=
 OpenBabel11062418033D

 63 67  0  0  1  0  0  0  0  0999 V2000
  188.1560  177.5230  139.0810 C   0  0  2  0  0  3  0  0  0  0  0  0
  182.9300  177.7050  135.4020 C   0  0  0  0  0  1  0  0  0  0  0  0
  183.7100  175.8140  136.9570 C   0  0  2  0  0  3  0  0  0  0  0  0
  190.3790  176.6810  138.3530 N   0  0  0  0  0  2  0  0  0  0  0  0
  184.0180  178.2200  137.5990 C   0  0  0  0  0  2  0  0  0  0  0  0
  188.7970  171.5670  136.8270 C   0  0  0  0  0  1  0  0  0  0  0  0
  185.3510  178.8800  139.4540 O   0  0  0  0  0  1  0  0  0  0  0  0
  183.9410  177.2390  136.4400 C   0  0  2  0  0  3  0  0  0  0  0  0
  192.7820  175.9190  135.8140 C   0  0  0  0  0  0  0  0  0  0  0  0
  189.4930  173.8560  136.2460 C   0  0  0  0  0  3  0  0  0  0  0  0
  185.3690  178.1090  138.2920 C   0  0  2  0  0  3  0  0  0  0  0  0
  188.7890  178.6230  137.0780 O   0  0  0  0  0  0  0  0  0  0  0  0
  188.4930  175.1740  138.1500 C   0  0  0  0  0  2  0  0  0  0  0  0
  185.0810  174.9100  135.0590 O   0  0  0  0  0  0  0  0  0  0  0  0
  186.5340  172.9820  134.7450 C   0  0  0  0  0  2  0  0  0  0  0  0
  184.7020  174.8400  136.4040 C   0  0  0  0  0  0  0  0  0  0  0  0
  190.6130  175.8100  137.2630 C   0  0  0  0  0  0  0  0  0  0  0  0
  189.1070  176.3240  138.9770 C   0  0  2  0  0  3  0  0  0  0  0  0
  186.4660  178.6120  137.3560 C   0  0  0  0  0  2  0  0  0  0  0  0
  193.5670  176.4090  134.6030 C   0  0  0  0  0  2  0  0  0  0  0  0
  187.9510  172.6600  134.8280 N   0  0  0  0  0  2  0  0  0  0  0  0
  186.3590  174.4890  134.6030 C   0  0  0  0  0  2  0  0  0  0  0  0
  194.2350  175.5600  135.5340 C   0  0  0  0  0  2  0  0  0  0  0  0
  188.3640  172.8810  136.2060 C   0  0  1  0  0  3  0  0  0  0  0  0
  187.8650  178.2660  137.7900 C   0  0  0  0  0  0  0  0  0  0  0  0
  191.6990  175.8590  136.5370 C   0  0  0  0  0  0  0  0  0  0  0  0
  185.1930  173.9660  137.1660 O   0  0  0  0  0  0  0  0  0  0  0  0
  189.5360  174.8600  137.1280 C   0  0  0  0  0  0  0  0  0  0  0  0
  179.4710  174.6740  135.2080 C   0  0  0  0  0  1  0  0  0  0  0  0
  180.1240  174.8100  137.6190 C   0  0  0  0  0  2  0  0  0  0  0  0
  180.4300  174.1630  136.2650 C   0  0  2  0  0  0  0  0  0  0  0  0
  181.3980  175.5200  137.9350 C   0  0  0  0  0  0  0  0  0  0  0  0
  181.7570  174.5650  135.9570 O   0  0  0  0  0  0  0  0  0  0  0  0
  182.2790  175.3510  136.9690 C   0  0  0  0  0  0  0  0  0  0  0  0
  178.9900  171.7870  135.5500 O   0  0  0  0  0  0  0  0  0  0  0  0
  180.2340  171.9470  137.8450 O   0  0  0  0  0  1  0  0  0  0  0  0
  180.3450  172.3500  136.3920 P   0  0  0  0  0  0  0  0  0  0  0  0
  181.7430  171.6610  135.7280 O   0  0  0  0  0  1  0  0  0  0  0  0
  181.6340  176.2500  139.1000 O   0  0  0  0  0  0  0  0  0  0  0  0
  181.1820  177.5050  139.2320 O   0  0  0  0  0  0  0  0  0  0  0  0
  181.4440  178.9330  141.1910 C   0  0  0  0  0  0  0  0  0  0  0  0
  181.0750  177.6990  140.5710 N   0  0  0  0  0  2  0  0  0  0  0  0
  181.7970  179.9170  140.4850 O   0  0  0  0  0  0  0  0  0  0  0  0
  181.3750  179.0480  142.6860 C   0  0  2  0  0  3  0  0  0  0  0  0
  183.3130  180.0120  143.8640 N   0  0  0  0  0  1  0  0  0  0  0  0
  183.6120  178.2330  142.3870 O   0  0  0  0  0  1  0  0  0  0  0  0
  182.7400  178.7880  143.3220 C   0  0  2  0  0  3  0  0  0  0  0  0
  180.2820  178.1730  143.2960 C   0  0  0  0  0  2  0  0  0  0  0  0
  179.2180  179.0390  143.9440 C   0  0  0  0  0  1  0  0  0  0  0  0
  188.4060  178.3880  140.3350 C   0  0  0  0  0  2  0  0  0  0  0  0
  188.4240  177.6870  141.7030 C   0  0  2  0  0  3  0  0  0  0  0  0
  187.0900  177.8640  142.4170 C   0  0  0  0  0  2  0  0  0  0  0  0
  187.2850  178.3090  143.7850 N   0  0  0  0  0  2  0  0  0  0  0  0
  187.2510  177.1100  144.6050 C   0  0  0  0  0  2  0  0  0  0  0  0
  188.9530  177.0100  146.4370 C   0  0  0  0  0  3  0  0  0  0  0  0
  189.3650  177.3070  147.7410 C   0  0  0  0  0  3  0  0  0  0  0  0
  186.8460  178.1420  146.8450 C   0  0  0  0  0  3  0  0  0  0  0  0
  187.6930  177.4230  145.9900 C   0  0  0  0  0  0  0  0  0  0  0  0
  188.5170  178.0190  148.5960 C   0  0  0  0  0  3  0  0  0  0  0  0
  187.2560  178.4350  148.1490 C   0  0  0  0  0  3  0  0  0  0  0  0
  189.6100  178.1130  142.5670 C   0  0  0  0  0  2  0  0  0  0  0  0
  190.7770  177.1580  142.3800 C   0  0  0  0  0  2  0  0  0  0  0  0
  191.7080  177.7140  141.5040 O   0  0  0  0  0  1  0  0  0  0  0  0
  1 50  1  1  0  0  0
  3 34  1  6  0  0  0
  4 18  1  0  0  0  0
  5 11  1  0  0  0  0
  8  2  1  6  0  0  0
  8  3  1  0  0  0  0
  8  5  1  0  0  0  0
  9 26  2  0  0  0  0
 10 28  2  0  0  0  0
 11  7  1  1  0  0  0
 12 25  2  0  0  0  0
 14 16  1  0  0  0  0
 15 21  1  0  0  0  0
 16  3  1  0  0  0  0
 16 27  2  0  0  0  0
 17  4  1  0  0  0  0
 18 13  1  6  0  0  0
 18  1  1  0  0  0  0
 19 25  1  0  0  0  0
 19 11  1  0  0  0  0
 20 23  1  0  0  0  0
 20  9  1  0  0  0  0
 21 24  1  0  0  0  0
 22 15  1  0  0  0  0
 22 14  1  0  0  0  0
 23  9  1  0  0  0  0
 24 10  1  0  0  0  0
 24  6  1  6  0  0  0
 25  1  1  0  0  0  0
 26 17  2  0  0  0  0
 28 17  1  0  0  0  0
 28 13  1  0  0  0  0
 30 32  1  0  0  0  0
 31 29  1  6  0  0  0
 31 37  1  0  0  0  0
 31 30  1  0  0  0  0
 32 39  1  0  0  0  0
 33 31  1  0  0  0  0
 33 34  1  0  0  0  0
 34 32  2  0  0  0  0
 35 37  2  0  0  0  0
 37 36  1  0  0  0  0
 38 37  1  0  0  0  0
 39 40  1  0  0  0  0
 40 42  1  0  0  0  0
 41 44  1  0  0  0  0
 42 41  1  0  0  0  0
 43 41  2  0  0  0  0
 44 48  1  1  0  0  0
 44 47  1  0  0  0  0
 47 46  1  6  0  0  0
 47 45  1  0  0  0  0
 48 49  1  0  0  0  0
 51 50  1  6  0  0  0
 51 52  1  0  0  0  0
 51 61  1  0  0  0  0
 52 53  1  0  0  0  0
 53 54  1  0  0  0  0
 54 58  1  0  0  0  0
 55 56  1  0  0  0  0
 56 59  2  0  0  0  0
 57 60  2  0  0  0  0
 58 55  2  0  0  0  0
 58 57  1  0  0  0  0
 60 59  1  0  0  0  0
 62 61  1  0  0  0  0
 63 62  1  0  0  0  0
M  END
>  <MODEL>
1

>  <REMARK>
 VINA RESULT:      -6.8      0.000      0.000
  Name = 
  16 active torsions:
  status: ('A' for Active; 'I' for Inactive)
    1  A    between atoms: C_1  and  C_37
    2  A    between atoms: O_3  and  O_12
    3  A    between atoms: O_3  and  C_44
    4  A    between atoms: C_5  and  C_55
    5  A    between atoms: C_9  and  C_23
    6  A    between atoms: O_12  and  N_41
    7  A    between atoms: C_13  and  C_23
    8  A    between atoms: C_13  and  C_37
    9  A    between atoms: C_13  and  C_59
   10  A    between atoms: C_22  and  C_40
   11  A    between atoms: C_29  and  C_40
   12  A    between atoms: C_32  and  C_40
   13  A    between atoms: C_35  and  P_42
   14  A    between atoms: N_50  and  C_59
   15  A    between atoms: N_50  and  C_61
   16  A    between atoms: C_56  and  C_61
                            x       y       z     vdW  Elec       q    Type
                         _______ _______ _______ _____ _____    ______ ____

>  <TORSDO>
F 16

$$$$
=
 OpenBabel11062418033D

 63 67  0  0  1  0  0  0  0  0999 V2000
  188.2840  177.5150  138.9160 C   0  0  2  0  0  3  0  0  0  0  0  0
  183.1160  177.6060  135.1520 C   0  0  0  0  0  1  0  0  0  0  0  0
  183.8270  175.7910  136.8270 C   0  0  2  0  0  3  0  0  0  0  0  0
  190.4950  176.5790  138.2720 N   0  0  0  0  0  2  0  0  0  0  0  0
  184.1860  178.2230  137.3320 C   0  0  0  0  0  2  0  0  0  0  0  0
  188.8080  171.4240  137.0230 C   0  0  0  0  0  1  0  0  0  0  0  0
  185.5080  178.9590  139.1650 O   0  0  0  0  0  1  0  0  0  0  0  0
  184.1000  177.1770  136.2310 C   0  0  2  0  0  3  0  0  0  0  0  0
  192.9130  175.6120  135.8200 C   0  0  0  0  0  0  0  0  0  0  0  0
  189.5690  173.6570  136.3210 C   0  0  0  0  0  3  0  0  0  0  0  0
  185.5230  178.1200  138.0510 C   0  0  2  0  0  3  0  0  0  0  0  0
  188.9710  178.4800  136.8610 O   0  0  0  0  0  0  0  0  0  0  0  0
  188.5760  175.1080  138.1290 C   0  0  0  0  0  2  0  0  0  0  0  0
  185.2010  174.7450  135.0060 O   0  0  0  0  0  0  0  0  0  0  0  0
  186.6110  172.7680  134.8270 C   0  0  0  0  0  2  0  0  0  0  0  0
  184.8030  174.7630  136.3470 C   0  0  0  0  0  0  0  0  0  0  0  0
  190.7220  175.6410  137.2390 C   0  0  0  0  0  0  0  0  0  0  0  0
  189.2060  176.2890  138.8970 C   0  0  2  0  0  3  0  0  0  0  0  0
  186.6460  178.5410  137.1040 C   0  0  0  0  0  2  0  0  0  0  0  0
  193.7270  176.0110  134.5940 C   0  0  0  0  0  2  0  0  0  0  0  0
  188.0180  172.4170  134.9510 N   0  0  0  0  0  2  0  0  0  0  0  0
  186.4750  174.2680  134.5950 C   0  0  0  0  0  2  0  0  0  0  0  0
  194.3610  175.2030  135.5840 C   0  0  0  0  0  2  0  0  0  0  0  0
  188.4170  172.7090  136.3200 C   0  0  1  0  0  3  0  0  0  0  0  0
  188.0290  178.1880  137.5790 C   0  0  0  0  0  0  0  0  0  0  0  0
  191.8190  175.6210  136.5280 C   0  0  0  0  0  0  0  0  0  0  0  0
  185.2610  173.9240  137.1660 O   0  0  0  0  0  0  0  0  0  0  0  0
  189.6250  174.7100  137.1430 C   0  0  0  0  0  0  0  0  0  0  0  0
  179.5600  174.7400  135.0900 C   0  0  0  0  0  1  0  0  0  0  0  0
  180.2170  174.8830  137.5000 C   0  0  0  0  0  2  0  0  0  0  0  0
  180.5070  174.2160  136.1510 C   0  0  2  0  0  0  0  0  0  0  0  0
  181.5090  175.5640  137.8090 C   0  0  0  0  0  0  0  0  0  0  0  0
  181.8430  174.5820  135.8400 O   0  0  0  0  0  0  0  0  0  0  0  0
  182.3850  175.3640  136.8430 C   0  0  0  0  0  0  0  0  0  0  0  0
  180.0740  171.7380  134.7720 O   0  0  0  0  0  0  0  0  0  0  0  0
  179.2450  172.0510  137.2330 O   0  0  0  0  0  1  0  0  0  0  0  0
  180.3770  172.4060  136.2960 P   0  0  0  0  0  0  0  0  0  0  0  0
  181.8240  171.7740  136.9070 O   0  0  0  0  0  1  0  0  0  0  0  0
  181.7630  176.2990  138.9660 O   0  0  0  0  0  0  0  0  0  0  0  0
  180.8580  177.1610  139.4500 O   0  0  0  0  0  0  0  0  0  0  0  0
  181.1130  179.5290  138.9240 C   0  0  0  0  0  0  0  0  0  0  0  0
  180.8280  178.1780  138.5510 N   0  0  0  0  0  2  0  0  0  0  0  0
  181.4930  179.7960  140.0960 O   0  0  0  0  0  0  0  0  0  0  0  0
  180.9820  180.6130  137.8930 C   0  0  2  0  0  3  0  0  0  0  0  0
  179.5300  182.5810  138.1890 N   0  0  0  0  0  1  0  0  0  0  0  0
  181.8480  182.8310  138.1870 O   0  0  0  0  0  1  0  0  0  0  0  0
  180.8050  181.9800  138.5510 C   0  0  2  0  0  3  0  0  0  0  0  0
  179.8890  180.3230  136.8670 C   0  0  0  0  0  2  0  0  0  0  0  0
  180.4840  179.6580  135.6400 C   0  0  0  0  0  1  0  0  0  0  0  0
  188.5380  178.4460  140.1200 C   0  0  0  0  0  2  0  0  0  0  0  0
  188.6920  177.8030  141.5090 C   0  0  2  0  0  3  0  0  0  0  0  0
  187.4970  178.1380  142.3930 C   0  0  0  0  0  2  0  0  0  0  0  0
  187.9240  178.4850  143.7370 N   0  0  0  0  0  2  0  0  0  0  0  0
  187.4650  177.4040  144.5940 C   0  0  0  0  0  2  0  0  0  0  0  0
  187.3100  177.9650  147.0290 C   0  0  0  0  0  3  0  0  0  0  0  0
  187.8920  178.0780  148.2960 C   0  0  0  0  0  3  0  0  0  0  0  0
  189.4270  177.1920  146.1290 C   0  0  0  0  0  3  0  0  0  0  0  0
  188.0780  177.5260  145.9440 C   0  0  0  0  0  0  0  0  0  0  0  0
  189.2380  177.7510  148.4790 C   0  0  0  0  0  3  0  0  0  0  0  0
  190.0080  177.3090  147.3940 C   0  0  0  0  0  3  0  0  0  0  0  0
  190.0250  178.1480  142.1720 C   0  0  0  0  0  2  0  0  0  0  0  0
  190.7860  176.8820  142.5280 C   0  0  0  0  0  2  0  0  0  0  0  0
  189.8940  175.8240  142.6940 O   0  0  0  0  0  1  0  0  0  0  0  0
  1 50  1  1  0  0  0
  3 34  1  6  0  0  0
  4 18  1  0  0  0  0
  5 11  1  0  0  0  0
  8  2  1  6  0  0  0
  8  3  1  0  0  0  0
  8  5  1  0  0  0  0
  9 26  2  0  0  0  0
 10 28  2  0  0  0  0
 11  7  1  1  0  0  0
 12 25  2  0  0  0  0
 14 16  1  0  0  0  0
 15 21  1  0  0  0  0
 16  3  1  0  0  0  0
 16 27  2  0  0  0  0
 17  4  1  0  0  0  0
 18 13  1  6  0  0  0
 18  1  1  0  0  0  0
 19 25  1  0  0  0  0
 19 11  1  0  0  0  0
 20 23  1  0  0  0  0
 20  9  1  0  0  0  0
 21 24  1  0  0  0  0
 22 15  1  0  0  0  0
 22 14  1  0  0  0  0
 23  9  1  0  0  0  0
 24 10  1  0  0  0  0
 24  6  1  6  0  0  0
 25  1  1  0  0  0  0
 26 17  2  0  0  0  0
 28 17  1  0  0  0  0
 28 13  1  0  0  0  0
 30 32  1  0  0  0  0
 31 29  1  6  0  0  0
 31 37  1  0  0  0  0
 31 30  1  0  0  0  0
 32 39  1  0  0  0  0
 33 31  1  0  0  0  0
 33 34  1  0  0  0  0
 34 32  2  0  0  0  0
 35 37  2  0  0  0  0
 37 38  1  0  0  0  0
 37 36  1  0  0  0  0
 39 40  1  0  0  0  0
 41 43  2  0  0  0  0
 42 41  1  0  0  0  0
 42 40  1  0  0  0  0
 44 48  1  6  0  0  0
 44 47  1  0  0  0  0
 44 41  1  0  0  0  0
 45 47  1  0  0  0  0
 47 46  1  6  0  0  0
 49 48  1  0  0  0  0
 51 50  1  6  0  0  0
 51 61  1  0  0  0  0
 51 52  1  0  0  0  0
 52 53  1  0  0  0  0
 53 54  1  0  0  0  0
 54 58  1  0  0  0  0
 55 56  1  0  0  0  0
 56 59  2  0  0  0  0
 57 60  2  0  0  0  0
 58 57  1  0  0  0  0
 58 55  2  0  0  0  0
 60 59  1  0  0  0  0
 61 62  1  0  0  0  0
 62 63  1  0  0  0  0
M  END
>  <MODEL>
2

>  <REMARK>
 VINA RESULT:      -6.2      1.557      2.277
  Name = 
  16 active torsions:
  status: ('A' for Active; 'I' for Inactive)
    1  A    between atoms: C_1  and  C_37
    2  A    between atoms: O_3  and  O_12
    3  A    between atoms: O_3  and  C_44
    4  A    between atoms: C_5  and  C_55
    5  A    between atoms: C_9  and  C_23
    6  A    between atoms: O_12  and  N_41
    7  A    between atoms: C_13  and  C_23
    8  A    between atoms: C_13  and  C_37
    9  A    between atoms: C_13  and  C_59
   10  A    between atoms: C_22  and  C_40
   11  A    between atoms: C_29  and  C_40
   12  A    between atoms: C_32  and  C_40
   13  A    between atoms: C_35  and  P_42
   14  A    between atoms: N_50  and  C_59
   15  A    between atoms: N_50  and  C_61
   16  A    between atoms: C_56  and  C_61
                            x       y       z     vdW  Elec       q    Type
                         _______ _______ _______ _____ _____    ______ ____

>  <TORSDO>
F 16

$$$$
=
 OpenBabel11062418033D

 63 67  0  0  1  0  0  0  0  0999 V2000
  189.1180  176.8200  138.6950 C   0  0  2  0  0  3  0  0  0  0  0  0
  184.0840  177.6560  134.8440 C   0  0  0  0  0  1  0  0  0  0  0  0
  184.4120  175.8680  136.6600 C   0  0  2  0  0  3  0  0  0  0  0  0
  191.0990  175.4160  138.1620 N   0  0  0  0  0  2  0  0  0  0  0  0
  185.2500  178.2110  136.9910 C   0  0  0  0  0  2  0  0  0  0  0  0
  188.4160  170.6220  137.2650 C   0  0  0  0  0  1  0  0  0  0  0  0
  186.6880  178.8040  138.7880 O   0  0  0  0  0  1  0  0  0  0  0  0
  184.9590  177.1230  135.9680 C   0  0  2  0  0  3  0  0  0  0  0  0
  193.2810  173.8030  135.8310 C   0  0  0  0  0  0  0  0  0  0  0  0
  189.6120  172.5980  136.4140 C   0  0  0  0  0  3  0  0  0  0  0  0
  186.5370  177.8970  137.7390 C   0  0  2  0  0  3  0  0  0  0  0  0
  189.9910  177.4700  136.5880 O   0  0  0  0  0  0  0  0  0  0  0  0
  188.9240  174.3510  138.0930 C   0  0  0  0  0  2  0  0  0  0  0  0
  185.5540  174.4340  134.9450 O   0  0  0  0  0  0  0  0  0  0  0  0
  186.5390  172.2080  134.9370 C   0  0  0  0  0  2  0  0  0  0  0  0
  185.1630  174.6330  136.2740 C   0  0  0  0  0  0  0  0  0  0  0  0
  191.1360  174.3760  137.2050 C   0  0  0  0  0  0  0  0  0  0  0  0
  189.7760  175.4370  138.7830 C   0  0  2  0  0  3  0  0  0  0  0  0
  187.7240  178.0130  136.7840 C   0  0  0  0  0  2  0  0  0  0  0  0
  194.1620  173.9380  134.5940 C   0  0  0  0  0  2  0  0  0  0  0  0
  187.8470  171.5940  135.1120 N   0  0  0  0  0  2  0  0  0  0  0  0
  186.7080  173.6820  134.5940 C   0  0  0  0  0  2  0  0  0  0  0  0
  194.6180  173.0960  135.6510 C   0  0  0  0  0  2  0  0  0  0  0  0
  188.2930  171.9020  136.4620 C   0  0  1  0  0  3  0  0  0  0  0  0
  189.0070  177.4280  137.3090 C   0  0  0  0  0  0  0  0  0  0  0  0
  192.2090  174.0830  136.5160 C   0  0  0  0  0  0  0  0  0  0  0  0
  185.4420  173.7830  137.1600 O   0  0  0  0  0  0  0  0  0  0  0  0
  189.8750  173.6780  137.1570 C   0  0  0  0  0  0  0  0  0  0  0  0
  180.0640  175.1170  134.9680 C   0  0  0  0  0  1  0  0  0  0  0  0
  180.6790  175.8990  137.2640 C   0  0  0  0  0  2  0  0  0  0  0  0
  180.8610  174.7950  136.2170 C   0  0  2  0  0  0  0  0  0  0  0  0
  182.0730  176.3940  137.4590 C   0  0  0  0  0  0  0  0  0  0  0  0
  182.2500  174.7910  135.9240 O   0  0  0  0  0  0  0  0  0  0  0  0
  182.9130  175.7400  136.6820 C   0  0  0  0  0  0  0  0  0  0  0  0
  179.7090  173.4000  138.4430 O   0  0  0  0  0  1  0  0  0  0  0  0
  181.5730  172.2770  136.9910 O   0  0  0  0  0  1  0  0  0  0  0  0
  180.3660  173.1820  136.9000 P   0  0  0  0  0  0  0  0  0  0  0  0
  179.2060  172.4650  135.8950 O   0  0  0  0  0  0  0  0  0  0  0  0
  182.4410  177.4000  138.3510 O   0  0  0  0  0  0  0  0  0  0  0  0
  181.5560  178.3210  138.7590 O   0  0  0  0  0  0  0  0  0  0  0  0
  180.5440  180.2560  137.6750 C   0  0  0  0  0  0  0  0  0  0  0  0
  181.5790  179.2780  137.7970 N   0  0  0  0  0  2  0  0  0  0  0  0
  179.6180  180.3090  138.5300 O   0  0  0  0  0  0  0  0  0  0  0  0
  180.5940  181.2340  136.5370 C   0  0  2  0  0  3  0  0  0  0  0  0
  179.4110  183.1720  135.5820 N   0  0  0  0  0  1  0  0  0  0  0  0
  180.2900  183.2900  137.7370 O   0  0  0  0  0  1  0  0  0  0  0  0
  179.6940  182.4390  136.8060 C   0  0  2  0  0  3  0  0  0  0  0  0
  180.2970  180.5850  135.1870 C   0  0  0  0  0  2  0  0  0  0  0  0
  179.2330  179.5150  135.3420 C   0  0  0  0  0  1  0  0  0  0  0  0
  189.5500  177.7700  139.8330 C   0  0  0  0  0  2  0  0  0  0  0  0
  189.1510  177.4010  141.2710 C   0  0  2  0  0  3  0  0  0  0  0  0
  188.5810  178.6120  141.9990 C   0  0  0  0  0  2  0  0  0  0  0  0
  187.1320  178.5410  142.0740 N   0  0  0  0  0  2  0  0  0  0  0  0
  186.8330  177.5230  143.0670 C   0  0  0  0  0  2  0  0  0  0  0  0
  184.5760  178.5140  143.5100 C   0  0  0  0  0  3  0  0  0  0  0  0
  183.5970  178.9760  144.3960 C   0  0  0  0  0  3  0  0  0  0  0  0
  186.0140  177.9690  145.3870 C   0  0  0  0  0  3  0  0  0  0  0  0
  185.7870  178.0150  144.0040 C   0  0  0  0  0  0  0  0  0  0  0  0
  183.8270  178.9360  145.7740 C   0  0  0  0  0  3  0  0  0  0  0  0
  185.0370  178.4340  146.2710 C   0  0  0  0  0  3  0  0  0  0  0  0
  190.2890  176.7360  142.0450 C   0  0  0  0  0  2  0  0  0  0  0  0
  189.8450  176.3950  143.4570 C   0  0  0  0  0  2  0  0  0  0  0  0
  190.6330  177.0800  144.3800 O   0  0  0  0  0  1  0  0  0  0  0  0
  1 18  1  0  0  0  0
  1 50  1  1  0  0  0
  3 34  1  6  0  0  0
  4 18  1  0  0  0  0
  5 11  1  0  0  0  0
  8  2  1  6  0  0  0
  8  3  1  0  0  0  0
  8  5  1  0  0  0  0
  9 26  2  0  0  0  0
 10 24  1  0  0  0  0
 10 28  2  0  0  0  0
 11  7  1  1  0  0  0
 12 25  2  0  0  0  0
 14 16  1  0  0  0  0
 15 21  1  0  0  0  0
 16  3  1  0  0  0  0
 16 27  2  0  0  0  0
 17  4  1  0  0  0  0
 18 13  1  6  0  0  0
 19 25  1  0  0  0  0
 19 11  1  0  0  0  0
 20 23  1  0  0  0  0
 20  9  1  0  0  0  0
 21 24  1  0  0  0  0
 22 15  1  0  0  0  0
 22 14  1  0  0  0  0
 23  9  1  0  0  0  0
 24  6  1  1  0  0  0
 25  1  1  0  0  0  0
 26 17  2  0  0  0  0
 28 17  1  0  0  0  0
 28 13  1  0  0  0  0
 30 32  1  0  0  0  0
 31 29  1  6  0  0  0
 31 37  1  0  0  0  0
 31 30  1  0  0  0  0
 32 39  1  0  0  0  0
 33 31  1  0  0  0  0
 33 34  1  0  0  0  0
 34 32  2  0  0  0  0
 37 36  1  0  0  0  0
 37 35  1  0  0  0  0
 38 37  2  0  0  0  0
 39 40  1  0  0  0  0
 41 42  1  0  0  0  0
 41 43  2  0  0  0  0
 42 40  1  0  0  0  0
 44 48  1  6  0  0  0
 44 47  1  0  0  0  0
 44 41  1  0  0  0  0
 47 45  1  6  0  0  0
 47 46  1  0  0  0  0
 48 49  1  0  0  0  0
 51 50  1  6  0  0  0
 51 52  1  0  0  0  0
 51 61  1  0  0  0  0
 52 53  1  0  0  0  0
 53 54  1  0  0  0  0
 54 58  1  0  0  0  0
 55 58  2  0  0  0  0
 55 56  1  0  0  0  0
 56 59  2  0  0  0  0
 57 60  2  0  0  0  0
 58 57  1  0  0  0  0
 59 60  1  0  0  0  0
 61 62  1  0  0  0  0
 62 63  1  0  0  0  0
M  END
>  <MODEL>
3

>  <REMARK>
 VINA RESULT:      -4.4      2.190      3.284
  Name = 
  16 active torsions:
  status: ('A' for Active; 'I' for Inactive)
    1  A    between atoms: C_1  and  C_37
    2  A    between atoms: O_3  and  O_12
    3  A    between atoms: O_3  and  C_44
    4  A    between atoms: C_5  and  C_55
    5  A    between atoms: C_9  and  C_23
    6  A    between atoms: O_12  and  N_41
    7  A    between atoms: C_13  and  C_23
    8  A    between atoms: C_13  and  C_37
    9  A    between atoms: C_13  and  C_59
   10  A    between atoms: C_22  and  C_40
   11  A    between atoms: C_29  and  C_40
   12  A    between atoms: C_32  and  C_40
   13  A    between atoms: C_35  and  P_42
   14  A    between atoms: N_50  and  C_59
   15  A    between atoms: N_50  and  C_61
   16  A    between atoms: C_56  and  C_61
                            x       y       z     vdW  Elec       q    Type
                         _______ _______ _______ _____ _____    ______ ____

>  <TORSDO>
F 16

$$$$
=
 OpenBabel11062418033D

 63 67  0  0  1  0  0  0  0  0999 V2000
  189.0800  176.8080  138.7040 C   0  0  2  0  0  3  0  0  0  0  0  0
  184.0470  177.6700  134.8550 C   0  0  0  0  0  1  0  0  0  0  0  0
  184.3700  175.8760  136.6660 C   0  0  2  0  0  3  0  0  0  0  0  0
  191.0550  175.3980  138.1660 N   0  0  0  0  0  2  0  0  0  0  0  0
  185.2150  178.2150  137.0040 C   0  0  0  0  0  2  0  0  0  0  0  0
  188.3560  170.6150  137.2580 C   0  0  0  0  0  1  0  0  0  0  0  0
  186.6560  178.7990  138.8020 O   0  0  0  0  0  1  0  0  0  0  0  0
  184.9210  177.1310  135.9780 C   0  0  2  0  0  3  0  0  0  0  0  0
  193.2320  173.7830  135.8310 C   0  0  0  0  0  0  0  0  0  0  0  0
  189.5580  172.5900  136.4120 C   0  0  0  0  0  3  0  0  0  0  0  0
  186.5020  177.8960  137.7500 C   0  0  2  0  0  3  0  0  0  0  0  0
  189.9540  177.4600  136.5980 O   0  0  0  0  0  0  0  0  0  0  0  0
  188.8770  174.3410  138.0950 C   0  0  0  0  0  2  0  0  0  0  0  0
  185.5060  174.4420  134.9480 O   0  0  0  0  0  0  0  0  0  0  0  0
  186.4840  172.2130  134.9350 C   0  0  0  0  0  2  0  0  0  0  0  0
  185.1170  174.6390  136.2780 C   0  0  0  0  0  0  0  0  0  0  0  0
  191.0890  174.3600  137.2070 C   0  0  0  0  0  0  0  0  0  0  0  0
  189.7330  175.4220  138.7870 C   0  0  2  0  0  3  0  0  0  0  0  0
  187.6890  178.0100  136.7960 C   0  0  0  0  0  2  0  0  0  0  0  0
  194.1120  173.9180  134.5940 C   0  0  0  0  0  2  0  0  0  0  0  0
  187.7890  171.5940  135.1080 N   0  0  0  0  0  2  0  0  0  0  0  0
  186.6570  173.6880  134.5950 C   0  0  0  0  0  2  0  0  0  0  0  0
  194.5660  173.0720  135.6490 C   0  0  0  0  0  2  0  0  0  0  0  0
  188.2370  171.8980  136.4590 C   0  0  1  0  0  3  0  0  0  0  0  0
  188.9710  177.4190  137.3180 C   0  0  0  0  0  0  0  0  0  0  0  0
  192.1610  174.0650  136.5170 C   0  0  0  0  0  0  0  0  0  0  0  0
  185.3930  173.7870  137.1620 O   0  0  0  0  0  0  0  0  0  0  0  0
  189.8250  173.6670  137.1580 C   0  0  0  0  0  0  0  0  0  0  0  0
  180.0370  174.9370  135.0310 C   0  0  0  0  0  1  0  0  0  0  0  0
  180.6310  175.9820  137.2260 C   0  0  0  0  0  2  0  0  0  0  0  0
  180.8200  174.7630  136.3170 C   0  0  2  0  0  0  0  0  0  0  0  0
  182.0240  176.4950  137.3750 C   0  0  0  0  0  0  0  0  0  0  0  0
  182.2130  174.7230  136.0410 O   0  0  0  0  0  0  0  0  0  0  0  0
  182.8710  175.7530  136.6880 C   0  0  0  0  0  0  0  0  0  0  0  0
  181.6110  172.1540  137.2130 O   0  0  0  0  0  1  0  0  0  0  0  0
  179.1490  172.6100  136.4560 O   0  0  0  0  0  0  0  0  0  0  0  0
  180.3150  173.2420  137.1800 P   0  0  0  0  0  0  0  0  0  0  0  0
  179.8530  173.6090  138.7680 O   0  0  0  0  0  1  0  0  0  0  0  0
  182.3860  177.5990  138.1460 O   0  0  0  0  0  0  0  0  0  0  0  0
  182.6300  177.4740  139.4590 O   0  0  0  0  0  0  0  0  0  0  0  0
  181.4940  178.4380  141.3900 C   0  0  0  0  0  0  0  0  0  0  0  0
  181.4920  177.8950  140.0670 N   0  0  0  0  0  2  0  0  0  0  0  0
  182.5840  178.6260  141.9960 O   0  0  0  0  0  0  0  0  0  0  0  0
  180.1870  178.8070  142.0290 C   0  0  2  0  0  3  0  0  0  0  0  0
  179.6500  179.4920  139.7240 N   0  0  0  0  0  1  0  0  0  0  0  0
  179.6690  181.0740  141.4360 O   0  0  0  0  0  1  0  0  0  0  0  0
  179.3800  179.7440  141.1320 C   0  0  2  0  0  3  0  0  0  0  0  0
  180.3570  179.3680  143.4390 C   0  0  0  0  0  2  0  0  0  0  0  0
  179.2800  178.8200  144.3560 C   0  0  0  0  0  1  0  0  0  0  0  0
  189.5150  177.7540  139.8430 C   0  0  0  0  0  2  0  0  0  0  0  0
  188.8770  177.5550  141.2280 C   0  0  2  0  0  3  0  0  0  0  0  0
  188.1590  178.8220  141.6760 C   0  0  0  0  0  2  0  0  0  0  0  0
  186.8860  178.5070  142.3000 N   0  0  0  0  0  2  0  0  0  0  0  0
  187.1900  177.5980  143.3920 C   0  0  0  0  0  2  0  0  0  0  0  0
  186.8290  177.6690  145.8690 C   0  0  0  0  0  3  0  0  0  0  0  0
  186.0350  177.9760  146.9800 C   0  0  0  0  0  3  0  0  0  0  0  0
  185.0830  178.4920  144.3980 C   0  0  0  0  0  3  0  0  0  0  0  0
  186.3520  177.9230  144.5780 C   0  0  0  0  0  0  0  0  0  0  0  0
  184.7680  178.5380  146.7990 C   0  0  0  0  0  3  0  0  0  0  0  0
  184.2900  178.7940  145.5080 C   0  0  0  0  0  3  0  0  0  0  0  0
  189.8750  177.0500  142.2690 C   0  0  0  0  0  2  0  0  0  0  0  0
  191.2900  177.4600  141.8940 C   0  0  0  0  0  2  0  0  0  0  0  0
  191.9930  177.8330  143.0380 O   0  0  0  0  0  1  0  0  0  0  0  0
  1 18  1  0  0  0  0
  1 50  1  1  0  0  0
  3 34  1  6  0  0  0
  4 18  1  0  0  0  0
  5 11  1  0  0  0  0
  8  2  1  6  0  0  0
  8  3  1  0  0  0  0
  8  5  1  0  0  0  0
  9 26  2  0  0  0  0
 10 24  1  0  0  0  0
 10 28  2  0  0  0  0
 11  7  1  1  0  0  0
 12 25  2  0  0  0  0
 14 16  1  0  0  0  0
 15 21  1  0  0  0  0
 16  3  1  0  0  0  0
 16 27  2  0  0  0  0
 17  4  1  0  0  0  0
 18 13  1  6  0  0  0
 19 25  1  0  0  0  0
 19 11  1  0  0  0  0
 20 23  1  0  0  0  0
 20  9  1  0  0  0  0
 21 24  1  0  0  0  0
 22 15  1  0  0  0  0
 22 14  1  0  0  0  0
 23  9  1  0  0  0  0
 24  6  1  1  0  0  0
 25  1  1  0  0  0  0
 26 17  2  0  0  0  0
 28 17  1  0  0  0  0
 28 13  1  0  0  0  0
 30 32  1  0  0  0  0
 31 29  1  6  0  0  0
 31 37  1  0  0  0  0
 31 30  1  0  0  0  0
 32 39  1  0  0  0  0
 33 31  1  0  0  0  0
 33 34  1  0  0  0  0
 34 32  2  0  0  0  0
 36 37  2  0  0  0  0
 37 35  1  0  0  0  0
 37 38  1  0  0  0  0
 39 40  1  0  0  0  0
 40 42  1  0  0  0  0
 41 43  2  0  0  0  0
 41 44  1  0  0  0  0
 42 41  1  0  0  0  0
 44 48  1  1  0  0  0
 47 45  1  6  0  0  0
 47 46  1  0  0  0  0
 47 44  1  0  0  0  0
 48 49  1  0  0  0  0
 51 50  1  6  0  0  0
 51 52  1  0  0  0  0
 51 61  1  0  0  0  0
 52 53  1  0  0  0  0
 53 54  1  0  0  0  0
 54 58  1  0  0  0  0
 55 56  1  0  0  0  0
 57 58  1  0  0  0  0
 57 60  2  0  0  0  0
 58 55  2  0  0  0  0
 59 56  2  0  0  0  0
 60 59  1  0  0  0  0
 62 61  1  0  0  0  0
 62 63  1  0  0  0  0
M  END
>  <MODEL>
4

>  <REMARK>
 VINA RESULT:      -4.3      1.468      2.010
  Name = 
  16 active torsions:
  status: ('A' for Active; 'I' for Inactive)
    1  A    between atoms: C_1  and  C_37
    2  A    between atoms: O_3  and  O_12
    3  A    between atoms: O_3  and  C_44
    4  A    between atoms: C_5  and  C_55
    5  A    between atoms: C_9  and  C_23
    6  A    between atoms: O_12  and  N_41
    7  A    between atoms: C_13  and  C_23
    8  A    between atoms: C_13  and  C_37
    9  A    between atoms: C_13  and  C_59
   10  A    between atoms: C_22  and  C_40
   11  A    between atoms: C_29  and  C_40
   12  A    between atoms: C_32  and  C_40
   13  A    between atoms: C_35  and  P_42
   14  A    between atoms: N_50  and  C_59
   15  A    between atoms: N_50  and  C_61
   16  A    between atoms: C_56  and  C_61
                            x       y       z     vdW  Elec       q    Type
                         _______ _______ _______ _____ _____    ______ ____

>  <TORSDO>
F 16

$$$$
