=
 OpenBabel11062415063D

 55 63  0  0  1  0  0  0  0  0999 V2000
  179.9410  174.0770  136.0010 C   0  0  0  0  0  0  0  0  0  0  0  0
  184.0940  171.0900  136.7410 C   0  0  0  0  0  3  0  0  0  0  0  0
  180.4980  177.0430  139.1500 O   0  0  0  0  0  0  0  0  0  0  0  0
  182.3440  177.0700  134.6010 C   0  0  0  0  0  1  0  0  0  0  0  0
  183.3020  176.4780  135.6110 C   0  0  1  0  0  3  0  0  0  0  0  0
  179.2740  175.1630  138.1930 C   0  0  2  0  0  3  0  0  0  0  0  0
  179.0740  171.8050  135.5940 C   0  0  0  0  0  1  0  0  0  0  0  0
  183.0090  172.1100  136.7980 C   0  0  0  0  0  2  0  0  0  0  0  0
  183.2040  173.2390  135.8190 C   0  0  0  0  0  0  0  0  0  0  0  0
  181.7660  177.5850  138.8950 C   0  0  2  0  0  0  0  0  0  0  0  0
  185.4310  173.8370  136.8000 C   0  0  0  0  0  3  0  0  0  0  0  0
  181.1640  174.4530  136.0980 N   0  0  0  0  0  0  0  0  0  0  0  0
  184.1120  177.1730  137.9140 C   0  0  0  0  0  2  0  0  0  0  0  0
  182.8340  176.6010  138.5190 C   0  0  1  0  0  3  0  0  0  0  0  0
  178.9410  174.5210  136.9230 N   0  0  0  0  0  2  0  0  0  0  0  0
  180.0000  176.5060  137.9470 C   0  0  1  0  0  3  0  0  0  0  0  0
  179.7680  173.0190  134.9870 C   0  0  2  0  0  3  0  0  0  0  0  0
  181.1390  172.6570  134.5940 N   0  0  0  0  0  2  0  0  0  0  0  0
  184.5090  175.4250  134.7300 S   0  0  0  0  0  0  0  0  0  0  0  0
  183.9120  177.6030  136.4620 C   0  0  1  0  0  3  0  0  0  0  0  0
  185.8930  172.6980  137.3180 C   0  0  0  0  0  3  0  0  0  0  0  0
  185.3720  171.3560  137.0200 C   0  0  0  0  0  3  0  0  0  0  0  0
  184.3250  174.0050  135.8360 C   0  0  0  0  0  0  0  0  0  0  0  0
  181.9700  173.7470  135.1250 C   0  0  2  0  0  3  0  0  0  0  0  0
  179.1460  177.4270  137.3320 O   0  0  0  0  0  1  0  0  0  0  0  0
  182.6740  177.0530  139.8330 O   0  0  0  0  0  0  0  0  0  0  0  0
  180.6890  179.8550  139.1090 C   0  0  0  0  0  3  0  0  0  0  0  0
  183.0880  181.1830  138.6930 C   0  0  0  0  0  3  0  0  0  0  0  0
  181.9440  181.8940  138.8770 N   0  0  0  0  0  0  0  0  0  0  0  0
  183.0580  179.7820  138.6870 C   0  0  0  0  0  3  0  0  0  0  0  0
  181.8540  179.1070  138.9140 C   0  0  0  0  0  0  0  0  0  0  0  0
  180.7540  181.2570  139.0810 C   0  0  0  0  0  3  0  0  0  0  0  0
  180.1050  174.2100  139.0340 C   0  0  0  0  0  3  0  0  0  0  0  0
  179.4750  174.0170  140.3970 C   0  0  0  0  0  2  0  0  0  0  0  0
  179.2770  172.9670  139.3140 C   0  0  0  0  0  2  0  0  0  0  0  0
  185.1080  178.1360  135.9480 O   0  0  0  0  0  0  0  0  0  0  0  0
  186.1200  177.8160  136.8750 C   0  0  0  0  0  2  0  0  0  0  0  0
  187.5040  177.7390  136.2490 C   0  0  2  0  0  3  0  0  0  0  0  0
  188.9400  175.0700  138.1500 O   0  0  0  0  0  0  0  0  0  0  0  0
  188.6350  176.1650  137.6130 C   0  0  0  0  0  0  0  0  0  0  0  0
  187.9050  176.2660  136.3120 C   0  0  0  0  0  2  0  0  0  0  0  0
  188.9040  177.4270  138.2150 N   0  0  0  0  0  0  0  0  0  0  0  0
  189.1860  179.3340  136.8960 O   0  0  0  0  0  0  0  0  0  0  0  0
  188.4740  178.3420  137.2150 C   0  0  0  0  0  0  0  0  0  0  0  0
  188.5340  177.6340  139.6260 C   0  0  1  0  0  3  0  0  0  0  0  0
  186.9790  177.5080  142.0400 N   0  0  2  0  0  0  0  0  0  0  0  0
  190.8470  177.2640  142.4440 C   0  0  0  0  0  1  0  0  0  0  0  0
  188.3420  176.5770  143.8190 C   0  0  0  0  0  2  0  0  0  0  0  0
  187.0110  176.9940  144.3860 C   0  0  0  0  0  2  0  0  0  0  0  0
  186.9560  178.7510  141.2590 C   0  0  0  0  0  2  0  0  0  0  0  0
  186.3910  177.8560  143.3220 C   0  0  0  0  0  2  0  0  0  0  0  0
  189.5410  177.8890  141.9800 C   0  0  2  0  0  3  0  0  0  0  0  0
  188.3310  176.9730  142.3510 C   0  0  2  0  0  3  0  0  0  0  0  0
  189.7000  178.1680  140.4650 C   0  0  0  0  0  2  0  0  0  0  0  0
  187.2750  178.5010  139.7920 C   0  0  0  0  0  2  0  0  0  0  0  0
  1 12  2  0  0  0  0
  1 15  1  0  0  0  0
  2  8  1  0  0  0  0
  2 22  2  0  0  0  0
  5  4  1  6  0  0  0
  5 20  1  0  0  0  0
  6 33  1  1  0  0  0
  9 23  2  0  0  0  0
  9  8  1  0  0  0  0
 10 31  1  6  0  0  0
 10  3  1  0  0  0  0
 10 26  1  0  0  0  0
 11 21  2  0  0  0  0
 14 13  1  6  0  0  0
 14 10  1  0  0  0  0
 14 26  1  0  0  0  0
 15  6  1  0  0  0  0
 16 25  1  1  0  0  0
 16  6  1  0  0  0  0
 16  3  1  0  0  0  0
 17  7  1  1  0  0  0
 17  1  1  0  0  0  0
 18 17  1  0  0  0  0
 19  5  1  0  0  0  0
 19 23  1  0  0  0  0
 20 36  1  6  0  0  0
 20 13  1  0  0  0  0
 22 21  1  0  0  0  0
 23 11  1  0  0  0  0
 24 18  1  1  0  0  0
 24  9  1  0  0  0  0
 24 12  1  0  0  0  0
 28 29  1  0  0  0  0
 29 32  2  0  0  0  0
 30 28  2  0  0  0  0
 30 31  1  0  0  0  0
 31 27  2  0  0  0  0
 32 27  1  0  0  0  0
 33 35  1  0  0  0  0
 33 34  1  0  0  0  0
 35 34  1  0  0  0  0
 36 37  1  0  0  0  0
 38 41  1  0  0  0  0
 38 37  1  1  0  0  0
 38 44  1  0  0  0  0
 40 39  2  0  0  0  0
 40 42  1  0  0  0  0
 41 40  1  0  0  0  0
 43 44  2  0  0  0  0
 44 42  1  0  0  0  0
 45 42  1  6  0  0  0
 45 55  1  0  0  0  0
 45 54  1  0  0  0  0
 46 50  1  6  0  0  0
 46 53  1  0  0  0  0
 46 51  1  0  0  0  0
 48 49  1  0  0  0  0
 51 49  1  0  0  0  0
 52 53  1  0  0  0  0
 52 47  1  6  0  0  0
 53 48  1  1  0  0  0
 54 52  1  0  0  0  0
 55 50  1  0  0  0  0
M  END
>  <MODEL>
1

>  <REMARK>
 VINA RESULT:      -5.4      0.000      0.000
  Name = 
  6 active torsions:
  status: ('A' for Active; 'I' for Inactive)
    1  A    between atoms: C_5  and  C_49
    2  A    between atoms: C_7  and  C_8
    3  A    between atoms: C_10  and  N_32
    4  A    between atoms: C_14  and  C_48
    5  A    between atoms: O_18  and  C_39
    6  A    between atoms: O_18  and  C_49
                            x       y       z     vdW  Elec       q    Type
                         _______ _______ _______ _____ _____    ______ ____

>  <TORSDO>
F 6

$$$$
=
 OpenBabel11062415063D

 55 63  0  0  1  0  0  0  0  0999 V2000
  188.1260  174.4190  135.1210 C   0  0  0  0  0  0  0  0  0  0  0  0
  190.1910  176.9180  139.1470 C   0  0  0  0  0  3  0  0  0  0  0  0
  184.3860  173.0100  136.8660 O   0  0  0  0  0  0  0  0  0  0  0  0
  185.3010  177.3460  134.7530 C   0  0  0  0  0  1  0  0  0  0  0  0
  185.4620  177.3890  136.2570 C   0  0  1  0  0  3  0  0  0  0  0  0
  186.6050  172.5700  135.9570 C   0  0  2  0  0  3  0  0  0  0  0  0
  190.5240  173.8720  134.9480 C   0  0  0  0  0  1  0  0  0  0  0  0
  189.3560  176.1200  138.2050 C   0  0  0  0  0  2  0  0  0  0  0  0
  188.5110  176.9710  137.2930 C   0  0  0  0  0  0  0  0  0  0  0  0
  183.7560  174.1770  137.3230 C   0  0  2  0  0  0  0  0  0  0  0  0
  187.3650  178.0770  139.2280 C   0  0  0  0  0  3  0  0  0  0  0  0
  187.5690  175.3130  135.8520 N   0  0  0  0  0  0  0  0  0  0  0  0
  184.0760  176.5700  138.2190 C   0  0  0  0  0  2  0  0  0  0  0  0
  184.6430  175.1690  138.0150 C   0  0  1  0  0  3  0  0  0  0  0  0
  187.6010  173.0910  135.0230 N   0  0  0  0  0  2  0  0  0  0  0  0
  185.2870  173.3690  135.8450 C   0  0  1  0  0  3  0  0  0  0  0  0
  189.4290  174.8700  134.5940 C   0  0  2  0  0  3  0  0  0  0  0  0
  189.6840  176.1450  135.2810 N   0  0  0  0  0  2  0  0  0  0  0  0
  186.5280  178.8080  136.6940 S   0  0  0  0  0  0  0  0  0  0  0  0
  184.0780  177.3800  136.9230 C   0  0  1  0  0  3  0  0  0  0  0  0
  188.2490  178.0230  140.2250 C   0  0  0  0  0  3  0  0  0  0  0  0
  189.6810  177.7300  140.0760 C   0  0  0  0  0  3  0  0  0  0  0  0
  187.6170  177.8640  137.7890 C   0  0  0  0  0  0  0  0  0  0  0  0
  188.3860  176.5080  135.8680 C   0  0  2  0  0  3  0  0  0  0  0  0
  184.6920  173.1730  134.5950 O   0  0  0  0  0  1  0  0  0  0  0  0
  183.8860  174.2320  138.7260 O   0  0  0  0  0  0  0  0  0  0  0  0
  181.3120  173.7140  137.7380 C   0  0  0  0  0  3  0  0  0  0  0  0
  180.5230  175.1180  135.4800 C   0  0  0  0  0  3  0  0  0  0  0  0
  179.5900  174.5070  136.2580 N   0  0  0  0  0  0  0  0  0  0  0  0
  181.8840  175.0210  135.7990 C   0  0  0  0  0  3  0  0  0  0  0  0
  182.2860  174.3300  136.9470 C   0  0  0  0  0  0  0  0  0  0  0  0
  179.9610  173.8100  137.3720 C   0  0  0  0  0  3  0  0  0  0  0  0
  187.1750  172.6010  137.3640 C   0  0  0  0  0  3  0  0  0  0  0  0
  187.8880  171.3040  137.6780 C   0  0  0  0  0  2  0  0  0  0  0  0
  188.6900  172.5320  137.2750 C   0  0  0  0  0  2  0  0  0  0  0  0
  183.5360  178.6580  137.1520 O   0  0  0  0  0  0  0  0  0  0  0  0
  183.0420  178.6530  138.4720 C   0  0  0  0  0  2  0  0  0  0  0  0
  181.6100  178.1500  138.5740 C   0  0  2  0  0  3  0  0  0  0  0  0
  180.2190  180.5730  140.8090 O   0  0  0  0  0  0  0  0  0  0  0  0
  180.6590  179.5420  140.2410 C   0  0  0  0  0  0  0  0  0  0  0  0
  180.7460  179.3970  138.7550 C   0  0  0  0  0  2  0  0  0  0  0  0
  181.1740  178.4220  140.9530 N   0  0  0  0  0  0  0  0  0  0  0  0
  181.1100  176.2860  140.0120 O   0  0  0  0  0  0  0  0  0  0  0  0
  181.4530  177.4960  139.9110 C   0  0  0  0  0  0  0  0  0  0  0  0
  182.1550  178.6540  142.0270 C   0  0  1  0  0  3  0  0  0  0  0  0
  183.4960  178.3500  144.5520 N   0  0  2  0  0  0  0  0  0  0  0  0
  185.7410  179.1680  141.4740 C   0  0  0  0  0  1  0  0  0  0  0  0
  185.8610  177.9780  144.1590 C   0  0  0  0  0  2  0  0  0  0  0  0
  185.6190  178.0820  145.6410 C   0  0  0  0  0  2  0  0  0  0  0  0
  182.5550  179.4640  144.3920 C   0  0  0  0  0  2  0  0  0  0  0  0
  184.2320  178.6480  145.7680 C   0  0  0  0  0  2  0  0  0  0  0  0
  184.5890  179.3820  142.4420 C   0  0  2  0  0  3  0  0  0  0  0  0
  184.5210  178.2200  143.4840 C   0  0  2  0  0  3  0  0  0  0  0  0
  183.3140  179.5520  141.5780 C   0  0  0  0  0  2  0  0  0  0  0  0
  181.5100  179.1720  143.3240 C   0  0  0  0  0  2  0  0  0  0  0  0
  1 12  2  0  0  0  0
  2 22  2  0  0  0  0
  3 10  1  0  0  0  0
  5  4  1  6  0  0  0
  5 19  1  0  0  0  0
  5 20  1  0  0  0  0
  6 33  1  1  0  0  0
  8  2  1  0  0  0  0
  9 23  2  0  0  0  0
  9  8  1  0  0  0  0
 10 31  1  6  0  0  0
 10 14  1  0  0  0  0
 10 26  1  0  0  0  0
 11 21  2  0  0  0  0
 12 24  1  0  0  0  0
 14 13  1  1  0  0  0
 14 26  1  0  0  0  0
 15  1  1  0  0  0  0
 15  6  1  0  0  0  0
 16 25  1  6  0  0  0
 16  6  1  0  0  0  0
 16  3  1  0  0  0  0
 17  7  1  1  0  0  0
 17  1  1  0  0  0  0
 17 18  1  0  0  0  0
 19 23  1  0  0  0  0
 20 36  1  1  0  0  0
 20 13  1  0  0  0  0
 22 21  1  0  0  0  0
 23 11  1  0  0  0  0
 24 18  1  1  0  0  0
 24  9  1  0  0  0  0
 28 30  2  0  0  0  0
 28 29  1  0  0  0  0
 29 32  2  0  0  0  0
 30 31  1  0  0  0  0
 31 27  2  0  0  0  0
 32 27  1  0  0  0  0
 33 34  1  0  0  0  0
 35 33  1  0  0  0  0
 35 34  1  0  0  0  0
 36 37  1  0  0  0  0
 38 37  1  1  0  0  0
 38 41  1  0  0  0  0
 38 44  1  0  0  0  0
 40 39  2  0  0  0  0
 40 42  1  0  0  0  0
 41 40  1  0  0  0  0
 44 43  2  0  0  0  0
 44 42  1  0  0  0  0
 45 42  1  6  0  0  0
 45 55  1  0  0  0  0
 46 50  1  6  0  0  0
 46 51  1  0  0  0  0
 48 49  1  0  0  0  0
 49 51  1  0  0  0  0
 52 47  1  6  0  0  0
 52 53  1  0  0  0  0
 53 48  1  1  0  0  0
 53 46  1  0  0  0  0
 54 45  1  0  0  0  0
 54 52  1  0  0  0  0
 55 50  1  0  0  0  0
M  END
>  <MODEL>
2

>  <REMARK>
 VINA RESULT:      -3.7      2.571      6.746
  Name = 
  6 active torsions:
  status: ('A' for Active; 'I' for Inactive)
    1  A    between atoms: C_5  and  C_49
    2  A    between atoms: C_7  and  C_8
    3  A    between atoms: C_10  and  N_32
    4  A    between atoms: C_14  and  C_48
    5  A    between atoms: O_18  and  C_39
    6  A    between atoms: O_18  and  C_49
                            x       y       z     vdW  Elec       q    Type
                         _______ _______ _______ _____ _____    ______ ____

>  <TORSDO>
F 6

$$$$
=
 OpenBabel11062415063D

 55 63  0  0  1  0  0  0  0  0999 V2000
  181.3350  175.0520  138.8700 C   0  0  0  0  0  0  0  0  0  0  0  0
  179.1030  179.6890  138.3920 C   0  0  0  0  0  3  0  0  0  0  0  0
  184.8560  175.5770  136.3500 O   0  0  0  0  0  0  0  0  0  0  0  0
  184.3270  176.7220  141.0950 C   0  0  0  0  0  1  0  0  0  0  0  0
  184.0550  177.8970  140.1820 C   0  0  1  0  0  3  0  0  0  0  0  0
  182.6920  174.5430  136.7890 C   0  0  2  0  0  3  0  0  0  0  0  0
  178.9320  174.5080  138.7730 C   0  0  0  0  0  1  0  0  0  0  0  0
  179.9650  178.4760  138.3100 C   0  0  0  0  0  2  0  0  0  0  0  0
  180.9190  178.3460  139.4680 C   0  0  0  0  0  0  0  0  0  0  0  0
  185.5090  176.6920  136.8950 C   0  0  2  0  0  0  0  0  0  0  0  0
  181.9700  180.5670  138.9780 C   0  0  0  0  0  3  0  0  0  0  0  0
  181.8810  176.2010  139.0390 N   0  0  0  0  0  0  0  0  0  0  0  0
  185.2450  178.9080  138.1810 C   0  0  0  0  0  2  0  0  0  0  0  0
  184.6240  177.8380  137.2900 C   0  0  1  0  0  3  0  0  0  0  0  0
  181.7980  174.1370  137.8720 N   0  0  0  0  0  2  0  0  0  0  0  0
  184.0540  175.0030  137.3560 C   0  0  1  0  0  3  0  0  0  0  0  0
  180.1010  174.9050  139.6660 C   0  0  2  0  0  3  0  0  0  0  0  0
  179.8610  176.2450  140.2250 N   0  0  0  0  0  2  0  0  0  0  0  0
  183.0330  179.1170  141.0810 S   0  0  0  0  0  0  0  0  0  0  0  0
  185.3830  178.4360  139.6270 C   0  0  1  0  0  3  0  0  0  0  0  0
  181.0120  181.2740  138.3780 C   0  0  0  0  0  3  0  0  0  0  0  0
  179.5820  180.9360  138.3750 C   0  0  0  0  0  3  0  0  0  0  0  0
  181.8180  179.3220  139.7560 C   0  0  0  0  0  0  0  0  0  0  0  0
  181.1280  176.9600  140.0140 C   0  0  2  0  0  3  0  0  0  0  0  0
  184.7310  173.9350  137.9520 O   0  0  0  0  0  1  0  0  0  0  0  0
  185.2750  177.7990  136.0530 O   0  0  0  0  0  0  0  0  0  0  0  0
  187.8420  177.6470  136.9440 C   0  0  0  0  0  3  0  0  0  0  0  0
  188.9720  175.2090  137.6300 C   0  0  0  0  0  3  0  0  0  0  0  0
  189.7670  176.2960  137.4460 N   0  0  0  0  0  0  0  0  0  0  0  0
  187.5850  175.3080  137.4520 C   0  0  0  0  0  3  0  0  0  0  0  0
  187.0080  176.5390  137.1230 C   0  0  0  0  0  0  0  0  0  0  0  0
  189.2280  177.5030  137.1050 C   0  0  0  0  0  3  0  0  0  0  0  0
  182.0200  175.6260  135.9650 C   0  0  0  0  0  3  0  0  0  0  0  0
  181.6520  175.1000  134.5940 C   0  0  0  0  0  2  0  0  0  0  0  0
  180.5900  175.2000  135.6780 C   0  0  0  0  0  2  0  0  0  0  0  0
  185.9710  179.4460  140.4110 O   0  0  0  0  0  0  0  0  0  0  0  0
  186.8590  178.8010  141.2940 C   0  0  0  0  0  2  0  0  0  0  0  0
  188.3160  178.9220  140.8750 C   0  0  2  0  0  3  0  0  0  0  0  0
  189.6130  175.8130  142.0800 O   0  0  0  0  0  0  0  0  0  0  0  0
  189.3300  177.0170  141.8550 C   0  0  0  0  0  0  0  0  0  0  0  0
  188.7740  177.5010  140.5530 C   0  0  0  0  0  2  0  0  0  0  0  0
  189.4570  178.0420  142.8360 N   0  0  0  0  0  0  0  0  0  0  0  0
  189.8210  180.2580  142.1960 O   0  0  0  0  0  0  0  0  0  0  0  0
  189.1200  179.2130  142.1030 C   0  0  0  0  0  0  0  0  0  0  0  0
  188.8940  177.8130  144.1780 C   0  0  1  0  0  3  0  0  0  0  0  0
  188.6250  177.9520  147.0370 N   0  0  2  0  0  0  0  0  0  0  0  0
  185.3200  177.9670  144.9720 C   0  0  0  0  0  1  0  0  0  0  0  0
  186.4020  178.7500  147.5900 C   0  0  0  0  0  2  0  0  0  0  0  0
  187.1260  178.3910  148.8600 C   0  0  0  0  0  2  0  0  0  0  0  0
  189.2010  176.7370  146.4470 C   0  0  0  0  0  2  0  0  0  0  0  0
  188.3220  177.5990  148.4120 C   0  0  0  0  0  2  0  0  0  0  0  0
  186.6710  177.4310  145.4170 C   0  0  2  0  0  3  0  0  0  0  0  0
  187.3380  178.4000  146.4450 C   0  0  2  0  0  3  0  0  0  0  0  0
  187.4950  177.1890  144.1280 C   0  0  0  0  0  2  0  0  0  0  0  0
  189.8370  177.0130  145.0920 C   0  0  0  0  0  2  0  0  0  0  0  0
  1 12  2  0  0  0  0
  1 17  1  0  0  0  0
  3 10  1  0  0  0  0
  3 16  1  0  0  0  0
  5 19  1  0  0  0  0
  5  4  1  1  0  0  0
  6 33  1  1  0  0  0
  6 16  1  0  0  0  0
  6 15  1  0  0  0  0
  8  2  1  0  0  0  0
  8  9  1  0  0  0  0
  9 23  2  0  0  0  0
  9 24  1  0  0  0  0
 10 31  1  1  0  0  0
 10 14  1  0  0  0  0
 11 23  1  0  0  0  0
 13 20  1  0  0  0  0
 14 13  1  1  0  0  0
 15  1  1  0  0  0  0
 16 25  1  6  0  0  0
 17  7  1  6  0  0  0
 17 18  1  0  0  0  0
 20  5  1  0  0  0  0
 20 36  1  1  0  0  0
 21 11  2  0  0  0  0
 22 21  1  0  0  0  0
 22  2  2  0  0  0  0
 23 19  1  0  0  0  0
 24 12  1  6  0  0  0
 24 18  1  0  0  0  0
 26 10  1  0  0  0  0
 26 14  1  0  0  0  0
 27 32  2  0  0  0  0
 27 31  1  0  0  0  0
 29 28  2  0  0  0  0
 30 28  1  0  0  0  0
 31 30  2  0  0  0  0
 32 29  1  0  0  0  0
 34 35  1  0  0  0  0
 34 33  1  0  0  0  0
 35 33  1  0  0  0  0
 36 37  1  0  0  0  0
 38 37  1  1  0  0  0
 38 44  1  0  0  0  0
 40 39  2  0  0  0  0
 40 42  1  0  0  0  0
 41 38  1  0  0  0  0
 41 40  1  0  0  0  0
 44 43  2  0  0  0  0
 44 42  1  0  0  0  0
 45 42  1  6  0  0  0
 45 55  1  0  0  0  0
 46 50  1  6  0  0  0
 46 51  1  0  0  0  0
 48 49  1  0  0  0  0
 51 49  1  0  0  0  0
 52 47  1  6  0  0  0
 52 53  1  0  0  0  0
 53 46  1  0  0  0  0
 53 48  1  1  0  0  0
 54 45  1  0  0  0  0
 54 52  1  0  0  0  0
 55 50  1  0  0  0  0
M  END
>  <MODEL>
3

>  <REMARK>
 VINA RESULT:      -3.1      2.598      5.954
  Name = 
  6 active torsions:
  status: ('A' for Active; 'I' for Inactive)
    1  A    between atoms: C_5  and  C_49
    2  A    between atoms: C_7  and  C_8
    3  A    between atoms: C_10  and  N_32
    4  A    between atoms: C_14  and  C_48
    5  A    between atoms: O_18  and  C_39
    6  A    between atoms: O_18  and  C_49
                            x       y       z     vdW  Elec       q    Type
                         _______ _______ _______ _____ _____    ______ ____

>  <TORSDO>
F 6

$$$$
