=
 OpenBabel11062413243D

 46 49  0  0  1  0  0  0  0  0999 V2000
  185.1600  177.0230  137.5390 C   0  0  0  0  0  0  0  0  0  0  0  0
  186.9850  174.2840  137.6860 O   0  0  0  0  0  0  0  0  0  0  0  0
  189.8830  177.7660  134.7270 C   0  0  0  0  0  2  0  0  0  0  0  0
  189.9740  173.7600  137.4160 O   0  0  0  0  0  0  0  0  0  0  0  0
  186.5050  175.2810  136.8080 C   0  0  1  0  0  0  0  0  0  0  0  0
  189.4990  174.4530  136.4750 C   0  0  0  0  0  0  0  0  0  0  0  0
  185.0500  175.5820  137.1070 C   0  0  2  0  0  3  0  0  0  0  0  0
  186.5930  177.5350  137.4680 C   0  0  2  0  0  3  0  0  0  0  0  0
  187.8000  176.8490  135.5550 C   0  0  0  0  0  2  0  0  0  0  0  0
  184.0560  178.0090  137.2170 C   0  0  0  0  0  2  0  0  0  0  0  0
  184.2310  177.4910  138.6400 C   0  0  0  0  0  2  0  0  0  0  0  0
  191.3600  176.0070  136.4850 C   0  0  0  0  0  2  0  0  0  0  0  0
  190.0970  175.7660  136.1350 C   0  0  0  0  0  0  0  0  0  0  0  0
  189.2950  176.8290  135.4650 C   0  0  0  0  0  0  0  0  0  0  0  0
  188.3540  173.9100  135.6690 C   0  0  0  0  0  2  0  0  0  0  0  0
  187.3920  176.4490  136.8950 N   0  0  2  0  0  0  0  0  0  0  0  0
  186.9580  173.9390  136.3220 C   0  0  1  0  0  3  0  0  0  0  0  0
  188.4330  177.3980  139.2020 N   0  0  0  0  0  2  0  0  0  0  0  0
  190.1650  177.4970  140.7470 O   0  0  0  0  0  0  0  0  0  0  0  0
  187.1420  177.8830  138.8180 C   0  0  0  0  0  0  0  0  0  0  0  0
  188.9240  177.4270  140.5470 C   0  0  0  0  0  0  0  0  0  0  0  0
  186.4820  178.6300  139.5920 O   0  0  0  0  0  0  0  0  0  0  0  0
  188.3900  177.5340  142.9170 C   0  0  0  0  0  0  0  0  0  0  0  0
  188.0300  177.3990  141.6700 N   0  0  0  0  0  0  0  0  0  0  0  0
  187.6050  178.2500  145.0500 O   0  0  0  0  0  1  0  0  0  0  0  0
  187.3870  177.3420  144.0100 C   0  0  1  0  0  3  0  0  0  0  0  0
  185.9790  177.5060  143.4500 C   0  0  0  0  0  2  0  0  0  0  0  0
  185.4200  178.8950  143.7310 C   0  0  1  0  0  3  0  0  0  0  0  0
  185.0870  179.5440  142.4760 N   0  0  0  0  0  1  0  0  0  0  0  0
  184.2050  178.8220  144.5970 C   0  0  0  0  0  0  0  0  0  0  0  0
  184.3020  179.0010  145.9720 O   0  0  0  0  0  1  0  0  0  0  0  0
  183.0760  178.6290  144.0720 O   0  0  0  0  0  0  0  0  0  0  0  0
  189.8070  177.8360  143.3110 C   0  0  0  0  0  2  0  0  0  0  0  0
  191.3050  175.8690  143.5900 C   0  0  0  0  0  1  0  0  0  0  0  0
  191.0450  177.5010  145.4270 C   0  0  0  0  0  1  0  0  0  0  0  0
  190.3330  176.8000  144.2900 C   0  0  0  0  0  3  0  0  0  0  0  0
  184.2320  175.4320  135.8290 C   0  0  0  0  0  2  0  0  0  0  0  0
  183.1370  174.3860  136.0180 C   0  0  2  0  0  3  0  0  0  0  0  0
  181.5950  176.2340  135.3000 C   0  0  0  0  0  1  0  0  0  0  0  0
  181.7670  175.0360  136.2170 C   0  0  2  0  0  3  0  0  0  0  0  0
  181.5790  175.4210  137.5480 O   0  0  0  0  0  1  0  0  0  0  0  0
  183.4790  173.4800  137.1990 C   0  0  0  0  0  2  0  0  0  0  0  0
  183.3070  172.0410  136.8440 C   0  0  0  0  0  0  0  0  0  0  0  0
  182.2890  171.4060  137.2330 O   0  0  0  0  0  0  0  0  0  0  0  0
  184.3000  171.3810  136.0440 C   0  0  0  0  0  0  0  0  0  0  0  0
  185.1360  170.8290  135.3720 C   0  0  0  0  0  3  0  0  0  0  0  0
  1 11  1  0  0  0  0
  3 14  2  0  0  0  0
  5 16  1  0  0  0  0
  5  7  1  0  0  0  0
  5  2  1  1  0  0  0
  6  4  2  0  0  0  0
  7 37  1  6  0  0  0
  7  1  1  0  0  0  0
  8  1  1  0  0  0  0
  8 20  1  1  0  0  0
 10  1  1  0  0  0  0
 10 11  1  0  0  0  0
 13  6  1  0  0  0  0
 13 12  2  0  0  0  0
 14  9  1  0  0  0  0
 14 13  1  0  0  0  0
 15  6  1  0  0  0  0
 16  9  1  6  0  0  0
 16  8  1  0  0  0  0
 17 15  1  6  0  0  0
 17  5  1  0  0  0  0
 17  2  1  0  0  0  0
 18 21  1  0  0  0  0
 20 18  1  0  0  0  0
 20 22  2  0  0  0  0
 21 19  2  0  0  0  0
 21 24  1  0  0  0  0
 23 33  1  0  0  0  0
 23 26  1  0  0  0  0
 24 23  2  0  0  0  0
 26 25  1  1  0  0  0
 27 28  1  0  0  0  0
 27 26  1  0  0  0  0
 28 29  1  6  0  0  0
 28 30  1  0  0  0  0
 30 31  1  0  0  0  0
 32 30  2  0  0  0  0
 33 36  1  0  0  0  0
 34 36  1  0  0  0  0
 36 35  1  0  0  0  0
 38 37  1  1  0  0  0
 38 40  1  0  0  0  0
 38 42  1  0  0  0  0
 40 39  1  6  0  0  0
 40 41  1  0  0  0  0
 43 42  1  0  0  0  0
 43 44  2  0  0  0  0
 45 43  1  0  0  0  0
 46 45  3  0  0  0  0
M  END
>  <MODEL>
1

>  <REMARK>
 VINA RESULT:      -6.5      0.000      0.000
  Name = 
  14 active torsions:
  status: ('A' for Active; 'I' for Inactive)
    1  A    between atoms: C_5  and  C_35
    2  A    between atoms: C_8  and  C_11
    3  A    between atoms: C_8  and  C_35
    4  A    between atoms: C_11  and  C_12
    5  A    between atoms: C_15  and  CA_39
    6  A    between atoms: C_17  and  C_30
    7  A    between atoms: C_17  and  CA_39
    8  A    between atoms: C_20  and  C_27
    9  A    between atoms: C_22  and  C_31
   10  A    between atoms: C_24  and  C_30
   11  A    between atoms: C_24  and  C_34
   12  A    between atoms: C_27  and  C_35
   13  A    between atoms: C_33  and  N_42
   14  A    between atoms: C_34  and  C_38
                            x       y       z     vdW  Elec       q    Type
                         _______ _______ _______ _____ _____    ______ ____

>  <TORSDO>
F 14

$$$$
=
 OpenBabel11062413243D

 46 49  0  0  1  0  0  0  0  0999 V2000
  182.8040  179.0130  138.5850 C   0  0  0  0  0  0  0  0  0  0  0  0
  183.5790  175.9360  137.7020 O   0  0  0  0  0  0  0  0  0  0  0  0
  188.0800  178.8250  136.8860 C   0  0  0  0  0  2  0  0  0  0  0  0
  186.2170  174.4220  137.5380 O   0  0  0  0  0  0  0  0  0  0  0  0
  183.6780  177.2880  137.3070 C   0  0  1  0  0  0  0  0  0  0  0  0
  186.2430  175.5390  136.9540 C   0  0  0  0  0  0  0  0  0  0  0  0
  182.3640  178.0020  137.5560 C   0  0  2  0  0  3  0  0  0  0  0  0
  184.2920  178.9090  138.8930 C   0  0  2  0  0  3  0  0  0  0  0  0
  185.6750  178.5640  137.0090 C   0  0  0  0  0  2  0  0  0  0  0  0
  182.1850  180.3960  138.6170 C   0  0  0  0  0  2  0  0  0  0  0  0
  181.8150  179.3660  139.6770 C   0  0  0  0  0  2  0  0  0  0  0  0
  188.4270  176.1160  137.8360 C   0  0  0  0  0  2  0  0  0  0  0  0
  187.2870  176.5370  137.2880 C   0  0  0  0  0  0  0  0  0  0  0  0
  187.0590  177.9940  137.0730 C   0  0  0  0  0  0  0  0  0  0  0  0
  185.2360  175.8280  135.8780 C   0  0  0  0  0  2  0  0  0  0  0  0
  184.8320  177.8930  137.9870 N   0  0  2  0  0  0  0  0  0  0  0  0
  183.7990  176.1580  136.3300 C   0  0  1  0  0  3  0  0  0  0  0  0
  184.8050  179.4840  141.3050 N   0  0  0  0  0  2  0  0  0  0  0  0
  185.0560  179.9470  143.5680 O   0  0  0  0  0  0  0  0  0  0  0  0
  184.5530  178.4890  140.3080 C   0  0  0  0  0  0  0  0  0  0  0  0
  185.3390  179.1920  142.6010 C   0  0  0  0  0  0  0  0  0  0  0  0
  184.5110  177.2660  140.6190 O   0  0  0  0  0  0  0  0  0  0  0  0
  186.8270  177.7980  143.9260 C   0  0  0  0  0  0  0  0  0  0  0  0
  186.1720  178.0450  142.8250 N   0  0  0  0  0  0  0  0  0  0  0  0
  187.9460  176.0700  142.7260 O   0  0  0  0  0  1  0  0  0  0  0  0
  187.7780  176.6450  143.9890 C   0  0  1  0  0  3  0  0  0  0  0  0
  189.1190  177.1120  144.5410 C   0  0  0  0  0  2  0  0  0  0  0  0
  189.9800  177.7540  143.4600 C   0  0  1  0  0  3  0  0  0  0  0  0
  190.4940  179.0230  143.9420 N   0  0  0  0  0  1  0  0  0  0  0  0
  191.1160  176.8640  143.0770 C   0  0  0  0  0  0  0  0  0  0  0  0
  192.0540  177.2760  142.1380 O   0  0  0  0  0  0  0  0  0  0  0  0
  191.2460  175.7420  143.6360 O   0  0  0  0  0  1  0  0  0  0  0  0
  186.6990  178.6670  145.1440 C   0  0  0  0  0  2  0  0  0  0  0  0
  187.0770  178.0810  147.5320 C   0  0  0  0  0  1  0  0  0  0  0  0
  184.7760  178.3350  146.6660 C   0  0  0  0  0  1  0  0  0  0  0  0
  186.1780  177.8720  146.3290 C   0  0  0  0  0  3  0  0  0  0  0  0
  181.9010  178.6680  136.2660 C   0  0  0  0  0  2  0  0  0  0  0  0
  180.4700  178.2510  135.9370 C   0  0  2  0  0  3  0  0  0  0  0  0
  180.1860  180.7110  135.5090 C   0  0  0  0  0  1  0  0  0  0  0  0
  179.5100  179.4410  135.9980 C   0  0  2  0  0  3  0  0  0  0  0  0
  179.0190  179.6280  137.2930 O   0  0  0  0  0  1  0  0  0  0  0  0
  180.0170  177.1460  136.8870 C   0  0  0  0  0  2  0  0  0  0  0  0
  179.8620  175.8460  136.1710 C   0  0  0  0  0  0  0  0  0  0  0  0
  179.2570  175.7960  135.0650 O   0  0  0  0  0  0  0  0  0  0  0  0
  180.4190  174.6500  136.7370 C   0  0  0  0  0  0  0  0  0  0  0  0
  180.8880  173.6470  137.2160 C   0  0  0  0  0  3  0  0  0  0  0  0
  1 10  1  0  0  0  0
  1  8  1  0  0  0  0
  1 11  1  0  0  0  0
  3 14  2  0  0  0  0
  5  7  1  0  0  0  0
  5  2  1  1  0  0  0
  5 16  1  0  0  0  0
  6 13  1  0  0  0  0
  6  4  2  0  0  0  0
  7 37  1  6  0  0  0
  7  1  1  0  0  0  0
  8 20  1  1  0  0  0
  9 14  1  0  0  0  0
 10 11  1  0  0  0  0
 13 12  2  0  0  0  0
 14 13  1  0  0  0  0
 15  6  1  0  0  0  0
 16  9  1  6  0  0  0
 16  8  1  0  0  0  0
 17 15  1  1  0  0  0
 17  5  1  0  0  0  0
 17  2  1  0  0  0  0
 18 21  1  0  0  0  0
 20 22  2  0  0  0  0
 20 18  1  0  0  0  0
 21 24  1  0  0  0  0
 21 19  2  0  0  0  0
 23 26  1  0  0  0  0
 23 33  1  0  0  0  0
 24 23  2  0  0  0  0
 26 25  1  6  0  0  0
 26 27  1  0  0  0  0
 28 29  1  1  0  0  0
 28 27  1  0  0  0  0
 30 28  1  0  0  0  0
 30 32  1  0  0  0  0
 31 30  2  0  0  0  0
 33 36  1  0  0  0  0
 36 35  1  0  0  0  0
 36 34  1  0  0  0  0
 38 40  1  0  0  0  0
 38 37  1  1  0  0  0
 38 42  1  0  0  0  0
 40 39  1  1  0  0  0
 40 41  1  0  0  0  0
 43 45  1  0  0  0  0
 43 42  1  0  0  0  0
 44 43  2  0  0  0  0
 45 46  3  0  0  0  0
M  END
>  <MODEL>
2

>  <REMARK>
 VINA RESULT:      -6.3      2.419      4.545
  Name = 
  14 active torsions:
  status: ('A' for Active; 'I' for Inactive)
    1  A    between atoms: C_5  and  C_35
    2  A    between atoms: C_8  and  C_11
    3  A    between atoms: C_8  and  C_35
    4  A    between atoms: C_11  and  C_12
    5  A    between atoms: C_15  and  CA_39
    6  A    between atoms: C_17  and  C_30
    7  A    between atoms: C_17  and  CA_39
    8  A    between atoms: C_20  and  C_27
    9  A    between atoms: C_22  and  C_31
   10  A    between atoms: C_24  and  C_30
   11  A    between atoms: C_24  and  C_34
   12  A    between atoms: C_27  and  C_35
   13  A    between atoms: C_33  and  N_42
   14  A    between atoms: C_34  and  C_38
                            x       y       z     vdW  Elec       q    Type
                         _______ _______ _______ _____ _____    ______ ____

>  <TORSDO>
F 14

$$$$
=
 OpenBabel11062413243D

 46 49  0  0  1  0  0  0  0  0999 V2000
  182.9630  179.0890  138.6920 C   0  0  0  0  0  0  0  0  0  0  0  0
  183.5860  175.9910  137.7620 O   0  0  0  0  0  0  0  0  0  0  0  0
  188.2330  178.6610  137.0190 C   0  0  0  0  0  2  0  0  0  0  0  0
  186.1460  174.3480  137.5870 O   0  0  0  0  0  0  0  0  0  0  0  0
  183.7560  177.3430  137.3900 C   0  0  1  0  0  0  0  0  0  0  0  0
  186.2310  175.4720  137.0220 C   0  0  0  0  0  0  0  0  0  0  0  0
  182.4790  178.1180  137.6440 C   0  0  2  0  0  3  0  0  0  0  0  0
  184.4420  178.9050  139.0070 C   0  0  2  0  0  3  0  0  0  0  0  0
  185.8180  178.5210  137.1240 C   0  0  0  0  0  2  0  0  0  0  0  0
  182.4150  180.5010  138.7440 C   0  0  0  0  0  2  0  0  0  0  0  0
  181.9870  179.4740  139.7850 C   0  0  0  0  0  2  0  0  0  0  0  0
  188.4360  175.9220  137.9240 C   0  0  0  0  0  2  0  0  0  0  0  0
  187.3230  176.4100  137.3780 C   0  0  0  0  0  0  0  0  0  0  0  0
  187.1700  177.8800  137.1860 C   0  0  0  0  0  0  0  0  0  0  0  0
  185.2460  175.8300  135.9460 C   0  0  0  0  0  2  0  0  0  0  0  0
  184.9350  177.8770  138.0870 N   0  0  2  0  0  0  0  0  0  0  0  0
  183.8260  176.2250  136.3960 C   0  0  1  0  0  3  0  0  0  0  0  0
  184.6840  179.4090  141.4760 N   0  0  0  0  0  2  0  0  0  0  0  0
  184.6990  179.7700  143.7710 O   0  0  0  0  0  0  0  0  0  0  0  0
  184.6720  178.4480  140.4150 C   0  0  0  0  0  0  0  0  0  0  0  0
  185.1700  179.1310  142.7940 C   0  0  0  0  0  0  0  0  0  0  0  0
  184.8160  177.2190  140.6630 O   0  0  0  0  0  0  0  0  0  0  0  0
  186.8290  177.9700  144.1400 C   0  0  0  0  0  0  0  0  0  0  0  0
  186.1670  178.1250  143.0260 N   0  0  0  0  0  0  0  0  0  0  0  0
  187.8540  176.0460  143.1760 O   0  0  0  0  0  1  0  0  0  0  0  0
  187.9470  176.9780  144.2140 C   0  0  1  0  0  3  0  0  0  0  0  0
  189.2850  177.7050  144.1550 C   0  0  0  0  0  2  0  0  0  0  0  0
  190.4510  176.7570  144.4060 C   0  0  1  0  0  3  0  0  0  0  0  0
  191.5840  177.1600  143.5930 N   0  0  0  0  0  1  0  0  0  0  0  0
  190.8430  176.7540  145.8470 C   0  0  0  0  0  0  0  0  0  0  0  0
  189.8780  176.6640  146.8440 O   0  0  0  0  0  1  0  0  0  0  0  0
  192.0620  176.8010  146.1630 O   0  0  0  0  0  0  0  0  0  0  0  0
  186.5400  178.7920  145.3620 C   0  0  0  0  0  2  0  0  0  0  0  0
  187.0930  178.1490  147.7020 C   0  0  0  0  0  1  0  0  0  0  0  0
  184.7360  178.2300  146.9610 C   0  0  0  0  0  1  0  0  0  0  0  0
  186.1540  177.9070  146.5350 C   0  0  0  0  0  3  0  0  0  0  0  0
  182.0580  178.8280  136.3630 C   0  0  0  0  0  2  0  0  0  0  0  0
  180.5590  179.1190  136.3840 C   0  0  2  0  0  3  0  0  0  0  0  0
  179.2390  177.1280  137.1620 C   0  0  0  0  0  1  0  0  0  0  0  0
  179.7440  177.8980  135.9540 C   0  0  2  0  0  3  0  0  0  0  0  0
  180.4940  177.0570  135.1270 O   0  0  0  0  0  1  0  0  0  0  0  0
  180.2480  180.3170  135.4900 C   0  0  0  0  0  2  0  0  0  0  0  0
  179.9360  181.5300  136.3010 C   0  0  0  0  0  0  0  0  0  0  0  0
  179.2770  181.4290  137.3720 O   0  0  0  0  0  0  0  0  0  0  0  0
  180.4010  182.8170  135.8660 C   0  0  0  0  0  0  0  0  0  0  0  0
  180.7960  183.8970  135.5020 C   0  0  0  0  0  3  0  0  0  0  0  0
  1 10  1  0  0  0  0
  1  8  1  0  0  0  0
  1 11  1  0  0  0  0
  3 14  2  0  0  0  0
  5  7  1  0  0  0  0
  5  2  1  1  0  0  0
  5 16  1  0  0  0  0
  6 13  1  0  0  0  0
  6  4  2  0  0  0  0
  7 37  1  6  0  0  0
  7  1  1  0  0  0  0
  8 20  1  1  0  0  0
  9 14  1  0  0  0  0
 10 11  1  0  0  0  0
 13 12  2  0  0  0  0
 14 13  1  0  0  0  0
 15  6  1  0  0  0  0
 16  9  1  6  0  0  0
 16  8  1  0  0  0  0
 17 15  1  1  0  0  0
 17  5  1  0  0  0  0
 17  2  1  0  0  0  0
 18 21  1  0  0  0  0
 20 22  2  0  0  0  0
 20 18  1  0  0  0  0
 21 24  1  0  0  0  0
 21 19  2  0  0  0  0
 23 26  1  0  0  0  0
 23 33  1  0  0  0  0
 24 23  2  0  0  0  0
 26 25  1  6  0  0  0
 27 26  1  0  0  0  0
 27 28  1  0  0  0  0
 28 29  1  6  0  0  0
 28 30  1  0  0  0  0
 30 32  2  0  0  0  0
 30 31  1  0  0  0  0
 33 36  1  0  0  0  0
 36 35  1  0  0  0  0
 36 34  1  0  0  0  0
 37 38  1  0  0  0  0
 38 42  1  6  0  0  0
 40 38  1  0  0  0  0
 40 39  1  1  0  0  0
 41 40  1  0  0  0  0
 42 43  1  0  0  0  0
 43 44  2  0  0  0  0
 45 43  1  0  0  0  0
 46 45  3  0  0  0  0
M  END
>  <MODEL>
3

>  <REMARK>
 VINA RESULT:      -5.7      2.931      5.495
  Name = 
  14 active torsions:
  status: ('A' for Active; 'I' for Inactive)
    1  A    between atoms: C_5  and  C_35
    2  A    between atoms: C_8  and  C_11
    3  A    between atoms: C_8  and  C_35
    4  A    between atoms: C_11  and  C_12
    5  A    between atoms: C_15  and  CA_39
    6  A    between atoms: C_17  and  C_30
    7  A    between atoms: C_17  and  CA_39
    8  A    between atoms: C_20  and  C_27
    9  A    between atoms: C_22  and  C_31
   10  A    between atoms: C_24  and  C_30
   11  A    between atoms: C_24  and  C_34
   12  A    between atoms: C_27  and  C_35
   13  A    between atoms: C_33  and  N_42
   14  A    between atoms: C_34  and  C_38
                            x       y       z     vdW  Elec       q    Type
                         _______ _______ _______ _____ _____    ______ ____

>  <TORSDO>
F 14

$$$$
=
 OpenBabel11062413243D

 46 49  0  0  1  0  0  0  0  0999 V2000
  189.3630  177.7720  139.7940 C   0  0  0  0  0  0  0  0  0  0  0  0
  190.0120  175.5170  142.1060 O   0  0  0  0  0  0  0  0  0  0  0  0
  191.1860  180.2780  144.3930 C   0  0  0  0  0  2  0  0  0  0  0  0
  190.1250  175.6320  145.1480 O   0  0  0  0  0  0  0  0  0  0  0  0
  190.5200  176.6760  141.4780 C   0  0  1  0  0  0  0  0  0  0  0  0
  190.7990  176.5380  144.5860 C   0  0  0  0  0  0  0  0  0  0  0  0
  190.2940  176.6000  139.9810 C   0  0  2  0  0  3  0  0  0  0  0  0
  189.0890  178.5020  141.1020 C   0  0  2  0  0  3  0  0  0  0  0  0
  190.9760  178.7900  142.4950 C   0  0  0  0  0  2  0  0  0  0  0  0
  189.4270  178.6110  138.5330 C   0  0  0  0  0  2  0  0  0  0  0  0
  188.2760  177.6350  138.7470 C   0  0  0  0  0  2  0  0  0  0  0  0
  190.0280  178.2600  146.1100 C   0  0  0  0  0  2  0  0  0  0  0  0
  190.5770  177.9620  144.9330 C   0  0  0  0  0  0  0  0  0  0  0  0
  190.9030  179.0500  143.9680 C   0  0  0  0  0  0  0  0  0  0  0  0
  191.8660  176.1550  143.6020 C   0  0  0  0  0  2  0  0  0  0  0  0
  189.9230  177.8570  142.1180 N   0  0  2  0  0  0  0  0  0  0  0  0
  191.4030  175.7070  142.2010 C   0  0  1  0  0  3  0  0  0  0  0  0
  186.6450  179.0530  140.7350 N   0  0  0  0  0  2  0  0  0  0  0  0
  184.3730  179.3340  140.3390 O   0  0  0  0  0  0  0  0  0  0  0  0
  187.6520  178.4050  141.5180 C   0  0  0  0  0  0  0  0  0  0  0  0
  185.3020  179.2650  141.1850 C   0  0  0  0  0  0  0  0  0  0  0  0
  187.3350  177.7240  142.5320 O   0  0  0  0  0  0  0  0  0  0  0  0
  183.8640  179.0160  143.1300 C   0  0  0  0  0  0  0  0  0  0  0  0
  184.9920  179.3780  142.5820 N   0  0  0  0  0  0  0  0  0  0  0  0
  182.9420  178.2530  145.1910 O   0  0  0  0  0  1  0  0  0  0  0  0
  183.6040  179.3170  144.5720 C   0  0  1  0  0  3  0  0  0  0  0  0
  184.9200  179.6080  145.2840 C   0  0  0  0  0  2  0  0  0  0  0  0
  185.3390  178.4530  146.1840 C   0  0  1  0  0  3  0  0  0  0  0  0
  186.0990  177.4880  145.4080 N   0  0  0  0  0  1  0  0  0  0  0  0
  186.1650  178.9350  147.3310 C   0  0  0  0  0  0  0  0  0  0  0  0
  187.0810  178.0920  147.9500 O   0  0  0  0  0  1  0  0  0  0  0  0
  186.0540  180.1280  147.7210 O   0  0  0  0  0  0  0  0  0  0  0  0
  182.7770  178.3370  142.3480 C   0  0  0  0  0  2  0  0  0  0  0  0
  181.0280  179.3770  140.9170 C   0  0  0  0  0  1  0  0  0  0  0  0
  180.4330  178.4570  143.1320 C   0  0  0  0  0  1  0  0  0  0  0  0
  181.5080  179.1720  142.3410 C   0  0  0  0  0  3  0  0  0  0  0  0
  191.6210  176.8060  139.2610 C   0  0  0  0  0  2  0  0  0  0  0  0
  191.8830  175.6570  138.2900 C   0  0  2  0  0  3  0  0  0  0  0  0
  193.7550  174.1350  137.5920 C   0  0  0  0  0  1  0  0  0  0  0  0
  193.3630  175.5660  137.9140 C   0  0  2  0  0  3  0  0  0  0  0  0
  194.1750  176.0680  138.9350 O   0  0  0  0  0  1  0  0  0  0  0  0
  191.0190  175.8210  137.0420 C   0  0  0  0  0  2  0  0  0  0  0  0
  189.9800  174.7540  136.9600 C   0  0  0  0  0  0  0  0  0  0  0  0
  190.1690  173.6350  137.5110 O   0  0  0  0  0  0  0  0  0  0  0  0
  188.7510  175.0080  136.2620 C   0  0  0  0  0  0  0  0  0  0  0  0
  187.7180  175.2250  135.6770 C   0  0  0  0  0  3  0  0  0  0  0  0
  1  7  1  0  0  0  0
  1  8  1  0  0  0  0
  2 17  1  0  0  0  0
  5  2  1  1  0  0  0
  5 16  1  0  0  0  0
  5 17  1  0  0  0  0
  6 13  1  0  0  0  0
  6  4  2  0  0  0  0
  7 37  1  6  0  0  0
  7  5  1  0  0  0  0
  8 20  1  1  0  0  0
  8 16  1  0  0  0  0
  9 14  1  0  0  0  0
 10 11  1  0  0  0  0
 10  1  1  0  0  0  0
 11  1  1  0  0  0  0
 13 12  2  0  0  0  0
 14  3  2  0  0  0  0
 14 13  1  0  0  0  0
 15  6  1  0  0  0  0
 16  9  1  6  0  0  0
 17 15  1  1  0  0  0
 18 21  1  0  0  0  0
 18 20  1  0  0  0  0
 19 21  2  0  0  0  0
 20 22  2  0  0  0  0
 21 24  1  0  0  0  0
 23 26  1  0  0  0  0
 24 23  2  0  0  0  0
 26 25  1  1  0  0  0
 26 27  1  0  0  0  0
 27 28  1  0  0  0  0
 28 29  1  6  0  0  0
 28 30  1  0  0  0  0
 30 32  2  0  0  0  0
 30 31  1  0  0  0  0
 33 23  1  0  0  0  0
 34 36  1  0  0  0  0
 36 33  1  0  0  0  0
 36 35  1  0  0  0  0
 38 42  1  6  0  0  0
 38 37  1  0  0  0  0
 40 39  1  1  0  0  0
 40 38  1  0  0  0  0
 40 41  1  0  0  0  0
 43 42  1  0  0  0  0
 43 44  2  0  0  0  0
 45 43  1  0  0  0  0
 46 45  3  0  0  0  0
M  END
>  <MODEL>
4

>  <REMARK>
 VINA RESULT:      -5.6      3.266      7.217
  Name = 
  14 active torsions:
  status: ('A' for Active; 'I' for Inactive)
    1  A    between atoms: C_5  and  C_35
    2  A    between atoms: C_8  and  C_11
    3  A    between atoms: C_8  and  C_35
    4  A    between atoms: C_11  and  C_12
    5  A    between atoms: C_15  and  CA_39
    6  A    between atoms: C_17  and  C_30
    7  A    between atoms: C_17  and  CA_39
    8  A    between atoms: C_20  and  C_27
    9  A    between atoms: C_22  and  C_31
   10  A    between atoms: C_24  and  C_30
   11  A    between atoms: C_24  and  C_34
   12  A    between atoms: C_27  and  C_35
   13  A    between atoms: C_33  and  N_42
   14  A    between atoms: C_34  and  C_38
                            x       y       z     vdW  Elec       q    Type
                         _______ _______ _______ _____ _____    ______ ____

>  <TORSDO>
F 14

$$$$
=
 OpenBabel11062413243D

 46 49  0  0  1  0  0  0  0  0999 V2000
  182.9550  178.3030  138.8560 C   0  0  0  0  0  0  0  0  0  0  0  0
  184.0860  175.2120  138.7080 O   0  0  0  0  0  0  0  0  0  0  0  0
  186.5390  177.8210  134.6510 C   0  0  0  0  0  2  0  0  0  0  0  0
  186.6320  173.9830  137.5740 O   0  0  0  0  0  0  0  0  0  0  0  0
  183.5740  176.2710  137.9260 C   0  0  1  0  0  0  0  0  0  0  0  0
  186.0380  174.7440  136.7630 C   0  0  0  0  0  0  0  0  0  0  0  0
  182.3990  176.9190  138.6310 C   0  0  2  0  0  3  0  0  0  0  0  0
  184.3600  178.4560  138.2890 C   0  0  2  0  0  3  0  0  0  0  0  0
  184.6950  177.4510  136.1770 C   0  0  0  0  0  2  0  0  0  0  0  0
  182.0480  179.5150  138.7960 C   0  0  0  0  0  2  0  0  0  0  0  0
  182.5620  179.0080  140.1380 C   0  0  0  0  0  2  0  0  0  0  0  0
  188.0910  175.8090  136.0310 C   0  0  0  0  0  2  0  0  0  0  0  0
  186.7620  175.8660  136.1200 C   0  0  0  0  0  0  0  0  0  0  0  0
  186.0360  177.0710  135.6280 C   0  0  0  0  0  0  0  0  0  0  0  0
  184.6040  174.4690  136.4140 C   0  0  0  0  0  2  0  0  0  0  0  0
  184.6720  177.1960  137.6110 N   0  0  2  0  0  0  0  0  0  0  0  0
  183.5400  174.8470  137.4640 C   0  0  1  0  0  3  0  0  0  0  0  0
  186.7490  178.3460  139.1210 N   0  0  0  0  0  2  0  0  0  0  0  0
  188.9460  178.4790  139.8630 O   0  0  0  0  0  0  0  0  0  0  0  0
  185.3830  178.6990  139.3580 C   0  0  0  0  0  0  0  0  0  0  0  0
  187.7400  178.2690  140.1520 C   0  0  0  0  0  0  0  0  0  0  0  0
  185.0410  179.2470  140.4420 O   0  0  0  0  0  0  0  0  0  0  0  0
  188.1040  177.2770  142.3420 C   0  0  0  0  0  0  0  0  0  0  0  0
  187.3820  177.9780  141.5110 N   0  0  0  0  0  0  0  0  0  0  0  0
  188.5580  176.3750  144.5010 O   0  0  0  0  0  1  0  0  0  0  0  0
  187.5590  176.9190  143.6880 C   0  0  1  0  0  3  0  0  0  0  0  0
  186.9570  178.1560  144.3450 C   0  0  0  0  0  2  0  0  0  0  0  0
  186.4910  177.8670  145.7670 C   0  0  1  0  0  3  0  0  0  0  0  0
  187.6300  177.9100  146.6660 N   0  0  0  0  0  1  0  0  0  0  0  0
  185.4630  178.8560  146.2090 C   0  0  0  0  0  0  0  0  0  0  0  0
  184.2610  178.9840  145.5230 O   0  0  0  0  0  0  0  0  0  0  0  0
  185.6730  179.5580  147.2330 O   0  0  0  0  0  1  0  0  0  0  0  0
  189.4680  176.7660  141.9800 C   0  0  0  0  0  2  0  0  0  0  0  0
  190.8770  177.9980  143.6190 C   0  0  0  0  0  1  0  0  0  0  0  0
  191.7610  177.4710  141.3730 C   0  0  0  0  0  1  0  0  0  0  0  0
  190.5200  177.8490  142.1530 C   0  0  0  0  0  3  0  0  0  0  0  0
  181.1960  176.9340  137.6950 C   0  0  0  0  0  2  0  0  0  0  0  0
  180.1010  176.0100  138.2210 C   0  0  2  0  0  3  0  0  0  0  0  0
  179.0510  173.8420  137.5070 C   0  0  0  0  0  1  0  0  0  0  0  0
  179.4080  175.2560  137.0840 C   0  0  2  0  0  3  0  0  0  0  0  0
  180.2080  175.2260  135.9380 O   0  0  0  0  0  1  0  0  0  0  0  0
  179.0870  176.8120  139.0320 C   0  0  0  0  0  2  0  0  0  0  0  0
  179.2290  176.5440  140.4930 C   0  0  0  0  0  0  0  0  0  0  0  0
  179.2850  177.5000  141.3130 O   0  0  0  0  0  0  0  0  0  0  0  0
  179.2880  175.1900  140.9670 C   0  0  0  0  0  0  0  0  0  0  0  0
  179.3340  174.0520  141.3650 C   0  0  0  0  0  3  0  0  0  0  0  0
  1 11  1  0  0  0  0
  3 14  2  0  0  0  0
  5  7  1  0  0  0  0
  5  2  1  1  0  0  0
  6  4  2  0  0  0  0
  7 37  1  6  0  0  0
  7  1  1  0  0  0  0
  8  1  1  0  0  0  0
  8 20  1  1  0  0  0
 10  1  1  0  0  0  0
 10 11  1  0  0  0  0
 12 13  2  0  0  0  0
 13  6  1  0  0  0  0
 14 13  1  0  0  0  0
 14  9  1  0  0  0  0
 15  6  1  0  0  0  0
 16  9  1  6  0  0  0
 16  5  1  0  0  0  0
 16  8  1  0  0  0  0
 17 15  1  6  0  0  0
 17  5  1  0  0  0  0
 17  2  1  0  0  0  0
 18 20  1  0  0  0  0
 18 21  1  0  0  0  0
 19 21  2  0  0  0  0
 20 22  2  0  0  0  0
 21 24  1  0  0  0  0
 23 26  1  0  0  0  0
 24 23  2  0  0  0  0
 26 27  1  0  0  0  0
 26 25  1  1  0  0  0
 27 28  1  0  0  0  0
 28 30  1  0  0  0  0
 28 29  1  1  0  0  0
 30 32  1  0  0  0  0
 31 30  2  0  0  0  0
 33 36  1  0  0  0  0
 33 23  1  0  0  0  0
 35 36  1  0  0  0  0
 36 34  1  0  0  0  0
 38 37  1  6  0  0  0
 38 42  1  0  0  0  0
 40 39  1  1  0  0  0
 40 38  1  0  0  0  0
 41 40  1  0  0  0  0
 42 43  1  0  0  0  0
 43 45  1  0  0  0  0
 43 44  2  0  0  0  0
 45 46  3  0  0  0  0
M  END
>  <MODEL>
5

>  <REMARK>
 VINA RESULT:      -5.5      2.538      3.726
  Name = 
  14 active torsions:
  status: ('A' for Active; 'I' for Inactive)
    1  A    between atoms: C_5  and  C_35
    2  A    between atoms: C_8  and  C_11
    3  A    between atoms: C_8  and  C_35
    4  A    between atoms: C_11  and  C_12
    5  A    between atoms: C_15  and  CA_39
    6  A    between atoms: C_17  and  C_30
    7  A    between atoms: C_17  and  CA_39
    8  A    between atoms: C_20  and  C_27
    9  A    between atoms: C_22  and  C_31
   10  A    between atoms: C_24  and  C_30
   11  A    between atoms: C_24  and  C_34
   12  A    between atoms: C_27  and  C_35
   13  A    between atoms: C_33  and  N_42
   14  A    between atoms: C_34  and  C_38
                            x       y       z     vdW  Elec       q    Type
                         _______ _______ _______ _____ _____    ______ ____

>  <TORSDO>
F 14

$$$$
=
 OpenBabel11062413243D

 46 49  0  0  1  0  0  0  0  0999 V2000
  191.6120  176.1060  137.8780 C   0  0  0  0  0  0  0  0  0  0  0  0
  189.8100  178.0070  135.8800 O   0  0  0  0  0  0  0  0  0  0  0  0
  186.4800  174.0460  137.4570 C   0  0  0  0  0  2  0  0  0  0  0  0
  186.8150  178.4930  135.6150 O   0  0  0  0  0  0  0  0  0  0  0  0
  190.1410  176.6670  136.1750 C   0  0  1  0  0  0  0  0  0  0  0  0
  187.1260  177.2710  135.6250 C   0  0  0  0  0  0  0  0  0  0  0  0
  191.6300  176.5410  136.4340 C   0  0  2  0  0  3  0  0  0  0  0  0
  190.1940  175.9610  138.4160 C   0  0  2  0  0  3  0  0  0  0  0  0
  188.6650  174.9450  136.9280 C   0  0  0  0  0  2  0  0  0  0  0  0
  192.6540  175.1400  138.4030 C   0  0  0  0  0  2  0  0  0  0  0  0
  192.7240  176.6170  138.7710 C   0  0  0  0  0  2  0  0  0  0  0  0
  185.3120  176.6700  137.1180 C   0  0  0  0  0  2  0  0  0  0  0  0
  186.4930  176.3430  136.5920 C   0  0  0  0  0  0  0  0  0  0  0  0
  187.1770  175.0910  137.0210 C   0  0  0  0  0  0  0  0  0  0  0  0
  188.1060  176.7550  134.6110 C   0  0  0  0  0  2  0  0  0  0  0  0
  189.2960  176.2080  137.2870 N   0  0  2  0  0  0  0  0  0  0  0  0
  189.5950  177.0810  134.8440 C   0  0  1  0  0  3  0  0  0  0  0  0
  190.7800  177.0600  140.6200 N   0  0  0  0  0  2  0  0  0  0  0  0
  191.3700  178.2610  142.5200 O   0  0  0  0  0  0  0  0  0  0  0  0
  189.8930  176.9480  139.5030 C   0  0  0  0  0  0  0  0  0  0  0  0
  190.4490  177.7490  141.8320 C   0  0  0  0  0  0  0  0  0  0  0  0
  188.8830  177.6990  139.4090 O   0  0  0  0  0  0  0  0  0  0  0  0
  188.5760  177.3100  143.3180 C   0  0  0  0  0  0  0  0  0  0  0  0
  189.0880  177.8860  142.2650 N   0  0  0  0  0  0  0  0  0  0  0  0
  186.5910  176.1800  143.9990 O   0  0  0  0  0  1  0  0  0  0  0  0
  187.1080  177.4120  143.5870 C   0  0  1  0  0  3  0  0  0  0  0  0
  186.8510  178.4760  144.6470 C   0  0  0  0  0  2  0  0  0  0  0  0
  185.5580  179.2360  144.3790 C   0  0  1  0  0  3  0  0  0  0  0  0
  185.0740  178.9110  143.0490 N   0  0  0  0  0  1  0  0  0  0  0  0
  184.5130  178.8960  145.3910 C   0  0  0  0  0  0  0  0  0  0  0  0
  183.1810  178.7630  145.0170 O   0  0  0  0  0  0  0  0  0  0  0  0
  184.8470  178.6950  146.5890 O   0  0  0  0  0  1  0  0  0  0  0  0
  189.4070  176.4960  144.2670 C   0  0  0  0  0  2  0  0  0  0  0  0
  189.3480  177.1720  146.6610 C   0  0  0  0  0  1  0  0  0  0  0  0
  191.5070  177.0160  145.4670 C   0  0  0  0  0  1  0  0  0  0  0  0
  190.0430  177.3770  145.3280 C   0  0  0  0  0  3  0  0  0  0  0  0
  192.2100  175.4660  135.5230 C   0  0  0  0  0  2  0  0  0  0  0  0
  193.7120  175.3260  135.7560 C   0  0  2  0  0  3  0  0  0  0  0  0
  195.9260  176.1570  134.9070 C   0  0  0  0  0  1  0  0  0  0  0  0
  194.4810  176.5250  135.1970 C   0  0  2  0  0  3  0  0  0  0  0  0
  194.4310  177.6110  136.0760 O   0  0  0  0  0  1  0  0  0  0  0  0
  194.2170  174.0260  135.1360 C   0  0  0  0  0  2  0  0  0  0  0  0
  194.0280  172.8740  136.0650 C   0  0  0  0  0  0  0  0  0  0  0  0
  193.1490  172.0020  135.8280 O   0  0  0  0  0  0  0  0  0  0  0  0
  194.8620  172.7520  137.2270 C   0  0  0  0  0  0  0  0  0  0  0  0
  195.5650  172.6470  138.2020 C   0  0  0  0  0  3  0  0  0  0  0  0
  1 10  1  0  0  0  0
  1  8  1  0  0  0  0
  1 11  1  0  0  0  0
  4  6  2  0  0  0  0
  5  2  1  1  0  0  0
  5  7  1  0  0  0  0
  5 16  1  0  0  0  0
  6 13  1  0  0  0  0
  7 37  1  6  0  0  0
  7  1  1  0  0  0  0
  8 20  1  1  0  0  0
  9 14  1  0  0  0  0
 10 11  1  0  0  0  0
 13 14  1  0  0  0  0
 13 12  2  0  0  0  0
 14  3  2  0  0  0  0
 15  6  1  0  0  0  0
 16  9  1  6  0  0  0
 16  8  1  0  0  0  0
 17 15  1  1  0  0  0
 17  2  1  0  0  0  0
 17  5  1  0  0  0  0
 18 21  1  0  0  0  0
 20 18  1  0  0  0  0
 21 24  1  0  0  0  0
 21 19  2  0  0  0  0
 22 20  2  0  0  0  0
 23 26  1  0  0  0  0
 23 33  1  0  0  0  0
 24 23  2  0  0  0  0
 26 25  1  1  0  0  0
 26 27  1  0  0  0  0
 28 29  1  6  0  0  0
 28 27  1  0  0  0  0
 28 30  1  0  0  0  0
 30 32  1  0  0  0  0
 31 30  2  0  0  0  0
 33 36  1  0  0  0  0
 36 35  1  0  0  0  0
 36 34  1  0  0  0  0
 37 38  1  0  0  0  0
 38 42  1  6  0  0  0
 40 39  1  1  0  0  0
 40 38  1  0  0  0  0
 40 41  1  0  0  0  0
 42 43  1  0  0  0  0
 43 45  1  0  0  0  0
 44 43  2  0  0  0  0
 45 46  3  0  0  0  0
M  END
>  <MODEL>
6

>  <REMARK>
 VINA RESULT:      -5.2      2.646      6.377
  Name = 
  14 active torsions:
  status: ('A' for Active; 'I' for Inactive)
    1  A    between atoms: C_5  and  C_35
    2  A    between atoms: C_8  and  C_11
    3  A    between atoms: C_8  and  C_35
    4  A    between atoms: C_11  and  C_12
    5  A    between atoms: C_15  and  CA_39
    6  A    between atoms: C_17  and  C_30
    7  A    between atoms: C_17  and  CA_39
    8  A    between atoms: C_20  and  C_27
    9  A    between atoms: C_22  and  C_31
   10  A    between atoms: C_24  and  C_30
   11  A    between atoms: C_24  and  C_34
   12  A    between atoms: C_27  and  C_35
   13  A    between atoms: C_33  and  N_42
   14  A    between atoms: C_34  and  C_38
                            x       y       z     vdW  Elec       q    Type
                         _______ _______ _______ _____ _____    ______ ____

>  <TORSDO>
F 14

$$$$
=
 OpenBabel11062413243D

 46 49  0  0  1  0  0  0  0  0999 V2000
  191.4820  175.9010  137.6640 C   0  0  0  0  0  0  0  0  0  0  0  0
  189.5920  178.1220  136.1300 O   0  0  0  0  0  0  0  0  0  0  0  0
  186.4520  173.7570  136.7350 C   0  0  0  0  0  2  0  0  0  0  0  0
  186.5770  178.5170  135.9520 O   0  0  0  0  0  0  0  0  0  0  0  0
  189.9860  176.7660  136.1170 C   0  0  1  0  0  0  0  0  0  0  0  0
  186.9450  177.3400  135.6880 C   0  0  0  0  0  0  0  0  0  0  0  0
  191.4780  176.6530  136.3560 C   0  0  2  0  0  3  0  0  0  0  0  0
  190.0730  175.5730  138.1410 C   0  0  2  0  0  3  0  0  0  0  0  0
  188.5920  174.8530  136.4460 C   0  0  0  0  0  2  0  0  0  0  0  0
  192.5690  174.8900  137.9660 C   0  0  0  0  0  2  0  0  0  0  0  0
  192.5700  176.2470  138.6600 C   0  0  0  0  0  2  0  0  0  0  0  0
  185.1620  176.3330  136.9880 C   0  0  0  0  0  2  0  0  0  0  0  0
  186.3560  176.1890  136.4130 C   0  0  0  0  0  0  0  0  0  0  0  0
  187.0990  174.9050  136.5540 C   0  0  0  0  0  0  0  0  0  0  0  0
  187.9480  177.1130  134.5940 C   0  0  0  0  0  2  0  0  0  0  0  0
  189.1630  176.0290  137.0870 N   0  0  2  0  0  0  0  0  0  0  0  0
  189.4200  177.4450  134.9090 C   0  0  1  0  0  3  0  0  0  0  0  0
  189.0880  177.5520  139.3740 N   0  0  0  0  0  2  0  0  0  0  0  0
  188.0080  179.2290  140.5660 O   0  0  0  0  0  0  0  0  0  0  0  0
  189.7260  176.2730  139.4200 C   0  0  0  0  0  0  0  0  0  0  0  0
  188.9730  178.4240  140.5050 C   0  0  0  0  0  0  0  0  0  0  0  0
  189.9640  175.7140  140.5270 O   0  0  0  0  0  0  0  0  0  0  0  0
  189.7210  177.8190  142.7390 C   0  0  0  0  0  0  0  0  0  0  0  0
  189.9250  178.3830  141.5790 N   0  0  0  0  0  0  0  0  0  0  0  0
  190.4990  179.1270  144.5730 O   0  0  0  0  0  1  0  0  0  0  0  0
  190.7330  177.9670  143.8300 C   0  0  1  0  0  3  0  0  0  0  0  0
  190.6960  176.7410  144.7350 C   0  0  0  0  0  2  0  0  0  0  0  0
  190.8310  177.1230  146.2040 C   0  0  1  0  0  3  0  0  0  0  0  0
  189.5680  176.8900  146.8810 N   0  0  0  0  0  1  0  0  0  0  0  0
  191.9110  176.3350  146.8700 C   0  0  0  0  0  0  0  0  0  0  0  0
  192.4280  176.7350  148.0960 O   0  0  0  0  0  1  0  0  0  0  0  0
  192.3340  175.2770  146.3310 O   0  0  0  0  0  0  0  0  0  0  0  0
  188.4680  177.0510  143.0440 C   0  0  0  0  0  2  0  0  0  0  0  0
  186.1440  177.9120  142.8180 C   0  0  0  0  0  1  0  0  0  0  0  0
  187.0970  177.4860  145.0580 C   0  0  0  0  0  1  0  0  0  0  0  0
  187.4090  177.9560  143.6530 C   0  0  0  0  0  3  0  0  0  0  0  0
  192.1080  175.8400  135.2310 C   0  0  0  0  0  2  0  0  0  0  0  0
  193.5840  175.5820  135.5230 C   0  0  2  0  0  3  0  0  0  0  0  0
  195.7680  176.4040  134.5940 C   0  0  0  0  0  1  0  0  0  0  0  0
  194.4410  176.8100  135.2120 C   0  0  2  0  0  3  0  0  0  0  0  0
  194.6620  177.5750  136.3610 O   0  0  0  0  0  1  0  0  0  0  0  0
  194.0680  174.3720  134.7300 C   0  0  0  0  0  2  0  0  0  0  0  0
  194.2610  173.1860  135.6150 C   0  0  0  0  0  0  0  0  0  0  0  0
  193.4110  172.2550  135.6270 O   0  0  0  0  0  0  0  0  0  0  0  0
  195.4280  173.1000  136.4470 C   0  0  0  0  0  0  0  0  0  0  0  0
  196.4070  173.0290  137.1490 C   0  0  0  0  0  3  0  0  0  0  0  0
  1 10  1  0  0  0  0
  1  8  1  0  0  0  0
  1 11  1  0  0  0  0
  5  2  1  1  0  0  0
  5  7  1  0  0  0  0
  5 16  1  0  0  0  0
  6  4  2  0  0  0  0
  6 13  1  0  0  0  0
  7 37  1  6  0  0  0
  7  1  1  0  0  0  0
  8 20  1  1  0  0  0
  9 14  1  0  0  0  0
 10 11  1  0  0  0  0
 13 14  1  0  0  0  0
 13 12  2  0  0  0  0
 14  3  2  0  0  0  0
 15  6  1  0  0  0  0
 16  9  1  6  0  0  0
 16  8  1  0  0  0  0
 17 15  1  1  0  0  0
 17  5  1  0  0  0  0
 17  2  1  0  0  0  0
 18 20  1  0  0  0  0
 18 21  1  0  0  0  0
 20 22  2  0  0  0  0
 21 19  2  0  0  0  0
 21 24  1  0  0  0  0
 23 33  1  0  0  0  0
 23 26  1  0  0  0  0
 24 23  2  0  0  0  0
 26 25  1  1  0  0  0
 26 27  1  0  0  0  0
 27 28  1  0  0  0  0
 28 30  1  0  0  0  0
 28 29  1  1  0  0  0
 30 31  1  0  0  0  0
 32 30  2  0  0  0  0
 33 36  1  0  0  0  0
 34 36  1  0  0  0  0
 36 35  1  0  0  0  0
 37 38  1  0  0  0  0
 38 42  1  6  0  0  0
 40 39  1  1  0  0  0
 40 38  1  0  0  0  0
 40 41  1  0  0  0  0
 42 43  1  0  0  0  0
 43 44  2  0  0  0  0
 43 45  1  0  0  0  0
 45 46  3  0  0  0  0
M  END
>  <MODEL>
7

>  <REMARK>
 VINA RESULT:      -5.1      2.938      7.092
  Name = 
  14 active torsions:
  status: ('A' for Active; 'I' for Inactive)
    1  A    between atoms: C_5  and  C_35
    2  A    between atoms: C_8  and  C_11
    3  A    between atoms: C_8  and  C_35
    4  A    between atoms: C_11  and  C_12
    5  A    between atoms: C_15  and  CA_39
    6  A    between atoms: C_17  and  C_30
    7  A    between atoms: C_17  and  CA_39
    8  A    between atoms: C_20  and  C_27
    9  A    between atoms: C_22  and  C_31
   10  A    between atoms: C_24  and  C_30
   11  A    between atoms: C_24  and  C_34
   12  A    between atoms: C_27  and  C_35
   13  A    between atoms: C_33  and  N_42
   14  A    between atoms: C_34  and  C_38
                            x       y       z     vdW  Elec       q    Type
                         _______ _______ _______ _____ _____    ______ ____

>  <TORSDO>
F 14

$$$$
=
 OpenBabel11062413243D

 46 49  0  0  1  0  0  0  0  0999 V2000
  189.7140  177.1640  139.7970 C   0  0  0  0  0  0  0  0  0  0  0  0
  189.5350  178.2780  136.7020 O   0  0  0  0  0  0  0  0  0  0  0  0
  185.9020  174.2780  136.9860 C   0  0  0  0  0  2  0  0  0  0  0  0
  187.3360  178.2160  134.5940 O   0  0  0  0  0  0  0  0  0  0  0  0
  189.6030  177.1030  137.4820 C   0  0  1  0  0  0  0  0  0  0  0  0
  187.5650  177.0900  135.1140 C   0  0  0  0  0  0  0  0  0  0  0  0
  190.6180  177.2730  138.5940 C   0  0  2  0  0  3  0  0  0  0  0  0
  188.2630  176.9170  139.4040 C   0  0  2  0  0  3  0  0  0  0  0  0
  187.9600  175.3750  137.6400 C   0  0  0  0  0  2  0  0  0  0  0  0
  190.2070  176.5120  141.0730 C   0  0  0  0  0  2  0  0  0  0  0  0
  190.0500  178.0260  140.9970 C   0  0  0  0  0  2  0  0  0  0  0  0
  185.2110  176.5480  135.3330 C   0  0  0  0  0  2  0  0  0  0  0  0
  186.4630  176.3060  135.7210 C   0  0  0  0  0  0  0  0  0  0  0  0
  186.7290  175.3000  136.7880 C   0  0  0  0  0  0  0  0  0  0  0  0
  188.9570  176.5280  135.0640 C   0  0  0  0  0  2  0  0  0  0  0  0
  188.2490  176.7690  137.9470 N   0  0  2  0  0  0  0  0  0  0  0  0
  189.9930  177.1260  136.0360 C   0  0  1  0  0  3  0  0  0  0  0  0
  186.9120  178.1740  141.1370 N   0  0  0  0  0  2  0  0  0  0  0  0
  185.8350  179.4940  142.7170 O   0  0  0  0  0  0  0  0  0  0  0  0
  187.3680  178.0570  139.7860 C   0  0  0  0  0  0  0  0  0  0  0  0
  185.8450  179.0390  141.5440 C   0  0  0  0  0  0  0  0  0  0  0  0
  187.0520  178.9250  138.9260 O   0  0  0  0  0  0  0  0  0  0  0  0
  183.5620  179.0070  140.7070 C   0  0  0  0  0  0  0  0  0  0  0  0
  184.8000  179.4140  140.6340 N   0  0  0  0  0  0  0  0  0  0  0  0
  183.0750  180.4110  138.8450 O   0  0  0  0  0  1  0  0  0  0  0  0
  182.5960  179.3500  139.6180 C   0  0  1  0  0  3  0  0  0  0  0  0
  182.3500  178.1260  138.7440 C   0  0  0  0  0  2  0  0  0  0  0  0
  180.9480  178.1340  138.1470 C   0  0  1  0  0  3  0  0  0  0  0  0
  180.0080  178.6420  139.1310 N   0  0  0  0  0  1  0  0  0  0  0  0
  180.8910  178.9780  136.9160 C   0  0  0  0  0  0  0  0  0  0  0  0
  180.2670  180.2200  136.9360 O   0  0  0  0  0  1  0  0  0  0  0  0
  181.4420  178.5750  135.8570 O   0  0  0  0  0  0  0  0  0  0  0  0
  183.0680  178.1530  141.8400 C   0  0  0  0  0  2  0  0  0  0  0  0
  180.8700  178.7060  142.8680 C   0  0  0  0  0  1  0  0  0  0  0  0
  182.9140  178.6640  144.2560 C   0  0  0  0  0  1  0  0  0  0  0  0
  182.3590  178.9960  142.8870 C   0  0  0  0  0  3  0  0  0  0  0  0
  191.6260  176.1310  138.5350 C   0  0  0  0  0  2  0  0  0  0  0  0
  192.0560  175.8760  137.0930 C   0  0  2  0  0  3  0  0  0  0  0  0
  191.8440  174.1810  135.2500 C   0  0  0  0  0  1  0  0  0  0  0  0
  192.0050  174.3870  136.7460 C   0  0  2  0  0  3  0  0  0  0  0  0
  190.9710  173.7440  137.4330 O   0  0  0  0  0  1  0  0  0  0  0  0
  193.4570  176.4360  136.8600 C   0  0  0  0  0  2  0  0  0  0  0  0
  194.5050  175.4830  137.3290 C   0  0  0  0  0  0  0  0  0  0  0  0
  194.6680  175.2700  138.5610 O   0  0  0  0  0  0  0  0  0  0  0  0
  195.3210  174.7930  136.3690 C   0  0  0  0  0  0  0  0  0  0  0  0
  196.0090  174.2170  135.5630 C   0  0  0  0  0  3  0  0  0  0  0  0
  1 11  1  0  0  0  0
  1 10  1  0  0  0  0
  4  6  2  0  0  0  0
  5  2  1  6  0  0  0
  5 16  1  0  0  0  0
  5  7  1  0  0  0  0
  6 13  1  0  0  0  0
  7 37  1  1  0  0  0
  7  1  1  0  0  0  0
  8 20  1  6  0  0  0
  8  1  1  0  0  0  0
 11 10  1  0  0  0  0
 12 13  2  0  0  0  0
 13 14  1  0  0  0  0
 14  3  2  0  0  0  0
 14  9  1  0  0  0  0
 15  6  1  0  0  0  0
 16  9  1  1  0  0  0
 16  8  1  0  0  0  0
 17 15  1  6  0  0  0
 17  2  1  0  0  0  0
 17  5  1  0  0  0  0
 18 21  1  0  0  0  0
 20 18  1  0  0  0  0
 21 19  2  0  0  0  0
 22 20  2  0  0  0  0
 23 33  1  0  0  0  0
 24 23  2  0  0  0  0
 24 21  1  0  0  0  0
 26 25  1  6  0  0  0
 26 23  1  0  0  0  0
 27 26  1  0  0  0  0
 28 27  1  0  0  0  0
 28 29  1  1  0  0  0
 30 31  1  0  0  0  0
 30 28  1  0  0  0  0
 32 30  2  0  0  0  0
 33 36  1  0  0  0  0
 34 36  1  0  0  0  0
 36 35  1  0  0  0  0
 38 42  1  1  0  0  0
 38 37  1  0  0  0  0
 40 39  1  6  0  0  0
 40 38  1  0  0  0  0
 40 41  1  0  0  0  0
 42 43  1  0  0  0  0
 43 44  2  0  0  0  0
 45 43  1  0  0  0  0
 46 45  3  0  0  0  0
M  END
>  <MODEL>
8

>  <REMARK>
 VINA RESULT:      -5.0      2.782      7.198
  Name = 
  14 active torsions:
  status: ('A' for Active; 'I' for Inactive)
    1  A    between atoms: C_5  and  C_35
    2  A    between atoms: C_8  and  C_11
    3  A    between atoms: C_8  and  C_35
    4  A    between atoms: C_11  and  C_12
    5  A    between atoms: C_15  and  CA_39
    6  A    between atoms: C_17  and  C_30
    7  A    between atoms: C_17  and  CA_39
    8  A    between atoms: C_20  and  C_27
    9  A    between atoms: C_22  and  C_31
   10  A    between atoms: C_24  and  C_30
   11  A    between atoms: C_24  and  C_34
   12  A    between atoms: C_27  and  C_35
   13  A    between atoms: C_33  and  N_42
   14  A    between atoms: C_34  and  C_38
                            x       y       z     vdW  Elec       q    Type
                         _______ _______ _______ _____ _____    ______ ____

>  <TORSDO>
F 14

$$$$
=
 OpenBabel11062413243D

 46 49  0  0  1  0  0  0  0  0999 V2000
  189.4890  177.2450  138.3110 C   0  0  0  0  0  0  0  0  0  0  0  0
  190.2870  174.1320  137.5870 O   0  0  0  0  0  0  0  0  0  0  0  0
  194.6770  177.0470  136.3600 C   0  0  0  0  0  2  0  0  0  0  0  0
  192.9470  172.6610  137.3840 O   0  0  0  0  0  0  0  0  0  0  0  0
  190.3360  175.4570  137.1020 C   0  0  1  0  0  0  0  0  0  0  0  0
  192.9180  173.7390  136.7300 C   0  0  0  0  0  0  0  0  0  0  0  0
  189.0210  176.1610  137.3720 C   0  0  2  0  0  3  0  0  0  0  0  0
  190.9930  177.1890  138.5490 C   0  0  2  0  0  3  0  0  0  0  0  0
  192.2880  176.7500  136.6220 C   0  0  0  0  0  2  0  0  0  0  0  0
  188.8420  178.6150  138.2870 C   0  0  0  0  0  2  0  0  0  0  0  0
  188.5490  177.6490  139.4280 C   0  0  0  0  0  2  0  0  0  0  0  0
  195.1300  174.4110  137.4600 C   0  0  0  0  0  2  0  0  0  0  0  0
  193.9560  174.7750  136.9460 C   0  0  0  0  0  0  0  0  0  0  0  0
  193.6850  176.2100  136.6510 C   0  0  0  0  0  0  0  0  0  0  0  0
  191.8520  173.9380  135.6910 C   0  0  0  0  0  2  0  0  0  0  0  0
  191.5090  176.1270  137.6830 N   0  0  2  0  0  0  0  0  0  0  0  0
  190.4330  174.2700  136.1940 C   0  0  1  0  0  3  0  0  0  0  0  0
  190.4750  176.0040  140.7250 N   0  0  0  0  0  2  0  0  0  0  0  0
  190.1810  174.7760  142.6750 O   0  0  0  0  0  0  0  0  0  0  0  0
  191.3330  176.8660  139.9720 C   0  0  0  0  0  0  0  0  0  0  0  0
  190.5450  175.8590  142.1480 C   0  0  0  0  0  0  0  0  0  0  0  0
  192.3920  177.3240  140.4850 O   0  0  0  0  0  0  0  0  0  0  0  0
  190.3970  177.4410  143.9890 C   0  0  0  0  0  0  0  0  0  0  0  0
  191.0410  176.9160  142.9830 N   0  0  0  0  0  0  0  0  0  0  0  0
  190.7030  179.8050  143.9710 O   0  0  0  0  0  1  0  0  0  0  0  0
  190.9570  178.6350  144.6940 C   0  0  1  0  0  3  0  0  0  0  0  0
  190.3560  178.7360  146.0910 C   0  0  0  0  0  2  0  0  0  0  0  0
  190.3520  177.3870  146.8000 C   0  0  1  0  0  3  0  0  0  0  0  0
  191.6700  177.1270  147.3520 N   0  0  0  0  0  1  0  0  0  0  0  0
  189.3350  177.3560  147.8930 C   0  0  0  0  0  0  0  0  0  0  0  0
  189.2800  178.3720  148.8400 O   0  0  0  0  0  1  0  0  0  0  0  0
  188.4960  176.4170  147.9390 O   0  0  0  0  0  0  0  0  0  0  0  0
  189.0680  176.9140  144.4480 C   0  0  0  0  0  2  0  0  0  0  0  0
  187.4000  177.5060  142.6990 C   0  0  0  0  0  1  0  0  0  0  0  0
  186.8320  177.7590  145.0910 C   0  0  0  0  0  1  0  0  0  0  0  0
  187.9440  177.8640  144.0690 C   0  0  0  0  0  3  0  0  0  0  0  0
  188.4790  176.7340  136.0680 C   0  0  0  0  0  2  0  0  0  0  0  0
  187.0580  176.2360  135.8190 C   0  0  2  0  0  3  0  0  0  0  0  0
  185.3990  177.5110  137.2080 C   0  0  0  0  0  1  0  0  0  0  0  0
  186.0480  177.3850  135.8410 C   0  0  2  0  0  3  0  0  0  0  0  0
  185.0680  177.2140  134.8590 O   0  0  0  0  0  1  0  0  0  0  0  0
  186.6890  175.1740  136.8510 C   0  0  0  0  0  2  0  0  0  0  0  0
  186.1780  173.9360  136.1950 C   0  0  0  0  0  0  0  0  0  0  0  0
  185.0280  173.9150  135.6780 O   0  0  0  0  0  0  0  0  0  0  0  0
  187.0080  172.7650  136.1400 C   0  0  0  0  0  0  0  0  0  0  0  0
  187.7030  171.7790  136.0960 C   0  0  0  0  0  3  0  0  0  0  0  0
  1  8  1  0  0  0  0
  1 11  1  0  0  0  0
  3 14  2  0  0  0  0
  5  7  1  0  0  0  0
  5  2  1  1  0  0  0
  5 16  1  0  0  0  0
  6 13  1  0  0  0  0
  6  4  2  0  0  0  0
  7 37  1  6  0  0  0
  7  1  1  0  0  0  0
  8 20  1  1  0  0  0
  9 14  1  0  0  0  0
 10  1  1  0  0  0  0
 10 11  1  0  0  0  0
 13 12  2  0  0  0  0
 14 13  1  0  0  0  0
 15  6  1  0  0  0  0
 16  9  1  6  0  0  0
 16  8  1  0  0  0  0
 17 15  1  1  0  0  0
 17  5  1  0  0  0  0
 17  2  1  0  0  0  0
 18 21  1  0  0  0  0
 20 22  2  0  0  0  0
 20 18  1  0  0  0  0
 21 19  2  0  0  0  0
 21 24  1  0  0  0  0
 23 33  1  0  0  0  0
 23 26  1  0  0  0  0
 24 23  2  0  0  0  0
 26 25  1  6  0  0  0
 26 27  1  0  0  0  0
 27 28  1  0  0  0  0
 28 29  1  1  0  0  0
 28 30  1  0  0  0  0
 30 32  2  0  0  0  0
 30 31  1  0  0  0  0
 34 36  1  0  0  0  0
 36 33  1  0  0  0  0
 36 35  1  0  0  0  0
 38 40  1  0  0  0  0
 38 37  1  1  0  0  0
 38 42  1  0  0  0  0
 40 39  1  1  0  0  0
 41 40  1  0  0  0  0
 43 42  1  0  0  0  0
 44 43  2  0  0  0  0
 45 43  1  0  0  0  0
 46 45  3  0  0  0  0
M  END
>  <MODEL>
9

>  <REMARK>
 VINA RESULT:      -5.0      2.898      4.400
  Name = 
  14 active torsions:
  status: ('A' for Active; 'I' for Inactive)
    1  A    between atoms: C_5  and  C_35
    2  A    between atoms: C_8  and  C_11
    3  A    between atoms: C_8  and  C_35
    4  A    between atoms: C_11  and  C_12
    5  A    between atoms: C_15  and  CA_39
    6  A    between atoms: C_17  and  C_30
    7  A    between atoms: C_17  and  CA_39
    8  A    between atoms: C_20  and  C_27
    9  A    between atoms: C_22  and  C_31
   10  A    between atoms: C_24  and  C_30
   11  A    between atoms: C_24  and  C_34
   12  A    between atoms: C_27  and  C_35
   13  A    between atoms: C_33  and  N_42
   14  A    between atoms: C_34  and  C_38
                            x       y       z     vdW  Elec       q    Type
                         _______ _______ _______ _____ _____    ______ ____

>  <TORSDO>
F 14

$$$$
