=
 OpenBabel11062417273D

 45 49  0  0  1  0  0  0  0  0999 V2000
  183.5810  179.4810  140.1230 C   0  0  2  0  0  3  0  0  0  0  0  0
  181.2240  178.4950  139.9450 P   0  0  2  0  0  0  0  0  0  0  0  0
  180.0580  179.3410  140.4070 O   0  0  0  0  0  1  0  0  0  0  0  0
  183.4380  178.2050  140.9690 C   0  0  2  0  0  3  0  0  0  0  0  0
  180.6860  177.2120  138.9830 O   0  0  0  0  0  0  0  0  0  0  0  0
  182.0920  177.9250  141.2790 O   0  0  0  0  0  0  0  0  0  0  0  0
  182.4740  179.4630  139.0930 C   0  0  1  0  0  3  0  0  0  0  0  0
  186.3600  177.8940  143.3520 C   0  0  0  0  0  3  0  0  0  0  0  0
  184.2530  178.2720  142.2200 C   0  0  0  0  0  0  0  0  0  0  0  0
  185.8120  178.3560  144.5570 C   0  0  0  0  0  0  0  0  0  0  0  0
  183.6950  178.7250  143.4230 C   0  0  0  0  0  3  0  0  0  0  0  0
  184.4720  178.7700  144.5840 C   0  0  0  0  0  3  0  0  0  0  0  0
  185.5840  177.8500  142.1910 C   0  0  0  0  0  3  0  0  0  0  0  0
  186.6280  178.4010  145.7850 C   0  0  0  0  0  0  0  0  0  0  0  0
  186.4110  179.2890  146.6570 O   0  0  0  0  0  0  0  0  0  0  0  0
  187.7280  177.4020  146.0080 C   0  0  2  0  0  3  0  0  0  0  0  0
  187.5170  176.7330  147.2840 N   0  0  0  0  0  1  0  0  0  0  0  0
  189.1140  178.0610  145.9730 C   0  0  2  0  0  3  0  0  0  0  0  0
  189.4930  178.5360  144.5600 C   0  0  0  0  0  2  0  0  0  0  0  0
  190.1740  177.1350  146.5990 C   0  0  0  0  0  2  0  0  0  0  0  0
  190.0200  177.3960  143.6870 C   0  0  2  0  0  3  0  0  0  0  0  0
  191.4570  177.0430  145.7730 C   0  0  0  0  0  2  0  0  0  0  0  0
  191.1340  176.5740  144.3530 C   0  0  2  0  0  3  0  0  0  0  0  0
  191.4750  177.6660  143.3610 C   0  0  1  0  0  3  0  0  0  0  0  0
  191.8170  177.0400  142.0220 C   0  0  0  0  0  2  0  0  0  0  0  0
  191.0780  177.6610  141.0140 O   0  0  0  0  0  0  0  0  0  0  0  0
  190.6480  176.0280  139.4890 O   0  0  0  0  0  1  0  0  0  0  0  0
  191.5180  177.0620  139.8340 C   0  0  0  0  0  2  0  0  0  0  0  0
  183.1060  181.7960  138.6520 N   0  0  0  0  0  1  0  0  0  0  0  0
  181.9840  180.8770  138.7580 C   0  0  1  0  0  3  0  0  0  0  0  0
  181.2170  180.9010  137.4750 C   0  0  0  0  0  0  0  0  0  0  0  0
  181.2330  179.8040  136.6240 O   0  0  0  0  0  0  0  0  0  0  0  0
  180.5880  181.9390  137.1430 O   0  0  0  0  0  1  0  0  0  0  0  0
  184.8260  179.5030  139.4900 O   0  0  0  0  0  0  0  0  0  0  0  0
  184.6340  178.8460  138.3640 O   0  0  0  0  0  0  0  0  0  0  0  0
  185.6060  177.1500  136.9960 C   0  0  1  0  0  3  0  0  0  0  0  0
  186.9950  178.4860  138.5530 C   0  0  2  0  0  3  0  0  0  0  0  0
  185.6060  177.8440  138.3650 C   0  0  1  0  0  3  0  0  0  0  0  0
  186.8380  177.6630  136.3650 C   0  0  0  0  0  0  0  0  0  0  0  0
  187.1760  177.4220  135.1770 O   0  0  0  0  0  0  0  0  0  0  0  0
  188.8540  179.1180  136.8950 C   0  0  0  0  0  1  0  0  0  0  0  0
  187.6110  178.4500  137.2440 N   0  0  0  0  0  0  0  0  0  0  0  0
  185.7200  175.7730  137.1760 O   0  0  0  0  0  1  0  0  0  0  0  0
  187.7450  177.7060  139.4350 O   0  0  0  0  0  0  0  0  0  0  0  0
  188.1740  178.5470  140.3510 O   0  0  0  0  0  1  0  0  0  0  0  0
  1 34  1  6  0  0  0
  1  4  1  0  0  0  0
  2  5  2  6  0  0  0
  2  3  1  0  0  0  0
  2  6  1  0  0  0  0
  4  6  1  0  0  0  0
  4  9  1  1  0  0  0
  7 30  1  1  0  0  0
  7  2  1  0  0  0  0
  7  1  1  0  0  0  0
  8 10  1  0  0  0  0
  9 11  2  0  0  0  0
 10 12  2  0  0  0  0
 10 14  1  0  0  0  0
 11 12  1  0  0  0  0
 13  9  1  0  0  0  0
 13  8  2  0  0  0  0
 14 16  1  0  0  0  0
 14 15  2  0  0  0  0
 16 17  1  1  0  0  0
 18 16  1  6  0  0  0
 18 20  1  0  0  0  0
 19 18  1  0  0  0  0
 21 23  1  0  0  0  0
 21 19  1  1  0  0  0
 22 20  1  0  0  0  0
 23 22  1  1  0  0  0
 24 25  1  6  0  0  0
 24 21  1  0  0  0  0
 24 23  1  0  0  0  0
 26 25  1  0  0  0  0
 27 28  1  0  0  0  0
 28 26  1  0  0  0  0
 30 29  1  6  0  0  0
 31 30  1  0  0  0  0
 32 31  2  0  0  0  0
 33 31  1  0  0  0  0
 35 34  1  0  0  0  0
 36 43  1  1  0  0  0
 36 38  1  0  0  0  0
 37 44  1  1  0  0  0
 38 35  1  6  0  0  0
 38 37  1  0  0  0  0
 39 36  1  0  0  0  0
 39 42  1  0  0  0  0
 40 39  2  0  0  0  0
 41 42  1  0  0  0  0
 42 37  1  0  0  0  0
 44 45  1  0  0  0  0
M  END
>  <MODEL>
1

>  <REMARK>
 VINA RESULT:      -7.8      0.000      0.000
  Name = 
  13 active torsions:
  status: ('A' for Active; 'I' for Inactive)
    1  A    between atoms: C_1  and  O_7
    2  A    between atoms: C_4  and  C_17
    3  A    between atoms: C_4  and  C_24
    4  A    between atoms: O_5  and  C_10
    5  A    between atoms: O_6  and  O_7
    6  A    between atoms: O_6  and  C_19
    7  A    between atoms: C_12  and  C_23
    8  A    between atoms: C_14  and  C_17
    9  A    between atoms: C_18  and  O_31
   10  A    between atoms: C_21  and  CA_43
   11  A    between atoms: C_25  and  O_31
   12  A    between atoms: C_25  and  C_45
   13  A    between atoms: C_38  and  CA_43
                            x       y       z     vdW  Elec       q    Type
                         _______ _______ _______ _____ _____    ______ ____

>  <TORSDO>
F 13

$$$$
=
 OpenBabel11062417273D

 45 49  0  0  1  0  0  0  0  0999 V2000
  190.6220  176.3260  139.2270 C   0  0  2  0  0  3  0  0  0  0  0  0
  193.0470  176.3000  138.4020 P   0  0  2  0  0  0  0  0  0  0  0  0
  193.7820  174.9780  138.3820 O   0  0  0  0  0  1  0  0  0  0  0  0
  191.5250  177.2090  140.1030 C   0  0  2  0  0  3  0  0  0  0  0  0
  193.8500  177.4450  137.4510 O   0  0  0  0  0  0  0  0  0  0  0  0
  192.8820  176.8490  139.9930 O   0  0  0  0  0  0  0  0  0  0  0  0
  191.3290  176.1350  137.9040 C   0  0  1  0  0  3  0  0  0  0  0  0
  191.1770  178.1870  143.7420 C   0  0  0  0  0  3  0  0  0  0  0  0
  191.1000  177.1890  141.5360 C   0  0  0  0  0  0  0  0  0  0  0  0
  190.3470  177.1740  144.2440 C   0  0  0  0  0  0  0  0  0  0  0  0
  190.2800  176.1680  142.0340 C   0  0  0  0  0  3  0  0  0  0  0  0
  189.9030  176.1640  143.3800 C   0  0  0  0  0  3  0  0  0  0  0  0
  191.5520  178.1940  142.3960 C   0  0  0  0  0  3  0  0  0  0  0  0
  189.9510  177.1650  145.6660 C   0  0  0  0  0  0  0  0  0  0  0  0
  190.5430  176.4040  146.4810 O   0  0  0  0  0  0  0  0  0  0  0  0
  188.8400  178.0500  146.1550 C   0  0  2  0  0  3  0  0  0  0  0  0
  189.1330  178.4800  147.5150 N   0  0  0  0  0  1  0  0  0  0  0  0
  187.4790  177.3420  146.1000 C   0  0  2  0  0  3  0  0  0  0  0  0
  186.9470  177.2230  144.6620 C   0  0  0  0  0  2  0  0  0  0  0  0
  186.4760  178.0140  147.0570 C   0  0  0  0  0  2  0  0  0  0  0  0
  186.2860  178.5160  144.1790 C   0  0  2  0  0  3  0  0  0  0  0  0
  185.1020  178.2380  146.4280 C   0  0  0  0  0  2  0  0  0  0  0  0
  185.2380  179.0730  145.1530 C   0  0  2  0  0  3  0  0  0  0  0  0
  184.8110  178.2540  143.9540 C   0  0  1  0  0  3  0  0  0  0  0  0
  184.2930  179.1800  142.8700 C   0  0  0  0  0  2  0  0  0  0  0  0
  183.0760  178.6970  142.3860 O   0  0  0  0  0  0  0  0  0  0  0  0
  183.4470  177.2360  140.6810 O   0  0  0  0  0  1  0  0  0  0  0  0
  183.2680  178.5800  141.0090 C   0  0  0  0  0  2  0  0  0  0  0  0
  189.6640  174.3590  137.5730 N   0  0  0  0  0  1  0  0  0  0  0  0
  191.0340  174.7600  137.2930 C   0  0  1  0  0  3  0  0  0  0  0  0
  191.2410  174.7630  135.8120 C   0  0  0  0  0  0  0  0  0  0  0  0
  192.5060  174.5570  135.2770 O   0  0  0  0  0  1  0  0  0  0  0  0
  190.2700  174.9960  135.0460 O   0  0  0  0  0  0  0  0  0  0  0  0
  189.3880  176.9480  139.0250 O   0  0  0  0  0  0  0  0  0  0  0  0
  189.6800  178.0600  138.3820 O   0  0  0  0  0  0  0  0  0  0  0  0
  188.2850  178.9970  136.6880 C   0  0  1  0  0  3  0  0  0  0  0  0
  187.3160  177.7290  138.5840 C   0  0  2  0  0  3  0  0  0  0  0  0
  188.4510  178.6920  138.1830 C   0  0  1  0  0  3  0  0  0  0  0  0
  187.2860  177.9990  136.2560 C   0  0  0  0  0  0  0  0  0  0  0  0
  186.9290  177.8300  135.0620 O   0  0  0  0  0  0  0  0  0  0  0  0
  185.7870  176.1830  137.2140 C   0  0  0  0  0  1  0  0  0  0  0  0
  186.7590  177.2570  137.3340 N   0  0  0  0  0  0  0  0  0  0  0  0
  187.7550  180.2770  136.5340 O   0  0  0  0  0  1  0  0  0  0  0  0
  186.3380  178.4390  139.2830 O   0  0  0  0  0  0  0  0  0  0  0  0
  186.8830  178.7090  140.4490 O   0  0  0  0  0  1  0  0  0  0  0  0
  1 34  1  6  0  0  0
  1  4  1  0  0  0  0
  2  5  2  6  0  0  0
  2  6  1  0  0  0  0
  3  2  1  0  0  0  0
  4  9  1  1  0  0  0
  6  4  1  0  0  0  0
  7 30  1  1  0  0  0
  7  2  1  0  0  0  0
  7  1  1  0  0  0  0
  8 10  1  0  0  0  0
  9 11  2  0  0  0  0
  9 13  1  0  0  0  0
 10 14  1  0  0  0  0
 11 12  1  0  0  0  0
 12 10  2  0  0  0  0
 13  8  2  0  0  0  0
 14 16  1  0  0  0  0
 14 15  2  0  0  0  0
 16 17  1  1  0  0  0
 18 16  1  6  0  0  0
 18 20  1  0  0  0  0
 19 18  1  0  0  0  0
 21 19  1  1  0  0  0
 21 23  1  0  0  0  0
 22 20  1  0  0  0  0
 23 22  1  1  0  0  0
 24 25  1  6  0  0  0
 24 21  1  0  0  0  0
 24 23  1  0  0  0  0
 26 25  1  0  0  0  0
 27 28  1  0  0  0  0
 28 26  1  0  0  0  0
 30 29  1  6  0  0  0
 31 30  1  0  0  0  0
 32 31  1  0  0  0  0
 33 31  2  0  0  0  0
 35 34  1  0  0  0  0
 36 43  1  1  0  0  0
 36 38  1  0  0  0  0
 37 44  1  1  0  0  0
 38 35  1  6  0  0  0
 38 37  1  0  0  0  0
 39 36  1  0  0  0  0
 39 42  1  0  0  0  0
 40 39  2  0  0  0  0
 41 42  1  0  0  0  0
 42 37  1  0  0  0  0
 44 45  1  0  0  0  0
M  END
>  <MODEL>
2

>  <REMARK>
 VINA RESULT:      -7.8      3.012      7.228
  Name = 
  13 active torsions:
  status: ('A' for Active; 'I' for Inactive)
    1  A    between atoms: C_1  and  O_7
    2  A    between atoms: C_4  and  C_17
    3  A    between atoms: C_4  and  C_24
    4  A    between atoms: O_5  and  C_10
    5  A    between atoms: O_6  and  O_7
    6  A    between atoms: O_6  and  C_19
    7  A    between atoms: C_12  and  C_23
    8  A    between atoms: C_14  and  C_17
    9  A    between atoms: C_18  and  O_31
   10  A    between atoms: C_21  and  CA_43
   11  A    between atoms: C_25  and  O_31
   12  A    between atoms: C_25  and  C_45
   13  A    between atoms: C_38  and  CA_43
                            x       y       z     vdW  Elec       q    Type
                         _______ _______ _______ _____ _____    ______ ____

>  <TORSDO>
F 13

$$$$
=
 OpenBabel11062417273D

 45 49  0  0  1  0  0  0  0  0999 V2000
  182.7280  179.2390  140.7180 C   0  0  2  0  0  3  0  0  0  0  0  0
  180.2460  179.6270  141.2210 P   0  0  2  0  0  0  0  0  0  0  0  0
  179.7750  181.0480  141.4390 O   0  0  0  0  0  1  0  0  0  0  0  0
  182.2970  178.5300  142.0130 C   0  0  2  0  0  3  0  0  0  0  0  0
  178.9360  178.6020  140.9210 O   0  0  0  0  0  0  0  0  0  0  0  0
  181.1300  179.0980  142.5620 O   0  0  0  0  0  0  0  0  0  0  0  0
  181.4740  179.5080  139.9160 C   0  0  1  0  0  3  0  0  0  0  0  0
  185.7010  178.0500  143.5950 C   0  0  0  0  0  3  0  0  0  0  0  0
  183.3920  178.5170  143.0300 C   0  0  0  0  0  0  0  0  0  0  0  0
  185.4720  178.4510  144.9200 C   0  0  0  0  0  0  0  0  0  0  0  0
  183.1550  178.9090  144.3550 C   0  0  0  0  0  3  0  0  0  0  0  0
  184.1900  178.8790  145.2920 C   0  0  0  0  0  3  0  0  0  0  0  0
  184.6660  178.0810  142.6570 C   0  0  0  0  0  3  0  0  0  0  0  0
  186.5630  178.4170  145.9130 C   0  0  0  0  0  0  0  0  0  0  0  0
  186.5830  179.2540  146.8580 O   0  0  0  0  0  0  0  0  0  0  0  0
  187.6610  177.3970  145.8070 C   0  0  2  0  0  3  0  0  0  0  0  0
  187.8450  176.7540  147.1010 N   0  0  0  0  0  1  0  0  0  0  0  0
  188.9790  178.0220  145.3290 C   0  0  2  0  0  3  0  0  0  0  0  0
  188.9320  178.4000  143.8390 C   0  0  0  0  0  2  0  0  0  0  0  0
  190.1720  177.1150  145.6820 C   0  0  0  0  0  2  0  0  0  0  0  0
  189.1820  177.1960  142.9280 C   0  0  2  0  0  3  0  0  0  0  0  0
  191.1600  176.9450  144.5280 C   0  0  0  0  0  2  0  0  0  0  0  0
  190.4390  176.3940  143.2960 C   0  0  2  0  0  3  0  0  0  0  0  0
  190.4800  177.4140  142.1780 C   0  0  1  0  0  3  0  0  0  0  0  0
  190.4170  176.6990  140.8420 C   0  0  0  0  0  2  0  0  0  0  0  0
  190.5240  177.6310  139.8080 O   0  0  0  0  0  0  0  0  0  0  0  0
  188.9660  179.0260  138.9090 O   0  0  0  0  0  1  0  0  0  0  0  0
  189.2400  177.7060  139.2690 C   0  0  0  0  0  2  0  0  0  0  0  0
  182.9530  181.0130  138.6580 N   0  0  0  0  0  1  0  0  0  0  0  0
  181.5840  180.8030  139.1040 C   0  0  1  0  0  3  0  0  0  0  0  0
  180.6870  180.7780  137.9080 C   0  0  0  0  0  0  0  0  0  0  0  0
  179.6810  181.7240  137.7620 O   0  0  0  0  0  1  0  0  0  0  0  0
  180.8160  179.8670  137.0500 O   0  0  0  0  0  0  0  0  0  0  0  0
  183.5980  178.4250  139.9900 O   0  0  0  0  0  0  0  0  0  0  0  0
  182.8420  177.4360  139.5590 O   0  0  0  0  0  0  0  0  0  0  0  0
  182.9200  175.4700  138.2090 C   0  0  1  0  0  3  0  0  0  0  0  0
  183.7450  177.6430  137.3490 C   0  0  2  0  0  3  0  0  0  0  0  0
  183.6260  176.7700  138.6150 C   0  0  1  0  0  3  0  0  0  0  0  0
  182.4190  175.7750  136.8540 C   0  0  0  0  0  0  0  0  0  0  0  0
  181.6840  175.0050  136.1830 O   0  0  0  0  0  0  0  0  0  0  0  0
  182.5060  177.6110  135.0980 C   0  0  0  0  0  1  0  0  0  0  0  0
  182.8640  177.0260  136.3790 N   0  0  0  0  0  0  0  0  0  0  0  0
  183.8550  174.4400  138.1330 O   0  0  0  0  0  1  0  0  0  0  0  0
  185.0570  177.5890  136.8770 O   0  0  0  0  0  0  0  0  0  0  0  0
  185.7870  178.1000  137.8450 O   0  0  0  0  0  1  0  0  0  0  0  0
  1 34  1  6  0  0  0
  1  4  1  0  0  0  0
  2  5  2  6  0  0  0
  2  3  1  0  0  0  0
  2  6  1  0  0  0  0
  4  6  1  0  0  0  0
  4  9  1  1  0  0  0
  7 30  1  1  0  0  0
  7  1  1  0  0  0  0
  7  2  1  0  0  0  0
  8 10  1  0  0  0  0
  9 11  2  0  0  0  0
 10 12  2  0  0  0  0
 10 14  1  0  0  0  0
 11 12  1  0  0  0  0
 13  9  1  0  0  0  0
 13  8  2  0  0  0  0
 14 15  2  0  0  0  0
 16 14  1  0  0  0  0
 16 17  1  1  0  0  0
 18 20  1  0  0  0  0
 18 16  1  6  0  0  0
 19 18  1  0  0  0  0
 21 23  1  0  0  0  0
 21 19  1  1  0  0  0
 22 20  1  0  0  0  0
 23 22  1  1  0  0  0
 24 25  1  6  0  0  0
 24 21  1  0  0  0  0
 24 23  1  0  0  0  0
 26 25  1  0  0  0  0
 27 28  1  0  0  0  0
 28 26  1  0  0  0  0
 30 29  1  6  0  0  0
 31 30  1  0  0  0  0
 32 31  1  0  0  0  0
 33 31  2  0  0  0  0
 35 34  1  0  0  0  0
 36 43  1  6  0  0  0
 36 38  1  0  0  0  0
 37 44  1  6  0  0  0
 37 38  1  0  0  0  0
 38 35  1  1  0  0  0
 39 36  1  0  0  0  0
 40 39  2  0  0  0  0
 41 42  1  0  0  0  0
 42 39  1  0  0  0  0
 42 37  1  0  0  0  0
 44 45  1  0  0  0  0
M  END
>  <MODEL>
3

>  <REMARK>
 VINA RESULT:      -7.5      1.823      2.492
  Name = 
  13 active torsions:
  status: ('A' for Active; 'I' for Inactive)
    1  A    between atoms: C_1  and  O_7
    2  A    between atoms: C_4  and  C_17
    3  A    between atoms: C_4  and  C_24
    4  A    between atoms: O_5  and  C_10
    5  A    between atoms: O_6  and  O_7
    6  A    between atoms: O_6  and  C_19
    7  A    between atoms: C_12  and  C_23
    8  A    between atoms: C_14  and  C_17
    9  A    between atoms: C_18  and  O_31
   10  A    between atoms: C_21  and  CA_43
   11  A    between atoms: C_25  and  O_31
   12  A    between atoms: C_25  and  C_45
   13  A    between atoms: C_38  and  CA_43
                            x       y       z     vdW  Elec       q    Type
                         _______ _______ _______ _____ _____    ______ ____

>  <TORSDO>
F 13

$$$$
=
 OpenBabel11062417273D

 45 49  0  0  1  0  0  0  0  0999 V2000
  186.7070  178.0700  142.6130 C   0  0  2  0  0  3  0  0  0  0  0  0
  185.6790  178.3770  144.9390 P   0  0  2  0  0  0  0  0  0  0  0  0
  185.3030  177.1400  145.7240 O   0  0  0  0  0  0  0  0  0  0  0  0
  185.3850  178.8520  142.5460 C   0  0  2  0  0  3  0  0  0  0  0  0
  185.7470  179.7300  145.9520 O   0  0  0  0  0  1  0  0  0  0  0  0
  184.5790  178.6230  143.6790 O   0  0  0  0  0  0  0  0  0  0  0  0
  187.2160  178.1700  144.0340 C   0  0  1  0  0  3  0  0  0  0  0  0
  182.7850  177.4010  140.2120 C   0  0  0  0  0  3  0  0  0  0  0  0
  184.6210  178.5480  141.2990 C   0  0  0  0  0  0  0  0  0  0  0  0
  183.1710  177.9290  138.9710 C   0  0  0  0  0  0  0  0  0  0  0  0
  185.0180  179.0710  140.0610 C   0  0  0  0  0  3  0  0  0  0  0  0
  184.2950  178.7650  138.9050 C   0  0  0  0  0  3  0  0  0  0  0  0
  183.5070  177.7080  141.3680 C   0  0  0  0  0  3  0  0  0  0  0  0
  182.4120  177.6060  137.7490 C   0  0  0  0  0  0  0  0  0  0  0  0
  181.3050  178.1700  137.5240 O   0  0  0  0  0  0  0  0  0  0  0  0
  182.9390  176.6000  136.7650 C   0  0  2  0  0  3  0  0  0  0  0  0
  181.8350  176.0790  135.9720 N   0  0  0  0  0  1  0  0  0  0  0  0
  183.6830  175.4530  137.4640 C   0  0  2  0  0  3  0  0  0  0  0  0
  185.1900  175.4710  137.1590 C   0  0  0  0  0  2  0  0  0  0  0  0
  183.0220  174.0990  137.1420 C   0  0  0  0  0  2  0  0  0  0  0  0
  185.5160  174.8450  135.8010 C   0  0  2  0  0  3  0  0  0  0  0  0
  184.0300  173.0090  136.7790 C   0  0  0  0  0  2  0  0  0  0  0  0
  184.8870  173.4590  135.5950 C   0  0  2  0  0  3  0  0  0  0  0  0
  186.3330  173.5900  136.0270 C   0  0  1  0  0  3  0  0  0  0  0  0
  187.2380  173.3550  134.8330 C   0  0  0  0  0  2  0  0  0  0  0  0
  188.5050  172.9700  135.2760 O   0  0  0  0  0  0  0  0  0  0  0  0
  189.5690  173.1190  137.2820 O   0  0  0  0  0  1  0  0  0  0  0  0
  188.3620  172.8110  136.6540 C   0  0  0  0  0  2  0  0  0  0  0  0
  187.9330  175.9060  143.4020 N   0  0  0  0  0  1  0  0  0  0  0  0
  187.9730  176.9050  144.4580 C   0  0  1  0  0  3  0  0  0  0  0  0
  189.4010  177.2050  144.7850 C   0  0  0  0  0  0  0  0  0  0  0  0
  189.8390  177.1960  146.1020 O   0  0  0  0  0  1  0  0  0  0  0  0
  190.2010  177.5100  143.8630 O   0  0  0  0  0  0  0  0  0  0  0  0
  187.6380  178.6210  141.7300 O   0  0  0  0  0  0  0  0  0  0  0  0
  187.9310  177.6380  140.9030 O   0  0  0  0  0  0  0  0  0  0  0  0
  190.1790  177.1190  140.2960 C   0  0  1  0  0  3  0  0  0  0  0  0
  188.6220  178.1500  138.6670 C   0  0  2  0  0  3  0  0  0  0  0  0
  189.0140  178.1080  140.1570 C   0  0  1  0  0  3  0  0  0  0  0  0
  190.1980  176.4450  138.9820 C   0  0  0  0  0  0  0  0  0  0  0  0
  190.9480  175.4750  138.6970 O   0  0  0  0  0  0  0  0  0  0  0  0
  189.0580  176.5400  136.7120 C   0  0  0  0  0  1  0  0  0  0  0  0
  189.2880  177.0130  138.0670 N   0  0  0  0  0  0  0  0  0  0  0  0
  191.3680  177.8260  140.4680 O   0  0  0  0  0  1  0  0  0  0  0  0
  189.1150  179.3250  138.0960 O   0  0  0  0  0  0  0  0  0  0  0  0
  188.2230  179.6620  137.1910 O   0  0  0  0  0  1  0  0  0  0  0  0
  1 34  1  6  0  0  0
  1  7  1  0  0  0  0
  2  3  2  1  0  0  0
  2  5  1  0  0  0  0
  4  9  1  6  0  0  0
  4  1  1  0  0  0  0
  4  6  1  0  0  0  0
  6  2  1  0  0  0  0
  7 30  1  1  0  0  0
  7  2  1  0  0  0  0
  8 13  1  0  0  0  0
  9 13  2  0  0  0  0
 10  8  2  0  0  0  0
 11  9  1  0  0  0  0
 12 10  1  0  0  0  0
 12 11  2  0  0  0  0
 14 10  1  0  0  0  0
 15 14  2  0  0  0  0
 16 17  1  1  0  0  0
 16 14  1  0  0  0  0
 18 16  1  6  0  0  0
 19 18  1  0  0  0  0
 20 18  1  0  0  0  0
 21 24  1  0  0  0  0
 21 19  1  1  0  0  0
 22 20  1  0  0  0  0
 23 21  1  0  0  0  0
 23 24  1  0  0  0  0
 23 22  1  1  0  0  0
 24 25  1  6  0  0  0
 25 26  1  0  0  0  0
 26 28  1  0  0  0  0
 28 27  1  0  0  0  0
 30 29  1  6  0  0  0
 30 31  1  0  0  0  0
 31 32  1  0  0  0  0
 33 31  2  0  0  0  0
 35 34  1  0  0  0  0
 36 43  1  6  0  0  0
 37 44  1  6  0  0  0
 37 38  1  0  0  0  0
 38 36  1  0  0  0  0
 38 35  1  1  0  0  0
 39 36  1  0  0  0  0
 40 39  2  0  0  0  0
 41 42  1  0  0  0  0
 42 37  1  0  0  0  0
 42 39  1  0  0  0  0
 45 44  1  0  0  0  0
M  END
>  <MODEL>
4

>  <REMARK>
 VINA RESULT:      -6.9      2.948      7.729
  Name = 
  13 active torsions:
  status: ('A' for Active; 'I' for Inactive)
    1  A    between atoms: C_1  and  O_7
    2  A    between atoms: C_4  and  C_17
    3  A    between atoms: C_4  and  C_24
    4  A    between atoms: O_5  and  C_10
    5  A    between atoms: O_6  and  O_7
    6  A    between atoms: O_6  and  C_19
    7  A    between atoms: C_12  and  C_23
    8  A    between atoms: C_14  and  C_17
    9  A    between atoms: C_18  and  O_31
   10  A    between atoms: C_21  and  CA_43
   11  A    between atoms: C_25  and  O_31
   12  A    between atoms: C_25  and  C_45
   13  A    between atoms: C_38  and  CA_43
                            x       y       z     vdW  Elec       q    Type
                         _______ _______ _______ _____ _____    ______ ____

>  <TORSDO>
F 13

$$$$
=
 OpenBabel11062417273D

 45 49  0  0  1  0  0  0  0  0999 V2000
  187.2840  178.0790  140.7660 C   0  0  2  0  0  3  0  0  0  0  0  0
  185.0070  178.7880  139.8310 P   0  0  2  0  0  0  0  0  0  0  0  0
  183.8420  177.8350  139.9870 O   0  0  0  0  0  1  0  0  0  0  0  0
  187.3440  178.3050  139.2460 C   0  0  2  0  0  3  0  0  0  0  0  0
  184.4610  180.3420  139.4470 O   0  0  0  0  0  0  0  0  0  0  0  0
  186.0710  178.2140  138.6490 O   0  0  0  0  0  0  0  0  0  0  0  0
  186.0660  178.8130  141.2810 C   0  0  1  0  0  3  0  0  0  0  0  0
  190.5600  176.8150  137.9230 C   0  0  0  0  0  3  0  0  0  0  0  0
  188.2940  177.3640  138.5810 C   0  0  0  0  0  0  0  0  0  0  0  0
  190.1130  175.6330  137.3150 C   0  0  0  0  0  0  0  0  0  0  0  0
  187.8390  176.1890  137.9660 C   0  0  0  0  0  3  0  0  0  0  0  0
  188.7440  175.3280  137.3410 C   0  0  0  0  0  3  0  0  0  0  0  0
  189.6560  177.6760  138.5500 C   0  0  0  0  0  3  0  0  0  0  0  0
  191.0650  174.7230  136.6510 C   0  0  0  0  0  0  0  0  0  0  0  0
  190.6440  173.6920  136.0550 O   0  0  0  0  0  0  0  0  0  0  0  0
  192.5410  175.0070  136.6810 C   0  0  2  0  0  3  0  0  0  0  0  0
  192.9590  175.5120  135.3820 N   0  0  0  0  0  1  0  0  0  0  0  0
  193.3540  173.7610  137.0570 C   0  0  2  0  0  3  0  0  0  0  0  0
  194.4910  174.0870  138.0410 C   0  0  0  0  0  2  0  0  0  0  0  0
  193.8450  173.0290  135.7940 C   0  0  0  0  0  2  0  0  0  0  0  0
  195.7190  174.6680  137.3350 C   0  0  2  0  0  3  0  0  0  0  0  0
  195.3130  172.6100  135.8740 C   0  0  0  0  0  2  0  0  0  0  0  0
  196.1950  173.8320  136.1380 C   0  0  2  0  0  3  0  0  0  0  0  0
  196.8710  173.6960  137.4860 C   0  0  1  0  0  3  0  0  0  0  0  0
  198.1810  174.4600  137.4700 C   0  0  0  0  0  2  0  0  0  0  0  0
  198.0520  175.6230  138.2320 O   0  0  0  0  0  0  0  0  0  0  0  0
  197.3910  175.5630  140.4080 O   0  0  0  0  0  1  0  0  0  0  0  0
  198.4190  175.2420  139.5220 C   0  0  0  0  0  2  0  0  0  0  0  0
  186.4550  177.6100  143.3870 N   0  0  0  0  0  1  0  0  0  0  0  0
  185.4300  178.0940  142.4760 C   0  0  1  0  0  3  0  0  0  0  0  0
  184.5030  178.9960  143.2280 C   0  0  0  0  0  0  0  0  0  0  0  0
  183.1750  178.6390  143.4200 O   0  0  0  0  0  0  0  0  0  0  0  0
  184.9200  180.1040  143.6530 O   0  0  0  0  0  1  0  0  0  0  0  0
  188.4380  178.5780  141.3740 O   0  0  0  0  0  0  0  0  0  0  0  0
  188.9510  177.5430  142.0070 O   0  0  0  0  0  0  0  0  0  0  0  0
  190.1320  178.4940  143.8500 C   0  0  1  0  0  3  0  0  0  0  0  0
  191.1750  176.7550  142.4250 C   0  0  2  0  0  3  0  0  0  0  0  0
  190.2190  177.9650  142.4120 C   0  0  1  0  0  3  0  0  0  0  0  0
  190.7750  177.4230  144.6360 C   0  0  0  0  0  0  0  0  0  0  0  0
  190.8300  177.4040  145.8930 O   0  0  0  0  0  0  0  0  0  0  0  0
  192.0070  175.2220  144.3120 C   0  0  0  0  0  1  0  0  0  0  0  0
  191.3410  176.4180  143.8230 N   0  0  0  0  0  0  0  0  0  0  0  0
  190.8850  179.6620  143.9590 O   0  0  0  0  0  1  0  0  0  0  0  0
  192.4080  177.1380  141.8950 O   0  0  0  0  0  0  0  0  0  0  0  0
  192.1150  177.8000  140.7970 O   0  0  0  0  0  1  0  0  0  0  0  0
  1  7  1  0  0  0  0
  1 34  1  1  0  0  0
  2  5  2  6  0  0  0
  2  3  1  0  0  0  0
  2  7  1  0  0  0  0
  4  9  1  6  0  0  0
  4  1  1  0  0  0  0
  6  4  1  0  0  0  0
  6  2  1  0  0  0  0
  7 30  1  1  0  0  0
  8 13  1  0  0  0  0
 10 12  1  0  0  0  0
 10  8  2  0  0  0  0
 11  9  1  0  0  0  0
 12 11  2  0  0  0  0
 13  9  2  0  0  0  0
 14 16  1  0  0  0  0
 14 10  1  0  0  0  0
 15 14  2  0  0  0  0
 16 17  1  6  0  0  0
 18 16  1  6  0  0  0
 18 19  1  0  0  0  0
 20 22  1  0  0  0  0
 20 18  1  0  0  0  0
 21 24  1  0  0  0  0
 21 19  1  1  0  0  0
 23 22  1  1  0  0  0
 23 21  1  0  0  0  0
 23 24  1  0  0  0  0
 24 25  1  6  0  0  0
 25 26  1  0  0  0  0
 26 28  1  0  0  0  0
 28 27  1  0  0  0  0
 30 31  1  0  0  0  0
 30 29  1  1  0  0  0
 31 32  2  0  0  0  0
 31 33  1  0  0  0  0
 34 35  1  0  0  0  0
 36 43  1  6  0  0  0
 36 39  1  0  0  0  0
 37 44  1  1  0  0  0
 37 42  1  0  0  0  0
 38 35  1  1  0  0  0
 38 37  1  0  0  0  0
 38 36  1  0  0  0  0
 39 40  2  0  0  0  0
 42 41  1  0  0  0  0
 42 39  1  0  0  0  0
 45 44  1  0  0  0  0
M  END
>  <MODEL>
5

>  <REMARK>
 VINA RESULT:      -6.8      4.039      8.051
  Name = 
  13 active torsions:
  status: ('A' for Active; 'I' for Inactive)
    1  A    between atoms: C_1  and  O_7
    2  A    between atoms: C_4  and  C_17
    3  A    between atoms: C_4  and  C_24
    4  A    between atoms: O_5  and  C_10
    5  A    between atoms: O_6  and  O_7
    6  A    between atoms: O_6  and  C_19
    7  A    between atoms: C_12  and  C_23
    8  A    between atoms: C_14  and  C_17
    9  A    between atoms: C_18  and  O_31
   10  A    between atoms: C_21  and  CA_43
   11  A    between atoms: C_25  and  O_31
   12  A    between atoms: C_25  and  C_45
   13  A    between atoms: C_38  and  CA_43
                            x       y       z     vdW  Elec       q    Type
                         _______ _______ _______ _____ _____    ______ ____

>  <TORSDO>
F 13

$$$$
=
 OpenBabel11062417273D

 45 49  0  0  1  0  0  0  0  0999 V2000
  188.0250  177.7950  143.5790 C   0  0  2  0  0  3  0  0  0  0  0  0
  188.3920  177.6980  146.1120 P   0  0  2  0  0  0  0  0  0  0  0  0
  188.2830  176.3550  146.7990 O   0  0  0  0  0  0  0  0  0  0  0  0
  186.9940  178.6520  144.3310 C   0  0  2  0  0  3  0  0  0  0  0  0
  189.1750  178.8180  147.1090 O   0  0  0  0  0  1  0  0  0  0  0  0
  186.8550  178.2520  145.6750 O   0  0  0  0  0  0  0  0  0  0  0  0
  189.1970  177.5820  144.5110 C   0  0  1  0  0  3  0  0  0  0  0  0
  183.2670  178.9860  143.7650 C   0  0  0  0  0  3  0  0  0  0  0  0
  185.6630  178.6460  143.6510 C   0  0  0  0  0  0  0  0  0  0  0  0
  183.1370  178.6210  142.4170 C   0  0  0  0  0  0  0  0  0  0  0  0
  185.5380  178.2700  142.3070 C   0  0  0  0  0  3  0  0  0  0  0  0
  184.2830  178.2610  141.6940 C   0  0  0  0  0  3  0  0  0  0  0  0
  184.5230  178.9970  144.3790 C   0  0  0  0  0  3  0  0  0  0  0  0
  181.8120  178.6070  141.7680 C   0  0  0  0  0  0  0  0  0  0  0  0
  180.7650  178.7010  142.4670 O   0  0  0  0  0  0  0  0  0  0  0  0
  181.6940  178.4750  140.2760 C   0  0  2  0  0  3  0  0  0  0  0  0
  180.8720  179.5610  139.7620 N   0  0  0  0  0  1  0  0  0  0  0  0
  181.1030  177.1180  139.8690 C   0  0  2  0  0  3  0  0  0  0  0  0
  182.1860  176.0350  139.7260 C   0  0  0  0  0  2  0  0  0  0  0  0
  180.2270  177.2610  138.6090 C   0  0  0  0  0  2  0  0  0  0  0  0
  182.9120  176.1150  138.3810 C   0  0  2  0  0  3  0  0  0  0  0  0
  180.4880  176.1730  137.5680 C   0  0  0  0  0  2  0  0  0  0  0  0
  181.9660  176.1690  137.1720 C   0  0  2  0  0  3  0  0  0  0  0  0
  182.6060  174.8610  137.5870 C   0  0  1  0  0  3  0  0  0  0  0  0
  183.7670  174.5530  136.6620 C   0  0  0  0  0  2  0  0  0  0  0  0
  184.9560  175.0060  137.2380 O   0  0  0  0  0  0  0  0  0  0  0  0
  185.6570  172.9960  138.0440 O   0  0  0  0  0  1  0  0  0  0  0  0
  185.8570  173.9580  137.0540 C   0  0  0  0  0  2  0  0  0  0  0  0
  189.2050  175.4990  143.2090 N   0  0  0  0  0  1  0  0  0  0  0  0
  189.8590  176.2170  144.2920 C   0  0  1  0  0  3  0  0  0  0  0  0
  191.3120  176.3580  143.9690 C   0  0  0  0  0  0  0  0  0  0  0  0
  191.8390  177.5940  143.6210 O   0  0  0  0  0  0  0  0  0  0  0  0
  192.0530  175.3410  143.9710 O   0  0  0  0  0  1  0  0  0  0  0  0
  188.4460  178.4530  142.4210 O   0  0  0  0  0  0  0  0  0  0  0  0
  188.4850  177.5110  141.5020 O   0  0  0  0  0  0  0  0  0  0  0  0
  190.5410  176.9830  140.4120 C   0  0  1  0  0  3  0  0  0  0  0  0
  188.6770  178.0500  139.1750 C   0  0  2  0  0  3  0  0  0  0  0  0
  189.3840  177.9830  140.5430 C   0  0  1  0  0  3  0  0  0  0  0  0
  190.2650  176.3280  139.1180 C   0  0  0  0  0  0  0  0  0  0  0  0
  190.9250  175.3570  138.6630 O   0  0  0  0  0  0  0  0  0  0  0  0
  188.6590  176.4650  137.1520 C   0  0  0  0  0  1  0  0  0  0  0  0
  189.1840  176.9170  138.4300 N   0  0  0  0  0  0  0  0  0  0  0  0
  191.7460  177.6780  140.3290 O   0  0  0  0  0  1  0  0  0  0  0  0
  189.0470  179.2290  138.5250 O   0  0  0  0  0  0  0  0  0  0  0  0
  188.1600  179.3790  137.5650 O   0  0  0  0  0  1  0  0  0  0  0  0
  1 34  1  6  0  0  0
  1  4  1  0  0  0  0
  1  7  1  0  0  0  0
  2  3  2  1  0  0  0
  2  5  1  0  0  0  0
  4  9  1  6  0  0  0
  4  6  1  0  0  0  0
  6  2  1  0  0  0  0
  7 30  1  6  0  0  0
  7  2  1  0  0  0  0
  8 13  1  0  0  0  0
  9 13  2  0  0  0  0
 10  8  2  0  0  0  0
 11  9  1  0  0  0  0
 12 11  2  0  0  0  0
 12 10  1  0  0  0  0
 14 10  1  0  0  0  0
 14 15  2  0  0  0  0
 16 17  1  1  0  0  0
 16 14  1  0  0  0  0
 18 16  1  6  0  0  0
 19 18  1  0  0  0  0
 20 18  1  0  0  0  0
 21 19  1  1  0  0  0
 22 20  1  0  0  0  0
 23 22  1  1  0  0  0
 23 24  1  0  0  0  0
 23 21  1  0  0  0  0
 24 25  1  6  0  0  0
 24 21  1  0  0  0  0
 25 26  1  0  0  0  0
 28 26  1  0  0  0  0
 28 27  1  0  0  0  0
 30 29  1  6  0  0  0
 31 33  1  0  0  0  0
 31 30  1  0  0  0  0
 32 31  2  0  0  0  0
 35 34  1  0  0  0  0
 36 43  1  6  0  0  0
 36 38  1  0  0  0  0
 37 44  1  6  0  0  0
 37 38  1  0  0  0  0
 38 35  1  1  0  0  0
 39 36  1  0  0  0  0
 40 39  2  0  0  0  0
 41 42  1  0  0  0  0
 42 39  1  0  0  0  0
 42 37  1  0  0  0  0
 45 44  1  0  0  0  0
M  END
>  <MODEL>
6

>  <REMARK>
 VINA RESULT:      -6.8      2.888      8.110
  Name = 
  13 active torsions:
  status: ('A' for Active; 'I' for Inactive)
    1  A    between atoms: C_1  and  O_7
    2  A    between atoms: C_4  and  C_17
    3  A    between atoms: C_4  and  C_24
    4  A    between atoms: O_5  and  C_10
    5  A    between atoms: O_6  and  O_7
    6  A    between atoms: O_6  and  C_19
    7  A    between atoms: C_12  and  C_23
    8  A    between atoms: C_14  and  C_17
    9  A    between atoms: C_18  and  O_31
   10  A    between atoms: C_21  and  CA_43
   11  A    between atoms: C_25  and  O_31
   12  A    between atoms: C_25  and  C_45
   13  A    between atoms: C_38  and  CA_43
                            x       y       z     vdW  Elec       q    Type
                         _______ _______ _______ _____ _____    ______ ____

>  <TORSDO>
F 13

$$$$
=
 OpenBabel11062417273D

 45 49  0  0  1  0  0  0  0  0999 V2000
  186.9840  177.9860  142.5450 C   0  0  2  0  0  3  0  0  0  0  0  0
  185.9980  178.2440  144.8950 P   0  0  2  0  0  0  0  0  0  0  0  0
  185.6350  176.9910  145.6600 O   0  0  0  0  0  0  0  0  0  0  0  0
  185.6620  178.7690  142.5190 C   0  0  2  0  0  3  0  0  0  0  0  0
  186.0840  179.5760  145.9350 O   0  0  0  0  0  1  0  0  0  0  0  0
  184.8760  178.5160  143.6600 O   0  0  0  0  0  0  0  0  0  0  0  0
  187.5190  178.0560  143.9580 C   0  0  1  0  0  3  0  0  0  0  0  0
  182.9860  177.4150  140.2120 C   0  0  0  0  0  3  0  0  0  0  0  0
  184.8750  178.4910  141.2790 C   0  0  0  0  0  0  0  0  0  0  0  0
  183.3820  177.9220  138.9660 C   0  0  0  0  0  0  0  0  0  0  0  0
  185.2820  178.9930  140.0350 C   0  0  0  0  0  3  0  0  0  0  0  0
  184.5370  178.7120  138.8870 C   0  0  0  0  0  3  0  0  0  0  0  0
  183.7290  177.6960  141.3610 C   0  0  0  0  0  3  0  0  0  0  0  0
  182.5990  177.6240  137.7510 C   0  0  0  0  0  0  0  0  0  0  0  0
  182.8030  176.5530  137.1150 O   0  0  0  0  0  0  0  0  0  0  0  0
  181.5610  178.5910  137.2550 C   0  0  2  0  0  3  0  0  0  0  0  0
  181.8890  179.9300  137.7240 N   0  0  0  0  0  1  0  0  0  0  0  0
  180.1500  178.1960  137.7090 C   0  0  2  0  0  3  0  0  0  0  0  0
  179.5750  179.1850  138.7370 C   0  0  0  0  0  2  0  0  0  0  0  0
  180.1240  176.7360  138.2020 C   0  0  0  0  0  2  0  0  0  0  0  0
  180.0970  178.9200  140.1510 C   0  0  2  0  0  3  0  0  0  0  0  0
  179.3590  176.5570  139.5130 C   0  0  0  0  0  2  0  0  0  0  0  0
  179.9560  177.4570  140.5970 C   0  0  2  0  0  3  0  0  0  0  0  0
  178.9370  178.4910  141.0260 C   0  0  1  0  0  3  0  0  0  0  0  0
  179.2080  178.8990  142.4610 C   0  0  0  0  0  2  0  0  0  0  0  0
  179.5900  177.7780  143.2010 O   0  0  0  0  0  0  0  0  0  0  0  0
  181.4610  178.9650  143.7160 O   0  0  0  0  0  1  0  0  0  0  0  0
  180.3610  178.2910  144.2430 C   0  0  0  0  0  2  0  0  0  0  0  0
  188.2930  175.8390  143.2360 N   0  0  0  0  0  1  0  0  0  0  0  0
  188.2820  176.7830  144.3430 C   0  0  1  0  0  3  0  0  0  0  0  0
  189.6940  177.0870  144.7300 C   0  0  0  0  0  0  0  0  0  0  0  0
  190.5740  177.6410  143.8100 O   0  0  0  0  0  0  0  0  0  0  0  0
  190.1000  176.8000  145.8870 O   0  0  0  0  0  1  0  0  0  0  0  0
  187.9000  178.5550  141.6570 O   0  0  0  0  0  0  0  0  0  0  0  0
  188.0840  177.6320  140.7360 O   0  0  0  0  0  0  0  0  0  0  0  0
  190.3470  177.1060  140.1910 C   0  0  1  0  0  3  0  0  0  0  0  0
  188.8140  178.0630  138.4950 C   0  0  2  0  0  3  0  0  0  0  0  0
  189.1780  178.0800  139.9930 C   0  0  1  0  0  3  0  0  0  0  0  0
  190.3950  176.3820  138.9050 C   0  0  0  0  0  0  0  0  0  0  0  0
  191.1560  175.4080  138.6710 O   0  0  0  0  0  0  0  0  0  0  0  0
  189.2970  176.3830  136.6120 C   0  0  0  0  0  1  0  0  0  0  0  0
  189.4990  176.9090  137.9520 N   0  0  0  0  0  0  0  0  0  0  0  0
  191.5270  177.8270  140.3580 O   0  0  0  0  0  1  0  0  0  0  0  0
  189.3100  179.2190  137.8890 O   0  0  0  0  0  0  0  0  0  0  0  0
  188.2960  179.7060  137.2080 O   0  0  0  0  0  1  0  0  0  0  0  0
  1 34  1  6  0  0  0
  1  7  1  0  0  0  0
  2  3  2  1  0  0  0
  2  5  1  0  0  0  0
  4  9  1  6  0  0  0
  4  1  1  0  0  0  0
  4  6  1  0  0  0  0
  6  2  1  0  0  0  0
  7 30  1  1  0  0  0
  7  2  1  0  0  0  0
  8 13  1  0  0  0  0
  9 13  2  0  0  0  0
 10  8  2  0  0  0  0
 11  9  1  0  0  0  0
 12 10  1  0  0  0  0
 12 11  2  0  0  0  0
 14 10  1  0  0  0  0
 15 14  2  0  0  0  0
 16 17  1  1  0  0  0
 16 14  1  0  0  0  0
 18 16  1  1  0  0  0
 18 20  1  0  0  0  0
 18 19  1  0  0  0  0
 20 22  1  0  0  0  0
 21 19  1  6  0  0  0
 21 23  1  0  0  0  0
 21 24  1  0  0  0  0
 23 22  1  6  0  0  0
 23 24  1  0  0  0  0
 24 25  1  1  0  0  0
 25 26  1  0  0  0  0
 26 28  1  0  0  0  0
 27 28  1  0  0  0  0
 30 29  1  6  0  0  0
 30 31  1  0  0  0  0
 31 33  1  0  0  0  0
 32 31  2  0  0  0  0
 35 34  1  0  0  0  0
 36 43  1  6  0  0  0
 37 44  1  6  0  0  0
 37 38  1  0  0  0  0
 38 36  1  0  0  0  0
 38 35  1  1  0  0  0
 39 36  1  0  0  0  0
 40 39  2  0  0  0  0
 41 42  1  0  0  0  0
 42 37  1  0  0  0  0
 42 39  1  0  0  0  0
 45 44  1  0  0  0  0
M  END
>  <MODEL>
7

>  <REMARK>
 VINA RESULT:      -6.4      2.756      8.586
  Name = 
  13 active torsions:
  status: ('A' for Active; 'I' for Inactive)
    1  A    between atoms: C_1  and  O_7
    2  A    between atoms: C_4  and  C_17
    3  A    between atoms: C_4  and  C_24
    4  A    between atoms: O_5  and  C_10
    5  A    between atoms: O_6  and  O_7
    6  A    between atoms: O_6  and  C_19
    7  A    between atoms: C_12  and  C_23
    8  A    between atoms: C_14  and  C_17
    9  A    between atoms: C_18  and  O_31
   10  A    between atoms: C_21  and  CA_43
   11  A    between atoms: C_25  and  O_31
   12  A    between atoms: C_25  and  C_45
   13  A    between atoms: C_38  and  CA_43
                            x       y       z     vdW  Elec       q    Type
                         _______ _______ _______ _____ _____    ______ ____

>  <TORSDO>
F 13

$$$$
=
 OpenBabel11062417273D

 45 49  0  0  1  0  0  0  0  0999 V2000
  186.6750  178.0910  142.6890 C   0  0  2  0  0  3  0  0  0  0  0  0
  185.8400  178.3220  145.1000 P   0  0  2  0  0  0  0  0  0  0  0  0
  185.4690  177.0630  145.8520 O   0  0  0  0  0  0  0  0  0  0  0  0
  185.3880  178.9290  142.7620 C   0  0  2  0  0  3  0  0  0  0  0  0
  186.0420  179.6180  146.1670 O   0  0  0  0  0  1  0  0  0  0  0  0
  184.6600  178.6750  143.9410 O   0  0  0  0  0  0  0  0  0  0  0  0
  187.2940  178.0990  144.0690 C   0  0  1  0  0  3  0  0  0  0  0  0
  184.2250  178.8320  139.1630 C   0  0  0  0  0  3  0  0  0  0  0  0
  184.5190  178.7190  141.5640 C   0  0  0  0  0  0  0  0  0  0  0  0
  182.9090  178.3630  139.2880 C   0  0  0  0  0  0  0  0  0  0  0  0
  183.2010  178.2610  141.6970 C   0  0  0  0  0  3  0  0  0  0  0  0
  182.4030  178.0810  140.5640 C   0  0  0  0  0  3  0  0  0  0  0  0
  185.0240  179.0100  140.2950 C   0  0  0  0  0  3  0  0  0  0  0  0
  182.0620  178.1760  138.0940 C   0  0  0  0  0  0  0  0  0  0  0  0
  181.2770  179.0940  137.7260 O   0  0  0  0  0  0  0  0  0  0  0  0
  182.1180  176.8960  137.3100 C   0  0  2  0  0  3  0  0  0  0  0  0
  181.0450  176.8880  136.3270 N   0  0  0  0  0  1  0  0  0  0  0  0
  182.0180  175.6640  138.2210 C   0  0  2  0  0  3  0  0  0  0  0  0
  182.8310  174.4760  137.6780 C   0  0  0  0  0  2  0  0  0  0  0  0
  180.5450  175.3080  138.4960 C   0  0  0  0  0  2  0  0  0  0  0  0
  182.0830  173.7160  136.5800 C   0  0  2  0  0  3  0  0  0  0  0  0
  180.2520  173.8140  138.3610 C   0  0  0  0  0  2  0  0  0  0  0  0
  180.6490  173.3240  136.9670 C   0  0  2  0  0  3  0  0  0  0  0  0
  181.7760  172.3190  137.0780 C   0  0  1  0  0  3  0  0  0  0  0  0
  181.7160  171.3650  135.9000 C   0  0  0  0  0  2  0  0  0  0  0  0
  182.7370  171.6710  134.9990 O   0  0  0  0  0  0  0  0  0  0  0  0
  184.1640  170.0450  135.7050 O   0  0  0  0  0  1  0  0  0  0  0  0
  183.3050  170.4380  134.6790 C   0  0  0  0  0  2  0  0  0  0  0  0
  187.9600  175.8880  143.2310 N   0  0  0  0  0  1  0  0  0  0  0  0
  188.0240  176.7850  144.3740 C   0  0  1  0  0  3  0  0  0  0  0  0
  189.4590  177.0240  144.7200 C   0  0  0  0  0  0  0  0  0  0  0  0
  189.8020  177.6410  145.9160 O   0  0  0  0  0  1  0  0  0  0  0  0
  190.3600  176.7020  143.9030 O   0  0  0  0  0  0  0  0  0  0  0  0
  187.5610  178.6490  141.7640 O   0  0  0  0  0  0  0  0  0  0  0  0
  187.9210  177.6370  141.0020 O   0  0  0  0  0  0  0  0  0  0  0  0
  190.1600  177.1230  140.3540 C   0  0  1  0  0  3  0  0  0  0  0  0
  188.5840  178.1930  138.7670 C   0  0  2  0  0  3  0  0  0  0  0  0
  188.9960  178.1190  140.2510 C   0  0  1  0  0  3  0  0  0  0  0  0
  190.1580  176.4760  139.0260 C   0  0  0  0  0  0  0  0  0  0  0  0
  190.9010  175.5110  138.7100 O   0  0  0  0  0  0  0  0  0  0  0  0
  188.9890  176.6230  136.7740 C   0  0  0  0  0  1  0  0  0  0  0  0
  189.2390  177.0670  138.1350 N   0  0  0  0  0  0  0  0  0  0  0  0
  191.3530  177.8230  140.5240 O   0  0  0  0  0  1  0  0  0  0  0  0
  189.0730  179.3780  138.2150 O   0  0  0  0  0  0  0  0  0  0  0  0
  188.2620  179.6470  137.2150 O   0  0  0  0  0  1  0  0  0  0  0  0
  1 34  1  6  0  0  0
  1  4  1  0  0  0  0
  1  7  1  0  0  0  0
  2  3  2  1  0  0  0
  2  5  1  0  0  0  0
  4  9  1  6  0  0  0
  4  6  1  0  0  0  0
  6  2  1  0  0  0  0
  7 30  1  1  0  0  0
  7  2  1  0  0  0  0
  8 10  2  0  0  0  0
  8 13  1  0  0  0  0
  9 11  1  0  0  0  0
 10 12  1  0  0  0  0
 12 11  2  0  0  0  0
 13  9  2  0  0  0  0
 14 10  1  0  0  0  0
 15 14  2  0  0  0  0
 16 17  1  6  0  0  0
 16 14  1  0  0  0  0
 18 16  1  6  0  0  0
 18 20  1  0  0  0  0
 19 18  1  0  0  0  0
 21 23  1  0  0  0  0
 21 24  1  0  0  0  0
 21 19  1  1  0  0  0
 22 20  1  0  0  0  0
 23 24  1  0  0  0  0
 23 22  1  1  0  0  0
 24 25  1  6  0  0  0
 26 25  1  0  0  0  0
 28 26  1  0  0  0  0
 28 27  1  0  0  0  0
 30 29  1  6  0  0  0
 30 31  1  0  0  0  0
 31 32  1  0  0  0  0
 33 31  2  0  0  0  0
 35 34  1  0  0  0  0
 36 43  1  6  0  0  0
 37 44  1  6  0  0  0
 37 38  1  0  0  0  0
 38 36  1  0  0  0  0
 38 35  1  1  0  0  0
 39 36  1  0  0  0  0
 40 39  2  0  0  0  0
 41 42  1  0  0  0  0
 42 37  1  0  0  0  0
 42 39  1  0  0  0  0
 45 44  1  0  0  0  0
M  END
>  <MODEL>
8

>  <REMARK>
 VINA RESULT:      -6.2      3.594      8.509
  Name = 
  13 active torsions:
  status: ('A' for Active; 'I' for Inactive)
    1  A    between atoms: C_1  and  O_7
    2  A    between atoms: C_4  and  C_17
    3  A    between atoms: C_4  and  C_24
    4  A    between atoms: O_5  and  C_10
    5  A    between atoms: O_6  and  O_7
    6  A    between atoms: O_6  and  C_19
    7  A    between atoms: C_12  and  C_23
    8  A    between atoms: C_14  and  C_17
    9  A    between atoms: C_18  and  O_31
   10  A    between atoms: C_21  and  CA_43
   11  A    between atoms: C_25  and  O_31
   12  A    between atoms: C_25  and  C_45
   13  A    between atoms: C_38  and  CA_43
                            x       y       z     vdW  Elec       q    Type
                         _______ _______ _______ _____ _____    ______ ____

>  <TORSDO>
F 13

$$$$
=
 OpenBabel11062417273D

 45 49  0  0  1  0  0  0  0  0999 V2000
  183.1990  179.4360  140.2560 C   0  0  2  0  0  3  0  0  0  0  0  0
  180.7990  178.5620  140.0590 P   0  0  2  0  0  0  0  0  0  0  0  0
  179.6650  179.5080  140.3850 O   0  0  0  0  0  1  0  0  0  0  0  0
  182.9490  178.2550  141.2090 C   0  0  2  0  0  3  0  0  0  0  0  0
  180.2310  177.2220  139.1970 O   0  0  0  0  0  0  0  0  0  0  0  0
  181.5780  178.0780  141.4800 O   0  0  0  0  0  0  0  0  0  0  0  0
  182.1370  179.3770  139.1810 C   0  0  1  0  0  3  0  0  0  0  0  0
  185.7710  178.0900  143.7240 C   0  0  0  0  0  3  0  0  0  0  0  0
  183.7120  178.3990  142.4860 C   0  0  0  0  0  0  0  0  0  0  0  0
  185.1760  178.6270  144.8750 C   0  0  0  0  0  0  0  0  0  0  0  0
  183.1090  178.9260  143.6350 C   0  0  0  0  0  3  0  0  0  0  0  0
  183.8380  179.0420  144.8210 C   0  0  0  0  0  3  0  0  0  0  0  0
  185.0430  177.9750  142.5370 C   0  0  0  0  0  3  0  0  0  0  0  0
  185.9430  178.7470  146.1300 C   0  0  0  0  0  0  0  0  0  0  0  0
  185.7150  179.7050  146.9200 O   0  0  0  0  0  0  0  0  0  0  0  0
  187.0040  177.7410  146.4760 C   0  0  2  0  0  3  0  0  0  0  0  0
  186.6970  177.1470  147.7690 N   0  0  0  0  0  1  0  0  0  0  0  0
  188.4030  178.3710  146.4960 C   0  0  2  0  0  3  0  0  0  0  0  0
  189.0780  178.3250  145.1150 C   0  0  0  0  0  2  0  0  0  0  0  0
  189.2670  177.7440  147.6070 C   0  0  0  0  0  2  0  0  0  0  0  0
  189.7040  176.9590  144.8200 C   0  0  2  0  0  3  0  0  0  0  0  0
  190.6800  177.3910  147.1430 C   0  0  0  0  0  2  0  0  0  0  0  0
  190.6180  176.4460  145.9420 C   0  0  2  0  0  3  0  0  0  0  0  0
  191.2070  177.1240  144.7230 C   0  0  1  0  0  3  0  0  0  0  0  0
  191.7700  176.0730  143.7860 C   0  0  0  0  0  2  0  0  0  0  0  0
  191.3860  174.8040  144.2230 O   0  0  0  0  0  0  0  0  0  0  0  0
  192.8250  173.1110  144.7190 O   0  0  0  0  0  1  0  0  0  0  0  0
  192.4160  174.3980  145.0700 C   0  0  0  0  0  2  0  0  0  0  0  0
  182.8900  181.6690  138.7180 N   0  0  0  0  0  1  0  0  0  0  0  0
  181.7430  180.7760  138.6930 C   0  0  1  0  0  3  0  0  0  0  0  0
  181.1920  180.7360  137.3030 C   0  0  0  0  0  0  0  0  0  0  0  0
  180.7290  181.8950  136.6960 O   0  0  0  0  0  0  0  0  0  0  0  0
  181.1090  179.6370  136.6960 O   0  0  0  0  0  1  0  0  0  0  0  0
  184.4690  179.3310  139.6830 O   0  0  0  0  0  0  0  0  0  0  0  0
  184.5270  178.0950  139.2340 O   0  0  0  0  0  0  0  0  0  0  0  0
  186.6420  178.0620  138.1290 C   0  0  1  0  0  3  0  0  0  0  0  0
  184.6430  177.0300  137.0900 C   0  0  2  0  0  3  0  0  0  0  0  0
  185.1210  178.1990  137.9740 C   0  0  1  0  0  3  0  0  0  0  0  0
  186.9080  176.7100  137.6000 C   0  0  0  0  0  0  0  0  0  0  0  0
  188.0330  176.1480  137.6320 O   0  0  0  0  0  0  0  0  0  0  0  0
  185.7070  174.7730  136.4730 C   0  0  0  0  0  1  0  0  0  0  0  0
  185.7610  176.1120  137.0380 N   0  0  0  0  0  0  0  0  0  0  0  0
  187.2760  179.0050  137.3220 O   0  0  0  0  0  1  0  0  0  0  0  0
  184.3780  177.5050  135.8050 O   0  0  0  0  0  0  0  0  0  0  0  0
  183.1790  177.0510  135.5150 O   0  0  0  0  0  1  0  0  0  0  0  0
  1 34  1  6  0  0  0
  1  4  1  0  0  0  0
  2  5  2  6  0  0  0
  2  3  1  0  0  0  0
  2  6  1  0  0  0  0
  4  6  1  0  0  0  0
  4  9  1  1  0  0  0
  7 30  1  1  0  0  0
  7  2  1  0  0  0  0
  7  1  1  0  0  0  0
  8 10  1  0  0  0  0
  9 13  1  0  0  0  0
  9 11  2  0  0  0  0
 10 14  1  0  0  0  0
 11 12  1  0  0  0  0
 12 10  2  0  0  0  0
 13  8  2  0  0  0  0
 14 16  1  0  0  0  0
 14 15  2  0  0  0  0
 16 17  1  1  0  0  0
 18 16  1  6  0  0  0
 18 20  1  0  0  0  0
 19 18  1  0  0  0  0
 21 19  1  1  0  0  0
 21 23  1  0  0  0  0
 22 20  1  0  0  0  0
 23 22  1  1  0  0  0
 24 25  1  6  0  0  0
 24 21  1  0  0  0  0
 24 23  1  0  0  0  0
 25 26  1  0  0  0  0
 26 28  1  0  0  0  0
 27 28  1  0  0  0  0
 30 29  1  6  0  0  0
 31 30  1  0  0  0  0
 32 31  2  0  0  0  0
 33 31  1  0  0  0  0
 35 34  1  0  0  0  0
 36 43  1  6  0  0  0
 37 44  1  6  0  0  0
 37 38  1  0  0  0  0
 38 36  1  0  0  0  0
 38 35  1  1  0  0  0
 39 40  2  0  0  0  0
 39 36  1  0  0  0  0
 41 42  1  0  0  0  0
 42 37  1  0  0  0  0
 42 39  1  0  0  0  0
 45 44  1  0  0  0  0
M  END
>  <MODEL>
9

>  <REMARK>
 VINA RESULT:      -6.1      1.698      2.501
  Name = 
  13 active torsions:
  status: ('A' for Active; 'I' for Inactive)
    1  A    between atoms: C_1  and  O_7
    2  A    between atoms: C_4  and  C_17
    3  A    between atoms: C_4  and  C_24
    4  A    between atoms: O_5  and  C_10
    5  A    between atoms: O_6  and  O_7
    6  A    between atoms: O_6  and  C_19
    7  A    between atoms: C_12  and  C_23
    8  A    between atoms: C_14  and  C_17
    9  A    between atoms: C_18  and  O_31
   10  A    between atoms: C_21  and  CA_43
   11  A    between atoms: C_25  and  O_31
   12  A    between atoms: C_25  and  C_45
   13  A    between atoms: C_38  and  CA_43
                            x       y       z     vdW  Elec       q    Type
                         _______ _______ _______ _____ _____    ______ ____

>  <TORSDO>
F 13

$$$$
