=
 OpenBabel11062413533D

 25 26  0  0  1  0  0  0  0  0999 V2000
  188.2180  178.3630  147.2880 O   0  0  0  0  0  0  0  0  0  0  0  0
  184.2780  178.7910  145.5630 C   0  0  0  0  0  2  0  0  0  0  0  0
  183.5110  178.3760  143.3960 C   0  0  1  0  0  3  0  0  0  0  0  0
  186.0720  178.6410  143.4100 C   0  0  0  0  0  3  0  0  0  0  0  0
  186.0930  179.3740  147.0310 C   0  0  0  0  0  2  0  0  0  0  0  0
  184.8600  178.8180  142.8220 C   0  0  0  0  0  3  0  0  0  0  0  0
  186.9570  178.4600  147.8760 C   0  0  0  0  0  2  0  0  0  0  0  0
  188.1670  177.2490  146.4420 C   0  0  1  0  0  3  0  0  0  0  0  0
  187.8200  177.7010  145.0010 C   0  0  2  0  0  3  0  0  0  0  0  0
  185.5150  178.6120  145.8870 C   0  0  2  0  0  3  0  0  0  0  0  0
  183.2450  178.8830  144.7920 C   0  0  0  0  0  2  0  0  0  0  0  0
  186.3160  177.9700  144.7650 C   0  0  1  0  0  3  0  0  0  0  0  0
  182.5000  178.5610  141.2680 O   0  0  0  0  0  0  0  0  0  0  0  0
  182.3880  178.7440  142.4710 C   0  0  0  0  0  0  0  0  0  0  0  0
  181.1160  179.3330  143.0060 C   0  0  1  0  0  3  0  0  0  0  0  0
  180.3030  179.9450  141.8810 C   0  0  0  0  0  1  0  0  0  0  0  0
  180.2800  178.2900  143.7340 C   0  0  0  0  0  2  0  0  0  0  0  0
  179.1060  178.9450  144.4380 C   0  0  0  0  0  1  0  0  0  0  0  0
  190.4190  177.2020  147.4300 N   0  0  0  0  0  1  0  0  0  0  0  0
  189.4970  176.4970  146.5540 C   0  0  0  0  0  2  0  0  0  0  0  0
  188.3800  176.7630  143.9120 C   0  0  0  0  0  2  0  0  0  0  0  0
  189.3270  177.8620  141.6060 O   0  0  0  0  0  0  0  0  0  0  0  0
  191.0200  176.3040  142.8350 O   0  0  0  0  0  1  0  0  0  0  0  0
  189.7960  177.4610  142.9850 P   0  0  0  0  0  0  0  0  0  0  0  0
  190.4110  178.8230  143.7770 O   0  0  0  0  0  1  0  0  0  0  0  0
  1  7  1  0  0  0  0
  3 14  1  6  0  0  0
  3 11  1  0  0  0  0
  5  7  1  0  0  0  0
  6  3  1  0  0  0  0
  6  4  2  0  0  0  0
  8 20  1  6  0  0  0
  8  1  1  0  0  0  0
  9 21  1  6  0  0  0
  9  8  1  0  0  0  0
 10  2  1  6  0  0  0
 10  5  1  0  0  0  0
 11  2  1  0  0  0  0
 12  4  1  6  0  0  0
 12  9  1  0  0  0  0
 12 10  1  0  0  0  0
 13 14  2  0  0  0  0
 14 15  1  0  0  0  0
 15 16  1  6  0  0  0
 15 17  1  0  0  0  0
 17 18  1  0  0  0  0
 20 19  1  0  0  0  0
 22 24  2  0  0  0  0
 23 24  1  0  0  0  0
 24 25  1  0  0  0  0
 24 21  1  0  0  0  0
M  END
>  <MODEL>
1

>  <REMARK>
 VINA RESULT:      -7.8      0.000      0.000
  Name = 
  6 active torsions:
  status: ('A' for Active; 'I' for Inactive)
    1  A    between atoms: C_4  and  C_7
    2  A    between atoms: C_4  and  C_16
    3  A    between atoms: C_7  and  C_8
    4  A    between atoms: C_9  and  C_17
    5  A    between atoms: C_9  and  P_23
    6  A    between atoms: C_15  and  C_22
                            x       y       z     vdW  Elec       q    Type
                         _______ _______ _______ _____ _____    ______ ____

>  <TORSDO>
F 6

$$$$
=
 OpenBabel11062413533D

 25 26  0  0  1  0  0  0  0  0999 V2000
  188.1730  178.2860  147.4610 O   0  0  0  0  0  0  0  0  0  0  0  0
  184.4100  178.6460  145.3650 C   0  0  0  0  0  2  0  0  0  0  0  0
  183.8690  178.2530  143.1280 C   0  0  1  0  0  3  0  0  0  0  0  0
  186.4080  178.5820  143.3970 C   0  0  0  0  0  3  0  0  0  0  0  0
  186.0560  179.2480  147.0130 C   0  0  0  0  0  2  0  0  0  0  0  0
  185.2550  178.7390  142.6960 C   0  0  0  0  0  3  0  0  0  0  0  0
  186.8580  178.3410  147.9240 C   0  0  0  0  0  2  0  0  0  0  0  0
  188.2350  177.1870  146.5960 C   0  0  1  0  0  3  0  0  0  0  0  0
  188.0180  177.6570  145.1350 C   0  0  2  0  0  3  0  0  0  0  0  0
  185.6130  178.4930  145.8060 C   0  0  2  0  0  3  0  0  0  0  0  0
  183.4550  178.7270  144.4990 C   0  0  0  0  0  2  0  0  0  0  0  0
  186.5370  177.8920  144.7570 C   0  0  1  0  0  3  0  0  0  0  0  0
  181.8650  179.2860  142.4190 O   0  0  0  0  0  0  0  0  0  0  0  0
  182.8320  178.6100  142.1030 C   0  0  0  0  0  0  0  0  0  0  0  0
  182.9690  178.1480  140.6810 C   0  0  1  0  0  3  0  0  0  0  0  0
  181.6910  177.4760  140.2190 C   0  0  0  0  0  1  0  0  0  0  0  0
  183.3080  179.3030  139.7490 C   0  0  0  0  0  2  0  0  0  0  0  0
  184.5730  179.0030  138.9680 C   0  0  0  0  0  1  0  0  0  0  0  0
  190.4290  177.2400  147.7050 N   0  0  0  0  0  1  0  0  0  0  0  0
  189.5670  176.4670  146.8250 C   0  0  0  0  0  2  0  0  0  0  0  0
  188.7060  176.7540  144.0910 C   0  0  0  0  0  2  0  0  0  0  0  0
  189.7780  177.8530  141.8410 O   0  0  0  0  0  0  0  0  0  0  0  0
  191.4600  176.4660  143.2740 O   0  0  0  0  0  1  0  0  0  0  0  0
  190.1460  177.5310  143.2710 P   0  0  0  0  0  0  0  0  0  0  0  0
  190.5840  178.9580  144.0640 O   0  0  0  0  0  1  0  0  0  0  0  0
  1  7  1  0  0  0  0
  3 14  1  6  0  0  0
  3 11  1  0  0  0  0
  5  7  1  0  0  0  0
  6  3  1  0  0  0  0
  6  4  2  0  0  0  0
  8 20  1  6  0  0  0
  8  1  1  0  0  0  0
  9 21  1  6  0  0  0
  9  8  1  0  0  0  0
 10  2  1  6  0  0  0
 10  5  1  0  0  0  0
 11  2  1  0  0  0  0
 12  4  1  6  0  0  0
 12  9  1  0  0  0  0
 12 10  1  0  0  0  0
 14 13  2  0  0  0  0
 15 16  1  6  0  0  0
 15 14  1  0  0  0  0
 17 15  1  0  0  0  0
 18 17  1  0  0  0  0
 20 19  1  0  0  0  0
 22 24  2  0  0  0  0
 24 23  1  0  0  0  0
 24 25  1  0  0  0  0
 24 21  1  0  0  0  0
M  END
>  <MODEL>
2

>  <REMARK>
 VINA RESULT:      -7.7      1.351      2.115
  Name = 
  6 active torsions:
  status: ('A' for Active; 'I' for Inactive)
    1  A    between atoms: C_4  and  C_7
    2  A    between atoms: C_4  and  C_16
    3  A    between atoms: C_7  and  C_8
    4  A    between atoms: C_9  and  C_17
    5  A    between atoms: C_9  and  P_23
    6  A    between atoms: C_15  and  C_22
                            x       y       z     vdW  Elec       q    Type
                         _______ _______ _______ _____ _____    ______ ____

>  <TORSDO>
F 6

$$$$
=
 OpenBabel11062413533D

 25 26  0  0  1  0  0  0  0  0999 V2000
  187.5840  178.4130  147.1770 O   0  0  0  0  0  0  0  0  0  0  0  0
  184.3610  178.6600  144.3080 C   0  0  0  0  0  2  0  0  0  0  0  0
  184.3070  178.1440  142.0310 C   0  0  1  0  0  3  0  0  0  0  0  0
  186.7330  178.4860  142.8190 C   0  0  0  0  0  3  0  0  0  0  0  0
  185.6250  179.3500  146.2360 C   0  0  0  0  0  2  0  0  0  0  0  0
  185.7590  178.6050  141.8810 C   0  0  0  0  0  3  0  0  0  0  0  0
  186.2020  178.4940  147.3450 C   0  0  0  0  0  2  0  0  0  0  0  0
  187.8160  177.2680  146.4060 C   0  0  1  0  0  3  0  0  0  0  0  0
  187.9220  177.6560  144.9100 C   0  0  2  0  0  3  0  0  0  0  0  0
  185.4410  178.5300  145.0040 C   0  0  2  0  0  3  0  0  0  0  0  0
  183.6150  178.6930  143.2540 C   0  0  0  0  0  2  0  0  0  0  0  0
  186.5600  177.8720  144.2110 C   0  0  1  0  0  3  0  0  0  0  0  0
  184.0380  179.0470  139.8630 O   0  0  0  0  0  0  0  0  0  0  0  0
  183.5170  178.4450  140.7900 C   0  0  0  0  0  0  0  0  0  0  0  0
  182.0870  178.0060  140.6670 C   0  0  1  0  0  3  0  0  0  0  0  0
  181.1640  179.2090  140.6840 C   0  0  0  0  0  1  0  0  0  0  0  0
  181.8570  177.2000  139.3960 C   0  0  0  0  0  2  0  0  0  0  0  0
  182.6140  175.8870  139.4530 C   0  0  0  0  0  1  0  0  0  0  0  0
  189.8800  177.4800  147.7260 N   0  0  0  0  0  1  0  0  0  0  0  0
  189.0590  176.5610  146.9540 C   0  0  0  0  0  2  0  0  0  0  0  0
  188.8070  176.6970  144.0870 C   0  0  0  0  0  2  0  0  0  0  0  0
  191.5230  176.5370  144.2040 O   0  0  0  0  0  1  0  0  0  0  0  0
  190.5820  178.9700  144.2290 O   0  0  0  0  0  1  0  0  0  0  0  0
  190.4300  177.4000  143.6180 P   0  0  0  0  0  0  0  0  0  0  0  0
  190.5980  177.4380  141.9360 O   0  0  0  0  0  0  0  0  0  0  0  0
  1  7  1  0  0  0  0
  3 14  1  6  0  0  0
  3 11  1  0  0  0  0
  5  7  1  0  0  0  0
  6  3  1  0  0  0  0
  6  4  2  0  0  0  0
  8 20  1  1  0  0  0
  8  1  1  0  0  0  0
  9 21  1  6  0  0  0
  9  8  1  0  0  0  0
 10  2  1  6  0  0  0
 10  5  1  0  0  0  0
 11  2  1  0  0  0  0
 12  4  1  6  0  0  0
 12  9  1  0  0  0  0
 12 10  1  0  0  0  0
 13 14  2  0  0  0  0
 15 16  1  6  0  0  0
 15 14  1  0  0  0  0
 17 18  1  0  0  0  0
 17 15  1  0  0  0  0
 20 19  1  0  0  0  0
 24 21  1  0  0  0  0
 24 22  1  0  0  0  0
 24 23  1  0  0  0  0
 25 24  2  0  0  0  0
M  END
>  <MODEL>
3

>  <REMARK>
 VINA RESULT:      -7.7      1.547      2.290
  Name = 
  6 active torsions:
  status: ('A' for Active; 'I' for Inactive)
    1  A    between atoms: C_4  and  C_7
    2  A    between atoms: C_4  and  C_16
    3  A    between atoms: C_7  and  C_8
    4  A    between atoms: C_9  and  C_17
    5  A    between atoms: C_9  and  P_23
    6  A    between atoms: C_15  and  C_22
                            x       y       z     vdW  Elec       q    Type
                         _______ _______ _______ _____ _____    ______ ____

>  <TORSDO>
F 6

$$$$
=
 OpenBabel11062413533D

 25 26  0  0  1  0  0  0  0  0999 V2000
  191.9710  177.4370  140.2000 O   0  0  0  0  0  0  0  0  0  0  0  0
  189.0510  177.5610  143.3850 C   0  0  0  0  0  2  0  0  0  0  0  0
  186.7240  177.7400  143.3110 C   0  0  1  0  0  3  0  0  0  0  0  0
  187.7590  178.5280  141.0900 C   0  0  0  0  0  3  0  0  0  0  0  0
  191.1860  177.9950  142.3620 C   0  0  0  0  0  2  0  0  0  0  0  0
  186.8210  178.6270  142.0670 C   0  0  0  0  0  3  0  0  0  0  0  0
  192.0490  177.0590  141.5400 C   0  0  0  0  0  2  0  0  0  0  0  0
  190.9280  176.6870  139.6440 C   0  0  1  0  0  3  0  0  0  0  0  0
  189.6150  177.5090  139.6790 C   0  0  2  0  0  3  0  0  0  0  0  0
  189.7620  177.5540  142.3070 C   0  0  2  0  0  3  0  0  0  0  0  0
  187.9960  177.6810  144.1200 C   0  0  0  0  0  2  0  0  0  0  0  0
  188.9040  177.5120  141.0520 C   0  0  1  0  0  3  0  0  0  0  0  0
  185.5490  177.8610  145.3580 O   0  0  0  0  0  0  0  0  0  0  0  0
  185.5620  178.1460  144.1700 C   0  0  0  0  0  0  0  0  0  0  0  0
  184.4080  178.9090  143.5880 C   0  0  1  0  0  3  0  0  0  0  0  0
  183.8680  178.1950  142.3640 C   0  0  0  0  0  1  0  0  0  0  0  0
  183.2920  179.0980  144.6060 C   0  0  0  0  0  2  0  0  0  0  0  0
  181.9410  178.8300  143.9700 C   0  0  0  0  0  1  0  0  0  0  0  0
  191.3110  174.7970  138.1190 N   0  0  0  0  0  1  0  0  0  0  0  0
  191.3470  176.2450  138.2390 C   0  0  0  0  0  2  0  0  0  0  0  0
  188.6250  177.1330  138.5580 C   0  0  0  0  0  2  0  0  0  0  0  0
  189.0810  179.7030  137.7800 O   0  0  0  0  0  1  0  0  0  0  0  0
  186.7230  178.7850  137.1470 O   0  0  0  0  0  1  0  0  0  0  0  0
  188.3720  178.4530  137.3150 P   0  0  0  0  0  0  0  0  0  0  0  0
  189.0020  177.9860  135.8160 O   0  0  0  0  0  0  0  0  0  0  0  0
  1  7  1  0  0  0  0
  2 11  1  0  0  0  0
  3 11  1  0  0  0  0
  3 14  1  1  0  0  0
  4  6  2  0  0  0  0
  6  3  1  0  0  0  0
  7  5  1  0  0  0  0
  8 20  1  6  0  0  0
  8  9  1  0  0  0  0
  8  1  1  0  0  0  0
  9 21  1  6  0  0  0
  9 12  1  0  0  0  0
 10  5  1  6  0  0  0
 10  2  1  0  0  0  0
 12  4  1  6  0  0  0
 12 10  1  0  0  0  0
 14 13  2  0  0  0  0
 15 16  1  6  0  0  0
 15 14  1  0  0  0  0
 15 17  1  0  0  0  0
 18 17  1  0  0  0  0
 19 20  1  0  0  0  0
 23 24  1  0  0  0  0
 24 22  1  0  0  0  0
 24 21  1  0  0  0  0
 25 24  2  0  0  0  0
M  END
>  <MODEL>
4

>  <REMARK>
 VINA RESULT:      -7.5      4.034      5.849
  Name = 
  6 active torsions:
  status: ('A' for Active; 'I' for Inactive)
    1  A    between atoms: C_4  and  C_7
    2  A    between atoms: C_4  and  C_16
    3  A    between atoms: C_7  and  C_8
    4  A    between atoms: C_9  and  C_17
    5  A    between atoms: C_9  and  P_23
    6  A    between atoms: C_15  and  C_22
                            x       y       z     vdW  Elec       q    Type
                         _______ _______ _______ _____ _____    ______ ____

>  <TORSDO>
F 6

$$$$
=
 OpenBabel11062413533D

 25 26  0  0  1  0  0  0  0  0999 V2000
  191.9770  177.4890  140.0130 O   0  0  0  0  0  0  0  0  0  0  0  0
  189.1330  177.6170  143.2650 C   0  0  0  0  0  2  0  0  0  0  0  0
  186.8020  177.7690  143.2450 C   0  0  1  0  0  3  0  0  0  0  0  0
  187.7750  178.5420  140.9910 C   0  0  0  0  0  3  0  0  0  0  0  0
  191.2370  178.0630  142.1870 C   0  0  0  0  0  2  0  0  0  0  0  0
  186.8590  178.6420  141.9880 C   0  0  0  0  0  3  0  0  0  0  0  0
  192.0910  177.1280  141.3560 C   0  0  0  0  0  2  0  0  0  0  0  0
  190.9300  176.7200  139.4910 C   0  0  1  0  0  3  0  0  0  0  0  0
  189.6080  177.5270  139.5480 C   0  0  2  0  0  3  0  0  0  0  0  0
  189.8180  177.6050  142.1710 C   0  0  2  0  0  3  0  0  0  0  0  0
  188.0940  177.7340  144.0240 C   0  0  0  0  0  2  0  0  0  0  0  0
  188.9300  177.5390  140.9370 C   0  0  1  0  0  3  0  0  0  0  0  0
  184.5240  178.2310  143.6710 O   0  0  0  0  0  0  0  0  0  0  0  0
  185.6560  178.1720  144.1270 C   0  0  0  0  0  0  0  0  0  0  0  0
  185.8810  178.5000  145.5740 C   0  0  1  0  0  3  0  0  0  0  0  0
  184.5550  178.6280  146.2980 C   0  0  0  0  0  1  0  0  0  0  0  0
  186.7410  177.4470  146.2590 C   0  0  0  0  0  2  0  0  0  0  0  0
  187.3550  178.0050  147.5290 C   0  0  0  0  0  1  0  0  0  0  0  0
  191.3040  174.8160  137.9810 N   0  0  0  0  0  1  0  0  0  0  0  0
  191.3200  176.2660  138.0820 C   0  0  0  0  0  2  0  0  0  0  0  0
  188.5960  177.1260  138.4550 C   0  0  0  0  0  2  0  0  0  0  0  0
  189.0550  179.6740  137.6090 O   0  0  0  0  0  1  0  0  0  0  0  0
  186.6100  178.8400  137.2490 O   0  0  0  0  0  1  0  0  0  0  0  0
  188.2550  178.4480  137.2360 P   0  0  0  0  0  0  0  0  0  0  0  0
  188.6970  177.9520  135.6810 O   0  0  0  0  0  0  0  0  0  0  0  0
  1  7  1  0  0  0  0
  2 11  1  0  0  0  0
  3 11  1  0  0  0  0
  3 14  1  1  0  0  0
  4  6  2  0  0  0  0
  6  3  1  0  0  0  0
  7  5  1  0  0  0  0
  8 20  1  6  0  0  0
  8  9  1  0  0  0  0
  8  1  1  0  0  0  0
  9 21  1  6  0  0  0
  9 12  1  0  0  0  0
 10  5  1  6  0  0  0
 10  2  1  0  0  0  0
 12  4  1  6  0  0  0
 12 10  1  0  0  0  0
 13 14  2  0  0  0  0
 14 15  1  0  0  0  0
 15 17  1  0  0  0  0
 15 16  1  1  0  0  0
 17 18  1  0  0  0  0
 19 20  1  0  0  0  0
 24 23  1  0  0  0  0
 24 22  1  0  0  0  0
 24 21  1  0  0  0  0
 25 24  2  0  0  0  0
M  END
>  <MODEL>
5

>  <REMARK>
 VINA RESULT:      -7.3      4.112      6.381
  Name = 
  6 active torsions:
  status: ('A' for Active; 'I' for Inactive)
    1  A    between atoms: C_4  and  C_7
    2  A    between atoms: C_4  and  C_16
    3  A    between atoms: C_7  and  C_8
    4  A    between atoms: C_9  and  C_17
    5  A    between atoms: C_9  and  P_23
    6  A    between atoms: C_15  and  C_22
                            x       y       z     vdW  Elec       q    Type
                         _______ _______ _______ _____ _____    ______ ____

>  <TORSDO>
F 6

$$$$
=
 OpenBabel11062413533D

 25 26  0  0  1  0  0  0  0  0999 V2000
  192.0650  176.9400  137.7160 O   0  0  0  0  0  0  0  0  0  0  0  0
  191.5240  177.1260  142.0010 C   0  0  0  0  0  2  0  0  0  0  0  0
  189.5870  177.3780  143.2820 C   0  0  1  0  0  3  0  0  0  0  0  0
  189.1740  178.1520  140.8620 C   0  0  0  0  0  3  0  0  0  0  0  0
  192.6890  177.5030  139.9290 C   0  0  0  0  0  2  0  0  0  0  0  0
  188.9750  178.2720  142.2000 C   0  0  0  0  0  3  0  0  0  0  0  0
  192.8900  176.5480  138.7700 C   0  0  0  0  0  2  0  0  0  0  0  0
  190.8700  176.2270  137.8730 C   0  0  1  0  0  3  0  0  0  0  0  0
  189.8430  177.0880  138.6500 C   0  0  2  0  0  3  0  0  0  0  0  0
  191.4820  177.1060  140.7110 C   0  0  2  0  0  3  0  0  0  0  0  0
  191.0910  177.2730  143.2090 C   0  0  0  0  0  2  0  0  0  0  0  0
  190.0560  177.1020  140.1820 C   0  0  1  0  0  3  0  0  0  0  0  0
  189.8070  178.6280  145.2750 O   0  0  0  0  0  0  0  0  0  0  0  0
  189.1470  177.8120  144.6490 C   0  0  0  0  0  0  0  0  0  0  0  0
  187.8940  177.2590  145.2630 C   0  0  1  0  0  3  0  0  0  0  0  0
  187.8880  177.5010  146.7600 C   0  0  0  0  0  1  0  0  0  0  0  0
  186.6480  177.8730  144.6390 C   0  0  0  0  0  2  0  0  0  0  0  0
  185.7780  178.5120  145.7040 C   0  0  0  0  0  1  0  0  0  0  0  0
  190.6120  174.3610  136.2920 N   0  0  0  0  0  1  0  0  0  0  0  0
  190.3880  175.7840  136.4880 C   0  0  0  0  0  2  0  0  0  0  0  0
  188.3770  176.7520  138.3100 C   0  0  0  0  0  2  0  0  0  0  0  0
  186.9410  177.6290  136.1680 O   0  0  0  0  0  0  0  0  0  0  0  0
  188.5100  179.4250  137.2260 O   0  0  0  0  0  1  0  0  0  0  0  0
  187.4710  178.1180  137.4960 P   0  0  0  0  0  0  0  0  0  0  0  0
  186.1740  178.6260  138.4560 O   0  0  0  0  0  1  0  0  0  0  0  0
  1  8  1  0  0  0  0
  1  7  1  0  0  0  0
  2 11  1  0  0  0  0
  3 14  1  1  0  0  0
  4  6  2  0  0  0  0
  6  3  1  0  0  0  0
  7  5  1  0  0  0  0
  8 20  1  6  0  0  0
  8  9  1  0  0  0  0
  9 21  1  1  0  0  0
  9 12  1  0  0  0  0
 10  5  1  6  0  0  0
 10  2  1  0  0  0  0
 11  3  1  0  0  0  0
 12 10  1  0  0  0  0
 12  4  1  6  0  0  0
 14 15  1  0  0  0  0
 14 13  2  0  0  0  0
 15 16  1  1  0  0  0
 17 15  1  0  0  0  0
 17 18  1  0  0  0  0
 19 20  1  0  0  0  0
 22 24  2  0  0  0  0
 23 24  1  0  0  0  0
 24 21  1  0  0  0  0
 24 25  1  0  0  0  0
M  END
>  <MODEL>
6

>  <REMARK>
 VINA RESULT:      -7.0      4.896      7.858
  Name = 
  6 active torsions:
  status: ('A' for Active; 'I' for Inactive)
    1  A    between atoms: C_4  and  C_7
    2  A    between atoms: C_4  and  C_16
    3  A    between atoms: C_7  and  C_8
    4  A    between atoms: C_9  and  C_17
    5  A    between atoms: C_9  and  P_23
    6  A    between atoms: C_15  and  C_22
                            x       y       z     vdW  Elec       q    Type
                         _______ _______ _______ _____ _____    ______ ____

>  <TORSDO>
F 6

$$$$
=
 OpenBabel11062413533D

 25 26  0  0  1  0  0  0  0  0999 V2000
  190.2880  177.1290  144.8790 O   0  0  0  0  0  0  0  0  0  0  0  0
  186.0760  178.0950  144.8340 C   0  0  0  0  0  2  0  0  0  0  0  0
  184.5690  178.2550  143.0560 C   0  0  1  0  0  3  0  0  0  0  0  0
  186.9910  178.4270  142.2030 C   0  0  0  0  0  3  0  0  0  0  0  0
  188.3390  178.2380  145.6370 C   0  0  0  0  0  2  0  0  0  0  0  0
  185.6810  178.7820  142.1470 C   0  0  0  0  0  3  0  0  0  0  0  0
  189.3260  177.1170  145.8890 C   0  0  0  0  0  2  0  0  0  0  0  0
  189.8200  176.2620  143.8850 C   0  0  1  0  0  3  0  0  0  0  0  0
  189.0550  177.0680  142.8050 C   0  0  2  0  0  3  0  0  0  0  0  0
  187.3180  177.8020  144.6410 C   0  0  2  0  0  3  0  0  0  0  0  0
  184.8600  178.4070  144.5290 C   0  0  0  0  0  2  0  0  0  0  0  0
  187.6040  177.4340  143.1930 C   0  0  1  0  0  3  0  0  0  0  0  0
  182.5960  179.4550  143.5610 O   0  0  0  0  0  0  0  0  0  0  0  0
  183.2480  178.8760  142.7050 C   0  0  0  0  0  0  0  0  0  0  0  0
  182.7150  178.8010  141.3040 C   0  0  1  0  0  3  0  0  0  0  0  0
  183.1090  177.4860  140.6600 C   0  0  0  0  0  1  0  0  0  0  0  0
  181.2010  178.9540  141.2730 C   0  0  0  0  0  2  0  0  0  0  0  0
  180.5500  177.7070  140.7060 C   0  0  0  0  0  1  0  0  0  0  0  0
  192.0540  175.3430  144.3430 N   0  0  0  0  0  1  0  0  0  0  0  0
  191.0080  175.4650  143.3400 C   0  0  0  0  0  2  0  0  0  0  0  0
  189.0930  176.4120  141.4090 C   0  0  0  0  0  2  0  0  0  0  0  0
  189.6010  178.2530  139.4660 O   0  0  0  0  0  1  0  0  0  0  0  0
  190.9030  176.0080  139.1960 O   0  0  0  0  0  0  0  0  0  0  0  0
  190.2990  177.1740  140.2620 P   0  0  0  0  0  0  0  0  0  0  0  0
  191.5820  177.8630  141.1200 O   0  0  0  0  0  1  0  0  0  0  0  0
  1  7  1  0  0  0  0
  3 14  1  6  0  0  0
  3 11  1  0  0  0  0
  5  7  1  0  0  0  0
  6  4  2  0  0  0  0
  6  3  1  0  0  0  0
  8 20  1  6  0  0  0
  8  1  1  0  0  0  0
  9 21  1  6  0  0  0
  9 12  1  0  0  0  0
  9  8  1  0  0  0  0
 10  2  1  6  0  0  0
 10  5  1  0  0  0  0
 11  2  1  0  0  0  0
 12  4  1  6  0  0  0
 12 10  1  0  0  0  0
 14 13  2  0  0  0  0
 15 16  1  1  0  0  0
 15 14  1  0  0  0  0
 17 15  1  0  0  0  0
 18 17  1  0  0  0  0
 20 19  1  0  0  0  0
 22 24  1  0  0  0  0
 23 24  2  0  0  0  0
 24 25  1  0  0  0  0
 24 21  1  0  0  0  0
M  END
>  <MODEL>
7

>  <REMARK>
 VINA RESULT:      -6.7      2.102      2.789
  Name = 
  6 active torsions:
  status: ('A' for Active; 'I' for Inactive)
    1  A    between atoms: C_4  and  C_7
    2  A    between atoms: C_4  and  C_16
    3  A    between atoms: C_7  and  C_8
    4  A    between atoms: C_9  and  C_17
    5  A    between atoms: C_9  and  P_23
    6  A    between atoms: C_15  and  C_22
                            x       y       z     vdW  Elec       q    Type
                         _______ _______ _______ _____ _____    ______ ____

>  <TORSDO>
F 6

$$$$
=
 OpenBabel11062413533D

 25 26  0  0  1  0  0  0  0  0999 V2000
  191.3020  176.1290  144.4980 O   0  0  0  0  0  0  0  0  0  0  0  0
  188.4420  177.4720  141.5490 C   0  0  0  0  0  2  0  0  0  0  0  0
  186.4290  178.6300  141.7970 C   0  0  1  0  0  3  0  0  0  0  0  0
  187.1160  177.5310  144.0210 C   0  0  0  0  0  3  0  0  0  0  0  0
  190.0880  175.9790  142.4720 C   0  0  0  0  0  2  0  0  0  0  0  0
  186.1700  177.9170  143.1270 C   0  0  0  0  0  3  0  0  0  0  0  0
  191.4140  176.3180  143.1210 C   0  0  0  0  0  2  0  0  0  0  0  0
  190.9200  177.3660  145.0310 C   0  0  1  0  0  3  0  0  0  0  0  0
  189.3790  177.4190  145.1780 C   0  0  2  0  0  3  0  0  0  0  0  0
  189.1620  177.1440  142.5690 C   0  0  2  0  0  3  0  0  0  0  0  0
  187.4160  177.9190  140.9050 C   0  0  0  0  0  2  0  0  0  0  0  0
  188.6260  177.7330  143.8650 C   0  0  1  0  0  3  0  0  0  0  0  0
  185.0940  179.7570  140.2060 O   0  0  0  0  0  0  0  0  0  0  0  0
  185.1430  178.8940  141.0700 C   0  0  0  0  0  0  0  0  0  0  0  0
  183.9070  178.1040  141.3870 C   0  0  1  0  0  3  0  0  0  0  0  0
  182.9070  178.9650  142.1320 C   0  0  0  0  0  1  0  0  0  0  0  0
  183.2630  177.5430  140.1260 C   0  0  0  0  0  2  0  0  0  0  0  0
  181.7530  177.5210  140.2640 C   0  0  0  0  0  1  0  0  0  0  0  0
  192.0220  176.3070  146.9580 N   0  0  0  0  0  1  0  0  0  0  0  0
  191.6780  177.5800  146.3450 C   0  0  0  0  0  2  0  0  0  0  0  0
  188.9020  178.3510  146.3120 C   0  0  0  0  0  2  0  0  0  0  0  0
  188.4790  176.0560  147.7170 O   0  0  0  0  0  1  0  0  0  0  0  0
  186.3430  177.5070  147.3470 O   0  0  0  0  0  0  0  0  0  0  0  0
  188.0060  177.4890  147.6550 P   0  0  0  0  0  0  0  0  0  0  0  0
  188.3040  178.2350  149.1430 O   0  0  0  0  0  1  0  0  0  0  0  0
  1  8  1  0  0  0  0
  3 14  1  6  0  0  0
  3  6  1  0  0  0  0
  5 10  1  0  0  0  0
  5  7  1  0  0  0  0
  6  4  2  0  0  0  0
  7  1  1  0  0  0  0
  8  9  1  0  0  0  0
  8 20  1  1  0  0  0
  9 21  1  1  0  0  0
 10  2  1  6  0  0  0
 10 12  1  0  0  0  0
 11  2  1  0  0  0  0
 11  3  1  0  0  0  0
 12  4  1  1  0  0  0
 12  9  1  0  0  0  0
 13 14  2  0  0  0  0
 14 15  1  0  0  0  0
 15 16  1  6  0  0  0
 17 18  1  0  0  0  0
 17 15  1  0  0  0  0
 20 19  1  0  0  0  0
 21 24  1  0  0  0  0
 23 24  2  0  0  0  0
 24 22  1  0  0  0  0
 24 25  1  0  0  0  0
M  END
>  <MODEL>
8

>  <REMARK>
 VINA RESULT:      -6.7      2.564      4.457
  Name = 
  6 active torsions:
  status: ('A' for Active; 'I' for Inactive)
    1  A    between atoms: C_4  and  C_7
    2  A    between atoms: C_4  and  C_16
    3  A    between atoms: C_7  and  C_8
    4  A    between atoms: C_9  and  C_17
    5  A    between atoms: C_9  and  P_23
    6  A    between atoms: C_15  and  C_22
                            x       y       z     vdW  Elec       q    Type
                         _______ _______ _______ _____ _____    ______ ____

>  <TORSDO>
F 6

$$$$
=
 OpenBabel11062413533D

 25 26  0  0  1  0  0  0  0  0999 V2000
  180.1210  179.1530  141.6840 O   0  0  0  0  0  0  0  0  0  0  0  0
  183.2580  178.9870  144.6530 C   0  0  0  0  0  2  0  0  0  0  0  0
  185.5620  178.6880  144.4190 C   0  0  1  0  0  3  0  0  0  0  0  0
  184.3300  177.8810  142.3080 C   0  0  0  0  0  3  0  0  0  0  0  0
  181.0360  178.6280  143.8040 C   0  0  0  0  0  2  0  0  0  0  0  0
  185.3320  177.7680  143.2180 C   0  0  0  0  0  3  0  0  0  0  0  0
  180.1610  179.5780  143.0120 C   0  0  0  0  0  2  0  0  0  0  0  0
  181.1550  179.8320  141.0280 C   0  0  1  0  0  3  0  0  0  0  0  0
  182.4270  178.9460  140.9990 C   0  0  2  0  0  3  0  0  0  0  0  0
  182.4710  178.9950  143.6300 C   0  0  2  0  0  3  0  0  0  0  0  0
  184.3580  178.8370  145.3150 C   0  0  0  0  0  2  0  0  0  0  0  0
  183.2360  178.9520  142.3160 C   0  0  1  0  0  3  0  0  0  0  0  0
  186.7170  178.2190  146.4270 O   0  0  0  0  0  0  0  0  0  0  0  0
  186.7640  178.2530  145.2060 C   0  0  0  0  0  0  0  0  0  0  0  0
  188.0310  177.8480  144.5110 C   0  0  1  0  0  3  0  0  0  0  0  0
  189.1970  177.8770  145.4800 C   0  0  0  0  0  1  0  0  0  0  0  0
  187.9110  176.4620  143.8920 C   0  0  0  0  0  2  0  0  0  0  0  0
  189.1770  176.1050  143.1360 C   0  0  0  0  0  1  0  0  0  0  0  0
  179.8200  181.4350  139.7260 N   0  0  0  0  0  1  0  0  0  0  0  0
  180.6560  180.2480  139.6420 C   0  0  0  0  0  2  0  0  0  0  0  0
  183.3480  179.2360  139.7960 C   0  0  0  0  0  2  0  0  0  0  0  0
  182.5150  178.1190  137.4550 O   0  0  0  0  0  0  0  0  0  0  0  0
  183.0360  176.4010  139.3480 O   0  0  0  0  0  1  0  0  0  0  0  0
  183.4650  177.8550  138.6000 P   0  0  0  0  0  0  0  0  0  0  0  0
  185.0390  177.7260  137.9930 O   0  0  0  0  0  1  0  0  0  0  0  0
  1  7  1  0  0  0  0
  2 11  1  0  0  0  0
  3 14  1  1  0  0  0
  3 11  1  0  0  0  0
  4  6  2  0  0  0  0
  6  3  1  0  0  0  0
  7  5  1  0  0  0  0
  8 20  1  6  0  0  0
  8  1  1  0  0  0  0
  9 21  1  6  0  0  0
  9  8  1  0  0  0  0
  9 12  1  0  0  0  0
 10  5  1  1  0  0  0
 10  2  1  0  0  0  0
 12  4  1  1  0  0  0
 12 10  1  0  0  0  0
 14 13  2  0  0  0  0
 15 14  1  0  0  0  0
 15 16  1  1  0  0  0
 17 15  1  0  0  0  0
 18 17  1  0  0  0  0
 20 19  1  0  0  0  0
 22 24  2  0  0  0  0
 24 23  1  0  0  0  0
 24 21  1  0  0  0  0
 25 24  1  0  0  0  0
M  END
>  <MODEL>
9

>  <REMARK>
 VINA RESULT:      -6.6      3.883      7.527
  Name = 
  6 active torsions:
  status: ('A' for Active; 'I' for Inactive)
    1  A    between atoms: C_4  and  C_7
    2  A    between atoms: C_4  and  C_16
    3  A    between atoms: C_7  and  C_8
    4  A    between atoms: C_9  and  C_17
    5  A    between atoms: C_9  and  P_23
    6  A    between atoms: C_15  and  C_22
                            x       y       z     vdW  Elec       q    Type
                         _______ _______ _______ _____ _____    ______ ____

>  <TORSDO>
F 6

$$$$
