=
 OpenBabel11062417163D

 26 29  0  0  1  0  0  0  0  0999 V2000
  187.8280  176.9360  145.3640 C   0  0  2  0  0  3  0  0  0  0  0  0
  189.7400  178.2580  145.1600 C   0  0  1  0  0  3  0  0  0  0  0  0
  188.5790  176.7570  146.6900 C   0  0  2  0  0  3  0  0  0  0  0  0
  188.6930  177.5850  144.3760 N   0  0  0  0  0  0  0  0  0  0  0  0
  190.9360  177.0660  147.0580 O   0  0  0  0  0  1  0  0  0  0  0  0
  188.6960  178.0280  147.5310 C   0  0  0  0  0  2  0  0  0  0  0  0
  189.7790  177.6590  146.5530 C   0  0  1  0  0  0  0  0  0  0  0  0
  183.6790  179.1290  145.4410 O   0  0  0  0  0  0  0  0  0  0  0  0
  183.6300  178.9950  143.4290 N   0  0  0  0  0  2  0  0  0  0  0  0
  186.0690  177.9440  146.6450 O   0  0  0  0  0  0  0  0  0  0  0  0
  186.5150  177.6460  145.5030 C   0  0  0  0  0  0  0  0  0  0  0  0
  185.7620  177.9510  144.3280 N   0  0  0  0  0  2  0  0  0  0  0  0
  184.5000  178.6150  144.3700 C   0  0  2  0  0  0  0  0  0  0  0  0
  182.8330  179.4940  144.4590 C   0  0  2  0  0  3  0  0  0  0  0  0
  191.4160  179.7330  143.9720 N   0  0  0  0  0  1  0  0  0  0  0  0
  191.0660  178.4490  144.4710 C   0  0  0  0  0  0  0  0  0  0  0  0
  191.8520  177.4780  144.3000 O   0  0  0  0  0  0  0  0  0  0  0  0
  189.2380  176.5060  143.5530 C   0  0  0  0  0  2  0  0  0  0  0  0
  188.6360  176.5490  142.1560 C   0  0  0  0  0  2  0  0  0  0  0  0
  188.7500  177.9430  141.5490 C   0  0  2  0  0  3  0  0  0  0  0  0
  187.3820  178.6080  141.4440 C   0  0  0  0  0  1  0  0  0  0  0  0
  189.4810  177.8890  140.2010 C   0  0  2  0  0  3  0  0  0  0  0  0
  188.5540  177.4340  139.0850 C   0  0  0  0  0  1  0  0  0  0  0  0
  190.7470  177.0840  140.2300 C   0  0  0  0  0  0  0  0  0  0  0  0
  191.7330  177.4550  140.9200 O   0  0  0  0  0  1  0  0  0  0  0  0
  190.8400  175.9300  139.4640 O   0  0  0  0  0  0  0  0  0  0  0  0
  1 11  1  1  0  0  0
  1  3  1  0  0  0  0
  2 16  1  6  0  0  0
  2  7  1  0  0  0  0
  3  6  1  1  0  0  0
  4  2  1  0  0  0  0
  4  1  1  0  0  0  0
  7  3  1  0  0  0  0
  7  5  1  1  0  0  0
  7  6  1  0  0  0  0
  9 13  1  0  0  0  0
 11 10  2  0  0  0  0
 12 11  1  0  0  0  0
 13 12  1  6  0  0  0
 13 14  1  0  0  0  0
 13  8  1  0  0  0  0
 14  9  1  1  0  0  0
 14  8  1  0  0  0  0
 15 16  1  0  0  0  0
 17 16  2  0  0  0  0
 18  4  1  0  0  0  0
 19 18  1  0  0  0  0
 20 21  1  6  0  0  0
 20 19  1  0  0  0  0
 22 23  1  6  0  0  0
 22 24  1  0  0  0  0
 22 20  1  0  0  0  0
 24 25  1  0  0  0  0
 26 24  2  0  0  0  0
M  END
>  <MODEL>
1

>  <REMARK>
 VINA RESULT:      -7.3      0.000      0.000
  Name = 
  7 active torsions:
  status: ('A' for Active; 'I' for Inactive)
    1  A    between atoms: C_1  and  C_12
    2  A    between atoms: C_2  and  C_13
    3  A    between atoms: C_3  and  C_13
    4  A    between atoms: C_3  and  C_25
    5  A    between atoms: C_5  and  N_17
    6  A    between atoms: C_5  and  C_25
    7  A    between atoms: C_6  and  C_19
                            x       y       z     vdW  Elec       q    Type
                         _______ _______ _______ _____ _____    ______ ____

>  <TORSDO>
F 7

$$$$
=
 OpenBabel11062417163D

 26 29  0  0  1  0  0  0  0  0999 V2000
  187.6950  176.9970  145.5820 C   0  0  2  0  0  3  0  0  0  0  0  0
  189.6120  178.3270  145.5400 C   0  0  1  0  0  3  0  0  0  0  0  0
  188.3360  176.8150  146.9640 C   0  0  2  0  0  3  0  0  0  0  0  0
  188.6340  177.6540  144.6710 N   0  0  0  0  0  0  0  0  0  0  0  0
  190.6540  177.1310  147.5240 O   0  0  0  0  0  1  0  0  0  0  0  0
  188.3790  178.0820  147.8170 C   0  0  0  0  0  2  0  0  0  0  0  0
  189.5390  177.7220  146.9290 C   0  0  1  0  0  0  0  0  0  0  0  0
  183.5420  179.1700  145.3300 O   0  0  0  0  0  0  0  0  0  0  0  0
  183.6470  179.0240  143.3210 N   0  0  0  0  0  2  0  0  0  0  0  0
  185.8400  178.0040  146.7190 O   0  0  0  0  0  0  0  0  0  0  0  0
  186.3720  177.7010  145.6160 C   0  0  0  0  0  0  0  0  0  0  0  0
  185.7090  177.9960  144.3860 N   0  0  0  0  0  2  0  0  0  0  0  0
  184.4450  178.6540  144.3280 C   0  0  2  0  0  0  0  0  0  0  0  0
  182.7720  179.5250  144.2840 C   0  0  2  0  0  3  0  0  0  0  0  0
  191.2330  179.6320  144.1010 N   0  0  0  0  0  1  0  0  0  0  0  0
  190.9880  178.5260  144.9620 C   0  0  0  0  0  0  0  0  0  0  0  0
  191.9160  177.7070  145.2030 O   0  0  0  0  0  0  0  0  0  0  0  0
  189.2490  176.5810  143.8890 C   0  0  0  0  0  2  0  0  0  0  0  0
  188.5380  176.4230  142.5540 C   0  0  0  0  0  2  0  0  0  0  0  0
  189.4500  176.8050  141.3940 C   0  0  2  0  0  3  0  0  0  0  0  0
  190.9060  176.8700  141.8410 C   0  0  0  0  0  1  0  0  0  0  0  0
  188.9780  178.1100  140.7410 C   0  0  2  0  0  3  0  0  0  0  0  0
  187.5870  178.4970  141.2180 C   0  0  0  0  0  1  0  0  0  0  0  0
  189.0660  178.1050  139.2430 C   0  0  0  0  0  0  0  0  0  0  0  0
  188.9070  179.1660  138.5830 O   0  0  0  0  0  1  0  0  0  0  0  0
  189.2970  176.9090  138.5760 O   0  0  0  0  0  0  0  0  0  0  0  0
  1 11  1  1  0  0  0
  1  3  1  0  0  0  0
  2 16  1  6  0  0  0
  2  7  1  0  0  0  0
  3  6  1  1  0  0  0
  4  2  1  0  0  0  0
  4  1  1  0  0  0  0
  7  3  1  0  0  0  0
  7  5  1  1  0  0  0
  7  6  1  0  0  0  0
  9 13  1  0  0  0  0
 11 10  2  0  0  0  0
 12 11  1  0  0  0  0
 13 12  1  6  0  0  0
 13  8  1  0  0  0  0
 14  9  1  1  0  0  0
 14 13  1  0  0  0  0
 14  8  1  0  0  0  0
 15 16  1  0  0  0  0
 16 17  2  0  0  0  0
 18  4  1  0  0  0  0
 19 18  1  0  0  0  0
 20 21  1  1  0  0  0
 20 19  1  0  0  0  0
 22 23  1  6  0  0  0
 22 20  1  0  0  0  0
 24 22  1  0  0  0  0
 25 24  1  0  0  0  0
 26 24  2  0  0  0  0
M  END
>  <MODEL>
2

>  <REMARK>
 VINA RESULT:      -7.2      1.026      1.425
  Name = 
  7 active torsions:
  status: ('A' for Active; 'I' for Inactive)
    1  A    between atoms: C_1  and  C_12
    2  A    between atoms: C_2  and  C_13
    3  A    between atoms: C_3  and  C_13
    4  A    between atoms: C_3  and  C_25
    5  A    between atoms: C_5  and  N_17
    6  A    between atoms: C_5  and  C_25
    7  A    between atoms: C_6  and  C_19
                            x       y       z     vdW  Elec       q    Type
                         _______ _______ _______ _____ _____    ______ ____

>  <TORSDO>
F 7

$$$$
=
 OpenBabel11062417163D

 26 29  0  0  1  0  0  0  0  0999 V2000
  188.2760  178.6780  141.9110 C   0  0  2  0  0  3  0  0  0  0  0  0
  189.5150  176.7030  142.0040 C   0  0  1  0  0  3  0  0  0  0  0  0
  188.9800  178.5850  140.5500 C   0  0  2  0  0  3  0  0  0  0  0  0
  188.8540  177.7120  142.8470 N   0  0  0  0  0  0  0  0  0  0  0  0
  191.0030  177.3800  140.0610 O   0  0  0  0  0  1  0  0  0  0  0  0
  188.5480  177.3960  139.6910 C   0  0  0  0  0  2  0  0  0  0  0  0
  189.7290  177.2780  140.6170 C   0  0  1  0  0  0  0  0  0  0  0  0
  183.6210  178.4650  141.3540 O   0  0  0  0  0  0  0  0  0  0  0  0
  183.8170  179.6160  139.7100 N   0  0  0  0  0  2  0  0  0  0  0  0
  186.1590  177.8590  142.6810 O   0  0  0  0  0  0  0  0  0  0  0  0
  186.7850  178.5490  141.8310 C   0  0  0  0  0  0  0  0  0  0  0  0
  186.0880  179.1930  140.7630 N   0  0  0  0  0  2  0  0  0  0  0  0
  184.6720  179.1150  140.6070 C   0  0  1  0  0  0  0  0  0  0  0  0
  182.7980  178.9910  140.4270 C   0  0  2  0  0  3  0  0  0  0  0  0
  191.9480  176.6310  142.6930 N   0  0  0  0  0  1  0  0  0  0  0  0
  190.6840  175.9830  142.6240 C   0  0  0  0  0  0  0  0  0  0  0  0
  190.5650  174.8020  143.0500 O   0  0  0  0  0  0  0  0  0  0  0  0
  189.8160  178.4620  143.6530 C   0  0  0  0  0  2  0  0  0  0  0  0
  189.3370  178.5620  145.0940 C   0  0  0  0  0  2  0  0  0  0  0  0
  188.8870  177.2050  145.6210 C   0  0  2  0  0  3  0  0  0  0  0  0
  187.3650  177.1120  145.6630 C   0  0  0  0  0  1  0  0  0  0  0  0
  189.5310  176.9100  146.9810 C   0  0  2  0  0  3  0  0  0  0  0  0
  189.1230  177.9410  148.0220 C   0  0  0  0  0  1  0  0  0  0  0  0
  191.0200  176.7430  146.9230 C   0  0  0  0  0  0  0  0  0  0  0  0
  191.5710  176.2010  145.9280 O   0  0  0  0  0  0  0  0  0  0  0  0
  191.7980  177.1670  147.9930 O   0  0  0  0  0  1  0  0  0  0  0  0
  1 11  1  6  0  0  0
  1  4  1  0  0  0  0
  2 16  1  1  0  0  0
  2  4  1  0  0  0  0
  3  6  1  6  0  0  0
  3  7  1  0  0  0  0
  3  1  1  0  0  0  0
  4 18  1  0  0  0  0
  6  7  1  0  0  0  0
  7  5  1  6  0  0  0
  7  2  1  0  0  0  0
  9 13  1  0  0  0  0
 11 10  2  0  0  0  0
 12 11  1  0  0  0  0
 13 12  1  6  0  0  0
 13  8  1  0  0  0  0
 14  9  1  6  0  0  0
 14 13  1  0  0  0  0
 14  8  1  0  0  0  0
 16 15  1  0  0  0  0
 16 17  2  0  0  0  0
 18 19  1  0  0  0  0
 19 20  1  0  0  0  0
 20 21  1  1  0  0  0
 20 22  1  0  0  0  0
 22 23  1  1  0  0  0
 24 22  1  0  0  0  0
 24 26  1  0  0  0  0
 25 24  2  0  0  0  0
M  END
>  <MODEL>
3

>  <REMARK>
 VINA RESULT:      -7.1      2.232      5.132
  Name = 
  7 active torsions:
  status: ('A' for Active; 'I' for Inactive)
    1  A    between atoms: C_1  and  C_12
    2  A    between atoms: C_2  and  C_13
    3  A    between atoms: C_3  and  C_13
    4  A    between atoms: C_3  and  C_25
    5  A    between atoms: C_5  and  N_17
    6  A    between atoms: C_5  and  C_25
    7  A    between atoms: C_6  and  C_19
                            x       y       z     vdW  Elec       q    Type
                         _______ _______ _______ _____ _____    ______ ____

>  <TORSDO>
F 7

$$$$
=
 OpenBabel11062417163D

 26 29  0  0  1  0  0  0  0  0999 V2000
  189.0940  178.1950  143.0360 C   0  0  2  0  0  3  0  0  0  0  0  0
  190.3260  176.9700  144.5930 C   0  0  1  0  0  3  0  0  0  0  0  0
  190.4180  178.9560  143.1840 C   0  0  2  0  0  3  0  0  0  0  0  0
  188.9580  177.2040  144.1050 N   0  0  0  0  0  0  0  0  0  0  0  0
  191.9000  178.9040  145.0770 O   0  0  0  0  0  1  0  0  0  0  0  0
  191.6510  178.1850  142.7130 C   0  0  0  0  0  2  0  0  0  0  0  0
  191.2130  178.1190  144.1520 C   0  0  1  0  0  0  0  0  0  0  0  0
  188.3950  176.6050  138.6760 O   0  0  0  0  0  0  0  0  0  0  0  0
  187.8760  178.4770  138.1320 N   0  0  0  0  0  2  0  0  0  0  0  0
  189.1320  176.3570  141.4970 O   0  0  0  0  0  0  0  0  0  0  0  0
  188.8960  177.5820  141.6820 C   0  0  0  0  0  0  0  0  0  0  0  0
  188.4660  178.4090  140.6000 N   0  0  0  0  0  2  0  0  0  0  0  0
  188.2620  177.9100  139.2800 C   0  0  2  0  0  0  0  0  0  0  0  0
  188.0020  177.2190  137.5430 C   0  0  2  0  0  3  0  0  0  0  0  0
  191.7060  176.0640  146.5100 N   0  0  0  0  0  1  0  0  0  0  0  0
  190.4530  176.5340  146.0300 C   0  0  0  0  0  0  0  0  0  0  0  0
  189.4550  176.5470  146.8000 O   0  0  0  0  0  0  0  0  0  0  0  0
  188.1160  177.8280  145.1240 C   0  0  0  0  0  2  0  0  0  0  0  0
  186.6490  177.7360  144.7300 C   0  0  0  0  0  2  0  0  0  0  0  0
  185.8440  178.8860  145.3250 C   0  0  2  0  0  3  0  0  0  0  0  0
  185.2880  178.5140  146.6950 C   0  0  0  0  0  1  0  0  0  0  0  0
  184.7510  179.3420  144.3510 C   0  0  2  0  0  3  0  0  0  0  0  0
  183.3850  178.8170  144.7660 C   0  0  0  0  0  1  0  0  0  0  0  0
  185.0490  179.0300  142.9140 C   0  0  0  0  0  0  0  0  0  0  0  0
  185.7860  179.7880  142.2290 O   0  0  0  0  0  0  0  0  0  0  0  0
  184.4830  177.9070  142.3260 O   0  0  0  0  0  1  0  0  0  0  0  0
  1 11  1  6  0  0  0
  1  3  1  0  0  0  0
  1  4  1  0  0  0  0
  2 16  1  1  0  0  0
  3  6  1  6  0  0  0
  3  7  1  0  0  0  0
  4  2  1  0  0  0  0
  4 18  1  0  0  0  0
  6  7  1  0  0  0  0
  7  2  1  0  0  0  0
  7  5  1  1  0  0  0
  8 13  1  0  0  0  0
  9 13  1  0  0  0  0
 10 11  2  0  0  0  0
 12 11  1  0  0  0  0
 13 12  1  1  0  0  0
 14  9  1  6  0  0  0
 14  8  1  0  0  0  0
 14 13  1  0  0  0  0
 16 15  1  0  0  0  0
 16 17  2  0  0  0  0
 19 18  1  0  0  0  0
 19 20  1  0  0  0  0
 20 21  1  1  0  0  0
 22 23  1  1  0  0  0
 22 20  1  0  0  0  0
 24 22  1  0  0  0  0
 25 24  2  0  0  0  0
 26 24  1  0  0  0  0
M  END
>  <MODEL>
4

>  <REMARK>
 VINA RESULT:      -6.9      2.366      5.387
  Name = 
  7 active torsions:
  status: ('A' for Active; 'I' for Inactive)
    1  A    between atoms: C_1  and  C_12
    2  A    between atoms: C_2  and  C_13
    3  A    between atoms: C_3  and  C_13
    4  A    between atoms: C_3  and  C_25
    5  A    between atoms: C_5  and  N_17
    6  A    between atoms: C_5  and  C_25
    7  A    between atoms: C_6  and  C_19
                            x       y       z     vdW  Elec       q    Type
                         _______ _______ _______ _____ _____    ______ ____

>  <TORSDO>
F 7

$$$$
=
 OpenBabel11062417163D

 26 29  0  0  1  0  0  0  0  0999 V2000
  189.3270  178.2010  143.1900 C   0  0  2  0  0  3  0  0  0  0  0  0
  190.7210  176.9710  144.5990 C   0  0  1  0  0  3  0  0  0  0  0  0
  190.6380  178.9960  143.2460 C   0  0  2  0  0  3  0  0  0  0  0  0
  189.3110  177.1770  144.2370 N   0  0  0  0  0  0  0  0  0  0  0  0
  192.2790  178.9360  145.0030 O   0  0  0  0  0  1  0  0  0  0  0  0
  191.8450  178.2740  142.6490 C   0  0  0  0  0  2  0  0  0  0  0  0
  191.5360  178.1560  144.1170 C   0  0  1  0  0  0  0  0  0  0  0  0
  188.3380  176.7150  138.8490 O   0  0  0  0  0  0  0  0  0  0  0  0
  187.9540  178.6270  138.3380 N   0  0  0  0  0  2  0  0  0  0  0  0
  189.1570  176.3800  141.6390 O   0  0  0  0  0  0  0  0  0  0  0  0
  189.0290  177.6180  141.8410 C   0  0  0  0  0  0  0  0  0  0  0  0
  188.6280  178.4890  140.7810 N   0  0  0  0  0  2  0  0  0  0  0  0
  188.3350  178.0200  139.4660 C   0  0  2  0  0  0  0  0  0  0  0  0
  187.9540  177.3700  137.7360 C   0  0  2  0  0  3  0  0  0  0  0  0
  192.0550  175.5980  146.2530 N   0  0  0  0  0  1  0  0  0  0  0  0
  190.9840  176.4990  146.0060 C   0  0  0  0  0  0  0  0  0  0  0  0
  190.2450  176.8660  146.9590 O   0  0  0  0  0  0  0  0  0  0  0  0
  188.5430  177.7490  145.3430 C   0  0  0  0  0  2  0  0  0  0  0  0
  187.1060  177.2500  145.3050 C   0  0  0  0  0  2  0  0  0  0  0  0
  186.1190  178.4110  145.3100 C   0  0  2  0  0  3  0  0  0  0  0  0
  185.5420  178.6330  146.7040 C   0  0  0  0  0  1  0  0  0  0  0  0
  185.0300  178.2020  144.2500 C   0  0  2  0  0  3  0  0  0  0  0  0
  185.6080  178.2550  142.8450 C   0  0  0  0  0  1  0  0  0  0  0  0
  183.8550  179.1240  144.3990 C   0  0  0  0  0  0  0  0  0  0  0  0
  182.7140  178.6730  144.6880 O   0  0  0  0  0  1  0  0  0  0  0  0
  184.0220  180.4850  144.1860 O   0  0  0  0  0  0  0  0  0  0  0  0
  1 11  1  6  0  0  0
  1  3  1  0  0  0  0
  1  4  1  0  0  0  0
  2 16  1  1  0  0  0
  3  6  1  6  0  0  0
  3  7  1  0  0  0  0
  4  2  1  0  0  0  0
  4 18  1  0  0  0  0
  6  7  1  0  0  0  0
  7  2  1  0  0  0  0
  7  5  1  1  0  0  0
  8 13  1  0  0  0  0
  9 13  1  0  0  0  0
 10 11  2  0  0  0  0
 12 11  1  0  0  0  0
 13 12  1  1  0  0  0
 14  9  1  6  0  0  0
 14  8  1  0  0  0  0
 14 13  1  0  0  0  0
 16 15  1  0  0  0  0
 16 17  2  0  0  0  0
 19 20  1  0  0  0  0
 19 18  1  0  0  0  0
 20 21  1  1  0  0  0
 22 23  1  6  0  0  0
 22 24  1  0  0  0  0
 22 20  1  0  0  0  0
 24 25  1  0  0  0  0
 26 24  2  0  0  0  0
M  END
>  <MODEL>
5

>  <REMARK>
 VINA RESULT:      -6.8      2.199      5.613
  Name = 
  7 active torsions:
  status: ('A' for Active; 'I' for Inactive)
    1  A    between atoms: C_1  and  C_12
    2  A    between atoms: C_2  and  C_13
    3  A    between atoms: C_3  and  C_13
    4  A    between atoms: C_3  and  C_25
    5  A    between atoms: C_5  and  N_17
    6  A    between atoms: C_5  and  C_25
    7  A    between atoms: C_6  and  C_19
                            x       y       z     vdW  Elec       q    Type
                         _______ _______ _______ _____ _____    ______ ____

>  <TORSDO>
F 7

$$$$
=
 OpenBabel11062417163D

 26 29  0  0  1  0  0  0  0  0999 V2000
  191.2550  175.7610  138.5380 C   0  0  2  0  0  3  0  0  0  0  0  0
  190.0440  177.6140  137.8030 C   0  0  1  0  0  3  0  0  0  0  0  0
  190.3340  175.2220  137.4360 C   0  0  2  0  0  3  0  0  0  0  0  0
  190.8400  177.1090  138.9320 N   0  0  0  0  0  0  0  0  0  0  0  0
  188.2530  176.1840  136.7080 O   0  0  0  0  0  1  0  0  0  0  0  0
  190.6120  175.7860  136.0430 C   0  0  0  0  0  2  0  0  0  0  0  0
  189.6030  176.4450  136.9440 C   0  0  1  0  0  0  0  0  0  0  0  0
  195.7710  175.2530  137.3650 O   0  0  0  0  0  0  0  0  0  0  0  0
  195.4200  173.2880  137.0720 N   0  0  0  0  0  2  0  0  0  0  0  0
  193.4070  176.7630  138.1990 O   0  0  0  0  0  0  0  0  0  0  0  0
  192.7120  175.7100  138.1880 C   0  0  0  0  0  0  0  0  0  0  0  0
  193.2930  174.4610  137.8110 N   0  0  0  0  0  2  0  0  0  0  0  0
  194.6680  174.3250  137.4540 C   0  0  2  0  0  0  0  0  0  0  0  0
  196.4900  174.1780  136.9850 C   0  0  2  0  0  3  0  0  0  0  0  0
  187.8950  178.2720  138.9640 N   0  0  0  0  0  1  0  0  0  0  0  0
  188.9920  178.6400  138.1380 C   0  0  0  0  0  0  0  0  0  0  0  0
  189.0560  179.8080  137.6690 O   0  0  0  0  0  0  0  0  0  0  0  0
  190.0280  176.9410  140.1370 C   0  0  0  0  0  2  0  0  0  0  0  0
  190.8810  177.1370  141.3820 C   0  0  0  0  0  2  0  0  0  0  0  0
  190.1760  176.6020  142.6230 C   0  0  2  0  0  3  0  0  0  0  0  0
  188.6630  176.7480  142.4990 C   0  0  0  0  0  1  0  0  0  0  0  0
  190.7280  177.2690  143.8900 C   0  0  2  0  0  3  0  0  0  0  0  0
  191.3910  178.5990  143.5720 C   0  0  0  0  0  1  0  0  0  0  0  0
  191.6290  176.3820  144.6980 C   0  0  0  0  0  0  0  0  0  0  0  0
  192.0550  175.2940  144.2270 O   0  0  0  0  0  0  0  0  0  0  0  0
  191.9740  176.7530  145.9910 O   0  0  0  0  0  1  0  0  0  0  0  0
  1 11  1  6  0  0  0
  1  4  1  0  0  0  0
  2 16  1  1  0  0  0
  2  4  1  0  0  0  0
  3  6  1  6  0  0  0
  3  1  1  0  0  0  0
  4 18  1  0  0  0  0
  6  7  1  0  0  0  0
  7  5  1  6  0  0  0
  7  3  1  0  0  0  0
  7  2  1  0  0  0  0
  8 13  1  0  0  0  0
  9 13  1  0  0  0  0
 11 10  2  0  0  0  0
 12 11  1  0  0  0  0
 13 12  1  1  0  0  0
 14  9  1  6  0  0  0
 14  8  1  0  0  0  0
 14 13  1  0  0  0  0
 16 15  1  0  0  0  0
 17 16  2  0  0  0  0
 18 19  1  0  0  0  0
 19 20  1  0  0  0  0
 20 21  1  6  0  0  0
 20 22  1  0  0  0  0
 22 23  1  6  0  0  0
 22 24  1  0  0  0  0
 24 26  1  0  0  0  0
 25 24  2  0  0  0  0
M  END
>  <MODEL>
6

>  <REMARK>
 VINA RESULT:      -6.6      4.239      8.986
  Name = 
  7 active torsions:
  status: ('A' for Active; 'I' for Inactive)
    1  A    between atoms: C_1  and  C_12
    2  A    between atoms: C_2  and  C_13
    3  A    between atoms: C_3  and  C_13
    4  A    between atoms: C_3  and  C_25
    5  A    between atoms: C_5  and  N_17
    6  A    between atoms: C_5  and  C_25
    7  A    between atoms: C_6  and  C_19
                            x       y       z     vdW  Elec       q    Type
                         _______ _______ _______ _____ _____    ______ ____

>  <TORSDO>
F 7

$$$$
=
 OpenBabel11062417163D

 26 29  0  0  1  0  0  0  0  0999 V2000
  189.6280  177.4240  142.1640 C   0  0  2  0  0  3  0  0  0  0  0  0
  191.3460  176.3230  143.2960 C   0  0  1  0  0  3  0  0  0  0  0  0
  190.5980  178.5330  142.5930 C   0  0  2  0  0  3  0  0  0  0  0  0
  189.9490  176.1760  142.8580 N   0  0  0  0  0  0  0  0  0  0  0  0
  192.1560  178.4490  144.4230 O   0  0  0  0  0  1  0  0  0  0  0  0
  191.9810  178.4530  141.9460 C   0  0  0  0  0  2  0  0  0  0  0  0
  191.7200  177.7920  143.2730 C   0  0  1  0  0  0  0  0  0  0  0  0
  189.2210  177.1370  137.4970 O   0  0  0  0  0  0  0  0  0  0  0  0
  188.2480  178.9030  137.5260 N   0  0  0  0  0  2  0  0  0  0  0  0
  190.0720  176.2150  140.1420 O   0  0  0  0  0  0  0  0  0  0  0  0
  189.5490  177.2290  140.6800 C   0  0  0  0  0  0  0  0  0  0  0  0
  188.9020  178.2220  139.8820 N   0  0  0  0  0  2  0  0  0  0  0  0
  188.7910  178.1200  138.4630 C   0  0  2  0  0  0  0  0  0  0  0  0
  188.6600  177.9570  136.5880 C   0  0  2  0  0  3  0  0  0  0  0  0
  191.6530  176.1600  145.8010 N   0  0  0  0  0  1  0  0  0  0  0  0
  191.7420  175.5440  144.5230 C   0  0  0  0  0  0  0  0  0  0  0  0
  192.1840  174.3670  144.4280 O   0  0  0  0  0  0  0  0  0  0  0  0
  189.0280  176.1010  143.9920 C   0  0  0  0  0  2  0  0  0  0  0  0
  187.7300  176.8260  143.6710 C   0  0  0  0  0  2  0  0  0  0  0  0
  187.3380  177.7790  144.7940 C   0  0  2  0  0  3  0  0  0  0  0  0
  188.0320  177.4030  146.0980 C   0  0  0  0  0  1  0  0  0  0  0  0
  185.8120  177.8460  144.9390 C   0  0  2  0  0  3  0  0  0  0  0  0
  185.1530  178.3170  143.6520 C   0  0  0  0  0  1  0  0  0  0  0  0
  185.3510  178.6480  146.1200 C   0  0  0  0  0  0  0  0  0  0  0  0
  184.5830  178.1450  146.9830 O   0  0  0  0  0  1  0  0  0  0  0  0
  185.7540  179.9710  146.2490 O   0  0  0  0  0  0  0  0  0  0  0  0
  1 11  1  6  0  0  0
  1  3  1  0  0  0  0
  1  4  1  0  0  0  0
  2 16  1  1  0  0  0
  3  6  1  6  0  0  0
  3  7  1  0  0  0  0
  4  2  1  0  0  0  0
  4 18  1  0  0  0  0
  6  7  1  0  0  0  0
  7  2  1  0  0  0  0
  7  5  1  1  0  0  0
  8 13  1  0  0  0  0
  9 13  1  0  0  0  0
 10 11  2  0  0  0  0
 12 11  1  0  0  0  0
 13 12  1  1  0  0  0
 14  8  1  6  0  0  0
 14  9  1  0  0  0  0
 14 13  1  0  0  0  0
 16 15  1  0  0  0  0
 17 16  2  0  0  0  0
 19 18  1  0  0  0  0
 19 20  1  0  0  0  0
 20 22  1  0  0  0  0
 20 21  1  1  0  0  0
 22 23  1  6  0  0  0
 22 24  1  0  0  0  0
 24 26  2  0  0  0  0
 24 25  1  0  0  0  0
M  END
>  <MODEL>
7

>  <REMARK>
 VINA RESULT:      -6.4      2.472      6.001
  Name = 
  7 active torsions:
  status: ('A' for Active; 'I' for Inactive)
    1  A    between atoms: C_1  and  C_12
    2  A    between atoms: C_2  and  C_13
    3  A    between atoms: C_3  and  C_13
    4  A    between atoms: C_3  and  C_25
    5  A    between atoms: C_5  and  N_17
    6  A    between atoms: C_5  and  C_25
    7  A    between atoms: C_6  and  C_19
                            x       y       z     vdW  Elec       q    Type
                         _______ _______ _______ _____ _____    ______ ____

>  <TORSDO>
F 7

$$$$
=
 OpenBabel11062417163D

 26 29  0  0  1  0  0  0  0  0999 V2000
  187.8740  177.1950  142.9370 C   0  0  2  0  0  3  0  0  0  0  0  0
  189.7180  178.3640  143.7580 C   0  0  1  0  0  3  0  0  0  0  0  0
  188.1580  176.5760  144.3120 C   0  0  2  0  0  3  0  0  0  0  0  0
  188.9970  178.0360  142.5190 N   0  0  0  0  0  0  0  0  0  0  0  0
  190.2600  176.5780  145.4800 O   0  0  0  0  0  1  0  0  0  0  0  0
  187.9660  177.5300  145.4910 C   0  0  0  0  0  2  0  0  0  0  0  0
  189.3160  177.3810  144.8410 C   0  0  1  0  0  0  0  0  0  0  0  0
  183.7310  179.3990  143.0430 O   0  0  0  0  0  0  0  0  0  0  0  0
  183.4450  178.6600  144.8970 N   0  0  0  0  0  2  0  0  0  0  0  0
  186.2820  178.6130  141.8410 O   0  0  0  0  0  0  0  0  0  0  0  0
  186.5710  177.9330  142.8620 C   0  0  0  0  0  0  0  0  0  0  0  0
  185.6780  177.8800  143.9760 N   0  0  0  0  0  2  0  0  0  0  0  0
  184.4240  178.5600  143.9930 C   0  0  2  0  0  0  0  0  0  0  0  0
  182.7710  179.4700  143.9850 C   0  0  2  0  0  3  0  0  0  0  0  0
  192.0510  177.6330  143.1080 N   0  0  0  0  0  1  0  0  0  0  0  0
  191.1910  178.6460  143.6150 C   0  0  0  0  0  0  0  0  0  0  0  0
  191.6760  179.7540  143.9710 O   0  0  0  0  0  0  0  0  0  0  0  0
  189.8050  177.2080  141.6230 C   0  0  0  0  0  2  0  0  0  0  0  0
  189.8600  177.8280  140.2340 C   0  0  0  0  0  2  0  0  0  0  0  0
  190.0070  176.7580  139.1590 C   0  0  2  0  0  3  0  0  0  0  0  0
  191.4680  176.5810  138.7590 C   0  0  0  0  0  1  0  0  0  0  0  0
  189.1040  177.0680  137.9580 C   0  0  2  0  0  3  0  0  0  0  0  0
  189.8400  176.8650  136.6440 C   0  0  0  0  0  1  0  0  0  0  0  0
  188.4520  178.4180  138.0230 C   0  0  0  0  0  0  0  0  0  0  0  0
  189.0480  179.4440  137.6010 O   0  0  0  0  0  0  0  0  0  0  0  0
  187.1860  178.5400  138.5810 O   0  0  0  0  0  1  0  0  0  0  0  0
  1 11  1  1  0  0  0
  1  3  1  0  0  0  0
  2 16  1  6  0  0  0
  2  7  1  0  0  0  0
  3  7  1  0  0  0  0
  3  6  1  1  0  0  0
  4  1  1  0  0  0  0
  4  2  1  0  0  0  0
  7  5  1  1  0  0  0
  7  6  1  0  0  0  0
  8 13  1  0  0  0  0
 10 11  2  0  0  0  0
 11 12  1  0  0  0  0
 13 12  1  6  0  0  0
 13  9  1  0  0  0  0
 14  8  1  1  0  0  0
 14 13  1  0  0  0  0
 14  9  1  0  0  0  0
 15 16  1  0  0  0  0
 16 17  2  0  0  0  0
 18  4  1  0  0  0  0
 19 18  1  0  0  0  0
 20 21  1  6  0  0  0
 20 19  1  0  0  0  0
 22 23  1  6  0  0  0
 22 24  1  0  0  0  0
 22 20  1  0  0  0  0
 24 26  1  0  0  0  0
 25 24  2  0  0  0  0
M  END
>  <MODEL>
8

>  <REMARK>
 VINA RESULT:      -6.3      2.103      2.751
  Name = 
  7 active torsions:
  status: ('A' for Active; 'I' for Inactive)
    1  A    between atoms: C_1  and  C_12
    2  A    between atoms: C_2  and  C_13
    3  A    between atoms: C_3  and  C_13
    4  A    between atoms: C_3  and  C_25
    5  A    between atoms: C_5  and  N_17
    6  A    between atoms: C_5  and  C_25
    7  A    between atoms: C_6  and  C_19
                            x       y       z     vdW  Elec       q    Type
                         _______ _______ _______ _____ _____    ______ ____

>  <TORSDO>
F 7

$$$$
=
 OpenBabel11062417163D

 26 29  0  0  1  0  0  0  0  0999 V2000
  189.3820  176.5060  144.1680 C   0  0  2  0  0  3  0  0  0  0  0  0
  189.4430  177.9970  142.3740 C   0  0  1  0  0  3  0  0  0  0  0  0
  190.3140  175.8530  143.1390 C   0  0  2  0  0  3  0  0  0  0  0  0
  188.6530  177.6190  143.5560 N   0  0  0  0  0  0  0  0  0  0  0  0
  190.3300  176.2420  140.7660 O   0  0  0  0  0  1  0  0  0  0  0  0
  191.6010  176.6300  142.8640 C   0  0  0  0  0  2  0  0  0  0  0  0
  190.3770  176.8570  142.0170 C   0  0  1  0  0  0  0  0  0  0  0  0
  191.7250  177.5030  148.1110 O   0  0  0  0  0  0  0  0  0  0  0  0
  192.5990  175.6890  147.9880 N   0  0  0  0  0  2  0  0  0  0  0  0
  189.8590  178.0650  145.9270 O   0  0  0  0  0  0  0  0  0  0  0  0
  190.0720  176.9240  145.4320 C   0  0  0  0  0  0  0  0  0  0  0  0
  190.9970  176.0270  146.0480 N   0  0  0  0  0  2  0  0  0  0  0  0
  191.7030  176.3470  147.2450 C   0  0  1  0  0  0  0  0  0  0  0  0
  192.6240  176.8010  148.8280 C   0  0  2  0  0  3  0  0  0  0  0  0
  188.5340  177.9130  140.0150 N   0  0  0  0  0  1  0  0  0  0  0  0
  188.6800  178.6250  141.2380 C   0  0  0  0  0  0  0  0  0  0  0  0
  188.1980  179.7850  141.3450 O   0  0  0  0  0  0  0  0  0  0  0  0
  187.3430  177.0840  143.1860 C   0  0  0  0  0  2  0  0  0  0  0  0
  186.4010  177.1130  144.3800 C   0  0  0  0  0  2  0  0  0  0  0  0
  186.2880  178.5180  144.9590 C   0  0  2  0  0  3  0  0  0  0  0  0
  186.5020  178.5070  146.4690 C   0  0  0  0  0  1  0  0  0  0  0  0
  184.9540  179.1630  144.5610 C   0  0  2  0  0  3  0  0  0  0  0  0
  183.8060  178.6280  145.4020 C   0  0  0  0  0  1  0  0  0  0  0  0
  184.6520  179.0740  143.0940 C   0  0  0  0  0  0  0  0  0  0  0  0
  185.3060  179.7530  142.2580 O   0  0  0  0  0  0  0  0  0  0  0  0
  183.6210  178.2530  142.6560 O   0  0  0  0  0  1  0  0  0  0  0  0
  1 11  1  1  0  0  0
  2 16  1  6  0  0  0
  2  4  1  0  0  0  0
  3  6  1  1  0  0  0
  3  1  1  0  0  0  0
  4  1  1  0  0  0  0
  7  5  1  6  0  0  0
  7  2  1  0  0  0  0
  7  6  1  0  0  0  0
  7  3  1  0  0  0  0
  8 14  1  0  0  0  0
 11 10  2  0  0  0  0
 11 12  1  0  0  0  0
 13 12  1  6  0  0  0
 13  9  1  0  0  0  0
 13  8  1  0  0  0  0
 13 14  1  0  0  0  0
 14  9  1  6  0  0  0
 15 16  1  0  0  0  0
 16 17  2  0  0  0  0
 18  4  1  0  0  0  0
 18 19  1  0  0  0  0
 19 20  1  0  0  0  0
 20 21  1  1  0  0  0
 22 20  1  0  0  0  0
 22 23  1  1  0  0  0
 24 22  1  0  0  0  0
 25 24  2  0  0  0  0
 26 24  1  0  0  0  0
M  END
>  <MODEL>
9

>  <REMARK>
 VINA RESULT:      -6.3      2.447      6.074
  Name = 
  7 active torsions:
  status: ('A' for Active; 'I' for Inactive)
    1  A    between atoms: C_1  and  C_12
    2  A    between atoms: C_2  and  C_13
    3  A    between atoms: C_3  and  C_13
    4  A    between atoms: C_3  and  C_25
    5  A    between atoms: C_5  and  N_17
    6  A    between atoms: C_5  and  C_25
    7  A    between atoms: C_6  and  C_19
                            x       y       z     vdW  Elec       q    Type
                         _______ _______ _______ _____ _____    ______ ____

>  <TORSDO>
F 7

$$$$
