=
 OpenBabel11062412113D

 54 59  0  0  1  0  0  0  0  0999 V2000
  188.0800  174.5270  137.3140 C   0  0  0  0  0  2  0  0  0  0  0  0
  185.6820  176.1520  136.4520 C   0  0  1  0  0  3  0  0  0  0  0  0
  184.3370  171.9160  136.6580 O   0  0  0  0  0  1  0  0  0  0  0  0
  184.8690  172.7160  137.6190 N   0  0  0  0  0  0  0  0  0  0  0  0
  186.7300  174.0130  136.8490 C   0  0  1  0  0  3  0  0  0  0  0  0
  184.4470  174.0840  137.3120 C   0  0  0  0  0  2  0  0  0  0  0  0
  188.2920  176.0270  136.9840 C   0  0  1  0  0  3  0  0  0  0  0  0
  187.0810  176.8060  136.3770 C   0  0  1  0  0  3  0  0  0  0  0  0
  186.3240  172.6830  137.4450 C   0  0  0  0  0  2  0  0  0  0  0  0
  185.6890  174.9360  137.3620 C   0  0  2  0  0  3  0  0  0  0  0  0
  187.0150  178.7430  134.7870 C   0  0  0  0  0  1  0  0  0  0  0  0
  188.6890  177.0490  134.5980 O   0  0  0  0  0  1  0  0  0  0  0  0
  187.3530  177.2730  134.9500 C   0  0  1  0  0  3  0  0  0  0  0  0
  188.7630  176.7590  138.2350 C   0  0  0  0  0  2  0  0  0  0  0  0
  190.2590  176.8330  138.3220 C   0  0  0  0  0  0  0  0  0  0  0  0
  191.0030  176.6890  137.2220 C   0  0  0  0  0  2  0  0  0  0  0  0
  190.9030  176.6710  139.6680 C   0  0  0  0  0  2  0  0  0  0  0  0
  189.8540  176.3110  140.7080 C   0  0  0  0  0  2  0  0  0  0  0  0
  190.4020  176.6000  142.1000 C   0  0  1  0  0  3  0  0  0  0  0  0
  190.9920  177.8650  142.1230 O   0  0  0  0  0  1  0  0  0  0  0  0
  188.5140  177.1400  145.4560 C   0  0  1  0  0  3  0  0  0  0  0  0
  188.1570  176.1150  142.7830 O   0  0  0  0  0  0  0  0  0  0  0  0
  190.8950  176.8890  145.0640 C   0  0  0  0  0  2  0  0  0  0  0  0
  189.3070  176.5110  143.1210 C   0  0  0  0  0  0  0  0  0  0  0  0
  189.5650  176.8600  144.4890 N   0  0  0  0  0  0  0  0  0  0  0  0
  190.7030  176.9990  146.5670 C   0  0  1  0  0  3  0  0  0  0  0  0
  189.2330  177.3950  146.7740 C   0  0  2  0  0  3  0  0  0  0  0  0
  190.9790  175.7560  147.1470 O   0  0  0  0  0  1  0  0  0  0  0  0
  188.0510  177.6180  148.6310 C   0  0  0  0  0  1  0  0  0  0  0  0
  188.6310  176.6610  147.7980 O   0  0  0  0  0  0  0  0  0  0  0  0
  187.7600  178.4030  145.0330 C   0  0  0  0  0  2  0  0  0  0  0  0
  185.8900  178.4070  143.3760 C   0  0  0  0  0  2  0  0  0  0  0  0
  184.3920  178.1820  143.1750 C   0  0  0  0  0  2  0  0  0  0  0  0
  183.5890  179.0730  144.1260 C   0  0  0  0  0  2  0  0  0  0  0  0
  185.4760  179.0240  145.7670 C   0  0  0  0  0  2  0  0  0  0  0  0
  183.9790  178.7870  145.5710 C   0  0  0  0  0  2  0  0  0  0  0  0
  186.2780  178.1310  144.8230 C   0  0  0  0  0  3  0  0  0  0  0  0
  184.7430  177.0860  136.9060 O   0  0  0  0  0  0  0  0  0  0  0  0
  185.2870  177.6040  138.0850 C   0  0  0  0  0  2  0  0  0  0  0  0
  184.5170  178.8340  138.5240 C   0  0  0  0  0  2  0  0  0  0  0  0
  183.0560  178.7150  138.1330 C   0  0  0  0  0  2  0  0  0  0  0  0
  182.2350  179.6600  138.9890 C   0  0  2  0  0  3  0  0  0  0  0  0
  179.7590  181.6200  139.7530 C   0  0  0  0  0  3  0  0  0  0  0  0
  180.9230  178.9860  139.3520 C   0  0  2  0  0  3  0  0  0  0  0  0
  180.9690  180.0580  138.2480 C   0  0  1  0  0  3  0  0  0  0  0  0
  180.5300  181.4420  138.6700 C   0  0  0  0  0  0  0  0  0  0  0  0
  179.3090  180.4630  140.5810 C   0  0  0  0  0  2  0  0  0  0  0  0
  180.4660  179.4870  140.7270 C   0  0  1  0  0  3  0  0  0  0  0  0
  180.3630  183.0080  136.6390 C   0  0  0  0  0  0  0  0  0  0  0  0
  179.3290  182.4660  136.1610 O   0  0  0  0  0  0  0  0  0  0  0  0
  180.9540  182.5520  137.8640 N   0  0  0  0  0  2  0  0  0  0  0  0
  180.9740  184.1600  135.9270 C   0  0  0  0  0  1  0  0  0  0  0  0
  180.0350  178.3210  141.5910 C   0  0  0  0  0  2  0  0  0  0  0  0
  180.6330  177.1540  141.1530 F   0  0  0  0  0  0  0  0  0  0  0  0
  2 38  1  1  0  0  0
  2 10  1  0  0  0  0
  3  4  1  0  0  0  0
  5  1  1  1  0  0  0
  5 10  1  0  0  0  0
  5  9  1  0  0  0  0
  6  4  1  0  0  0  0
  7  1  1  0  0  0  0
  7 14  1  1  0  0  0
  8 13  1  6  0  0  0
  8  2  1  0  0  0  0
  8  7  1  0  0  0  0
  9  4  1  0  0  0  0
 10  6  1  6  0  0  0
 12 13  1  0  0  0  0
 13 11  1  1  0  0  0
 14 15  1  0  0  0  0
 15 17  1  0  0  0  0
 16 15  2  0  0  0  0
 17 18  1  0  0  0  0
 18 19  1  0  0  0  0
 19 20  1  6  0  0  0
 19 24  1  0  0  0  0
 21 31  1  6  0  0  0
 21 27  1  0  0  0  0
 22 24  2  0  0  0  0
 23 26  1  0  0  0  0
 24 25  1  0  0  0  0
 25 23  1  0  0  0  0
 25 21  1  0  0  0  0
 26 27  1  0  0  0  0
 26 28  1  1  0  0  0
 27 30  1  1  0  0  0
 30 29  1  0  0  0  0
 32 37  1  0  0  0  0
 33 32  1  0  0  0  0
 33 34  1  0  0  0  0
 34 36  1  0  0  0  0
 36 35  1  0  0  0  0
 37 31  1  0  0  0  0
 37 35  1  0  0  0  0
 38 39  1  0  0  0  0
 39 40  1  0  0  0  0
 41 40  1  0  0  0  0
 42 41  1  6  0  0  0
 42 44  1  0  0  0  0
 43 47  1  0  0  0  0
 44 48  1  0  0  0  0
 45 46  1  0  0  0  0
 45 42  1  0  0  0  0
 45 44  1  0  0  0  0
 46 43  2  0  0  0  0
 47 48  1  0  0  0  0
 48 53  1  0  0  0  0
 49 51  1  0  0  0  0
 50 49  2  0  0  0  0
 51 46  1  0  0  0  0
 52 49  1  0  0  0  0
 54 53  1  0  0  0  0
M  END
>  <MODEL>
1

>  <REMARK>
 VINA RESULT:      -7.8      0.000      0.000
  Name = 
  17 active torsions:
  status: ('A' for Active; 'I' for Inactive)
    1  A    between atoms: C_1  and  C_54
    2  A    between atoms: C_2  and  C_13
    3  A    between atoms: C_3  and  C_17
    4  A    between atoms: C_3  and  C_18
    5  A    between atoms: C_6  and  C_9
    6  A    between atoms: C_6  and  C_48
    7  A    between atoms: C_7  and  C_17
    8  A    between atoms: C_8  and  C_20
    9  A    between atoms: C_8  and  C_53
   10  A    between atoms: C_13  and  C_44
   11  A    between atoms: C_18  and  O_26
   12  A    between atoms: C_20  and  C_48
   13  A    between atoms: O_26  and  C_29
   14  A    between atoms: C_37  and  C_53
   15  A    between atoms: C_38  and  O_47
   16  A    between atoms: N_42  and  C_45
   17  A    between atoms: C_43  and  C_50
                            x       y       z     vdW  Elec       q    Type
                         _______ _______ _______ _____ _____    ______ ____

>  <TORSDO>
F 17

$$$$
=
 OpenBabel11062412113D

 54 59  0  0  1  0  0  0  0  0999 V2000
  189.2190  177.2680  146.7430 C   0  0  0  0  0  2  0  0  0  0  0  0
  191.1350  177.0680  144.4140 C   0  0  1  0  0  3  0  0  0  0  0  0
  193.3690  175.7130  148.0140 O   0  0  0  0  0  1  0  0  0  0  0  0
  192.2250  175.2340  147.4590 N   0  0  0  0  0  0  0  0  0  0  0  0
  190.7040  176.9590  146.7860 C   0  0  1  0  0  3  0  0  0  0  0  0
  192.3240  175.4700  146.0170 C   0  0  0  0  0  2  0  0  0  0  0  0
  188.7710  177.8440  145.3740 C   0  0  1  0  0  3  0  0  0  0  0  0
  189.8350  177.8870  144.2320 C   0  0  1  0  0  3  0  0  0  0  0  0
  191.1300  176.0800  147.9420 C   0  0  0  0  0  2  0  0  0  0  0  0
  191.0330  176.1290  145.6030 C   0  0  2  0  0  3  0  0  0  0  0  0
  191.6660  179.5830  143.9900 C   0  0  0  0  0  1  0  0  0  0  0  0
  189.8000  179.5600  142.4970 O   0  0  0  0  0  1  0  0  0  0  0  0
  190.1820  179.3150  143.8210 C   0  0  1  0  0  3  0  0  0  0  0  0
  187.5530  177.0750  144.8770 C   0  0  0  0  0  2  0  0  0  0  0  0
  186.5360  177.9730  144.2350 C   0  0  0  0  0  0  0  0  0  0  0  0
  185.5880  178.5510  144.9780 C   0  0  0  0  0  2  0  0  0  0  0  0
  186.3560  177.8960  142.7470 C   0  0  0  0  0  2  0  0  0  0  0  0
  185.3860  178.9710  142.2840 C   0  0  0  0  0  2  0  0  0  0  0  0
  184.1160  178.3130  141.7580 C   0  0  1  0  0  3  0  0  0  0  0  0
  183.0380  178.6410  142.5820 O   0  0  0  0  0  1  0  0  0  0  0  0
  182.4910  178.3780  138.2260 C   0  0  1  0  0  3  0  0  0  0  0  0
  184.3100  179.8400  139.9220 O   0  0  0  0  0  0  0  0  0  0  0  0
  182.9040  176.4830  139.6850 C   0  0  0  0  0  2  0  0  0  0  0  0
  183.8510  178.7440  140.3460 C   0  0  0  0  0  0  0  0  0  0  0  0
  183.0880  177.9040  139.4670 N   0  0  0  0  0  0  0  0  0  0  0  0
  182.3160  175.9320  138.3980 C   0  0  1  0  0  3  0  0  0  0  0  0
  181.8440  177.1520  137.5940 C   0  0  2  0  0  3  0  0  0  0  0  0
  183.3140  175.2290  137.7130 O   0  0  0  0  0  1  0  0  0  0  0  0
  180.9940  176.8700  135.5710 C   0  0  0  0  0  1  0  0  0  0  0  0
  182.1990  177.0640  136.2470 O   0  0  0  0  0  0  0  0  0  0  0  0
  181.4150  179.4170  138.5450 C   0  0  0  0  0  2  0  0  0  0  0  0
  181.1450  181.8960  138.3970 C   0  0  0  0  0  2  0  0  0  0  0  0
  181.1960  183.1100  137.4700 C   0  0  0  0  0  2  0  0  0  0  0  0
  180.2580  182.9080  136.2780 C   0  0  0  0  0  2  0  0  0  0  0  0
  180.5730  180.4330  136.4480 C   0  0  0  0  0  2  0  0  0  0  0  0
  180.6370  181.6430  135.5180 C   0  0  0  0  0  2  0  0  0  0  0  0
  181.5150  180.6300  137.6340 C   0  0  0  0  0  3  0  0  0  0  0  0
  191.4060  176.3400  143.2490 O   0  0  0  0  0  0  0  0  0  0  0  0
  190.1620  175.8730  142.8160 C   0  0  0  0  0  2  0  0  0  0  0  0
  189.8210  176.4610  141.4590 C   0  0  0  0  0  2  0  0  0  0  0  0
  191.0800  176.9210  140.7480 C   0  0  0  0  0  2  0  0  0  0  0  0
  190.7350  177.2790  139.3150 C   0  0  2  0  0  3  0  0  0  0  0  0
  190.1180  176.7640  136.1670 C   0  0  0  0  0  3  0  0  0  0  0  0
  189.3700  176.7060  138.9770 C   0  0  2  0  0  3  0  0  0  0  0  0
  190.6500  176.0150  138.4750 C   0  0  1  0  0  3  0  0  0  0  0  0
  191.0300  176.3140  137.0420 C   0  0  0  0  0  0  0  0  0  0  0  0
  188.6990  176.9870  136.5750 C   0  0  0  0  0  2  0  0  0  0  0  0
  188.6820  177.6210  137.9560 C   0  0  1  0  0  3  0  0  0  0  0  0
  192.9910  174.8340  136.2870 C   0  0  0  0  0  0  0  0  0  0  0  0
  192.3170  173.7690  136.2350 O   0  0  0  0  0  0  0  0  0  0  0  0
  192.3920  176.0870  136.6500 N   0  0  0  0  0  2  0  0  0  0  0  0
  194.4360  174.7970  135.9460 C   0  0  0  0  0  1  0  0  0  0  0  0
  187.2500  177.8830  138.3720 C   0  0  0  0  0  2  0  0  0  0  0  0
  187.2150  178.5100  139.6040 F   0  0  0  0  0  0  0  0  0  0  0  0
  2 38  1  6  0  0  0
  2 10  1  0  0  0  0
  4  9  1  0  0  0  0
  4  3  1  0  0  0  0
  5  1  1  1  0  0  0
  5  9  1  0  0  0  0
  6  4  1  0  0  0  0
  7 14  1  6  0  0  0
  7  1  1  0  0  0  0
  8 13  1  1  0  0  0
  8  2  1  0  0  0  0
  8  7  1  0  0  0  0
 10  6  1  1  0  0  0
 10  5  1  0  0  0  0
 12 13  1  0  0  0  0
 13 11  1  6  0  0  0
 15 14  1  0  0  0  0
 15 16  2  0  0  0  0
 17 15  1  0  0  0  0
 18 17  1  0  0  0  0
 19 18  1  0  0  0  0
 19 20  1  1  0  0  0
 21 31  1  1  0  0  0
 21 25  1  0  0  0  0
 22 24  2  0  0  0  0
 24 19  1  0  0  0  0
 25 23  1  0  0  0  0
 25 24  1  0  0  0  0
 26 28  1  6  0  0  0
 26 23  1  0  0  0  0
 27 30  1  6  0  0  0
 27 21  1  0  0  0  0
 27 26  1  0  0  0  0
 29 30  1  0  0  0  0
 33 32  1  0  0  0  0
 34 33  1  0  0  0  0
 35 37  1  0  0  0  0
 36 34  1  0  0  0  0
 36 35  1  0  0  0  0
 37 32  1  0  0  0  0
 37 31  1  0  0  0  0
 39 38  1  0  0  0  0
 40 39  1  0  0  0  0
 41 40  1  0  0  0  0
 42 41  1  1  0  0  0
 43 47  1  0  0  0  0
 43 46  2  0  0  0  0
 44 42  1  0  0  0  0
 45 44  1  0  0  0  0
 45 42  1  0  0  0  0
 46 45  1  0  0  0  0
 47 48  1  0  0  0  0
 48 53  1  0  0  0  0
 48 44  1  0  0  0  0
 49 51  1  0  0  0  0
 50 49  2  0  0  0  0
 51 46  1  0  0  0  0
 52 49  1  0  0  0  0
 53 54  1  0  0  0  0
M  END
>  <MODEL>
2

>  <REMARK>
 VINA RESULT:      -7.8      2.786     10.210
  Name = 
  17 active torsions:
  status: ('A' for Active; 'I' for Inactive)
    1  A    between atoms: C_1  and  C_54
    2  A    between atoms: C_2  and  C_13
    3  A    between atoms: C_3  and  C_17
    4  A    between atoms: C_3  and  C_18
    5  A    between atoms: C_6  and  C_9
    6  A    between atoms: C_6  and  C_48
    7  A    between atoms: C_7  and  C_17
    8  A    between atoms: C_8  and  C_20
    9  A    between atoms: C_8  and  C_53
   10  A    between atoms: C_13  and  C_44
   11  A    between atoms: C_18  and  O_26
   12  A    between atoms: C_20  and  C_48
   13  A    between atoms: O_26  and  C_29
   14  A    between atoms: C_37  and  C_53
   15  A    between atoms: C_38  and  O_47
   16  A    between atoms: N_42  and  C_45
   17  A    between atoms: C_43  and  C_50
                            x       y       z     vdW  Elec       q    Type
                         _______ _______ _______ _____ _____    ______ ____

>  <TORSDO>
F 17

$$$$
=
 OpenBabel11062412113D

 54 59  0  0  1  0  0  0  0  0999 V2000
  187.7740  175.3620  135.7600 C   0  0  0  0  0  2  0  0  0  0  0  0
  189.5890  176.1300  138.0520 C   0  0  1  0  0  3  0  0  0  0  0  0
  187.5860  179.8690  136.7120 O   0  0  0  0  0  1  0  0  0  0  0  0
  187.0560  178.7060  137.1710 N   0  0  0  0  0  0  0  0  0  0  0  0
  188.1070  176.7590  136.2520 C   0  0  1  0  0  3  0  0  0  0  0  0
  188.0200  178.1490  138.1210 C   0  0  0  0  0  2  0  0  0  0  0  0
  188.7400  174.2870  136.3210 C   0  0  1  0  0  3  0  0  0  0  0  0
  189.7870  174.7490  137.3840 C   0  0  1  0  0  3  0  0  0  0  0  0
  187.0120  177.7800  136.0360 C   0  0  0  0  0  2  0  0  0  0  0  0
  188.2210  176.7060  137.7290 C   0  0  2  0  0  3  0  0  0  0  0  0
  191.6930  175.9350  136.2680 C   0  0  0  0  0  1  0  0  0  0  0  0
  192.0840  174.2350  137.9010 O   0  0  0  0  0  1  0  0  0  0  0  0
  191.2200  174.6270  136.8730 C   0  0  1  0  0  3  0  0  0  0  0  0
  187.9310  173.1340  136.9030 C   0  0  0  0  0  2  0  0  0  0  0  0
  187.4630  172.1770  135.8460 C   0  0  0  0  0  0  0  0  0  0  0  0
  188.2810  171.2230  135.3940 C   0  0  0  0  0  2  0  0  0  0  0  0
  186.2490  172.5430  135.0420 C   0  0  0  0  0  2  0  0  0  0  0  0
  185.0510  172.7230  135.9600 C   0  0  0  0  0  2  0  0  0  0  0  0
  183.8150  173.0310  135.1240 C   0  0  1  0  0  3  0  0  0  0  0  0
  182.9820  171.9120  135.0820 O   0  0  0  0  0  1  0  0  0  0  0  0
  181.6530  175.1260  137.5850 C   0  0  1  0  0  3  0  0  0  0  0  0
  183.2880  175.3660  135.2210 O   0  0  0  0  0  0  0  0  0  0  0  0
  181.5060  172.7630  137.0510 C   0  0  0  0  0  2  0  0  0  0  0  0
  183.0830  174.2120  135.6880 C   0  0  0  0  0  0  0  0  0  0  0  0
  182.1370  174.0340  136.7530 N   0  0  0  0  0  0  0  0  0  0  0  0
  180.3760  173.0700  138.0170 C   0  0  1  0  0  3  0  0  0  0  0  0
  180.6300  174.4970  138.5240 C   0  0  2  0  0  3  0  0  0  0  0  0
  179.1610  172.9860  137.3270 O   0  0  0  0  0  1  0  0  0  0  0  0
  179.1480  175.4020  139.8950 C   0  0  0  0  0  1  0  0  0  0  0  0
  179.4640  175.2640  138.5420 O   0  0  0  0  0  0  0  0  0  0  0  0
  182.8150  175.6930  138.4030 C   0  0  0  0  0  2  0  0  0  0  0  0
  183.7480  177.8320  139.2970 C   0  0  0  0  0  2  0  0  0  0  0  0
  183.9200  179.3280  139.0420 C   0  0  0  0  0  2  0  0  0  0  0  0
  182.5580  179.9870  138.8100 C   0  0  0  0  0  2  0  0  0  0  0  0
  181.6700  177.8330  137.9010 C   0  0  0  0  0  2  0  0  0  0  0  0
  181.8470  179.3270  137.6350 C   0  0  0  0  0  2  0  0  0  0  0  0
  183.0290  177.1730  138.1260 C   0  0  0  0  0  3  0  0  0  0  0  0
  189.7480  176.0160  139.4380 O   0  0  0  0  0  0  0  0  0  0  0  0
  190.7360  176.9470  139.7670 C   0  0  0  0  0  2  0  0  0  0  0  0
  190.3690  177.6740  141.0480 C   0  0  0  0  0  2  0  0  0  0  0  0
  189.0540  177.1530  141.5960 C   0  0  0  0  0  2  0  0  0  0  0  0
  188.8710  177.6650  143.0120 C   0  0  2  0  0  3  0  0  0  0  0  0
  187.7570  177.6910  146.0640 C   0  0  0  0  0  2  0  0  0  0  0  0
  189.5160  176.6860  143.9780 C   0  0  2  0  0  3  0  0  0  0  0  0
  187.9880  176.7060  143.7950 C   0  0  1  0  0  3  0  0  0  0  0  0
  187.2170  177.4570  144.8580 C   0  0  0  0  0  0  0  0  0  0  0  0
  189.1340  177.2230  146.4000 C   0  0  0  0  0  2  0  0  0  0  0  0
  190.0360  177.4570  145.1980 C   0  0  1  0  0  3  0  0  0  0  0  0
  185.0370  178.7330  145.3310 C   0  0  0  0  0  0  0  0  0  0  0  0
  185.4270  179.2240  146.4250 O   0  0  0  0  0  0  0  0  0  0  0  0
  185.8890  177.8940  144.5370 N   0  0  0  0  0  0  0  0  0  0  0  0
  183.6700  179.0450  144.8400 C   0  0  0  0  0  1  0  0  0  0  0  0
  191.4450  177.0150  145.5330 C   0  0  0  0  0  2  0  0  0  0  0  0
  191.6250  176.9860  146.9030 F   0  0  0  0  0  0  0  0  0  0  0  0
  1  7  1  0  0  0  0
  2 38  1  1  0  0  0
  3  4  1  0  0  0  0
  4  6  1  0  0  0  0
  5  1  1  1  0  0  0
  5 10  1  0  0  0  0
  7 14  1  1  0  0  0
  7  8  1  0  0  0  0
  8 13  1  6  0  0  0
  8  2  1  0  0  0  0
  9  5  1  0  0  0  0
  9  4  1  0  0  0  0
 10  2  1  0  0  0  0
 10  6  1  1  0  0  0
 13 11  1  1  0  0  0
 13 12  1  0  0  0  0
 15 14  1  0  0  0  0
 16 15  2  0  0  0  0
 17 15  1  0  0  0  0
 17 18  1  0  0  0  0
 19 20  1  1  0  0  0
 19 24  1  0  0  0  0
 19 18  1  0  0  0  0
 21 31  1  1  0  0  0
 21 27  1  0  0  0  0
 22 24  2  0  0  0  0
 23 26  1  0  0  0  0
 24 25  1  0  0  0  0
 25 23  1  0  0  0  0
 25 21  1  0  0  0  0
 26 28  1  6  0  0  0
 26 27  1  0  0  0  0
 27 30  1  6  0  0  0
 30 29  1  0  0  0  0
 33 32  1  0  0  0  0
 34 33  1  0  0  0  0
 35 37  1  0  0  0  0
 36 35  1  0  0  0  0
 36 34  1  0  0  0  0
 37 31  1  0  0  0  0
 37 32  1  0  0  0  0
 38 39  1  0  0  0  0
 39 40  1  0  0  0  0
 40 41  1  0  0  0  0
 42 41  1  6  0  0  0
 42 45  1  0  0  0  0
 42 44  1  0  0  0  0
 43 47  1  0  0  0  0
 44 48  1  0  0  0  0
 45 44  1  0  0  0  0
 45 46  1  0  0  0  0
 46 43  1  0  0  0  0
 48 53  1  0  0  0  0
 48 47  1  0  0  0  0
 49 50  2  0  0  0  0
 51 46  2  0  0  0  0
 51 49  1  0  0  0  0
 52 49  1  0  0  0  0
 53 54  1  0  0  0  0
M  END
>  <MODEL>
3

>  <REMARK>
 VINA RESULT:      -7.3      3.252      8.924
  Name = 
  17 active torsions:
  status: ('A' for Active; 'I' for Inactive)
    1  A    between atoms: C_1  and  C_54
    2  A    between atoms: C_2  and  C_13
    3  A    between atoms: C_3  and  C_17
    4  A    between atoms: C_3  and  C_18
    5  A    between atoms: C_6  and  C_9
    6  A    between atoms: C_6  and  C_48
    7  A    between atoms: C_7  and  C_17
    8  A    between atoms: C_8  and  C_20
    9  A    between atoms: C_8  and  C_53
   10  A    between atoms: C_13  and  C_44
   11  A    between atoms: C_18  and  O_26
   12  A    between atoms: C_20  and  C_48
   13  A    between atoms: O_26  and  C_29
   14  A    between atoms: C_37  and  C_53
   15  A    between atoms: C_38  and  O_47
   16  A    between atoms: N_42  and  C_45
   17  A    between atoms: C_43  and  C_50
                            x       y       z     vdW  Elec       q    Type
                         _______ _______ _______ _____ _____    ______ ____

>  <TORSDO>
F 17

$$$$
=
 OpenBabel11062412113D

 54 59  0  0  1  0  0  0  0  0999 V2000
  188.8300  174.0780  137.1800 C   0  0  0  0  0  2  0  0  0  0  0  0
  186.9020  175.4800  135.3210 C   0  0  1  0  0  3  0  0  0  0  0  0
  185.9320  171.1440  135.1190 O   0  0  0  0  0  1  0  0  0  0  0  0
  185.9430  171.9920  136.1800 N   0  0  0  0  0  0  0  0  0  0  0  0
  187.8480  173.4450  136.2120 C   0  0  1  0  0  3  0  0  0  0  0  0
  185.5850  173.3150  135.6670 C   0  0  0  0  0  2  0  0  0  0  0  0
  189.0440  175.5900  136.9070 C   0  0  1  0  0  3  0  0  0  0  0  0
  188.1460  176.2550  135.8150 C   0  0  1  0  0  3  0  0  0  0  0  0
  187.3330  172.0870  136.6360 C   0  0  0  0  0  2  0  0  0  0  0  0
  186.6190  174.2740  136.2000 C   0  0  2  0  0  3  0  0  0  0  0  0
  189.0430  178.2530  134.5940 C   0  0  0  0  0  1  0  0  0  0  0  0
  190.2460  176.1880  134.6340 O   0  0  0  0  0  1  0  0  0  0  0  0
  188.9600  176.7380  134.6170 C   0  0  1  0  0  3  0  0  0  0  0  0
  188.8820  176.3660  138.2090 C   0  0  0  0  0  2  0  0  0  0  0  0
  190.1560  177.0360  138.6340 C   0  0  0  0  0  0  0  0  0  0  0  0
  191.2540  176.9300  137.8800 C   0  0  0  0  0  2  0  0  0  0  0  0
  190.2880  177.4720  140.0640 C   0  0  0  0  0  2  0  0  0  0  0  0
  190.4180  176.2580  140.9690 C   0  0  0  0  0  2  0  0  0  0  0  0
  190.8530  176.7070  142.3580 C   0  0  1  0  0  3  0  0  0  0  0  0
  191.2830  178.0340  142.3130 O   0  0  0  0  0  1  0  0  0  0  0  0
  188.8220  177.0900  145.6520 C   0  0  1  0  0  3  0  0  0  0  0  0
  188.6020  176.1270  142.9410 O   0  0  0  0  0  0  0  0  0  0  0  0
  191.2240  176.9320  145.3460 C   0  0  0  0  0  2  0  0  0  0  0  0
  189.7240  176.5520  143.3340 C   0  0  0  0  0  0  0  0  0  0  0  0
  189.9180  176.8730  144.7190 N   0  0  0  0  0  0  0  0  0  0  0  0
  190.9710  176.9940  146.8430 C   0  0  1  0  0  3  0  0  0  0  0  0
  189.4820  177.3330  147.0040 C   0  0  2  0  0  3  0  0  0  0  0  0
  191.2690  175.7450  147.4000 O   0  0  0  0  0  1  0  0  0  0  0  0
  188.0180  177.4270  148.6610 C   0  0  0  0  0  1  0  0  0  0  0  0
  188.8670  176.5500  147.9830 O   0  0  0  0  0  0  0  0  0  0  0  0
  188.0400  178.3370  145.2340 C   0  0  0  0  0  2  0  0  0  0  0  0
  186.0730  178.4330  143.6960 C   0  0  0  0  0  2  0  0  0  0  0  0
  184.5700  178.1900  143.5660 C   0  0  0  0  0  2  0  0  0  0  0  0
  183.8100  178.9810  144.6330 C   0  0  0  0  0  2  0  0  0  0  0  0
  185.7940  178.8430  146.1500 C   0  0  0  0  0  2  0  0  0  0  0  0
  184.2930  178.5880  146.0240 C   0  0  0  0  0  2  0  0  0  0  0  0
  186.5540  178.0480  145.0900 C   0  0  0  0  0  3  0  0  0  0  0  0
  185.7900  176.3300  135.2980 O   0  0  0  0  0  0  0  0  0  0  0  0
  185.8660  177.0580  136.4890 C   0  0  0  0  0  2  0  0  0  0  0  0
  184.7380  176.6600  137.4220 C   0  0  0  0  0  2  0  0  0  0  0  0
  184.3760  177.8120  138.3410 C   0  0  0  0  0  2  0  0  0  0  0  0
  182.8730  177.8290  138.5450 C   0  0  2  0  0  3  0  0  0  0  0  0
  179.9340  176.6340  139.2480 C   0  0  0  0  0  3  0  0  0  0  0  0
  182.5720  177.5910  140.0150 C   0  0  2  0  0  3  0  0  0  0  0  0
  182.3990  176.4550  138.9910 C   0  0  1  0  0  3  0  0  0  0  0  0
  180.9810  176.2150  138.5220 C   0  0  0  0  0  0  0  0  0  0  0  0
  180.1300  177.3530  140.5420 C   0  0  0  0  0  2  0  0  0  0  0  0
  181.2820  178.3330  140.3880 C   0  0  1  0  0  3  0  0  0  0  0  0
  180.2740  174.1870  137.1100 C   0  0  0  0  0  0  0  0  0  0  0  0
  179.8650  173.5040  138.0870 O   0  0  0  0  0  0  0  0  0  0  0  0
  180.7970  175.5120  137.2840 N   0  0  0  0  0  2  0  0  0  0  0  0
  180.1970  173.6160  135.7410 C   0  0  0  0  0  1  0  0  0  0  0  0
  181.4740  179.0930  141.6830 C   0  0  0  0  0  2  0  0  0  0  0  0
  181.1850  178.2800  142.7630 F   0  0  0  0  0  0  0  0  0  0  0  0
  2 38  1  1  0  0  0
  2  8  1  0  0  0  0
  2 10  1  0  0  0  0
  3  4  1  0  0  0  0
  4  9  1  0  0  0  0
  5  9  1  1  0  0  0
  5  1  1  0  0  0  0
  6  4  1  0  0  0  0
  7  1  1  0  0  0  0
  7 14  1  1  0  0  0
  8 13  1  6  0  0  0
  8  7  1  0  0  0  0
 10  6  1  6  0  0  0
 10  5  1  0  0  0  0
 13 11  1  1  0  0  0
 13 12  1  0  0  0  0
 14 15  1  0  0  0  0
 15 17  1  0  0  0  0
 16 15  2  0  0  0  0
 17 18  1  0  0  0  0
 18 19  1  0  0  0  0
 19 20  1  6  0  0  0
 19 24  1  0  0  0  0
 21 31  1  6  0  0  0
 21 27  1  0  0  0  0
 22 24  2  0  0  0  0
 23 26  1  0  0  0  0
 24 25  1  0  0  0  0
 25 23  1  0  0  0  0
 25 21  1  0  0  0  0
 26 27  1  0  0  0  0
 26 28  1  1  0  0  0
 27 30  1  1  0  0  0
 30 29  1  0  0  0  0
 32 37  1  0  0  0  0
 33 32  1  0  0  0  0
 33 34  1  0  0  0  0
 34 36  1  0  0  0  0
 36 35  1  0  0  0  0
 37 31  1  0  0  0  0
 37 35  1  0  0  0  0
 38 39  1  0  0  0  0
 39 40  1  0  0  0  0
 40 41  1  0  0  0  0
 42 41  1  1  0  0  0
 42 45  1  0  0  0  0
 42 44  1  0  0  0  0
 43 47  1  0  0  0  0
 44 48  1  0  0  0  0
 45 44  1  0  0  0  0
 46 45  1  0  0  0  0
 46 43  2  0  0  0  0
 48 47  1  0  0  0  0
 48 53  1  0  0  0  0
 49 51  1  0  0  0  0
 49 50  2  0  0  0  0
 51 46  1  0  0  0  0
 52 49  1  0  0  0  0
 53 54  1  0  0  0  0
M  END
>  <MODEL>
4

>  <REMARK>
 VINA RESULT:      -7.2      2.431      2.982
  Name = 
  17 active torsions:
  status: ('A' for Active; 'I' for Inactive)
    1  A    between atoms: C_1  and  C_54
    2  A    between atoms: C_2  and  C_13
    3  A    between atoms: C_3  and  C_17
    4  A    between atoms: C_3  and  C_18
    5  A    between atoms: C_6  and  C_9
    6  A    between atoms: C_6  and  C_48
    7  A    between atoms: C_7  and  C_17
    8  A    between atoms: C_8  and  C_20
    9  A    between atoms: C_8  and  C_53
   10  A    between atoms: C_13  and  C_44
   11  A    between atoms: C_18  and  O_26
   12  A    between atoms: C_20  and  C_48
   13  A    between atoms: O_26  and  C_29
   14  A    between atoms: C_37  and  C_53
   15  A    between atoms: C_38  and  O_47
   16  A    between atoms: N_42  and  C_45
   17  A    between atoms: C_43  and  C_50
                            x       y       z     vdW  Elec       q    Type
                         _______ _______ _______ _____ _____    ______ ____

>  <TORSDO>
F 17

$$$$
=
 OpenBabel11062412113D

 54 59  0  0  1  0  0  0  0  0999 V2000
  190.9030  176.5640  135.1740 C   0  0  0  0  0  2  0  0  0  0  0  0
  190.8700  175.3300  137.9320 C   0  0  1  0  0  3  0  0  0  0  0  0
  195.1410  175.6190  136.7230 O   0  0  0  0  0  1  0  0  0  0  0  0
  194.1980  176.5880  136.8540 N   0  0  0  0  0  0  0  0  0  0  0  0
  192.0710  175.9720  135.9390 C   0  0  1  0  0  3  0  0  0  0  0  0
  193.2910  176.1540  137.9170 C   0  0  0  0  0  2  0  0  0  0  0  0
  189.5320  176.1760  135.7860 C   0  0  1  0  0  3  0  0  0  0  0  0
  189.5470  175.3850  137.1330 C   0  0  1  0  0  3  0  0  0  0  0  0
  193.4140  176.5910  135.6160 C   0  0  0  0  0  2  0  0  0  0  0  0
  191.8920  176.3030  137.3730 C   0  0  2  0  0  3  0  0  0  0  0  0
  188.5760  173.7080  135.5420 C   0  0  0  0  0  1  0  0  0  0  0  0
  189.9080  173.0170  137.4020 O   0  0  0  0  0  1  0  0  0  0  0  0
  188.9810  173.9760  136.9790 C   0  0  1  0  0  3  0  0  0  0  0  0
  188.6860  177.4300  135.9670 C   0  0  0  0  0  2  0  0  0  0  0  0
  187.4730  177.4310  135.0840 C   0  0  0  0  0  0  0  0  0  0  0  0
  187.0000  178.5810  134.5940 C   0  0  0  0  0  2  0  0  0  0  0  0
  186.5900  176.2170  135.0850 C   0  0  0  0  0  2  0  0  0  0  0  0
  185.8130  176.1390  136.3890 C   0  0  0  0  0  2  0  0  0  0  0  0
  184.4770  176.8520  136.2240 C   0  0  1  0  0  3  0  0  0  0  0  0
  183.8880  176.4790  135.0140 O   0  0  0  0  0  1  0  0  0  0  0  0
  182.2430  177.4200  139.3560 C   0  0  1  0  0  3  0  0  0  0  0  0
  183.0030  175.4040  137.4380 O   0  0  0  0  0  0  0  0  0  0  0  0
  184.2520  178.5980  138.6770 C   0  0  0  0  0  2  0  0  0  0  0  0
  183.5680  176.5300  137.3730 C   0  0  0  0  0  0  0  0  0  0  0  0
  183.3490  177.4960  138.4120 N   0  0  0  0  0  0  0  0  0  0  0  0
  183.8290  179.1790  140.0150 C   0  0  1  0  0  3  0  0  0  0  0  0
  182.4390  178.5950  140.3060 C   0  0  2  0  0  3  0  0  0  0  0  0
  184.7570  178.7890  140.9870 O   0  0  0  0  0  1  0  0  0  0  0  0
  181.1960  178.8390  142.1200 C   0  0  0  0  0  1  0  0  0  0  0  0
  182.3160  178.1660  141.6290 O   0  0  0  0  0  0  0  0  0  0  0  0
  180.9220  177.5870  138.6030 C   0  0  0  0  0  2  0  0  0  0  0  0
  180.3530  175.6550  140.0830 C   0  0  0  0  0  2  0  0  0  0  0  0
  179.4720  174.4170  140.2460 C   0  0  0  0  0  2  0  0  0  0  0  0
  179.6410  173.4840  139.0450 C   0  0  0  0  0  2  0  0  0  0  0  0
  180.1850  175.4470  137.5940 C   0  0  0  0  0  2  0  0  0  0  0  0
  179.2940  174.2160  137.7550 C   0  0  0  0  0  2  0  0  0  0  0  0
  180.0110  176.3820  138.7890 C   0  0  0  0  0  3  0  0  0  0  0  0
  190.6230  175.6130  139.2810 O   0  0  0  0  0  0  0  0  0  0  0  0
  189.8200  176.7570  139.2700 C   0  0  0  0  0  2  0  0  0  0  0  0
  189.8820  177.4560  140.6150 C   0  0  0  0  0  2  0  0  0  0  0  0
  188.4890  177.8370  141.0810 C   0  0  0  0  0  2  0  0  0  0  0  0
  188.5370  178.1760  142.5580 C   0  0  2  0  0  3  0  0  0  0  0  0
  188.1370  177.7150  145.7490 C   0  0  0  0  0  3  0  0  0  0  0  0
  189.5410  177.2650  143.2420 C   0  0  2  0  0  3  0  0  0  0  0  0
  188.0310  176.9970  143.3740 C   0  0  1  0  0  3  0  0  0  0  0  0
  187.3950  177.4840  144.6560 C   0  0  0  0  0  0  0  0  0  0  0  0
  189.6150  177.5020  145.7400 C   0  0  0  0  0  2  0  0  0  0  0  0
  190.1740  178.0140  144.4220 C   0  0  1  0  0  3  0  0  0  0  0  0
  185.2540  178.8070  145.1770 C   0  0  0  0  0  0  0  0  0  0  0  0
  185.8530  179.8120  145.6500 O   0  0  0  0  0  0  0  0  0  0  0  0
  185.9730  177.6750  144.6660 N   0  0  0  0  0  2  0  0  0  0  0  0
  183.7700  178.8020  145.1310 C   0  0  0  0  0  1  0  0  0  0  0  0
  191.6770  177.8340  144.4080 C   0  0  0  0  0  2  0  0  0  0  0  0
  192.1270  177.6540  143.1140 F   0  0  0  0  0  0  0  0  0  0  0  0
  1  7  1  0  0  0  0
  2 38  1  1  0  0  0
  3  4  1  0  0  0  0
  4  6  1  0  0  0  0
  5  1  1  6  0  0  0
  5 10  1  0  0  0  0
  7 14  1  1  0  0  0
  7  8  1  0  0  0  0
  8 13  1  6  0  0  0
  8  2  1  0  0  0  0
  9  5  1  0  0  0  0
  9  4  1  0  0  0  0
 10  6  1  1  0  0  0
 10  2  1  0  0  0  0
 13 11  1  6  0  0  0
 13 12  1  0  0  0  0
 15 17  1  0  0  0  0
 15 14  1  0  0  0  0
 16 15  2  0  0  0  0
 17 18  1  0  0  0  0
 19 20  1  6  0  0  0
 19 18  1  0  0  0  0
 19 24  1  0  0  0  0
 21 31  1  6  0  0  0
 21 27  1  0  0  0  0
 23 26  1  0  0  0  0
 24 22  2  0  0  0  0
 24 25  1  0  0  0  0
 25 23  1  0  0  0  0
 25 21  1  0  0  0  0
 26 27  1  0  0  0  0
 26 28  1  1  0  0  0
 27 30  1  1  0  0  0
 30 29  1  0  0  0  0
 31 37  1  0  0  0  0
 32 33  1  0  0  0  0
 34 33  1  0  0  0  0
 35 36  1  0  0  0  0
 35 37  1  0  0  0  0
 36 34  1  0  0  0  0
 37 32  1  0  0  0  0
 39 38  1  0  0  0  0
 39 40  1  0  0  0  0
 40 41  1  0  0  0  0
 42 41  1  6  0  0  0
 42 44  1  0  0  0  0
 42 45  1  0  0  0  0
 44 45  1  0  0  0  0
 44 48  1  0  0  0  0
 45 46  1  0  0  0  0
 46 51  1  0  0  0  0
 46 43  2  0  0  0  0
 47 43  1  0  0  0  0
 48 47  1  0  0  0  0
 49 50  2  0  0  0  0
 51 49  1  0  0  0  0
 52 49  1  0  0  0  0
 53 48  1  0  0  0  0
 54 53  1  0  0  0  0
M  END
>  <MODEL>
5

>  <REMARK>
 VINA RESULT:      -7.2      3.372      8.423
  Name = 
  17 active torsions:
  status: ('A' for Active; 'I' for Inactive)
    1  A    between atoms: C_1  and  C_54
    2  A    between atoms: C_2  and  C_13
    3  A    between atoms: C_3  and  C_17
    4  A    between atoms: C_3  and  C_18
    5  A    between atoms: C_6  and  C_9
    6  A    between atoms: C_6  and  C_48
    7  A    between atoms: C_7  and  C_17
    8  A    between atoms: C_8  and  C_20
    9  A    between atoms: C_8  and  C_53
   10  A    between atoms: C_13  and  C_44
   11  A    between atoms: C_18  and  O_26
   12  A    between atoms: C_20  and  C_48
   13  A    between atoms: O_26  and  C_29
   14  A    between atoms: C_37  and  C_53
   15  A    between atoms: C_38  and  O_47
   16  A    between atoms: N_42  and  C_45
   17  A    between atoms: C_43  and  C_50
                            x       y       z     vdW  Elec       q    Type
                         _______ _______ _______ _____ _____    ______ ____

>  <TORSDO>
F 17

$$$$
=
 OpenBabel11062412113D

 54 59  0  0  1  0  0  0  0  0999 V2000
  190.8910  176.6700  135.2070 C   0  0  0  0  0  2  0  0  0  0  0  0
  190.6760  175.5860  138.0200 C   0  0  1  0  0  3  0  0  0  0  0  0
  194.9650  175.2990  136.8760 O   0  0  0  0  0  1  0  0  0  0  0  0
  194.1450  176.3800  136.9440 N   0  0  0  0  0  0  0  0  0  0  0  0
  191.9700  175.9800  136.0210 C   0  0  1  0  0  3  0  0  0  0  0  0
  193.1780  176.1110  138.0100 C   0  0  0  0  0  2  0  0  0  0  0  0
  189.4760  176.4800  135.8120 C   0  0  1  0  0  3  0  0  0  0  0  0
  189.3790  175.7600  137.1950 C   0  0  1  0  0  3  0  0  0  0  0  0
  193.3820  176.4160  135.6930 C   0  0  0  0  0  2  0  0  0  0  0  0
  191.8150  176.4010  137.4340 C   0  0  2  0  0  3  0  0  0  0  0  0
  188.2000  174.1530  135.6750 C   0  0  0  0  0  1  0  0  0  0  0  0
  189.4590  173.3780  137.5530 O   0  0  0  0  0  1  0  0  0  0  0  0
  188.6480  174.4240  137.0990 C   0  0  1  0  0  3  0  0  0  0  0  0
  188.7860  177.8350  135.9180 C   0  0  0  0  0  2  0  0  0  0  0  0
  187.3160  177.7040  136.1900 C   0  0  0  0  0  0  0  0  0  0  0  0
  186.4750  177.3890  135.2010 C   0  0  0  0  0  2  0  0  0  0  0  0
  186.7690  178.3070  137.4520 C   0  0  0  0  0  2  0  0  0  0  0  0
  185.2710  178.0610  137.5390 C   0  0  0  0  0  2  0  0  0  0  0  0
  184.7880  178.3820  138.9480 C   0  0  1  0  0  3  0  0  0  0  0  0
  184.8870  179.7550  139.1810 O   0  0  0  0  0  1  0  0  0  0  0  0
  180.9220  178.2640  138.5470 C   0  0  1  0  0  3  0  0  0  0  0  0
  183.1410  176.7920  139.6550 O   0  0  0  0  0  0  0  0  0  0  0  0
  182.4010  180.1880  138.5500 C   0  0  0  0  0  2  0  0  0  0  0  0
  183.3740  177.9170  139.1330 C   0  0  0  0  0  0  0  0  0  0  0  0
  182.2800  178.7550  138.7320 N   0  0  0  0  0  0  0  0  0  0  0  0
  180.9830  180.7190  138.4320 C   0  0  1  0  0  3  0  0  0  0  0  0
  180.0920  179.4910  138.1910 C   0  0  2  0  0  3  0  0  0  0  0  0
  180.6450  181.3630  139.6280 O   0  0  0  0  0  1  0  0  0  0  0  0
  179.0670  178.4610  139.8590 C   0  0  0  0  0  1  0  0  0  0  0  0
  178.9310  179.5240  138.9660 O   0  0  0  0  0  0  0  0  0  0  0  0
  180.8950  177.2750  137.3800 C   0  0  0  0  0  2  0  0  0  0  0  0
  181.5120  174.8780  137.0340 C   0  0  0  0  0  2  0  0  0  0  0  0
  181.2520  173.4400  137.4780 C   0  0  0  0  0  2  0  0  0  0  0  0
  179.7650  173.1040  137.3480 C   0  0  0  0  0  2  0  0  0  0  0  0
  179.1890  175.5100  137.7210 C   0  0  0  0  0  2  0  0  0  0  0  0
  178.9320  174.0750  138.1770 C   0  0  0  0  0  2  0  0  0  0  0  0
  180.6720  175.8470  137.8560 C   0  0  0  0  0  3  0  0  0  0  0  0
  190.4480  175.9640  139.3490 O   0  0  0  0  0  0  0  0  0  0  0  0
  189.7890  177.1930  139.2690 C   0  0  0  0  0  2  0  0  0  0  0  0
  189.6880  177.8270  140.6440 C   0  0  0  0  0  2  0  0  0  0  0  0
  189.3530  176.7790  141.6890 C   0  0  0  0  0  2  0  0  0  0  0  0
  189.1720  177.4600  143.0320 C   0  0  2  0  0  3  0  0  0  0  0  0
  187.9150  177.9690  145.9850 C   0  0  0  0  0  3  0  0  0  0  0  0
  189.6160  176.5100  144.1310 C   0  0  2  0  0  3  0  0  0  0  0  0
  188.1190  176.7240  143.8450 C   0  0  1  0  0  3  0  0  0  0  0  0
  187.4120  177.6840  144.7740 C   0  0  0  0  0  0  0  0  0  0  0  0
  189.1890  177.3510  146.4570 C   0  0  0  0  0  2  0  0  0  0  0  0
  190.1780  177.3260  145.3020 C   0  0  1  0  0  3  0  0  0  0  0  0
  184.9940  178.4940  145.0970 C   0  0  0  0  0  0  0  0  0  0  0  0
  184.9470  178.2260  146.3280 O   0  0  0  0  0  0  0  0  0  0  0  0
  186.1800  178.2670  144.3220 N   0  0  0  0  0  2  0  0  0  0  0  0
  183.7990  179.0770  144.4340 C   0  0  0  0  0  1  0  0  0  0  0  0
  191.4870  176.7300  145.7730 C   0  0  0  0  0  2  0  0  0  0  0  0
  191.2760  175.9110  146.8660 F   0  0  0  0  0  0  0  0  0  0  0  0
  1  7  1  0  0  0  0
  2 38  1  1  0  0  0
  3  4  1  0  0  0  0
  4  6  1  0  0  0  0
  5  1  1  6  0  0  0
  5 10  1  0  0  0  0
  7 14  1  1  0  0  0
  7  8  1  0  0  0  0
  8 13  1  6  0  0  0
  8  2  1  0  0  0  0
  9  5  1  0  0  0  0
  9  4  1  0  0  0  0
 10  6  1  1  0  0  0
 10  2  1  0  0  0  0
 13 11  1  6  0  0  0
 13 12  1  0  0  0  0
 14 15  1  0  0  0  0
 15 17  1  0  0  0  0
 16 15  2  0  0  0  0
 17 18  1  0  0  0  0
 18 19  1  0  0  0  0
 19 24  1  0  0  0  0
 19 20  1  6  0  0  0
 21 31  1  6  0  0  0
 21 25  1  0  0  0  0
 23 25  1  0  0  0  0
 24 22  2  0  0  0  0
 25 24  1  0  0  0  0
 26 23  1  0  0  0  0
 26 28  1  1  0  0  0
 27 26  1  0  0  0  0
 27 21  1  0  0  0  0
 27 30  1  1  0  0  0
 30 29  1  0  0  0  0
 31 37  1  0  0  0  0
 32 33  1  0  0  0  0
 32 37  1  0  0  0  0
 34 33  1  0  0  0  0
 34 36  1  0  0  0  0
 35 37  1  0  0  0  0
 35 36  1  0  0  0  0
 39 38  1  0  0  0  0
 39 40  1  0  0  0  0
 40 41  1  0  0  0  0
 42 41  1  6  0  0  0
 42 45  1  0  0  0  0
 42 44  1  0  0  0  0
 43 47  1  0  0  0  0
 44 48  1  0  0  0  0
 45 44  1  0  0  0  0
 45 46  1  0  0  0  0
 46 43  2  0  0  0  0
 48 53  1  0  0  0  0
 48 47  1  0  0  0  0
 49 50  2  0  0  0  0
 51 46  1  0  0  0  0
 51 49  1  0  0  0  0
 52 49  1  0  0  0  0
 53 54  1  0  0  0  0
M  END
>  <MODEL>
6

>  <REMARK>
 VINA RESULT:      -7.1      3.282      8.961
  Name = 
  17 active torsions:
  status: ('A' for Active; 'I' for Inactive)
    1  A    between atoms: C_1  and  C_54
    2  A    between atoms: C_2  and  C_13
    3  A    between atoms: C_3  and  C_17
    4  A    between atoms: C_3  and  C_18
    5  A    between atoms: C_6  and  C_9
    6  A    between atoms: C_6  and  C_48
    7  A    between atoms: C_7  and  C_17
    8  A    between atoms: C_8  and  C_20
    9  A    between atoms: C_8  and  C_53
   10  A    between atoms: C_13  and  C_44
   11  A    between atoms: C_18  and  O_26
   12  A    between atoms: C_20  and  C_48
   13  A    between atoms: O_26  and  C_29
   14  A    between atoms: C_37  and  C_53
   15  A    between atoms: C_38  and  O_47
   16  A    between atoms: N_42  and  C_45
   17  A    between atoms: C_43  and  C_50
                            x       y       z     vdW  Elec       q    Type
                         _______ _______ _______ _____ _____    ______ ____

>  <TORSDO>
F 17

$$$$
=
 OpenBabel11062412113D

 54 59  0  0  1  0  0  0  0  0999 V2000
  190.6400  176.4650  134.9000 C   0  0  0  0  0  2  0  0  0  0  0  0
  190.8370  175.3210  137.6910 C   0  0  1  0  0  3  0  0  0  0  0  0
  194.9740  175.3960  136.0570 O   0  0  0  0  0  1  0  0  0  0  0  0
  194.0860  176.4060  136.2460 N   0  0  0  0  0  0  0  0  0  0  0  0
  191.8570  175.8490  135.5680 C   0  0  1  0  0  3  0  0  0  0  0  0
  193.2740  176.0440  137.4080 C   0  0  0  0  0  2  0  0  0  0  0  0
  189.3240  176.1520  135.6580 C   0  0  1  0  0  3  0  0  0  0  0  0
  189.4440  175.4040  137.0250 C   0  0  1  0  0  3  0  0  0  0  0  0
  193.1830  176.4020  135.0920 C   0  0  0  0  0  2  0  0  0  0  0  0
  191.8350  176.2330  136.9990 C   0  0  2  0  0  3  0  0  0  0  0  0
  188.4600  173.6280  135.5540 C   0  0  0  0  0  1  0  0  0  0  0  0
  189.6680  173.0600  137.5360 O   0  0  0  0  0  1  0  0  0  0  0  0
  188.8120  174.0160  136.9780 C   0  0  1  0  0  3  0  0  0  0  0  0
  188.5480  177.4460  135.8770 C   0  0  0  0  0  2  0  0  0  0  0  0
  187.2230  177.4400  135.1740 C   0  0  0  0  0  0  0  0  0  0  0  0
  186.7650  178.5540  134.5950 C   0  0  0  0  0  2  0  0  0  0  0  0
  186.2670  176.3210  135.4660 C   0  0  0  0  0  2  0  0  0  0  0  0
  184.8350  176.8280  135.3990 C   0  0  0  0  0  2  0  0  0  0  0  0
  184.1540  176.5960  136.7420 C   0  0  1  0  0  3  0  0  0  0  0  0
  184.8240  175.5930  137.4450 O   0  0  0  0  0  1  0  0  0  0  0  0
  182.6900  179.6320  138.6820 C   0  0  1  0  0  3  0  0  0  0  0  0
  185.1770  178.2960  138.0860 O   0  0  0  0  0  0  0  0  0  0  0  0
  181.7860  178.4690  136.7540 C   0  0  0  0  0  2  0  0  0  0  0  0
  184.1240  177.8670  137.5380 C   0  0  0  0  0  0  0  0  0  0  0  0
  182.9010  178.6080  137.6690 N   0  0  0  0  0  0  0  0  0  0  0  0
  180.8450  179.6230  137.0570 C   0  0  1  0  0  3  0  0  0  0  0  0
  181.2990  180.1910  138.4090 C   0  0  2  0  0  3  0  0  0  0  0  0
  180.9640  180.5780  136.0400 O   0  0  0  0  0  1  0  0  0  0  0  0
  180.0390  181.9810  138.7330 C   0  0  0  0  0  1  0  0  0  0  0  0
  181.3370  181.5870  138.4060 O   0  0  0  0  0  0  0  0  0  0  0  0
  182.7170  178.9850  140.0680 C   0  0  0  0  0  2  0  0  0  0  0  0
  181.2980  179.7220  141.9890 C   0  0  0  0  0  2  0  0  0  0  0  0
  179.9190  179.6230  142.6400 C   0  0  0  0  0  2  0  0  0  0  0  0
  179.5580  178.1590  142.8990 C   0  0  0  0  0  2  0  0  0  0  0  0
  180.9710  177.4660  140.9550 C   0  0  0  0  0  2  0  0  0  0  0  0
  179.5860  177.3710  141.5950 C   0  0  0  0  0  2  0  0  0  0  0  0
  181.3300  178.9270  140.6900 C   0  0  0  0  0  3  0  0  0  0  0  0
  190.7370  175.6570  139.0460 O   0  0  0  0  0  0  0  0  0  0  0  0
  189.9440  176.8070  139.0770 C   0  0  0  0  0  2  0  0  0  0  0  0
  189.9420  177.4080  140.4710 C   0  0  0  0  0  2  0  0  0  0  0  0
  189.0610  176.5940  141.3990 C   0  0  0  0  0  2  0  0  0  0  0  0
  188.9590  177.3060  142.7350 C   0  0  2  0  0  3  0  0  0  0  0  0
  187.8690  177.8900  145.7390 C   0  0  0  0  0  2  0  0  0  0  0  0
  189.4560  176.3770  143.8290 C   0  0  2  0  0  3  0  0  0  0  0  0
  187.9470  176.5970  143.6200 C   0  0  1  0  0  3  0  0  0  0  0  0
  187.2980  177.5830  144.5650 C   0  0  0  0  0  0  0  0  0  0  0  0
  189.1630  177.2730  146.1550 C   0  0  0  0  0  2  0  0  0  0  0  0
  190.0860  177.2140  144.9490 C   0  0  1  0  0  3  0  0  0  0  0  0
  185.1320  178.8990  144.9940 C   0  0  0  0  0  0  0  0  0  0  0  0
  185.3870  179.1470  146.2040 O   0  0  0  0  0  0  0  0  0  0  0  0
  186.0480  178.1650  144.1670 N   0  0  0  0  0  0  0  0  0  0  0  0
  183.8620  179.3920  144.4030 C   0  0  0  0  0  1  0  0  0  0  0  0
  191.4160  176.6180  145.3610 C   0  0  0  0  0  2  0  0  0  0  0  0
  191.8090  177.1250  146.5850 F   0  0  0  0  0  0  0  0  0  0  0  0
  1  7  1  0  0  0  0
  2 38  1  1  0  0  0
  3  4  1  0  0  0  0
  4  6  1  0  0  0  0
  5  1  1  6  0  0  0
  5 10  1  0  0  0  0
  7 14  1  1  0  0  0
  7  8  1  0  0  0  0
  8 13  1  6  0  0  0
  8  2  1  0  0  0  0
  9  5  1  0  0  0  0
  9  4  1  0  0  0  0
 10  6  1  1  0  0  0
 10  2  1  0  0  0  0
 13 11  1  6  0  0  0
 13 12  1  0  0  0  0
 15 17  1  0  0  0  0
 15 14  1  0  0  0  0
 16 15  2  0  0  0  0
 18 17  1  0  0  0  0
 18 19  1  0  0  0  0
 19 20  1  1  0  0  0
 19 24  1  0  0  0  0
 21 31  1  1  0  0  0
 23 26  1  0  0  0  0
 23 25  1  0  0  0  0
 24 25  1  0  0  0  0
 24 22  2  0  0  0  0
 25 21  1  0  0  0  0
 26 28  1  6  0  0  0
 26 27  1  0  0  0  0
 27 30  1  6  0  0  0
 27 21  1  0  0  0  0
 30 29  1  0  0  0  0
 31 37  1  0  0  0  0
 32 33  1  0  0  0  0
 33 34  1  0  0  0  0
 35 36  1  0  0  0  0
 36 34  1  0  0  0  0
 37 35  1  0  0  0  0
 37 32  1  0  0  0  0
 38 39  1  0  0  0  0
 39 40  1  0  0  0  0
 40 41  1  0  0  0  0
 42 41  1  6  0  0  0
 42 45  1  0  0  0  0
 42 44  1  0  0  0  0
 43 47  1  0  0  0  0
 44 48  1  0  0  0  0
 45 44  1  0  0  0  0
 45 46  1  0  0  0  0
 46 43  1  0  0  0  0
 48 53  1  0  0  0  0
 48 47  1  0  0  0  0
 49 50  2  0  0  0  0
 51 46  2  0  0  0  0
 51 49  1  0  0  0  0
 52 49  1  0  0  0  0
 53 54  1  0  0  0  0
M  END
>  <MODEL>
7

>  <REMARK>
 VINA RESULT:      -7.1      2.982      8.682
  Name = 
  17 active torsions:
  status: ('A' for Active; 'I' for Inactive)
    1  A    between atoms: C_1  and  C_54
    2  A    between atoms: C_2  and  C_13
    3  A    between atoms: C_3  and  C_17
    4  A    between atoms: C_3  and  C_18
    5  A    between atoms: C_6  and  C_9
    6  A    between atoms: C_6  and  C_48
    7  A    between atoms: C_7  and  C_17
    8  A    between atoms: C_8  and  C_20
    9  A    between atoms: C_8  and  C_53
   10  A    between atoms: C_13  and  C_44
   11  A    between atoms: C_18  and  O_26
   12  A    between atoms: C_20  and  C_48
   13  A    between atoms: O_26  and  C_29
   14  A    between atoms: C_37  and  C_53
   15  A    between atoms: C_38  and  O_47
   16  A    between atoms: N_42  and  C_45
   17  A    between atoms: C_43  and  C_50
                            x       y       z     vdW  Elec       q    Type
                         _______ _______ _______ _____ _____    ______ ____

>  <TORSDO>
F 17

$$$$
=
 OpenBabel11062412113D

 54 59  0  0  1  0  0  0  0  0999 V2000
  188.4780  174.3640  137.1690 C   0  0  0  0  0  2  0  0  0  0  0  0
  186.1530  176.0210  136.1790 C   0  0  1  0  0  3  0  0  0  0  0  0
  184.8770  171.7670  135.9250 O   0  0  0  0  0  1  0  0  0  0  0  0
  185.2880  172.4980  136.9940 N   0  0  0  0  0  0  0  0  0  0  0  0
  187.1950  173.8720  136.5260 C   0  0  1  0  0  3  0  0  0  0  0  0
  184.8740  173.8800  136.7450 C   0  0  0  0  0  2  0  0  0  0  0  0
  188.6940  175.8870  136.9760 C   0  0  1  0  0  3  0  0  0  0  0  0
  187.5390  176.6960  136.3030 C   0  0  1  0  0  3  0  0  0  0  0  0
  186.7540  172.4950  136.9740 C   0  0  0  0  0  2  0  0  0  0  0  0
  186.0880  174.7410  136.9920 C   0  0  2  0  0  3  0  0  0  0  0  0
  187.1010  178.4770  134.5940 C   0  0  0  0  0  1  0  0  0  0  0  0
  189.3050  177.6280  134.9540 O   0  0  0  0  0  1  0  0  0  0  0  0
  187.9520  177.2730  134.9520 C   0  0  1  0  0  3  0  0  0  0  0  0
  189.0150  176.5270  138.3220 C   0  0  0  0  0  2  0  0  0  0  0  0
  190.4780  176.8210  138.4770 C   0  0  0  0  0  0  0  0  0  0  0  0
  191.2570  176.9410  137.3980 C   0  0  0  0  0  2  0  0  0  0  0  0
  191.1140  176.5880  139.8170 C   0  0  0  0  0  2  0  0  0  0  0  0
  190.0420  176.3260  140.8620 C   0  0  0  0  0  2  0  0  0  0  0  0
  190.6130  176.5900  142.2500 C   0  0  1  0  0  3  0  0  0  0  0  0
  191.2110  177.8520  142.2820 O   0  0  0  0  0  1  0  0  0  0  0  0
  188.7640  177.1260  145.6280 C   0  0  1  0  0  3  0  0  0  0  0  0
  188.3880  176.0730  142.9690 O   0  0  0  0  0  0  0  0  0  0  0  0
  191.1440  176.9130  145.2050 C   0  0  0  0  0  2  0  0  0  0  0  0
  189.5350  176.4910  143.2870 C   0  0  0  0  0  0  0  0  0  0  0  0
  189.8060  176.8560  144.6480 N   0  0  0  0  0  0  0  0  0  0  0  0
  190.9700  177.0320  146.7090 C   0  0  1  0  0  3  0  0  0  0  0  0
  189.4970  177.4040  146.9340 C   0  0  2  0  0  3  0  0  0  0  0  0
  191.2760  175.7980  147.2950 O   0  0  0  0  0  1  0  0  0  0  0  0
  187.9150  177.4910  148.4780 C   0  0  0  0  0  1  0  0  0  0  0  0
  188.9220  176.6680  147.9720 O   0  0  0  0  0  0  0  0  0  0  0  0
  187.9820  178.3720  145.2060 C   0  0  0  0  0  2  0  0  0  0  0  0
  186.0720  178.4200  143.5960 C   0  0  0  0  0  2  0  0  0  0  0  0
  184.5760  178.1660  143.4180 C   0  0  0  0  0  2  0  0  0  0  0  0
  183.7740  178.9780  144.4370 C   0  0  0  0  0  2  0  0  0  0  0  0
  185.7020  178.8860  146.0280 C   0  0  0  0  0  2  0  0  0  0  0  0
  184.2080  178.6200  145.8540 C   0  0  0  0  0  2  0  0  0  0  0  0
  186.5040  178.0710  145.0150 C   0  0  0  0  0  3  0  0  0  0  0  0
  185.1530  176.9080  136.5980 O   0  0  0  0  0  0  0  0  0  0  0  0
  185.4620  177.2000  137.9290 C   0  0  0  0  0  2  0  0  0  0  0  0
  184.5280  178.2700  138.4640 C   0  0  0  0  0  2  0  0  0  0  0  0
  183.1440  178.1140  137.8640 C   0  0  0  0  0  2  0  0  0  0  0  0
  182.3410  177.1470  138.7130 C   0  0  2  0  0  3  0  0  0  0  0  0
  179.6980  175.8630  140.0980 C   0  0  0  0  0  3  0  0  0  0  0  0
  181.4290  176.3360  137.8100 C   0  0  2  0  0  3  0  0  0  0  0  0
  180.8650  177.5020  138.6410 C   0  0  1  0  0  3  0  0  0  0  0  0
  180.1700  177.1070  139.9250 C   0  0  0  0  0  0  0  0  0  0  0  0
  179.8410  174.8260  139.0340 C   0  0  0  0  0  2  0  0  0  0  0  0
  181.2280  174.9440  138.4210 C   0  0  1  0  0  3  0  0  0  0  0  0
  179.8600  179.5220  140.7470 C   0  0  0  0  0  0  0  0  0  0  0  0
  179.7850  180.0260  139.5930 O   0  0  0  0  0  0  0  0  0  0  0  0
  180.0220  178.1090  140.9410 N   0  0  0  0  0  2  0  0  0  0  0  0
  179.7610  180.4080  141.9350 C   0  0  0  0  0  1  0  0  0  0  0  0
  181.4010  173.8780  137.3600 C   0  0  0  0  0  2  0  0  0  0  0  0
  180.5710  174.1320  136.2850 F   0  0  0  0  0  0  0  0  0  0  0  0
  2  8  1  0  0  0  0
  2 38  1  1  0  0  0
  2 10  1  0  0  0  0
  3  4  1  0  0  0  0
  5  9  1  1  0  0  0
  5 10  1  0  0  0  0
  5  1  1  0  0  0  0
  6  4  1  0  0  0  0
  7  1  1  0  0  0  0
  7 14  1  1  0  0  0
  8 13  1  6  0  0  0
  8  7  1  0  0  0  0
  9  4  1  0  0  0  0
 10  6  1  6  0  0  0
 13 11  1  1  0  0  0
 13 12  1  0  0  0  0
 14 15  1  0  0  0  0
 15 17  1  0  0  0  0
 16 15  2  0  0  0  0
 17 18  1  0  0  0  0
 18 19  1  0  0  0  0
 19 20  1  6  0  0  0
 19 24  1  0  0  0  0
 21 31  1  6  0  0  0
 21 27  1  0  0  0  0
 22 24  2  0  0  0  0
 23 26  1  0  0  0  0
 24 25  1  0  0  0  0
 25 23  1  0  0  0  0
 25 21  1  0  0  0  0
 26 27  1  0  0  0  0
 26 28  1  1  0  0  0
 27 30  1  1  0  0  0
 30 29  1  0  0  0  0
 32 37  1  0  0  0  0
 33 32  1  0  0  0  0
 33 34  1  0  0  0  0
 34 36  1  0  0  0  0
 36 35  1  0  0  0  0
 37 31  1  0  0  0  0
 37 35  1  0  0  0  0
 38 39  1  0  0  0  0
 39 40  1  0  0  0  0
 41 40  1  0  0  0  0
 42 41  1  6  0  0  0
 44 48  1  0  0  0  0
 44 45  1  0  0  0  0
 44 42  1  0  0  0  0
 45 42  1  0  0  0  0
 45 46  1  0  0  0  0
 46 43  2  0  0  0  0
 46 51  1  0  0  0  0
 47 43  1  0  0  0  0
 48 47  1  0  0  0  0
 49 51  1  0  0  0  0
 49 52  1  0  0  0  0
 50 49  2  0  0  0  0
 53 48  1  0  0  0  0
 54 53  1  0  0  0  0
M  END
>  <MODEL>
8

>  <REMARK>
 VINA RESULT:      -6.9      1.903      2.538
  Name = 
  17 active torsions:
  status: ('A' for Active; 'I' for Inactive)
    1  A    between atoms: C_1  and  C_54
    2  A    between atoms: C_2  and  C_13
    3  A    between atoms: C_3  and  C_17
    4  A    between atoms: C_3  and  C_18
    5  A    between atoms: C_6  and  C_9
    6  A    between atoms: C_6  and  C_48
    7  A    between atoms: C_7  and  C_17
    8  A    between atoms: C_8  and  C_20
    9  A    between atoms: C_8  and  C_53
   10  A    between atoms: C_13  and  C_44
   11  A    between atoms: C_18  and  O_26
   12  A    between atoms: C_20  and  C_48
   13  A    between atoms: O_26  and  C_29
   14  A    between atoms: C_37  and  C_53
   15  A    between atoms: C_38  and  O_47
   16  A    between atoms: N_42  and  C_45
   17  A    between atoms: C_43  and  C_50
                            x       y       z     vdW  Elec       q    Type
                         _______ _______ _______ _____ _____    ______ ____

>  <TORSDO>
F 17

$$$$
=
 OpenBabel11062412113D

 54 59  0  0  1  0  0  0  0  0999 V2000
  188.9620  177.4130  146.6920 C   0  0  0  0  0  2  0  0  0  0  0  0
  190.9110  177.1640  144.3960 C   0  0  1  0  0  3  0  0  0  0  0  0
  193.1310  176.0110  148.0740 O   0  0  0  0  0  1  0  0  0  0  0  0
  192.0060  175.4830  147.5260 N   0  0  0  0  0  0  0  0  0  0  0  0
  190.4530  177.1420  146.7660 C   0  0  1  0  0  3  0  0  0  0  0  0
  192.1170  175.6620  146.0780 C   0  0  0  0  0  2  0  0  0  0  0  0
  188.5180  177.9210  145.2960 C   0  0  1  0  0  3  0  0  0  0  0  0
  189.5950  177.9430  144.1650 C   0  0  1  0  0  3  0  0  0  0  0  0
  190.8850  176.3210  147.9620 C   0  0  0  0  0  2  0  0  0  0  0  0
  190.8160  176.2720  145.6220 C   0  0  2  0  0  3  0  0  0  0  0  0
  191.3970  179.6530  143.8230 C   0  0  0  0  0  1  0  0  0  0  0  0
  189.4960  179.5580  142.3790 O   0  0  0  0  0  1  0  0  0  0  0  0
  189.9130  179.3610  143.7000 C   0  0  1  0  0  3  0  0  0  0  0  0
  187.3240  177.1040  144.8170 C   0  0  0  0  0  2  0  0  0  0  0  0
  186.2520  177.9620  144.2140 C   0  0  0  0  0  0  0  0  0  0  0  0
  185.2930  178.4800  144.9870 C   0  0  0  0  0  2  0  0  0  0  0  0
  186.0430  177.9030  142.7290 C   0  0  0  0  0  2  0  0  0  0  0  0
  185.0590  178.9790  142.2980 C   0  0  0  0  0  2  0  0  0  0  0  0
  183.7710  178.3230  141.8160 C   0  0  1  0  0  3  0  0  0  0  0  0
  182.7000  178.7520  142.6010 O   0  0  0  0  0  1  0  0  0  0  0  0
  182.2150  178.1120  138.2590 C   0  0  1  0  0  3  0  0  0  0  0  0
  183.9860  179.7140  139.8770 O   0  0  0  0  0  0  0  0  0  0  0  0
  182.6180  176.3330  139.8600 C   0  0  0  0  0  2  0  0  0  0  0  0
  183.5300  178.6460  140.3720 C   0  0  0  0  0  0  0  0  0  0  0  0
  182.7920  177.7370  139.5420 N   0  0  0  0  0  0  0  0  0  0  0  0
  182.0590  175.6830  138.6060 C   0  0  1  0  0  3  0  0  0  0  0  0
  181.5910  176.8360  137.7070 C   0  0  2  0  0  3  0  0  0  0  0  0
  183.0780  174.9430  137.9930 O   0  0  0  0  0  1  0  0  0  0  0  0
  180.9330  177.2040  135.6260 C   0  0  0  0  0  1  0  0  0  0  0  0
  181.9740  176.6540  136.3760 O   0  0  0  0  0  0  0  0  0  0  0  0
  181.1220  179.1590  138.4810 C   0  0  0  0  0  2  0  0  0  0  0  0
  181.0950  181.6580  138.4380 C   0  0  0  0  0  2  0  0  0  0  0  0
  181.2670  182.8980  137.5640 C   0  0  0  0  0  2  0  0  0  0  0  0
  180.3180  182.8390  136.3650 C   0  0  0  0  0  2  0  0  0  0  0  0
  180.3900  180.3400  136.4300 C   0  0  0  0  0  2  0  0  0  0  0  0
  180.5740  181.5770  135.5510 C   0  0  0  0  0  2  0  0  0  0  0  0
  181.3420  180.3950  137.6220 C   0  0  0  0  0  3  0  0  0  0  0  0
  191.2130  176.3960  143.2650 O   0  0  0  0  0  0  0  0  0  0  0  0
  190.0490  175.6700  142.9970 C   0  0  0  0  0  2  0  0  0  0  0  0
  189.5020  176.0380  141.6310 C   0  0  0  0  0  2  0  0  0  0  0  0
  190.5830  176.6780  140.7800 C   0  0  0  0  0  2  0  0  0  0  0  0
  190.4540  176.1750  139.3550 C   0  0  2  0  0  3  0  0  0  0  0  0
  189.7920  176.3210  136.1780 C   0  0  0  0  0  3  0  0  0  0  0  0
  191.4690  176.8950  138.4830 C   0  0  2  0  0  3  0  0  0  0  0  0
  189.9860  177.3030  138.4510 C   0  0  1  0  0  3  0  0  0  0  0  0
  189.1850  176.7480  137.2950 C   0  0  0  0  0  0  0  0  0  0  0  0
  191.2770  176.3780  136.0350 C   0  0  0  0  0  2  0  0  0  0  0  0
  191.9110  175.9580  137.3520 C   0  0  1  0  0  3  0  0  0  0  0  0
  186.7940  177.4650  136.6840 C   0  0  0  0  0  0  0  0  0  0  0  0
  187.1420  178.2470  135.7580 O   0  0  0  0  0  0  0  0  0  0  0  0
  187.7560  176.7070  137.4300 N   0  0  0  0  0  2  0  0  0  0  0  0
  185.3500  177.3100  136.9990 C   0  0  0  0  0  1  0  0  0  0  0  0
  193.4190  175.9800  137.2150 C   0  0  0  0  0  2  0  0  0  0  0  0
  193.9400  177.1000  137.8360 F   0  0  0  0  0  0  0  0  0  0  0  0
  2 38  1  6  0  0  0
  2 10  1  0  0  0  0
  4  9  1  0  0  0  0
  4  3  1  0  0  0  0
  5  1  1  1  0  0  0
  5  9  1  0  0  0  0
  6  4  1  0  0  0  0
  7 14  1  6  0  0  0
  7  1  1  0  0  0  0
  8 13  1  1  0  0  0
  8  2  1  0  0  0  0
  8  7  1  0  0  0  0
 10  6  1  1  0  0  0
 10  5  1  0  0  0  0
 12 13  1  0  0  0  0
 13 11  1  6  0  0  0
 15 14  1  0  0  0  0
 15 16  2  0  0  0  0
 17 15  1  0  0  0  0
 18 17  1  0  0  0  0
 19 18  1  0  0  0  0
 19 20  1  1  0  0  0
 21 31  1  1  0  0  0
 21 25  1  0  0  0  0
 22 24  2  0  0  0  0
 24 19  1  0  0  0  0
 25 23  1  0  0  0  0
 25 24  1  0  0  0  0
 26 28  1  6  0  0  0
 26 23  1  0  0  0  0
 27 30  1  6  0  0  0
 27 21  1  0  0  0  0
 27 26  1  0  0  0  0
 29 30  1  0  0  0  0
 33 32  1  0  0  0  0
 34 33  1  0  0  0  0
 35 37  1  0  0  0  0
 36 34  1  0  0  0  0
 36 35  1  0  0  0  0
 37 32  1  0  0  0  0
 37 31  1  0  0  0  0
 39 38  1  0  0  0  0
 40 39  1  0  0  0  0
 41 40  1  0  0  0  0
 42 41  1  1  0  0  0
 43 46  2  0  0  0  0
 44 42  1  0  0  0  0
 45 44  1  0  0  0  0
 45 42  1  0  0  0  0
 46 51  1  0  0  0  0
 46 45  1  0  0  0  0
 47 43  1  0  0  0  0
 47 48  1  0  0  0  0
 48 44  1  0  0  0  0
 49 52  1  0  0  0  0
 49 51  1  0  0  0  0
 50 49  2  0  0  0  0
 53 48  1  0  0  0  0
 53 54  1  0  0  0  0
M  END
>  <MODEL>
9

>  <REMARK>
 VINA RESULT:      -6.9      3.043     10.016
  Name = 
  17 active torsions:
  status: ('A' for Active; 'I' for Inactive)
    1  A    between atoms: C_1  and  C_54
    2  A    between atoms: C_2  and  C_13
    3  A    between atoms: C_3  and  C_17
    4  A    between atoms: C_3  and  C_18
    5  A    between atoms: C_6  and  C_9
    6  A    between atoms: C_6  and  C_48
    7  A    between atoms: C_7  and  C_17
    8  A    between atoms: C_8  and  C_20
    9  A    between atoms: C_8  and  C_53
   10  A    between atoms: C_13  and  C_44
   11  A    between atoms: C_18  and  O_26
   12  A    between atoms: C_20  and  C_48
   13  A    between atoms: O_26  and  C_29
   14  A    between atoms: C_37  and  C_53
   15  A    between atoms: C_38  and  O_47
   16  A    between atoms: N_42  and  C_45
   17  A    between atoms: C_43  and  C_50
                            x       y       z     vdW  Elec       q    Type
                         _______ _______ _______ _____ _____    ______ ____

>  <TORSDO>
F 17

$$$$
