=
 OpenBabel11062417003D

 26 28  0  0  1  0  0  0  0  0999 V2000
  189.0190  177.7960  137.7400 C   0  0  1  0  0  3  0  0  0  0  0  0
  190.8610  176.2930  137.5450 C   0  0  2  0  0  0  0  0  0  0  0  0
  189.8490  177.6940  139.0350 C   0  0  2  0  0  3  0  0  0  0  0  0
  189.9080  177.1320  136.7250 C   0  0  0  0  0  2  0  0  0  0  0  0
  190.9650  176.8510  138.8270 O   0  0  0  0  0  0  0  0  0  0  0  0
  191.1920  177.3320  141.5190 O   0  0  0  0  0  1  0  0  0  0  0  0
  189.6260  176.4800  143.7460 O   0  0  0  0  0  0  0  0  0  0  0  0
  188.3320  178.4320  140.9560 C   0  0  0  0  0  2  0  0  0  0  0  0
  189.2020  176.8590  142.6670 C   0  0  0  0  0  0  0  0  0  0  0  0
  187.6910  177.8070  142.5300 S   0  0  0  0  0  0  0  0  0  0  0  0
  189.0940  177.2770  140.3150 C   0  0  2  0  0  3  0  0  0  0  0  0
  189.9720  176.6570  141.4120 C   0  0  1  0  0  3  0  0  0  0  0  0
  187.6190  177.1530  137.8200 C   0  0  1  0  0  3  0  0  0  0  0  0
  184.8340  176.7640  136.9290 C   0  0  2  0  0  3  0  0  0  0  0  0
  185.1780  177.6470  138.1310 C   0  0  1  0  0  3  0  0  0  0  0  0
  183.5850  176.1750  137.1140 O   0  0  0  0  0  1  0  0  0  0  0  0
  185.8860  175.6730  136.7620 C   0  0  0  0  0  2  0  0  0  0  0  0
  186.5700  178.2530  137.9500 C   0  0  0  0  0  2  0  0  0  0  0  0
  187.2690  176.2920  136.5980 C   0  0  0  0  0  2  0  0  0  0  0  0
  184.2410  178.6780  138.2540 O   0  0  0  0  0  0  0  0  0  0  0  0
  184.4360  179.1910  139.5390 C   0  0  0  0  0  1  0  0  0  0  0  0
  192.7310  175.9730  135.1170 O   0  0  0  0  0  1  0  0  0  0  0  0
  193.7280  176.7120  137.5540 O   0  0  0  0  0  0  0  0  0  0  0  0
  192.5060  176.3010  136.7640 P   0  0  1  0  0  4  0  0  0  0  0  0
  190.3530  174.8610  137.6820 C   0  0  0  0  0  2  0  0  0  0  0  0
  191.4010  173.9420  137.5630 O   0  0  0  0  0  1  0  0  0  0  0  0
  1  4  1  6  0  0  0
  1 13  1  0  0  0  0
  1  3  1  0  0  0  0
  2 25  1  1  0  0  0
  2  5  1  0  0  0  0
  3  5  1  6  0  0  0
  3 11  1  0  0  0  0
  4  2  1  0  0  0  0
  8 10  1  0  0  0  0
  9  7  2  0  0  0  0
 10  9  1  0  0  0  0
 11  8  1  1  0  0  0
 11 12  1  0  0  0  0
 12  6  1  1  0  0  0
 12  9  1  0  0  0  0
 13 19  1  6  0  0  0
 13 18  1  0  0  0  0
 14 16  1  1  0  0  0
 14 15  1  0  0  0  0
 15 20  1  6  0  0  0
 17 14  1  0  0  0  0
 18 15  1  0  0  0  0
 19 17  1  0  0  0  0
 20 21  1  0  0  0  0
 24 22  1  6  0  0  0
 24  2  1  0  0  0  0
 24 23  2  0  0  0  0
 26 25  1  0  0  0  0
M  END
>  <MODEL>
1

>  <REMARK>
 VINA RESULT:      -5.7      0.000      0.000
  Name = 
  5 active torsions:
  status: ('A' for Active; 'I' for Inactive)
    1  A    between atoms: C_2  and  C_5
    2  A    between atoms: C_6  and  C_7
    3  A    between atoms: C_7  and  P_26
    4  A    between atoms: O_9  and  C_11
    5  A    between atoms: C_15  and  C_20
                            x       y       z     vdW  Elec       q    Type
                         _______ _______ _______ _____ _____    ______ ____

>  <TORSDO>
F 5

$$$$
=
 OpenBabel11062417003D

 26 28  0  0  1  0  0  0  0  0999 V2000
  189.0870  178.5540  141.5090 C   0  0  1  0  0  3  0  0  0  0  0  0
  189.1640  177.2960  143.5350 C   0  0  2  0  0  0  0  0  0  0  0  0
  187.7670  178.6160  142.3040 C   0  0  2  0  0  3  0  0  0  0  0  0
  190.0470  177.9680  142.5090 C   0  0  0  0  0  2  0  0  0  0  0  0
  187.9070  177.9170  143.5250 O   0  0  0  0  0  0  0  0  0  0  0  0
  185.1680  179.1950  143.3100 O   0  0  0  0  0  1  0  0  0  0  0  0
  182.9380  178.1900  141.8430 O   0  0  0  0  0  0  0  0  0  0  0  0
  186.1590  179.0300  140.3620 C   0  0  0  0  0  2  0  0  0  0  0  0
  184.1010  178.2010  141.4740 C   0  0  0  0  0  0  0  0  0  0  0  0
  184.5420  178.4740  139.7620 S   0  0  0  0  0  0  0  0  0  0  0  0
  186.4900  178.1590  141.5690 C   0  0  2  0  0  3  0  0  0  0  0  0
  185.2270  178.1020  142.4390 C   0  0  1  0  0  3  0  0  0  0  0  0
  189.0140  177.7380  140.2020 C   0  0  1  0  0  3  0  0  0  0  0  0
  189.9200  176.9990  137.4940 C   0  0  2  0  0  3  0  0  0  0  0  0
  188.7170  177.9190  137.7170 C   0  0  1  0  0  3  0  0  0  0  0  0
  189.7400  176.2560  136.3290 O   0  0  0  0  0  1  0  0  0  0  0  0
  190.0800  176.0500  138.6770 C   0  0  0  0  0  2  0  0  0  0  0  0
  188.8910  178.6960  139.0210 C   0  0  0  0  0  2  0  0  0  0  0  0
  190.2370  176.8400  139.9710 C   0  0  0  0  0  2  0  0  0  0  0  0
  188.6010  178.8230  136.6550 O   0  0  0  0  0  0  0  0  0  0  0  0
  187.2580  178.7610  136.2750 C   0  0  0  0  0  1  0  0  0  0  0  0
  191.5680  177.3460  145.4620 O   0  0  0  0  0  1  0  0  0  0  0  0
  189.0450  177.8810  146.3700 O   0  0  0  0  0  0  0  0  0  0  0  0
  189.9020  177.4840  145.1890 P   0  0  1  0  0  4  0  0  0  0  0  0
  188.9750  175.8180  143.2110 C   0  0  0  0  0  2  0  0  0  0  0  0
  190.1990  175.2040  142.9240 O   0  0  0  0  0  1  0  0  0  0  0  0
  1  3  1  0  0  0  0
  1  4  1  1  0  0  0
  2 25  1  6  0  0  0
  2 24  1  0  0  0  0
  3  5  1  1  0  0  0
  4  2  1  0  0  0  0
  5  2  1  0  0  0  0
  9  7  2  0  0  0  0
  9 12  1  0  0  0  0
 10  8  1  0  0  0  0
 10  9  1  0  0  0  0
 11  8  1  6  0  0  0
 11  3  1  0  0  0  0
 11 12  1  0  0  0  0
 12  6  1  1  0  0  0
 13 18  1  6  0  0  0
 13  1  1  0  0  0  0
 14 16  1  6  0  0  0
 14 15  1  0  0  0  0
 14 17  1  0  0  0  0
 15 20  1  6  0  0  0
 15 18  1  0  0  0  0
 17 19  1  0  0  0  0
 19 13  1  0  0  0  0
 21 20  1  0  0  0  0
 24 22  1  6  0  0  0
 24 23  2  0  0  0  0
 26 25  1  0  0  0  0
M  END
>  <MODEL>
2

>  <REMARK>
 VINA RESULT:      -5.4      3.102      5.714
  Name = 
  5 active torsions:
  status: ('A' for Active; 'I' for Inactive)
    1  A    between atoms: C_2  and  C_5
    2  A    between atoms: C_6  and  C_7
    3  A    between atoms: C_7  and  P_26
    4  A    between atoms: O_9  and  C_11
    5  A    between atoms: C_15  and  C_20
                            x       y       z     vdW  Elec       q    Type
                         _______ _______ _______ _____ _____    ______ ____

>  <TORSDO>
F 5

$$$$
=
 OpenBabel11062417003D

 26 28  0  0  1  0  0  0  0  0999 V2000
  187.8280  176.7830  143.4610 C   0  0  1  0  0  3  0  0  0  0  0  0
  190.0570  177.3060  144.1290 C   0  0  2  0  0  0  0  0  0  0  0  0
  188.8110  176.8370  142.2750 C   0  0  2  0  0  3  0  0  0  0  0  0
  188.7470  176.7640  144.6520 C   0  0  0  0  0  2  0  0  0  0  0  0
  190.1230  177.0740  142.7480 O   0  0  0  0  0  0  0  0  0  0  0  0
  190.3170  176.9080  139.8610 O   0  0  0  0  0  1  0  0  0  0  0  0
  189.5730  178.8470  137.9060 O   0  0  0  0  0  0  0  0  0  0  0  0
  187.2690  177.3660  140.3070 C   0  0  0  0  0  2  0  0  0  0  0  0
  188.9410  178.5490  138.9050 C   0  0  0  0  0  0  0  0  0  0  0  0
  187.1520  178.5150  138.9110 S   0  0  0  0  0  0  0  0  0  0  0  0
  188.4700  177.8160  141.1320 C   0  0  2  0  0  3  0  0  0  0  0  0
  189.6150  178.0840  140.1450 C   0  0  1  0  0  3  0  0  0  0  0  0
  186.8110  177.9430  143.5090 C   0  0  1  0  0  3  0  0  0  0  0  0
  184.1610  179.1130  144.0600 C   0  0  2  0  0  3  0  0  0  0  0  0
  184.5900  178.7260  142.6430 C   0  0  1  0  0  3  0  0  0  0  0  0
  183.2970  180.2060  144.0130 O   0  0  0  0  0  1  0  0  0  0  0  0
  185.3830  179.4730  144.8980 C   0  0  0  0  0  2  0  0  0  0  0  0
  185.5770  177.5600  142.6990 C   0  0  0  0  0  2  0  0  0  0  0  0
  186.3630  178.3070  144.9310 C   0  0  0  0  0  2  0  0  0  0  0  0
  183.4740  178.3470  141.8900 O   0  0  0  0  0  0  0  0  0  0  0  0
  183.7530  178.7780  140.5900 C   0  0  0  0  0  1  0  0  0  0  0  0
  191.9630  176.8280  146.5030 O   0  0  0  0  0  1  0  0  0  0  0  0
  192.1030  175.2590  144.2680 O   0  0  0  0  0  0  0  0  0  0  0  0
  191.4400  176.4400  144.9390 P   0  0  1  0  0  4  0  0  0  0  0  0
  190.1660  178.8080  144.3720 C   0  0  0  0  0  2  0  0  0  0  0  0
  191.3580  179.3170  143.8450 O   0  0  0  0  0  1  0  0  0  0  0  0
  1 13  1  0  0  0  0
  1  4  1  1  0  0  0
  2 25  1  1  0  0  0
  2  4  1  0  0  0  0
  2 24  1  0  0  0  0
  3  5  1  1  0  0  0
  3  1  1  0  0  0  0
  5  2  1  0  0  0  0
  7  9  2  0  0  0  0
  9 10  1  0  0  0  0
  9 12  1  0  0  0  0
 10  8  1  0  0  0  0
 11  8  1  6  0  0  0
 11  3  1  0  0  0  0
 12  6  1  6  0  0  0
 12 11  1  0  0  0  0
 13 18  1  6  0  0  0
 13 19  1  0  0  0  0
 14 16  1  6  0  0  0
 14 17  1  0  0  0  0
 15 20  1  6  0  0  0
 15 18  1  0  0  0  0
 15 14  1  0  0  0  0
 17 19  1  0  0  0  0
 21 20  1  0  0  0  0
 24 23  2  1  0  0  0
 24 22  1  0  0  0  0
 26 25  1  0  0  0  0
M  END
>  <MODEL>
3

>  <REMARK>
 VINA RESULT:      -5.4      3.400      6.213
  Name = 
  5 active torsions:
  status: ('A' for Active; 'I' for Inactive)
    1  A    between atoms: C_2  and  C_5
    2  A    between atoms: C_6  and  C_7
    3  A    between atoms: C_7  and  P_26
    4  A    between atoms: O_9  and  C_11
    5  A    between atoms: C_15  and  C_20
                            x       y       z     vdW  Elec       q    Type
                         _______ _______ _______ _____ _____    ______ ____

>  <TORSDO>
F 5

$$$$
=
 OpenBabel11062417003D

 26 28  0  0  1  0  0  0  0  0999 V2000
  182.0980  177.6990  139.8820 C   0  0  1  0  0  3  0  0  0  0  0  0
  183.7260  177.8960  138.1500 C   0  0  2  0  0  0  0  0  0  0  0  0
  181.6250  178.5850  138.7130 C   0  0  2  0  0  3  0  0  0  0  0  0
  183.3140  177.0210  139.3120 C   0  0  0  0  0  2  0  0  0  0  0  0
  182.6020  178.5960  137.6910 O   0  0  0  0  0  0  0  0  0  0  0  0
  181.0490  180.5080  136.6950 O   0  0  0  0  0  1  0  0  0  0  0  0
  180.3570  183.1400  137.5480 O   0  0  0  0  0  0  0  0  0  0  0  0
  179.7390  180.1230  139.4950 C   0  0  0  0  0  2  0  0  0  0  0  0
  180.4540  182.1520  138.2580 C   0  0  0  0  0  0  0  0  0  0  0  0
  179.3730  181.8900  139.6590 S   0  0  0  0  0  0  0  0  0  0  0  0
  181.1980  180.0270  139.0610 C   0  0  2  0  0  3  0  0  0  0  0  0
  181.3990  181.0510  137.9360 C   0  0  1  0  0  3  0  0  0  0  0  0
  182.3960  178.4610  141.1900 C   0  0  1  0  0  3  0  0  0  0  0  0
  182.8520  178.6430  144.0980 C   0  0  2  0  0  3  0  0  0  0  0  0
  181.5000  178.9940  143.4720 C   0  0  1  0  0  3  0  0  0  0  0  0
  183.0660  179.4220  145.2340 O   0  0  0  0  0  1  0  0  0  0  0  0
  183.9740  178.8930  143.0960 C   0  0  0  0  0  2  0  0  0  0  0  0
  181.2880  178.1760  142.1990 C   0  0  0  0  0  2  0  0  0  0  0  0
  183.7400  178.0830  141.8270 C   0  0  0  0  0  2  0  0  0  0  0  0
  180.4670  178.7170  144.3740 O   0  0  0  0  0  0  0  0  0  0  0  0
  179.3220  179.2660  143.7900 C   0  0  0  0  0  1  0  0  0  0  0  0
  185.2940  175.4660  137.0850 O   0  0  0  0  0  1  0  0  0  0  0  0
  183.9860  177.1420  135.3650 O   0  0  0  0  0  0  0  0  0  0  0  0
  184.3640  176.8540  136.8000 P   0  0  1  0  0  4  0  0  0  0  0  0
  184.7850  178.9090  138.5740 C   0  0  0  0  0  2  0  0  0  0  0  0
  186.0100  178.6470  137.9510 O   0  0  0  0  0  1  0  0  0  0  0  0
  1  4  1  6  0  0  0
  1 13  1  0  0  0  0
  2 25  1  1  0  0  0
  2  4  1  0  0  0  0
  3  5  1  6  0  0  0
  3 11  1  0  0  0  0
  3  1  1  0  0  0  0
  5  2  1  0  0  0  0
  7  9  2  0  0  0  0
  8 10  1  0  0  0  0
  9 10  1  0  0  0  0
 11  8  1  6  0  0  0
 12  6  1  6  0  0  0
 12  9  1  0  0  0  0
 12 11  1  0  0  0  0
 13 19  1  1  0  0  0
 13 18  1  0  0  0  0
 14 16  1  1  0  0  0
 15 14  1  0  0  0  0
 15 20  1  1  0  0  0
 17 14  1  0  0  0  0
 18 15  1  0  0  0  0
 19 17  1  0  0  0  0
 21 20  1  0  0  0  0
 24 23  2  1  0  0  0
 24 22  1  0  0  0  0
 24  2  1  0  0  0  0
 26 25  1  0  0  0  0
M  END
>  <MODEL>
4

>  <REMARK>
 VINA RESULT:      -5.1      5.511      8.462
  Name = 
  5 active torsions:
  status: ('A' for Active; 'I' for Inactive)
    1  A    between atoms: C_2  and  C_5
    2  A    between atoms: C_6  and  C_7
    3  A    between atoms: C_7  and  P_26
    4  A    between atoms: O_9  and  C_11
    5  A    between atoms: C_15  and  C_20
                            x       y       z     vdW  Elec       q    Type
                         _______ _______ _______ _____ _____    ______ ____

>  <TORSDO>
F 5

$$$$
=
 OpenBabel11062417003D

 26 28  0  0  1  0  0  0  0  0999 V2000
  185.0280  176.7830  136.6270 C   0  0  1  0  0  3  0  0  0  0  0  0
  187.1550  177.5260  137.4120 C   0  0  2  0  0  0  0  0  0  0  0  0
  184.9220  177.9280  137.6540 C   0  0  2  0  0  3  0  0  0  0  0  0
  186.4890  176.7970  136.2670 C   0  0  0  0  0  2  0  0  0  0  0  0
  186.2150  178.3710  138.0180 O   0  0  0  0  0  0  0  0  0  0  0  0
  184.8130  179.7760  139.8170 O   0  0  0  0  0  1  0  0  0  0  0  0
  183.2550  179.0450  142.0920 O   0  0  0  0  0  0  0  0  0  0  0  0
  182.5880  177.9080  138.6950 C   0  0  0  0  0  2  0  0  0  0  0  0
  183.2710  178.4750  141.0120 C   0  0  0  0  0  0  0  0  0  0  0  0
  181.7980  177.7360  140.3170 S   0  0  0  0  0  0  0  0  0  0  0  0
  184.0750  177.6550  138.9150 C   0  0  2  0  0  3  0  0  0  0  0  0
  184.4860  178.4590  140.1580 C   0  0  1  0  0  3  0  0  0  0  0  0
  184.5520  175.4090  137.1420 C   0  0  1  0  0  3  0  0  0  0  0  0
  183.7260  172.5990  136.7970 C   0  0  2  0  0  3  0  0  0  0  0  0
  182.7020  173.7210  136.9920 C   0  0  1  0  0  3  0  0  0  0  0  0
  183.2420  171.4140  137.3470 O   0  0  0  0  0  1  0  0  0  0  0  0
  185.0420  172.9680  137.4730 C   0  0  0  0  0  2  0  0  0  0  0  0
  183.2550  175.0320  136.4340 C   0  0  0  0  0  2  0  0  0  0  0  0
  185.5720  174.2840  136.9170 C   0  0  0  0  0  2  0  0  0  0  0  0
  181.5120  173.4050  136.3290 O   0  0  0  0  0  0  0  0  0  0  0  0
  180.4990  173.7200  137.2380 C   0  0  0  0  0  1  0  0  0  0  0  0
  189.0010  179.9920  137.4980 O   0  0  0  0  0  1  0  0  0  0  0  0
  189.3730  178.0400  135.6200 O   0  0  0  0  0  0  0  0  0  0  0  0
  188.5290  178.5350  136.7730 P   0  0  1  0  0  4  0  0  0  0  0  0
  187.6700  176.5460  138.4610 C   0  0  0  0  0  2  0  0  0  0  0  0
  188.6800  177.1240  139.2370 O   0  0  0  0  0  1  0  0  0  0  0  0
  1  4  1  1  0  0  0
  1 13  1  0  0  0  0
  1  3  1  0  0  0  0
  2  5  1  0  0  0  0
  2 25  1  1  0  0  0
  3  5  1  1  0  0  0
  3 11  1  0  0  0  0
  4  2  1  0  0  0  0
  8 10  1  0  0  0  0
  9  7  2  0  0  0  0
 10  9  1  0  0  0  0
 11  8  1  6  0  0  0
 11 12  1  0  0  0  0
 12  6  1  6  0  0  0
 12  9  1  0  0  0  0
 13 18  1  6  0  0  0
 14 15  1  0  0  0  0
 14 16  1  1  0  0  0
 14 17  1  0  0  0  0
 15 20  1  6  0  0  0
 18 15  1  0  0  0  0
 19 13  1  0  0  0  0
 19 17  1  0  0  0  0
 20 21  1  0  0  0  0
 24 23  2  1  0  0  0
 24  2  1  0  0  0  0
 24 22  1  0  0  0  0
 25 26  1  0  0  0  0
M  END
>  <MODEL>
5

>  <REMARK>
 VINA RESULT:      -4.7      3.238      5.172
  Name = 
  5 active torsions:
  status: ('A' for Active; 'I' for Inactive)
    1  A    between atoms: C_2  and  C_5
    2  A    between atoms: C_6  and  C_7
    3  A    between atoms: C_7  and  P_26
    4  A    between atoms: O_9  and  C_11
    5  A    between atoms: C_15  and  C_20
                            x       y       z     vdW  Elec       q    Type
                         _______ _______ _______ _____ _____    ______ ____

>  <TORSDO>
F 5

$$$$
=
 OpenBabel11062417003D

 26 28  0  0  1  0  0  0  0  0999 V2000
  188.9620  176.1650  143.4560 C   0  0  1  0  0  3  0  0  0  0  0  0
  189.2850  177.2510  141.3560 C   0  0  2  0  0  0  0  0  0  0  0  0
  187.6910  176.8720  142.9450 C   0  0  2  0  0  3  0  0  0  0  0  0
  189.8500  176.1630  142.2410 C   0  0  0  0  0  2  0  0  0  0  0  0
  187.9290  177.4260  141.6660 O   0  0  0  0  0  0  0  0  0  0  0  0
  185.2240  178.1450  142.3160 O   0  0  0  0  0  1  0  0  0  0  0  0
  184.2690  180.1280  144.1310 O   0  0  0  0  0  0  0  0  0  0  0  0
  186.3710  177.3110  145.0890 C   0  0  0  0  0  2  0  0  0  0  0  0
  185.1960  179.3580  144.3230 C   0  0  0  0  0  0  0  0  0  0  0  0
  185.5270  178.6690  145.9410 S   0  0  0  0  0  0  0  0  0  0  0  0
  187.0600  177.9280  143.8770 C   0  0  2  0  0  3  0  0  0  0  0  0
  186.0370  178.8550  143.2050 C   0  0  1  0  0  3  0  0  0  0  0  0
  189.6240  176.8330  144.6780 C   0  0  1  0  0  3  0  0  0  0  0  0
  190.8860  176.8060  147.3440 C   0  0  2  0  0  3  0  0  0  0  0  0
  189.4150  177.1840  147.1540 C   0  0  1  0  0  3  0  0  0  0  0  0
  191.4190  177.5030  148.4270 O   0  0  0  0  0  1  0  0  0  0  0  0
  191.6800  177.1450  146.0880 C   0  0  0  0  0  2  0  0  0  0  0  0
  188.8450  176.4590  145.9350 C   0  0  0  0  0  2  0  0  0  0  0  0
  191.0910  176.4270  144.8800 C   0  0  0  0  0  2  0  0  0  0  0  0
  188.6770  176.8270  148.2880 O   0  0  0  0  0  0  0  0  0  0  0  0
  188.0230  177.9990  148.6760 C   0  0  0  0  0  1  0  0  0  0  0  0
  188.3080  177.2250  138.4340 O   0  0  0  0  0  1  0  0  0  0  0  0
  190.6400  175.9790  139.1330 O   0  0  0  0  0  0  0  0  0  0  0  0
  189.4320  176.7530  139.6110 P   0  0  1  0  0  4  0  0  0  0  0  0
  190.0070  178.5740  141.5850 C   0  0  0  0  0  2  0  0  0  0  0  0
  191.3080  178.3640  142.0540 O   0  0  0  0  0  1  0  0  0  0  0  0
  1  4  1  6  0  0  0
  1 13  1  0  0  0  0
  2 25  1  1  0  0  0
  2  5  1  0  0  0  0
  2  4  1  0  0  0  0
  3  5  1  6  0  0  0
  3  1  1  0  0  0  0
  3 11  1  0  0  0  0
  7  9  2  0  0  0  0
  8 10  1  0  0  0  0
  9 10  1  0  0  0  0
 11  8  1  1  0  0  0
 12  6  1  6  0  0  0
 12 11  1  0  0  0  0
 12  9  1  0  0  0  0
 13 19  1  1  0  0  0
 13 18  1  0  0  0  0
 14 16  1  1  0  0  0
 15 14  1  0  0  0  0
 15 20  1  1  0  0  0
 17 14  1  0  0  0  0
 18 15  1  0  0  0  0
 19 17  1  0  0  0  0
 20 21  1  0  0  0  0
 23 24  2  0  0  0  0
 24 22  1  6  0  0  0
 24  2  1  0  0  0  0
 25 26  1  0  0  0  0
M  END
>  <MODEL>
6

>  <REMARK>
 VINA RESULT:      -4.7      3.896      7.403
  Name = 
  5 active torsions:
  status: ('A' for Active; 'I' for Inactive)
    1  A    between atoms: C_2  and  C_5
    2  A    between atoms: C_6  and  C_7
    3  A    between atoms: C_7  and  P_26
    4  A    between atoms: O_9  and  C_11
    5  A    between atoms: C_15  and  C_20
                            x       y       z     vdW  Elec       q    Type
                         _______ _______ _______ _____ _____    ______ ____

>  <TORSDO>
F 5

$$$$
=
 OpenBabel11062417003D

 26 28  0  0  1  0  0  0  0  0999 V2000
  188.9840  176.4890  143.5390 C   0  0  1  0  0  3  0  0  0  0  0  0
  190.4630  177.4510  141.9340 C   0  0  2  0  0  0  0  0  0  0  0  0
  188.2550  176.9840  142.2740 C   0  0  2  0  0  3  0  0  0  0  0  0
  190.4280  176.5140  143.1200 C   0  0  0  0  0  2  0  0  0  0  0  0
  189.1950  177.4690  141.3350 O   0  0  0  0  0  0  0  0  0  0  0  0
  186.7280  177.9910  140.0930 O   0  0  0  0  0  1  0  0  0  0  0  0
  184.7370  179.9490  140.6780 O   0  0  0  0  0  0  0  0  0  0  0  0
  185.8430  177.3850  143.0180 C   0  0  0  0  0  2  0  0  0  0  0  0
  185.3530  179.2790  141.4900 C   0  0  0  0  0  0  0  0  0  0  0  0
  184.5890  178.6920  142.9980 S   0  0  0  0  0  0  0  0  0  0  0  0
  187.1240  178.0140  142.4800 C   0  0  2  0  0  3  0  0  0  0  0  0
  186.7390  178.8120  141.2260 C   0  0  1  0  0  3  0  0  0  0  0  0
  188.7150  177.3260  144.8070 C   0  0  1  0  0  3  0  0  0  0  0  0
  188.0650  177.6600  147.6640 C   0  0  2  0  0  3  0  0  0  0  0  0
  187.0050  177.8330  146.5730 C   0  0  1  0  0  3  0  0  0  0  0  0
  187.7790  178.4980  148.7410 O   0  0  0  0  0  1  0  0  0  0  0  0
  189.4450  178.0010  147.1130 C   0  0  0  0  0  2  0  0  0  0  0  0
  187.3480  176.9520  145.3710 C   0  0  0  0  0  2  0  0  0  0  0  0
  189.7650  177.1260  145.9080 C   0  0  0  0  0  2  0  0  0  0  0  0
  185.7470  177.4720  147.0640 O   0  0  0  0  0  0  0  0  0  0  0  0
  184.8900  178.4940  146.6460 C   0  0  0  0  0  1  0  0  0  0  0  0
  191.2390  175.9120  139.3790 O   0  0  0  0  0  1  0  0  0  0  0  0
  193.1300  177.2680  140.8160 O   0  0  0  0  0  0  0  0  0  0  0  0
  191.6800  176.8500  140.7190 P   0  0  1  0  0  4  0  0  0  0  0  0
  190.8130  178.8710  142.3660 C   0  0  0  0  0  2  0  0  0  0  0  0
  191.6100  178.8650  143.5160 O   0  0  0  0  0  1  0  0  0  0  0  0
  1  4  1  6  0  0  0
  1 13  1  0  0  0  0
  2 25  1  1  0  0  0
  2  4  1  0  0  0  0
  3  5  1  6  0  0  0
  3 11  1  0  0  0  0
  3  1  1  0  0  0  0
  5  2  1  0  0  0  0
  7  9  2  0  0  0  0
  9 10  1  0  0  0  0
 10  8  1  0  0  0  0
 11  8  1  6  0  0  0
 12  6  1  6  0  0  0
 12  9  1  0  0  0  0
 12 11  1  0  0  0  0
 13 18  1  1  0  0  0
 13 19  1  0  0  0  0
 14 16  1  1  0  0  0
 15 20  1  1  0  0  0
 15 14  1  0  0  0  0
 17 14  1  0  0  0  0
 18 15  1  0  0  0  0
 19 17  1  0  0  0  0
 21 20  1  0  0  0  0
 24 22  1  6  0  0  0
 24 23  2  0  0  0  0
 24  2  1  0  0  0  0
 25 26  1  0  0  0  0
M  END
>  <MODEL>
7

>  <REMARK>
 VINA RESULT:      -4.7      3.647      6.854
  Name = 
  5 active torsions:
  status: ('A' for Active; 'I' for Inactive)
    1  A    between atoms: C_2  and  C_5
    2  A    between atoms: C_6  and  C_7
    3  A    between atoms: C_7  and  P_26
    4  A    between atoms: O_9  and  C_11
    5  A    between atoms: C_15  and  C_20
                            x       y       z     vdW  Elec       q    Type
                         _______ _______ _______ _____ _____    ______ ____

>  <TORSDO>
F 5

$$$$
=
 OpenBabel11062417003D

 26 28  0  0  1  0  0  0  0  0999 V2000
  186.5090  176.9530  143.5870 C   0  0  1  0  0  3  0  0  0  0  0  0
  184.8670  178.6790  143.7050 C   0  0  2  0  0  0  0  0  0  0  0  0
  186.1970  177.3850  145.0340 C   0  0  2  0  0  3  0  0  0  0  0  0
  185.3880  177.5830  142.8050 C   0  0  0  0  0  2  0  0  0  0  0  0
  185.1650  178.3520  145.0360 O   0  0  0  0  0  0  0  0  0  0  0  0
  186.0150  177.6320  147.8640 O   0  0  0  0  0  1  0  0  0  0  0  0
  188.3040  178.6280  149.2450 O   0  0  0  0  0  0  0  0  0  0  0  0
  188.4420  176.7920  146.1010 C   0  0  0  0  0  2  0  0  0  0  0  0
  188.2570  178.2850  148.0740 C   0  0  0  0  0  0  0  0  0  0  0  0
  189.6390  177.4770  147.2760 S   0  0  0  0  0  0  0  0  0  0  0  0
  187.3880  177.8730  145.8860 C   0  0  2  0  0  3  0  0  0  0  0  0
  187.0130  178.4140  147.2730 C   0  0  1  0  0  3  0  0  0  0  0  0
  187.9030  177.3710  143.0750 C   0  0  1  0  0  3  0  0  0  0  0  0
  190.2800  177.0870  141.3530 C   0  0  2  0  0  3  0  0  0  0  0  0
  190.2750  176.5990  142.8050 C   0  0  1  0  0  3  0  0  0  0  0  0
  191.5620  177.5030  140.9970 O   0  0  0  0  0  1  0  0  0  0  0  0
  189.3080  178.2490  141.1870 C   0  0  0  0  0  2  0  0  0  0  0  0
  188.8590  176.1910  143.2110 C   0  0  0  0  0  2  0  0  0  0  0  0
  187.9060  177.8310  141.6100 C   0  0  0  0  0  2  0  0  0  0  0  0
  191.1290  175.5000  142.9450 O   0  0  0  0  0  0  0  0  0  0  0  0
  191.6800  175.6340  144.2220 C   0  0  0  0  0  1  0  0  0  0  0  0
  182.3110  179.0030  142.0140 O   0  0  0  0  0  1  0  0  0  0  0  0
  182.1530  178.6420  144.7190 O   0  0  0  0  0  0  0  0  0  0  0  0
  183.0600  178.8110  143.5210 P   0  0  1  0  0  4  0  0  0  0  0  0
  185.5240  180.0160  143.3790 C   0  0  0  0  0  2  0  0  0  0  0  0
  185.7850  180.1280  142.0090 O   0  0  0  0  0  1  0  0  0  0  0  0
  1  4  1  6  0  0  0
  1  3  1  0  0  0  0
  2 25  1  6  0  0  0
  2  5  1  0  0  0  0
  3  5  1  6  0  0  0
  3 11  1  0  0  0  0
  4  2  1  0  0  0  0
  8 10  1  0  0  0  0
  9  7  2  0  0  0  0
 10  9  1  0  0  0  0
 11  8  1  1  0  0  0
 11 12  1  0  0  0  0
 12  6  1  1  0  0  0
 12  9  1  0  0  0  0
 13 19  1  6  0  0  0
 13 18  1  0  0  0  0
 13  1  1  0  0  0  0
 14 16  1  1  0  0  0
 14 15  1  0  0  0  0
 15 20  1  6  0  0  0
 15 18  1  0  0  0  0
 17 14  1  0  0  0  0
 17 19  1  0  0  0  0
 20 21  1  0  0  0  0
 24 22  1  6  0  0  0
 24  2  1  0  0  0  0
 24 23  2  0  0  0  0
 26 25  1  0  0  0  0
M  END
>  <MODEL>
8

>  <REMARK>
 VINA RESULT:      -4.6      4.567      8.128
  Name = 
  5 active torsions:
  status: ('A' for Active; 'I' for Inactive)
    1  A    between atoms: C_2  and  C_5
    2  A    between atoms: C_6  and  C_7
    3  A    between atoms: C_7  and  P_26
    4  A    between atoms: O_9  and  C_11
    5  A    between atoms: C_15  and  C_20
                            x       y       z     vdW  Elec       q    Type
                         _______ _______ _______ _____ _____    ______ ____

>  <TORSDO>
F 5

$$$$
=
 OpenBabel11062417003D

 26 28  0  0  1  0  0  0  0  0999 V2000
  184.5480  178.7190  138.4380 C   0  0  1  0  0  3  0  0  0  0  0  0
  182.2860  178.5750  139.1820 C   0  0  2  0  0  0  0  0  0  0  0  0
  183.7620  177.5820  137.7530 C   0  0  2  0  0  3  0  0  0  0  0  0
  183.4590  179.5240  139.0940 C   0  0  0  0  0  2  0  0  0  0  0  0
  182.4150  177.6030  138.1810 O   0  0  0  0  0  0  0  0  0  0  0  0
  182.3530  175.2960  136.8100 O   0  0  0  0  0  1  0  0  0  0  0  0
  183.5650  172.7460  137.2190 O   0  0  0  0  0  0  0  0  0  0  0  0
  185.4160  175.8610  136.8410 C   0  0  0  0  0  2  0  0  0  0  0  0
  184.0930  173.8330  137.3860 C   0  0  0  0  0  0  0  0  0  0  0  0
  185.8230  174.1040  137.0180 S   0  0  0  0  0  0  0  0  0  0  0  0
  184.3430  176.1590  137.8830 C   0  0  2  0  0  3  0  0  0  0  0  0
  183.3090  175.0270  137.7960 C   0  0  1  0  0  3  0  0  0  0  0  0
  185.6260  178.2470  139.4350 C   0  0  1  0  0  3  0  0  0  0  0  0
  188.0510  178.6110  141.0730 C   0  0  2  0  0  3  0  0  0  0  0  0
  188.0910  177.8810  139.7280 C   0  0  1  0  0  3  0  0  0  0  0  0
  189.0120  178.0790  141.9310 O   0  0  0  0  0  1  0  0  0  0  0  0
  186.6730  178.4650  141.7080 C   0  0  0  0  0  2  0  0  0  0  0  0
  187.0030  178.4300  138.8060 C   0  0  0  0  0  2  0  0  0  0  0  0
  185.5990  179.0030  140.7710 C   0  0  0  0  0  2  0  0  0  0  0  0
  189.3400  178.0580  139.1230 O   0  0  0  0  0  0  0  0  0  0  0  0
  189.0610  178.6550  137.8910 C   0  0  0  0  0  1  0  0  0  0  0  0
  180.5080  181.0740  139.4890 O   0  0  0  0  0  1  0  0  0  0  0  0
  179.6330  178.9080  138.0670 O   0  0  0  0  0  0  0  0  0  0  0  0
  180.7380  179.4960  138.9160 P   0  0  1  0  0  4  0  0  0  0  0  0
  182.2500  177.8720  140.5360 C   0  0  0  0  0  2  0  0  0  0  0  0
  182.1600  178.7970  141.5810 O   0  0  0  0  0  1  0  0  0  0  0  0
  1  4  1  1  0  0  0
  1 13  1  0  0  0  0
  2 25  1  1  0  0  0
  3 11  1  0  0  0  0
  3  5  1  1  0  0  0
  3  1  1  0  0  0  0
  4  2  1  0  0  0  0
  5  2  1  0  0  0  0
  7  9  2  0  0  0  0
  8 10  1  0  0  0  0
  9 12  1  0  0  0  0
 10  9  1  0  0  0  0
 11  8  1  6  0  0  0
 12  6  1  6  0  0  0
 12 11  1  0  0  0  0
 13 18  1  6  0  0  0
 13 19  1  0  0  0  0
 14 17  1  0  0  0  0
 14 16  1  1  0  0  0
 15 20  1  6  0  0  0
 15 14  1  0  0  0  0
 18 15  1  0  0  0  0
 19 17  1  0  0  0  0
 21 20  1  0  0  0  0
 24 23  2  6  0  0  0
 24  2  1  0  0  0  0
 24 22  1  0  0  0  0
 25 26  1  0  0  0  0
M  END
>  <MODEL>
9

>  <REMARK>
 VINA RESULT:      -4.6      3.742      8.032
  Name = 
  5 active torsions:
  status: ('A' for Active; 'I' for Inactive)
    1  A    between atoms: C_2  and  C_5
    2  A    between atoms: C_6  and  C_7
    3  A    between atoms: C_7  and  P_26
    4  A    between atoms: O_9  and  C_11
    5  A    between atoms: C_15  and  C_20
                            x       y       z     vdW  Elec       q    Type
                         _______ _______ _______ _____ _____    ______ ____

>  <TORSDO>
F 5

$$$$
