=
 OpenBabel11062415533D

 41 45  0  0  1  0  0  0  0  0999 V2000
  189.0870  178.2150  144.9910 C   0  0  2  0  0  3  0  0  0  0  0  0
  187.6620  177.9430  143.0760 C   0  0  0  0  0  0  0  0  0  0  0  0
  189.1420  177.2590  141.2250 C   0  0  0  0  0  0  0  0  0  0  0  0
  185.6600  179.1110  140.4300 C   0  0  1  0  0  3  0  0  0  0  0  0
  188.6040  177.5640  139.9270 N   0  0  0  0  0  0  0  0  0  0  0  0
  183.0130  178.2500  141.3070 C   0  0  0  0  0  2  0  0  0  0  0  0
  187.7260  177.7260  144.5370 C   0  0  0  0  0  2  0  0  0  0  0  0
  186.4870  178.2810  139.5610 N   0  0  0  0  0  2  0  0  0  0  0  0
  189.7380  176.1620  141.4110 O   0  0  0  0  0  0  0  0  0  0  0  0
  190.2770  178.0670  143.6150 S   0  0  0  0  0  0  0  0  0  0  0  0
  188.8900  176.6940  138.7910 C   0  0  0  0  0  1  0  0  0  0  0  0
  183.3840  178.3280  139.8920 N   0  0  0  0  0  0  0  0  0  0  0  0
  184.3330  179.4310  139.7410 C   0  0  0  0  0  2  0  0  0  0  0  0
  187.8150  178.7100  139.7270 N   0  0  0  0  0  2  0  0  0  0  0  0
  188.9460  178.2070  142.3780 C   0  0  2  0  0  3  0  0  0  0  0  0
  186.5340  178.1900  142.4750 C   0  0  0  0  0  0  0  0  0  0  0  0
  185.4660  178.4460  141.7740 C   0  0  0  0  0  0  0  0  0  0  0  0
  184.1900  177.7410  142.1320 C   0  0  0  0  0  2  0  0  0  0  0  0
  190.9280  177.4460  146.5550 N   0  0  0  0  0  2  0  0  0  0  0  0
  189.5450  177.4570  146.1920 C   0  0  0  0  0  0  0  0  0  0  0  0
  188.7060  176.7990  146.8620 O   0  0  0  0  0  0  0  0  0  0  0  0
  191.4360  176.7420  147.7230 C   0  0  0  0  0  2  0  0  0  0  0  0
  193.5070  175.5440  147.8050 O   0  0  0  0  0  1  0  0  0  0  0  0
  192.2000  175.4980  147.3030 C   0  0  0  0  0  3  0  0  0  0  0  0
  192.2420  175.4350  145.9120 O   0  0  0  0  0  1  0  0  0  0  0  0
  182.2010  178.5940  139.0600 C   0  0  2  0  0  3  0  0  0  0  0  0
  181.5430  180.7810  137.8080 C   0  0  2  0  0  3  0  0  0  0  0  0
  180.6810  181.9990  138.1860 C   0  0  1  0  0  3  0  0  0  0  0  0
  180.3110  180.6730  135.5200 C   0  0  2  0  0  3  0  0  0  0  0  0
  179.7820  182.5490  137.0810 C   0  0  0  0  0  2  0  0  0  0  0  0
  180.8890  179.8990  136.7140 C   0  0  1  0  0  3  0  0  0  0  0  0
  181.8110  178.9710  136.2310 O   0  0  0  0  0  1  0  0  0  0  0  0
  181.6960  180.0590  139.1450 C   0  0  1  0  0  3  0  0  0  0  0  0
  179.8520  181.6100  139.4020 C   0  0  0  0  0  2  0  0  0  0  0  0
  180.3920  180.2790  139.9000 C   0  0  0  0  0  2  0  0  0  0  0  0
  180.3440  182.1960  135.7100 C   0  0  2  0  0  3  0  0  0  0  0  0
  179.0120  180.2190  135.2750 O   0  0  0  0  0  1  0  0  0  0  0  0
  179.5900  182.9200  134.6010 C   0  0  0  0  0  2  0  0  0  0  0  0
  179.6440  184.2980  134.8080 O   0  0  0  0  0  1  0  0  0  0  0  0
  181.5100  176.2440  138.5960 C   0  0  0  0  0  1  0  0  0  0  0  0
  181.1270  177.5350  139.2900 C   0  0  0  0  0  2  0  0  0  0  0  0
  1 20  1  1  0  0  0
  2  7  1  0  0  0  0
  3  9  2  0  0  0  0
  4 13  1  6  0  0  0
  4 17  1  0  0  0  0
  5  3  1  0  0  0  0
  6 18  1  0  0  0  0
  7  1  1  0  0  0  0
  8 14  1  0  0  0  0
  8  4  1  0  0  0  0
 10  1  1  0  0  0  0
 11  5  1  0  0  0  0
 12  6  1  0  0  0  0
 13 12  1  0  0  0  0
 14  5  1  0  0  0  0
 15  3  1  6  0  0  0
 15  2  1  0  0  0  0
 15 10  1  0  0  0  0
 16  2  2  0  0  0  0
 17 18  1  0  0  0  0
 17 16  2  0  0  0  0
 19 22  1  0  0  0  0
 20 19  1  0  0  0  0
 20 21  2  0  0  0  0
 24 22  1  0  0  0  0
 24 23  1  0  0  0  0
 25 24  1  0  0  0  0
 26 33  1  0  0  0  0
 26 41  1  1  0  0  0
 26 12  1  0  0  0  0
 27 28  1  0  0  0  0
 27 33  1  0  0  0  0
 28 34  1  0  0  0  0
 29 36  1  0  0  0  0
 29 31  1  0  0  0  0
 30 28  1  0  0  0  0
 31 27  1  0  0  0  0
 32 31  1  0  0  0  0
 33 35  1  0  0  0  0
 34 35  1  0  0  0  0
 36 30  1  0  0  0  0
 37 29  1  0  0  0  0
 38 39  1  0  0  0  0
 38 36  1  0  0  0  0
 40 41  1  0  0  0  0
M  END
>  <MODEL>
1

>  <REMARK>
 VINA RESULT:      -8.1      0.000      0.000
  Name = 
  7 active torsions:
  status: ('A' for Active; 'I' for Inactive)
    1  A    between atoms: C_5  and  C_24
    2  A    between atoms: N_9  and  C_12
    3  A    between atoms: C_12  and  C_21
    4  A    between atoms: C_14  and  C_23
    5  A    between atoms: C_23  and  N_32
    6  A    between atoms: C_23  and  C_37
    7  A    between atoms: C_29  and  C_30
                            x       y       z     vdW  Elec       q    Type
                         _______ _______ _______ _____ _____    ______ ____

>  <TORSDO>
F 7

$$$$
=
 OpenBabel11062415533D

 41 45  0  0  1  0  0  0  0  0999 V2000
  189.0030  178.2380  144.9300 C   0  0  2  0  0  3  0  0  0  0  0  0
  187.6250  177.9580  142.9820 C   0  0  0  0  0  0  0  0  0  0  0  0
  189.1470  177.2400  141.1780 C   0  0  0  0  0  0  0  0  0  0  0  0
  185.7050  179.1160  140.2720 C   0  0  1  0  0  3  0  0  0  0  0  0
  188.6450  177.5350  139.8630 N   0  0  0  0  0  0  0  0  0  0  0  0
  183.0280  178.2910  141.0890 C   0  0  0  0  0  2  0  0  0  0  0  0
  187.6500  177.7580  144.4460 C   0  0  0  0  0  2  0  0  0  0  0  0
  186.5460  178.2690  139.4340 N   0  0  0  0  0  2  0  0  0  0  0  0
  189.7270  176.1380  141.3920 O   0  0  0  0  0  0  0  0  0  0  0  0
  190.2270  178.0640  143.5870 S   0  0  0  0  0  0  0  0  0  0  0  0
  188.9530  176.6500  138.7440 C   0  0  0  0  0  1  0  0  0  0  0  0
  183.4370  178.3500  139.6830 N   0  0  0  0  0  0  0  0  0  0  0  0
  184.4000  179.4420  139.5450 C   0  0  0  0  0  2  0  0  0  0  0  0
  187.8740  178.6860  139.6300 N   0  0  0  0  0  2  0  0  0  0  0  0
  188.9300  178.2030  142.3150 C   0  0  2  0  0  3  0  0  0  0  0  0
  186.5160  178.2100  142.3490 C   0  0  0  0  0  0  0  0  0  0  0  0
  185.4700  178.4680  141.6170 C   0  0  0  0  0  0  0  0  0  0  0  0
  184.1780  177.7800  141.9500 C   0  0  0  0  0  2  0  0  0  0  0  0
  190.8040  177.4070  146.5100 N   0  0  0  0  0  2  0  0  0  0  0  0
  189.4210  177.4890  146.1520 C   0  0  0  0  0  0  0  0  0  0  0  0
  188.5490  176.9010  146.8430 O   0  0  0  0  0  0  0  0  0  0  0  0
  191.2760  176.7090  147.6960 C   0  0  0  0  0  2  0  0  0  0  0  0
  193.3960  175.6180  147.9070 O   0  0  0  0  0  1  0  0  0  0  0  0
  192.1360  175.5190  147.3040 C   0  0  0  0  0  3  0  0  0  0  0  0
  192.2850  175.4980  145.9200 O   0  0  0  0  0  1  0  0  0  0  0  0
  182.2780  178.6170  138.8170 C   0  0  2  0  0  3  0  0  0  0  0  0
  182.1300  176.4910  137.3200 C   0  0  2  0  0  3  0  0  0  0  0  0
  181.9370  176.2710  135.8090 C   0  0  1  0  0  3  0  0  0  0  0  0
  180.3140  174.6840  137.7710 C   0  0  2  0  0  3  0  0  0  0  0  0
  181.0160  175.1190  135.4140 C   0  0  0  0  0  2  0  0  0  0  0  0
  180.8980  176.0530  138.1520 C   0  0  1  0  0  3  0  0  0  0  0  0
  181.2180  176.0300  139.5080 O   0  0  0  0  0  1  0  0  0  0  0  0
  182.4020  177.9920  137.4010 C   0  0  1  0  0  3  0  0  0  0  0  0
  181.4340  177.5820  135.2190 C   0  0  0  0  0  2  0  0  0  0  0  0
  181.5670  178.6370  136.3040 C   0  0  0  0  0  2  0  0  0  0  0  0
  180.9630  174.0740  136.5210 C   0  0  2  0  0  3  0  0  0  0  0  0
  178.9310  174.8120  137.6140 O   0  0  0  0  0  1  0  0  0  0  0  0
  180.2330  172.8180  136.0600 C   0  0  0  0  0  2  0  0  0  0  0  0
  180.3850  172.6550  134.6840 O   0  0  0  0  0  1  0  0  0  0  0  0
  180.5710  180.3090  139.4810 C   0  0  0  0  0  1  0  0  0  0  0  0
  181.9230  180.1010  138.8290 C   0  0  0  0  0  2  0  0  0  0  0  0
  1 20  1  1  0  0  0
  2  7  1  0  0  0  0
  3  9  2  0  0  0  0
  4 13  1  6  0  0  0
  4 17  1  0  0  0  0
  5  3  1  0  0  0  0
  6 18  1  0  0  0  0
  7  1  1  0  0  0  0
  8 14  1  0  0  0  0
  8  4  1  0  0  0  0
 10  1  1  0  0  0  0
 11  5  1  0  0  0  0
 12  6  1  0  0  0  0
 13 12  1  0  0  0  0
 14  5  1  0  0  0  0
 15  3  1  6  0  0  0
 15  2  1  0  0  0  0
 15 10  1  0  0  0  0
 16  2  2  0  0  0  0
 17 18  1  0  0  0  0
 17 16  2  0  0  0  0
 19 22  1  0  0  0  0
 20 19  1  0  0  0  0
 20 21  2  0  0  0  0
 24 22  1  0  0  0  0
 24 23  1  0  0  0  0
 25 24  1  0  0  0  0
 26 41  1  6  0  0  0
 26 12  1  0  0  0  0
 27 33  1  0  0  0  0
 27 31  1  0  0  0  0
 28 27  1  0  0  0  0
 29 31  1  0  0  0  0
 30 28  1  0  0  0  0
 30 36  1  0  0  0  0
 31 32  1  0  0  0  0
 33 26  1  0  0  0  0
 34 28  1  0  0  0  0
 34 35  1  0  0  0  0
 35 33  1  0  0  0  0
 36 29  1  0  0  0  0
 37 29  1  0  0  0  0
 38 36  1  0  0  0  0
 39 38  1  0  0  0  0
 41 40  1  0  0  0  0
M  END
>  <MODEL>
2

>  <REMARK>
 VINA RESULT:      -7.6      2.315      3.907
  Name = 
  7 active torsions:
  status: ('A' for Active; 'I' for Inactive)
    1  A    between atoms: C_5  and  C_24
    2  A    between atoms: N_9  and  C_12
    3  A    between atoms: C_12  and  C_21
    4  A    between atoms: C_14  and  C_23
    5  A    between atoms: C_23  and  N_32
    6  A    between atoms: C_23  and  C_37
    7  A    between atoms: C_29  and  C_30
                            x       y       z     vdW  Elec       q    Type
                         _______ _______ _______ _____ _____    ______ ____

>  <TORSDO>
F 7

$$$$
=
 OpenBabel11062415533D

 41 45  0  0  1  0  0  0  0  0999 V2000
  190.5000  178.5800  143.3720 C   0  0  2  0  0  3  0  0  0  0  0  0
  188.5140  178.1230  142.0980 C   0  0  0  0  0  0  0  0  0  0  0  0
  189.2910  177.2090  139.9420 C   0  0  0  0  0  0  0  0  0  0  0  0
  185.7090  179.0260  140.1770 C   0  0  1  0  0  3  0  0  0  0  0  0
  188.3370  177.3770  138.8790 N   0  0  0  0  0  0  0  0  0  0  0  0
  183.5360  178.3190  141.9920 C   0  0  0  0  0  2  0  0  0  0  0  0
  189.0760  178.0700  143.4650 C   0  0  0  0  0  2  0  0  0  0  0  0
  186.2090  178.0900  139.1770 N   0  0  0  0  0  2  0  0  0  0  0  0
  189.9370  176.1280  140.0360 O   0  0  0  0  0  0  0  0  0  0  0  0
  191.1540  178.2570  141.6980 S   0  0  0  0  0  0  0  0  0  0  0  0
  188.2390  176.3810  137.8180 C   0  0  0  0  0  1  0  0  0  0  0  0
  183.4030  178.2320  140.5360 N   0  0  0  0  0  0  0  0  0  0  0  0
  184.2210  179.2930  139.9490 C   0  0  0  0  0  2  0  0  0  0  0  0
  187.5050  178.5080  138.8330 N   0  0  0  0  0  2  0  0  0  0  0  0
  189.4790  178.2840  140.9800 C   0  0  2  0  0  3  0  0  0  0  0  0
  187.2440  178.3230  141.8920 C   0  0  0  0  0  0  0  0  0  0  0  0
  185.9970  178.5200  141.5720 C   0  0  0  0  0  0  0  0  0  0  0  0
  184.9330  177.8840  142.4190 C   0  0  0  0  0  2  0  0  0  0  0  0
  190.9800  176.7000  145.0030 N   0  0  0  0  0  2  0  0  0  0  0  0
  191.3530  177.9530  144.4230 C   0  0  0  0  0  0  0  0  0  0  0  0
  192.3860  178.5540  144.8190 O   0  0  0  0  0  0  0  0  0  0  0  0
  191.7760  176.0270  146.0180 C   0  0  0  0  0  2  0  0  0  0  0  0
  189.8550  176.6500  147.3020 O   0  0  0  0  0  1  0  0  0  0  0  0
  191.2040  176.2870  147.4010 C   0  0  0  0  0  3  0  0  0  0  0  0
  191.9170  177.3200  148.0040 O   0  0  0  0  0  1  0  0  0  0  0  0
  182.0020  178.4260  140.1310 C   0  0  2  0  0  3  0  0  0  0  0  0
  181.7290  177.6500  137.6590 C   0  0  2  0  0  3  0  0  0  0  0  0
  181.1860  178.3310  136.3900 C   0  0  1  0  0  3  0  0  0  0  0  0
  180.3140  175.5450  137.0850 C   0  0  2  0  0  3  0  0  0  0  0  0
  180.3360  177.4520  135.4730 C   0  0  0  0  0  2  0  0  0  0  0  0
  180.8100  176.5120  138.1700 C   0  0  1  0  0  3  0  0  0  0  0  0
  181.4650  175.7700  139.1520 O   0  0  0  0  0  1  0  0  0  0  0  0
  181.8340  178.8180  138.6380 C   0  0  1  0  0  3  0  0  0  0  0  0
  180.3980  179.5560  136.8320 C   0  0  0  0  0  2  0  0  0  0  0  0
  180.6780  179.7520  138.3130 C   0  0  0  0  0  2  0  0  0  0  0  0
  180.6910  175.9830  135.6630 C   0  0  2  0  0  3  0  0  0  0  0  0
  178.9310  175.3880  137.2190 O   0  0  0  0  0  1  0  0  0  0  0  0
  180.0200  175.1120  134.6070 C   0  0  0  0  0  2  0  0  0  0  0  0
  180.4170  173.7850  134.7590 O   0  0  0  0  0  1  0  0  0  0  0  0
  180.0800  178.6150  141.7080 C   0  0  0  0  0  1  0  0  0  0  0  0
  181.2730  179.3360  141.1150 C   0  0  0  0  0  2  0  0  0  0  0  0
  1  7  1  0  0  0  0
  1 20  1  1  0  0  0
  2  7  1  0  0  0  0
  3  9  2  0  0  0  0
  4 13  1  1  0  0  0
  4 17  1  0  0  0  0
  5  3  1  0  0  0  0
  6 18  1  0  0  0  0
  8  4  1  0  0  0  0
 10  1  1  0  0  0  0
 11  5  1  0  0  0  0
 12  6  1  0  0  0  0
 13 12  1  0  0  0  0
 14  5  1  0  0  0  0
 14  8  1  0  0  0  0
 15  3  1  6  0  0  0
 15 10  1  0  0  0  0
 15  2  1  0  0  0  0
 16  2  2  0  0  0  0
 17 16  2  0  0  0  0
 17 18  1  0  0  0  0
 19 22  1  0  0  0  0
 20 21  2  0  0  0  0
 20 19  1  0  0  0  0
 22 24  1  0  0  0  0
 23 24  1  0  0  0  0
 24 25  1  0  0  0  0
 26 12  1  0  0  0  0
 26 41  1  1  0  0  0
 27 31  1  0  0  0  0
 27 33  1  0  0  0  0
 28 34  1  0  0  0  0
 28 27  1  0  0  0  0
 29 37  1  0  0  0  0
 29 31  1  0  0  0  0
 30 36  1  0  0  0  0
 30 28  1  0  0  0  0
 31 32  1  0  0  0  0
 33 26  1  0  0  0  0
 34 35  1  0  0  0  0
 35 33  1  0  0  0  0
 36 29  1  0  0  0  0
 38 39  1  0  0  0  0
 38 36  1  0  0  0  0
 41 40  1  0  0  0  0
M  END
>  <MODEL>
3

>  <REMARK>
 VINA RESULT:      -6.6      2.410      3.426
  Name = 
  7 active torsions:
  status: ('A' for Active; 'I' for Inactive)
    1  A    between atoms: C_5  and  C_24
    2  A    between atoms: N_9  and  C_12
    3  A    between atoms: C_12  and  C_21
    4  A    between atoms: C_14  and  C_23
    5  A    between atoms: C_23  and  N_32
    6  A    between atoms: C_23  and  C_37
    7  A    between atoms: C_29  and  C_30
                            x       y       z     vdW  Elec       q    Type
                         _______ _______ _______ _____ _____    ______ ____

>  <TORSDO>
F 7

$$$$
=
 OpenBabel11062415533D

 41 45  0  0  1  0  0  0  0  0999 V2000
  188.9100  178.2530  145.0060 C   0  0  2  0  0  3  0  0  0  0  0  0
  187.4860  177.9630  143.0930 C   0  0  0  0  0  0  0  0  0  0  0  0
  188.9680  177.2640  141.2490 C   0  0  0  0  0  0  0  0  0  0  0  0
  185.4860  179.1080  140.4350 C   0  0  1  0  0  3  0  0  0  0  0  0
  188.4300  177.5580  139.9480 N   0  0  0  0  0  0  0  0  0  0  0  0
  182.8390  178.2540  141.3170 C   0  0  0  0  0  2  0  0  0  0  0  0
  187.5490  177.7600  144.5560 C   0  0  0  0  0  2  0  0  0  0  0  0
  186.3140  178.2720  139.5740 N   0  0  0  0  0  2  0  0  0  0  0  0
  189.5640  176.1680  141.4450 O   0  0  0  0  0  0  0  0  0  0  0  0
  190.1010  178.0930  143.6320 S   0  0  0  0  0  0  0  0  0  0  0  0
  188.7180  176.6780  138.8190 C   0  0  0  0  0  1  0  0  0  0  0  0
  183.2110  178.3210  139.9020 N   0  0  0  0  0  0  0  0  0  0  0  0
  184.1600  179.4230  139.7420 C   0  0  0  0  0  2  0  0  0  0  0  0
  187.6420  178.7020  139.7370 N   0  0  0  0  0  2  0  0  0  0  0  0
  188.7710  178.2220  142.3930 C   0  0  2  0  0  3  0  0  0  0  0  0
  186.3580  178.2060  142.4880 C   0  0  0  0  0  0  0  0  0  0  0  0
  185.2920  178.4550  141.7840 C   0  0  0  0  0  0  0  0  0  0  0  0
  184.0150  177.7530  142.1480 C   0  0  0  0  0  2  0  0  0  0  0  0
  190.7560  177.4490  146.5460 N   0  0  0  0  0  2  0  0  0  0  0  0
  189.3660  177.5050  146.2150 C   0  0  0  0  0  0  0  0  0  0  0  0
  188.5190  176.8950  146.9190 O   0  0  0  0  0  0  0  0  0  0  0  0
  191.2650  176.7530  147.7180 C   0  0  0  0  0  2  0  0  0  0  0  0
  193.3720  175.6270  147.8730 O   0  0  0  0  0  1  0  0  0  0  0  0
  192.0950  175.5500  147.3030 C   0  0  0  0  0  3  0  0  0  0  0  0
  192.2080  175.5290  145.9150 O   0  0  0  0  0  1  0  0  0  0  0  0
  182.0290  178.5790  139.0660 C   0  0  2  0  0  3  0  0  0  0  0  0
  181.8100  176.4710  137.5520 C   0  0  2  0  0  3  0  0  0  0  0  0
  181.0690  175.1310  137.7040 C   0  0  1  0  0  3  0  0  0  0  0  0
  183.9270  175.1660  136.7930 C   0  0  2  0  0  3  0  0  0  0  0  0
  181.8220  173.8930  137.2180 C   0  0  0  0  0  2  0  0  0  0  0  0
  183.3500  176.3170  137.6290 C   0  0  1  0  0  3  0  0  0  0  0  0
  183.9710  177.5010  137.2330 O   0  0  0  0  0  1  0  0  0  0  0  0
  181.2340  177.2970  138.7000 C   0  0  1  0  0  3  0  0  0  0  0  0
  180.6910  174.9830  139.1710 C   0  0  0  0  0  2  0  0  0  0  0  0
  180.9710  176.3200  139.8370 C   0  0  0  0  0  2  0  0  0  0  0  0
  182.8500  174.2740  136.1610 C   0  0  2  0  0  3  0  0  0  0  0  0
  184.7990  174.4200  137.5940 O   0  0  0  0  0  1  0  0  0  0  0  0
  183.4520  173.0370  135.5060 C   0  0  0  0  0  2  0  0  0  0  0  0
  182.9690  171.8850  136.1260 O   0  0  0  0  0  1  0  0  0  0  0  0
  181.2490  180.4200  137.5770 C   0  0  0  0  0  1  0  0  0  0  0  0
  182.3870  179.4670  137.8780 C   0  0  0  0  0  2  0  0  0  0  0  0
  1 20  1  1  0  0  0
  2  7  1  0  0  0  0
  3  9  2  0  0  0  0
  4 13  1  6  0  0  0
  4 17  1  0  0  0  0
  5  3  1  0  0  0  0
  6 18  1  0  0  0  0
  7  1  1  0  0  0  0
  8 14  1  0  0  0  0
  8  4  1  0  0  0  0
 10  1  1  0  0  0  0
 11  5  1  0  0  0  0
 12  6  1  0  0  0  0
 13 12  1  0  0  0  0
 14  5  1  0  0  0  0
 15  3  1  6  0  0  0
 15  2  1  0  0  0  0
 15 10  1  0  0  0  0
 16  2  2  0  0  0  0
 17 18  1  0  0  0  0
 17 16  2  0  0  0  0
 19 22  1  0  0  0  0
 20 19  1  0  0  0  0
 20 21  2  0  0  0  0
 24 22  1  0  0  0  0
 24 23  1  0  0  0  0
 25 24  1  0  0  0  0
 26 41  1  6  0  0  0
 26 12  1  0  0  0  0
 27 31  1  0  0  0  0
 27 28  1  0  0  0  0
 27 33  1  0  0  0  0
 28 34  1  0  0  0  0
 29 37  1  0  0  0  0
 29 31  1  0  0  0  0
 30 28  1  0  0  0  0
 32 31  1  0  0  0  0
 33 26  1  0  0  0  0
 33 35  1  0  0  0  0
 34 35  1  0  0  0  0
 36 29  1  0  0  0  0
 36 30  1  0  0  0  0
 38 39  1  0  0  0  0
 38 36  1  0  0  0  0
 40 41  1  0  0  0  0
M  END
>  <MODEL>
4

>  <REMARK>
 VINA RESULT:      -6.3      2.060      4.235
  Name = 
  7 active torsions:
  status: ('A' for Active; 'I' for Inactive)
    1  A    between atoms: C_5  and  C_24
    2  A    between atoms: N_9  and  C_12
    3  A    between atoms: C_12  and  C_21
    4  A    between atoms: C_14  and  C_23
    5  A    between atoms: C_23  and  N_32
    6  A    between atoms: C_23  and  C_37
    7  A    between atoms: C_29  and  C_30
                            x       y       z     vdW  Elec       q    Type
                         _______ _______ _______ _____ _____    ______ ____

>  <TORSDO>
F 7

$$$$
=
 OpenBabel11062415533D

 41 45  0  0  1  0  0  0  0  0999 V2000
  193.0990  176.2360  136.3780 C   0  0  2  0  0  3  0  0  0  0  0  0
  190.7910  176.2190  137.0450 C   0  0  0  0  0  0  0  0  0  0  0  0
  189.6880  174.5340  135.6180 C   0  0  0  0  0  0  0  0  0  0  0  0
  187.5330  177.5390  137.2060 C   0  0  1  0  0  3  0  0  0  0  0  0
  188.2730  174.7480  135.4800 N   0  0  0  0  0  0  0  0  0  0  0  0
  187.3390  178.2070  140.0390 C   0  0  0  0  0  2  0  0  0  0  0  0
  192.1680  176.3350  137.5690 C   0  0  0  0  0  2  0  0  0  0  0  0
  187.0860  176.2500  136.6890 N   0  0  0  0  0  2  0  0  0  0  0  0
  190.1320  173.3610  135.7600 O   0  0  0  0  0  0  0  0  0  0  0  0
  192.3010  175.2530  135.0620 S   0  0  0  0  0  0  0  0  0  0  0  0
  187.3700  173.6120  135.3300 C   0  0  0  0  0  1  0  0  0  0  0  0
  186.1790  177.7840  139.2510 N   0  0  0  0  0  0  0  0  0  0  0  0
  186.3710  178.2650  137.8830 C   0  0  0  0  0  2  0  0  0  0  0  0
  187.7410  176.0490  135.4630 N   0  0  0  0  0  2  0  0  0  0  0  0
  190.6390  175.7010  135.6610 C   0  0  2  0  0  3  0  0  0  0  0  0
  189.7880  176.8110  137.6280 C   0  0  0  0  0  0  0  0  0  0  0  0
  188.7180  177.3600  138.1270 C   0  0  0  0  0  0  0  0  0  0  0  0
  188.5750  177.4190  139.6210 C   0  0  0  0  0  2  0  0  0  0  0  0
  194.4760  174.6970  137.8480 N   0  0  0  0  0  2  0  0  0  0  0  0
  194.4090  175.6480  136.7820 C   0  0  0  0  0  0  0  0  0  0  0  0
  195.4600  176.0240  136.1980 O   0  0  0  0  0  0  0  0  0  0  0  0
  195.7180  174.0740  138.2780 C   0  0  0  0  0  2  0  0  0  0  0  0
  195.3050  175.6840  140.0010 O   0  0  0  0  0  1  0  0  0  0  0  0
  196.1880  174.6770  139.5910 C   0  0  0  0  0  3  0  0  0  0  0  0
  197.4590  175.2200  139.4150 O   0  0  0  0  0  1  0  0  0  0  0  0
  184.9420  178.3640  139.7960 C   0  0  2  0  0  3  0  0  0  0  0  0
  182.9190  178.0400  138.1890 C   0  0  2  0  0  3  0  0  0  0  0  0
  181.9650  179.0160  137.4760 C   0  0  1  0  0  3  0  0  0  0  0  0
  180.8590  176.6340  138.9260 C   0  0  2  0  0  3  0  0  0  0  0  0
  180.4960  178.6010  137.4320 C   0  0  0  0  0  2  0  0  0  0  0  0
  182.2200  177.2310  139.3110 C   0  0  1  0  0  3  0  0  0  0  0  0
  183.0480  176.1950  139.7420 O   0  0  0  0  0  1  0  0  0  0  0  0
  184.0100  178.9710  138.7130 C   0  0  1  0  0  3  0  0  0  0  0  0
  182.1150  180.3730  138.1510 C   0  0  0  0  0  2  0  0  0  0  0  0
  183.3170  180.2770  139.0750 C   0  0  0  0  0  2  0  0  0  0  0  0
  180.3650  177.0880  137.5460 C   0  0  2  0  0  3  0  0  0  0  0  0
  179.9320  176.9440  139.9260 O   0  0  0  0  0  1  0  0  0  0  0  0
  178.9330  176.6370  137.2810 C   0  0  0  0  0  2  0  0  0  0  0  0
  178.9330  175.4030  136.6320 O   0  0  0  0  0  1  0  0  0  0  0  0
  184.5750  178.7870  142.2260 C   0  0  0  0  0  1  0  0  0  0  0  0
  185.2490  179.2940  140.9670 C   0  0  0  0  0  2  0  0  0  0  0  0
  1 20  1  1  0  0  0
  1  7  1  0  0  0  0
  2  7  1  0  0  0  0
  2 16  2  0  0  0  0
  3 15  1  0  0  0  0
  3  9  2  0  0  0  0
  4 13  1  1  0  0  0
  4 17  1  0  0  0  0
  5  3  1  0  0  0  0
  8  4  1  0  0  0  0
 10  1  1  0  0  0  0
 11  5  1  0  0  0  0
 12 26  1  0  0  0  0
 12  6  1  0  0  0  0
 13 12  1  0  0  0  0
 14  5  1  0  0  0  0
 14  8  1  0  0  0  0
 15 10  1  1  0  0  0
 15  2  1  0  0  0  0
 16 17  2  0  0  0  0
 17 18  1  0  0  0  0
 18  6  1  0  0  0  0
 19 22  1  0  0  0  0
 20 19  1  0  0  0  0
 21 20  2  0  0  0  0
 22 24  1  0  0  0  0
 24 23  1  0  0  0  0
 25 24  1  0  0  0  0
 26 41  1  1  0  0  0
 27 33  1  0  0  0  0
 27 31  1  0  0  0  0
 28 34  1  0  0  0  0
 28 27  1  0  0  0  0
 29 31  1  0  0  0  0
 29 37  1  0  0  0  0
 30 28  1  0  0  0  0
 30 36  1  0  0  0  0
 31 32  1  0  0  0  0
 33 35  1  0  0  0  0
 33 26  1  0  0  0  0
 34 35  1  0  0  0  0
 36 29  1  0  0  0  0
 38 36  1  0  0  0  0
 39 38  1  0  0  0  0
 41 40  1  0  0  0  0
M  END
>  <MODEL>
5

>  <REMARK>
 VINA RESULT:      -6.2      4.646      6.510
  Name = 
  7 active torsions:
  status: ('A' for Active; 'I' for Inactive)
    1  A    between atoms: C_5  and  C_24
    2  A    between atoms: N_9  and  C_12
    3  A    between atoms: C_12  and  C_21
    4  A    between atoms: C_14  and  C_23
    5  A    between atoms: C_23  and  N_32
    6  A    between atoms: C_23  and  C_37
    7  A    between atoms: C_29  and  C_30
                            x       y       z     vdW  Elec       q    Type
                         _______ _______ _______ _____ _____    ______ ____

>  <TORSDO>
F 7

$$$$
=
 OpenBabel11062415533D

 41 45  0  0  1  0  0  0  0  0999 V2000
  189.8990  175.7880  136.9350 C   0  0  2  0  0  3  0  0  0  0  0  0
  187.5120  175.8380  137.2070 C   0  0  0  0  0  0  0  0  0  0  0  0
  186.7390  173.5290  136.8050 C   0  0  0  0  0  0  0  0  0  0  0  0
  184.2290  176.6180  136.2120 C   0  0  1  0  0  3  0  0  0  0  0  0
  185.3620  173.4570  136.3950 N   0  0  0  0  0  0  0  0  0  0  0  0
  183.5200  178.6600  138.1710 C   0  0  0  0  0  2  0  0  0  0  0  0
  188.7720  176.3870  137.7520 C   0  0  0  0  0  2  0  0  0  0  0  0
  183.9270  175.2080  136.4300 N   0  0  0  0  0  2  0  0  0  0  0  0
  187.1940  172.6780  137.6180 O   0  0  0  0  0  0  0  0  0  0  0  0
  189.3800  174.1650  136.2810 S   0  0  0  0  0  0  0  0  0  0  0  0
  184.5420  172.3120  136.7780 C   0  0  0  0  0  1  0  0  0  0  0  0
  182.5310  177.7410  137.6030 N   0  0  0  0  0  0  0  0  0  0  0  0
  182.9400  177.4400  136.2310 C   0  0  0  0  0  2  0  0  0  0  0  0
  184.7930  174.4700  135.6050 N   0  0  0  0  0  2  0  0  0  0  0  0
  187.6230  174.6490  136.3230 C   0  0  2  0  0  3  0  0  0  0  0  0
  186.4020  176.5180  137.2420 C   0  0  0  0  0  0  0  0  0  0  0  0
  185.2410  177.1080  137.2220 C   0  0  0  0  0  0  0  0  0  0  0  0
  184.8390  177.9340  138.4100 C   0  0  0  0  0  2  0  0  0  0  0  0
  192.4180  175.5780  137.1200 N   0  0  0  0  0  2  0  0  0  0  0  0
  191.1400  175.6750  137.7550 C   0  0  0  0  0  0  0  0  0  0  0  0
  191.0480  175.6300  139.0100 O   0  0  0  0  0  0  0  0  0  0  0  0
  193.6670  175.4830  137.8610 C   0  0  0  0  0  2  0  0  0  0  0  0
  195.6590  174.1610  137.7440 O   0  0  0  0  0  1  0  0  0  0  0  0
  194.7680  174.9230  136.9770 C   0  0  0  0  0  3  0  0  0  0  0  0
  195.4570  175.9770  136.3810 O   0  0  0  0  0  1  0  0  0  0  0  0
  181.1980  178.3610  137.5830 C   0  0  2  0  0  3  0  0  0  0  0  0
  181.2820  180.9630  137.6080 C   0  0  2  0  0  3  0  0  0  0  0  0
  180.7570  182.0310  138.5860 C   0  0  1  0  0  3  0  0  0  0  0  0
  180.2780  182.3360  135.6400 C   0  0  2  0  0  3  0  0  0  0  0  0
  180.1470  183.2780  137.9480 C   0  0  0  0  0  2  0  0  0  0  0  0
  180.5120  180.9520  136.2630 C   0  0  1  0  0  3  0  0  0  0  0  0
  181.1820  180.1590  135.3330 O   0  0  0  0  0  1  0  0  0  0  0  0
  181.1090  179.6730  138.4070 C   0  0  1  0  0  3  0  0  0  0  0  0
  179.7480  181.3520  139.5010 C   0  0  0  0  0  2  0  0  0  0  0  0
  179.8540  179.8570  139.2480 C   0  0  0  0  0  2  0  0  0  0  0  0
  180.7110  183.4930  136.5500 C   0  0  2  0  0  3  0  0  0  0  0  0
  178.9310  182.4470  135.2810 O   0  0  0  0  0  1  0  0  0  0  0  0
  180.2880  184.8450  135.9870 C   0  0  0  0  0  2  0  0  0  0  0  0
  180.8180  185.0170  134.7100 O   0  0  0  0  0  1  0  0  0  0  0  0
  180.7300  176.1270  138.5860 C   0  0  0  0  0  1  0  0  0  0  0  0
  180.1170  177.3320  137.9040 C   0  0  0  0  0  2  0  0  0  0  0  0
  1  7  1  0  0  0  0
  1 20  1  1  0  0  0
  2 16  2  0  0  0  0
  2  7  1  0  0  0  0
  3  9  2  0  0  0  0
  4 13  1  1  0  0  0
  4  8  1  0  0  0  0
  4 17  1  0  0  0  0
  5 11  1  0  0  0  0
  5  3  1  0  0  0  0
  6 18  1  0  0  0  0
 10  1  1  0  0  0  0
 12  6  1  0  0  0  0
 13 12  1  0  0  0  0
 14  5  1  0  0  0  0
 14  8  1  0  0  0  0
 15 10  1  1  0  0  0
 15  3  1  0  0  0  0
 15  2  1  0  0  0  0
 17 16  2  0  0  0  0
 17 18  1  0  0  0  0
 19 20  1  0  0  0  0
 19 22  1  0  0  0  0
 20 21  2  0  0  0  0
 24 23  1  0  0  0  0
 24 22  1  0  0  0  0
 25 24  1  0  0  0  0
 26 12  1  0  0  0  0
 26 41  1  1  0  0  0
 26 33  1  0  0  0  0
 27 33  1  0  0  0  0
 27 28  1  0  0  0  0
 28 34  1  0  0  0  0
 29 31  1  0  0  0  0
 29 36  1  0  0  0  0
 30 28  1  0  0  0  0
 31 27  1  0  0  0  0
 32 31  1  0  0  0  0
 33 35  1  0  0  0  0
 35 34  1  0  0  0  0
 36 30  1  0  0  0  0
 37 29  1  0  0  0  0
 38 36  1  0  0  0  0
 39 38  1  0  0  0  0
 41 40  1  0  0  0  0
M  END
>  <MODEL>
6

>  <REMARK>
 VINA RESULT:      -5.9      4.897      5.700
  Name = 
  7 active torsions:
  status: ('A' for Active; 'I' for Inactive)
    1  A    between atoms: C_5  and  C_24
    2  A    between atoms: N_9  and  C_12
    3  A    between atoms: C_12  and  C_21
    4  A    between atoms: C_14  and  C_23
    5  A    between atoms: C_23  and  N_32
    6  A    between atoms: C_23  and  C_37
    7  A    between atoms: C_29  and  C_30
                            x       y       z     vdW  Elec       q    Type
                         _______ _______ _______ _____ _____    ______ ____

>  <TORSDO>
F 7

$$$$
=
 OpenBabel11062415533D

 41 45  0  0  1  0  0  0  0  0999 V2000
  189.6510  178.0130  142.4250 C   0  0  2  0  0  3  0  0  0  0  0  0
  187.6360  177.9430  141.1180 C   0  0  0  0  0  0  0  0  0  0  0  0
  188.3250  177.2460  138.8530 C   0  0  0  0  0  0  0  0  0  0  0  0
  184.9560  179.3880  139.3560 C   0  0  1  0  0  3  0  0  0  0  0  0
  187.4020  177.6550  137.8300 N   0  0  0  0  0  0  0  0  0  0  0  0
  182.7080  178.6820  141.0770 C   0  0  0  0  0  2  0  0  0  0  0  0
  188.1800  177.6490  142.4610 C   0  0  0  0  0  2  0  0  0  0  0  0
  185.3590  178.5440  138.2360 N   0  0  0  0  0  2  0  0  0  0  0  0
  188.8510  176.1000  138.7980 O   0  0  0  0  0  0  0  0  0  0  0  0
  190.2780  177.8470  140.7190 S   0  0  0  0  0  0  0  0  0  0  0  0
  187.2040  176.8250  136.6460 C   0  0  0  0  0  1  0  0  0  0  0  0
  182.5760  178.8040  139.6230 N   0  0  0  0  0  0  0  0  0  0  0  0
  183.5060  179.8400  139.1760 C   0  0  0  0  0  2  0  0  0  0  0  0
  186.6950  178.8650  137.9410 N   0  0  0  0  0  2  0  0  0  0  0  0
  188.6200  178.1470  140.0240 C   0  0  2  0  0  3  0  0  0  0  0  0
  186.3960  178.3030  140.9500 C   0  0  0  0  0  0  0  0  0  0  0  0
  185.1790  178.6720  140.6680 C   0  0  0  0  0  0  0  0  0  0  0  0
  184.0480  178.0470  141.4320 C   0  0  0  0  0  2  0  0  0  0  0  0
  190.8970  177.7090  144.6120 N   0  0  0  0  0  2  0  0  0  0  0  0
  190.4260  177.1640  143.3770 C   0  0  0  0  0  0  0  0  0  0  0  0
  190.6910  175.9730  143.0650 O   0  0  0  0  0  0  0  0  0  0  0  0
  191.6420  176.9310  145.5900 C   0  0  0  0  0  2  0  0  0  0  0  0
  189.7060  177.6020  146.8280 O   0  0  0  0  0  1  0  0  0  0  0  0
  190.8400  176.7820  146.8720 C   0  0  0  0  0  3  0  0  0  0  0  0
  191.6360  177.1500  147.9540 O   0  0  0  0  0  1  0  0  0  0  0  0
  181.2060  179.1980  139.2580 C   0  0  2  0  0  3  0  0  0  0  0  0
  180.2430  176.9810  138.2880 C   0  0  2  0  0  3  0  0  0  0  0  0
  179.4170  175.8310  138.8920 C   0  0  1  0  0  3  0  0  0  0  0  0
  181.8200  175.2210  137.2020 C   0  0  2  0  0  3  0  0  0  0  0  0
  179.8070  174.4230  138.4460 C   0  0  0  0  0  2  0  0  0  0  0  0
  181.6940  176.5600  137.9420 C   0  0  1  0  0  3  0  0  0  0  0  0
  182.3100  177.5460  137.1720 O   0  0  0  0  0  1  0  0  0  0  0  0
  180.1740  178.0450  139.3810 C   0  0  1  0  0  3  0  0  0  0  0  0
  179.5070  175.9540  140.4060 C   0  0  0  0  0  2  0  0  0  0  0  0
  180.1570  177.2940  140.7050 C   0  0  0  0  0  2  0  0  0  0  0  0
  180.4900  174.4640  137.0850 C   0  0  2  0  0  3  0  0  0  0  0  0
  182.7930  174.4430  137.8390 O   0  0  0  0  0  1  0  0  0  0  0  0
  180.6850  173.0610  136.5230 C   0  0  0  0  0  2  0  0  0  0  0  0
  180.3820  172.1100  137.4960 O   0  0  0  0  0  1  0  0  0  0  0  0
  179.9830  180.8380  137.8340 C   0  0  0  0  0  1  0  0  0  0  0  0
  181.1900  179.9270  137.9180 C   0  0  0  0  0  2  0  0  0  0  0  0
  1  7  1  0  0  0  0
  1 20  1  1  0  0  0
  2  7  1  0  0  0  0
  4 13  1  6  0  0  0
  4 17  1  0  0  0  0
  5 14  1  0  0  0  0
  5  3  1  0  0  0  0
  6 18  1  0  0  0  0
  8  4  1  0  0  0  0
  9  3  2  0  0  0  0
 10  1  1  0  0  0  0
 11  5  1  0  0  0  0
 12  6  1  0  0  0  0
 13 12  1  0  0  0  0
 14  8  1  0  0  0  0
 15  3  1  6  0  0  0
 15 10  1  0  0  0  0
 15  2  1  0  0  0  0
 16  2  2  0  0  0  0
 17 16  2  0  0  0  0
 17 18  1  0  0  0  0
 19 22  1  0  0  0  0
 20 19  1  0  0  0  0
 21 20  2  0  0  0  0
 22 24  1  0  0  0  0
 23 24  1  0  0  0  0
 24 25  1  0  0  0  0
 26 41  1  6  0  0  0
 26 33  1  0  0  0  0
 26 12  1  0  0  0  0
 27 28  1  0  0  0  0
 27 33  1  0  0  0  0
 28 34  1  0  0  0  0
 29 37  1  0  0  0  0
 29 31  1  0  0  0  0
 30 28  1  0  0  0  0
 31 27  1  0  0  0  0
 32 31  1  0  0  0  0
 33 35  1  0  0  0  0
 34 35  1  0  0  0  0
 36 29  1  0  0  0  0
 36 30  1  0  0  0  0
 38 36  1  0  0  0  0
 38 39  1  0  0  0  0
 40 41  1  0  0  0  0
M  END
>  <MODEL>
7

>  <REMARK>
 VINA RESULT:      -5.8      2.221      4.339
  Name = 
  7 active torsions:
  status: ('A' for Active; 'I' for Inactive)
    1  A    between atoms: C_5  and  C_24
    2  A    between atoms: N_9  and  C_12
    3  A    between atoms: C_12  and  C_21
    4  A    between atoms: C_14  and  C_23
    5  A    between atoms: C_23  and  N_32
    6  A    between atoms: C_23  and  C_37
    7  A    between atoms: C_29  and  C_30
                            x       y       z     vdW  Elec       q    Type
                         _______ _______ _______ _____ _____    ______ ____

>  <TORSDO>
F 7

$$$$
