=
 OpenBabel11062417143D

 36 37  0  0  1  0  0  0  0  0999 V2000
  182.5230  178.6680  141.4510 C   0  0  0  0  0  0  0  0  0  0  0  0
  181.1730  178.6900  143.4560 C   0  0  0  0  0  0  0  0  0  0  0  0
  181.2720  178.5600  142.0570 C   0  0  0  0  0  3  0  0  0  0  0  0
  185.0030  178.9620  141.2110 S   0  0  0  0  0  0  0  0  0  0  0  0
  182.3370  178.9250  144.2200 C   0  0  0  0  0  3  0  0  0  0  0  0
  183.6570  178.9000  142.2160 C   0  0  0  0  0  0  0  0  0  0  0  0
  184.1220  178.7080  139.7920 C   0  0  0  0  0  0  0  0  0  0  0  0
  183.5910  179.0390  143.6040 C   0  0  0  0  0  0  0  0  0  0  0  0
  182.7680  178.5500  140.0800 C   0  0  0  0  0  3  0  0  0  0  0  0
  179.8630  178.5720  144.1190 C   0  0  0  0  0  0  0  0  0  0  0  0
  179.5080  177.4790  144.6360 O   0  0  0  0  0  0  0  0  0  0  0  0
  178.9820  179.6900  144.1840 N   0  0  0  0  0  1  0  0  0  0  0  0
  184.7220  178.5790  138.4370 C   0  0  0  0  0  2  0  0  0  0  0  0
  186.1150  178.5410  138.5390 O   0  0  0  0  0  0  0  0  0  0  0  0
  185.3460  177.0010  136.9760 N   0  0  0  0  0  1  0  0  0  0  0  0
  186.5180  177.6010  137.5890 C   0  0  1  0  0  3  0  0  0  0  0  0
  187.3640  178.2850  136.5240 C   0  0  0  0  0  2  0  0  0  0  0  0
  188.7500  178.5400  137.0240 C   0  0  0  0  0  0  0  0  0  0  0  0
  189.0470  179.6630  137.5650 N   0  0  0  0  0  2  0  0  0  0  0  0
  189.7470  177.4340  137.0190 C   0  0  0  0  0  1  0  0  0  0  0  0
  184.8180  179.2470  144.4250 C   0  0  0  0  0  2  0  0  0  0  0  0
  184.5610  178.8390  145.7940 N   0  0  0  0  0  2  0  0  0  0  0  0
  185.7930  179.0440  146.5340 C   0  0  0  0  0  2  0  0  0  0  0  0
  186.2560  176.8660  145.7090 O   0  0  0  0  0  0  0  0  0  0  0  0
  186.6580  177.8340  146.4100 C   0  0  0  0  0  0  0  0  0  0  0  0
  188.0690  178.2240  148.3510 C   0  0  0  0  0  2  0  0  0  0  0  0
  187.9580  177.7640  147.1050 C   0  0  0  0  0  0  0  0  0  0  0  0
  190.2960  176.9210  147.3640 C   0  0  0  0  0  1  0  0  0  0  0  0
  189.1620  177.2040  146.3930 C   0  0  2  0  0  3  0  0  0  0  0  0
  189.6430  178.1230  145.2780 C   0  0  0  0  0  2  0  0  0  0  0  0
  189.5010  177.4550  143.9540 C   0  0  0  0  0  0  0  0  0  0  0  0
  188.9740  176.3140  143.8920 O   0  0  0  0  0  0  0  0  0  0  0  0
  189.9090  178.1510  142.7690 N   0  0  0  0  0  2  0  0  0  0  0  0
  188.6870  177.5310  140.6610 C   0  0  0  0  0  1  0  0  0  0  0  0
  191.3640  177.3010  140.6660 S   0  0  0  0  0  0  0  0  0  0  0  0
  189.9530  177.6320  141.4320 C   0  0  0  0  0  0  0  0  0  0  0  0
  1  3  2  0  0  0  0
  1  6  1  0  0  0  0
  2 10  1  0  0  0  0
  2  5  2  0  0  0  0
  3  2  1  0  0  0  0
  4  6  1  0  0  0  0
  6  8  2  0  0  0  0
  7  9  2  0  0  0  0
  7  4  1  0  0  0  0
  8  5  1  0  0  0  0
  8 21  1  0  0  0  0
  9  1  1  0  0  0  0
 10 12  1  0  0  0  0
 10 11  2  0  0  0  0
 13 14  1  0  0  0  0
 13  7  1  0  0  0  0
 16 15  1  6  0  0  0
 16 14  1  0  0  0  0
 17 18  1  0  0  0  0
 17 16  1  0  0  0  0
 18 19  2  0  0  0  0
 20 18  1  0  0  0  0
 21 22  1  0  0  0  0
 22 23  1  0  0  0  0
 24 25  2  0  0  0  0
 25 23  1  0  0  0  0
 25 27  1  0  0  0  0
 27 26  2  0  0  0  0
 29 27  1  0  0  0  0
 29 28  1  1  0  0  0
 30 29  1  0  0  0  0
 31 30  1  0  0  0  0
 32 31  2  0  0  0  0
 33 31  1  0  0  0  0
 34 36  1  0  0  0  0
 35 36  2  0  0  0  0
 36 33  1  0  0  0  0
M  END
>  <MODEL>
1

>  <REMARK>
 VINA RESULT:      -8.0      0.000      0.000
  Name = 
  15 active torsions:
  status: ('A' for Active; 'I' for Inactive)
    1  A    between atoms: C_2  and  O_25
    2  A    between atoms: C_2  and  C_30
    3  A    between atoms: C_5  and  C_19
    4  A    between atoms: C_8  and  N_13
    5  A    between atoms: C_8  and  C_33
    6  A    between atoms: C_10  and  C_12
    7  A    between atoms: C_12  and  C_31
    8  A    between atoms: N_13  and  C_32
    9  A    between atoms: C_14  and  C_21
   10  A    between atoms: C_16  and  C_32
   11  A    between atoms: C_16  and  C_36
   12  A    between atoms: C_18  and  N_20
   13  A    between atoms: C_19  and  C_28
   14  A    between atoms: O_25  and  C_31
   15  A    between atoms: C_28  and  C_36
                            x       y       z     vdW  Elec       q    Type
                         _______ _______ _______ _____ _____    ______ ____

>  <TORSDO>
F 15

$$$$
=
 OpenBabel11062417143D

 36 37  0  0  1  0  0  0  0  0999 V2000
  185.8820  178.2980  145.5060 C   0  0  0  0  0  0  0  0  0  0  0  0
  187.9910  177.6880  146.5170 C   0  0  0  0  0  0  0  0  0  0  0  0
  186.6850  178.2010  146.6410 C   0  0  0  0  0  3  0  0  0  0  0  0
  185.1650  178.1110  143.1080 S   0  0  0  0  0  0  0  0  0  0  0  0
  188.4640  177.2780  145.2510 C   0  0  0  0  0  3  0  0  0  0  0  0
  186.3620  177.8910  144.2690 C   0  0  0  0  0  0  0  0  0  0  0  0
  184.0390  178.7450  144.1960 C   0  0  0  0  0  0  0  0  0  0  0  0
  187.6520  177.3830  144.1120 C   0  0  0  0  0  0  0  0  0  0  0  0
  184.5690  178.7760  145.4840 C   0  0  0  0  0  3  0  0  0  0  0  0
  188.8550  177.5700  147.7040 C   0  0  0  0  0  0  0  0  0  0  0  0
  188.4610  177.9960  148.8230 O   0  0  0  0  0  0  0  0  0  0  0  0
  190.1460  176.9750  147.6030 N   0  0  0  0  0  1  0  0  0  0  0  0
  182.6460  179.1280  143.8430 C   0  0  0  0  0  2  0  0  0  0  0  0
  182.4140  178.8690  142.4890 O   0  0  0  0  0  0  0  0  0  0  0  0
  180.4740  180.1130  142.8000 N   0  0  0  0  0  1  0  0  0  0  0  0
  181.0250  178.8410  142.3630 C   0  0  1  0  0  3  0  0  0  0  0  0
  180.6510  178.5900  140.9090 C   0  0  0  0  0  2  0  0  0  0  0  0
  180.1960  177.1800  140.7080 C   0  0  0  0  0  0  0  0  0  0  0  0
  179.2700  176.6880  141.4460 N   0  0  0  0  0  2  0  0  0  0  0  0
  180.7220  176.3950  139.5580 C   0  0  0  0  0  1  0  0  0  0  0  0
  188.1480  176.9090  142.7880 C   0  0  0  0  0  2  0  0  0  0  0  0
  189.4560  177.4810  142.5270 N   0  0  0  0  0  2  0  0  0  0  0  0
  190.2360  176.4590  141.8510 C   0  0  0  0  0  2  0  0  0  0  0  0
  191.8860  177.9040  140.9410 O   0  0  0  0  0  0  0  0  0  0  0  0
  190.9720  177.0700  140.7040 C   0  0  0  0  0  0  0  0  0  0  0  0
  191.5790  176.2950  138.4810 C   0  0  0  0  0  2  0  0  0  0  0  0
  190.6270  176.7130  139.3140 C   0  0  0  0  0  0  0  0  0  0  0  0
  189.0050  176.1620  137.4950 C   0  0  0  0  0  1  0  0  0  0  0  0
  189.2060  176.8530  138.8320 C   0  0  2  0  0  3  0  0  0  0  0  0
  188.7780  178.3120  138.7390 C   0  0  0  0  0  2  0  0  0  0  0  0
  187.3640  178.4700  139.1800 C   0  0  0  0  0  0  0  0  0  0  0  0
  187.1210  178.7430  140.3850 O   0  0  0  0  0  0  0  0  0  0  0  0
  186.3110  178.3730  138.2130 N   0  0  0  0  0  2  0  0  0  0  0  0
  184.3190  179.5150  139.2380 C   0  0  0  0  0  1  0  0  0  0  0  0
  183.8790  177.2880  137.8000 S   0  0  0  0  0  0  0  0  0  0  0  0
  184.8980  178.3840  138.4670 C   0  0  0  0  0  0  0  0  0  0  0  0
  1  3  1  0  0  0  0
  2  3  2  0  0  0  0
  2 10  1  0  0  0  0
  4  7  1  0  0  0  0
  4  6  1  0  0  0  0
  5  2  1  0  0  0  0
  6  1  2  0  0  0  0
  7  9  2  0  0  0  0
  8  6  1  0  0  0  0
  8  5  2  0  0  0  0
  9  1  1  0  0  0  0
 10 11  2  0  0  0  0
 12 10  1  0  0  0  0
 13  7  1  0  0  0  0
 14 13  1  0  0  0  0
 16 14  1  0  0  0  0
 16 15  1  6  0  0  0
 17 16  1  0  0  0  0
 18 17  1  0  0  0  0
 18 19  2  0  0  0  0
 20 18  1  0  0  0  0
 21  8  1  0  0  0  0
 22 21  1  0  0  0  0
 23 22  1  0  0  0  0
 25 24  2  0  0  0  0
 25 23  1  0  0  0  0
 26 27  2  0  0  0  0
 27 25  1  0  0  0  0
 29 28  1  6  0  0  0
 29 27  1  0  0  0  0
 30 29  1  0  0  0  0
 30 31  1  0  0  0  0
 31 32  2  0  0  0  0
 33 36  1  0  0  0  0
 33 31  1  0  0  0  0
 35 36  2  0  0  0  0
 36 34  1  0  0  0  0
M  END
>  <MODEL>
2

>  <REMARK>
 VINA RESULT:      -7.7      2.386      7.360
  Name = 
  15 active torsions:
  status: ('A' for Active; 'I' for Inactive)
    1  A    between atoms: C_2  and  O_25
    2  A    between atoms: C_2  and  C_30
    3  A    between atoms: C_5  and  C_19
    4  A    between atoms: C_8  and  N_13
    5  A    between atoms: C_8  and  C_33
    6  A    between atoms: C_10  and  C_12
    7  A    between atoms: C_12  and  C_31
    8  A    between atoms: N_13  and  C_32
    9  A    between atoms: C_14  and  C_21
   10  A    between atoms: C_16  and  C_32
   11  A    between atoms: C_16  and  C_36
   12  A    between atoms: C_18  and  N_20
   13  A    between atoms: C_19  and  C_28
   14  A    between atoms: O_25  and  C_31
   15  A    between atoms: C_28  and  C_36
                            x       y       z     vdW  Elec       q    Type
                         _______ _______ _______ _____ _____    ______ ____

>  <TORSDO>
F 15

$$$$
=
 OpenBabel11062417143D

 36 37  0  0  1  0  0  0  0  0999 V2000
  185.8330  178.3470  145.3460 C   0  0  0  0  0  0  0  0  0  0  0  0
  187.8670  177.7340  146.5010 C   0  0  0  0  0  0  0  0  0  0  0  0
  186.5770  178.2990  146.5240 C   0  0  0  0  0  3  0  0  0  0  0  0
  185.2270  178.0230  142.9330 S   0  0  0  0  0  0  0  0  0  0  0  0
  188.3840  177.2240  145.2900 C   0  0  0  0  0  3  0  0  0  0  0  0
  186.3570  177.8420  144.1640 C   0  0  0  0  0  0  0  0  0  0  0  0
  184.0740  178.7690  143.9180 C   0  0  0  0  0  0  0  0  0  0  0  0
  187.6330  177.2790  144.1060 C   0  0  0  0  0  0  0  0  0  0  0  0
  184.5420  178.8680  145.2260 C   0  0  0  0  0  3  0  0  0  0  0  0
  188.6680  177.6670  147.7350 C   0  0  0  0  0  0  0  0  0  0  0  0
  189.9040  177.4260  147.6790 O   0  0  0  0  0  0  0  0  0  0  0  0
  188.0570  177.8720  149.0050 N   0  0  0  0  0  1  0  0  0  0  0  0
  182.7150  179.1740  143.4700 C   0  0  0  0  0  2  0  0  0  0  0  0
  181.7500  178.5610  144.2750 O   0  0  0  0  0  0  0  0  0  0  0  0
  179.4420  178.2990  144.3590 N   0  0  0  0  0  1  0  0  0  0  0  0
  180.5860  178.5670  143.5050 C   0  0  1  0  0  3  0  0  0  0  0  0
  180.4250  179.9250  142.8370 C   0  0  0  0  0  2  0  0  0  0  0  0
  179.9260  179.7760  141.4350 C   0  0  0  0  0  0  0  0  0  0  0  0
  179.6950  178.6110  140.9510 N   0  0  0  0  0  2  0  0  0  0  0  0
  179.5640  180.9890  140.6520 C   0  0  0  0  0  1  0  0  0  0  0  0
  188.1740  176.7010  142.8430 C   0  0  0  0  0  2  0  0  0  0  0  0
  189.1860  177.5870  142.2990 N   0  0  0  0  0  2  0  0  0  0  0  0
  189.5260  177.0800  140.9800 C   0  0  0  0  0  2  0  0  0  0  0  0
  188.2430  178.9520  140.2780 O   0  0  0  0  0  0  0  0  0  0  0  0
  188.8160  177.8810  139.9400 C   0  0  0  0  0  0  0  0  0  0  0  0
  189.8450  177.5620  137.7600 C   0  0  0  0  0  2  0  0  0  0  0  0
  188.7720  177.4210  138.5380 C   0  0  0  0  0  0  0  0  0  0  0  0
  187.8020  175.6250  137.0960 C   0  0  0  0  0  1  0  0  0  0  0  0
  187.5050  176.8230  137.9820 C   0  0  2  0  0  3  0  0  0  0  0  0
  186.6800  177.8490  137.2160 C   0  0  0  0  0  2  0  0  0  0  0  0
  185.4470  178.2000  137.9770 C   0  0  0  0  0  0  0  0  0  0  0  0
  185.4590  179.1980  138.7440 O   0  0  0  0  0  0  0  0  0  0  0  0
  184.2540  177.4330  137.7720 N   0  0  0  0  0  2  0  0  0  0  0  0
  182.9010  176.9050  139.8250 C   0  0  0  0  0  1  0  0  0  0  0  0
  181.7880  178.5000  137.9720 S   0  0  0  0  0  0  0  0  0  0  0  0
  183.0170  177.5490  138.4900 C   0  0  0  0  0  0  0  0  0  0  0  0
  1  3  1  0  0  0  0
  2  3  2  0  0  0  0
  2 10  1  0  0  0  0
  4  7  1  0  0  0  0
  4  6  1  0  0  0  0
  5  2  1  0  0  0  0
  6  1  2  0  0  0  0
  7  9  2  0  0  0  0
  8  6  1  0  0  0  0
  8  5  2  0  0  0  0
  9  1  1  0  0  0  0
 10 12  1  0  0  0  0
 11 10  2  0  0  0  0
 13  7  1  0  0  0  0
 13 14  1  0  0  0  0
 16 14  1  0  0  0  0
 16 15  1  1  0  0  0
 17 16  1  0  0  0  0
 18 17  1  0  0  0  0
 19 18  2  0  0  0  0
 20 18  1  0  0  0  0
 21  8  1  0  0  0  0
 22 21  1  0  0  0  0
 23 22  1  0  0  0  0
 25 24  2  0  0  0  0
 25 23  1  0  0  0  0
 26 27  2  0  0  0  0
 27 25  1  0  0  0  0
 29 28  1  6  0  0  0
 29 27  1  0  0  0  0
 30 31  1  0  0  0  0
 30 29  1  0  0  0  0
 31 32  2  0  0  0  0
 33 31  1  0  0  0  0
 33 36  1  0  0  0  0
 35 36  2  0  0  0  0
 36 34  1  0  0  0  0
M  END
>  <MODEL>
3

>  <REMARK>
 VINA RESULT:      -7.5      2.261      7.855
  Name = 
  15 active torsions:
  status: ('A' for Active; 'I' for Inactive)
    1  A    between atoms: C_2  and  O_25
    2  A    between atoms: C_2  and  C_30
    3  A    between atoms: C_5  and  C_19
    4  A    between atoms: C_8  and  N_13
    5  A    between atoms: C_8  and  C_33
    6  A    between atoms: C_10  and  C_12
    7  A    between atoms: C_12  and  C_31
    8  A    between atoms: N_13  and  C_32
    9  A    between atoms: C_14  and  C_21
   10  A    between atoms: C_16  and  C_32
   11  A    between atoms: C_16  and  C_36
   12  A    between atoms: C_18  and  N_20
   13  A    between atoms: C_19  and  C_28
   14  A    between atoms: O_25  and  C_31
   15  A    between atoms: C_28  and  C_36
                            x       y       z     vdW  Elec       q    Type
                         _______ _______ _______ _____ _____    ______ ____

>  <TORSDO>
F 15

$$$$
=
 OpenBabel11062417143D

 36 37  0  0  1  0  0  0  0  0999 V2000
  184.0770  178.5820  144.7650 C   0  0  0  0  0  0  0  0  0  0  0  0
  182.1300  178.9920  143.3910 C   0  0  0  0  0  0  0  0  0  0  0  0
  182.7090  178.8290  144.6650 C   0  0  0  0  0  3  0  0  0  0  0  0
  186.4580  178.2140  144.0630 S   0  0  0  0  0  0  0  0  0  0  0  0
  182.9420  178.9060  142.2390 C   0  0  0  0  0  3  0  0  0  0  0  0
  184.8610  178.4990  143.6220 C   0  0  0  0  0  0  0  0  0  0  0  0
  186.1350  178.1790  145.7210 C   0  0  0  0  0  0  0  0  0  0  0  0
  184.3180  178.6510  142.3450 C   0  0  0  0  0  0  0  0  0  0  0  0
  184.7820  178.4110  145.9590 C   0  0  0  0  0  3  0  0  0  0  0  0
  180.6880  179.2610  143.2620 C   0  0  0  0  0  0  0  0  0  0  0  0
  179.8500  178.5390  143.8660 O   0  0  0  0  0  0  0  0  0  0  0  0
  180.2230  180.3390  142.4550 N   0  0  0  0  0  1  0  0  0  0  0  0
  187.1670  178.0180  146.7800 C   0  0  0  0  0  2  0  0  0  0  0  0
  188.4390  178.0150  146.2020 O   0  0  0  0  0  0  0  0  0  0  0  0
  188.6080  178.1210  148.5190 N   0  0  0  0  0  1  0  0  0  0  0  0
  189.3200  177.8760  147.2760 C   0  0  1  0  0  3  0  0  0  0  0  0
  189.8970  176.4680  147.2810 C   0  0  0  0  0  2  0  0  0  0  0  0
  191.3320  176.4760  146.8620 C   0  0  0  0  0  0  0  0  0  0  0  0
  191.6990  177.1260  145.8190 N   0  0  0  0  0  2  0  0  0  0  0  0
  192.3570  175.8440  147.7380 C   0  0  0  0  0  1  0  0  0  0  0  0
  185.1710  178.6020  141.1240 C   0  0  0  0  0  2  0  0  0  0  0  0
  184.4040  179.0510  139.9770 N   0  0  0  0  0  2  0  0  0  0  0  0
  185.2110  178.7870  138.7990 C   0  0  0  0  0  2  0  0  0  0  0  0
  183.8140  176.8710  138.6800 O   0  0  0  0  0  0  0  0  0  0  0  0
  184.7940  177.4910  138.1870 C   0  0  0  0  0  0  0  0  0  0  0  0
  185.3050  175.6780  136.6500 C   0  0  0  0  0  2  0  0  0  0  0  0
  185.5240  176.9360  137.0310 C   0  0  0  0  0  0  0  0  0  0  0  0
  186.2230  177.8700  134.8210 C   0  0  0  0  0  1  0  0  0  0  0  0
  186.5370  177.7830  136.3050 C   0  0  2  0  0  3  0  0  0  0  0  0
  187.9580  177.2720  136.5100 C   0  0  0  0  0  2  0  0  0  0  0  0
  188.5720  177.9080  137.7100 C   0  0  0  0  0  0  0  0  0  0  0  0
  188.7820  179.1500  137.7100 O   0  0  0  0  0  0  0  0  0  0  0  0
  188.8530  177.1060  138.8640 N   0  0  0  0  0  2  0  0  0  0  0  0
  188.7460  178.0640  141.1860 C   0  0  0  0  0  1  0  0  0  0  0  0
  191.1410  177.2480  140.2800 S   0  0  0  0  0  0  0  0  0  0  0  0
  189.5400  177.5150  140.0550 C   0  0  0  0  0  0  0  0  0  0  0  0
  1  9  1  0  0  0  0
  2  3  2  0  0  0  0
  3  1  1  0  0  0  0
  4  7  1  0  0  0  0
  5  8  2  0  0  0  0
  5  2  1  0  0  0  0
  6  4  1  0  0  0  0
  6  1  2  0  0  0  0
  7  9  2  0  0  0  0
  7 13  1  0  0  0  0
  8  6  1  0  0  0  0
 10  2  1  0  0  0  0
 10 11  2  0  0  0  0
 12 10  1  0  0  0  0
 14 13  1  0  0  0  0
 14 16  1  0  0  0  0
 16 17  1  0  0  0  0
 16 15  1  1  0  0  0
 18 17  1  0  0  0  0
 18 20  1  0  0  0  0
 19 18  2  0  0  0  0
 21  8  1  0  0  0  0
 22 21  1  0  0  0  0
 23 22  1  0  0  0  0
 25 24  2  0  0  0  0
 25 23  1  0  0  0  0
 26 27  2  0  0  0  0
 27 25  1  0  0  0  0
 29 28  1  6  0  0  0
 29 30  1  0  0  0  0
 29 27  1  0  0  0  0
 30 31  1  0  0  0  0
 31 33  1  0  0  0  0
 32 31  2  0  0  0  0
 33 36  1  0  0  0  0
 36 35  2  0  0  0  0
 36 34  1  0  0  0  0
M  END
>  <MODEL>
4

>  <REMARK>
 VINA RESULT:      -7.3      2.012      7.302
  Name = 
  15 active torsions:
  status: ('A' for Active; 'I' for Inactive)
    1  A    between atoms: C_2  and  O_25
    2  A    between atoms: C_2  and  C_30
    3  A    between atoms: C_5  and  C_19
    4  A    between atoms: C_8  and  N_13
    5  A    between atoms: C_8  and  C_33
    6  A    between atoms: C_10  and  C_12
    7  A    between atoms: C_12  and  C_31
    8  A    between atoms: N_13  and  C_32
    9  A    between atoms: C_14  and  C_21
   10  A    between atoms: C_16  and  C_32
   11  A    between atoms: C_16  and  C_36
   12  A    between atoms: C_18  and  N_20
   13  A    between atoms: C_19  and  C_28
   14  A    between atoms: O_25  and  C_31
   15  A    between atoms: C_28  and  C_36
                            x       y       z     vdW  Elec       q    Type
                         _______ _______ _______ _____ _____    ______ ____

>  <TORSDO>
F 15

$$$$
=
 OpenBabel11062417143D

 36 37  0  0  1  0  0  0  0  0999 V2000
  185.6340  178.3610  145.6070 C   0  0  0  0  0  0  0  0  0  0  0  0
  187.7540  177.7940  146.6210 C   0  0  0  0  0  0  0  0  0  0  0  0
  186.4330  178.2690  146.7450 C   0  0  0  0  0  3  0  0  0  0  0  0
  184.9370  178.1910  143.2020 S   0  0  0  0  0  0  0  0  0  0  0  0
  188.2450  177.4180  145.3520 C   0  0  0  0  0  3  0  0  0  0  0  0
  186.1320  177.9880  144.3670 C   0  0  0  0  0  0  0  0  0  0  0  0
  183.7870  178.7770  144.2930 C   0  0  0  0  0  0  0  0  0  0  0  0
  187.4380  177.5180  144.2090 C   0  0  0  0  0  0  0  0  0  0  0  0
  184.3080  178.8020  145.5850 C   0  0  0  0  0  3  0  0  0  0  0  0
  188.6150  177.6820  147.8110 C   0  0  0  0  0  0  0  0  0  0  0  0
  188.1550  177.9430  148.9560 O   0  0  0  0  0  0  0  0  0  0  0  0
  189.9750  177.2790  147.6850 N   0  0  0  0  0  1  0  0  0  0  0  0
  182.3850  179.1260  143.9380 C   0  0  0  0  0  2  0  0  0  0  0  0
  182.1820  178.9250  142.5700 O   0  0  0  0  0  0  0  0  0  0  0  0
  180.3140  180.2960  142.7660 N   0  0  0  0  0  1  0  0  0  0  0  0
  180.7970  178.9740  142.4030 C   0  0  1  0  0  3  0  0  0  0  0  0
  180.4490  178.6780  140.9500 C   0  0  0  0  0  2  0  0  0  0  0  0
  179.9870  177.2660  140.7880 C   0  0  0  0  0  0  0  0  0  0  0  0
  179.2930  176.7020  141.7070 N   0  0  0  0  0  2  0  0  0  0  0  0
  180.2130  176.5630  139.4960 C   0  0  0  0  0  1  0  0  0  0  0  0
  187.9540  177.0800  142.8810 C   0  0  0  0  0  2  0  0  0  0  0  0
  188.4650  178.2290  142.1570 N   0  0  0  0  0  2  0  0  0  0  0  0
  188.8030  177.7690  140.8210 C   0  0  0  0  0  2  0  0  0  0  0  0
  186.7580  178.8560  140.2940 O   0  0  0  0  0  0  0  0  0  0  0  0
  187.7370  178.1880  139.8640 C   0  0  0  0  0  0  0  0  0  0  0  0
  186.7000  177.6560  137.7300 C   0  0  0  0  0  2  0  0  0  0  0  0
  187.8180  177.8160  138.4380 C   0  0  0  0  0  0  0  0  0  0  0  0
  189.1620  178.0300  136.3430 C   0  0  0  0  0  1  0  0  0  0  0  0
  189.1620  177.5870  137.7960 C   0  0  2  0  0  3  0  0  0  0  0  0
  189.6030  176.1330  137.9010 C   0  0  0  0  0  2  0  0  0  0  0  0
  191.0860  176.0450  138.0200 C   0  0  0  0  0  0  0  0  0  0  0  0
  191.6580  176.5790  139.0060 O   0  0  0  0  0  0  0  0  0  0  0  0
  191.8250  175.3010  137.0440 N   0  0  0  0  0  2  0  0  0  0  0  0
  194.0020  176.3280  136.3160 C   0  0  0  0  0  1  0  0  0  0  0  0
  194.1010  173.9690  137.6000 S   0  0  0  0  0  0  0  0  0  0  0  0
  193.2530  175.2010  136.9300 C   0  0  0  0  0  0  0  0  0  0  0  0
  1  3  1  0  0  0  0
  2  3  2  0  0  0  0
  2 10  1  0  0  0  0
  4  7  1  0  0  0  0
  4  6  1  0  0  0  0
  5  2  1  0  0  0  0
  6  1  2  0  0  0  0
  7  9  2  0  0  0  0
  8  6  1  0  0  0  0
  8  5  2  0  0  0  0
  9  1  1  0  0  0  0
 10 11  2  0  0  0  0
 12 10  1  0  0  0  0
 13  7  1  0  0  0  0
 14 13  1  0  0  0  0
 16 14  1  0  0  0  0
 16 15  1  6  0  0  0
 17 16  1  0  0  0  0
 18 17  1  0  0  0  0
 18 19  2  0  0  0  0
 20 18  1  0  0  0  0
 21  8  1  0  0  0  0
 22 21  1  0  0  0  0
 23 22  1  0  0  0  0
 25 24  2  0  0  0  0
 25 23  1  0  0  0  0
 26 27  2  0  0  0  0
 27 25  1  0  0  0  0
 29 28  1  6  0  0  0
 29 30  1  0  0  0  0
 29 27  1  0  0  0  0
 30 31  1  0  0  0  0
 31 32  2  0  0  0  0
 33 31  1  0  0  0  0
 34 36  1  0  0  0  0
 36 33  1  0  0  0  0
 36 35  2  0  0  0  0
M  END
>  <MODEL>
5

>  <REMARK>
 VINA RESULT:      -7.3      2.674      7.445
  Name = 
  15 active torsions:
  status: ('A' for Active; 'I' for Inactive)
    1  A    between atoms: C_2  and  O_25
    2  A    between atoms: C_2  and  C_30
    3  A    between atoms: C_5  and  C_19
    4  A    between atoms: C_8  and  N_13
    5  A    between atoms: C_8  and  C_33
    6  A    between atoms: C_10  and  C_12
    7  A    between atoms: C_12  and  C_31
    8  A    between atoms: N_13  and  C_32
    9  A    between atoms: C_14  and  C_21
   10  A    between atoms: C_16  and  C_32
   11  A    between atoms: C_16  and  C_36
   12  A    between atoms: C_18  and  N_20
   13  A    between atoms: C_19  and  C_28
   14  A    between atoms: O_25  and  C_31
   15  A    between atoms: C_28  and  C_36
                            x       y       z     vdW  Elec       q    Type
                         _______ _______ _______ _____ _____    ______ ____

>  <TORSDO>
F 15

$$$$
=
 OpenBabel11062417143D

 36 37  0  0  1  0  0  0  0  0999 V2000
  185.9550  178.2530  145.3810 C   0  0  0  0  0  0  0  0  0  0  0  0
  188.1390  177.7040  146.2620 C   0  0  0  0  0  0  0  0  0  0  0  0
  186.8140  178.1330  146.4730 C   0  0  0  0  0  3  0  0  0  0  0  0
  185.1430  178.1730  143.0090 S   0  0  0  0  0  0  0  0  0  0  0  0
  188.5760  177.4020  144.9540 C   0  0  0  0  0  3  0  0  0  0  0  0
  186.4010  177.9520  144.1020 C   0  0  0  0  0  0  0  0  0  0  0  0
  184.0330  178.6740  144.1810 C   0  0  0  0  0  0  0  0  0  0  0  0
  187.7090  177.5300  143.8590 C   0  0  0  0  0  0  0  0  0  0  0  0
  184.6190  178.6550  145.4450 C   0  0  0  0  0  3  0  0  0  0  0  0
  189.0610  177.5630  147.4020 C   0  0  0  0  0  0  0  0  0  0  0  0
  188.8300  178.1640  148.4860 O   0  0  0  0  0  0  0  0  0  0  0  0
  190.2250  176.7490  147.2950 N   0  0  0  0  0  1  0  0  0  0  0  0
  182.6070  178.9960  143.9120 C   0  0  0  0  0  2  0  0  0  0  0  0
  182.4230  179.2180  142.5440 O   0  0  0  0  0  0  0  0  0  0  0  0
  180.3700  180.1800  143.0580 N   0  0  0  0  0  1  0  0  0  0  0  0
  181.0460  179.1090  142.3460 C   0  0  1  0  0  3  0  0  0  0  0  0
  180.7370  179.2030  140.8580 C   0  0  0  0  0  2  0  0  0  0  0  0
  181.6350  178.3060  140.0680 C   0  0  0  0  0  0  0  0  0  0  0  0
  181.4380  177.0390  140.0560 N   0  0  0  0  0  2  0  0  0  0  0  0
  182.6730  178.9020  139.1820 C   0  0  0  0  0  1  0  0  0  0  0  0
  188.1690  177.1680  142.4870 C   0  0  0  0  0  2  0  0  0  0  0  0
  188.4120  178.3780  141.7230 N   0  0  0  0  0  2  0  0  0  0  0  0
  187.9110  178.1380  140.3820 C   0  0  0  0  0  2  0  0  0  0  0  0
  189.0570  179.3770  138.7110 O   0  0  0  0  0  0  0  0  0  0  0  0
  189.0160  178.3190  139.3950 C   0  0  0  0  0  0  0  0  0  0  0  0
  191.0080  177.1250  140.1170 C   0  0  0  0  0  2  0  0  0  0  0  0
  190.0400  177.2720  139.2120 C   0  0  0  0  0  0  0  0  0  0  0  0
  191.3440  176.3960  137.2690 C   0  0  0  0  0  1  0  0  0  0  0  0
  190.0070  176.3930  137.9890 C   0  0  2  0  0  3  0  0  0  0  0  0
  188.8940  176.7950  137.0290 C   0  0  0  0  0  2  0  0  0  0  0  0
  188.0580  175.6140  136.6750 C   0  0  0  0  0  0  0  0  0  0  0  0
  188.5470  174.7090  135.9490 O   0  0  0  0  0  0  0  0  0  0  0  0
  186.7370  175.4990  137.2190 N   0  0  0  0  0  2  0  0  0  0  0  0
  184.7780  174.7780  135.8180 C   0  0  0  0  0  1  0  0  0  0  0  0
  185.7730  173.0090  137.5780 S   0  0  0  0  0  0  0  0  0  0  0  0
  185.7550  174.5020  136.9030 C   0  0  0  0  0  0  0  0  0  0  0  0
  1  9  1  0  0  0  0
  1  3  1  0  0  0  0
  2  3  2  0  0  0  0
  2 10  1  0  0  0  0
  4  6  1  0  0  0  0
  4  7  1  0  0  0  0
  5  2  1  0  0  0  0
  6  1  2  0  0  0  0
  7  9  2  0  0  0  0
  8  6  1  0  0  0  0
  8  5  2  0  0  0  0
 10 11  2  0  0  0  0
 12 10  1  0  0  0  0
 13  7  1  0  0  0  0
 14 13  1  0  0  0  0
 16 14  1  0  0  0  0
 16 15  1  1  0  0  0
 17 16  1  0  0  0  0
 18 17  1  0  0  0  0
 19 18  2  0  0  0  0
 20 18  1  0  0  0  0
 21  8  1  0  0  0  0
 22 21  1  0  0  0  0
 23 22  1  0  0  0  0
 24 25  2  0  0  0  0
 25 23  1  0  0  0  0
 27 25  1  0  0  0  0
 27 26  2  0  0  0  0
 29 28  1  6  0  0  0
 29 27  1  0  0  0  0
 30 29  1  0  0  0  0
 31 30  1  0  0  0  0
 31 33  1  0  0  0  0
 32 31  2  0  0  0  0
 34 36  1  0  0  0  0
 36 33  1  0  0  0  0
 36 35  2  0  0  0  0
M  END
>  <MODEL>
6

>  <REMARK>
 VINA RESULT:      -7.1      2.648      7.412
  Name = 
  15 active torsions:
  status: ('A' for Active; 'I' for Inactive)
    1  A    between atoms: C_2  and  O_25
    2  A    between atoms: C_2  and  C_30
    3  A    between atoms: C_5  and  C_19
    4  A    between atoms: C_8  and  N_13
    5  A    between atoms: C_8  and  C_33
    6  A    between atoms: C_10  and  C_12
    7  A    between atoms: C_12  and  C_31
    8  A    between atoms: N_13  and  C_32
    9  A    between atoms: C_14  and  C_21
   10  A    between atoms: C_16  and  C_32
   11  A    between atoms: C_16  and  C_36
   12  A    between atoms: C_18  and  N_20
   13  A    between atoms: C_19  and  C_28
   14  A    between atoms: O_25  and  C_31
   15  A    between atoms: C_28  and  C_36
                            x       y       z     vdW  Elec       q    Type
                         _______ _______ _______ _____ _____    ______ ____

>  <TORSDO>
F 15

$$$$
=
 OpenBabel11062417143D

 36 37  0  0  1  0  0  0  0  0999 V2000
  189.4990  177.5790  143.5050 C   0  0  0  0  0  0  0  0  0  0  0  0
  189.9080  177.2190  145.8600 C   0  0  0  0  0  0  0  0  0  0  0  0
  190.4000  177.3980  144.5520 C   0  0  0  0  0  3  0  0  0  0  0  0
  187.3120  177.8420  142.3030 S   0  0  0  0  0  0  0  0  0  0  0  0
  188.5150  177.2280  146.0900 C   0  0  0  0  0  3  0  0  0  0  0  0
  188.1320  177.5850  143.7480 C   0  0  0  0  0  0  0  0  0  0  0  0
  188.7150  177.9260  141.3660 C   0  0  0  0  0  0  0  0  0  0  0  0
  187.6130  177.4060  145.0310 C   0  0  0  0  0  0  0  0  0  0  0  0
  189.8460  177.7770  142.1660 C   0  0  0  0  0  3  0  0  0  0  0  0
  190.8430  177.0320  146.9830 C   0  0  0  0  0  0  0  0  0  0  0  0
  190.5790  177.5130  148.1180 O   0  0  0  0  0  0  0  0  0  0  0  0
  192.0560  176.3080  146.8020 N   0  0  0  0  0  1  0  0  0  0  0  0
  188.7400  178.2130  139.9060 C   0  0  0  0  0  2  0  0  0  0  0  0
  187.4580  178.5560  139.4700 O   0  0  0  0  0  0  0  0  0  0  0  0
  188.5480  179.3040  137.5580 N   0  0  0  0  0  1  0  0  0  0  0  0
  187.5080  178.4350  138.0810 C   0  0  1  0  0  3  0  0  0  0  0  0
  187.8050  176.9900  137.7070 C   0  0  0  0  0  2  0  0  0  0  0  0
  186.9680  176.5540  136.5470 C   0  0  0  0  0  0  0  0  0  0  0  0
  187.1450  175.4000  136.0170 N   0  0  0  0  0  2  0  0  0  0  0  0
  185.8330  177.4070  136.0990 C   0  0  0  0  0  1  0  0  0  0  0  0
  186.1460  177.4550  145.2920 C   0  0  0  0  0  2  0  0  0  0  0  0
  185.7430  178.8260  145.5440 N   0  0  0  0  0  2  0  0  0  0  0  0
  184.3080  178.8910  145.3320 C   0  0  0  0  0  2  0  0  0  0  0  0
  184.8870  180.1480  143.4020 O   0  0  0  0  0  0  0  0  0  0  0  0
  184.0280  179.4150  143.9630 C   0  0  0  0  0  0  0  0  0  0  0  0
  181.6410  178.9510  143.9880 C   0  0  0  0  0  2  0  0  0  0  0  0
  182.7610  179.0930  143.2790 C   0  0  0  0  0  0  0  0  0  0  0  0
  181.3260  178.6920  141.2730 C   0  0  0  0  0  1  0  0  0  0  0  0
  182.7410  178.8940  141.7850 C   0  0  2  0  0  3  0  0  0  0  0  0
  183.6270  177.7320  141.3540 C   0  0  0  0  0  2  0  0  0  0  0  0
  183.4350  177.4400  139.9050 C   0  0  0  0  0  0  0  0  0  0  0  0
  183.8010  178.2900  139.0520 O   0  0  0  0  0  0  0  0  0  0  0  0
  182.8990  176.1710  139.5100 N   0  0  0  0  0  2  0  0  0  0  0  0
  183.4830  174.8960  137.4230 C   0  0  0  0  0  1  0  0  0  0  0  0
  181.0660  176.0640  137.5370 S   0  0  0  0  0  0  0  0  0  0  0  0
  182.5410  175.7590  138.1830 C   0  0  0  0  0  0  0  0  0  0  0  0
  1  6  2  0  0  0  0
  1  3  1  0  0  0  0
  2  5  1  0  0  0  0
  2 10  1  0  0  0  0
  3  2  2  0  0  0  0
  4  6  1  0  0  0  0
  6  8  1  0  0  0  0
  7  9  2  0  0  0  0
  7  4  1  0  0  0  0
  8 21  1  0  0  0  0
  8  5  2  0  0  0  0
  9  1  1  0  0  0  0
 10 11  2  0  0  0  0
 12 10  1  0  0  0  0
 13  7  1  0  0  0  0
 14 13  1  0  0  0  0
 16 15  1  1  0  0  0
 16 14  1  0  0  0  0
 17 16  1  0  0  0  0
 18 17  1  0  0  0  0
 19 18  2  0  0  0  0
 20 18  1  0  0  0  0
 21 22  1  0  0  0  0
 23 22  1  0  0  0  0
 24 25  2  0  0  0  0
 25 23  1  0  0  0  0
 27 25  1  0  0  0  0
 27 26  2  0  0  0  0
 29 28  1  1  0  0  0
 29 27  1  0  0  0  0
 30 29  1  0  0  0  0
 31 30  1  0  0  0  0
 32 31  2  0  0  0  0
 33 31  1  0  0  0  0
 34 36  1  0  0  0  0
 35 36  2  0  0  0  0
 36 33  1  0  0  0  0
M  END
>  <MODEL>
7

>  <REMARK>
 VINA RESULT:      -7.0      2.546      6.950
  Name = 
  15 active torsions:
  status: ('A' for Active; 'I' for Inactive)
    1  A    between atoms: C_2  and  O_25
    2  A    between atoms: C_2  and  C_30
    3  A    between atoms: C_5  and  C_19
    4  A    between atoms: C_8  and  N_13
    5  A    between atoms: C_8  and  C_33
    6  A    between atoms: C_10  and  C_12
    7  A    between atoms: C_12  and  C_31
    8  A    between atoms: N_13  and  C_32
    9  A    between atoms: C_14  and  C_21
   10  A    between atoms: C_16  and  C_32
   11  A    between atoms: C_16  and  C_36
   12  A    between atoms: C_18  and  N_20
   13  A    between atoms: C_19  and  C_28
   14  A    between atoms: O_25  and  C_31
   15  A    between atoms: C_28  and  C_36
                            x       y       z     vdW  Elec       q    Type
                         _______ _______ _______ _____ _____    ______ ____

>  <TORSDO>
F 15

$$$$
=
 OpenBabel11062417143D

 36 37  0  0  1  0  0  0  0  0999 V2000
  190.1200  177.1760  143.3990 C   0  0  0  0  0  0  0  0  0  0  0  0
  189.4750  177.2680  145.7270 C   0  0  0  0  0  0  0  0  0  0  0  0
  190.4730  177.1090  144.7460 C   0  0  0  0  0  3  0  0  0  0  0  0
  188.6950  177.4460  141.3520 S   0  0  0  0  0  0  0  0  0  0  0  0
  188.1380  177.4960  145.3340 C   0  0  0  0  0  3  0  0  0  0  0  0
  188.8020  177.3990  143.0290 C   0  0  0  0  0  0  0  0  0  0  0  0
  190.3420  177.1610  141.1050 C   0  0  0  0  0  0  0  0  0  0  0  0
  187.7880  177.5570  143.9760 C   0  0  0  0  0  0  0  0  0  0  0  0
  191.0050  177.0460  142.3250 C   0  0  0  0  0  3  0  0  0  0  0  0
  189.8260  177.2080  147.1560 C   0  0  0  0  0  0  0  0  0  0  0  0
  188.9720  177.5060  148.0340 O   0  0  0  0  0  0  0  0  0  0  0  0
  191.1320  176.8140  147.5640 N   0  0  0  0  0  1  0  0  0  0  0  0
  191.0050  177.1310  139.7740 C   0  0  0  0  0  2  0  0  0  0  0  0
  190.9330  175.8420  139.2390 O   0  0  0  0  0  0  0  0  0  0  0  0
  190.5500  177.0020  137.2610 N   0  0  0  0  0  1  0  0  0  0  0  0
  191.3490  175.9790  137.9150 C   0  0  1  0  0  3  0  0  0  0  0  0
  192.8190  176.3740  137.8820 C   0  0  0  0  0  2  0  0  0  0  0  0
  193.6790  175.2030  137.5310 C   0  0  0  0  0  0  0  0  0  0  0  0
  194.9470  175.2500  137.7200 N   0  0  0  0  0  2  0  0  0  0  0  0
  193.0440  173.9300  137.0920 C   0  0  0  0  0  1  0  0  0  0  0  0
  186.3810  177.8370  143.5730 C   0  0  0  0  0  2  0  0  0  0  0  0
  185.8210  178.8560  144.4420 N   0  0  0  0  0  2  0  0  0  0  0  0
  184.7580  179.5080  143.6980 C   0  0  0  0  0  2  0  0  0  0  0  0
  183.3420  179.0070  145.5390 O   0  0  0  0  0  0  0  0  0  0  0  0
  183.4370  179.1400  144.2890 C   0  0  0  0  0  0  0  0  0  0  0  0
  181.0860  178.6070  143.9680 C   0  0  0  0  0  2  0  0  0  0  0  0
  182.2610  178.9210  143.4230 C   0  0  0  0  0  0  0  0  0  0  0  0
  181.0430  179.0880  141.2490 C   0  0  0  0  0  1  0  0  0  0  0  0
  182.4000  179.0230  141.9260 C   0  0  2  0  0  3  0  0  0  0  0  0
  183.2190  177.8740  141.3520 C   0  0  0  0  0  2  0  0  0  0  0  0
  183.6190  178.1700  139.9470 C   0  0  0  0  0  0  0  0  0  0  0  0
  184.0660  179.3120  139.6610 O   0  0  0  0  0  0  0  0  0  0  0  0
  183.5470  177.1320  138.9620 N   0  0  0  0  0  2  0  0  0  0  0  0
  182.7200  177.8670  136.7050 C   0  0  0  0  0  1  0  0  0  0  0  0
  185.2250  176.9100  136.8660 S   0  0  0  0  0  0  0  0  0  0  0  0
  183.7780  177.2580  137.5520 C   0  0  0  0  0  0  0  0  0  0  0  0
  1  3  1  0  0  0  0
  2 10  1  0  0  0  0
  3  2  2  0  0  0  0
  4  6  1  0  0  0  0
  5  2  1  0  0  0  0
  6  1  2  0  0  0  0
  6  8  1  0  0  0  0
  7  4  1  0  0  0  0
  7  9  2  0  0  0  0
  8  5  2  0  0  0  0
  9  1  1  0  0  0  0
 10 12  1  0  0  0  0
 10 11  2  0  0  0  0
 13  7  1  0  0  0  0
 14 13  1  0  0  0  0
 16 15  1  1  0  0  0
 16 14  1  0  0  0  0
 17 16  1  0  0  0  0
 18 19  2  0  0  0  0
 18 17  1  0  0  0  0
 20 18  1  0  0  0  0
 21  8  1  0  0  0  0
 21 22  1  0  0  0  0
 23 25  1  0  0  0  0
 23 22  1  0  0  0  0
 25 24  2  0  0  0  0
 27 26  2  0  0  0  0
 27 25  1  0  0  0  0
 29 28  1  6  0  0  0
 29 27  1  0  0  0  0
 30 29  1  0  0  0  0
 31 30  1  0  0  0  0
 32 31  2  0  0  0  0
 33 31  1  0  0  0  0
 34 36  1  0  0  0  0
 35 36  2  0  0  0  0
 36 33  1  0  0  0  0
M  END
>  <MODEL>
8

>  <REMARK>
 VINA RESULT:      -6.9      2.828      7.150
  Name = 
  15 active torsions:
  status: ('A' for Active; 'I' for Inactive)
    1  A    between atoms: C_2  and  O_25
    2  A    between atoms: C_2  and  C_30
    3  A    between atoms: C_5  and  C_19
    4  A    between atoms: C_8  and  N_13
    5  A    between atoms: C_8  and  C_33
    6  A    between atoms: C_10  and  C_12
    7  A    between atoms: C_12  and  C_31
    8  A    between atoms: N_13  and  C_32
    9  A    between atoms: C_14  and  C_21
   10  A    between atoms: C_16  and  C_32
   11  A    between atoms: C_16  and  C_36
   12  A    between atoms: C_18  and  N_20
   13  A    between atoms: C_19  and  C_28
   14  A    between atoms: O_25  and  C_31
   15  A    between atoms: C_28  and  C_36
                            x       y       z     vdW  Elec       q    Type
                         _______ _______ _______ _____ _____    ______ ____

>  <TORSDO>
F 15

$$$$
=
 OpenBabel11062417143D

 36 37  0  0  1  0  0  0  0  0999 V2000
  190.1430  177.5900  144.3800 C   0  0  0  0  0  0  0  0  0  0  0  0
  189.0260  177.6870  146.5220 C   0  0  0  0  0  0  0  0  0  0  0  0
  190.2150  177.7240  145.7650 C   0  0  0  0  0  3  0  0  0  0  0  0
  189.1520  177.3130  142.0910 S   0  0  0  0  0  0  0  0  0  0  0  0
  187.7870  177.5190  145.8670 C   0  0  0  0  0  3  0  0  0  0  0  0
  188.9170  177.4250  143.7520 C   0  0  0  0  0  0  0  0  0  0  0  0
  190.8330  177.4580  142.1850 C   0  0  0  0  0  0  0  0  0  0  0  0
  187.7220  177.3800  144.4730 C   0  0  0  0  0  0  0  0  0  0  0  0
  191.2360  177.6180  143.5090 C   0  0  0  0  0  3  0  0  0  0  0  0
  189.0770  177.8330  147.9860 C   0  0  0  0  0  0  0  0  0  0  0  0
  190.1360  178.2180  148.5510 O   0  0  0  0  0  0  0  0  0  0  0  0
  187.9320  177.5420  148.7820 N   0  0  0  0  0  1  0  0  0  0  0  0
  191.7440  177.5030  141.0100 C   0  0  0  0  0  2  0  0  0  0  0  0
  191.1960  176.7640  139.9580 O   0  0  0  0  0  0  0  0  0  0  0  0
  193.4160  177.2070  139.4290 N   0  0  0  0  0  1  0  0  0  0  0  0
  192.0920  176.9260  138.9010 C   0  0  1  0  0  3  0  0  0  0  0  0
  192.1290  175.6530  138.0660 C   0  0  0  0  0  2  0  0  0  0  0  0
  193.4830  175.4440  137.4690 C   0  0  0  0  0  0  0  0  0  0  0  0
  194.2730  174.5550  137.9490 N   0  0  0  0  0  2  0  0  0  0  0  0
  193.8580  176.1730  136.2260 C   0  0  0  0  0  1  0  0  0  0  0  0
  186.4040  177.2440  143.7890 C   0  0  0  0  0  2  0  0  0  0  0  0
  185.6600  178.4830  143.9190 N   0  0  0  0  0  2  0  0  0  0  0  0
  184.4650  178.3460  143.1060 C   0  0  0  0  0  2  0  0  0  0  0  0
  185.6880  179.7470  141.6280 O   0  0  0  0  0  0  0  0  0  0  0  0
  184.6840  179.0000  141.7820 C   0  0  0  0  0  0  0  0  0  0  0  0
  182.5690  178.1830  140.9030 C   0  0  0  0  0  2  0  0  0  0  0  0
  183.7340  178.7890  140.6720 C   0  0  0  0  0  0  0  0  0  0  0  0
  183.0520  180.1770  138.7100 C   0  0  0  0  0  1  0  0  0  0  0  0
  184.0950  179.2300  139.2780 C   0  0  2  0  0  3  0  0  0  0  0  0
  184.2960  178.0470  138.3400 C   0  0  0  0  0  2  0  0  0  0  0  0
  185.7430  177.8580  138.0410 C   0  0  0  0  0  0  0  0  0  0  0  0
  186.5890  178.6200  138.5780 O   0  0  0  0  0  0  0  0  0  0  0  0
  186.1500  176.7720  137.1980 N   0  0  0  0  0  2  0  0  0  0  0  0
  188.4590  175.8740  137.6290 C   0  0  0  0  0  1  0  0  0  0  0  0
  187.8870  176.7090  135.1400 S   0  0  0  0  0  0  0  0  0  0  0  0
  187.4730  176.5030  136.7110 C   0  0  0  0  0  0  0  0  0  0  0  0
  1  3  1  0  0  0  0
  2 10  1  0  0  0  0
  3  2  2  0  0  0  0
  4  7  1  0  0  0  0
  4  6  1  0  0  0  0
  5  2  1  0  0  0  0
  6  1  2  0  0  0  0
  6  8  1  0  0  0  0
  7  9  2  0  0  0  0
  8  5  2  0  0  0  0
  9  1  1  0  0  0  0
 10 11  2  0  0  0  0
 10 12  1  0  0  0  0
 13  7  1  0  0  0  0
 14 13  1  0  0  0  0
 16 15  1  1  0  0  0
 16 14  1  0  0  0  0
 17 16  1  0  0  0  0
 18 19  2  0  0  0  0
 18 17  1  0  0  0  0
 20 18  1  0  0  0  0
 21 22  1  0  0  0  0
 21  8  1  0  0  0  0
 23 22  1  0  0  0  0
 24 25  2  0  0  0  0
 25 23  1  0  0  0  0
 27 26  2  0  0  0  0
 27 25  1  0  0  0  0
 29 28  1  6  0  0  0
 29 27  1  0  0  0  0
 30 29  1  0  0  0  0
 31 30  1  0  0  0  0
 31 32  2  0  0  0  0
 33 31  1  0  0  0  0
 35 36  2  0  0  0  0
 36 33  1  0  0  0  0
 36 34  1  0  0  0  0
M  END
>  <MODEL>
9

>  <REMARK>
 VINA RESULT:      -6.9      2.935      7.231
  Name = 
  15 active torsions:
  status: ('A' for Active; 'I' for Inactive)
    1  A    between atoms: C_2  and  O_25
    2  A    between atoms: C_2  and  C_30
    3  A    between atoms: C_5  and  C_19
    4  A    between atoms: C_8  and  N_13
    5  A    between atoms: C_8  and  C_33
    6  A    between atoms: C_10  and  C_12
    7  A    between atoms: C_12  and  C_31
    8  A    between atoms: N_13  and  C_32
    9  A    between atoms: C_14  and  C_21
   10  A    between atoms: C_16  and  C_32
   11  A    between atoms: C_16  and  C_36
   12  A    between atoms: C_18  and  N_20
   13  A    between atoms: C_19  and  C_28
   14  A    between atoms: O_25  and  C_31
   15  A    between atoms: C_28  and  C_36
                            x       y       z     vdW  Elec       q    Type
                         _______ _______ _______ _____ _____    ______ ____

>  <TORSDO>
F 15

$$$$
