=
 OpenBabel11062413173D

 30 33  0  0  1  0  0  0  0  0999 V2000
  188.3460  177.8900  146.0340 O   0  0  0  0  0  0  0  0  0  0  0  0
  190.8870  177.4420  142.9740 C   0  0  1  0  0  3  0  0  0  0  0  0
  189.0700  177.0060  145.1830 C   0  0  1  0  0  3  0  0  0  0  0  0
  188.5800  178.0120  139.5020 O   0  0  0  0  0  1  0  0  0  0  0  0
  189.5530  178.0940  143.0630 N   0  0  2  0  0  0  0  0  0  0  0  0
  188.6080  177.2130  143.7410 C   0  0  0  0  0  2  0  0  0  0  0  0
  191.2640  176.7760  144.1760 O   0  0  0  0  0  0  0  0  0  0  0  0
  190.5770  177.2970  145.2910 C   0  0  2  0  0  3  0  0  0  0  0  0
  189.0530  177.4770  140.7000 C   0  0  1  0  0  3  0  0  0  0  0  0
  190.4840  177.0000  140.5260 C   0  0  1  0  0  3  0  0  0  0  0  0
  191.1430  176.6890  146.5580 C   0  0  0  0  0  1  0  0  0  0  0  0
  190.9620  176.4140  141.8410 C   0  0  0  0  0  2  0  0  0  0  0  0
  189.0200  178.5570  141.7750 C   0  0  0  0  0  2  0  0  0  0  0  0
  191.4200  176.4670  138.6680 O   0  0  0  0  0  1  0  0  0  0  0  0
  190.5410  176.0150  139.5370 O   0  0  0  0  0  0  0  0  0  0  0  0
  184.2980  178.8220  145.5500 C   0  0  0  0  0  0  0  0  0  0  0  0
  183.0690  179.0890  145.4720 O   0  0  0  0  0  0  0  0  0  0  0  0
  186.1860  178.4390  146.9480 C   0  0  0  0  0  3  0  0  0  0  0  0
  186.9960  178.1990  145.8410 C   0  0  0  0  0  0  0  0  0  0  0  0
  186.4320  178.2820  144.5640 C   0  0  0  0  0  3  0  0  0  0  0  0
  184.8730  178.7400  146.7810 N   0  0  0  0  0  0  0  0  0  0  0  0
  185.0770  178.5980  144.3870 C   0  0  1  0  0  3  0  0  0  0  0  0
  185.6370  179.1000  139.6200 O   0  0  0  0  0  0  0  0  0  0  0  0
  184.5370  178.6680  142.9970 C   0  0  0  0  0  0  0  0  0  0  0  0
  182.5670  178.6430  141.3670 C   0  0  0  0  0  3  0  0  0  0  0  0
  185.3520  178.8740  141.9540 C   0  0  0  0  0  3  0  0  0  0  0  0
  184.8400  178.9450  140.5820 C   0  0  0  0  0  0  0  0  0  0  0  0
  183.0540  178.4160  142.7770 C   0  0  0  0  0  2  0  0  0  0  0  0
  183.3940  178.8630  140.3470 C   0  0  0  0  0  0  0  0  0  0  0  0
  182.8800  179.0290  139.0680 O   0  0  0  0  0  1  0  0  0  0  0  0
  2 12  1  6  0  0  0
  2  5  1  0  0  0  0
  2  7  1  0  0  0  0
  3  8  1  0  0  0  0
  3  1  1  1  0  0  0
  5 13  1  6  0  0  0
  5  6  1  0  0  0  0
  6  3  1  0  0  0  0
  7  8  1  0  0  0  0
  8 11  1  1  0  0  0
  9  4  1  6  0  0  0
  9 13  1  0  0  0  0
 10 15  1  6  0  0  0
 10  9  1  0  0  0  0
 10 12  1  0  0  0  0
 14 15  1  0  0  0  0
 16 21  1  0  0  0  0
 17 16  2  0  0  0  0
 19  1  1  0  0  0  0
 19 18  1  0  0  0  0
 20 19  2  0  0  0  0
 21 18  2  0  0  0  0
 22 24  1  1  0  0  0
 22 20  1  0  0  0  0
 22 16  1  0  0  0  0
 23 27  2  0  0  0  0
 25 28  1  0  0  0  0
 26 24  2  0  0  0  0
 27 26  1  0  0  0  0
 28 24  1  0  0  0  0
 29 27  1  0  0  0  0
 29 25  2  0  0  0  0
 30 29  1  0  0  0  0
M  END
>  <MODEL>
1

>  <REMARK>
 VINA RESULT:     -10.0      0.000      0.000
  Name = 
  4 active torsions:
  status: ('A' for Active; 'I' for Inactive)
    1  A    between atoms: C_2  and  C_23
    2  A    between atoms: C_5  and  O_9
    3  A    between atoms: O_9  and  C_17
    4  A    between atoms: C_26  and  O_30
                            x       y       z     vdW  Elec       q    Type
                         _______ _______ _______ _____ _____    ______ ____

>  <TORSDO>
F 4

$$$$
=
 OpenBabel11062413173D

 30 33  0  0  1  0  0  0  0  0999 V2000
  188.3780  177.8720  146.0190 O   0  0  0  0  0  0  0  0  0  0  0  0
  190.8850  177.4500  142.9270 C   0  0  1  0  0  3  0  0  0  0  0  0
  189.1000  176.9960  145.1600 C   0  0  1  0  0  3  0  0  0  0  0  0
  188.5260  177.9910  139.4840 O   0  0  0  0  0  1  0  0  0  0  0  0
  189.5440  178.0870  143.0330 N   0  0  2  0  0  0  0  0  0  0  0  0
  188.6180  177.1960  143.7240 C   0  0  0  0  0  2  0  0  0  0  0  0
  191.2840  176.7890  144.1240 O   0  0  0  0  0  0  0  0  0  0  0  0
  190.6060  177.3040  145.2480 C   0  0  2  0  0  3  0  0  0  0  0  0
  189.0210  177.4620  140.6770 C   0  0  1  0  0  3  0  0  0  0  0  0
  190.4550  177.0010  140.4840 C   0  0  1  0  0  3  0  0  0  0  0  0
  191.1950  176.7030  146.5080 C   0  0  0  0  0  1  0  0  0  0  0  0
  190.9560  176.4220  141.7940 C   0  0  0  0  0  2  0  0  0  0  0  0
  188.9900  178.5430  141.7520 C   0  0  0  0  0  2  0  0  0  0  0  0
  191.4950  176.3910  138.7070 O   0  0  0  0  0  1  0  0  0  0  0  0
  190.5100  176.0160  139.4960 O   0  0  0  0  0  0  0  0  0  0  0  0
  184.3270  178.8000  145.5540 C   0  0  0  0  0  0  0  0  0  0  0  0
  183.0970  179.0640  145.4810 O   0  0  0  0  0  0  0  0  0  0  0  0
  186.2140  178.3870  146.9440 C   0  0  0  0  0  3  0  0  0  0  0  0
  187.0270  178.1810  145.8320 C   0  0  0  0  0  0  0  0  0  0  0  0
  186.4650  178.2960  144.5570 C   0  0  0  0  0  3  0  0  0  0  0  0
  184.9000  178.6870  146.7830 N   0  0  0  0  0  0  0  0  0  0  0  0
  185.1090  178.6110  144.3870 C   0  0  1  0  0  3  0  0  0  0  0  0
  181.4720  178.5680  141.2140 O   0  0  0  0  0  0  0  0  0  0  0  0
  184.5700  178.7160  142.9980 C   0  0  0  0  0  0  0  0  0  0  0  0
  184.9290  179.0250  140.4860 C   0  0  0  0  0  3  0  0  0  0  0  0
  183.2600  178.5700  142.7580 C   0  0  0  0  0  3  0  0  0  0  0  0
  182.7130  178.6700  141.4010 C   0  0  0  0  0  0  0  0  0  0  0  0
  185.5240  179.0770  141.8710 C   0  0  0  0  0  2  0  0  0  0  0  0
  183.6250  178.8620  140.2680 C   0  0  0  0  0  0  0  0  0  0  0  0
  183.1390  178.8590  138.9670 O   0  0  0  0  0  1  0  0  0  0  0  0
  2 12  1  6  0  0  0
  2  5  1  0  0  0  0
  2  7  1  0  0  0  0
  3  8  1  0  0  0  0
  3  1  1  1  0  0  0
  5 13  1  6  0  0  0
  5  6  1  0  0  0  0
  6  3  1  0  0  0  0
  7  8  1  0  0  0  0
  8 11  1  1  0  0  0
  9  4  1  6  0  0  0
  9 13  1  0  0  0  0
 10 15  1  6  0  0  0
 10  9  1  0  0  0  0
 10 12  1  0  0  0  0
 14 15  1  0  0  0  0
 16 21  1  0  0  0  0
 17 16  2  0  0  0  0
 19  1  1  0  0  0  0
 19 18  1  0  0  0  0
 20 19  2  0  0  0  0
 21 18  2  0  0  0  0
 22 24  1  1  0  0  0
 22 20  1  0  0  0  0
 22 16  1  0  0  0  0
 23 27  2  0  0  0  0
 25 28  1  0  0  0  0
 26 24  2  0  0  0  0
 27 26  1  0  0  0  0
 28 24  1  0  0  0  0
 29 25  2  0  0  0  0
 29 27  1  0  0  0  0
 30 29  1  0  0  0  0
M  END
>  <MODEL>
2

>  <REMARK>
 VINA RESULT:      -9.8      0.491      1.220
  Name = 
  4 active torsions:
  status: ('A' for Active; 'I' for Inactive)
    1  A    between atoms: C_2  and  C_23
    2  A    between atoms: C_5  and  O_9
    3  A    between atoms: O_9  and  C_17
    4  A    between atoms: C_26  and  O_30
                            x       y       z     vdW  Elec       q    Type
                         _______ _______ _______ _____ _____    ______ ____

>  <TORSDO>
F 4

$$$$
=
 OpenBabel11062413173D

 30 33  0  0  1  0  0  0  0  0999 V2000
  191.2840  177.8600  141.8780 O   0  0  0  0  0  0  0  0  0  0  0  0
  190.5330  177.2960  137.9870 C   0  0  1  0  0  3  0  0  0  0  0  0
  191.1840  176.9510  140.7860 C   0  0  1  0  0  3  0  0  0  0  0  0
  186.3400  177.3250  137.6350 O   0  0  0  0  0  1  0  0  0  0  0  0
  189.6950  177.8490  139.0860 N   0  0  2  0  0  0  0  0  0  0  0  0
  189.7530  176.9720  140.2510 C   0  0  0  0  0  2  0  0  0  0  0  0
  191.7840  176.7870  138.4410 O   0  0  0  0  0  0  0  0  0  0  0  0
  192.1600  177.3670  139.6710 C   0  0  2  0  0  3  0  0  0  0  0  0
  187.6310  176.9550  138.0110 C   0  0  1  0  0  3  0  0  0  0  0  0
  188.4390  176.5730  136.7830 C   0  0  1  0  0  3  0  0  0  0  0  0
  193.5710  176.9380  140.0160 C   0  0  0  0  0  1  0  0  0  0  0  0
  189.8310  176.1640  137.2290 C   0  0  0  0  0  2  0  0  0  0  0  0
  188.3070  178.1340  138.7010 C   0  0  0  0  0  2  0  0  0  0  0  0
  188.1830  174.4410  136.8290 O   0  0  0  0  0  1  0  0  0  0  0  0
  187.8330  175.4990  136.1280 O   0  0  0  0  0  0  0  0  0  0  0  0
  189.7790  177.0290  145.6890 C   0  0  0  0  0  0  0  0  0  0  0  0
  189.3820  176.7390  146.8490 O   0  0  0  0  0  0  0  0  0  0  0  0
  191.5690  177.0310  144.1210 C   0  0  0  0  0  3  0  0  0  0  0  0
  190.7530  177.5930  143.1430 C   0  0  0  0  0  0  0  0  0  0  0  0
  189.4220  177.8810  143.4620 C   0  0  0  0  0  3  0  0  0  0  0  0
  191.0710  176.7630  145.3550 N   0  0  0  0  0  0  0  0  0  0  0  0
  188.9060  177.6110  144.7370 C   0  0  1  0  0  3  0  0  0  0  0  0
  184.3310  178.2260  143.3290 O   0  0  0  0  0  0  0  0  0  0  0  0
  187.4760  177.9400  145.0120 C   0  0  0  0  0  0  0  0  0  0  0  0
  185.6200  178.6460  146.6220 C   0  0  0  0  0  3  0  0  0  0  0  0
  186.5710  177.9480  144.0220 C   0  0  0  0  0  3  0  0  0  0  0  0
  185.1630  178.2670  144.2720 C   0  0  0  0  0  0  0  0  0  0  0  0
  187.0450  178.1840  146.4490 C   0  0  0  0  0  2  0  0  0  0  0  0
  184.7410  178.6620  145.6210 C   0  0  0  0  0  0  0  0  0  0  0  0
  183.4340  179.0660  145.8590 O   0  0  0  0  0  1  0  0  0  0  0  0
  1 19  1  0  0  0  0
  2 12  1  1  0  0  0
  2  7  1  0  0  0  0
  2  5  1  0  0  0  0
  3  1  1  1  0  0  0
  5 13  1  6  0  0  0
  5  6  1  0  0  0  0
  6  3  1  0  0  0  0
  7  8  1  0  0  0  0
  8 11  1  1  0  0  0
  8  3  1  0  0  0  0
  9  4  1  6  0  0  0
  9 13  1  0  0  0  0
 10 15  1  1  0  0  0
 10 12  1  0  0  0  0
 10  9  1  0  0  0  0
 15 14  1  0  0  0  0
 16 17  2  0  0  0  0
 18 21  2  0  0  0  0
 19 20  2  0  0  0  0
 19 18  1  0  0  0  0
 20 22  1  0  0  0  0
 21 16  1  0  0  0  0
 22 24  1  6  0  0  0
 22 16  1  0  0  0  0
 23 27  2  0  0  0  0
 24 28  1  0  0  0  0
 26 27  1  0  0  0  0
 26 24  2  0  0  0  0
 27 29  1  0  0  0  0
 28 25  1  0  0  0  0
 29 30  1  0  0  0  0
 29 25  2  0  0  0  0
M  END
>  <MODEL>
3

>  <REMARK>
 VINA RESULT:      -9.5      2.430      4.938
  Name = 
  4 active torsions:
  status: ('A' for Active; 'I' for Inactive)
    1  A    between atoms: C_2  and  C_23
    2  A    between atoms: C_5  and  O_9
    3  A    between atoms: O_9  and  C_17
    4  A    between atoms: C_26  and  O_30
                            x       y       z     vdW  Elec       q    Type
                         _______ _______ _______ _____ _____    ______ ____

>  <TORSDO>
F 4

$$$$
=
 OpenBabel11062413173D

 30 33  0  0  1  0  0  0  0  0999 V2000
  184.5070  179.3290  142.1190 O   0  0  0  0  0  0  0  0  0  0  0  0
  184.7220  178.4730  138.2150 C   0  0  1  0  0  3  0  0  0  0  0  0
  184.7620  178.3610  141.1060 C   0  0  1  0  0  3  0  0  0  0  0  0
  180.7420  177.9340  136.9600 O   0  0  0  0  0  1  0  0  0  0  0  0
  183.6000  178.9670  139.0580 N   0  0  2  0  0  0  0  0  0  0  0  0
  183.4960  178.1660  140.2730 C   0  0  0  0  0  2  0  0  0  0  0  0
  185.8900  178.1570  138.9690 O   0  0  0  0  0  0  0  0  0  0  0  0
  185.9080  178.8430  140.2000 C   0  0  2  0  0  3  0  0  0  0  0  0
  181.9500  177.7560  137.6350 C   0  0  1  0  0  3  0  0  0  0  0  0
  183.0530  177.4210  136.6460 C   0  0  1  0  0  3  0  0  0  0  0  0
  187.2460  178.6210  140.8770 C   0  0  0  0  0  1  0  0  0  0  0  0
  184.3460  177.2220  137.4140 C   0  0  0  0  0  2  0  0  0  0  0  0
  182.3110  179.0470  138.3600 C   0  0  0  0  0  2  0  0  0  0  0  0
  183.3270  175.2920  136.6530 O   0  0  0  0  0  1  0  0  0  0  0  0
  182.7390  176.2460  135.9620 O   0  0  0  0  0  0  0  0  0  0  0  0
  184.9260  178.5760  146.2110 C   0  0  0  0  0  0  0  0  0  0  0  0
  184.9930  178.3840  147.4540 O   0  0  0  0  0  0  0  0  0  0  0  0
  183.6040  179.2480  144.3500 C   0  0  0  0  0  3  0  0  0  0  0  0
  184.6770  179.0690  143.4820 C   0  0  0  0  0  0  0  0  0  0  0  0
  185.8970  178.6260  144.0030 C   0  0  0  0  0  3  0  0  0  0  0  0
  183.7500  179.0030  145.6770 N   0  0  0  0  0  0  0  0  0  0  0  0
  186.0500  178.3660  145.3730 C   0  0  1  0  0  3  0  0  0  0  0  0
  190.5750  176.8550  144.6370 O   0  0  0  0  0  0  0  0  0  0  0  0
  187.3800  177.8980  145.8650 C   0  0  0  0  0  0  0  0  0  0  0  0
  188.9490  177.2600  147.7800 C   0  0  0  0  0  3  0  0  0  0  0  0
  188.3550  177.5740  145.0050 C   0  0  0  0  0  3  0  0  0  0  0  0
  189.6670  177.1130  145.4700 C   0  0  0  0  0  0  0  0  0  0  0  0
  187.6370  177.8760  147.3640 C   0  0  0  0  0  2  0  0  0  0  0  0
  189.8990  176.9300  146.9070 C   0  0  0  0  0  0  0  0  0  0  0  0
  191.0990  176.3990  147.3620 O   0  0  0  0  0  1  0  0  0  0  0  0
  1 19  1  0  0  0  0
  2 12  1  1  0  0  0
  2  7  1  0  0  0  0
  2  5  1  0  0  0  0
  3  1  1  1  0  0  0
  5 13  1  6  0  0  0
  5  6  1  0  0  0  0
  6  3  1  0  0  0  0
  7  8  1  0  0  0  0
  8 11  1  1  0  0  0
  8  3  1  0  0  0  0
  9  4  1  6  0  0  0
  9 13  1  0  0  0  0
 10 15  1  1  0  0  0
 10 12  1  0  0  0  0
 10  9  1  0  0  0  0
 15 14  1  0  0  0  0
 16 17  2  0  0  0  0
 18 21  2  0  0  0  0
 19 20  2  0  0  0  0
 19 18  1  0  0  0  0
 20 22  1  0  0  0  0
 21 16  1  0  0  0  0
 22 24  1  1  0  0  0
 22 16  1  0  0  0  0
 23 27  2  0  0  0  0
 24 28  1  0  0  0  0
 26 27  1  0  0  0  0
 26 24  2  0  0  0  0
 27 29  1  0  0  0  0
 28 25  1  0  0  0  0
 29 30  1  0  0  0  0
 29 25  2  0  0  0  0
M  END
>  <MODEL>
4

>  <REMARK>
 VINA RESULT:      -9.4      2.608      6.797
  Name = 
  4 active torsions:
  status: ('A' for Active; 'I' for Inactive)
    1  A    between atoms: C_2  and  C_23
    2  A    between atoms: C_5  and  O_9
    3  A    between atoms: O_9  and  C_17
    4  A    between atoms: C_26  and  O_30
                            x       y       z     vdW  Elec       q    Type
                         _______ _______ _______ _____ _____    ______ ____

>  <TORSDO>
F 4

$$$$
=
 OpenBabel11062413173D

 30 33  0  0  1  0  0  0  0  0999 V2000
  184.9990  177.6840  142.6150 O   0  0  0  0  0  0  0  0  0  0  0  0
  181.1740  178.8510  142.4330 C   0  0  1  0  0  3  0  0  0  0  0  0
  184.0620  178.7570  142.6000 C   0  0  1  0  0  3  0  0  0  0  0  0
  180.1110  178.5940  138.3700 O   0  0  0  0  0  1  0  0  0  0  0  0
  182.0130  178.0620  141.4900 N   0  0  2  0  0  0  0  0  0  0  0  0
  183.2940  178.7290  141.2790 C   0  0  0  0  0  2  0  0  0  0  0  0
  181.9100  179.3600  143.5420 O   0  0  0  0  0  0  0  0  0  0  0  0
  183.0790  178.6060  143.7740 C   0  0  2  0  0  3  0  0  0  0  0  0
  180.7550  178.9830  139.5440 C   0  0  1  0  0  3  0  0  0  0  0  0
  179.7590  179.6230  140.4950 C   0  0  1  0  0  3  0  0  0  0  0  0
  183.7240  179.0660  145.0660 C   0  0  0  0  0  1  0  0  0  0  0  0
  180.4940  180.0450  141.7540 C   0  0  0  0  0  2  0  0  0  0  0  0
  181.3570  177.7520  140.2140 C   0  0  0  0  0  2  0  0  0  0  0  0
  178.9910  181.5890  140.8930 O   0  0  0  0  0  1  0  0  0  0  0  0
  179.1870  180.7480  139.8990 O   0  0  0  0  0  0  0  0  0  0  0  0
  189.1240  178.2980  142.3120 C   0  0  0  0  0  0  0  0  0  0  0  0
  190.3590  178.4890  142.1520 O   0  0  0  0  0  0  0  0  0  0  0  0
  186.9380  178.3970  141.3770 C   0  0  0  0  0  3  0  0  0  0  0  0
  186.3820  177.8780  142.5430 C   0  0  0  0  0  0  0  0  0  0  0  0
  187.2270  177.5730  143.6140 C   0  0  0  0  0  3  0  0  0  0  0  0
  188.2780  178.5920  141.2870 N   0  0  0  0  0  0  0  0  0  0  0  0
  188.6120  177.7780  143.5270 C   0  0  1  0  0  3  0  0  0  0  0  0
  189.4570  177.6450  148.2770 O   0  0  0  0  0  0  0  0  0  0  0  0
  189.4590  177.4280  144.7050 C   0  0  0  0  0  0  0  0  0  0  0  0
  191.6090  176.4620  145.6970 C   0  0  0  0  0  3  0  0  0  0  0  0
  189.0610  177.7250  145.9500 C   0  0  0  0  0  3  0  0  0  0  0  0
  189.8790  177.3890  147.1190 C   0  0  0  0  0  0  0  0  0  0  0  0
  190.7460  176.6510  144.4750 C   0  0  0  0  0  2  0  0  0  0  0  0
  191.1990  176.7800  146.9240 C   0  0  0  0  0  0  0  0  0  0  0  0
  192.0320  176.5460  148.0100 O   0  0  0  0  0  1  0  0  0  0  0  0
  2 12  1  6  0  0  0
  2  7  1  0  0  0  0
  3  1  1  6  0  0  0
  3  8  1  0  0  0  0
  5 13  1  6  0  0  0
  5  2  1  0  0  0  0
  6  5  1  0  0  0  0
  6  3  1  0  0  0  0
  7  8  1  0  0  0  0
  8 11  1  1  0  0  0
  9  4  1  6  0  0  0
  9 13  1  0  0  0  0
  9 10  1  0  0  0  0
 10 15  1  6  0  0  0
 10 12  1  0  0  0  0
 15 14  1  0  0  0  0
 16 22  1  0  0  0  0
 17 16  2  0  0  0  0
 18 19  1  0  0  0  0
 19  1  1  0  0  0  0
 19 20  2  0  0  0  0
 21 18  2  0  0  0  0
 21 16  1  0  0  0  0
 22 20  1  0  0  0  0
 22 24  1  6  0  0  0
 24 26  2  0  0  0  0
 25 29  2  0  0  0  0
 26 27  1  0  0  0  0
 27 23  2  0  0  0  0
 28 24  1  0  0  0  0
 28 25  1  0  0  0  0
 29 27  1  0  0  0  0
 29 30  1  0  0  0  0
M  END
>  <MODEL>
5

>  <REMARK>
 VINA RESULT:      -9.3      2.483      8.421
  Name = 
  4 active torsions:
  status: ('A' for Active; 'I' for Inactive)
    1  A    between atoms: C_2  and  C_23
    2  A    between atoms: C_5  and  O_9
    3  A    between atoms: O_9  and  C_17
    4  A    between atoms: C_26  and  O_30
                            x       y       z     vdW  Elec       q    Type
                         _______ _______ _______ _____ _____    ______ ____

>  <TORSDO>
F 4

$$$$
=
 OpenBabel11062413173D

 30 33  0  0  1  0  0  0  0  0999 V2000
  190.6110  177.7290  140.3650 O   0  0  0  0  0  0  0  0  0  0  0  0
  189.3820  176.9100  136.6450 C   0  0  1  0  0  3  0  0  0  0  0  0
  190.2770  176.7440  139.3920 C   0  0  1  0  0  3  0  0  0  0  0  0
  185.2150  177.4930  136.6820 O   0  0  0  0  0  1  0  0  0  0  0  0
  188.7450  177.6770  137.7500 N   0  0  2  0  0  0  0  0  0  0  0  0
  188.8130  176.9140  138.9930 C   0  0  0  0  0  2  0  0  0  0  0  0
  190.5980  176.2770  137.0330 O   0  0  0  0  0  0  0  0  0  0  0  0
  191.1750  176.9120  138.1530 C   0  0  2  0  0  3  0  0  0  0  0  0
  186.4800  176.9830  136.9750 C   0  0  1  0  0  3  0  0  0  0  0  0
  187.0960  176.3770  135.7260 C   0  0  1  0  0  3  0  0  0  0  0  0
  192.5470  176.3240  138.4100 C   0  0  0  0  0  1  0  0  0  0  0  0
  188.4630  175.8220  136.0820 C   0  0  0  0  0  2  0  0  0  0  0  0
  187.3730  178.1160  137.4670 C   0  0  0  0  0  2  0  0  0  0  0  0
  187.1160  174.3340  135.0630 O   0  0  0  0  0  1  0  0  0  0  0  0
  186.2890  175.3420  135.2500 O   0  0  0  0  0  0  0  0  0  0  0  0
  190.4560  177.0150  144.4820 C   0  0  0  0  0  0  0  0  0  0  0  0
  190.4690  176.7650  145.7170 O   0  0  0  0  0  0  0  0  0  0  0  0
  191.6530  177.0450  142.4260 C   0  0  0  0  0  3  0  0  0  0  0  0
  190.5290  177.4990  141.7420 C   0  0  0  0  0  0  0  0  0  0  0  0
  189.3480  177.7190  142.4580 C   0  0  0  0  0  3  0  0  0  0  0  0
  191.5930  176.8150  143.7620 N   0  0  0  0  0  0  0  0  0  0  0  0
  189.2840  177.4870  143.8400 C   0  0  1  0  0  3  0  0  0  0  0  0
  184.5170  178.2420  143.8580 O   0  0  0  0  0  0  0  0  0  0  0  0
  187.9920  177.7390  144.5450 C   0  0  0  0  0  0  0  0  0  0  0  0
  186.6660  178.1320  146.6960 C   0  0  0  0  0  3  0  0  0  0  0  0
  186.8530  177.8940  143.8560 C   0  0  0  0  0  3  0  0  0  0  0  0
  185.5750  178.1410  144.5310 C   0  0  0  0  0  0  0  0  0  0  0  0
  187.9770  177.7320  146.0650 C   0  0  0  0  0  2  0  0  0  0  0  0
  185.5490  178.2970  145.9900 C   0  0  0  0  0  0  0  0  0  0  0  0
  184.3670  178.6310  146.6390 O   0  0  0  0  0  1  0  0  0  0  0  0
  1 19  1  0  0  0  0
  2 12  1  1  0  0  0
  2  7  1  0  0  0  0
  2  5  1  0  0  0  0
  3  1  1  1  0  0  0
  5 13  1  6  0  0  0
  5  6  1  0  0  0  0
  6  3  1  0  0  0  0
  7  8  1  0  0  0  0
  8 11  1  1  0  0  0
  8  3  1  0  0  0  0
  9  4  1  6  0  0  0
  9 13  1  0  0  0  0
 10 15  1  1  0  0  0
 10 12  1  0  0  0  0
 10  9  1  0  0  0  0
 14 15  1  0  0  0  0
 16 17  2  0  0  0  0
 18 21  2  0  0  0  0
 19 18  1  0  0  0  0
 19 20  2  0  0  0  0
 20 22  1  0  0  0  0
 21 16  1  0  0  0  0
 22 16  1  0  0  0  0
 22 24  1  6  0  0  0
 23 27  2  0  0  0  0
 24 28  1  0  0  0  0
 26 27  1  0  0  0  0
 26 24  2  0  0  0  0
 27 29  1  0  0  0  0
 28 25  1  0  0  0  0
 29 30  1  0  0  0  0
 29 25  2  0  0  0  0
M  END
>  <MODEL>
6

>  <REMARK>
 VINA RESULT:      -9.2      2.971      5.942
  Name = 
  4 active torsions:
  status: ('A' for Active; 'I' for Inactive)
    1  A    between atoms: C_2  and  C_23
    2  A    between atoms: C_5  and  O_9
    3  A    between atoms: O_9  and  C_17
    4  A    between atoms: C_26  and  O_30
                            x       y       z     vdW  Elec       q    Type
                         _______ _______ _______ _____ _____    ______ ____

>  <TORSDO>
F 4

$$$$
=
 OpenBabel11062413173D

 30 33  0  0  1  0  0  0  0  0999 V2000
  190.8970  175.7600  138.6980 O   0  0  0  0  0  0  0  0  0  0  0  0
  193.9370  174.8820  136.2460 C   0  0  1  0  0  3  0  0  0  0  0  0
  191.9190  176.2290  137.8230 C   0  0  1  0  0  3  0  0  0  0  0  0
  197.2160  174.0850  138.7600 O   0  0  0  0  0  1  0  0  0  0  0  0
  193.7190  174.6000  137.6910 N   0  0  2  0  0  0  0  0  0  0  0  0
  193.2800  175.8100  138.3780 C   0  0  0  0  0  2  0  0  0  0  0  0
  192.9180  175.7000  135.6770 O   0  0  0  0  0  0  0  0  0  0  0  0
  191.7230  175.6260  136.4210 C   0  0  2  0  0  3  0  0  0  0  0  0
  196.1680  174.7550  138.1280 C   0  0  1  0  0  3  0  0  0  0  0  0
  196.4270  174.8310  136.6340 C   0  0  1  0  0  3  0  0  0  0  0  0
  190.6240  176.3590  135.6790 C   0  0  0  0  0  1  0  0  0  0  0  0
  195.2770  175.5750  135.9810 C   0  0  0  0  0  2  0  0  0  0  0  0
  194.8710  173.9910  138.3670 C   0  0  0  0  0  2  0  0  0  0  0  0
  197.2420  176.6310  135.7930 O   0  0  0  0  0  1  0  0  0  0  0  0
  197.6170  175.5190  136.3900 O   0  0  0  0  0  0  0  0  0  0  0  0
  188.4720  178.3500  140.9100 C   0  0  0  0  0  0  0  0  0  0  0  0
  187.7300  179.1670  141.5180 O   0  0  0  0  0  0  0  0  0  0  0  0
  189.2420  177.5060  138.8230 C   0  0  0  0  0  3  0  0  0  0  0  0
  190.0980  176.6140  139.4640 C   0  0  0  0  0  0  0  0  0  0  0  0
  190.1260  176.5950  140.8620 C   0  0  0  0  0  3  0  0  0  0  0  0
  188.4600  178.3430  139.5490 N   0  0  0  0  0  0  0  0  0  0  0  0
  189.3150  177.4560  141.6160 C   0  0  1  0  0  3  0  0  0  0  0  0
  191.8080  177.3480  145.7470 O   0  0  0  0  0  0  0  0  0  0  0  0
  189.3950  177.3880  143.1050 C   0  0  0  0  0  0  0  0  0  0  0  0
  188.2670  177.2000  145.3920 C   0  0  0  0  0  3  0  0  0  0  0  0
  190.5810  177.3790  143.7290 C   0  0  0  0  0  3  0  0  0  0  0  0
  190.6800  177.3140  145.1900 C   0  0  0  0  0  0  0  0  0  0  0  0
  188.1040  177.4140  143.9080 C   0  0  0  0  0  2  0  0  0  0  0  0
  189.4570  177.1790  145.9900 C   0  0  0  0  0  0  0  0  0  0  0  0
  189.5330  177.0140  147.3670 O   0  0  0  0  0  1  0  0  0  0  0  0
  1 19  1  0  0  0  0
  2 12  1  1  0  0  0
  2  5  1  0  0  0  0
  3  6  1  0  0  0  0
  3  1  1  1  0  0  0
  5 13  1  1  0  0  0
  5  6  1  0  0  0  0
  7  2  1  0  0  0  0
  7  8  1  0  0  0  0
  8 11  1  6  0  0  0
  8  3  1  0  0  0  0
  9 13  1  0  0  0  0
  9  4  1  1  0  0  0
 10 15  1  1  0  0  0
 10  9  1  0  0  0  0
 12 10  1  0  0  0  0
 14 15  1  0  0  0  0
 16 17  2  0  0  0  0
 16 22  1  0  0  0  0
 18 19  1  0  0  0  0
 18 21  2  0  0  0  0
 19 20  2  0  0  0  0
 20 22  1  0  0  0  0
 21 16  1  0  0  0  0
 22 24  1  6  0  0  0
 24 26  2  0  0  0  0
 24 28  1  0  0  0  0
 25 29  2  0  0  0  0
 26 27  1  0  0  0  0
 27 23  2  0  0  0  0
 27 29  1  0  0  0  0
 28 25  1  0  0  0  0
 29 30  1  0  0  0  0
M  END
>  <MODEL>
7

>  <REMARK>
 VINA RESULT:      -9.1      4.140      7.747
  Name = 
  4 active torsions:
  status: ('A' for Active; 'I' for Inactive)
    1  A    between atoms: C_2  and  C_23
    2  A    between atoms: C_5  and  O_9
    3  A    between atoms: O_9  and  C_17
    4  A    between atoms: C_26  and  O_30
                            x       y       z     vdW  Elec       q    Type
                         _______ _______ _______ _____ _____    ______ ____

>  <TORSDO>
F 4

$$$$
=
 OpenBabel11062413173D

 30 33  0  0  1  0  0  0  0  0999 V2000
  190.2350  176.1180  140.1290 O   0  0  0  0  0  0  0  0  0  0  0  0
  191.6800  175.5840  136.4340 C   0  0  1  0  0  3  0  0  0  0  0  0
  190.7660  176.7010  138.9430 C   0  0  1  0  0  3  0  0  0  0  0  0
  195.6690  174.3480  136.9540 O   0  0  0  0  0  1  0  0  0  0  0  0
  192.1400  175.0820  137.7580 N   0  0  2  0  0  0  0  0  0  0  0  0
  192.1840  176.1770  138.7220 C   0  0  0  0  0  2  0  0  0  0  0  0
  190.5920  176.4990  136.5320 O   0  0  0  0  0  0  0  0  0  0  0  0
  189.8830  176.3280  137.7390 C   0  0  2  0  0  3  0  0  0  0  0  0
  194.5120  175.1260  136.9910 C   0  0  1  0  0  3  0  0  0  0  0  0
  194.0460  175.4310  135.5780 C   0  0  1  0  0  3  0  0  0  0  0  0
  188.6350  177.1870  137.7130 C   0  0  0  0  0  1  0  0  0  0  0  0
  192.7960  176.2880  135.6550 C   0  0  0  0  0  2  0  0  0  0  0  0
  193.4160  174.3560  137.7180 C   0  0  0  0  0  2  0  0  0  0  0  0
  195.1260  177.2860  135.5110 O   0  0  0  0  0  1  0  0  0  0  0  0
  195.0400  176.1290  134.8890 O   0  0  0  0  0  0  0  0  0  0  0  0
  190.1700  178.1440  143.7860 C   0  0  0  0  0  0  0  0  0  0  0  0
  190.2190  178.7440  144.8930 O   0  0  0  0  0  0  0  0  0  0  0  0
  191.3630  177.2470  141.9330 C   0  0  0  0  0  3  0  0  0  0  0  0
  190.1820  176.7920  141.3530 C   0  0  0  0  0  0  0  0  0  0  0  0
  188.9730  177.0320  142.0120 C   0  0  0  0  0  3  0  0  0  0  0  0
  191.3320  177.9020  143.1210 N   0  0  0  0  0  0  0  0  0  0  0  0
  188.9360  177.7140  143.2370 C   0  0  1  0  0  3  0  0  0  0  0  0
  184.1690  178.4450  143.0630 O   0  0  0  0  0  0  0  0  0  0  0  0
  187.6130  177.9350  143.8910 C   0  0  0  0  0  0  0  0  0  0  0  0
  186.1880  178.2470  145.9910 C   0  0  0  0  0  3  0  0  0  0  0  0
  186.5050  178.1080  143.1570 C   0  0  0  0  0  3  0  0  0  0  0  0
  185.1960  178.3260  143.7810 C   0  0  0  0  0  0  0  0  0  0  0  0
  187.5280  177.8750  145.4080 C   0  0  0  0  0  2  0  0  0  0  0  0
  185.1020  178.4310  145.2410 C   0  0  0  0  0  0  0  0  0  0  0  0
  183.8910  178.7370  145.8470 O   0  0  0  0  0  1  0  0  0  0  0  0
  1 19  1  0  0  0  0
  2 12  1  1  0  0  0
  2  7  1  0  0  0  0
  2  5  1  0  0  0  0
  3  1  1  1  0  0  0
  5 13  1  6  0  0  0
  5  6  1  0  0  0  0
  6  3  1  0  0  0  0
  7  8  1  0  0  0  0
  8 11  1  6  0  0  0
  8  3  1  0  0  0  0
  9  4  1  6  0  0  0
  9 13  1  0  0  0  0
 10 15  1  6  0  0  0
 10 12  1  0  0  0  0
 10  9  1  0  0  0  0
 15 14  1  0  0  0  0
 16 17  2  0  0  0  0
 18 21  2  0  0  0  0
 19 18  1  0  0  0  0
 19 20  2  0  0  0  0
 20 22  1  0  0  0  0
 21 16  1  0  0  0  0
 22 16  1  0  0  0  0
 22 24  1  1  0  0  0
 23 27  2  0  0  0  0
 24 28  1  0  0  0  0
 26 27  1  0  0  0  0
 26 24  2  0  0  0  0
 27 29  1  0  0  0  0
 28 25  1  0  0  0  0
 29 30  1  0  0  0  0
 29 25  2  0  0  0  0
M  END
>  <MODEL>
8

>  <REMARK>
 VINA RESULT:      -9.1      3.308      6.255
  Name = 
  4 active torsions:
  status: ('A' for Active; 'I' for Inactive)
    1  A    between atoms: C_2  and  C_23
    2  A    between atoms: C_5  and  O_9
    3  A    between atoms: O_9  and  C_17
    4  A    between atoms: C_26  and  O_30
                            x       y       z     vdW  Elec       q    Type
                         _______ _______ _______ _____ _____    ______ ____

>  <TORSDO>
F 4

$$$$
=
 OpenBabel11062413173D

 30 33  0  0  1  0  0  0  0  0999 V2000
  191.0200  176.8770  143.7490 O   0  0  0  0  0  0  0  0  0  0  0  0
  188.1150  177.0960  146.4930 C   0  0  1  0  0  3  0  0  0  0  0  0
  190.4150  177.6040  144.8140 C   0  0  1  0  0  3  0  0  0  0  0  0
  184.6910  178.3740  144.4080 O   0  0  0  0  0  1  0  0  0  0  0  0
  188.0680  177.0050  145.0090 N   0  0  2  0  0  0  0  0  0  0  0  0
  188.9860  177.9720  144.4180 C   0  0  0  0  0  2  0  0  0  0  0  0
  189.4390  177.2310  147.0020 O   0  0  0  0  0  0  0  0  0  0  0  0
  190.3940  176.7420  146.0880 C   0  0  2  0  0  3  0  0  0  0  0  0
  185.9730  178.3560  144.9560 C   0  0  1  0  0  3  0  0  0  0  0  0
  185.8880  178.2780  146.4700 C   0  0  1  0  0  3  0  0  0  0  0  0
  191.7590  176.7360  146.7450 C   0  0  0  0  0  1  0  0  0  0  0  0
  187.2970  178.2730  147.0340 C   0  0  0  0  0  2  0  0  0  0  0  0
  186.7200  177.1320  144.4390 C   0  0  0  0  0  2  0  0  0  0  0  0
  186.0570  179.9800  147.7680 O   0  0  0  0  0  1  0  0  0  0  0  0
  185.1990  179.3860  146.9670 O   0  0  0  0  0  0  0  0  0  0  0  0
  190.4190  177.7220  139.6990 C   0  0  0  0  0  0  0  0  0  0  0  0
  190.3060  177.9840  138.4710 O   0  0  0  0  0  0  0  0  0  0  0  0
  191.8530  177.1320  141.5030 C   0  0  0  0  0  3  0  0  0  0  0  0
  190.7890  177.1640  142.4010 C   0  0  0  0  0  0  0  0  0  0  0  0
  189.5130  177.4780  141.9210 C   0  0  0  0  0  3  0  0  0  0  0  0
  191.6480  177.4090  140.1910 N   0  0  0  0  0  0  0  0  0  0  0  0
  189.2970  177.7590  140.5640 C   0  0  1  0  0  3  0  0  0  0  0  0
  184.8580  179.4760  141.3660 O   0  0  0  0  0  0  0  0  0  0  0  0
  187.9110  178.0900  140.1170 C   0  0  0  0  0  0  0  0  0  0  0  0
  186.0990  178.1230  138.3140 C   0  0  0  0  0  3  0  0  0  0  0  0
  187.0220  178.6150  140.9710 C   0  0  0  0  0  3  0  0  0  0  0  0
  185.6570  178.9470  140.5500 C   0  0  0  0  0  0  0  0  0  0  0  0
  187.5520  177.9000  138.6520 C   0  0  0  0  0  2  0  0  0  0  0  0
  185.2270  178.6300  139.1830 C   0  0  0  0  0  0  0  0  0  0  0  0
  183.9110  178.8430  138.7940 O   0  0  0  0  0  1  0  0  0  0  0  0
  2  7  1  0  0  0  0
  2 12  1  6  0  0  0
  3  1  1  6  0  0  0
  3  8  1  0  0  0  0
  5  6  1  6  0  0  0
  5  2  1  0  0  0  0
  6  3  1  0  0  0  0
  8 11  1  1  0  0  0
  8  7  1  0  0  0  0
  9  4  1  6  0  0  0
  9 10  1  0  0  0  0
 10 15  1  1  0  0  0
 10 12  1  0  0  0  0
 13  9  1  0  0  0  0
 13  5  1  0  0  0  0
 15 14  1  0  0  0  0
 16 21  1  0  0  0  0
 16 22  1  0  0  0  0
 17 16  2  0  0  0  0
 18 19  1  0  0  0  0
 19  1  1  0  0  0  0
 20 19  2  0  0  0  0
 21 18  2  0  0  0  0
 22 24  1  1  0  0  0
 22 20  1  0  0  0  0
 24 26  2  0  0  0  0
 25 28  1  0  0  0  0
 25 29  2  0  0  0  0
 27 26  1  0  0  0  0
 27 23  2  0  0  0  0
 28 24  1  0  0  0  0
 29 27  1  0  0  0  0
 30 29  1  0  0  0  0
M  END
>  <MODEL>
9

>  <REMARK>
 VINA RESULT:      -9.0      1.811      5.662
  Name = 
  4 active torsions:
  status: ('A' for Active; 'I' for Inactive)
    1  A    between atoms: C_2  and  C_23
    2  A    between atoms: C_5  and  O_9
    3  A    between atoms: O_9  and  C_17
    4  A    between atoms: C_26  and  O_30
                            x       y       z     vdW  Elec       q    Type
                         _______ _______ _______ _____ _____    ______ ____

>  <TORSDO>
F 4

$$$$
