=
 OpenBabel11062415353D

 35 38  0  0  1  0  0  0  0  0999 V2000
  185.7370  179.3300  147.2940 N   0  0  0  0  0  1  0  0  0  0  0  0
  190.6150  177.4830  147.5840 C   0  0  0  0  0  1  0  0  0  0  0  0
  186.4730  176.6270  144.0410 O   0  0  0  0  0  0  0  0  0  0  0  0
  189.8050  176.8450  145.2940 C   0  0  0  0  0  0  0  0  0  0  0  0
  188.2550  177.9600  146.9290 C   0  0  0  0  0  0  0  0  0  0  0  0
  188.0670  178.4470  148.0780 O   0  0  0  0  0  0  0  0  0  0  0  0
  186.0150  178.6560  146.0670 C   0  0  0  0  0  0  0  0  0  0  0  0
  187.1650  177.9380  145.9170 C   0  0  0  0  0  0  0  0  0  0  0  0
  188.8050  176.6610  144.4100 C   0  0  0  0  0  0  0  0  0  0  0  0
  187.4240  177.0740  144.7360 C   0  0  0  0  0  0  0  0  0  0  0  0
  189.5450  177.4180  146.5940 N   0  0  0  0  0  0  0  0  0  0  0  0
  191.2030  176.4240  144.9430 C   0  0  0  0  0  1  0  0  0  0  0  0
  183.6580  178.6560  145.2140 C   0  0  0  0  0  3  0  0  0  0  0  0
  183.1880  179.0800  142.8780 C   0  0  0  0  0  3  0  0  0  0  0  0
  185.4730  179.1190  143.6790 C   0  0  0  0  0  3  0  0  0  0  0  0
  182.7400  178.7820  144.1670 C   0  0  0  0  0  3  0  0  0  0  0  0
  184.9880  179.5240  141.3810 F   0  0  0  0  0  0  0  0  0  0  0  0
  185.0300  178.8430  144.9810 C   0  0  0  0  0  0  0  0  0  0  0  0
  184.5530  179.2450  142.6330 C   0  0  0  0  0  0  0  0  0  0  0  0
  189.0660  176.0500  143.0630 C   0  0  0  0  0  2  0  0  0  0  0  0
  188.9310  176.8300  140.7230 C   0  0  1  0  0  3  0  0  0  0  0  0
  188.7260  179.2000  141.2630 O   0  0  0  0  0  1  0  0  0  0  0  0
  189.5210  177.1200  142.0880 C   0  0  1  0  0  3  0  0  0  0  0  0
  188.3180  177.9120  141.6180 C   0  0  2  0  0  3  0  0  0  0  0  0
  189.8550  177.3650  139.6210 C   0  0  2  0  0  3  0  0  0  0  0  0
  189.2710  177.0810  138.2930 N   0  0  0  0  0  0  0  0  0  0  0  0
  189.6500  176.0860  136.0660 C   0  0  0  0  0  2  0  0  0  0  0  0
  188.3930  178.1700  137.7960 C   0  0  1  0  0  0  0  0  0  0  0  0
  187.9730  177.9410  136.3330 C   0  0  0  0  0  2  0  0  0  0  0  0
  190.2960  176.7230  137.3020 C   0  0  0  0  0  2  0  0  0  0  0  0
  187.1260  178.2260  138.6340 C   0  0  0  0  0  1  0  0  0  0  0  0
  188.1840  176.4930  135.8990 C   0  0  0  0  0  2  0  0  0  0  0  0
  189.0360  179.4090  137.8700 O   0  0  0  0  0  1  0  0  0  0  0  0
  192.1370  177.7610  140.5890 C   0  0  0  0  0  1  0  0  0  0  0  0
  191.2720  176.8030  139.7910 C   0  0  0  0  0  2  0  0  0  0  0  0
  3 10  2  0  0  0  0
  4 11  1  0  0  0  0
  5  6  2  0  0  0  0
  7  1  1  0  0  0  0
  8  7  2  0  0  0  0
  8  5  1  0  0  0  0
  9 10  1  0  0  0  0
  9  4  2  0  0  0  0
 10  8  1  0  0  0  0
 11  5  1  0  0  0  0
 11  2  1  0  0  0  0
 12  4  1  0  0  0  0
 14 16  1  0  0  0  0
 15 18  2  0  0  0  0
 16 13  2  0  0  0  0
 17 19  1  0  0  0  0
 18 13  1  0  0  0  0
 18  7  1  0  0  0  0
 19 14  2  0  0  0  0
 19 15  1  0  0  0  0
 20  9  1  0  0  0  0
 21 25  1  6  0  0  0
 21 24  1  0  0  0  0
 21 23  1  0  0  0  0
 23 20  1  1  0  0  0
 24 22  1  6  0  0  0
 24 23  1  0  0  0  0
 25 35  1  6  0  0  0
 26 25  1  0  0  0  0
 27 30  1  0  0  0  0
 28 33  1  0  0  0  0
 28 26  1  0  0  0  0
 28 31  1  1  0  0  0
 29 28  1  0  0  0  0
 30 26  1  0  0  0  0
 32 27  1  0  0  0  0
 32 29  1  0  0  0  0
 35 34  1  0  0  0  0
M  END
>  <MODEL>
1

>  <REMARK>
 VINA RESULT:      -9.4      0.000      0.000
  Name = 
  6 active torsions:
  status: ('A' for Active; 'I' for Inactive)
    1  A    between atoms: C_3  and  C_24
    2  A    between atoms: C_3  and  C_29
    3  A    between atoms: N_5  and  C_31
    4  A    between atoms: C_7  and  C_31
    5  A    between atoms: C_19  and  C_26
    6  A    between atoms: C_30  and  C_31
                            x       y       z     vdW  Elec       q    Type
                         _______ _______ _______ _____ _____    ______ ____

>  <TORSDO>
F 6

$$$$
=
 OpenBabel11062415353D

 35 38  0  0  1  0  0  0  0  0999 V2000
  185.9040  177.6260  145.1750 N   0  0  0  0  0  1  0  0  0  0  0  0
  183.3650  178.4790  140.6900 C   0  0  0  0  0  1  0  0  0  0  0  0
  188.6790  178.8360  142.1300 O   0  0  0  0  0  0  0  0  0  0  0  0
  185.7960  178.4260  140.0690 C   0  0  0  0  0  0  0  0  0  0  0  0
  185.0930  178.2700  142.4770 C   0  0  0  0  0  0  0  0  0  0  0  0
  184.1640  178.2590  143.3310 O   0  0  0  0  0  0  0  0  0  0  0  0
  186.8830  177.7660  144.1460 C   0  0  0  0  0  0  0  0  0  0  0  0
  186.5180  178.1490  142.8900 C   0  0  0  0  0  0  0  0  0  0  0  0
  187.0990  178.4810  140.4110 C   0  0  0  0  0  0  0  0  0  0  0  0
  187.5060  178.4830  141.8320 C   0  0  0  0  0  0  0  0  0  0  0  0
  184.7680  178.4010  141.0820 N   0  0  0  0  0  0  0  0  0  0  0  0
  185.4020  178.4200  138.6200 C   0  0  0  0  0  1  0  0  0  0  0  0
  188.8980  177.9980  145.6200 C   0  0  0  0  0  3  0  0  0  0  0  0
  190.9440  176.8090  145.1150 C   0  0  0  0  0  3  0  0  0  0  0  0
  189.0040  176.5390  143.6910 C   0  0  0  0  0  3  0  0  0  0  0  0
  190.2270  177.6930  145.9250 C   0  0  0  0  0  3  0  0  0  0  0  0
  191.0330  175.3850  143.2060 F   0  0  0  0  0  0  0  0  0  0  0  0
  188.2700  177.4070  144.5110 C   0  0  0  0  0  0  0  0  0  0  0  0
  190.3340  176.2340  143.9970 C   0  0  0  0  0  0  0  0  0  0  0  0
  188.1740  178.5240  139.3620 C   0  0  0  0  0  2  0  0  0  0  0  0
  190.0810  177.2950  138.3880 C   0  0  1  0  0  3  0  0  0  0  0  0
  190.5490  175.9510  140.3680 O   0  0  0  0  0  1  0  0  0  0  0  0
  188.8430  177.1670  139.2510 C   0  0  1  0  0  3  0  0  0  0  0  0
  190.2040  177.2260  139.9130 C   0  0  2  0  0  3  0  0  0  0  0  0
  190.3630  175.9710  137.6660 C   0  0  2  0  0  3  0  0  0  0  0  0
  191.6000  176.0880  136.8650 N   0  0  0  0  0  0  0  0  0  0  0  0
  192.5750  176.0720  134.5970 C   0  0  0  0  0  2  0  0  0  0  0  0
  192.7770  175.4520  137.5110 C   0  0  1  0  0  0  0  0  0  0  0  0
  193.9910  175.4070  136.5660 C   0  0  0  0  0  2  0  0  0  0  0  0
  191.4180  175.6050  135.4890 C   0  0  0  0  0  2  0  0  0  0  0  0
  193.1800  176.2540  138.7370 C   0  0  0  0  0  1  0  0  0  0  0  0
  193.8420  176.3780  135.3980 C   0  0  0  0  0  2  0  0  0  0  0  0
  192.4890  174.1430  137.9050 O   0  0  0  0  0  1  0  0  0  0  0  0
  188.8100  174.0840  137.0940 C   0  0  0  0  0  1  0  0  0  0  0  0
  189.1460  175.5410  136.8380 C   0  0  0  0  0  2  0  0  0  0  0  0
  2 11  1  0  0  0  0
  4  9  2  0  0  0  0
  4 11  1  0  0  0  0
  5  8  1  0  0  0  0
  5  6  2  0  0  0  0
  7 18  1  0  0  0  0
  7  1  1  0  0  0  0
  8  7  2  0  0  0  0
  9 10  1  0  0  0  0
 10  3  2  0  0  0  0
 10  8  1  0  0  0  0
 11  5  1  0  0  0  0
 12  4  1  0  0  0  0
 13 16  1  0  0  0  0
 14 16  2  0  0  0  0
 15 19  2  0  0  0  0
 15 18  1  0  0  0  0
 17 19  1  0  0  0  0
 18 13  2  0  0  0  0
 19 14  1  0  0  0  0
 20  9  1  0  0  0  0
 21 25  1  6  0  0  0
 21 23  1  0  0  0  0
 21 24  1  0  0  0  0
 23 20  1  1  0  0  0
 23 24  1  0  0  0  0
 24 22  1  6  0  0  0
 25 35  1  6  0  0  0
 26 28  1  0  0  0  0
 26 25  1  0  0  0  0
 27 32  1  0  0  0  0
 27 30  1  0  0  0  0
 28 33  1  0  0  0  0
 28 31  1  1  0  0  0
 29 28  1  0  0  0  0
 30 26  1  0  0  0  0
 32 29  1  0  0  0  0
 35 34  1  0  0  0  0
M  END
>  <MODEL>
2

>  <REMARK>
 VINA RESULT:      -8.3      2.759      5.422
  Name = 
  6 active torsions:
  status: ('A' for Active; 'I' for Inactive)
    1  A    between atoms: C_3  and  C_24
    2  A    between atoms: C_3  and  C_29
    3  A    between atoms: N_5  and  C_31
    4  A    between atoms: C_7  and  C_31
    5  A    between atoms: C_19  and  C_26
    6  A    between atoms: C_30  and  C_31
                            x       y       z     vdW  Elec       q    Type
                         _______ _______ _______ _____ _____    ______ ____

>  <TORSDO>
F 6

$$$$
=
 OpenBabel11062415353D

 35 38  0  0  1  0  0  0  0  0999 V2000
  186.5330  178.0400  144.9070 N   0  0  0  0  0  1  0  0  0  0  0  0
  182.2340  178.7980  142.0380 C   0  0  0  0  0  1  0  0  0  0  0  0
  187.6100  178.6920  140.8020 O   0  0  0  0  0  0  0  0  0  0  0  0
  184.0790  178.4320  140.3740 C   0  0  0  0  0  0  0  0  0  0  0  0
  184.5860  178.5480  142.8330 C   0  0  0  0  0  0  0  0  0  0  0  0
  184.1700  178.7060  144.0140 O   0  0  0  0  0  0  0  0  0  0  0  0
  186.9180  177.9890  143.5340 C   0  0  0  0  0  0  0  0  0  0  0  0
  186.0270  178.3070  142.5520 C   0  0  0  0  0  0  0  0  0  0  0  0
  185.3900  178.3730  140.0660 C   0  0  0  0  0  0  0  0  0  0  0  0
  186.4170  178.4450  141.1250 C   0  0  0  0  0  0  0  0  0  0  0  0
  183.6500  178.6010  141.7420 N   0  0  0  0  0  0  0  0  0  0  0  0
  183.0490  178.3520  139.2840 C   0  0  0  0  0  1  0  0  0  0  0  0
  188.5440  176.1550  143.0070 C   0  0  0  0  0  3  0  0  0  0  0  0
  190.9160  176.6090  142.8580 C   0  0  0  0  0  3  0  0  0  0  0  0
  189.3670  178.4080  143.3360 C   0  0  0  0  0  3  0  0  0  0  0  0
  189.8510  175.7060  142.7990 C   0  0  0  0  0  3  0  0  0  0  0  0
  191.7090  178.8310  143.1940 F   0  0  0  0  0  0  0  0  0  0  0  0
  188.2910  177.5130  143.2570 C   0  0  0  0  0  0  0  0  0  0  0  0
  190.6750  177.9580  143.1280 C   0  0  0  0  0  0  0  0  0  0  0  0
  185.8440  178.2140  138.6430 C   0  0  0  0  0  2  0  0  0  0  0  0
  187.8110  177.5300  137.3150 C   0  0  1  0  0  3  0  0  0  0  0  0
  189.0600  179.6000  137.6360 O   0  0  0  0  0  1  0  0  0  0  0  0
  187.3590  178.2360  138.5770 C   0  0  1  0  0  3  0  0  0  0  0  0
  187.7960  179.0610  137.3840 C   0  0  2  0  0  3  0  0  0  0  0  0
  189.1920  176.8980  137.5260 C   0  0  2  0  0  3  0  0  0  0  0  0
  189.3540  175.7320  136.6320 N   0  0  0  0  0  0  0  0  0  0  0  0
  189.3020  173.2700  136.4540 C   0  0  0  0  0  2  0  0  0  0  0  0
  190.4420  175.9060  135.6360 C   0  0  1  0  0  0  0  0  0  0  0  0
  190.7220  174.6040  134.8640 C   0  0  0  0  0  2  0  0  0  0  0  0
  189.5060  174.4750  137.3790 C   0  0  0  0  0  2  0  0  0  0  0  0
  190.0400  176.9630  134.6210 C   0  0  0  0  0  1  0  0  0  0  0  0
  189.5710  173.6090  134.9870 C   0  0  0  0  0  2  0  0  0  0  0  0
  191.6300  176.3050  136.2540 O   0  0  0  0  0  1  0  0  0  0  0  0
  190.7160  177.1350  139.5070 C   0  0  0  0  0  1  0  0  0  0  0  0
  189.4050  176.5570  139.0070 C   0  0  0  0  0  2  0  0  0  0  0  0
  3 10  2  0  0  0  0
  4 11  1  0  0  0  0
  5  6  2  0  0  0  0
  7  1  1  0  0  0  0
  8  5  1  0  0  0  0
  8  7  2  0  0  0  0
  9  4  2  0  0  0  0
  9 10  1  0  0  0  0
 10  8  1  0  0  0  0
 11  2  1  0  0  0  0
 11  5  1  0  0  0  0
 12  4  1  0  0  0  0
 13 18  1  0  0  0  0
 14 19  2  0  0  0  0
 16 14  1  0  0  0  0
 16 13  2  0  0  0  0
 18 15  2  0  0  0  0
 18  7  1  0  0  0  0
 19 17  1  0  0  0  0
 19 15  1  0  0  0  0
 20  9  1  0  0  0  0
 21 24  1  0  0  0  0
 21 25  1  1  0  0  0
 21 23  1  0  0  0  0
 23 20  1  6  0  0  0
 24 22  1  1  0  0  0
 24 23  1  0  0  0  0
 25 35  1  1  0  0  0
 26 30  1  0  0  0  0
 26 25  1  0  0  0  0
 27 30  1  0  0  0  0
 28 31  1  6  0  0  0
 28 33  1  0  0  0  0
 28 26  1  0  0  0  0
 29 32  1  0  0  0  0
 29 28  1  0  0  0  0
 32 27  1  0  0  0  0
 35 34  1  0  0  0  0
M  END
>  <MODEL>
3

>  <REMARK>
 VINA RESULT:      -8.1      2.515      5.302
  Name = 
  6 active torsions:
  status: ('A' for Active; 'I' for Inactive)
    1  A    between atoms: C_3  and  C_24
    2  A    between atoms: C_3  and  C_29
    3  A    between atoms: N_5  and  C_31
    4  A    between atoms: C_7  and  C_31
    5  A    between atoms: C_19  and  C_26
    6  A    between atoms: C_30  and  C_31
                            x       y       z     vdW  Elec       q    Type
                         _______ _______ _______ _____ _____    ______ ____

>  <TORSDO>
F 6

$$$$
=
 OpenBabel11062415353D

 35 38  0  0  1  0  0  0  0  0999 V2000
  186.7830  177.2800  145.3130 N   0  0  0  0  0  1  0  0  0  0  0  0
  183.4300  178.7600  141.5910 C   0  0  0  0  0  1  0  0  0  0  0  0
  188.9390  178.6270  141.8530 O   0  0  0  0  0  0  0  0  0  0  0  0
  185.6600  178.6200  140.4480 C   0  0  0  0  0  0  0  0  0  0  0  0
  185.4750  178.2560  142.9270 C   0  0  0  0  0  0  0  0  0  0  0  0
  184.7510  178.2120  143.9610 O   0  0  0  0  0  0  0  0  0  0  0  0
  187.5290  177.4650  144.1100 C   0  0  0  0  0  0  0  0  0  0  0  0
  186.9390  178.0020  143.0050 C   0  0  0  0  0  0  0  0  0  0  0  0
  187.0060  178.5570  140.4990 C   0  0  0  0  0  0  0  0  0  0  0  0
  187.7040  178.3820  141.7890 C   0  0  0  0  0  0  0  0  0  0  0  0
  184.8730  178.5530  141.6560 N   0  0  0  0  0  0  0  0  0  0  0  0
  184.9680  178.7920  139.1260 C   0  0  0  0  0  1  0  0  0  0  0  0
  189.3720  176.0320  143.1960 C   0  0  0  0  0  3  0  0  0  0  0  0
  191.5470  175.9880  144.2550 C   0  0  0  0  0  3  0  0  0  0  0  0
  189.7970  177.4080  145.1420 C   0  0  0  0  0  3  0  0  0  0  0  0
  190.6800  175.5430  143.2550 C   0  0  0  0  0  3  0  0  0  0  0  0
  191.9440  177.3430  146.1760 F   0  0  0  0  0  0  0  0  0  0  0  0
  188.9270  176.9840  144.1280 C   0  0  0  0  0  0  0  0  0  0  0  0
  191.1060  176.9190  145.2000 C   0  0  0  0  0  0  0  0  0  0  0  0
  187.8330  178.6420  139.2470 C   0  0  0  0  0  2  0  0  0  0  0  0
  188.9140  177.3420  137.4460 C   0  0  1  0  0  3  0  0  0  0  0  0
  190.1620  175.8590  138.9250 O   0  0  0  0  0  1  0  0  0  0  0  0
  188.2430  177.2510  138.8020 C   0  0  1  0  0  3  0  0  0  0  0  0
  189.7530  177.1780  138.7170 C   0  0  2  0  0  3  0  0  0  0  0  0
  188.6940  176.0460  136.6570 C   0  0  2  0  0  3  0  0  0  0  0  0
  189.9690  175.6010  136.0540 N   0  0  0  0  0  0  0  0  0  0  0  0
  191.8630  176.2170  134.5950 C   0  0  0  0  0  2  0  0  0  0  0  0
  189.9560  174.1730  135.6470 C   0  0  1  0  0  0  0  0  0  0  0  0
  191.2110  173.8000  134.8380 C   0  0  0  0  0  2  0  0  0  0  0  0
  190.3930  176.4710  134.9480 C   0  0  0  0  0  2  0  0  0  0  0  0
  189.9270  173.2910  136.8840 C   0  0  0  0  0  1  0  0  0  0  0  0
  192.3300  174.8220  135.0170 C   0  0  0  0  0  2  0  0  0  0  0  0
  188.8360  173.8840  134.8620 O   0  0  0  0  0  1  0  0  0  0  0  0
  186.2210  175.9140  136.2470 C   0  0  0  0  0  1  0  0  0  0  0  0
  187.5710  176.2280  135.6290 C   0  0  0  0  0  2  0  0  0  0  0  0
  2 11  1  0  0  0  0
  4  9  2  0  0  0  0
  4 11  1  0  0  0  0
  5  8  1  0  0  0  0
  5  6  2  0  0  0  0
  7 18  1  0  0  0  0
  7  1  1  0  0  0  0
  8  7  2  0  0  0  0
  9 10  1  0  0  0  0
 10  3  2  0  0  0  0
 10  8  1  0  0  0  0
 11  5  1  0  0  0  0
 12  4  1  0  0  0  0
 13 16  2  0  0  0  0
 13 18  1  0  0  0  0
 14 19  2  0  0  0  0
 15 19  1  0  0  0  0
 16 14  1  0  0  0  0
 18 15  2  0  0  0  0
 19 17  1  0  0  0  0
 20  9  1  0  0  0  0
 21 25  1  6  0  0  0
 21 24  1  0  0  0  0
 21 23  1  0  0  0  0
 23 20  1  1  0  0  0
 24 23  1  0  0  0  0
 24 22  1  6  0  0  0
 25 35  1  6  0  0  0
 26 25  1  0  0  0  0
 27 30  1  0  0  0  0
 27 32  1  0  0  0  0
 28 26  1  0  0  0  0
 28 31  1  1  0  0  0
 29 32  1  0  0  0  0
 29 28  1  0  0  0  0
 30 26  1  0  0  0  0
 33 28  1  0  0  0  0
 35 34  1  0  0  0  0
M  END
>  <MODEL>
4

>  <REMARK>
 VINA RESULT:      -8.0      2.751      5.612
  Name = 
  6 active torsions:
  status: ('A' for Active; 'I' for Inactive)
    1  A    between atoms: C_3  and  C_24
    2  A    between atoms: C_3  and  C_29
    3  A    between atoms: N_5  and  C_31
    4  A    between atoms: C_7  and  C_31
    5  A    between atoms: C_19  and  C_26
    6  A    between atoms: C_30  and  C_31
                            x       y       z     vdW  Elec       q    Type
                         _______ _______ _______ _____ _____    ______ ____

>  <TORSDO>
F 6

$$$$
=
 OpenBabel11062415353D

 35 38  0  0  1  0  0  0  0  0999 V2000
  191.6380  177.5330  139.8050 N   0  0  0  0  0  1  0  0  0  0  0  0
  191.3210  177.2160  145.0100 C   0  0  0  0  0  1  0  0  0  0  0  0
  187.6110  178.3120  141.0760 O   0  0  0  0  0  0  0  0  0  0  0  0
  188.9430  177.2410  144.2080 C   0  0  0  0  0  0  0  0  0  0  0  0
  190.8380  177.5310  142.5830 C   0  0  0  0  0  0  0  0  0  0  0  0
  192.0810  177.6190  142.3790 O   0  0  0  0  0  0  0  0  0  0  0  0
  190.2530  177.5370  140.1530 C   0  0  0  0  0  0  0  0  0  0  0  0
  189.8680  177.6190  141.4590 C   0  0  0  0  0  0  0  0  0  0  0  0
  188.0290  177.4760  143.2450 C   0  0  0  0  0  0  0  0  0  0  0  0
  188.4520  177.8070  141.8680 C   0  0  0  0  0  0  0  0  0  0  0  0
  190.3550  177.3410  143.9240 N   0  0  0  0  0  0  0  0  0  0  0  0
  188.4940  176.9000  145.6000 C   0  0  0  0  0  1  0  0  0  0  0  0
  188.9110  176.1060  138.5930 C   0  0  0  0  0  3  0  0  0  0  0  0
  187.5820  177.1020  136.8330 C   0  0  0  0  0  3  0  0  0  0  0  0
  188.8420  178.5130  138.3460 C   0  0  0  0  0  3  0  0  0  0  0  0
  188.0500  175.9680  137.5010 C   0  0  0  0  0  3  0  0  0  0  0  0
  187.5340  179.4740  136.6000 F   0  0  0  0  0  0  0  0  0  0  0  0
  189.2980  177.3810  139.0360 C   0  0  0  0  0  0  0  0  0  0  0  0
  187.9800  178.3740  137.2540 C   0  0  0  0  0  0  0  0  0  0  0  0
  186.5580  177.3900  143.5370 C   0  0  0  0  0  2  0  0  0  0  0  0
  184.3670  177.9380  142.5370 C   0  0  1  0  0  3  0  0  0  0  0  0
  184.4570  180.3240  143.0330 O   0  0  0  0  0  1  0  0  0  0  0  0
  185.8020  178.3980  142.6910 C   0  0  1  0  0  3  0  0  0  0  0  0
  184.7230  179.0470  143.5320 C   0  0  2  0  0  3  0  0  0  0  0  0
  183.7890  178.4380  141.2070 C   0  0  2  0  0  3  0  0  0  0  0  0
  182.5070  177.7580  140.9270 N   0  0  0  0  0  0  0  0  0  0  0  0
  181.3830  175.9540  139.6720 C   0  0  0  0  0  2  0  0  0  0  0  0
  181.3520  178.6900  140.8680 C   0  0  1  0  0  0  0  0  0  0  0  0
  180.0760  177.9860  140.3710 C   0  0  0  0  0  2  0  0  0  0  0  0
  182.5770  176.9140  139.7270 C   0  0  0  0  0  2  0  0  0  0  0  0
  181.0640  179.2340  142.2580 C   0  0  0  0  0  1  0  0  0  0  0  0
  180.1860  176.4680  140.4750 C   0  0  0  0  0  2  0  0  0  0  0  0
  181.6140  179.7620  140.0110 O   0  0  0  0  0  1  0  0  0  0  0  0
  184.7810  179.4680  139.1430 C   0  0  0  0  0  1  0  0  0  0  0  0
  184.8180  178.2760  140.0810 C   0  0  0  0  0  2  0  0  0  0  0  0
  1  7  1  0  0  0  0
  3 10  2  0  0  0  0
  4 12  1  0  0  0  0
  5 11  1  0  0  0  0
  6  5  2  0  0  0  0
  7  8  2  0  0  0  0
  8 10  1  0  0  0  0
  8  5  1  0  0  0  0
  9 20  1  0  0  0  0
  9  4  2  0  0  0  0
 10  9  1  0  0  0  0
 11  4  1  0  0  0  0
 11  2  1  0  0  0  0
 13 18  1  0  0  0  0
 14 19  2  0  0  0  0
 14 16  1  0  0  0  0
 15 18  2  0  0  0  0
 16 13  2  0  0  0  0
 17 19  1  0  0  0  0
 18  7  1  0  0  0  0
 19 15  1  0  0  0  0
 21 25  1  6  0  0  0
 21 23  1  0  0  0  0
 21 24  1  0  0  0  0
 23 24  1  0  0  0  0
 23 20  1  1  0  0  0
 24 22  1  6  0  0  0
 25 35  1  6  0  0  0
 26 25  1  0  0  0  0
 27 30  1  0  0  0  0
 27 32  1  0  0  0  0
 28 26  1  0  0  0  0
 28 31  1  1  0  0  0
 29 32  1  0  0  0  0
 29 28  1  0  0  0  0
 30 26  1  0  0  0  0
 33 28  1  0  0  0  0
 34 35  1  0  0  0  0
M  END
>  <MODEL>
5

>  <REMARK>
 VINA RESULT:      -7.9      3.003      6.443
  Name = 
  6 active torsions:
  status: ('A' for Active; 'I' for Inactive)
    1  A    between atoms: C_3  and  C_24
    2  A    between atoms: C_3  and  C_29
    3  A    between atoms: N_5  and  C_31
    4  A    between atoms: C_7  and  C_31
    5  A    between atoms: C_19  and  C_26
    6  A    between atoms: C_30  and  C_31
                            x       y       z     vdW  Elec       q    Type
                         _______ _______ _______ _____ _____    ______ ____

>  <TORSDO>
F 6

$$$$
=
 OpenBabel11062415353D

 35 38  0  0  1  0  0  0  0  0999 V2000
  190.5240  176.1960  142.8460 N   0  0  0  0  0  1  0  0  0  0  0  0
  186.2490  177.5020  145.5490 C   0  0  0  0  0  1  0  0  0  0  0  0
  188.1730  179.0000  140.6000 O   0  0  0  0  0  0  0  0  0  0  0  0
  185.8440  178.3590  143.2240 C   0  0  0  0  0  0  0  0  0  0  0  0
  188.0480  177.3160  143.8310 C   0  0  0  0  0  0  0  0  0  0  0  0
  188.7850  176.7820  144.7060 O   0  0  0  0  0  0  0  0  0  0  0  0
  189.6590  176.9110  141.9640 C   0  0  0  0  0  0  0  0  0  0  0  0
  188.5310  177.5120  142.4370 C   0  0  0  0  0  0  0  0  0  0  0  0
  186.2970  178.7000  142.0010 C   0  0  0  0  0  0  0  0  0  0  0  0
  187.6920  178.4150  141.6070 C   0  0  0  0  0  0  0  0  0  0  0  0
  186.7210  177.7380  144.1890 N   0  0  0  0  0  0  0  0  0  0  0  0
  184.4210  178.6520  143.6050 C   0  0  0  0  0  1  0  0  0  0  0  0
  189.0630  176.6360  139.5450 C   0  0  0  0  0  3  0  0  0  0  0  0
  190.7670  176.7430  137.8300 C   0  0  0  0  0  3  0  0  0  0  0  0
  191.3690  177.0460  140.1560 C   0  0  0  0  0  3  0  0  0  0  0  0
  189.4310  176.5690  138.1980 C   0  0  0  0  0  3  0  0  0  0  0  0
  193.0340  177.1380  138.4520 F   0  0  0  0  0  0  0  0  0  0  0  0
  190.0270  176.8940  140.5320 C   0  0  0  0  0  0  0  0  0  0  0  0
  191.7360  176.9790  138.8080 C   0  0  0  0  0  0  0  0  0  0  0  0
  185.3940  179.3620  140.9990 C   0  0  0  0  0  2  0  0  0  0  0  0
  183.9840  179.0230  138.9990 C   0  0  1  0  0  3  0  0  0  0  0  0
  185.4830  177.4410  137.9030 O   0  0  0  0  0  1  0  0  0  0  0  0
  184.8680  178.3310  140.0170 C   0  0  1  0  0  3  0  0  0  0  0  0
  185.4200  178.6280  138.6380 C   0  0  2  0  0  3  0  0  0  0  0  0
  182.9100  178.0560  138.4850 C   0  0  2  0  0  3  0  0  0  0  0  0
  182.1200  178.7020  137.4160 N   0  0  0  0  0  0  0  0  0  0  0  0
  180.3020  180.2880  136.8940 C   0  0  0  0  0  2  0  0  0  0  0  0
  181.8270  177.7960  136.2770 C   0  0  1  0  0  0  0  0  0  0  0  0
  180.8330  178.4300  135.2860 C   0  0  0  0  0  2  0  0  0  0  0  0
  180.8950  179.3290  137.9320 C   0  0  0  0  0  2  0  0  0  0  0  0
  183.1090  177.5020  135.5160 C   0  0  0  0  0  1  0  0  0  0  0  0
  180.7320  179.9410  135.4670 C   0  0  0  0  0  2  0  0  0  0  0  0
  181.2810  176.5890  136.7220 O   0  0  0  0  0  1  0  0  0  0  0  0
  182.1910  176.0410  139.7990 C   0  0  0  0  0  1  0  0  0  0  0  0
  182.0490  177.5440  139.6470 C   0  0  0  0  0  2  0  0  0  0  0  0
  3 10  2  0  0  0  0
  4 12  1  0  0  0  0
  4 11  1  0  0  0  0
  5 11  1  0  0  0  0
  5  6  2  0  0  0  0
  7  8  2  0  0  0  0
  7  1  1  0  0  0  0
  8  5  1  0  0  0  0
  9  4  2  0  0  0  0
 10  9  1  0  0  0  0
 10  8  1  0  0  0  0
 11  2  1  0  0  0  0
 13 18  1  0  0  0  0
 14 16  1  0  0  0  0
 14 19  2  0  0  0  0
 15 18  2  0  0  0  0
 16 13  2  0  0  0  0
 17 19  1  0  0  0  0
 18  7  1  0  0  0  0
 19 15  1  0  0  0  0
 20  9  1  0  0  0  0
 21 25  1  6  0  0  0
 21 23  1  0  0  0  0
 23 20  1  1  0  0  0
 24 22  1  6  0  0  0
 24 21  1  0  0  0  0
 24 23  1  0  0  0  0
 25 35  1  1  0  0  0
 26 30  1  0  0  0  0
 26 25  1  0  0  0  0
 27 30  1  0  0  0  0
 28 31  1  6  0  0  0
 28 33  1  0  0  0  0
 28 26  1  0  0  0  0
 29 32  1  0  0  0  0
 29 28  1  0  0  0  0
 32 27  1  0  0  0  0
 35 34  1  0  0  0  0
M  END
>  <MODEL>
6

>  <REMARK>
 VINA RESULT:      -7.8      4.090      6.888
  Name = 
  6 active torsions:
  status: ('A' for Active; 'I' for Inactive)
    1  A    between atoms: C_3  and  C_24
    2  A    between atoms: C_3  and  C_29
    3  A    between atoms: N_5  and  C_31
    4  A    between atoms: C_7  and  C_31
    5  A    between atoms: C_19  and  C_26
    6  A    between atoms: C_30  and  C_31
                            x       y       z     vdW  Elec       q    Type
                         _______ _______ _______ _____ _____    ______ ____

>  <TORSDO>
F 6

$$$$
=
 OpenBabel11062415353D

 35 38  0  0  1  0  0  0  0  0999 V2000
  184.5320  176.5140  135.7440 N   0  0  0  0  0  1  0  0  0  0  0  0
  189.6930  176.4730  136.5490 C   0  0  0  0  0  1  0  0  0  0  0  0
  185.5140  179.0440  139.0710 O   0  0  0  0  0  0  0  0  0  0  0  0
  188.7180  177.5490  138.5970 C   0  0  0  0  0  0  0  0  0  0  0  0
  187.2420  176.9240  136.6600 C   0  0  0  0  0  0  0  0  0  0  0  0
  187.1320  176.4410  135.4990 O   0  0  0  0  0  0  0  0  0  0  0  0
  184.7770  177.1470  137.0000 C   0  0  0  0  0  0  0  0  0  0  0  0
  186.0510  177.4180  137.4020 C   0  0  0  0  0  0  0  0  0  0  0  0
  187.6940  178.1510  139.2340 C   0  0  0  0  0  0  0  0  0  0  0  0
  186.3580  178.2300  138.6080 C   0  0  0  0  0  0  0  0  0  0  0  0
  188.5410  176.9970  137.2740 N   0  0  0  0  0  0  0  0  0  0  0  0
  190.0670  177.4730  139.2510 C   0  0  0  0  0  1  0  0  0  0  0  0
  183.2420  176.5530  138.8910 C   0  0  0  0  0  3  0  0  0  0  0  0
  181.2630  177.8720  139.3390 C   0  0  0  0  0  3  0  0  0  0  0  0
  182.7440  178.4890  137.5260 C   0  0  0  0  0  3  0  0  0  0  0  0
  182.0880  176.7860  139.6440 C   0  0  0  0  0  3  0  0  0  0  0  0
  180.7840  179.7690  137.9780 F   0  0  0  0  0  0  0  0  0  0  0  0
  183.5890  177.4150  137.8390 C   0  0  0  0  0  0  0  0  0  0  0  0
  181.5890  178.7220  138.2800 C   0  0  0  0  0  0  0  0  0  0  0  0
  187.8750  178.7410  140.6040 C   0  0  0  0  0  2  0  0  0  0  0  0
  187.4580  178.4190  143.0170 C   0  0  1  0  0  3  0  0  0  0  0  0
  185.0670  177.9900  142.8020 O   0  0  0  0  0  1  0  0  0  0  0  0
  187.1300  177.9070  141.6290 C   0  0  1  0  0  3  0  0  0  0  0  0
  186.1270  178.7820  142.3520 C   0  0  2  0  0  3  0  0  0  0  0  0
  187.3690  177.2780  144.0380 C   0  0  2  0  0  3  0  0  0  0  0  0
  187.7790  177.7640  145.3730 N   0  0  0  0  0  0  0  0  0  0  0  0
  189.4700  177.6270  147.1670 C   0  0  0  0  0  2  0  0  0  0  0  0
  186.6340  177.9720  146.2960 C   0  0  1  0  0  0  0  0  0  0  0  0
  187.1060  178.2740  147.7300 C   0  0  0  0  0  2  0  0  0  0  0  0
  188.8110  176.9120  145.9810 C   0  0  0  0  0  2  0  0  0  0  0  0
  185.8090  179.1590  145.8250 C   0  0  0  0  0  1  0  0  0  0  0  0
  188.5690  178.7060  147.7710 C   0  0  0  0  0  2  0  0  0  0  0  0
  185.8120  176.8430  146.3410 O   0  0  0  0  0  1  0  0  0  0  0  0
  189.5150  176.5060  142.9880 C   0  0  0  0  0  1  0  0  0  0  0  0
  188.1800  176.0670  143.5610 C   0  0  0  0  0  2  0  0  0  0  0  0
  1  7  1  0  0  0  0
  2 11  1  0  0  0  0
  4  9  2  0  0  0  0
  4 12  1  0  0  0  0
  5 11  1  0  0  0  0
  5  8  1  0  0  0  0
  6  5  2  0  0  0  0
  7  8  2  0  0  0  0
  7 18  1  0  0  0  0
  8 10  1  0  0  0  0
  9 20  1  0  0  0  0
 10  3  2  0  0  0  0
 10  9  1  0  0  0  0
 11  4  1  0  0  0  0
 13 16  1  0  0  0  0
 14 16  2  0  0  0  0
 15 18  1  0  0  0  0
 15 19  2  0  0  0  0
 17 19  1  0  0  0  0
 18 13  2  0  0  0  0
 19 14  1  0  0  0  0
 21 25  1  1  0  0  0
 23 20  1  6  0  0  0
 23 24  1  0  0  0  0
 23 21  1  0  0  0  0
 24 22  1  1  0  0  0
 24 21  1  0  0  0  0
 25 35  1  6  0  0  0
 25 26  1  0  0  0  0
 26 30  1  0  0  0  0
 26 28  1  0  0  0  0
 27 32  1  0  0  0  0
 28 31  1  6  0  0  0
 28 33  1  0  0  0  0
 28 29  1  0  0  0  0
 29 32  1  0  0  0  0
 30 27  1  0  0  0  0
 34 35  1  0  0  0  0
M  END
>  <MODEL>
7

>  <REMARK>
 VINA RESULT:      -7.8      2.693      7.715
  Name = 
  6 active torsions:
  status: ('A' for Active; 'I' for Inactive)
    1  A    between atoms: C_3  and  C_24
    2  A    between atoms: C_3  and  C_29
    3  A    between atoms: N_5  and  C_31
    4  A    between atoms: C_7  and  C_31
    5  A    between atoms: C_19  and  C_26
    6  A    between atoms: C_30  and  C_31
                            x       y       z     vdW  Elec       q    Type
                         _______ _______ _______ _____ _____    ______ ____

>  <TORSDO>
F 6

$$$$
=
 OpenBabel11062415353D

 35 38  0  0  1  0  0  0  0  0999 V2000
  182.7410  177.5800  136.6840 N   0  0  0  0  0  1  0  0  0  0  0  0
  187.8610  176.5440  136.6690 C   0  0  0  0  0  1  0  0  0  0  0  0
  184.6750  179.7190  139.8650 O   0  0  0  0  0  0  0  0  0  0  0  0
  187.4270  177.6810  138.8650 C   0  0  0  0  0  0  0  0  0  0  0  0
  185.5860  177.4360  137.1720 C   0  0  0  0  0  0  0  0  0  0  0  0
  185.2120  177.0380  136.0330 O   0  0  0  0  0  0  0  0  0  0  0  0
  183.2870  178.0940  137.8980 C   0  0  0  0  0  0  0  0  0  0  0  0
  184.6350  178.1050  138.1010 C   0  0  0  0  0  0  0  0  0  0  0  0
  186.6440  178.4310  139.6660 C   0  0  0  0  0  0  0  0  0  0  0  0
  185.2690  178.7870  139.2590 C   0  0  0  0  0  0  0  0  0  0  0  0
  186.9520  177.2380  137.5760 N   0  0  0  0  0  0  0  0  0  0  0  0
  188.8200  177.3250  139.2980 C   0  0  0  0  0  1  0  0  0  0  0  0
  181.8970  177.6690  139.9400 C   0  0  0  0  0  3  0  0  0  0  0  0
  180.3680  179.3520  140.7700 C   0  0  0  0  0  3  0  0  0  0  0  0
  181.7230  179.8040  138.8140 C   0  0  0  0  0  3  0  0  0  0  0  0
  180.9350  178.0780  140.8680 C   0  0  0  0  0  3  0  0  0  0  0  0
  180.2040  181.4450  139.6420 F   0  0  0  0  0  0  0  0  0  0  0  0
  182.3120  178.5370  138.9180 C   0  0  0  0  0  0  0  0  0  0  0  0
  180.7600  180.2140  139.7420 C   0  0  0  0  0  0  0  0  0  0  0  0
  187.1380  178.9100  141.0020 C   0  0  0  0  0  2  0  0  0  0  0  0
  187.1400  178.4890  143.4360 C   0  0  1  0  0  3  0  0  0  0  0  0
  184.7410  178.0960  143.6230 O   0  0  0  0  0  1  0  0  0  0  0  0
  186.5680  178.0410  142.1070 C   0  0  1  0  0  3  0  0  0  0  0  0
  185.7200  178.8940  143.0280 C   0  0  2  0  0  3  0  0  0  0  0  0
  187.2090  177.3070  144.4100 C   0  0  2  0  0  3  0  0  0  0  0  0
  187.8140  177.7410  145.6870 N   0  0  0  0  0  0  0  0  0  0  0  0
  189.7160  177.4820  147.2400 C   0  0  0  0  0  2  0  0  0  0  0  0
  186.8120  177.9830  146.7570 C   0  0  1  0  0  0  0  0  0  0  0  0
  187.4820  178.2270  148.1210 C   0  0  0  0  0  2  0  0  0  0  0  0
  188.8720  176.8270  146.1400 C   0  0  0  0  0  2  0  0  0  0  0  0
  185.9930  179.2170  146.4190 C   0  0  0  0  0  1  0  0  0  0  0  0
  188.9570  178.5880  147.9750 C   0  0  0  0  0  2  0  0  0  0  0  0
  185.9470  176.8930  146.8910 O   0  0  0  0  0  1  0  0  0  0  0  0
  189.2110  176.5890  143.0770 C   0  0  0  0  0  1  0  0  0  0  0  0
  187.9420  176.1230  143.7660 C   0  0  0  0  0  2  0  0  0  0  0  0
  1  7  1  0  0  0  0
  2 11  1  0  0  0  0
  4 12  1  0  0  0  0
  4  9  2  0  0  0  0
  5 11  1  0  0  0  0
  5  8  1  0  0  0  0
  6  5  2  0  0  0  0
  7  8  2  0  0  0  0
  7 18  1  0  0  0  0
  8 10  1  0  0  0  0
  9 20  1  0  0  0  0
 10  9  1  0  0  0  0
 10  3  2  0  0  0  0
 11  4  1  0  0  0  0
 13 16  1  0  0  0  0
 14 16  2  0  0  0  0
 15 18  1  0  0  0  0
 15 19  2  0  0  0  0
 17 19  1  0  0  0  0
 18 13  2  0  0  0  0
 19 14  1  0  0  0  0
 21 25  1  1  0  0  0
 23 20  1  6  0  0  0
 23 24  1  0  0  0  0
 23 21  1  0  0  0  0
 24 21  1  0  0  0  0
 24 22  1  1  0  0  0
 25 35  1  6  0  0  0
 25 26  1  0  0  0  0
 26 30  1  0  0  0  0
 26 28  1  0  0  0  0
 27 32  1  0  0  0  0
 28 31  1  6  0  0  0
 28 33  1  0  0  0  0
 28 29  1  0  0  0  0
 30 27  1  0  0  0  0
 32 29  1  0  0  0  0
 34 35  1  0  0  0  0
M  END
>  <MODEL>
8

>  <REMARK>
 VINA RESULT:      -7.8      2.844      7.674
  Name = 
  6 active torsions:
  status: ('A' for Active; 'I' for Inactive)
    1  A    between atoms: C_3  and  C_24
    2  A    between atoms: C_3  and  C_29
    3  A    between atoms: N_5  and  C_31
    4  A    between atoms: C_7  and  C_31
    5  A    between atoms: C_19  and  C_26
    6  A    between atoms: C_30  and  C_31
                            x       y       z     vdW  Elec       q    Type
                         _______ _______ _______ _____ _____    ______ ____

>  <TORSDO>
F 6

$$$$
=
 OpenBabel11062415353D

 35 38  0  0  1  0  0  0  0  0999 V2000
  187.4160  174.8520  135.2870 N   0  0  0  0  0  1  0  0  0  0  0  0
  191.8610  175.6220  137.9220 C   0  0  0  0  0  1  0  0  0  0  0  0
  187.0010  178.2340  137.8990 O   0  0  0  0  0  0  0  0  0  0  0  0
  190.1540  177.0550  139.0780 C   0  0  0  0  0  0  0  0  0  0  0  0
  189.5540  175.7960  136.9880 C   0  0  0  0  0  0  0  0  0  0  0  0
  189.9080  175.0260  136.0520 O   0  0  0  0  0  0  0  0  0  0  0  0
  187.1470  175.8040  136.3160 C   0  0  0  0  0  0  0  0  0  0  0  0
  188.1620  176.3160  137.0690 C   0  0  0  0  0  0  0  0  0  0  0  0
  188.9560  177.6740  139.0980 C   0  0  0  0  0  0  0  0  0  0  0  0
  187.9670  177.4350  138.0260 C   0  0  0  0  0  0  0  0  0  0  0  0
  190.5110  176.1730  137.9930 N   0  0  0  0  0  0  0  0  0  0  0  0
  191.1450  177.3060  140.1790 C   0  0  0  0  0  1  0  0  0  0  0  0
  185.0830  177.1250  135.7860 C   0  0  0  0  0  3  0  0  0  0  0  0
  183.0600  176.8310  137.0810 C   0  0  0  0  0  3  0  0  0  0  0  0
  185.0280  175.5160  137.5940 C   0  0  0  0  0  3  0  0  0  0  0  0
  183.7530  177.4660  136.0480 C   0  0  0  0  0  3  0  0  0  0  0  0
  183.0270  175.2480  138.8630 F   0  0  0  0  0  0  0  0  0  0  0  0
  185.7240  176.1330  136.5460 C   0  0  0  0  0  0  0  0  0  0  0  0
  183.6970  175.8580  137.8550 C   0  0  0  0  0  0  0  0  0  0  0  0
  188.5850  178.6060  140.2160 C   0  0  0  0  0  2  0  0  0  0  0  0
  187.9490  178.3850  142.5920 C   0  0  1  0  0  3  0  0  0  0  0  0
  185.5440  178.3060  142.2000 O   0  0  0  0  0  1  0  0  0  0  0  0
  187.6530  177.9050  141.1860 C   0  0  1  0  0  3  0  0  0  0  0  0
  186.7380  178.9270  141.8270 C   0  0  2  0  0  3  0  0  0  0  0  0
  187.6190  177.2850  143.6090 C   0  0  2  0  0  3  0  0  0  0  0  0
  187.9640  177.7390  144.9720 N   0  0  0  0  0  0  0  0  0  0  0  0
  189.6050  177.6170  146.8130 C   0  0  0  0  0  2  0  0  0  0  0  0
  186.7830  177.8570  145.8660 C   0  0  1  0  0  0  0  0  0  0  0  0
  187.1960  178.1260  147.3240 C   0  0  0  0  0  2  0  0  0  0  0  0
  189.0180  176.9160  145.5820 C   0  0  0  0  0  2  0  0  0  0  0  0
  185.9140  179.0180  145.4120 C   0  0  0  0  0  1  0  0  0  0  0  0
  188.6330  178.6280  147.4260 C   0  0  0  0  0  2  0  0  0  0  0  0
  186.0180  176.6870  145.8440 O   0  0  0  0  0  1  0  0  0  0  0  0
  189.7950  176.1820  143.0170 C   0  0  0  0  0  1  0  0  0  0  0  0
  188.3060  175.9700  143.2190 C   0  0  0  0  0  2  0  0  0  0  0  0
  1  7  1  0  0  0  0
  2 11  1  0  0  0  0
  3 10  2  0  0  0  0
  4  9  2  0  0  0  0
  4 12  1  0  0  0  0
  5  8  1  0  0  0  0
  5 11  1  0  0  0  0
  6  5  2  0  0  0  0
  7 18  1  0  0  0  0
  7  8  2  0  0  0  0
  8 10  1  0  0  0  0
  9 20  1  0  0  0  0
 10  9  1  0  0  0  0
 11  4  1  0  0  0  0
 13 16  2  0  0  0  0
 13 18  1  0  0  0  0
 14 19  2  0  0  0  0
 15 19  1  0  0  0  0
 16 14  1  0  0  0  0
 18 15  2  0  0  0  0
 19 17  1  0  0  0  0
 21 25  1  1  0  0  0
 23 20  1  6  0  0  0
 23 24  1  0  0  0  0
 23 21  1  0  0  0  0
 24 22  1  1  0  0  0
 24 21  1  0  0  0  0
 25 35  1  6  0  0  0
 25 26  1  0  0  0  0
 26 30  1  0  0  0  0
 26 28  1  0  0  0  0
 27 32  1  0  0  0  0
 28 31  1  6  0  0  0
 28 29  1  0  0  0  0
 29 32  1  0  0  0  0
 30 27  1  0  0  0  0
 33 28  1  0  0  0  0
 34 35  1  0  0  0  0
M  END
>  <MODEL>
9

>  <REMARK>
 VINA RESULT:      -7.7      2.422      7.841
  Name = 
  6 active torsions:
  status: ('A' for Active; 'I' for Inactive)
    1  A    between atoms: C_3  and  C_24
    2  A    between atoms: C_3  and  C_29
    3  A    between atoms: N_5  and  C_31
    4  A    between atoms: C_7  and  C_31
    5  A    between atoms: C_19  and  C_26
    6  A    between atoms: C_30  and  C_31
                            x       y       z     vdW  Elec       q    Type
                         _______ _______ _______ _____ _____    ______ ____

>  <TORSDO>
F 6

$$$$
