=
 OpenBabel11062415293D

 37 42  0  0  1  0  0  0  0  0999 V2000
  187.4980  177.7990  147.5720 C   0  0  0  0  0  3  0  0  0  0  0  0
  185.0020  178.7150  143.3010 C   0  0  0  0  0  0  0  0  0  0  0  0
  185.8160  178.3200  145.9670 C   0  0  0  0  0  0  0  0  0  0  0  0
  189.8520  177.2910  146.6970 C   0  0  0  0  0  3  0  0  0  0  0  0
  184.0950  178.8700  144.3600 C   0  0  0  0  0  3  0  0  0  0  0  0
  186.7420  178.1540  144.9060 C   0  0  0  0  0  0  0  0  0  0  0  0
  190.3930  177.3210  145.2610 C   0  0  0  0  0  3  0  0  0  0  0  0
  188.4230  177.6310  146.5450 C   0  0  0  0  0  0  0  0  0  0  0  0
  186.2160  178.1380  147.2580 N   0  0  0  0  0  0  0  0  0  0  0  0
  186.3280  178.3540  143.5840 C   0  0  0  0  0  3  0  0  0  0  0  0
  189.2070  177.5770  144.3180 C   0  0  2  0  0  3  0  0  0  0  0  0
  188.0550  177.7940  145.2350 C   0  0  0  0  0  0  0  0  0  0  0  0
  184.4970  178.6760  145.6840 C   0  0  0  0  0  3  0  0  0  0  0  0
  185.3750  179.2100  140.8900 N   0  0  0  0  0  2  0  0  0  0  0  0
  182.1430  179.1540  139.1660 C   0  0  0  0  0  2  0  0  0  0  0  0
  183.2690  179.0880  140.0990 N   0  0  0  0  0  0  0  0  0  0  0  0
  181.9900  178.4770  142.1770 C   0  0  0  0  0  2  0  0  0  0  0  0
  180.5400  179.3420  141.4870 S   0  0  0  0  0  0  0  0  0  0  0  0
  180.8780  178.7250  139.8390 C   0  0  0  0  0  0  0  0  0  0  0  0
  184.5640  179.3060  139.8160 C   0  0  0  0  0  0  0  0  0  0  0  0
  183.2360  178.8560  141.4270 C   0  0  0  0  0  0  0  0  0  0  0  0
  184.5370  178.9210  141.9120 C   0  0  0  0  0  0  0  0  0  0  0  0
  180.1630  177.7210  139.3400 C   0  0  0  0  0  2  0  0  0  0  0  0
  184.9890  179.5720  138.6590 O   0  0  0  0  0  0  0  0  0  0  0  0
  187.9080  175.8270  143.3800 O   0  0  0  0  0  0  0  0  0  0  0  0
  188.9900  176.3940  143.4210 C   0  0  0  0  0  0  0  0  0  0  0  0
  190.1100  175.9240  142.5590 C   0  0  0  0  0  2  0  0  0  0  0  0
  190.4630  176.9760  141.5260 C   0  0  0  0  0  2  0  0  0  0  0  0
  189.5230  176.8560  140.3460 C   0  0  2  0  0  3  0  0  0  0  0  0
  189.8570  177.9270  139.3270 C   0  0  2  0  0  3  0  0  0  0  0  0
  188.6720  178.1060  140.2550 C   0  0  0  0  0  2  0  0  0  0  0  0
  189.3620  177.4920  137.9560 C   0  0  1  0  0  3  0  0  0  0  0  0
  188.5560  178.5830  137.3270 C   0  0  0  0  0  0  0  0  0  0  0  0
  187.3140  178.2910  136.7770 O   0  0  0  0  0  0  0  0  0  0  0  0
  188.9750  179.7700  137.3260 O   0  0  0  0  0  1  0  0  0  0  0  0
  190.4480  177.1610  137.1380 O   0  0  0  0  0  0  0  0  0  0  0  0
  190.1670  175.8750  136.6740 C   0  0  0  0  0  1  0  0  0  0  0  0
  2 10  2  0  0  0  0
  2  5  1  0  0  0  0
  3  9  2  0  0  0  0
  5 13  2  0  0  0  0
  6 12  2  0  0  0  0
  6  3  1  0  0  0  0
  7  4  2  0  0  0  0
  8  4  1  0  0  0  0
  8  1  2  0  0  0  0
  9  1  1  0  0  0  0
 10  6  1  0  0  0  0
 11 26  1  6  0  0  0
 11 12  1  0  0  0  0
 11  7  1  0  0  0  0
 12  8  1  0  0  0  0
 13  3  1  0  0  0  0
 14 22  1  0  0  0  0
 15 19  1  0  0  0  0
 15 16  1  0  0  0  0
 16 21  1  0  0  0  0
 18 17  1  0  0  0  0
 19 18  1  0  0  0  0
 20 16  1  0  0  0  0
 20 14  1  0  0  0  0
 21 22  2  0  0  0  0
 21 17  1  0  0  0  0
 22  2  1  0  0  0  0
 23 19  2  0  0  0  0
 24 20  2  0  0  0  0
 25 26  2  0  0  0  0
 27 26  1  0  0  0  0
 28 27  1  0  0  0  0
 29 28  1  1  0  0  0
 30 32  1  6  0  0  0
 30 31  1  0  0  0  0
 30 29  1  0  0  0  0
 31 29  1  0  0  0  0
 32 36  1  6  0  0  0
 33 32  1  0  0  0  0
 34 33  2  0  0  0  0
 35 33  1  0  0  0  0
 37 36  1  0  0  0  0
M  END
>  <MODEL>
1

>  <REMARK>
 VINA RESULT:     -10.2      0.000      0.000
  Name = 
  8 active torsions:
  status: ('A' for Active; 'I' for Inactive)
    1  A    between atoms: C_1  and  C_8
    2  A    between atoms: C_2  and  C_31
    3  A    between atoms: C_4  and  C_30
    4  A    between atoms: C_8  and  O_10
    5  A    between atoms: C_8  and  C_12
    6  A    between atoms: C_21  and  C_31
    7  A    between atoms: C_21  and  C_36
    8  A    between atoms: C_26  and  C_36
                            x       y       z     vdW  Elec       q    Type
                         _______ _______ _______ _____ _____    ______ ____

>  <TORSDO>
F 8

$$$$
=
 OpenBabel11062415293D

 37 42  0  0  1  0  0  0  0  0999 V2000
  189.2990  177.2000  146.9410 C   0  0  0  0  0  3  0  0  0  0  0  0
  185.9380  178.2830  143.3580 C   0  0  0  0  0  0  0  0  0  0  0  0
  187.2930  177.6910  145.7540 C   0  0  0  0  0  0  0  0  0  0  0  0
  191.4740  177.0820  145.5920 C   0  0  0  0  0  3  0  0  0  0  0  0
  185.2450  178.2070  144.5760 C   0  0  0  0  0  3  0  0  0  0  0  0
  188.0040  177.7590  144.5300 C   0  0  0  0  0  0  0  0  0  0  0  0
  191.7180  177.3390  144.0990 C   0  0  0  0  0  3  0  0  0  0  0  0
  190.0170  177.2620  145.7500 C   0  0  0  0  0  0  0  0  0  0  0  0
  187.9530  177.4140  146.9140 N   0  0  0  0  0  0  0  0  0  0  0  0
  187.3220  178.0560  143.3440 C   0  0  0  0  0  3  0  0  0  0  0  0
  190.3510  177.5560  143.4310 C   0  0  2  0  0  3  0  0  0  0  0  0
  189.3850  177.5260  144.5630 C   0  0  0  0  0  0  0  0  0  0  0  0
  185.9150  177.9150  145.7660 C   0  0  0  0  0  3  0  0  0  0  0  0
  185.8010  178.8910  140.9480 N   0  0  0  0  0  2  0  0  0  0  0  0
  182.2710  179.0860  139.9850 C   0  0  0  0  0  2  0  0  0  0  0  0
  183.5690  178.9150  140.6410 N   0  0  0  0  0  0  0  0  0  0  0  0
  182.7440  178.2530  142.9220 C   0  0  0  0  0  2  0  0  0  0  0  0
  181.2320  179.2230  142.6100 S   0  0  0  0  0  0  0  0  0  0  0  0
  181.1620  178.6820  140.9040 C   0  0  0  0  0  0  0  0  0  0  0  0
  184.7810  179.0840  140.0860 C   0  0  0  0  0  0  0  0  0  0  0  0
  183.8150  178.6120  141.9320 C   0  0  0  0  0  0  0  0  0  0  0  0
  185.1920  178.5870  142.1170 C   0  0  0  0  0  0  0  0  0  0  0  0
  180.2970  177.7420  140.5330 C   0  0  0  0  0  2  0  0  0  0  0  0
  184.9560  179.3930  138.8760 O   0  0  0  0  0  0  0  0  0  0  0  0
  190.1170  175.2880  142.7720 O   0  0  0  0  0  0  0  0  0  0  0  0
  190.0790  176.4640  142.4380 C   0  0  0  0  0  0  0  0  0  0  0  0
  189.7420  176.8290  141.0340 C   0  0  0  0  0  2  0  0  0  0  0  0
  190.9760  177.3180  140.3010 C   0  0  0  0  0  2  0  0  0  0  0  0
  191.3640  176.3080  139.2430 C   0  0  2  0  0  3  0  0  0  0  0  0
  192.4670  176.8860  138.3780 C   0  0  2  0  0  3  0  0  0  0  0  0
  191.0390  176.8680  137.8730 C   0  0  0  0  0  2  0  0  0  0  0  0
  193.2460  175.7520  137.7290 C   0  0  1  0  0  3  0  0  0  0  0  0
  193.6180  176.1170  136.3280 C   0  0  0  0  0  0  0  0  0  0  0  0
  192.8500  175.6520  135.2680 O   0  0  0  0  0  0  0  0  0  0  0  0
  194.5990  176.8740  136.1020 O   0  0  0  0  0  1  0  0  0  0  0  0
  194.3950  175.4710  138.4760 O   0  0  0  0  0  0  0  0  0  0  0  0
  194.7110  174.1480  138.1620 C   0  0  0  0  0  1  0  0  0  0  0  0
  2  5  1  0  0  0  0
  3 13  1  0  0  0  0
  3  9  2  0  0  0  0
  4  8  1  0  0  0  0
  5 13  2  0  0  0  0
  6 12  2  0  0  0  0
  6  3  1  0  0  0  0
  7  4  2  0  0  0  0
  8  1  2  0  0  0  0
  9  1  1  0  0  0  0
 10  2  2  0  0  0  0
 10  6  1  0  0  0  0
 11 26  1  6  0  0  0
 11  7  1  0  0  0  0
 11 12  1  0  0  0  0
 12  8  1  0  0  0  0
 14 22  1  0  0  0  0
 15 16  1  0  0  0  0
 15 19  1  0  0  0  0
 16 21  1  0  0  0  0
 18 17  1  0  0  0  0
 19 18  1  0  0  0  0
 20 16  1  0  0  0  0
 20 14  1  0  0  0  0
 21 22  2  0  0  0  0
 21 17  1  0  0  0  0
 22  2  1  0  0  0  0
 23 19  2  0  0  0  0
 24 20  2  0  0  0  0
 26 25  2  0  0  0  0
 27 26  1  0  0  0  0
 28 27  1  0  0  0  0
 29 28  1  1  0  0  0
 30 32  1  6  0  0  0
 30 29  1  0  0  0  0
 31 30  1  0  0  0  0
 31 29  1  0  0  0  0
 32 33  1  6  0  0  0
 32 36  1  0  0  0  0
 34 33  2  0  0  0  0
 35 33  1  0  0  0  0
 37 36  1  0  0  0  0
M  END
>  <MODEL>
2

>  <REMARK>
 VINA RESULT:      -9.5      2.000      2.649
  Name = 
  8 active torsions:
  status: ('A' for Active; 'I' for Inactive)
    1  A    between atoms: C_1  and  C_8
    2  A    between atoms: C_2  and  C_31
    3  A    between atoms: C_4  and  C_30
    4  A    between atoms: C_8  and  O_10
    5  A    between atoms: C_8  and  C_12
    6  A    between atoms: C_21  and  C_31
    7  A    between atoms: C_21  and  C_36
    8  A    between atoms: C_26  and  C_36
                            x       y       z     vdW  Elec       q    Type
                         _______ _______ _______ _____ _____    ______ ____

>  <TORSDO>
F 8

$$$$
=
 OpenBabel11062415293D

 37 42  0  0  1  0  0  0  0  0999 V2000
  190.6010  177.3110  146.2340 C   0  0  0  0  0  3  0  0  0  0  0  0
  189.4210  177.5600  141.3500 C   0  0  0  0  0  0  0  0  0  0  0  0
  190.6940  177.4890  143.8600 C   0  0  0  0  0  0  0  0  0  0  0  0
  188.2910  177.0500  147.3120 C   0  0  0  0  0  3  0  0  0  0  0  0
  190.8180  177.6540  141.4510 C   0  0  0  0  0  3  0  0  0  0  0  0
  189.2820  177.4000  143.7730 C   0  0  0  0  0  0  0  0  0  0  0  0
  186.9090  176.9290  146.6540 C   0  0  0  0  0  3  0  0  0  0  0  0
  189.2130  177.2220  146.1710 C   0  0  0  0  0  0  0  0  0  0  0  0
  191.3080  177.4450  145.0770 N   0  0  0  0  0  0  0  0  0  0  0  0
  188.6590  177.4340  142.5210 C   0  0  0  0  0  3  0  0  0  0  0  0
  187.0880  177.1470  145.1440 C   0  0  2  0  0  3  0  0  0  0  0  0
  188.5600  177.2750  144.9670 C   0  0  0  0  0  0  0  0  0  0  0  0
  191.4520  177.6180  142.6960 C   0  0  0  0  0  3  0  0  0  0  0  0
  187.6710  178.3310  139.7570 N   0  0  0  0  0  2  0  0  0  0  0  0
  188.3430  176.8580  136.4700 C   0  0  0  0  0  2  0  0  0  0  0  0
  188.3390  177.3100  137.8630 N   0  0  0  0  0  0  0  0  0  0  0  0
  190.4260  176.1400  138.6360 C   0  0  0  0  0  2  0  0  0  0  0  0
  190.1220  174.8570  137.3760 S   0  0  0  0  0  0  0  0  0  0  0  0
  189.5820  176.0740  136.1770 C   0  0  0  0  0  0  0  0  0  0  0  0
  187.4360  178.1160  138.4460 C   0  0  0  0  0  0  0  0  0  0  0  0
  189.1930  176.9710  138.8500 C   0  0  0  0  0  0  0  0  0  0  0  0
  188.7860  177.6110  140.0150 C   0  0  0  0  0  0  0  0  0  0  0  0
  190.3930  176.4500  135.1920 C   0  0  0  0  0  2  0  0  0  0  0  0
  186.4610  178.6280  137.8330 O   0  0  0  0  0  0  0  0  0  0  0  0
  186.1410  179.2940  145.4980 O   0  0  0  0  0  0  0  0  0  0  0  0
  186.3650  178.3870  144.7080 C   0  0  0  0  0  0  0  0  0  0  0  0
  185.9350  178.5140  143.2880 C   0  0  0  0  0  2  0  0  0  0  0  0
  184.7170  179.4110  143.1790 C   0  0  0  0  0  2  0  0  0  0  0  0
  183.4660  178.5590  143.1720 C   0  0  2  0  0  3  0  0  0  0  0  0
  182.2470  179.4570  143.2380 C   0  0  2  0  0  3  0  0  0  0  0  0
  182.7290  178.7400  144.4830 C   0  0  0  0  0  2  0  0  0  0  0  0
  181.0450  178.7210  142.6660 C   0  0  1  0  0  3  0  0  0  0  0  0
  179.9290  178.7020  143.6600 C   0  0  0  0  0  0  0  0  0  0  0  0
  179.6070  177.5180  144.3110 O   0  0  0  0  0  1  0  0  0  0  0  0
  179.3030  179.7580  143.9420 O   0  0  0  0  0  0  0  0  0  0  0  0
  180.6260  179.3370  141.4810 O   0  0  0  0  0  0  0  0  0  0  0  0
  180.2390  178.2850  140.6490 C   0  0  0  0  0  1  0  0  0  0  0  0
  2  5  2  0  0  0  0
  2 10  1  0  0  0  0
  3  9  1  0  0  0  0
  5 13  1  0  0  0  0
  6  3  1  0  0  0  0
  6 12  1  0  0  0  0
  7  4  2  0  0  0  0
  8  1  1  0  0  0  0
  8  4  1  0  0  0  0
  9  1  2  0  0  0  0
 10  6  2  0  0  0  0
 11 26  1  1  0  0  0
 11  7  1  0  0  0  0
 12 11  1  0  0  0  0
 12  8  2  0  0  0  0
 13  3  2  0  0  0  0
 14 22  1  0  0  0  0
 15 16  1  0  0  0  0
 16 20  1  0  0  0  0
 16 21  1  0  0  0  0
 17 21  1  0  0  0  0
 18 17  1  0  0  0  0
 19 15  1  0  0  0  0
 19 18  1  0  0  0  0
 20 14  1  0  0  0  0
 21 22  2  0  0  0  0
 22  2  1  0  0  0  0
 23 19  2  0  0  0  0
 24 20  2  0  0  0  0
 26 25  2  0  0  0  0
 27 26  1  0  0  0  0
 28 27  1  0  0  0  0
 29 28  1  1  0  0  0
 29 30  1  0  0  0  0
 29 31  1  0  0  0  0
 30 32  1  6  0  0  0
 30 31  1  0  0  0  0
 32 36  1  6  0  0  0
 32 33  1  0  0  0  0
 33 35  2  0  0  0  0
 33 34  1  0  0  0  0
 37 36  1  0  0  0  0
M  END
>  <MODEL>
3

>  <REMARK>
 VINA RESULT:      -9.0      3.323      7.053
  Name = 
  8 active torsions:
  status: ('A' for Active; 'I' for Inactive)
    1  A    between atoms: C_1  and  C_8
    2  A    between atoms: C_2  and  C_31
    3  A    between atoms: C_4  and  C_30
    4  A    between atoms: C_8  and  O_10
    5  A    between atoms: C_8  and  C_12
    6  A    between atoms: C_21  and  C_31
    7  A    between atoms: C_21  and  C_36
    8  A    between atoms: C_26  and  C_36
                            x       y       z     vdW  Elec       q    Type
                         _______ _______ _______ _____ _____    ______ ____

>  <TORSDO>
F 8

$$$$
=
 OpenBabel11062415293D

 37 42  0  0  1  0  0  0  0  0999 V2000
  180.8460  179.2060  141.8350 C   0  0  0  0  0  3  0  0  0  0  0  0
  185.3680  178.2180  143.8030 C   0  0  0  0  0  0  0  0  0  0  0  0
  182.6960  178.9550  143.3150 C   0  0  0  0  0  0  0  0  0  0  0  0
  181.1950  178.5540  139.3820 C   0  0  0  0  0  3  0  0  0  0  0  0
  184.5530  178.6920  144.8420 C   0  0  0  0  0  3  0  0  0  0  0  0
  183.5110  178.4830  142.2560 C   0  0  0  0  0  0  0  0  0  0  0  0
  182.4280  177.9530  138.6920 C   0  0  0  0  0  3  0  0  0  0  0  0
  181.6290  178.7450  140.7810 C   0  0  0  0  0  0  0  0  0  0  0  0
  181.3990  179.3020  143.0770 N   0  0  0  0  0  0  0  0  0  0  0  0
  184.8380  178.1170  142.5090 C   0  0  0  0  0  3  0  0  0  0  0  0
  183.5710  177.9230  139.7180 C   0  0  2  0  0  3  0  0  0  0  0  0
  182.9400  178.3980  140.9790 C   0  0  0  0  0  0  0  0  0  0  0  0
  183.2260  179.0570  144.6020 C   0  0  0  0  0  3  0  0  0  0  0  0
  187.6670  177.5380  143.1300 N   0  0  0  0  0  2  0  0  0  0  0  0
  189.7140  177.1700  146.1460 C   0  0  0  0  0  2  0  0  0  0  0  0
  188.6800  177.4130  145.1390 N   0  0  0  0  0  0  0  0  0  0  0  0
  186.8180  178.1030  146.6810 C   0  0  0  0  0  2  0  0  0  0  0  0
  187.5650  177.0630  147.9790 S   0  0  0  0  0  0  0  0  0  0  0  0
  189.2220  177.5530  147.5050 C   0  0  0  0  0  0  0  0  0  0  0  0
  188.8040  177.2780  143.8070 C   0  0  0  0  0  0  0  0  0  0  0  0
  187.3920  177.7610  145.3360 C   0  0  0  0  0  0  0  0  0  0  0  0
  186.7710  177.8480  144.0950 C   0  0  0  0  0  0  0  0  0  0  0  0
  189.8900  178.4460  148.2310 C   0  0  0  0  0  2  0  0  0  0  0  0
  189.8780  176.9430  143.2380 O   0  0  0  0  0  0  0  0  0  0  0  0
  184.6620  180.0230  139.5300 O   0  0  0  0  0  0  0  0  0  0  0  0
  184.6870  178.8260  139.2790 C   0  0  0  0  0  0  0  0  0  0  0  0
  185.8440  178.2430  138.5450 C   0  0  0  0  0  2  0  0  0  0  0  0
  187.0300  178.0690  139.4740 C   0  0  0  0  0  2  0  0  0  0  0  0
  188.3120  178.1800  138.6780 C   0  0  2  0  0  3  0  0  0  0  0  0
  189.0230  176.8410  138.6820 C   0  0  2  0  0  3  0  0  0  0  0  0
  189.4940  177.9530  139.5980 C   0  0  0  0  0  2  0  0  0  0  0  0
  189.9460  176.7560  137.4760 C   0  0  1  0  0  3  0  0  0  0  0  0
  191.2050  176.0350  137.8390 C   0  0  0  0  0  0  0  0  0  0  0  0
  192.4140  176.7180  137.8380 O   0  0  0  0  0  0  0  0  0  0  0  0
  191.1730  174.8240  138.1840 O   0  0  0  0  0  1  0  0  0  0  0  0
  189.2990  176.0980  136.4240 O   0  0  0  0  0  0  0  0  0  0  0  0
  189.9420  176.5510  135.2710 C   0  0  0  0  0  1  0  0  0  0  0  0
  1  9  1  0  0  0  0
  2 22  1  0  0  0  0
  2  5  1  0  0  0  0
  3 13  1  0  0  0  0
  4  8  1  0  0  0  0
  6 10  1  0  0  0  0
  6  3  1  0  0  0  0
  7  4  2  0  0  0  0
  7 11  1  0  0  0  0
  8 12  1  0  0  0  0
  8  1  2  0  0  0  0
  9  3  2  0  0  0  0
 10  2  2  0  0  0  0
 11 26  1  6  0  0  0
 11 12  1  0  0  0  0
 12  6  2  0  0  0  0
 13  5  2  0  0  0  0
 14 20  1  0  0  0  0
 14 22  1  0  0  0  0
 15 19  1  0  0  0  0
 16 21  1  0  0  0  0
 16 15  1  0  0  0  0
 17 18  1  0  0  0  0
 19 18  1  0  0  0  0
 19 23  2  0  0  0  0
 20 16  1  0  0  0  0
 21 17  1  0  0  0  0
 22 21  2  0  0  0  0
 24 20  2  0  0  0  0
 26 25  2  0  0  0  0
 27 26  1  0  0  0  0
 27 28  1  0  0  0  0
 29 30  1  0  0  0  0
 29 28  1  1  0  0  0
 29 31  1  0  0  0  0
 30 32  1  6  0  0  0
 30 31  1  0  0  0  0
 32 36  1  6  0  0  0
 32 33  1  0  0  0  0
 33 35  1  0  0  0  0
 34 33  2  0  0  0  0
 37 36  1  0  0  0  0
M  END
>  <MODEL>
4

>  <REMARK>
 VINA RESULT:      -8.9      2.342      6.512
  Name = 
  8 active torsions:
  status: ('A' for Active; 'I' for Inactive)
    1  A    between atoms: C_1  and  C_8
    2  A    between atoms: C_2  and  C_31
    3  A    between atoms: C_4  and  C_30
    4  A    between atoms: C_8  and  O_10
    5  A    between atoms: C_8  and  C_12
    6  A    between atoms: C_21  and  C_31
    7  A    between atoms: C_21  and  C_36
    8  A    between atoms: C_26  and  C_36
                            x       y       z     vdW  Elec       q    Type
                         _______ _______ _______ _____ _____    ______ ____

>  <TORSDO>
F 8

$$$$
=
 OpenBabel11062415293D

 37 42  0  0  1  0  0  0  0  0999 V2000
  189.4690  177.5410  147.1740 C   0  0  0  0  0  3  0  0  0  0  0  0
  185.0480  178.3760  144.9230 C   0  0  0  0  0  0  0  0  0  0  0  0
  187.1550  177.8890  146.7250 C   0  0  0  0  0  0  0  0  0  0  0  0
  191.0780  177.5640  145.1800 C   0  0  0  0  0  3  0  0  0  0  0  0
  184.8030  178.2580  146.3000 C   0  0  0  0  0  3  0  0  0  0  0  0
  187.4150  177.9990  145.3360 C   0  0  0  0  0  0  0  0  0  0  0  0
  190.7960  177.8310  143.6950 C   0  0  0  0  0  3  0  0  0  0  0  0
  189.7460  177.6460  145.8130 C   0  0  0  0  0  0  0  0  0  0  0  0
  188.1790  177.6630  147.5970 N   0  0  0  0  0  0  0  0  0  0  0  0
  186.3610  178.2430  144.4480 C   0  0  0  0  0  3  0  0  0  0  0  0
  189.2740  177.9500  143.5200 C   0  0  2  0  0  3  0  0  0  0  0  0
  188.7410  177.8600  144.9070 C   0  0  0  0  0  0  0  0  0  0  0  0
  185.8480  178.0180  147.1960 C   0  0  0  0  0  3  0  0  0  0  0  0
  182.6470  178.8190  144.4350 N   0  0  0  0  0  2  0  0  0  0  0  0
  182.2180  179.0930  140.8060 C   0  0  0  0  0  2  0  0  0  0  0  0
  182.6880  178.9580  142.1860 N   0  0  0  0  0  0  0  0  0  0  0  0
  185.1360  178.6330  141.7100 C   0  0  0  0  0  2  0  0  0  0  0  0
  184.6820  177.9010  140.1020 S   0  0  0  0  0  0  0  0  0  0  0  0
  183.3730  179.0990  139.8560 C   0  0  0  0  0  0  0  0  0  0  0  0
  181.9410  179.0140  143.3020 C   0  0  0  0  0  0  0  0  0  0  0  0
  183.9390  178.6970  142.6160 C   0  0  0  0  0  0  0  0  0  0  0  0
  183.9150  178.6220  144.0040 C   0  0  0  0  0  0  0  0  0  0  0  0
  183.5480  180.1220  139.0240 C   0  0  0  0  0  2  0  0  0  0  0  0
  180.6990  179.2290  143.2980 O   0  0  0  0  0  0  0  0  0  0  0  0
  188.5900  175.7160  143.1080 O   0  0  0  0  0  0  0  0  0  0  0  0
  188.7610  176.8380  142.6530 C   0  0  0  0  0  0  0  0  0  0  0  0
  188.4420  177.1200  141.2260 C   0  0  0  0  0  2  0  0  0  0  0  0
  189.6940  177.5250  140.4720 C   0  0  0  0  0  2  0  0  0  0  0  0
  189.7150  176.8320  139.1260 C   0  0  2  0  0  3  0  0  0  0  0  0
  191.0660  177.0480  138.4720 C   0  0  2  0  0  3  0  0  0  0  0  0
  189.8700  177.8690  138.0320 C   0  0  0  0  0  2  0  0  0  0  0  0
  191.3180  175.9420  137.4580 C   0  0  1  0  0  3  0  0  0  0  0  0
  192.7060  176.0480  136.9130 C   0  0  0  0  0  0  0  0  0  0  0  0
  193.0280  175.4090  135.7230 O   0  0  0  0  0  0  0  0  0  0  0  0
  193.5750  176.7440  137.5020 O   0  0  0  0  0  1  0  0  0  0  0  0
  191.1300  174.6910  138.0580 O   0  0  0  0  0  0  0  0  0  0  0  0
  190.4140  173.9490  137.1180 C   0  0  0  0  0  1  0  0  0  0  0  0
  1  9  1  0  0  0  0
  2  5  1  0  0  0  0
  3 13  1  0  0  0  0
  3  9  2  0  0  0  0
  4  8  1  0  0  0  0
  5 13  2  0  0  0  0
  6  3  1  0  0  0  0
  7  4  2  0  0  0  0
  8  1  2  0  0  0  0
 10  2  2  0  0  0  0
 10  6  1  0  0  0  0
 11 26  1  6  0  0  0
 11  7  1  0  0  0  0
 11 12  1  0  0  0  0
 12  6  2  0  0  0  0
 12  8  1  0  0  0  0
 15 16  1  0  0  0  0
 16 21  1  0  0  0  0
 16 20  1  0  0  0  0
 17 21  1  0  0  0  0
 18 17  1  0  0  0  0
 19 18  1  0  0  0  0
 19 15  1  0  0  0  0
 20 14  1  0  0  0  0
 21 22  2  0  0  0  0
 22 14  1  0  0  0  0
 22  2  1  0  0  0  0
 23 19  2  0  0  0  0
 24 20  2  0  0  0  0
 26 25  2  0  0  0  0
 27 26  1  0  0  0  0
 28 27  1  0  0  0  0
 29 28  1  1  0  0  0
 30 32  1  6  0  0  0
 30 29  1  0  0  0  0
 31 30  1  0  0  0  0
 31 29  1  0  0  0  0
 32 33  1  1  0  0  0
 32 36  1  0  0  0  0
 33 35  1  0  0  0  0
 34 33  2  0  0  0  0
 37 36  1  0  0  0  0
M  END
>  <MODEL>
5

>  <REMARK>
 VINA RESULT:      -8.8      2.251      2.929
  Name = 
  8 active torsions:
  status: ('A' for Active; 'I' for Inactive)
    1  A    between atoms: C_1  and  C_8
    2  A    between atoms: C_2  and  C_31
    3  A    between atoms: C_4  and  C_30
    4  A    between atoms: C_8  and  O_10
    5  A    between atoms: C_8  and  C_12
    6  A    between atoms: C_21  and  C_31
    7  A    between atoms: C_21  and  C_36
    8  A    between atoms: C_26  and  C_36
                            x       y       z     vdW  Elec       q    Type
                         _______ _______ _______ _____ _____    ______ ____

>  <TORSDO>
F 8

$$$$
=
 OpenBabel11062415293D

 37 42  0  0  1  0  0  0  0  0999 V2000
  189.4010  177.5610  147.2270 C   0  0  0  0  0  3  0  0  0  0  0  0
  184.9710  178.3900  144.9930 C   0  0  0  0  0  0  0  0  0  0  0  0
  187.0870  177.9240  146.7890 C   0  0  0  0  0  0  0  0  0  0  0  0
  190.9930  177.5190  145.2210 C   0  0  0  0  0  3  0  0  0  0  0  0
  184.7360  178.3090  146.3740 C   0  0  0  0  0  3  0  0  0  0  0  0
  187.3370  177.9980  145.3960 C   0  0  0  0  0  0  0  0  0  0  0  0
  190.7020  177.7520  143.7320 C   0  0  0  0  0  3  0  0  0  0  0  0
  189.6680  177.6300  145.8630 C   0  0  0  0  0  0  0  0  0  0  0  0
  188.1160  177.7080  147.6580 N   0  0  0  0  0  0  0  0  0  0  0  0
  186.2780  178.2320  144.5110 C   0  0  0  0  0  3  0  0  0  0  0  0
  189.1800  177.8840  143.5660 C   0  0  2  0  0  3  0  0  0  0  0  0
  188.6580  177.8340  144.9590 C   0  0  0  0  0  0  0  0  0  0  0  0
  185.7850  178.0790  147.2670 C   0  0  0  0  0  3  0  0  0  0  0  0
  182.5660  178.8190  144.5130 N   0  0  0  0  0  2  0  0  0  0  0  0
  182.1200  179.0760  140.8850 C   0  0  0  0  0  2  0  0  0  0  0  0
  182.5970  178.9490  142.2630 N   0  0  0  0  0  0  0  0  0  0  0  0
  185.0440  178.6340  141.7790 C   0  0  0  0  0  2  0  0  0  0  0  0
  184.5880  177.8940  140.1760 S   0  0  0  0  0  0  0  0  0  0  0  0
  183.2710  179.0840  139.9300 C   0  0  0  0  0  0  0  0  0  0  0  0
  181.8540  179.0050  143.3820 C   0  0  0  0  0  0  0  0  0  0  0  0
  183.8510  178.6960  142.6890 C   0  0  0  0  0  0  0  0  0  0  0  0
  183.8320  178.6270  144.0770 C   0  0  0  0  0  0  0  0  0  0  0  0
  183.4380  180.1040  139.0930 C   0  0  0  0  0  2  0  0  0  0  0  0
  180.6110  179.2140  143.3820 O   0  0  0  0  0  0  0  0  0  0  0  0
  188.4490  175.6530  143.2190 O   0  0  0  0  0  0  0  0  0  0  0  0
  188.6470  176.7570  142.7310 C   0  0  0  0  0  0  0  0  0  0  0  0
  188.3430  177.0010  141.2940 C   0  0  0  0  0  2  0  0  0  0  0  0
  188.4840  178.4750  140.9640 C   0  0  0  0  0  2  0  0  0  0  0  0
  189.2370  178.6260  139.6600 C   0  0  2  0  0  3  0  0  0  0  0  0
  188.5450  177.8140  138.5830 C   0  0  2  0  0  3  0  0  0  0  0  0
  189.7990  177.2810  139.2470 C   0  0  0  0  0  2  0  0  0  0  0  0
  188.9000  178.3810  137.2170 C   0  0  1  0  0  3  0  0  0  0  0  0
  189.1010  177.2730  136.2340 C   0  0  0  0  0  0  0  0  0  0  0  0
  188.8840  175.9580  136.6260 O   0  0  0  0  0  1  0  0  0  0  0  0
  189.4290  177.5230  135.0440 O   0  0  0  0  0  0  0  0  0  0  0  0
  187.8840  179.2380  136.7760 O   0  0  0  0  0  0  0  0  0  0  0  0
  186.6970  178.5620  137.0640 C   0  0  0  0  0  1  0  0  0  0  0  0
  1  9  1  0  0  0  0
  2  5  1  0  0  0  0
  3 13  1  0  0  0  0
  3  9  2  0  0  0  0
  4  8  1  0  0  0  0
  5 13  2  0  0  0  0
  6  3  1  0  0  0  0
  7  4  2  0  0  0  0
  8  1  2  0  0  0  0
 10  2  2  0  0  0  0
 10  6  1  0  0  0  0
 11 26  1  6  0  0  0
 11  7  1  0  0  0  0
 11 12  1  0  0  0  0
 12  6  2  0  0  0  0
 12  8  1  0  0  0  0
 15 16  1  0  0  0  0
 16 21  1  0  0  0  0
 16 20  1  0  0  0  0
 17 21  1  0  0  0  0
 18 17  1  0  0  0  0
 19 18  1  0  0  0  0
 19 15  1  0  0  0  0
 20 24  2  0  0  0  0
 20 14  1  0  0  0  0
 21 22  2  0  0  0  0
 22 14  1  0  0  0  0
 22  2  1  0  0  0  0
 23 19  2  0  0  0  0
 26 25  2  0  0  0  0
 27 26  1  0  0  0  0
 28 27  1  0  0  0  0
 29 28  1  1  0  0  0
 30 32  1  6  0  0  0
 30 31  1  0  0  0  0
 30 29  1  0  0  0  0
 31 29  1  0  0  0  0
 32 33  1  6  0  0  0
 33 34  1  0  0  0  0
 35 33  2  0  0  0  0
 36 37  1  0  0  0  0
 36 32  1  0  0  0  0
M  END
>  <MODEL>
6

>  <REMARK>
 VINA RESULT:      -8.7      1.910      2.649
  Name = 
  8 active torsions:
  status: ('A' for Active; 'I' for Inactive)
    1  A    between atoms: C_1  and  C_8
    2  A    between atoms: C_2  and  C_31
    3  A    between atoms: C_4  and  C_30
    4  A    between atoms: C_8  and  O_10
    5  A    between atoms: C_8  and  C_12
    6  A    between atoms: C_21  and  C_31
    7  A    between atoms: C_21  and  C_36
    8  A    between atoms: C_26  and  C_36
                            x       y       z     vdW  Elec       q    Type
                         _______ _______ _______ _____ _____    ______ ____

>  <TORSDO>
F 8

$$$$
=
 OpenBabel11062415293D

 37 42  0  0  1  0  0  0  0  0999 V2000
  182.3820  178.9400  143.9540 C   0  0  0  0  0  3  0  0  0  0  0  0
  185.1600  178.3540  139.8010 C   0  0  0  0  0  0  0  0  0  0  0  0
  183.1060  178.6540  141.7020 C   0  0  0  0  0  0  0  0  0  0  0  0
  184.1850  179.0610  145.7700 C   0  0  0  0  0  3  0  0  0  0  0  0
  183.8140  178.3820  139.4060 C   0  0  0  0  0  3  0  0  0  0  0  0
  184.4610  178.6220  142.1150 C   0  0  0  0  0  0  0  0  0  0  0  0
  185.7150  179.0340  145.6380 C   0  0  0  0  0  3  0  0  0  0  0  0
  183.7070  178.9110  144.3810 C   0  0  0  0  0  0  0  0  0  0  0  0
  182.1130  178.8090  142.6240 N   0  0  0  0  0  0  0  0  0  0  0  0
  185.4760  178.4740  141.1620 C   0  0  0  0  0  3  0  0  0  0  0  0
  186.0540  178.7580  144.1650 C   0  0  2  0  0  3  0  0  0  0  0  0
  184.7300  178.7440  143.4850 C   0  0  0  0  0  0  0  0  0  0  0  0
  182.7930  178.5320  140.3470 C   0  0  0  0  0  3  0  0  0  0  0  0
  187.4810  178.6290  138.9420 N   0  0  0  0  0  2  0  0  0  0  0  0
  187.6790  177.1440  135.5980 C   0  0  0  0  0  2  0  0  0  0  0  0
  187.3120  177.6270  136.9300 N   0  0  0  0  0  0  0  0  0  0  0  0
  184.9160  176.8640  136.9530 C   0  0  0  0  0  2  0  0  0  0  0  0
  184.8930  177.0260  135.1360 S   0  0  0  0  0  0  0  0  0  0  0  0
  186.5520  176.3670  134.9940 C   0  0  0  0  0  0  0  0  0  0  0  0
  188.1070  178.2720  137.8010 C   0  0  0  0  0  0  0  0  0  0  0  0
  186.1050  177.5770  137.5300 C   0  0  0  0  0  0  0  0  0  0  0  0
  186.2130  178.1860  138.7750 C   0  0  0  0  0  0  0  0  0  0  0  0
  186.7440  175.1120  134.5970 C   0  0  0  0  0  2  0  0  0  0  0  0
  189.3220  178.5220  137.5800 O   0  0  0  0  0  0  0  0  0  0  0  0
  186.4950  176.5080  144.7760 O   0  0  0  0  0  0  0  0  0  0  0  0
  186.7620  177.4420  144.0320 C   0  0  0  0  0  0  0  0  0  0  0  0
  187.7880  177.2750  142.9650 C   0  0  0  0  0  2  0  0  0  0  0  0
  189.1240  177.8270  143.4230 C   0  0  0  0  0  2  0  0  0  0  0  0
  189.7950  176.8240  144.3360 C   0  0  2  0  0  3  0  0  0  0  0  0
  190.0390  177.4640  145.6890 C   0  0  2  0  0  3  0  0  0  0  0  0
  191.1780  177.3250  144.6990 C   0  0  0  0  0  2  0  0  0  0  0  0
  190.1550  176.3770  146.7480 C   0  0  1  0  0  3  0  0  0  0  0  0
  191.5090  176.4160  147.3820 C   0  0  0  0  0  0  0  0  0  0  0  0
  192.4020  175.3760  147.1610 O   0  0  0  0  0  0  0  0  0  0  0  0
  191.8600  177.4020  148.0820 O   0  0  0  0  0  1  0  0  0  0  0  0
  189.1620  176.5470  147.7190 O   0  0  0  0  0  0  0  0  0  0  0  0
  188.7830  177.8860  147.6100 C   0  0  0  0  0  1  0  0  0  0  0  0
  1  8  1  0  0  0  0
  2 10  1  0  0  0  0
  3  6  1  0  0  0  0
  3  9  1  0  0  0  0
  5  2  2  0  0  0  0
  5 13  1  0  0  0  0
  6 12  1  0  0  0  0
  7  4  2  0  0  0  0
  8  4  1  0  0  0  0
  9  1  2  0  0  0  0
 10  6  2  0  0  0  0
 11 26  1  1  0  0  0
 11  7  1  0  0  0  0
 12 11  1  0  0  0  0
 12  8  2  0  0  0  0
 13  3  2  0  0  0  0
 15 16  1  0  0  0  0
 16 21  1  0  0  0  0
 16 20  1  0  0  0  0
 17 21  1  0  0  0  0
 18 17  1  0  0  0  0
 19 18  1  0  0  0  0
 19 15  1  0  0  0  0
 20 14  1  0  0  0  0
 21 22  2  0  0  0  0
 22 14  1  0  0  0  0
 22  2  1  0  0  0  0
 23 19  2  0  0  0  0
 24 20  2  0  0  0  0
 26 25  2  0  0  0  0
 27 28  1  0  0  0  0
 27 26  1  0  0  0  0
 29 28  1  6  0  0  0
 29 31  1  0  0  0  0
 29 30  1  0  0  0  0
 30 32  1  1  0  0  0
 31 30  1  0  0  0  0
 32 33  1  1  0  0  0
 32 36  1  0  0  0  0
 33 35  1  0  0  0  0
 34 33  2  0  0  0  0
 37 36  1  0  0  0  0
M  END
>  <MODEL>
7

>  <REMARK>
 VINA RESULT:      -8.6      2.812      6.411
  Name = 
  8 active torsions:
  status: ('A' for Active; 'I' for Inactive)
    1  A    between atoms: C_1  and  C_8
    2  A    between atoms: C_2  and  C_31
    3  A    between atoms: C_4  and  C_30
    4  A    between atoms: C_8  and  O_10
    5  A    between atoms: C_8  and  C_12
    6  A    between atoms: C_21  and  C_31
    7  A    between atoms: C_21  and  C_36
    8  A    between atoms: C_26  and  C_36
                            x       y       z     vdW  Elec       q    Type
                         _______ _______ _______ _____ _____    ______ ____

>  <TORSDO>
F 8

$$$$
=
 OpenBabel11062415293D

 37 42  0  0  1  0  0  0  0  0999 V2000
  180.5310  179.0930  140.9930 C   0  0  0  0  0  3  0  0  0  0  0  0
  184.5220  178.4050  143.9760 C   0  0  0  0  0  0  0  0  0  0  0  0
  182.0030  178.9850  142.8630 C   0  0  0  0  0  0  0  0  0  0  0  0
  181.4600  178.3830  138.7130 C   0  0  0  0  0  3  0  0  0  0  0  0
  183.4700  178.8690  144.7820 C   0  0  0  0  0  3  0  0  0  0  0  0
  183.0580  178.5240  142.0380 C   0  0  0  0  0  0  0  0  0  0  0  0
  182.8430  177.8270  138.3470 C   0  0  0  0  0  3  0  0  0  0  0  0
  181.5540  178.6400  140.1640 C   0  0  0  0  0  0  0  0  0  0  0  0
  180.7800  179.2570  142.3230 N   0  0  0  0  0  0  0  0  0  0  0  0
  184.3070  178.2360  142.6010 C   0  0  0  0  0  3  0  0  0  0  0  0
  183.7220  177.8890  139.6060 C   0  0  2  0  0  3  0  0  0  0  0  0
  182.7990  178.3700  140.6700 C   0  0  0  0  0  0  0  0  0  0  0  0
  182.2190  179.1560  144.2310 C   0  0  0  0  0  3  0  0  0  0  0  0
  186.0370  178.1270  145.9330 N   0  0  0  0  0  2  0  0  0  0  0  0
  189.3860  177.2790  144.7140 C   0  0  0  0  0  2  0  0  0  0  0  0
  187.9700  177.6000  144.9030 N   0  0  0  0  0  0  0  0  0  0  0  0
  187.2650  177.5930  142.4890 C   0  0  0  0  0  2  0  0  0  0  0  0
  188.9640  178.0800  142.0360 S   0  0  0  0  0  0  0  0  0  0  0  0
  189.6710  176.9940  143.2730 C   0  0  0  0  0  0  0  0  0  0  0  0
  187.3410  177.8120  146.0710 C   0  0  0  0  0  0  0  0  0  0  0  0
  187.0310  177.8050  143.9580 C   0  0  0  0  0  0  0  0  0  0  0  0
  185.8360  178.1190  144.5950 C   0  0  0  0  0  0  0  0  0  0  0  0
  190.2100  175.8320  142.9150 C   0  0  0  0  0  2  0  0  0  0  0  0
  187.9090  177.7250  147.1940 O   0  0  0  0  0  0  0  0  0  0  0  0
  184.7090  180.0440  139.4890 O   0  0  0  0  0  0  0  0  0  0  0  0
  184.8680  178.8350  139.3940 C   0  0  0  0  0  0  0  0  0  0  0  0
  186.2160  178.2820  139.0830 C   0  0  0  0  0  2  0  0  0  0  0  0
  186.3970  178.1360  137.5850 C   0  0  0  0  0  2  0  0  0  0  0  0
  187.8710  178.2120  137.2490 C   0  0  2  0  0  3  0  0  0  0  0  0
  188.5490  176.9240  137.6720 C   0  0  2  0  0  3  0  0  0  0  0  0
  188.6790  178.1660  138.5300 C   0  0  0  0  0  2  0  0  0  0  0  0
  189.8230  176.7340  136.8620 C   0  0  1  0  0  3  0  0  0  0  0  0
  190.9580  176.3670  137.7640 C   0  0  0  0  0  0  0  0  0  0  0  0
  190.7150  175.6090  138.9020 O   0  0  0  0  0  1  0  0  0  0  0  0
  192.1370  176.7050  137.4790 O   0  0  0  0  0  0  0  0  0  0  0  0
  189.6320  175.7400  135.8960 O   0  0  0  0  0  0  0  0  0  0  0  0
  188.6040  174.9430  136.4040 C   0  0  0  0  0  1  0  0  0  0  0  0
  1  9  1  0  0  0  0
  2 22  1  0  0  0  0
  2  5  1  0  0  0  0
  3 13  1  0  0  0  0
  4  8  1  0  0  0  0
  6 10  1  0  0  0  0
  6  3  1  0  0  0  0
  7  4  2  0  0  0  0
  7 11  1  0  0  0  0
  8 12  1  0  0  0  0
  8  1  2  0  0  0  0
  9  3  2  0  0  0  0
 10  2  2  0  0  0  0
 11 26  1  6  0  0  0
 11 12  1  0  0  0  0
 12  6  2  0  0  0  0
 13  5  2  0  0  0  0
 14 20  1  0  0  0  0
 15 16  1  0  0  0  0
 16 20  1  0  0  0  0
 17 21  1  0  0  0  0
 18 17  1  0  0  0  0
 18 19  1  0  0  0  0
 19 15  1  0  0  0  0
 20 24  2  0  0  0  0
 21 22  2  0  0  0  0
 21 16  1  0  0  0  0
 22 14  1  0  0  0  0
 23 19  2  0  0  0  0
 26 25  2  0  0  0  0
 27 26  1  0  0  0  0
 28 27  1  0  0  0  0
 29 28  1  1  0  0  0
 29 30  1  0  0  0  0
 29 31  1  0  0  0  0
 30 32  1  6  0  0  0
 30 31  1  0  0  0  0
 32 36  1  6  0  0  0
 32 33  1  0  0  0  0
 33 34  1  0  0  0  0
 35 33  2  0  0  0  0
 36 37  1  0  0  0  0
M  END
>  <MODEL>
8

>  <REMARK>
 VINA RESULT:      -8.6      2.354      6.391
  Name = 
  8 active torsions:
  status: ('A' for Active; 'I' for Inactive)
    1  A    between atoms: C_1  and  C_8
    2  A    between atoms: C_2  and  C_31
    3  A    between atoms: C_4  and  C_30
    4  A    between atoms: C_8  and  O_10
    5  A    between atoms: C_8  and  C_12
    6  A    between atoms: C_21  and  C_31
    7  A    between atoms: C_21  and  C_36
    8  A    between atoms: C_26  and  C_36
                            x       y       z     vdW  Elec       q    Type
                         _______ _______ _______ _____ _____    ______ ____

>  <TORSDO>
F 8

$$$$
=
 OpenBabel11062415293D

 37 42  0  0  1  0  0  0  0  0999 V2000
  182.6770  179.1250  144.7400 C   0  0  0  0  0  3  0  0  0  0  0  0
  187.4010  177.6920  143.7720 C   0  0  0  0  0  0  0  0  0  0  0  0
  184.9870  178.5670  144.9230 C   0  0  0  0  0  0  0  0  0  0  0  0
  181.5900  178.9170  142.4290 C   0  0  0  0  0  3  0  0  0  0  0  0
  187.3250  177.9910  145.1410 C   0  0  0  0  0  3  0  0  0  0  0  0
  185.0520  178.2750  143.5380 C   0  0  0  0  0  0  0  0  0  0  0  0
  182.1870  178.4220  141.1050 C   0  0  0  0  0  3  0  0  0  0  0  0
  182.7200  178.8430  143.3770 C   0  0  0  0  0  0  0  0  0  0  0  0
  183.8130  178.9820  145.4810 N   0  0  0  0  0  0  0  0  0  0  0  0
  186.2570  177.8390  142.9750 C   0  0  0  0  0  3  0  0  0  0  0  0
  183.6880  178.1810  141.3270 C   0  0  2  0  0  3  0  0  0  0  0  0
  183.8840  178.4360  142.7810 C   0  0  0  0  0  0  0  0  0  0  0  0
  186.1270  178.4240  145.7150 C   0  0  0  0  0  3  0  0  0  0  0  0
  189.6890  176.7250  143.9510 N   0  0  0  0  0  2  0  0  0  0  0  0
  191.1720  176.5910  140.6040 C   0  0  0  0  0  2  0  0  0  0  0  0
  190.3300  176.7440  141.7910 N   0  0  0  0  0  0  0  0  0  0  0  0
  188.2790  177.6710  140.6700 C   0  0  0  0  0  2  0  0  0  0  0  0
  189.3560  178.3760  139.3780 S   0  0  0  0  0  0  0  0  0  0  0  0
  190.4000  176.9200  139.3660 C   0  0  0  0  0  0  0  0  0  0  0  0
  190.6590  176.4420  143.0580 C   0  0  0  0  0  0  0  0  0  0  0  0
  189.0890  177.2670  141.8680 C   0  0  0  0  0  0  0  0  0  0  0  0
  188.6900  177.2440  143.1990 C   0  0  0  0  0  0  0  0  0  0  0  0
  190.2890  176.0240  138.3890 C   0  0  0  0  0  2  0  0  0  0  0  0
  191.7670  175.9390  143.3880 O   0  0  0  0  0  0  0  0  0  0  0  0
  185.4060  179.7790  140.9700 O   0  0  0  0  0  0  0  0  0  0  0  0
  184.4960  179.1220  140.4830 C   0  0  0  0  0  0  0  0  0  0  0  0
  184.1910  179.2360  139.0290 C   0  0  0  0  0  2  0  0  0  0  0  0
  185.2360  178.5060  138.2080 C   0  0  0  0  0  2  0  0  0  0  0  0
  184.5680  177.4120  137.4040 C   0  0  2  0  0  3  0  0  0  0  0  0
  185.4130  176.1560  137.4670 C   0  0  2  0  0  3  0  0  0  0  0  0
  185.4550  177.0370  136.2350 C   0  0  0  0  0  2  0  0  0  0  0  0
  184.5370  174.9430  137.1890 C   0  0  1  0  0  3  0  0  0  0  0  0
  185.3730  173.7050  137.1300 C   0  0  0  0  0  0  0  0  0  0  0  0
  186.4200  173.6250  136.2210 O   0  0  0  0  0  0  0  0  0  0  0  0
  185.1610  172.7500  137.9230 O   0  0  0  0  0  1  0  0  0  0  0  0
  183.5620  174.8200  138.1850 O   0  0  0  0  0  0  0  0  0  0  0  0
  182.3760  174.5640  137.4940 C   0  0  0  0  0  1  0  0  0  0  0  0
  1  9  1  0  0  0  0
  2  5  1  0  0  0  0
  3  9  2  0  0  0  0
  3 13  1  0  0  0  0
  4  8  1  0  0  0  0
  5 13  2  0  0  0  0
  6  3  1  0  0  0  0
  7 11  1  0  0  0  0
  7  4  2  0  0  0  0
  8  1  2  0  0  0  0
 10  6  1  0  0  0  0
 10  2  2  0  0  0  0
 11 26  1  6  0  0  0
 11 12  1  0  0  0  0
 12  8  1  0  0  0  0
 12  6  2  0  0  0  0
 15 16  1  0  0  0  0
 16 21  1  0  0  0  0
 16 20  1  0  0  0  0
 17 21  1  0  0  0  0
 18 17  1  0  0  0  0
 19 18  1  0  0  0  0
 19 15  1  0  0  0  0
 20 24  2  0  0  0  0
 20 14  1  0  0  0  0
 21 22  2  0  0  0  0
 22  2  1  0  0  0  0
 22 14  1  0  0  0  0
 23 19  2  0  0  0  0
 26 25  2  0  0  0  0
 27 26  1  0  0  0  0
 28 27  1  0  0  0  0
 29 30  1  0  0  0  0
 29 28  1  1  0  0  0
 30 32  1  6  0  0  0
 31 29  1  0  0  0  0
 31 30  1  0  0  0  0
 32 33  1  1  0  0  0
 32 36  1  0  0  0  0
 33 35  1  0  0  0  0
 34 33  2  0  0  0  0
 37 36  1  0  0  0  0
M  END
>  <MODEL>
9

>  <REMARK>
 VINA RESULT:      -8.6      3.253      6.530
  Name = 
  8 active torsions:
  status: ('A' for Active; 'I' for Inactive)
    1  A    between atoms: C_1  and  C_8
    2  A    between atoms: C_2  and  C_31
    3  A    between atoms: C_4  and  C_30
    4  A    between atoms: C_8  and  O_10
    5  A    between atoms: C_8  and  C_12
    6  A    between atoms: C_21  and  C_31
    7  A    between atoms: C_21  and  C_36
    8  A    between atoms: C_26  and  C_36
                            x       y       z     vdW  Elec       q    Type
                         _______ _______ _______ _____ _____    ______ ____

>  <TORSDO>
F 8

$$$$
