=
 OpenBabel11062414383D

 38 40  0  0  1  0  0  0  0  0999 V2000
  183.6090  179.3770  143.8950 C   0  0  0  0  0  2  0  0  0  0  0  0
  186.3210  177.7380  143.6930 C   0  0  0  0  0  0  0  0  0  0  0  0
  185.1530  178.6250  145.7960 C   0  0  0  0  0  0  0  0  0  0  0  0
  184.0450  179.2090  145.3190 C   0  0  0  0  0  3  0  0  0  0  0  0
  186.1870  177.9030  145.0160 C   0  0  0  0  0  3  0  0  0  0  0  0
  185.3270  178.6470  147.1730 O   0  0  0  0  0  1  0  0  0  0  0  0
  185.4380  178.3680  142.6690 C   0  0  0  0  0  2  0  0  0  0  0  0
  183.9810  178.1960  143.0260 C   0  0  2  0  0  3  0  0  0  0  0  0
  183.1410  178.1840  141.7930 C   0  0  0  0  0  0  0  0  0  0  0  0
  183.5080  177.3240  140.7150 N   0  0  0  0  0  2  0  0  0  0  0  0
  182.0990  178.8960  141.7180 O   0  0  0  0  0  0  0  0  0  0  0  0
  182.7670  177.2960  139.4610 C   0  0  0  0  0  2  0  0  0  0  0  0
  182.4130  179.2030  137.9640 C   0  0  0  0  0  1  0  0  0  0  0  0
  183.4370  178.1510  138.3730 C   0  0  2  0  0  0  0  0  0  0  0  0
  183.9470  175.8130  137.4930 C   0  0  0  0  0  1  0  0  0  0  0  0
  182.8340  177.4270  136.0010 C   0  0  0  0  0  1  0  0  0  0  0  0
  183.8450  177.2900  137.1350 C   0  0  0  0  0  0  0  0  0  0  0  0
  185.0770  177.6970  136.6530 F   0  0  0  0  0  0  0  0  0  0  0  0
  184.5960  180.1080  139.1060 O   0  0  0  0  0  0  0  0  0  0  0  0
  184.6160  178.8960  138.9460 C   0  0  0  0  0  3  0  0  0  0  0  0
  187.4440  176.8770  143.1980 C   0  0  0  0  0  2  0  0  0  0  0  0
  188.1680  178.6760  141.5770 C   0  0  0  0  0  2  0  0  0  0  0  0
  189.2000  178.0720  137.9000 C   0  0  0  0  0  0  0  0  0  0  0  0
  188.0740  177.4000  137.4600 F   0  0  0  0  0  0  0  0  0  0  0  0
  189.6510  178.8920  136.8870 F   0  0  0  0  0  0  0  0  0  0  0  0
  189.8250  177.3130  140.6020 N   0  0  1  0  0  0  0  0  0  0  0  0
  188.6300  177.6720  142.6350 C   0  0  2  0  0  0  0  0  0  0  0  0
  189.5380  176.6940  141.8850 C   0  0  0  0  0  2  0  0  0  0  0  0
  190.3010  177.0430  138.2380 C   0  0  0  0  0  2  0  0  0  0  0  0
  190.0110  176.3130  139.5600 C   0  0  0  0  0  2  0  0  0  0  0  0
  188.8300  178.9390  139.1160 C   0  0  0  0  0  2  0  0  0  0  0  0
  188.5950  178.0140  140.2970 C   0  0  2  0  0  3  0  0  0  0  0  0
  189.3910  178.3620  143.7770 C   0  0  0  0  0  2  0  0  0  0  0  0
  189.2610  177.7900  146.2130 C   0  0  0  0  0  1  0  0  0  0  0  0
  189.8680  177.4100  144.8720 C   0  0  2  0  0  3  0  0  0  0  0  0
  192.0230  177.9500  144.0120 O   0  0  0  0  0  0  0  0  0  0  0  0
  192.0180  176.9500  146.0720 O   0  0  0  0  0  1  0  0  0  0  0  0
  191.3580  177.4450  144.9540 C   0  0  0  0  0  0  0  0  0  0  0  0
  1  4  1  0  0  0  0
  2  5  2  0  0  0  0
  3  6  1  0  0  0  0
  4  3  2  0  0  0  0
  5  3  1  0  0  0  0
  7  8  1  0  0  0  0
  7  2  1  0  0  0  0
  8  9  1  6  0  0  0
  8  1  1  0  0  0  0
 10  9  1  0  0  0  0
 11  9  2  0  0  0  0
 12 10  1  0  0  0  0
 14 13  1  6  0  0  0
 14 20  1  0  0  0  0
 14 12  1  0  0  0  0
 16 17  1  0  0  0  0
 17 15  1  0  0  0  0
 17 14  1  0  0  0  0
 18 17  1  0  0  0  0
 20 19  2  0  0  0  0
 21  2  1  0  0  0  0
 22 27  1  0  0  0  0
 23 29  1  0  0  0  0
 23 31  1  0  0  0  0
 24 23  1  0  0  0  0
 25 23  1  0  0  0  0
 26 30  1  6  0  0  0
 26 28  1  0  0  0  0
 27 21  1  1  0  0  0
 27 33  1  0  0  0  0
 28 27  1  0  0  0  0
 29 30  1  0  0  0  0
 32 31  1  6  0  0  0
 32 26  1  0  0  0  0
 32 22  1  0  0  0  0
 33 35  1  0  0  0  0
 35 38  1  0  0  0  0
 35 34  1  1  0  0  0
 36 38  2  0  0  0  0
 38 37  1  0  0  0  0
M  END
>  <MODEL>
1

>  <REMARK>
 VINA RESULT:      -9.1      0.000      0.000
  Name = 
  10 active torsions:
  status: ('A' for Active; 'I' for Inactive)
    1  A    between atoms: C_1  and  N_17
    2  A    between atoms: C_1  and  C_31
    3  A    between atoms: C_3  and  C_22
    4  A    between atoms: C_15  and  C_19
    5  A    between atoms: C_15  and  C_38
    6  A    between atoms: C_16  and  C_35
    7  A    between atoms: C_18  and  C_19
    8  A    between atoms: C_18  and  C_22
    9  A    between atoms: C_21  and  C_31
   10  A    between atoms: C_31  and  C_33
                            x       y       z     vdW  Elec       q    Type
                         _______ _______ _______ _____ _____    ______ ____

>  <TORSDO>
F 10

$$$$
=
 OpenBabel11062414383D

 38 40  0  0  1  0  0  0  0  0999 V2000
  184.1050  179.5550  143.6240 C   0  0  0  0  0  2  0  0  0  0  0  0
  186.6390  177.6420  143.5740 C   0  0  0  0  0  0  0  0  0  0  0  0
  185.2000  178.3200  145.5840 C   0  0  0  0  0  0  0  0  0  0  0  0
  184.2570  179.1080  145.0450 C   0  0  0  0  0  3  0  0  0  0  0  0
  186.2840  177.6090  144.8650 C   0  0  0  0  0  3  0  0  0  0  0  0
  185.1220  178.1010  146.9520 O   0  0  0  0  0  1  0  0  0  0  0  0
  186.0210  178.5330  142.5500 C   0  0  0  0  0  2  0  0  0  0  0  0
  184.5140  178.4910  142.6290 C   0  0  2  0  0  3  0  0  0  0  0  0
  183.9140  178.7810  141.2930 C   0  0  0  0  0  0  0  0  0  0  0  0
  182.5460  178.4510  141.0620 N   0  0  0  0  0  2  0  0  0  0  0  0
  184.5980  179.3460  140.3920 O   0  0  0  0  0  0  0  0  0  0  0  0
  181.9080  178.6580  139.7690 C   0  0  0  0  0  2  0  0  0  0  0  0
  180.4660  176.8010  140.4570 C   0  0  0  0  0  1  0  0  0  0  0  0
  181.2040  177.3890  139.2610 C   0  0  2  0  0  0  0  0  0  0  0  0
  181.5510  175.3500  137.7690 C   0  0  0  0  0  1  0  0  0  0  0  0
  183.3440  177.0330  137.9170 C   0  0  0  0  0  1  0  0  0  0  0  0
  182.2270  176.3500  138.6990 C   0  0  0  0  0  0  0  0  0  0  0  0
  182.8090  175.6410  139.7350 F   0  0  0  0  0  0  0  0  0  0  0  0
  179.5250  178.7930  138.3020 O   0  0  0  0  0  0  0  0  0  0  0  0
  180.1560  177.7470  138.2390 C   0  0  0  0  0  3  0  0  0  0  0  0
  187.7450  176.7380  143.1220 C   0  0  0  0  0  2  0  0  0  0  0  0
  188.4890  178.5770  141.5550 C   0  0  0  0  0  2  0  0  0  0  0  0
  189.2300  178.1250  137.7880 C   0  0  0  0  0  0  0  0  0  0  0  0
  188.0310  177.5590  137.3910 F   0  0  0  0  0  0  0  0  0  0  0  0
  189.6710  178.9720  136.7920 F   0  0  0  0  0  0  0  0  0  0  0  0
  189.9750  177.1650  140.3930 N   0  0  1  0  0  0  0  0  0  0  0  0
  188.9460  177.4820  142.5220 C   0  0  2  0  0  0  0  0  0  0  0  0
  189.7310  176.4910  141.6570 C   0  0  0  0  0  2  0  0  0  0  0  0
  190.2740  177.0050  137.9900 C   0  0  0  0  0  2  0  0  0  0  0  0
  190.0200  176.2200  139.2870 C   0  0  0  0  0  2  0  0  0  0  0  0
  189.0040  178.9420  139.0730 C   0  0  0  0  0  2  0  0  0  0  0  0
  188.7820  177.9650  140.2140 C   0  0  2  0  0  3  0  0  0  0  0  0
  189.8290  178.0480  143.6440 C   0  0  0  0  0  2  0  0  0  0  0  0
  189.4850  177.8910  146.1210 C   0  0  0  0  0  1  0  0  0  0  0  0
  189.9310  177.1470  144.8720 C   0  0  2  0  0  3  0  0  0  0  0  0
  192.0000  177.0130  146.0440 O   0  0  0  0  0  1  0  0  0  0  0  0
  191.9100  175.8300  144.0860 O   0  0  0  0  0  0  0  0  0  0  0  0
  191.3360  176.6710  145.0310 C   0  0  0  0  0  0  0  0  0  0  0  0
  1  4  1  0  0  0  0
  2  5  2  0  0  0  0
  3  6  1  0  0  0  0
  4  3  2  0  0  0  0
  5  3  1  0  0  0  0
  7  8  1  0  0  0  0
  7  2  1  0  0  0  0
  8  9  1  6  0  0  0
  8  1  1  0  0  0  0
 10  9  1  0  0  0  0
 11  9  2  0  0  0  0
 12 10  1  0  0  0  0
 14 12  1  0  0  0  0
 14 13  1  1  0  0  0
 15 17  1  0  0  0  0
 16 17  1  0  0  0  0
 17 14  1  0  0  0  0
 17 18  1  0  0  0  0
 20 19  2  0  0  0  0
 20 14  1  0  0  0  0
 21  2  1  0  0  0  0
 22 27  1  0  0  0  0
 23 29  1  0  0  0  0
 23 31  1  0  0  0  0
 24 23  1  0  0  0  0
 25 23  1  0  0  0  0
 26 30  1  6  0  0  0
 26 28  1  0  0  0  0
 27 21  1  1  0  0  0
 27 33  1  0  0  0  0
 28 27  1  0  0  0  0
 29 30  1  0  0  0  0
 32 31  1  6  0  0  0
 32 26  1  0  0  0  0
 32 22  1  0  0  0  0
 33 35  1  0  0  0  0
 35 38  1  0  0  0  0
 35 34  1  1  0  0  0
 37 38  2  0  0  0  0
 38 36  1  0  0  0  0
M  END
>  <MODEL>
2

>  <REMARK>
 VINA RESULT:      -8.4      1.444      1.889
  Name = 
  10 active torsions:
  status: ('A' for Active; 'I' for Inactive)
    1  A    between atoms: C_1  and  N_17
    2  A    between atoms: C_1  and  C_31
    3  A    between atoms: C_3  and  C_22
    4  A    between atoms: C_15  and  C_19
    5  A    between atoms: C_15  and  C_38
    6  A    between atoms: C_16  and  C_35
    7  A    between atoms: C_18  and  C_19
    8  A    between atoms: C_18  and  C_22
    9  A    between atoms: C_21  and  C_31
   10  A    between atoms: C_31  and  C_33
                            x       y       z     vdW  Elec       q    Type
                         _______ _______ _______ _____ _____    ______ ____

>  <TORSDO>
F 10

$$$$
=
 OpenBabel11062414383D

 38 40  0  0  1  0  0  0  0  0999 V2000
  184.4670  179.4970  143.5450 C   0  0  0  0  0  2  0  0  0  0  0  0
  186.9280  177.4910  143.6280 C   0  0  0  0  0  0  0  0  0  0  0  0
  185.3740  178.1800  145.5470 C   0  0  0  0  0  0  0  0  0  0  0  0
  184.5020  179.0140  144.9630 C   0  0  0  0  0  3  0  0  0  0  0  0
  186.4810  177.4440  144.8900 C   0  0  0  0  0  3  0  0  0  0  0  0
  185.1910  177.9340  146.9000 O   0  0  0  0  0  1  0  0  0  0  0  0
  186.4170  178.4270  142.5850 C   0  0  0  0  0  2  0  0  0  0  0  0
  184.9070  178.4400  142.5560 C   0  0  2  0  0  3  0  0  0  0  0  0
  184.4160  178.7810  141.1890 C   0  0  0  0  0  0  0  0  0  0  0  0
  183.0790  178.4380  140.8280 N   0  0  0  0  0  2  0  0  0  0  0  0
  185.1590  179.4000  140.3760 O   0  0  0  0  0  0  0  0  0  0  0  0
  182.5470  178.6920  139.4970 C   0  0  0  0  0  2  0  0  0  0  0  0
  182.5020  176.2500  139.6890 C   0  0  0  0  0  1  0  0  0  0  0  0
  182.3390  177.3950  138.6980 C   0  0  2  0  0  0  0  0  0  0  0  0
  184.0960  175.9130  137.5950 C   0  0  0  0  0  1  0  0  0  0  0  0
  182.7210  177.3820  136.1750 C   0  0  0  0  0  1  0  0  0  0  0  0
  183.3820  177.2570  137.5430 C   0  0  0  0  0  0  0  0  0  0  0  0
  184.3410  178.2510  137.6410 F   0  0  0  0  0  0  0  0  0  0  0  0
  180.1790  176.3980  138.4740 O   0  0  0  0  0  0  0  0  0  0  0  0
  180.9240  177.3220  138.1810 C   0  0  0  0  0  3  0  0  0  0  0  0
  188.0310  176.5560  143.2330 C   0  0  0  0  0  2  0  0  0  0  0  0
  190.4540  176.0150  143.7090 C   0  0  0  0  0  2  0  0  0  0  0  0
  192.0180  175.7310  147.2320 C   0  0  0  0  0  0  0  0  0  0  0  0
  191.1600  174.7950  147.7830 F   0  0  0  0  0  0  0  0  0  0  0  0
  193.2950  175.4870  147.6950 F   0  0  0  0  0  0  0  0  0  0  0  0
  190.5720  177.5250  145.5140 N   0  0  1  0  0  0  0  0  0  0  0  0
  189.4370  177.1300  143.4530 C   0  0  2  0  0  0  0  0  0  0  0  0
  189.4140  177.9510  144.7460 C   0  0  0  0  0  2  0  0  0  0  0  0
  191.5830  177.1420  147.6860 C   0  0  0  0  0  2  0  0  0  0  0  0
  190.3210  177.6130  146.9450 C   0  0  0  0  0  2  0  0  0  0  0  0
  192.0070  175.5890  145.7000 C   0  0  0  0  0  2  0  0  0  0  0  0
  190.6780  176.1180  145.1910 C   0  0  2  0  0  3  0  0  0  0  0  0
  189.8430  178.0050  142.2570 C   0  0  0  0  0  2  0  0  0  0  0  0
  191.5250  177.4460  140.4860 C   0  0  0  0  0  1  0  0  0  0  0  0
  190.1020  177.2210  140.9720 C   0  0  2  0  0  3  0  0  0  0  0  0
  188.7270  176.8030  139.0730 O   0  0  0  0  0  0  0  0  0  0  0  0
  188.6350  178.9390  139.8910 O   0  0  0  0  0  1  0  0  0  0  0  0
  189.1270  177.6400  139.9220 C   0  0  0  0  0  0  0  0  0  0  0  0
  1  4  1  0  0  0  0
  2  5  2  0  0  0  0
  3  6  1  0  0  0  0
  4  3  2  0  0  0  0
  5  3  1  0  0  0  0
  7  2  1  0  0  0  0
  8  9  1  6  0  0  0
  8  7  1  0  0  0  0
  8  1  1  0  0  0  0
 10  9  1  0  0  0  0
 11  9  2  0  0  0  0
 12 10  1  0  0  0  0
 14 12  1  0  0  0  0
 14 13  1  1  0  0  0
 16 17  1  0  0  0  0
 17 15  1  0  0  0  0
 17 18  1  0  0  0  0
 17 14  1  0  0  0  0
 20 19  2  0  0  0  0
 20 14  1  0  0  0  0
 21 27  1  0  0  0  0
 21  2  1  0  0  0  0
 23 29  1  0  0  0  0
 23 25  1  0  0  0  0
 23 24  1  0  0  0  0
 26 28  1  6  0  0  0
 26 30  1  0  0  0  0
 27 33  1  6  0  0  0
 27 22  1  0  0  0  0
 27 28  1  0  0  0  0
 30 29  1  0  0  0  0
 31 23  1  0  0  0  0
 32 22  1  6  0  0  0
 32 26  1  0  0  0  0
 32 31  1  0  0  0  0
 35 34  1  6  0  0  0
 35 33  1  0  0  0  0
 36 38  2  0  0  0  0
 37 38  1  0  0  0  0
 38 35  1  0  0  0  0
M  END
>  <MODEL>
3

>  <REMARK>
 VINA RESULT:      -8.4      3.287      4.940
  Name = 
  10 active torsions:
  status: ('A' for Active; 'I' for Inactive)
    1  A    between atoms: C_1  and  N_17
    2  A    between atoms: C_1  and  C_31
    3  A    between atoms: C_3  and  C_22
    4  A    between atoms: C_15  and  C_19
    5  A    between atoms: C_15  and  C_38
    6  A    between atoms: C_16  and  C_35
    7  A    between atoms: C_18  and  C_19
    8  A    between atoms: C_18  and  C_22
    9  A    between atoms: C_21  and  C_31
   10  A    between atoms: C_31  and  C_33
                            x       y       z     vdW  Elec       q    Type
                         _______ _______ _______ _____ _____    ______ ____

>  <TORSDO>
F 10

$$$$
=
 OpenBabel11062414383D

 38 40  0  0  1  0  0  0  0  0999 V2000
  184.3180  178.5170  143.2510 C   0  0  0  0  0  2  0  0  0  0  0  0
  182.3160  178.0860  140.8240 C   0  0  0  0  0  0  0  0  0  0  0  0
  181.8040  179.0060  143.1610 C   0  0  0  0  0  0  0  0  0  0  0  0
  182.9990  179.0030  143.7700 C   0  0  0  0  0  3  0  0  0  0  0  0
  181.5160  178.6100  141.7620 C   0  0  0  0  0  3  0  0  0  0  0  0
  180.7300  179.4830  143.8990 O   0  0  0  0  0  1  0  0  0  0  0  0
  183.7360  177.6910  141.0490 C   0  0  0  0  0  2  0  0  0  0  0  0
  184.4960  178.7780  141.7720 C   0  0  2  0  0  3  0  0  0  0  0  0
  185.9440  178.7260  141.4130 C   0  0  0  0  0  0  0  0  0  0  0  0
  186.8870  178.3180  142.4030 N   0  0  0  0  0  2  0  0  0  0  0  0
  186.3260  179.0030  140.2410 O   0  0  0  0  0  0  0  0  0  0  0  0
  188.3200  178.2930  142.1420 C   0  0  0  0  0  2  0  0  0  0  0  0
  187.9620  176.3190  143.5480 C   0  0  0  0  0  1  0  0  0  0  0  0
  189.0450  177.2310  142.9860 C   0  0  2  0  0  0  0  0  0  0  0  0
  189.0670  177.8780  145.4520 C   0  0  0  0  0  1  0  0  0  0  0  0
  191.1660  177.1360  144.4000 C   0  0  0  0  0  1  0  0  0  0  0  0
  189.8590  177.8790  144.1510 C   0  0  0  0  0  0  0  0  0  0  0  0
  190.1710  179.1920  143.8450 F   0  0  0  0  0  0  0  0  0  0  0  0
  190.1770  176.6860  140.9530 O   0  0  0  0  0  0  0  0  0  0  0  0
  189.9190  176.3730  142.1060 C   0  0  0  0  0  3  0  0  0  0  0  0
  181.7470  177.8610  139.4560 C   0  0  0  0  0  2  0  0  0  0  0  0
  182.6620  180.1560  138.9210 C   0  0  0  0  0  2  0  0  0  0  0  0
  180.5760  183.1280  137.5960 C   0  0  0  0  0  0  0  0  0  0  0  0
  179.6030  183.1740  138.5790 F   0  0  0  0  0  0  0  0  0  0  0  0
  180.8840  184.4190  137.2170 F   0  0  0  0  0  0  0  0  0  0  0  0
  181.2900  180.4040  137.0210 N   0  0  1  0  0  0  0  0  0  0  0  0
  182.3640  178.7580  138.3740 C   0  0  2  0  0  0  0  0  0  0  0  0
  181.3110  178.9740  137.2840 C   0  0  0  0  0  2  0  0  0  0  0  0
  180.0210  182.3670  136.3730 C   0  0  0  0  0  2  0  0  0  0  0  0
  179.9630  180.8520  136.6240 C   0  0  0  0  0  2  0  0  0  0  0  0
  181.8410  182.4610  138.1650 C   0  0  0  0  0  2  0  0  0  0  0  0
  181.5560  180.9780  138.3240 C   0  0  2  0  0  3  0  0  0  0  0  0
  183.6240  178.0950  137.7950 C   0  0  0  0  0  2  0  0  0  0  0  0
  183.8440  175.6030  137.6580 C   0  0  0  0  0  1  0  0  0  0  0  0
  183.3430  176.8530  136.9530 C   0  0  2  0  0  3  0  0  0  0  0  0
  183.3660  177.4990  134.6600 O   0  0  0  0  0  0  0  0  0  0  0  0
  185.3180  176.5870  135.4360 O   0  0  0  0  0  1  0  0  0  0  0  0
  184.0010  176.9900  135.6200 C   0  0  0  0  0  0  0  0  0  0  0  0
  1  4  1  0  0  0  0
  2  7  1  0  0  0  0
  2  5  2  0  0  0  0
  3  4  2  0  0  0  0
  3  6  1  0  0  0  0
  5  3  1  0  0  0  0
  7  8  1  0  0  0  0
  8  9  1  6  0  0  0
  8  1  1  0  0  0  0
  9 10  1  0  0  0  0
 11  9  2  0  0  0  0
 12 10  1  0  0  0  0
 12 14  1  0  0  0  0
 14 13  1  1  0  0  0
 14 17  1  0  0  0  0
 17 16  1  0  0  0  0
 17 15  1  0  0  0  0
 18 17  1  0  0  0  0
 19 20  2  0  0  0  0
 20 14  1  0  0  0  0
 21  2  1  0  0  0  0
 23 31  1  0  0  0  0
 23 24  1  0  0  0  0
 25 23  1  0  0  0  0
 26 30  1  1  0  0  0
 26 28  1  0  0  0  0
 26 32  1  0  0  0  0
 27 33  1  6  0  0  0
 27 22  1  0  0  0  0
 27 21  1  0  0  0  0
 28 27  1  0  0  0  0
 29 30  1  0  0  0  0
 29 23  1  0  0  0  0
 32 31  1  6  0  0  0
 32 22  1  0  0  0  0
 35 34  1  1  0  0  0
 35 33  1  0  0  0  0
 36 38  2  0  0  0  0
 37 38  1  0  0  0  0
 38 35  1  0  0  0  0
M  END
>  <MODEL>
4

>  <REMARK>
 VINA RESULT:      -7.7      3.186      8.277
  Name = 
  10 active torsions:
  status: ('A' for Active; 'I' for Inactive)
    1  A    between atoms: C_1  and  N_17
    2  A    between atoms: C_1  and  C_31
    3  A    between atoms: C_3  and  C_22
    4  A    between atoms: C_15  and  C_19
    5  A    between atoms: C_15  and  C_38
    6  A    between atoms: C_16  and  C_35
    7  A    between atoms: C_18  and  C_19
    8  A    between atoms: C_18  and  C_22
    9  A    between atoms: C_21  and  C_31
   10  A    between atoms: C_31  and  C_33
                            x       y       z     vdW  Elec       q    Type
                         _______ _______ _______ _____ _____    ______ ____

>  <TORSDO>
F 10

$$$$
=
 OpenBabel11062414383D

 38 40  0  0  1  0  0  0  0  0999 V2000
  184.4480  179.3470  143.0980 C   0  0  0  0  0  2  0  0  0  0  0  0
  186.9680  177.4440  143.4290 C   0  0  0  0  0  0  0  0  0  0  0  0
  185.3270  178.2350  145.2320 C   0  0  0  0  0  0  0  0  0  0  0  0
  184.4490  178.9870  144.5520 C   0  0  0  0  0  3  0  0  0  0  0  0
  186.4790  177.4860  144.6760 C   0  0  0  0  0  3  0  0  0  0  0  0
  185.1050  178.0980  146.5950 O   0  0  0  0  0  1  0  0  0  0  0  0
  186.4640  178.2700  142.2950 C   0  0  0  0  0  2  0  0  0  0  0  0
  184.9560  178.2280  142.2170 C   0  0  2  0  0  3  0  0  0  0  0  0
  184.5020  178.4360  140.8110 C   0  0  0  0  0  0  0  0  0  0  0  0
  185.4650  178.3990  139.7600 N   0  0  0  0  0  2  0  0  0  0  0  0
  183.2770  178.6050  140.5510 O   0  0  0  0  0  0  0  0  0  0  0  0
  185.1040  178.6450  138.3700 C   0  0  0  0  0  2  0  0  0  0  0  0
  186.0580  178.0270  136.2000 C   0  0  0  0  0  1  0  0  0  0  0  0
  185.4370  177.4470  137.4640 C   0  0  2  0  0  0  0  0  0  0  0  0
  183.7990  176.7680  135.6310 C   0  0  0  0  0  1  0  0  0  0  0  0
  184.3460  175.1410  137.3990 C   0  0  0  0  0  1  0  0  0  0  0  0
  184.1580  176.6260  137.1050 C   0  0  0  0  0  0  0  0  0  0  0  0
  183.0780  177.0690  137.8490 F   0  0  0  0  0  0  0  0  0  0  0  0
  187.5230  176.2830  137.5240 O   0  0  0  0  0  0  0  0  0  0  0  0
  186.4910  176.5830  138.1080 C   0  0  0  0  0  3  0  0  0  0  0  0
  188.1130  176.5180  143.1500 C   0  0  0  0  0  2  0  0  0  0  0  0
  190.5340  176.0490  143.7050 C   0  0  0  0  0  2  0  0  0  0  0  0
  191.9770  175.7410  147.2780 C   0  0  0  0  0  0  0  0  0  0  0  0
  191.1330  174.7650  147.7770 F   0  0  0  0  0  0  0  0  0  0  0  0
  193.2440  175.5300  147.7830 F   0  0  0  0  0  0  0  0  0  0  0  0
  190.5340  177.5220  145.5440 N   0  0  1  0  0  0  0  0  0  0  0  0
  189.4900  177.1340  143.4350 C   0  0  2  0  0  0  0  0  0  0  0  0
  189.3910  177.9250  144.7430 C   0  0  0  0  0  2  0  0  0  0  0  0
  191.4780  177.1250  147.7440 C   0  0  0  0  0  2  0  0  0  0  0  0
  190.2280  177.5700  146.9670 C   0  0  0  0  0  2  0  0  0  0  0  0
  192.0280  175.6320  145.7440 C   0  0  0  0  0  2  0  0  0  0  0  0
  190.7010  176.1270  145.1970 C   0  0  2  0  0  3  0  0  0  0  0  0
  189.9090  178.0480  142.2730 C   0  0  0  0  0  2  0  0  0  0  0  0
  192.0230  177.5690  141.0160 C   0  0  0  0  0  1  0  0  0  0  0  0
  190.5270  177.3070  141.0890 C   0  0  2  0  0  3  0  0  0  0  0  0
  190.3160  177.3470  138.7170 O   0  0  0  0  0  0  0  0  0  0  0  0
  188.7400  178.5560  139.8560 O   0  0  0  0  0  1  0  0  0  0  0  0
  189.8660  177.7420  139.8240 C   0  0  0  0  0  0  0  0  0  0  0  0
  1  4  1  0  0  0  0
  2  5  2  0  0  0  0
  3  6  1  0  0  0  0
  4  3  2  0  0  0  0
  5  3  1  0  0  0  0
  7  2  1  0  0  0  0
  8  9  1  6  0  0  0
  8  7  1  0  0  0  0
  8  1  1  0  0  0  0
 10  9  1  0  0  0  0
 11  9  2  0  0  0  0
 12 10  1  0  0  0  0
 14 13  1  6  0  0  0
 14 20  1  0  0  0  0
 14 12  1  0  0  0  0
 15 17  1  0  0  0  0
 17 16  1  0  0  0  0
 17 14  1  0  0  0  0
 17 18  1  0  0  0  0
 19 20  2  0  0  0  0
 21  2  1  0  0  0  0
 21 27  1  0  0  0  0
 23 29  1  0  0  0  0
 23 24  1  0  0  0  0
 23 25  1  0  0  0  0
 26 28  1  6  0  0  0
 26 30  1  0  0  0  0
 27 33  1  6  0  0  0
 27 22  1  0  0  0  0
 27 28  1  0  0  0  0
 30 29  1  0  0  0  0
 31 23  1  0  0  0  0
 32 22  1  6  0  0  0
 32 26  1  0  0  0  0
 32 31  1  0  0  0  0
 35 34  1  6  0  0  0
 35 33  1  0  0  0  0
 36 38  2  0  0  0  0
 38 37  1  0  0  0  0
 38 35  1  0  0  0  0
M  END
>  <MODEL>
5

>  <REMARK>
 VINA RESULT:      -7.5      3.438      4.963
  Name = 
  10 active torsions:
  status: ('A' for Active; 'I' for Inactive)
    1  A    between atoms: C_1  and  N_17
    2  A    between atoms: C_1  and  C_31
    3  A    between atoms: C_3  and  C_22
    4  A    between atoms: C_15  and  C_19
    5  A    between atoms: C_15  and  C_38
    6  A    between atoms: C_16  and  C_35
    7  A    between atoms: C_18  and  C_19
    8  A    between atoms: C_18  and  C_22
    9  A    between atoms: C_21  and  C_31
   10  A    between atoms: C_31  and  C_33
                            x       y       z     vdW  Elec       q    Type
                         _______ _______ _______ _____ _____    ______ ____

>  <TORSDO>
F 10

$$$$
=
 OpenBabel11062414383D

 38 40  0  0  1  0  0  0  0  0999 V2000
  187.7920  177.9050  137.1480 C   0  0  0  0  0  2  0  0  0  0  0  0
  184.8250  177.6490  138.2500 C   0  0  0  0  0  0  0  0  0  0  0  0
  185.7900  176.7370  136.0570 C   0  0  0  0  0  0  0  0  0  0  0  0
  187.0800  177.0990  136.1050 C   0  0  0  0  0  3  0  0  0  0  0  0
  184.7590  176.9710  137.0970 C   0  0  0  0  0  3  0  0  0  0  0  0
  185.3850  176.0180  134.9410 O   0  0  0  0  0  1  0  0  0  0  0  0
  186.0110  178.4310  138.7030 C   0  0  0  0  0  2  0  0  0  0  0  0
  187.2830  177.6330  138.5460 C   0  0  2  0  0  3  0  0  0  0  0  0
  188.2970  178.0650  139.5530 C   0  0  0  0  0  0  0  0  0  0  0  0
  187.9830  177.9580  140.9400 N   0  0  0  0  0  2  0  0  0  0  0  0
  189.4300  178.4840  139.1830 O   0  0  0  0  0  0  0  0  0  0  0  0
  188.9000  178.4070  141.9780 C   0  0  0  0  0  2  0  0  0  0  0  0
  188.2040  176.3750  143.1560 C   0  0  0  0  0  1  0  0  0  0  0  0
  189.4160  177.2430  142.8410 C   0  0  2  0  0  0  0  0  0  0  0  0
  190.7220  179.1170  143.9750 C   0  0  0  0  0  1  0  0  0  0  0  0
  189.0390  177.8820  145.2820 C   0  0  0  0  0  1  0  0  0  0  0  0
  190.0680  177.7540  144.1650 C   0  0  0  0  0  0  0  0  0  0  0  0
  191.0450  176.8710  144.5910 F   0  0  0  0  0  0  0  0  0  0  0  0
  191.3630  176.8530  141.5130 O   0  0  0  0  0  0  0  0  0  0  0  0
  190.3670  176.3860  142.0460 C   0  0  0  0  0  3  0  0  0  0  0  0
  183.6220  177.6430  139.1440 C   0  0  0  0  0  2  0  0  0  0  0  0
  184.7750  179.2760  140.6920 C   0  0  0  0  0  2  0  0  0  0  0  0
  184.9100  178.9720  144.5430 C   0  0  0  0  0  0  0  0  0  0  0  0
  185.4370  177.6970  144.6490 F   0  0  0  0  0  0  0  0  0  0  0  0
  185.4420  179.7560  145.5460 F   0  0  0  0  0  0  0  0  0  0  0  0
  183.0850  179.1200  142.3270 N   0  0  1  0  0  0  0  0  0  0  0  0
  183.4670  178.9200  139.9810 C   0  0  2  0  0  0  0  0  0  0  0  0
  182.4700  178.6280  141.1050 C   0  0  0  0  0  2  0  0  0  0  0  0
  183.3780  178.9000  144.7260 C   0  0  0  0  0  2  0  0  0  0  0  0
  182.6840  178.3260  143.4800 C   0  0  0  0  0  2  0  0  0  0  0  0
  185.3000  179.5720  143.1810 C   0  0  0  0  0  2  0  0  0  0  0  0
  184.4930  178.8620  142.1090 C   0  0  2  0  0  3  0  0  0  0  0  0
  182.9720  180.0730  139.0940 C   0  0  0  0  0  2  0  0  0  0  0  0
  181.3780  179.7300  137.1920 C   0  0  0  0  0  1  0  0  0  0  0  0
  181.5040  179.9620  138.6890 C   0  0  2  0  0  3  0  0  0  0  0  0
  180.1880  181.2630  140.1890 O   0  0  0  0  0  1  0  0  0  0  0  0
  180.7740  182.3160  138.2410 O   0  0  0  0  0  0  0  0  0  0  0  0
  180.7790  181.2070  139.0790 C   0  0  0  0  0  0  0  0  0  0  0  0
  1  8  1  0  0  0  0
  2  7  1  0  0  0  0
  2 21  1  0  0  0  0
  3  4  2  0  0  0  0
  3  5  1  0  0  0  0
  4  1  1  0  0  0  0
  5  2  2  0  0  0  0
  6  3  1  0  0  0  0
  8  7  1  0  0  0  0
  8  9  1  1  0  0  0
  9 10  1  0  0  0  0
 10 12  1  0  0  0  0
 11  9  2  0  0  0  0
 12 14  1  0  0  0  0
 14 13  1  1  0  0  0
 14 17  1  0  0  0  0
 15 17  1  0  0  0  0
 17 18  1  0  0  0  0
 17 16  1  0  0  0  0
 19 20  2  0  0  0  0
 20 14  1  0  0  0  0
 21 27  1  0  0  0  0
 23 24  1  0  0  0  0
 23 29  1  0  0  0  0
 23 25  1  0  0  0  0
 26 28  1  6  0  0  0
 26 30  1  0  0  0  0
 27 33  1  6  0  0  0
 27 22  1  0  0  0  0
 27 28  1  0  0  0  0
 30 29  1  0  0  0  0
 31 23  1  0  0  0  0
 32 22  1  6  0  0  0
 32 26  1  0  0  0  0
 32 31  1  0  0  0  0
 35 34  1  6  0  0  0
 35 38  1  0  0  0  0
 35 33  1  0  0  0  0
 37 38  2  0  0  0  0
 38 36  1  0  0  0  0
M  END
>  <MODEL>
6

>  <REMARK>
 VINA RESULT:      -7.5      3.184      8.672
  Name = 
  10 active torsions:
  status: ('A' for Active; 'I' for Inactive)
    1  A    between atoms: C_1  and  N_17
    2  A    between atoms: C_1  and  C_31
    3  A    between atoms: C_3  and  C_22
    4  A    between atoms: C_15  and  C_19
    5  A    between atoms: C_15  and  C_38
    6  A    between atoms: C_16  and  C_35
    7  A    between atoms: C_18  and  C_19
    8  A    between atoms: C_18  and  C_22
    9  A    between atoms: C_21  and  C_31
   10  A    between atoms: C_31  and  C_33
                            x       y       z     vdW  Elec       q    Type
                         _______ _______ _______ _____ _____    ______ ____

>  <TORSDO>
F 10

$$$$
=
 OpenBabel11062414383D

 38 40  0  0  1  0  0  0  0  0999 V2000
  190.0900  176.8040  138.2900 C   0  0  0  0  0  2  0  0  0  0  0  0
  187.6050  177.1070  136.3370 C   0  0  0  0  0  0  0  0  0  0  0  0
  189.5350  175.4250  136.2040 C   0  0  0  0  0  0  0  0  0  0  0  0
  190.2810  175.7160  137.2790 C   0  0  0  0  0  3  0  0  0  0  0  0
  188.2580  176.0660  135.8050 C   0  0  0  0  0  3  0  0  0  0  0  0
  189.9710  174.3760  135.4070 O   0  0  0  0  0  1  0  0  0  0  0  0
  188.1160  177.9400  137.4640 C   0  0  0  0  0  2  0  0  0  0  0  0
  188.6330  177.0760  138.5900 C   0  0  2  0  0  3  0  0  0  0  0  0
  188.5020  177.7880  139.8940 C   0  0  0  0  0  0  0  0  0  0  0  0
  189.4420  177.5130  140.9310 N   0  0  0  0  0  2  0  0  0  0  0  0
  187.5940  178.6510  140.0660 O   0  0  0  0  0  0  0  0  0  0  0  0
  189.3470  178.1300  142.2460 C   0  0  0  0  0  2  0  0  0  0  0  0
  188.1840  176.4200  143.5590 C   0  0  0  0  0  1  0  0  0  0  0  0
  189.5300  177.1090  143.3810 C   0  0  2  0  0  0  0  0  0  0  0  0
  188.8200  177.8150  145.7260 C   0  0  0  0  0  1  0  0  0  0  0  0
  191.1450  177.0920  145.3570 C   0  0  0  0  0  1  0  0  0  0  0  0
  189.9580  177.8020  144.7140 C   0  0  0  0  0  0  0  0  0  0  0  0
  190.3300  179.1130  144.4760 F   0  0  0  0  0  0  0  0  0  0  0  0
  190.1790  174.8700  142.8540 O   0  0  0  0  0  0  0  0  0  0  0  0
  190.5120  176.0410  142.9680 C   0  0  0  0  0  3  0  0  0  0  0  0
  186.2760  177.4810  135.7530 C   0  0  0  0  0  2  0  0  0  0  0  0
  185.4820  175.8060  137.4710 C   0  0  0  0  0  2  0  0  0  0  0  0
  184.0810  172.2930  136.6670 C   0  0  0  0  0  0  0  0  0  0  0  0
  185.1300  171.8020  135.9110 F   0  0  0  0  0  0  0  0  0  0  0  0
  183.5720  171.2670  137.4370 F   0  0  0  0  0  0  0  0  0  0  0  0
  183.6820  175.0880  136.1290 N   0  0  1  0  0  0  0  0  0  0  0  0
  185.0780  176.9720  136.5660 C   0  0  2  0  0  0  0  0  0  0  0  0
  184.0610  176.3820  135.5860 C   0  0  0  0  0  2  0  0  0  0  0  0
  182.9730  172.8040  135.7210 C   0  0  0  0  0  2  0  0  0  0  0  0
  183.3540  174.1440  135.0710 C   0  0  0  0  0  2  0  0  0  0  0  0
  184.6020  173.4030  137.5970 C   0  0  0  0  0  2  0  0  0  0  0  0
  184.9060  174.6220  136.7440 C   0  0  2  0  0  3  0  0  0  0  0  0
  184.4590  178.1260  137.3710 C   0  0  0  0  0  2  0  0  0  0  0  0
  182.7810  177.2640  139.0190 C   0  0  0  0  0  1  0  0  0  0  0  0
  184.1950  177.7920  138.8370 C   0  0  2  0  0  3  0  0  0  0  0  0
  184.5540  180.1290  139.1210 O   0  0  0  0  0  0  0  0  0  0  0  0
  184.3990  178.9230  141.0610 O   0  0  0  0  0  1  0  0  0  0  0  0
  184.4020  179.0090  139.6750 C   0  0  0  0  0  0  0  0  0  0  0  0
  1  8  1  0  0  0  0
  2  7  1  0  0  0  0
  3  4  2  0  0  0  0
  4  1  1  0  0  0  0
  5  3  1  0  0  0  0
  5  2  2  0  0  0  0
  6  3  1  0  0  0  0
  7  8  1  0  0  0  0
  8  9  1  1  0  0  0
  9 11  2  0  0  0  0
  9 10  1  0  0  0  0
 10 12  1  0  0  0  0
 12 14  1  0  0  0  0
 14 13  1  1  0  0  0
 14 17  1  0  0  0  0
 17 16  1  0  0  0  0
 17 15  1  0  0  0  0
 18 17  1  0  0  0  0
 19 20  2  0  0  0  0
 20 14  1  0  0  0  0
 21  2  1  0  0  0  0
 23 25  1  0  0  0  0
 23 31  1  0  0  0  0
 24 23  1  0  0  0  0
 26 30  1  6  0  0  0
 26 32  1  0  0  0  0
 27 21  1  6  0  0  0
 27 33  1  0  0  0  0
 27 22  1  0  0  0  0
 28 26  1  0  0  0  0
 28 27  1  0  0  0  0
 29 23  1  0  0  0  0
 30 29  1  0  0  0  0
 32 22  1  1  0  0  0
 32 31  1  0  0  0  0
 33 35  1  0  0  0  0
 35 34  1  6  0  0  0
 35 38  1  0  0  0  0
 36 38  2  0  0  0  0
 38 37  1  0  0  0  0
M  END
>  <MODEL>
7

>  <REMARK>
 VINA RESULT:      -7.4      3.112      8.529
  Name = 
  10 active torsions:
  status: ('A' for Active; 'I' for Inactive)
    1  A    between atoms: C_1  and  N_17
    2  A    between atoms: C_1  and  C_31
    3  A    between atoms: C_3  and  C_22
    4  A    between atoms: C_15  and  C_19
    5  A    between atoms: C_15  and  C_38
    6  A    between atoms: C_16  and  C_35
    7  A    between atoms: C_18  and  C_19
    8  A    between atoms: C_18  and  C_22
    9  A    between atoms: C_21  and  C_31
   10  A    between atoms: C_31  and  C_33
                            x       y       z     vdW  Elec       q    Type
                         _______ _______ _______ _____ _____    ______ ____

>  <TORSDO>
F 10

$$$$
=
 OpenBabel11062414383D

 38 40  0  0  1  0  0  0  0  0999 V2000
  186.7010  177.6170  143.4380 C   0  0  0  0  0  2  0  0  0  0  0  0
  184.4300  178.8970  141.6240 C   0  0  0  0  0  0  0  0  0  0  0  0
  184.4910  178.6810  144.1780 C   0  0  0  0  0  0  0  0  0  0  0  0
  185.6750  178.0980  144.4170 C   0  0  0  0  0  3  0  0  0  0  0  0
  183.9460  179.0840  142.8590 C   0  0  0  0  0  3  0  0  0  0  0  0
  183.7140  178.9910  145.2850 O   0  0  0  0  0  1  0  0  0  0  0  0
  185.6580  178.1120  141.3080 C   0  0  0  0  0  2  0  0  0  0  0  0
  186.8020  178.5000  142.2140 C   0  0  2  0  0  3  0  0  0  0  0  0
  188.1080  178.2770  141.5280 C   0  0  0  0  0  0  0  0  0  0  0  0
  188.1590  178.3290  140.1030 N   0  0  0  0  0  2  0  0  0  0  0  0
  189.1610  178.0830  142.1990 O   0  0  0  0  0  0  0  0  0  0  0  0
  189.3860  178.0710  139.3630 C   0  0  0  0  0  2  0  0  0  0  0  0
  187.7140  176.8840  138.0220 C   0  0  0  0  0  1  0  0  0  0  0  0
  189.1100  177.4930  137.9650 C   0  0  2  0  0  0  0  0  0  0  0  0
  190.3890  176.3620  136.0710 C   0  0  0  0  0  1  0  0  0  0  0  0
  191.5010  176.6510  138.2500 C   0  0  0  0  0  1  0  0  0  0  0  0
  190.1560  176.4010  137.5760 C   0  0  0  0  0  0  0  0  0  0  0  0
  189.7140  175.1500  137.9700 F   0  0  0  0  0  0  0  0  0  0  0  0
  189.0410  179.7790  137.2710 O   0  0  0  0  0  0  0  0  0  0  0  0
  189.0560  178.6010  136.9440 C   0  0  0  0  0  3  0  0  0  0  0  0
  183.6820  179.4970  140.4730 C   0  0  0  0  0  2  0  0  0  0  0  0
  182.8500  177.1280  140.1830 C   0  0  0  0  0  2  0  0  0  0  0  0
  183.5730  174.8760  137.1250 C   0  0  0  0  0  0  0  0  0  0  0  0
  184.9550  174.9450  137.1180 F   0  0  0  0  0  0  0  0  0  0  0  0
  183.1910  173.6000  136.7660 F   0  0  0  0  0  0  0  0  0  0  0  0
  182.4480  177.4120  137.8790 N   0  0  1  0  0  0  0  0  0  0  0  0
  182.5500  178.6090  139.9400 C   0  0  2  0  0  0  0  0  0  0  0  0
  182.5090  178.7610  138.4170 C   0  0  0  0  0  2  0  0  0  0  0  0
  183.0140  175.8750  136.0880 C   0  0  0  0  0  2  0  0  0  0  0  0
  183.1130  177.3260  136.5860 C   0  0  0  0  0  2  0  0  0  0  0  0
  183.0570  175.1700  138.5450 C   0  0  0  0  0  2  0  0  0  0  0  0
  183.2490  176.6520  138.8150 C   0  0  2  0  0  3  0  0  0  0  0  0
  181.2120  179.0270  140.5680 C   0  0  0  0  0  2  0  0  0  0  0  0
  179.3620  177.3570  140.8230 C   0  0  0  0  0  1  0  0  0  0  0  0
  180.5910  177.9680  141.4760 C   0  0  2  0  0  3  0  0  0  0  0  0
  179.6730  177.8770  143.6720 O   0  0  0  0  0  1  0  0  0  0  0  0
  180.5190  179.9130  143.0520 O   0  0  0  0  0  0  0  0  0  0  0  0
  180.2270  178.5800  142.7870 C   0  0  0  0  0  0  0  0  0  0  0  0
  1  4  1  0  0  0  0
  2  5  2  0  0  0  0
  3  4  2  0  0  0  0
  3  6  1  0  0  0  0
  5  3  1  0  0  0  0
  7  2  1  0  0  0  0
  7  8  1  0  0  0  0
  8  9  1  6  0  0  0
  8  1  1  0  0  0  0
  9 11  2  0  0  0  0
 10  9  1  0  0  0  0
 12 10  1  0  0  0  0
 14 13  1  1  0  0  0
 14 12  1  0  0  0  0
 15 17  1  0  0  0  0
 17 14  1  0  0  0  0
 17 18  1  0  0  0  0
 17 16  1  0  0  0  0
 20 19  2  0  0  0  0
 20 14  1  0  0  0  0
 21  2  1  0  0  0  0
 23 31  1  0  0  0  0
 24 23  1  0  0  0  0
 25 23  1  0  0  0  0
 26 30  1  6  0  0  0
 26 28  1  0  0  0  0
 26 32  1  0  0  0  0
 27 22  1  0  0  0  0
 27 21  1  1  0  0  0
 27 33  1  0  0  0  0
 28 27  1  0  0  0  0
 29 30  1  0  0  0  0
 29 23  1  0  0  0  0
 32 31  1  1  0  0  0
 32 22  1  0  0  0  0
 33 35  1  0  0  0  0
 35 34  1  6  0  0  0
 35 38  1  0  0  0  0
 38 37  2  0  0  0  0
 38 36  1  0  0  0  0
M  END
>  <MODEL>
8

>  <REMARK>
 VINA RESULT:      -7.3      2.328      6.889
  Name = 
  10 active torsions:
  status: ('A' for Active; 'I' for Inactive)
    1  A    between atoms: C_1  and  N_17
    2  A    between atoms: C_1  and  C_31
    3  A    between atoms: C_3  and  C_22
    4  A    between atoms: C_15  and  C_19
    5  A    between atoms: C_15  and  C_38
    6  A    between atoms: C_16  and  C_35
    7  A    between atoms: C_18  and  C_19
    8  A    between atoms: C_18  and  C_22
    9  A    between atoms: C_21  and  C_31
   10  A    between atoms: C_31  and  C_33
                            x       y       z     vdW  Elec       q    Type
                         _______ _______ _______ _____ _____    ______ ____

>  <TORSDO>
F 10

$$$$
=
 OpenBabel11062414383D

 38 40  0  0  1  0  0  0  0  0999 V2000
  183.8800  178.1790  144.6990 C   0  0  0  0  0  2  0  0  0  0  0  0
  184.1410  178.7090  141.5790 C   0  0  0  0  0  0  0  0  0  0  0  0
  182.1880  179.2960  143.1320 C   0  0  0  0  0  0  0  0  0  0  0  0
  182.6080  178.8820  144.3370 C   0  0  0  0  0  3  0  0  0  0  0  0
  182.9440  179.2420  141.8580 C   0  0  0  0  0  3  0  0  0  0  0  0
  180.9350  179.8890  143.0790 O   0  0  0  0  0  1  0  0  0  0  0  0
  184.9680  177.9340  142.5480 C   0  0  0  0  0  2  0  0  0  0  0  0
  185.0610  178.6460  143.8760 C   0  0  2  0  0  3  0  0  0  0  0  0
  186.3370  178.2940  144.5670 C   0  0  0  0  0  0  0  0  0  0  0  0
  187.4040  177.7320  143.8040 N   0  0  0  0  0  2  0  0  0  0  0  0
  186.4840  178.5260  145.8000 O   0  0  0  0  0  0  0  0  0  0  0  0
  188.6580  177.3170  144.4170 C   0  0  0  0  0  2  0  0  0  0  0  0
  189.9350  175.7240  143.0640 C   0  0  0  0  0  1  0  0  0  0  0  0
  189.7970  177.2050  143.3900 C   0  0  2  0  0  0  0  0  0  0  0  0
  191.1370  179.2780  144.0300 C   0  0  0  0  0  1  0  0  0  0  0  0
  191.4120  177.2260  145.3650 C   0  0  0  0  0  1  0  0  0  0  0  0
  191.1420  177.7560  143.9610 C   0  0  0  0  0  0  0  0  0  0  0  0
  192.1990  177.3720  143.1550 F   0  0  0  0  0  0  0  0  0  0  0  0
  189.6260  177.3930  141.0140 O   0  0  0  0  0  0  0  0  0  0  0  0
  189.4120  177.8970  142.1070 C   0  0  0  0  0  3  0  0  0  0  0  0
  184.6860  178.8830  140.1930 C   0  0  0  0  0  2  0  0  0  0  0  0
  182.9620  177.1930  139.4460 C   0  0  0  0  0  2  0  0  0  0  0  0
  183.7140  174.0110  137.3830 C   0  0  0  0  0  0  0  0  0  0  0  0
  184.6800  173.4420  138.1950 F   0  0  0  0  0  0  0  0  0  0  0  0
  182.9310  173.0050  136.8560 F   0  0  0  0  0  0  0  0  0  0  0  0
  183.9930  176.8720  137.3520 N   0  0  1  0  0  0  0  0  0  0  0  0
  183.7010  178.4830  139.0860 C   0  0  2  0  0  0  0  0  0  0  0  0
  184.5140  178.1400  137.8350 C   0  0  0  0  0  2  0  0  0  0  0  0
  184.4080  174.7620  136.2260 C   0  0  0  0  0  2  0  0  0  0  0  0
  185.0310  176.0850  136.7000 C   0  0  0  0  0  2  0  0  0  0  0  0
  182.8280  174.9430  138.2270 C   0  0  0  0  0  2  0  0  0  0  0  0
  183.6430  176.1770  138.5730 C   0  0  2  0  0  3  0  0  0  0  0  0
  182.7260  179.6370  138.8070 C   0  0  0  0  0  2  0  0  0  0  0  0
  181.0280  179.4460  136.9750 C   0  0  0  0  0  1  0  0  0  0  0  0
  181.3130  179.1860  138.4450 C   0  0  2  0  0  3  0  0  0  0  0  0
  180.5390  181.0990  139.6340 O   0  0  0  0  0  0  0  0  0  0  0  0
  179.1470  179.2820  139.6980 O   0  0  0  0  0  1  0  0  0  0  0  0
  180.3220  179.9060  139.2970 C   0  0  0  0  0  0  0  0  0  0  0  0
  2  5  2  0  0  0  0
  2  7  1  0  0  0  0
  3  4  2  0  0  0  0
  4  1  1  0  0  0  0
  5  3  1  0  0  0  0
  6  3  1  0  0  0  0
  7  8  1  0  0  0  0
  8  9  1  1  0  0  0
  8  1  1  0  0  0  0
  9 11  2  0  0  0  0
 10 12  1  0  0  0  0
 10  9  1  0  0  0  0
 14 13  1  6  0  0  0
 14 17  1  0  0  0  0
 14 12  1  0  0  0  0
 17 15  1  0  0  0  0
 17 16  1  0  0  0  0
 18 17  1  0  0  0  0
 19 20  2  0  0  0  0
 20 14  1  0  0  0  0
 21  2  1  0  0  0  0
 23 24  1  0  0  0  0
 23 31  1  0  0  0  0
 25 23  1  0  0  0  0
 26 30  1  1  0  0  0
 26 28  1  0  0  0  0
 26 32  1  0  0  0  0
 27 33  1  6  0  0  0
 27 22  1  0  0  0  0
 27 21  1  0  0  0  0
 28 27  1  0  0  0  0
 29 30  1  0  0  0  0
 29 23  1  0  0  0  0
 32 31  1  6  0  0  0
 32 22  1  0  0  0  0
 35 34  1  6  0  0  0
 35 33  1  0  0  0  0
 35 38  1  0  0  0  0
 38 36  2  0  0  0  0
 38 37  1  0  0  0  0
M  END
>  <MODEL>
9

>  <REMARK>
 VINA RESULT:      -7.1      2.773      7.775
  Name = 
  10 active torsions:
  status: ('A' for Active; 'I' for Inactive)
    1  A    between atoms: C_1  and  N_17
    2  A    between atoms: C_1  and  C_31
    3  A    between atoms: C_3  and  C_22
    4  A    between atoms: C_15  and  C_19
    5  A    between atoms: C_15  and  C_38
    6  A    between atoms: C_16  and  C_35
    7  A    between atoms: C_18  and  C_19
    8  A    between atoms: C_18  and  C_22
    9  A    between atoms: C_21  and  C_31
   10  A    between atoms: C_31  and  C_33
                            x       y       z     vdW  Elec       q    Type
                         _______ _______ _______ _____ _____    ______ ____

>  <TORSDO>
F 10

$$$$
