=
 OpenBabel11062418033D

 58 64  0  0  1  0  0  0  0  0999 V2000
  190.0070  177.4440  137.3360 C   0  0  0  0  0  2  0  0  0  0  0  0
  187.4890  178.9040  141.0010 C   0  0  1  0  0  3  0  0  0  0  0  0
  188.0100  178.3930  139.6530 C   0  0  1  0  0  3  0  0  0  0  0  0
  187.4520  177.0230  137.1720 C   0  0  1  0  0  3  0  0  0  0  0  0
  188.8300  179.5840  137.9770 C   0  0  0  0  0  2  0  0  0  0  0  0
  186.3560  178.0960  141.6200 C   0  0  1  0  0  3  0  0  0  0  0  0
  190.6720  175.7360  141.9080 O   0  0  0  0  0  1  0  0  0  0  0  0
  189.5490  176.5320  140.1140 O   0  0  0  0  0  0  0  0  0  0  0  0
  189.1230  179.1470  139.2690 O   0  0  0  0  0  0  0  0  0  0  0  0
  188.2850  176.8810  139.5970 C   0  0  2  0  0  3  0  0  0  0  0  0
  191.8440  178.0520  142.0600 O   0  0  0  0  0  0  0  0  0  0  0  0
  189.5080  177.7820  142.1330 N   0  0  0  0  0  0  0  0  0  0  0  0
  189.5100  176.4220  141.5220 C   0  0  2  0  0  0  0  0  0  0  0  0
  187.9900  176.1210  138.2690 C   0  0  2  0  0  3  0  0  0  0  0  0
  187.1530  178.0110  142.9450 C   0  0  1  0  0  3  0  0  0  0  0  0
  188.8640  176.4630  137.0460 C   0  0  2  0  0  3  0  0  0  0  0  0
  188.3330  178.6770  142.2610 C   0  0  2  0  0  3  0  0  0  0  0  0
  189.7440  178.9010  136.9660 C   0  0  0  0  0  2  0  0  0  0  0  0
  190.7390  178.4020  142.5590 C   0  0  0  0  0  0  0  0  0  0  0  0
  185.6430  178.2270  146.2140 C   0  0  1  0  0  3  0  0  0  0  0  0
  185.2920  179.2570  144.0140 C   0  0  0  0  0  2  0  0  0  0  0  0
  184.6840  178.9020  145.3150 C   0  0  0  0  0  0  0  0  0  0  0  0
  183.4860  178.9830  145.5390 O   0  0  0  0  0  0  0  0  0  0  0  0
  186.8630  178.0410  145.3280 C   0  0  0  0  0  2  0  0  0  0  0  0
  185.9850  179.1290  147.3920 C   0  0  0  0  0  1  0  0  0  0  0  0
  186.6880  178.8200  144.0950 N   0  0  1  0  0  0  0  0  0  0  0  0
  186.8990  174.8700  136.0890 N   0  0  0  0  0  2  0  0  0  0  0  0
  186.5780  176.2830  136.1630 C   0  0  1  0  0  3  0  0  0  0  0  0
  185.1260  176.3660  136.5810 C   0  0  0  0  0  2  0  0  0  0  0  0
  184.5260  175.0610  136.1100 C   0  0  0  0  0  2  0  0  0  0  0  0
  185.6970  174.2890  135.5110 C   0  0  2  0  0  3  0  0  0  0  0  0
  185.6210  172.7900  135.8170 C   0  0  1  0  0  3  0  0  0  0  0  0
  186.3110  172.4760  136.9900 O   0  0  0  0  0  1  0  0  0  0  0  0
  182.4120  171.2500  134.6360 N   0  0  0  0  0  0  0  0  0  0  0  0
  180.1800  170.1810  135.7200 Cl  0  0  0  0  0  0  0  0  0  0  0  0
  181.7610  170.9390  135.7860 C   0  0  0  0  0  0  0  0  0  0  0  0
  183.6190  171.8680  134.6500 C   0  0  0  0  0  3  0  0  0  0  0  0
  183.5770  171.8860  137.0590 C   0  0  0  0  0  3  0  0  0  0  0  0
  182.3260  171.2680  137.0230 C   0  0  0  0  0  3  0  0  0  0  0  0
  184.2390  172.1910  135.8630 C   0  0  0  0  0  0  0  0  0  0  0  0
  188.4330  175.3120  143.3830 O   0  0  0  0  0  1  0  0  0  0  0  0
  188.3410  175.5450  142.0110 C   0  0  0  0  0  2  0  0  0  0  0  0
  190.6940  179.4070  143.5300 O   0  0  0  0  0  0  0  0  0  0  0  0
  190.7480  179.1320  144.9250 C   0  0  0  0  0  2  0  0  0  0  0  0
  190.4690  177.6560  145.1430 C   0  0  0  0  0  2  0  0  0  0  0  0
  191.7930  177.0860  147.0270 O   0  0  0  0  0  0  0  0  0  0  0  0
  190.6700  177.2660  146.5800 C   0  0  0  0  0  0  0  0  0  0  0  0
  189.2980  178.1760  148.4370 C   0  0  0  0  0  1  0  0  0  0  0  0
  189.4750  177.0270  147.4510 C   0  0  0  0  0  2  0  0  0  0  0  0
  185.1700  178.8510  141.6980 O   0  0  0  0  0  0  0  0  0  0  0  0
  184.4730  178.6970  140.4850 C   0  0  2  0  0  3  0  0  0  0  0  0
  184.5440  179.8450  139.6960 O   0  0  0  0  0  1  0  0  0  0  0  0
  183.0410  178.2170  140.7200 C   0  0  1  0  0  3  0  0  0  0  0  0
  182.1810  179.2970  140.8170 F   0  0  0  0  0  0  0  0  0  0  0  0
  181.2610  176.9490  139.7700 F   0  0  0  0  0  0  0  0  0  0  0  0
  182.5880  177.2900  139.5880 C   0  0  0  0  0  0  0  0  0  0  0  0
  183.3240  176.1220  139.5870 F   0  0  0  0  0  0  0  0  0  0  0  0
  182.7410  177.9270  138.3680 F   0  0  0  0  0  0  0  0  0  0  0  0
  2  6  1  0  0  0  0
  2 17  1  0  0  0  0
  3  2  1  0  0  0  0
  4 14  1  0  0  0  0
  5  9  1  0  0  0  0
  6 50  1  0  0  0  0
  6 15  1  0  0  0  0
  8 13  1  0  0  0  0
  9  3  1  0  0  0  0
 10  3  1  0  0  0  0
 10  8  1  0  0  0  0
 11 19  2  0  0  0  0
 12 17  1  0  0  0  0
 12 19  1  0  0  0  0
 13  7  1  0  0  0  0
 13 42  1  0  0  0  0
 13 12  1  0  0  0  0
 14 10  1  0  0  0  0
 15 26  1  0  0  0  0
 16  4  1  0  0  0  0
 16  1  1  0  0  0  0
 16 14  1  0  0  0  0
 17 15  1  0  0  0  0
 18  1  1  0  0  0  0
 18  5  1  0  0  0  0
 19 43  1  0  0  0  0
 20 25  1  0  0  0  0
 21 26  1  0  0  0  0
 21 22  1  0  0  0  0
 22 23  2  0  0  0  0
 22 20  1  0  0  0  0
 24 20  1  0  0  0  0
 26 24  1  0  0  0  0
 27 28  1  0  0  0  0
 28 29  1  0  0  0  0
 28  4  1  0  0  0  0
 30 29  1  0  0  0  0
 31 32  1  0  0  0  0
 31 27  1  0  0  0  0
 31 30  1  0  0  0  0
 32 40  1  0  0  0  0
 32 33  1  0  0  0  0
 34 37  2  0  0  0  0
 34 36  1  0  0  0  0
 35 36  1  0  0  0  0
 36 39  2  0  0  0  0
 37 40  1  0  0  0  0
 39 38  1  0  0  0  0
 40 38  2  0  0  0  0
 42 41  1  0  0  0  0
 43 44  1  0  0  0  0
 44 45  1  0  0  0  0
 45 47  1  0  0  0  0
 47 46  2  0  0  0  0
 47 49  1  0  0  0  0
 49 48  1  0  0  0  0
 51 53  1  0  0  0  0
 51 50  1  0  0  0  0
 52 51  1  0  0  0  0
 53 54  1  0  0  0  0
 56 55  1  0  0  0  0
 56 53  1  0  0  0  0
 57 56  1  0  0  0  0
 58 56  1  0  0  0  0
M  END
>  <MODEL>
1

>  <REMARK>
 VINA RESULT:      -4.7      0.000      0.000
  Name = 
  14 active torsions:
  status: ('A' for Active; 'I' for Inactive)
    1  A    between atoms: C_3  and  C_13
    2  A    between atoms: C_3  and  C_50
    3  A    between atoms: C_12  and  C_49
    4  A    between atoms: C_13  and  O_32
    5  A    between atoms: C_16  and  C_35
    6  A    between atoms: C_19  and  C_39
    7  A    between atoms: O_21  and  C_47
    8  A    between atoms: O_21  and  C_55
    9  A    between atoms: C_22  and  O_32
   10  A    between atoms: C_31  and  C_42
   11  A    between atoms: C_31  and  C_58
   12  A    between atoms: C_41  and  N_57
   13  A    between atoms: C_47  and  C_53
   14  A    between atoms: C_49  and  C_53
                            x       y       z     vdW  Elec       q    Type
                         _______ _______ _______ _____ _____    ______ ____

>  <TORSDO>
F 14

$$$$
=
 OpenBabel11062418033D

 58 64  0  0  1  0  0  0  0  0999 V2000
  190.0120  177.3950  137.2890 C   0  0  0  0  0  2  0  0  0  0  0  0
  187.4900  178.8920  140.9360 C   0  0  1  0  0  3  0  0  0  0  0  0
  188.0120  178.3600  139.5970 C   0  0  1  0  0  3  0  0  0  0  0  0
  187.4640  176.9240  137.1510 C   0  0  1  0  0  3  0  0  0  0  0  0
  188.8010  179.5270  137.8890 C   0  0  0  0  0  2  0  0  0  0  0  0
  186.3750  178.0780  141.5810 C   0  0  1  0  0  3  0  0  0  0  0  0
  190.7360  175.8030  141.8940 O   0  0  0  0  0  1  0  0  0  0  0  0
  189.5870  176.5380  140.0890 O   0  0  0  0  0  0  0  0  0  0  0  0
  189.1090  179.1260  139.1890 O   0  0  0  0  0  0  0  0  0  0  0  0
  188.3140  176.8520  139.5730 C   0  0  2  0  0  3  0  0  0  0  0  0
  191.8660  178.1430  141.9870 O   0  0  0  0  0  0  0  0  0  0  0  0
  189.5360  177.8320  142.0800 N   0  0  0  0  0  0  0  0  0  0  0  0
  189.5590  176.4590  141.5000 C   0  0  2  0  0  0  0  0  0  0  0  0
  188.0250  176.0580  138.2650 C   0  0  2  0  0  3  0  0  0  0  0  0
  187.1820  178.0380  142.9030 C   0  0  1  0  0  3  0  0  0  0  0  0
  188.8850  176.3880  137.0280 C   0  0  2  0  0  3  0  0  0  0  0  0
  188.3460  178.7090  142.1960 C   0  0  2  0  0  3  0  0  0  0  0  0
  189.7210  178.8390  136.8880 C   0  0  0  0  0  2  0  0  0  0  0  0
  190.7580  178.4840  142.4840 C   0  0  0  0  0  0  0  0  0  0  0  0
  185.6570  178.3020  146.1610 C   0  0  1  0  0  3  0  0  0  0  0  0
  185.3120  179.2940  143.9430 C   0  0  0  0  0  2  0  0  0  0  0  0
  184.7000  178.9580  145.2470 C   0  0  0  0  0  0  0  0  0  0  0  0
  183.5010  179.0390  145.4640 O   0  0  0  0  0  0  0  0  0  0  0  0
  186.8820  178.1050  145.2830 C   0  0  0  0  0  2  0  0  0  0  0  0
  185.9910  179.2240  147.3250 C   0  0  0  0  0  1  0  0  0  0  0  0
  186.7090  178.8640  144.0370 N   0  0  1  0  0  0  0  0  0  0  0  0
  186.1460  174.8800  136.7100 N   0  0  0  0  0  2  0  0  0  0  0  0
  186.5970  176.1460  136.1650 C   0  0  1  0  0  3  0  0  0  0  0  0
  185.3490  176.9370  135.8410 C   0  0  0  0  0  2  0  0  0  0  0  0
  184.2890  175.8850  135.6100 C   0  0  0  0  0  2  0  0  0  0  0  0
  184.9910  174.5590  135.8850 C   0  0  2  0  0  3  0  0  0  0  0  0
  184.0790  173.5570  136.5990 C   0  0  1  0  0  3  0  0  0  0  0  0
  184.7990  172.7680  137.4980 O   0  0  0  0  0  1  0  0  0  0  0  0
  180.4770  174.2020  137.4220 N   0  0  0  0  0  0  0  0  0  0  0  0
  179.0540  175.5470  139.2830 Cl  0  0  0  0  0  0  0  0  0  0  0  0
  180.5360  174.9870  138.5280 C   0  0  0  0  0  0  0  0  0  0  0  0
  181.6030  173.7800  136.7930 C   0  0  0  0  0  3  0  0  0  0  0  0
  182.9440  174.9500  138.4170 C   0  0  0  0  0  3  0  0  0  0  0  0
  181.7740  175.3910  139.0370 C   0  0  0  0  0  3  0  0  0  0  0  0
  182.8660  174.1330  137.2820 C   0  0  0  0  0  0  0  0  0  0  0  0
  188.5110  175.3760  143.3940 O   0  0  0  0  0  1  0  0  0  0  0  0
  188.4090  175.5730  142.0170 C   0  0  0  0  0  2  0  0  0  0  0  0
  190.7010  179.5100  143.4330 O   0  0  0  0  0  0  0  0  0  0  0  0
  191.0330  179.3110  144.8020 C   0  0  0  0  0  2  0  0  0  0  0  0
  190.2660  178.1070  145.3210 C   0  0  0  0  0  2  0  0  0  0  0  0
  191.8150  176.3420  144.9890 O   0  0  0  0  0  0  0  0  0  0  0  0
  191.1960  177.0260  145.7910 C   0  0  0  0  0  0  0  0  0  0  0  0
  192.3400  175.6420  147.5040 C   0  0  0  0  0  1  0  0  0  0  0  0
  191.3090  176.7370  147.2570 C   0  0  0  0  0  2  0  0  0  0  0  0
  185.1770  178.8130  141.6500 O   0  0  0  0  0  0  0  0  0  0  0  0
  184.5450  178.7370  140.3940 C   0  0  2  0  0  3  0  0  0  0  0  0
  184.8050  179.8620  139.6120 O   0  0  0  0  0  1  0  0  0  0  0  0
  183.0530  178.4360  140.5370 C   0  0  1  0  0  3  0  0  0  0  0  0
  182.5460  179.0420  141.6740 F   0  0  0  0  0  0  0  0  0  0  0  0
  180.9900  178.4310  139.3450 F   0  0  0  0  0  0  0  0  0  0  0  0
  182.2830  178.9160  139.3030 C   0  0  0  0  0  0  0  0  0  0  0  0
  182.8700  178.4460  138.1460 F   0  0  0  0  0  0  0  0  0  0  0  0
  182.2590  180.3010  139.2730 F   0  0  0  0  0  0  0  0  0  0  0  0
  2  6  1  0  0  0  0
  2 17  1  0  0  0  0
  3  2  1  0  0  0  0
  4 14  1  0  0  0  0
  5  9  1  0  0  0  0
  6 50  1  0  0  0  0
  6 15  1  0  0  0  0
  8 13  1  0  0  0  0
  9  3  1  0  0  0  0
 10  3  1  0  0  0  0
 10  8  1  0  0  0  0
 11 19  2  0  0  0  0
 12 17  1  0  0  0  0
 12 19  1  0  0  0  0
 13  7  1  0  0  0  0
 13 42  1  0  0  0  0
 13 12  1  0  0  0  0
 14 10  1  0  0  0  0
 15 26  1  0  0  0  0
 16  4  1  0  0  0  0
 16  1  1  0  0  0  0
 16 14  1  0  0  0  0
 17 15  1  0  0  0  0
 18  1  1  0  0  0  0
 18  5  1  0  0  0  0
 19 43  1  0  0  0  0
 20 25  1  0  0  0  0
 21 26  1  0  0  0  0
 21 22  1  0  0  0  0
 22 23  2  0  0  0  0
 22 20  1  0  0  0  0
 24 20  1  0  0  0  0
 26 24  1  0  0  0  0
 28 27  1  0  0  0  0
 28  4  1  0  0  0  0
 29 28  1  0  0  0  0
 30 29  1  0  0  0  0
 30 31  1  0  0  0  0
 31 32  1  0  0  0  0
 31 27  1  0  0  0  0
 32 40  1  0  0  0  0
 32 33  1  0  0  0  0
 34 36  1  0  0  0  0
 36 39  2  0  0  0  0
 36 35  1  0  0  0  0
 37 40  1  0  0  0  0
 37 34  2  0  0  0  0
 38 39  1  0  0  0  0
 40 38  2  0  0  0  0
 42 41  1  0  0  0  0
 43 44  1  0  0  0  0
 44 45  1  0  0  0  0
 45 47  1  0  0  0  0
 46 47  2  0  0  0  0
 47 49  1  0  0  0  0
 49 48  1  0  0  0  0
 51 53  1  0  0  0  0
 51 50  1  0  0  0  0
 52 51  1  0  0  0  0
 53 54  1  0  0  0  0
 56 55  1  0  0  0  0
 56 53  1  0  0  0  0
 57 56  1  0  0  0  0
 58 56  1  0  0  0  0
M  END
>  <MODEL>
2

>  <REMARK>
 VINA RESULT:      -4.6      1.509      1.849
  Name = 
  14 active torsions:
  status: ('A' for Active; 'I' for Inactive)
    1  A    between atoms: C_3  and  C_13
    2  A    between atoms: C_3  and  C_50
    3  A    between atoms: C_12  and  C_49
    4  A    between atoms: C_13  and  O_32
    5  A    between atoms: C_16  and  C_35
    6  A    between atoms: C_19  and  C_39
    7  A    between atoms: O_21  and  C_47
    8  A    between atoms: O_21  and  C_55
    9  A    between atoms: C_22  and  O_32
   10  A    between atoms: C_31  and  C_42
   11  A    between atoms: C_31  and  C_58
   12  A    between atoms: C_41  and  N_57
   13  A    between atoms: C_47  and  C_53
   14  A    between atoms: C_49  and  C_53
                            x       y       z     vdW  Elec       q    Type
                         _______ _______ _______ _____ _____    ______ ____

>  <TORSDO>
F 14

$$$$
=
 OpenBabel11062418033D

 58 64  0  0  1  0  0  0  0  0999 V2000
  188.2010  179.0240  137.1180 C   0  0  0  0  0  2  0  0  0  0  0  0
  184.1270  176.7490  137.4910 C   0  0  1  0  0  3  0  0  0  0  0  0
  185.5890  177.1820  137.3370 C   0  0  1  0  0  3  0  0  0  0  0  0
  188.3830  176.4580  137.4600 C   0  0  1  0  0  3  0  0  0  0  0  0
  186.6010  177.9160  135.5090 C   0  0  0  0  0  2  0  0  0  0  0  0
  183.8690  175.6450  138.5070 C   0  0  1  0  0  3  0  0  0  0  0  0
  184.9260  179.9390  140.6820 O   0  0  0  0  0  1  0  0  0  0  0  0
  186.1030  178.7210  139.1840 O   0  0  0  0  0  0  0  0  0  0  0  0
  185.6600  178.2800  136.4730 O   0  0  0  0  0  0  0  0  0  0  0  0
  186.3330  177.4330  138.6590 C   0  0  2  0  0  3  0  0  0  0  0  0
  183.8220  181.1480  138.6610 O   0  0  0  0  0  0  0  0  0  0  0  0
  183.7390  178.8180  138.9700 N   0  0  0  0  0  0  0  0  0  0  0  0
  184.8940  178.7650  139.9130 C   0  0  2  0  0  0  0  0  0  0  0  0
  187.8390  177.0490  138.7490 C   0  0  2  0  0  3  0  0  0  0  0  0
  182.7710  176.5190  139.1640 C   0  0  1  0  0  3  0  0  0  0  0  0
  188.8300  177.8520  137.8820 C   0  0  2  0  0  3  0  0  0  0  0  0
  183.1540  177.6650  138.2450 C   0  0  2  0  0  3  0  0  0  0  0  0
  187.8630  178.7580  135.6530 C   0  0  0  0  0  2  0  0  0  0  0  0
  183.1550  180.0810  138.5880 C   0  0  0  0  0  0  0  0  0  0  0  0
  180.2970  174.0690  138.2220 C   0  0  1  0  0  3  0  0  0  0  0  0
  180.8370  176.3850  137.6150 C   0  0  0  0  0  2  0  0  0  0  0  0
  180.1860  175.1260  137.1940 C   0  0  0  0  0  0  0  0  0  0  0  0
  179.7800  174.9280  136.0600 O   0  0  0  0  0  0  0  0  0  0  0  0
  181.2030  174.7050  139.2630 C   0  0  0  0  0  2  0  0  0  0  0  0
  178.9310  173.7770  138.8250 C   0  0  0  0  0  1  0  0  0  0  0  0
  181.3560  176.1350  138.9620 N   0  0  1  0  0  0  0  0  0  0  0  0
  190.2030  175.1330  136.4380 N   0  0  0  0  0  2  0  0  0  0  0  0
  189.5620  175.5150  137.6830 C   0  0  1  0  0  3  0  0  0  0  0  0
  190.6240  176.2040  138.5120 C   0  0  0  0  0  2  0  0  0  0  0  0
  191.9260  175.6300  138.0050 C   0  0  0  0  0  2  0  0  0  0  0  0
  191.5230  174.6950  136.8690 C   0  0  2  0  0  3  0  0  0  0  0  0
  192.5130  174.7400  135.7010 C   0  0  1  0  0  3  0  0  0  0  0  0
  192.8220  176.0550  135.3480 O   0  0  0  0  0  1  0  0  0  0  0  0
  196.1660  173.8910  135.6640 N   0  0  0  0  0  0  0  0  0  0  0  0
  197.7660  171.8750  136.4860 Cl  0  0  0  0  0  0  0  0  0  0  0  0
  196.2210  172.6790  136.2750 C   0  0  0  0  0  0  0  0  0  0  0  0
  194.9850  174.5240  135.4530 C   0  0  0  0  0  3  0  0  0  0  0  0
  193.8200  172.6940  136.5000 C   0  0  0  0  0  3  0  0  0  0  0  0
  195.0440  172.0490  136.6900 C   0  0  0  0  0  3  0  0  0  0  0  0
  193.7820  173.9480  135.8770 C   0  0  0  0  0  0  0  0  0  0  0  0
  184.1910  178.0580  142.1180 O   0  0  0  0  0  1  0  0  0  0  0  0
  184.7790  177.6160  140.9330 C   0  0  0  0  0  2  0  0  0  0  0  0
  181.8360  180.1070  138.1250 O   0  0  0  0  0  0  0  0  0  0  0  0
  181.3200  181.1700  137.3320 C   0  0  0  0  0  2  0  0  0  0  0  0
  180.7750  182.2470  138.2530 C   0  0  0  0  0  2  0  0  0  0  0  0
  179.1310  183.7140  137.3760 O   0  0  0  0  0  0  0  0  0  0  0  0
  180.3200  183.4520  137.4800 C   0  0  0  0  0  0  0  0  0  0  0  0
  180.8100  184.7170  135.4030 C   0  0  0  0  0  1  0  0  0  0  0  0
  181.3330  184.2970  136.7720 C   0  0  0  0  0  2  0  0  0  0  0  0
  183.3900  174.4760  137.8850 O   0  0  0  0  0  0  0  0  0  0  0  0
  184.1540  174.2560  136.7240 C   0  0  2  0  0  3  0  0  0  0  0  0
  183.3640  173.8420  135.6520 O   0  0  0  0  0  1  0  0  0  0  0  0
  185.3310  173.3200  136.9990 C   0  0  1  0  0  3  0  0  0  0  0  0
  184.8800  172.0290  137.2110 F   0  0  0  0  0  0  0  0  0  0  0  0
  186.0450  172.2990  134.9680 F   0  0  0  0  0  0  0  0  0  0  0  0
  186.3240  173.3400  135.8330 C   0  0  0  0  0  0  0  0  0  0  0  0
  187.6160  173.1730  136.2870 F   0  0  0  0  0  0  0  0  0  0  0  0
  186.2290  174.5440  135.1550 F   0  0  0  0  0  0  0  0  0  0  0  0
  1 16  1  0  0  0  0
  2 17  1  0  0  0  0
  2  6  1  0  0  0  0
  3  2  1  0  0  0  0
  3 10  1  0  0  0  0
  4 28  1  0  0  0  0
  4 16  1  0  0  0  0
  4 14  1  0  0  0  0
  5 18  1  0  0  0  0
  5  9  1  0  0  0  0
  6 15  1  0  0  0  0
  8 13  1  0  0  0  0
  9  3  1  0  0  0  0
 10 14  1  0  0  0  0
 10  8  1  0  0  0  0
 12 13  1  0  0  0  0
 13  7  1  0  0  0  0
 13 42  1  0  0  0  0
 16 14  1  0  0  0  0
 17 12  1  0  0  0  0
 17 15  1  0  0  0  0
 18  1  1  0  0  0  0
 19 11  2  0  0  0  0
 19 12  1  0  0  0  0
 20 25  1  0  0  0  0
 20 24  1  0  0  0  0
 21 26  1  0  0  0  0
 22 21  1  0  0  0  0
 22 20  1  0  0  0  0
 23 22  2  0  0  0  0
 26 15  1  0  0  0  0
 26 24  1  0  0  0  0
 27 31  1  0  0  0  0
 27 28  1  0  0  0  0
 28 29  1  0  0  0  0
 30 29  1  0  0  0  0
 31 30  1  0  0  0  0
 32 40  1  0  0  0  0
 32 31  1  0  0  0  0
 33 32  1  0  0  0  0
 34 36  1  0  0  0  0
 36 35  1  0  0  0  0
 36 39  2  0  0  0  0
 37 34  2  0  0  0  0
 37 40  1  0  0  0  0
 38 39  1  0  0  0  0
 40 38  2  0  0  0  0
 42 41  1  0  0  0  0
 43 19  1  0  0  0  0
 44 43  1  0  0  0  0
 44 45  1  0  0  0  0
 46 47  2  0  0  0  0
 47 45  1  0  0  0  0
 48 49  1  0  0  0  0
 49 47  1  0  0  0  0
 50  6  1  0  0  0  0
 51 53  1  0  0  0  0
 51 50  1  0  0  0  0
 52 51  1  0  0  0  0
 53 54  1  0  0  0  0
 55 56  1  0  0  0  0
 56 57  1  0  0  0  0
 56 53  1  0  0  0  0
 58 56  1  0  0  0  0
M  END
>  <MODEL>
3

>  <REMARK>
 VINA RESULT:      -4.2      5.070      8.918
  Name = 
  14 active torsions:
  status: ('A' for Active; 'I' for Inactive)
    1  A    between atoms: C_3  and  C_13
    2  A    between atoms: C_3  and  C_50
    3  A    between atoms: C_12  and  C_49
    4  A    between atoms: C_13  and  O_32
    5  A    between atoms: C_16  and  C_35
    6  A    between atoms: C_19  and  C_39
    7  A    between atoms: O_21  and  C_47
    8  A    between atoms: O_21  and  C_55
    9  A    between atoms: C_22  and  O_32
   10  A    between atoms: C_31  and  C_42
   11  A    between atoms: C_31  and  C_58
   12  A    between atoms: C_41  and  N_57
   13  A    between atoms: C_47  and  C_53
   14  A    between atoms: C_49  and  C_53
                            x       y       z     vdW  Elec       q    Type
                         _______ _______ _______ _____ _____    ______ ____

>  <TORSDO>
F 14

$$$$
=
 OpenBabel11062418033D

 58 64  0  0  1  0  0  0  0  0999 V2000
  187.0640  179.6010  136.5550 C   0  0  0  0  0  2  0  0  0  0  0  0
  184.2330  175.9280  135.9260 C   0  0  1  0  0  3  0  0  0  0  0  0
  185.4050  176.8960  136.1230 C   0  0  1  0  0  3  0  0  0  0  0  0
  188.1700  177.2750  136.8660 C   0  0  1  0  0  3  0  0  0  0  0  0
  186.3910  178.1590  134.5950 C   0  0  0  0  0  2  0  0  0  0  0  0
  184.2320  174.7000  136.8280 C   0  0  1  0  0  3  0  0  0  0  0  0
  183.0490  178.8000  139.2930 O   0  0  0  0  0  1  0  0  0  0  0  0
  184.8860  178.2960  138.0760 O   0  0  0  0  0  0  0  0  0  0  0  0
  185.2100  178.0290  135.3260 O   0  0  0  0  0  0  0  0  0  0  0  0
  185.7060  177.2590  137.5860 C   0  0  2  0  0  3  0  0  0  0  0  0
  181.9900  179.7210  137.1040 O   0  0  0  0  0  0  0  0  0  0  0  0
  182.7720  177.5140  137.3280 N   0  0  0  0  0  0  0  0  0  0  0  0
  183.6380  177.7970  138.5090 C   0  0  2  0  0  0  0  0  0  0  0  0
  187.1900  177.4660  138.0100 C   0  0  2  0  0  3  0  0  0  0  0  0
  182.7710  175.0140  137.2370 C   0  0  1  0  0  3  0  0  0  0  0  0
  187.9370  178.6770  137.4140 C   0  0  2  0  0  3  0  0  0  0  0  0
  182.8480  176.3150  136.4590 C   0  0  2  0  0  3  0  0  0  0  0  0
  187.1610  179.3950  135.0460 C   0  0  0  0  0  2  0  0  0  0  0  0
  181.8270  178.4960  136.8530 C   0  0  0  0  0  0  0  0  0  0  0  0
  180.6170  172.1400  137.5680 C   0  0  1  0  0  3  0  0  0  0  0  0
  182.1560  173.0320  135.8770 C   0  0  0  0  0  2  0  0  0  0  0  0
  181.4780  171.8290  136.4080 C   0  0  0  0  0  0  0  0  0  0  0  0
  181.7500  170.6940  136.0500 O   0  0  0  0  0  0  0  0  0  0  0  0
  180.9210  173.6050  137.8310 C   0  0  0  0  0  2  0  0  0  0  0  0
  179.1510  171.9690  137.1960 C   0  0  0  0  0  1  0  0  0  0  0  0
  181.6940  174.1480  136.7060 N   0  0  1  0  0  0  0  0  0  0  0  0
  189.9610  177.4900  138.5560 N   0  0  0  0  0  2  0  0  0  0  0  0
  189.5540  176.8300  137.3300 C   0  0  1  0  0  3  0  0  0  0  0  0
  189.5450  175.3470  137.6310 C   0  0  0  0  0  2  0  0  0  0  0  0
  190.5340  175.1890  138.7630 C   0  0  0  0  0  2  0  0  0  0  0  0
  190.9950  176.6080  139.0780 C   0  0  2  0  0  3  0  0  0  0  0  0
  191.1890  176.8350  140.5810 C   0  0  1  0  0  3  0  0  0  0  0  0
  192.0570  177.9010  140.8250 O   0  0  0  0  0  1  0  0  0  0  0  0
  188.6640  176.3170  143.3050 N   0  0  0  0  0  0  0  0  0  0  0  0
  186.3490  177.4360  144.1350 Cl  0  0  0  0  0  0  0  0  0  0  0  0
  187.7440  177.2900  143.0810 C   0  0  0  0  0  0  0  0  0  0  0  0
  189.7360  176.1530  142.4890 C   0  0  0  0  0  3  0  0  0  0  0  0
  188.9880  178.0060  141.1430 C   0  0  0  0  0  3  0  0  0  0  0  0
  187.8810  178.1450  141.9820 C   0  0  0  0  0  3  0  0  0  0  0  0
  189.9320  177.0030  141.3940 C   0  0  0  0  0  0  0  0  0  0  0  0
  182.9200  176.6900  140.5380 O   0  0  0  0  0  1  0  0  0  0  0  0
  183.7830  176.5820  139.4470 C   0  0  0  0  0  2  0  0  0  0  0  0
  180.7270  178.0730  136.1000 O   0  0  0  0  0  0  0  0  0  0  0  0
  179.4010  178.0670  136.6130 C   0  0  0  0  0  2  0  0  0  0  0  0
  179.1920  176.7960  137.4150 C   0  0  0  0  0  2  0  0  0  0  0  0
  179.5740  176.0890  139.6470 O   0  0  0  0  0  0  0  0  0  0  0  0
  179.4150  177.0290  138.8820 C   0  0  0  0  0  0  0  0  0  0  0  0
  179.7180  178.4350  140.9040 C   0  0  0  0  0  1  0  0  0  0  0  0
  179.3700  178.4260  139.4200 C   0  0  0  0  0  2  0  0  0  0  0  0
  184.3890  173.5160  136.0830 O   0  0  0  0  0  0  0  0  0  0  0  0
  185.4920  172.8150  136.6070 C   0  0  2  0  0  3  0  0  0  0  0  0
  185.6610  173.0550  137.9700 O   0  0  0  0  0  1  0  0  0  0  0  0
  186.7580  173.0740  135.7890 C   0  0  1  0  0  3  0  0  0  0  0  0
  187.3110  174.2960  136.1330 F   0  0  0  0  0  0  0  0  0  0  0  0
  188.7220  171.9840  134.9960 F   0  0  0  0  0  0  0  0  0  0  0  0
  187.7830  171.9580  136.0090 C   0  0  0  0  0  0  0  0  0  0  0  0
  187.1720  170.7200  135.9820 F   0  0  0  0  0  0  0  0  0  0  0  0
  188.4120  172.1300  137.2310 F   0  0  0  0  0  0  0  0  0  0  0  0
  1 16  1  0  0  0  0
  2  3  1  0  0  0  0
  2 17  1  0  0  0  0
  2  6  1  0  0  0  0
  3 10  1  0  0  0  0
  4 28  1  0  0  0  0
  4 16  1  0  0  0  0
  4 14  1  0  0  0  0
  5 18  1  0  0  0  0
  5  9  1  0  0  0  0
  6 15  1  0  0  0  0
  8 13  1  0  0  0  0
  9  3  1  0  0  0  0
 10 14  1  0  0  0  0
 10  8  1  0  0  0  0
 12 13  1  0  0  0  0
 13  7  1  0  0  0  0
 13 42  1  0  0  0  0
 16 14  1  0  0  0  0
 17 15  1  0  0  0  0
 17 12  1  0  0  0  0
 18  1  1  0  0  0  0
 19 11  2  0  0  0  0
 19 12  1  0  0  0  0
 20 24  1  0  0  0  0
 21 22  1  0  0  0  0
 21 26  1  0  0  0  0
 22 20  1  0  0  0  0
 23 22  2  0  0  0  0
 25 20  1  0  0  0  0
 26 15  1  0  0  0  0
 26 24  1  0  0  0  0
 27 31  1  0  0  0  0
 28 29  1  0  0  0  0
 28 27  1  0  0  0  0
 29 30  1  0  0  0  0
 30 31  1  0  0  0  0
 31 32  1  0  0  0  0
 32 33  1  0  0  0  0
 32 40  1  0  0  0  0
 36 34  1  0  0  0  0
 36 35  1  0  0  0  0
 37 34  2  0  0  0  0
 38 40  2  0  0  0  0
 38 39  1  0  0  0  0
 39 36  2  0  0  0  0
 40 37  1  0  0  0  0
 42 41  1  0  0  0  0
 43 44  1  0  0  0  0
 43 19  1  0  0  0  0
 44 45  1  0  0  0  0
 45 47  1  0  0  0  0
 47 49  1  0  0  0  0
 47 46  2  0  0  0  0
 49 48  1  0  0  0  0
 50 51  1  0  0  0  0
 50  6  1  0  0  0  0
 51 52  1  0  0  0  0
 53 56  1  0  0  0  0
 53 54  1  0  0  0  0
 53 51  1  0  0  0  0
 55 56  1  0  0  0  0
 56 58  1  0  0  0  0
 57 56  1  0  0  0  0
M  END
>  <MODEL>
4

>  <REMARK>
 VINA RESULT:      -4.2      3.720      9.078
  Name = 
  14 active torsions:
  status: ('A' for Active; 'I' for Inactive)
    1  A    between atoms: C_3  and  C_13
    2  A    between atoms: C_3  and  C_50
    3  A    between atoms: C_12  and  C_49
    4  A    between atoms: C_13  and  O_32
    5  A    between atoms: C_16  and  C_35
    6  A    between atoms: C_19  and  C_39
    7  A    between atoms: O_21  and  C_47
    8  A    between atoms: O_21  and  C_55
    9  A    between atoms: C_22  and  O_32
   10  A    between atoms: C_31  and  C_42
   11  A    between atoms: C_31  and  C_58
   12  A    between atoms: C_41  and  N_57
   13  A    between atoms: C_47  and  C_53
   14  A    between atoms: C_49  and  C_53
                            x       y       z     vdW  Elec       q    Type
                         _______ _______ _______ _____ _____    ______ ____

>  <TORSDO>
F 14

$$$$
=
 OpenBabel11062418033D

 58 64  0  0  1  0  0  0  0  0999 V2000
  189.6070  177.6670  137.3480 C   0  0  0  0  0  2  0  0  0  0  0  0
  187.7150  178.8950  141.4490 C   0  0  1  0  0  3  0  0  0  0  0  0
  188.0110  178.4740  140.0060 C   0  0  1  0  0  3  0  0  0  0  0  0
  187.0480  177.2910  137.5530 C   0  0  1  0  0  3  0  0  0  0  0  0
  188.5920  179.7710  138.3080 C   0  0  0  0  0  2  0  0  0  0  0  0
  186.6710  178.0600  142.1800 C   0  0  1  0  0  3  0  0  0  0  0  0
  190.9250  175.6310  141.6350 O   0  0  0  0  0  1  0  0  0  0  0  0
  189.5590  176.5670  140.0950 O   0  0  0  0  0  0  0  0  0  0  0  0
  189.0690  179.2410  139.5070 O   0  0  0  0  0  0  0  0  0  0  0  0
  188.2390  176.9670  139.8050 C   0  0  2  0  0  3  0  0  0  0  0  0
  192.1590  177.9160  141.7630 O   0  0  0  0  0  0  0  0  0  0  0  0
  189.8570  177.6710  142.1770 N   0  0  0  0  0  0  0  0  0  0  0  0
  189.7340  176.3570  141.4810 C   0  0  2  0  0  0  0  0  0  0  0  0
  187.7260  176.3070  138.4900 C   0  0  2  0  0  3  0  0  0  0  0  0
  187.6600  177.8720  143.3570 C   0  0  1  0  0  3  0  0  0  0  0  0
  188.4100  176.7240  137.1720 C   0  0  2  0  0  3  0  0  0  0  0  0
  188.7370  178.5690  142.5460 C   0  0  2  0  0  3  0  0  0  0  0  0
  189.3240  179.1510  137.1230 C   0  0  0  0  0  2  0  0  0  0  0  0
  191.1530  178.2440  142.4480 C   0  0  0  0  0  0  0  0  0  0  0  0
  187.0470  177.8620  146.9120 C   0  0  1  0  0  3  0  0  0  0  0  0
  185.9780  178.8150  144.9190 C   0  0  0  0  0  2  0  0  0  0  0  0
  185.7940  178.3750  146.3190 C   0  0  0  0  0  0  0  0  0  0  0  0
  184.7000  178.2680  146.8490 O   0  0  0  0  0  0  0  0  0  0  0  0
  188.0050  177.8660  145.7320 C   0  0  0  0  0  2  0  0  0  0  0  0
  187.5450  178.8120  147.9920 C   0  0  0  0  0  1  0  0  0  0  0  0
  187.3960  178.6030  144.6170 N   0  0  1  0  0  0  0  0  0  0  0  0
  184.7650  176.3650  137.3350 N   0  0  0  0  0  2  0  0  0  0  0  0
  186.0120  176.6360  136.6430 C   0  0  1  0  0  3  0  0  0  0  0  0
  185.6680  177.5650  135.5000 C   0  0  0  0  0  2  0  0  0  0  0  0
  184.2160  177.2740  135.2050 C   0  0  0  0  0  2  0  0  0  0  0  0
  183.8060  176.2400  136.2480 C   0  0  2  0  0  3  0  0  0  0  0  0
  182.3790  176.4640  136.7590 C   0  0  1  0  0  3  0  0  0  0  0  0
  182.1110  175.6730  137.8770 O   0  0  0  0  0  1  0  0  0  0  0  0
  182.3490  179.8520  138.3670 N   0  0  0  0  0  0  0  0  0  0  0  0
  181.1730  182.2520  137.9710 Cl  0  0  0  0  0  0  0  0  0  0  0  0
  181.5000  180.5700  137.5880 C   0  0  0  0  0  0  0  0  0  0  0  0
  182.5980  178.5410  138.1220 C   0  0  0  0  0  3  0  0  0  0  0  0
  181.1060  178.6170  136.2310 C   0  0  0  0  0  3  0  0  0  0  0  0
  180.8480  179.9600  136.5130 C   0  0  0  0  0  3  0  0  0  0  0  0
  181.9920  177.8930  137.0390 C   0  0  0  0  0  0  0  0  0  0  0  0
  188.8850  175.2020  143.4320 O   0  0  0  0  0  1  0  0  0  0  0  0
  188.6330  175.4630  142.0850 C   0  0  0  0  0  2  0  0  0  0  0  0
  191.2810  179.1780  143.4810 O   0  0  0  0  0  0  0  0  0  0  0  0
  191.4640  178.8010  144.8410 C   0  0  0  0  0  2  0  0  0  0  0  0
  191.4980  177.2860  144.9280 C   0  0  0  0  0  2  0  0  0  0  0  0
  190.9990  177.5030  147.2370 O   0  0  0  0  0  0  0  0  0  0  0  0
  191.4970  176.8190  146.3560 C   0  0  0  0  0  0  0  0  0  0  0  0
  192.8040  175.6270  148.0970 C   0  0  0  0  0  1  0  0  0  0  0  0
  192.1800  175.5330  146.7090 C   0  0  0  0  0  2  0  0  0  0  0  0
  185.5290  178.8230  142.4920 O   0  0  0  0  0  0  0  0  0  0  0  0
  184.4130  178.1980  141.9040 C   0  0  2  0  0  3  0  0  0  0  0  0
  184.6430  177.8750  140.5670 O   0  0  0  0  0  1  0  0  0  0  0  0
  183.1390  179.0170  142.1140 C   0  0  1  0  0  3  0  0  0  0  0  0
  182.1140  178.5220  141.3270 F   0  0  0  0  0  0  0  0  0  0  0  0
  181.3420  178.9850  143.6780 F   0  0  0  0  0  0  0  0  0  0  0  0
  182.7210  179.0000  143.5860 C   0  0  0  0  0  0  0  0  0  0  0  0
  183.1700  180.1330  144.2360 F   0  0  0  0  0  0  0  0  0  0  0  0
  183.2410  177.8790  144.2110 F   0  0  0  0  0  0  0  0  0  0  0  0
  2  6  1  0  0  0  0
  2 17  1  0  0  0  0
  3  2  1  0  0  0  0
  4 14  1  0  0  0  0
  5  9  1  0  0  0  0
  6 50  1  0  0  0  0
  6 15  1  0  0  0  0
  8 13  1  0  0  0  0
  9  3  1  0  0  0  0
 10  3  1  0  0  0  0
 10  8  1  0  0  0  0
 11 19  2  0  0  0  0
 12 19  1  0  0  0  0
 12 17  1  0  0  0  0
 13  7  1  0  0  0  0
 13 42  1  0  0  0  0
 13 12  1  0  0  0  0
 14 10  1  0  0  0  0
 15 26  1  0  0  0  0
 16  1  1  0  0  0  0
 16  4  1  0  0  0  0
 16 14  1  0  0  0  0
 17 15  1  0  0  0  0
 18  1  1  0  0  0  0
 18  5  1  0  0  0  0
 19 43  1  0  0  0  0
 20 25  1  0  0  0  0
 21 22  1  0  0  0  0
 22 23  2  0  0  0  0
 22 20  1  0  0  0  0
 24 20  1  0  0  0  0
 26 21  1  0  0  0  0
 26 24  1  0  0  0  0
 28 27  1  0  0  0  0
 28  4  1  0  0  0  0
 29 28  1  0  0  0  0
 30 29  1  0  0  0  0
 30 31  1  0  0  0  0
 31 32  1  0  0  0  0
 31 27  1  0  0  0  0
 32 40  1  0  0  0  0
 32 33  1  0  0  0  0
 36 35  1  0  0  0  0
 36 34  2  0  0  0  0
 37 34  1  0  0  0  0
 38 39  2  0  0  0  0
 38 40  1  0  0  0  0
 39 36  1  0  0  0  0
 40 37  2  0  0  0  0
 42 41  1  0  0  0  0
 43 44  1  0  0  0  0
 44 45  1  0  0  0  0
 45 47  1  0  0  0  0
 47 49  1  0  0  0  0
 47 46  2  0  0  0  0
 49 48  1  0  0  0  0
 51 53  1  0  0  0  0
 51 50  1  0  0  0  0
 52 51  1  0  0  0  0
 53 56  1  0  0  0  0
 54 53  1  0  0  0  0
 56 55  1  0  0  0  0
 56 58  1  0  0  0  0
 56 57  1  0  0  0  0
M  END
>  <MODEL>
5

>  <REMARK>
 VINA RESULT:      -3.9      2.752      3.751
  Name = 
  14 active torsions:
  status: ('A' for Active; 'I' for Inactive)
    1  A    between atoms: C_3  and  C_13
    2  A    between atoms: C_3  and  C_50
    3  A    between atoms: C_12  and  C_49
    4  A    between atoms: C_13  and  O_32
    5  A    between atoms: C_16  and  C_35
    6  A    between atoms: C_19  and  C_39
    7  A    between atoms: O_21  and  C_47
    8  A    between atoms: O_21  and  C_55
    9  A    between atoms: C_22  and  O_32
   10  A    between atoms: C_31  and  C_42
   11  A    between atoms: C_31  and  C_58
   12  A    between atoms: C_41  and  N_57
   13  A    between atoms: C_47  and  C_53
   14  A    between atoms: C_49  and  C_53
                            x       y       z     vdW  Elec       q    Type
                         _______ _______ _______ _____ _____    ______ ____

>  <TORSDO>
F 14

$$$$
=
 OpenBabel11062418033D

 58 64  0  0  1  0  0  0  0  0999 V2000
  187.1110  179.7110  137.1760 C   0  0  0  0  0  2  0  0  0  0  0  0
  185.6980  175.3690  136.1450 C   0  0  1  0  0  3  0  0  0  0  0  0
  186.4330  176.6320  136.6080 C   0  0  1  0  0  3  0  0  0  0  0  0
  188.4800  177.8010  138.2770 C   0  0  1  0  0  3  0  0  0  0  0  0
  187.6520  178.0170  135.3840 C   0  0  0  0  0  2  0  0  0  0  0  0
  185.5990  174.2490  137.1720 C   0  0  1  0  0  3  0  0  0  0  0  0
  182.6150  178.0160  138.2610 O   0  0  0  0  0  1  0  0  0  0  0  0
  184.8530  177.9580  137.9450 O   0  0  0  0  0  0  0  0  0  0  0  0
  186.3360  177.6150  135.6170 O   0  0  0  0  0  0  0  0  0  0  0  0
  186.0110  177.1570  137.9900 C   0  0  2  0  0  3  0  0  0  0  0  0
  182.3800  178.4700  135.7120 O   0  0  0  0  0  0  0  0  0  0  0  0
  183.4730  176.5810  136.5890 N   0  0  0  0  0  0  0  0  0  0  0  0
  183.6840  177.1650  137.9450 C   0  0  2  0  0  0  0  0  0  0  0  0
  187.0990  177.7900  138.9080 C   0  0  2  0  0  3  0  0  0  0  0  0
  184.0710  174.1750  136.9310 C   0  0  1  0  0  3  0  0  0  0  0  0
  187.7330  179.1170  138.4470 C   0  0  2  0  0  3  0  0  0  0  0  0
  184.1680  175.3950  136.0330 C   0  0  2  0  0  3  0  0  0  0  0  0
  187.8680  179.4430  135.8780 C   0  0  0  0  0  2  0  0  0  0  0  0
  182.6160  177.2340  135.6300 C   0  0  0  0  0  0  0  0  0  0  0  0
  181.8380  171.3500  136.7170 C   0  0  1  0  0  3  0  0  0  0  0  0
  184.2410  171.7530  136.4190 C   0  0  0  0  0  2  0  0  0  0  0  0
  183.1920  170.7570  136.7240 C   0  0  0  0  0  0  0  0  0  0  0  0
  183.4350  169.6280  137.1230 O   0  0  0  0  0  0  0  0  0  0  0  0
  182.1210  172.8320  136.5380 C   0  0  0  0  0  2  0  0  0  0  0  0
  181.0390  170.8230  135.5340 C   0  0  0  0  0  1  0  0  0  0  0  0
  183.5350  173.0150  136.1830 N   0  0  1  0  0  0  0  0  0  0  0  0
  189.1310  177.4790  140.6400 N   0  0  0  0  0  2  0  0  0  0  0  0
  189.6090  177.7830  139.3040 C   0  0  1  0  0  3  0  0  0  0  0  0
  190.6070  176.7000  138.9550 C   0  0  0  0  0  2  0  0  0  0  0  0
  191.1230  176.2210  140.2920 C   0  0  0  0  0  2  0  0  0  0  0  0
  190.3330  177.0210  141.3230 C   0  0  2  0  0  3  0  0  0  0  0  0
  189.9680  176.1820  142.5520 C   0  0  1  0  0  3  0  0  0  0  0  0
  191.0770  175.9800  143.3750 O   0  0  0  0  0  1  0  0  0  0  0  0
  188.0210  177.4160  145.5100 N   0  0  0  0  0  0  0  0  0  0  0  0
  185.5490  178.3740  146.0280 Cl  0  0  0  0  0  0  0  0  0  0  0  0
  186.8110  177.7390  144.9870 C   0  0  0  0  0  0  0  0  0  0  0  0
  189.0070  176.8900  144.7420 C   0  0  0  0  0  3  0  0  0  0  0  0
  187.5600  176.9980  142.8180 C   0  0  0  0  0  3  0  0  0  0  0  0
  186.5520  177.5200  143.6300 C   0  0  0  0  0  3  0  0  0  0  0  0
  188.8070  176.6790  143.3720 C   0  0  0  0  0  0  0  0  0  0  0  0
  182.9260  176.5070  140.1470 O   0  0  0  0  0  1  0  0  0  0  0  0
  183.6970  176.0990  139.0580 C   0  0  0  0  0  2  0  0  0  0  0  0
  182.0520  176.4790  134.5960 O   0  0  0  0  0  0  0  0  0  0  0  0
  180.6880  176.0750  134.5950 C   0  0  0  0  0  2  0  0  0  0  0  0
  180.4220  175.2430  135.8370 C   0  0  0  0  0  2  0  0  0  0  0  0
  179.0150  177.0140  136.5520 O   0  0  0  0  0  0  0  0  0  0  0  0
  179.6610  176.0260  136.8680 C   0  0  0  0  0  0  0  0  0  0  0  0
  178.9930  174.3300  138.5520 C   0  0  0  0  0  1  0  0  0  0  0  0
  179.7540  175.6280  138.3100 C   0  0  0  0  0  2  0  0  0  0  0  0
  186.3120  173.1080  136.7570 O   0  0  0  0  0  0  0  0  0  0  0  0
  187.3780  173.5320  135.9420 C   0  0  2  0  0  3  0  0  0  0  0  0
  187.1410  173.2610  134.5940 O   0  0  0  0  0  1  0  0  0  0  0  0
  188.7150  172.9820  136.4390 C   0  0  1  0  0  3  0  0  0  0  0  0
  188.9300  171.7110  135.9350 F   0  0  0  0  0  0  0  0  0  0  0  0
  190.7750  174.0010  137.0670 F   0  0  0  0  0  0  0  0  0  0  0  0
  189.8660  173.9060  136.0310 C   0  0  0  0  0  0  0  0  0  0  0  0
  189.4020  175.1780  135.7640 F   0  0  0  0  0  0  0  0  0  0  0  0
  190.4960  173.4040  134.9050 F   0  0  0  0  0  0  0  0  0  0  0  0
  1 16  1  0  0  0  0
  2  3  1  0  0  0  0
  2  6  1  0  0  0  0
  3 10  1  0  0  0  0
  4 16  1  0  0  0  0
  4 14  1  0  0  0  0
  4 28  1  0  0  0  0
  5  9  1  0  0  0  0
  5 18  1  0  0  0  0
  8 13  1  0  0  0  0
  8 10  1  0  0  0  0
  9  3  1  0  0  0  0
 10 14  1  0  0  0  0
 12 13  1  0  0  0  0
 13  7  1  0  0  0  0
 13 42  1  0  0  0  0
 15  6  1  0  0  0  0
 16 14  1  0  0  0  0
 17  2  1  0  0  0  0
 17 12  1  0  0  0  0
 17 15  1  0  0  0  0
 18  1  1  0  0  0  0
 19 11  2  0  0  0  0
 19 12  1  0  0  0  0
 20 22  1  0  0  0  0
 21 22  1  0  0  0  0
 22 23  2  0  0  0  0
 24 20  1  0  0  0  0
 25 20  1  0  0  0  0
 26 21  1  0  0  0  0
 26 24  1  0  0  0  0
 26 15  1  0  0  0  0
 27 31  1  0  0  0  0
 28 27  1  0  0  0  0
 29 28  1  0  0  0  0
 29 30  1  0  0  0  0
 30 31  1  0  0  0  0
 31 32  1  0  0  0  0
 32 40  1  0  0  0  0
 32 33  1  0  0  0  0
 36 34  1  0  0  0  0
 36 35  1  0  0  0  0
 37 34  2  0  0  0  0
 38 40  2  0  0  0  0
 38 39  1  0  0  0  0
 39 36  2  0  0  0  0
 40 37  1  0  0  0  0
 42 41  1  0  0  0  0
 43 19  1  0  0  0  0
 44 43  1  0  0  0  0
 44 45  1  0  0  0  0
 45 47  1  0  0  0  0
 46 47  2  0  0  0  0
 47 49  1  0  0  0  0
 49 48  1  0  0  0  0
 50  6  1  0  0  0  0
 51 53  1  0  0  0  0
 51 50  1  0  0  0  0
 52 51  1  0  0  0  0
 54 53  1  0  0  0  0
 56 53  1  0  0  0  0
 56 55  1  0  0  0  0
 57 56  1  0  0  0  0
 58 56  1  0  0  0  0
M  END
>  <MODEL>
6

>  <REMARK>
 VINA RESULT:      -3.5      3.861      9.652
  Name = 
  14 active torsions:
  status: ('A' for Active; 'I' for Inactive)
    1  A    between atoms: C_3  and  C_13
    2  A    between atoms: C_3  and  C_50
    3  A    between atoms: C_12  and  C_49
    4  A    between atoms: C_13  and  O_32
    5  A    between atoms: C_16  and  C_35
    6  A    between atoms: C_19  and  C_39
    7  A    between atoms: O_21  and  C_47
    8  A    between atoms: O_21  and  C_55
    9  A    between atoms: C_22  and  O_32
   10  A    between atoms: C_31  and  C_42
   11  A    between atoms: C_31  and  C_58
   12  A    between atoms: C_41  and  N_57
   13  A    between atoms: C_47  and  C_53
   14  A    between atoms: C_49  and  C_53
                            x       y       z     vdW  Elec       q    Type
                         _______ _______ _______ _____ _____    ______ ____

>  <TORSDO>
F 14

$$$$
=
 OpenBabel11062418033D

 58 64  0  0  1  0  0  0  0  0999 V2000
  186.4010  177.5960  134.5940 C   0  0  0  0  0  2  0  0  0  0  0  0
  188.5550  177.9030  138.7380 C   0  0  1  0  0  3  0  0  0  0  0  0
  187.5730  177.8740  137.5620 C   0  0  1  0  0  3  0  0  0  0  0  0
  184.8360  177.6580  136.6620 C   0  0  1  0  0  3  0  0  0  0  0  0
  187.1740  179.4780  136.0890 C   0  0  0  0  0  2  0  0  0  0  0  0
  188.1410  177.0990  139.9640 C   0  0  1  0  0  3  0  0  0  0  0  0
  189.5530  174.1890  136.2460 O   0  0  0  0  0  1  0  0  0  0  0  0
  187.9390  175.7700  136.3440 O   0  0  0  0  0  0  0  0  0  0  0  0
  188.1360  178.5420  136.4700 O   0  0  0  0  0  0  0  0  0  0  0  0
  187.0550  176.4760  137.1850 C   0  0  2  0  0  3  0  0  0  0  0  0
  191.1880  176.0670  135.4960 O   0  0  0  0  0  0  0  0  0  0  0  0
  189.9740  176.1440  137.5090 N   0  0  0  0  0  0  0  0  0  0  0  0
  188.9560  175.1370  137.0920 C   0  0  2  0  0  0  0  0  0  0  0  0
  185.5820  176.3360  136.6980 C   0  0  2  0  0  3  0  0  0  0  0  0
  189.5210  176.3950  139.9570 C   0  0  1  0  0  3  0  0  0  0  0  0
  185.2140  176.9850  135.3490 C   0  0  2  0  0  3  0  0  0  0  0  0
  189.8510  177.0870  138.6470 C   0  0  2  0  0  3  0  0  0  0  0  0
  186.5760  179.1050  134.7370 C   0  0  0  0  0  2  0  0  0  0  0  0
  191.1640  176.3610  136.7220 C   0  0  0  0  0  0  0  0  0  0  0  0
  190.3790  176.7870  143.4390 C   0  0  1  0  0  3  0  0  0  0  0  0
  190.4650  178.1700  141.4120 C   0  0  0  0  0  2  0  0  0  0  0  0
  190.4090  178.1600  142.8900 C   0  0  0  0  0  0  0  0  0  0  0  0
  190.2140  179.1620  143.5600 O   0  0  0  0  0  0  0  0  0  0  0  0
  190.2640  175.9280  142.1910 C   0  0  0  0  0  2  0  0  0  0  0  0
  191.6820  176.4830  144.1650 C   0  0  0  0  0  1  0  0  0  0  0  0
  190.5000  176.7630  141.0050 N   0  0  1  0  0  0  0  0  0  0  0  0
  182.8330  178.2080  138.0020 N   0  0  0  0  0  2  0  0  0  0  0  0
  183.3280  177.5010  136.8360 C   0  0  1  0  0  3  0  0  0  0  0  0
  182.6070  178.0930  135.6450 C   0  0  0  0  0  2  0  0  0  0  0  0
  181.3150  178.6280  136.2160 C   0  0  0  0  0  2  0  0  0  0  0  0
  181.4140  178.3640  137.7150 C   0  0  2  0  0  3  0  0  0  0  0  0
  180.8180  179.5040  138.5460 C   0  0  1  0  0  3  0  0  0  0  0  0
  181.4680  179.6300  139.7750 O   0  0  0  0  0  1  0  0  0  0  0  0
  181.5860  183.0820  137.7290 N   0  0  0  0  0  0  0  0  0  0  0  0
  180.8630  184.9190  135.8840 Cl  0  0  0  0  0  0  0  0  0  0  0  0
  180.8240  183.3330  136.6330 C   0  0  0  0  0  0  0  0  0  0  0  0
  181.5540  181.8780  138.3530 C   0  0  0  0  0  3  0  0  0  0  0  0
  179.9400  181.0920  136.7460 C   0  0  0  0  0  3  0  0  0  0  0  0
  179.9720  182.3440  136.1300 C   0  0  0  0  0  3  0  0  0  0  0  0
  180.7400  180.8470  137.8700 C   0  0  0  0  0  0  0  0  0  0  0  0
  187.7370  173.1810  137.8310 O   0  0  0  0  0  1  0  0  0  0  0  0
  188.3970  174.3260  138.2780 C   0  0  0  0  0  2  0  0  0  0  0  0
  192.2940  176.9120  137.3350 O   0  0  0  0  0  0  0  0  0  0  0  0
  193.6040  176.3930  137.1410 C   0  0  0  0  0  2  0  0  0  0  0  0
  193.9160  175.4210  138.2650 C   0  0  0  0  0  2  0  0  0  0  0  0
  193.6360  173.5540  136.8290 O   0  0  0  0  0  0  0  0  0  0  0  0
  194.2820  174.0650  137.7310 C   0  0  0  0  0  0  0  0  0  0  0  0
  195.4380  171.8730  137.8450 C   0  0  0  0  0  1  0  0  0  0  0  0
  195.4080  173.3060  138.3640 C   0  0  0  0  0  2  0  0  0  0  0  0
  187.9180  177.9360  141.0740 O   0  0  0  0  0  0  0  0  0  0  0  0
  186.5280  178.1100  141.2170 C   0  0  2  0  0  3  0  0  0  0  0  0
  186.1040  179.3400  140.7160 O   0  0  0  0  0  1  0  0  0  0  0  0
  186.0790  177.8600  142.6570 C   0  0  1  0  0  3  0  0  0  0  0  0
  187.0390  178.3100  143.5460 F   0  0  0  0  0  0  0  0  0  0  0  0
  184.0880  177.9090  143.9660 F   0  0  0  0  0  0  0  0  0  0  0  0
  184.7430  178.5570  142.9360 C   0  0  0  0  0  0  0  0  0  0  0  0
  183.9250  178.5100  141.8250 F   0  0  0  0  0  0  0  0  0  0  0  0
  184.9660  179.8780  143.2840 F   0  0  0  0  0  0  0  0  0  0  0  0
  1 18  1  0  0  0  0
  1 16  1  0  0  0  0
  2  6  1  0  0  0  0
  3  2  1  0  0  0  0
  4 14  1  0  0  0  0
  4 28  1  0  0  0  0
  5  9  1  0  0  0  0
  6 50  1  0  0  0  0
  7 13  1  0  0  0  0
  8 13  1  0  0  0  0
  8 10  1  0  0  0  0
  9  3  1  0  0  0  0
 10  3  1  0  0  0  0
 11 19  2  0  0  0  0
 12 17  1  0  0  0  0
 13 12  1  0  0  0  0
 13 42  1  0  0  0  0
 14 10  1  0  0  0  0
 15  6  1  0  0  0  0
 15 26  1  0  0  0  0
 16  4  1  0  0  0  0
 16 14  1  0  0  0  0
 17  2  1  0  0  0  0
 17 15  1  0  0  0  0
 18  5  1  0  0  0  0
 19 43  1  0  0  0  0
 19 12  1  0  0  0  0
 20 25  1  0  0  0  0
 21 22  1  0  0  0  0
 22 20  1  0  0  0  0
 22 23  2  0  0  0  0
 24 20  1  0  0  0  0
 26 21  1  0  0  0  0
 26 24  1  0  0  0  0
 28 27  1  0  0  0  0
 29 30  1  0  0  0  0
 29 28  1  0  0  0  0
 30 31  1  0  0  0  0
 31 27  1  0  0  0  0
 31 32  1  0  0  0  0
 32 33  1  0  0  0  0
 34 37  1  0  0  0  0
 35 36  1  0  0  0  0
 36 34  2  0  0  0  0
 38 40  1  0  0  0  0
 39 36  1  0  0  0  0
 39 38  2  0  0  0  0
 40 37  2  0  0  0  0
 40 32  1  0  0  0  0
 41 42  1  0  0  0  0
 44 43  1  0  0  0  0
 44 45  1  0  0  0  0
 46 47  2  0  0  0  0
 47 45  1  0  0  0  0
 47 49  1  0  0  0  0
 48 49  1  0  0  0  0
 50 51  1  0  0  0  0
 51 53  1  0  0  0  0
 52 51  1  0  0  0  0
 53 56  1  0  0  0  0
 53 54  1  0  0  0  0
 56 58  1  0  0  0  0
 56 55  1  0  0  0  0
 57 56  1  0  0  0  0
M  END
>  <MODEL>
7

>  <REMARK>
 VINA RESULT:      -3.4      4.115      6.893
  Name = 
  14 active torsions:
  status: ('A' for Active; 'I' for Inactive)
    1  A    between atoms: C_3  and  C_13
    2  A    between atoms: C_3  and  C_50
    3  A    between atoms: C_12  and  C_49
    4  A    between atoms: C_13  and  O_32
    5  A    between atoms: C_16  and  C_35
    6  A    between atoms: C_19  and  C_39
    7  A    between atoms: O_21  and  C_47
    8  A    between atoms: O_21  and  C_55
    9  A    between atoms: C_22  and  O_32
   10  A    between atoms: C_31  and  C_42
   11  A    between atoms: C_31  and  C_58
   12  A    between atoms: C_41  and  N_57
   13  A    between atoms: C_47  and  C_53
   14  A    between atoms: C_49  and  C_53
                            x       y       z     vdW  Elec       q    Type
                         _______ _______ _______ _____ _____    ______ ____

>  <TORSDO>
F 14

$$$$
=
 OpenBabel11062418033D

 58 64  0  0  1  0  0  0  0  0999 V2000
  186.4250  177.6980  134.6520 C   0  0  0  0  0  2  0  0  0  0  0  0
  188.6340  177.9210  138.7730 C   0  0  1  0  0  3  0  0  0  0  0  0
  187.6380  177.9280  137.6080 C   0  0  1  0  0  3  0  0  0  0  0  0
  184.8860  177.8040  136.7390 C   0  0  1  0  0  3  0  0  0  0  0  0
  187.2750  179.5490  136.1440 C   0  0  0  0  0  2  0  0  0  0  0  0
  188.2080  177.1270  140.0010 C   0  0  1  0  0  3  0  0  0  0  0  0
  189.4820  174.1850  136.2590 O   0  0  0  0  0  1  0  0  0  0  0  0
  187.9210  175.8180  136.3800 O   0  0  0  0  0  0  0  0  0  0  0  0
  188.2100  178.5810  136.5120 O   0  0  0  0  0  0  0  0  0  0  0  0
  187.0710  176.5490  137.2330 C   0  0  2  0  0  3  0  0  0  0  0  0
  191.1690  176.0110  135.4960 O   0  0  0  0  0  0  0  0  0  0  0  0
  189.9810  176.1200  137.5230 N   0  0  0  0  0  0  0  0  0  0  0  0
  188.9260  175.1490  137.1140 C   0  0  2  0  0  0  0  0  0  0  0  0
  185.5880  176.4580  136.7630 C   0  0  2  0  0  3  0  0  0  0  0  0
  189.5640  176.3790  139.9770 C   0  0  1  0  0  3  0  0  0  0  0  0
  185.2270  177.1230  135.4200 C   0  0  2  0  0  3  0  0  0  0  0  0
  189.9020  177.0640  138.6640 C   0  0  2  0  0  3  0  0  0  0  0  0
  186.6500  179.2000  134.7990 C   0  0  0  0  0  2  0  0  0  0  0  0
  191.1680  176.3010  136.7230 C   0  0  0  0  0  0  0  0  0  0  0  0
  190.4250  176.9130  143.4390 C   0  0  1  0  0  3  0  0  0  0  0  0
  190.6780  178.1380  141.3270 C   0  0  0  0  0  2  0  0  0  0  0  0
  190.6060  178.2340  142.8010 C   0  0  0  0  0  0  0  0  0  0  0  0
  190.5130  179.2950  143.3990 O   0  0  0  0  0  0  0  0  0  0  0  0
  190.2310  175.9880  142.2490 C   0  0  0  0  0  2  0  0  0  0  0  0
  191.6800  176.5230  144.2050 C   0  0  0  0  0  1  0  0  0  0  0  0
  190.5660  176.7110  141.0150 N   0  0  1  0  0  0  0  0  0  0  0  0
  182.8870  178.5890  137.9640 N   0  0  0  0  0  2  0  0  0  0  0  0
  183.3750  177.6960  136.9300 C   0  0  1  0  0  3  0  0  0  0  0  0
  182.6650  178.0960  135.6550 C   0  0  0  0  0  2  0  0  0  0  0  0
  181.3790  178.7320  136.1270 C   0  0  0  0  0  2  0  0  0  0  0  0
  181.4710  178.7130  137.6500 C   0  0  2  0  0  3  0  0  0  0  0  0
  180.8870  179.9800  138.2830 C   0  0  1  0  0  3  0  0  0  0  0  0
  179.8700  180.5190  137.4930 O   0  0  0  0  0  1  0  0  0  0  0  0
  180.4530  178.5800  141.7350 N   0  0  0  0  0  0  0  0  0  0  0  0
  179.3100  179.3160  144.0700 Cl  0  0  0  0  0  0  0  0  0  0  0  0
  179.7510  179.5420  142.3870 C   0  0  0  0  0  0  0  0  0  0  0  0
  180.7810  178.7070  140.4250 C   0  0  0  0  0  3  0  0  0  0  0  0
  179.6810  180.8500  140.3620 C   0  0  0  0  0  3  0  0  0  0  0  0
  179.3360  180.6910  141.7050 C   0  0  0  0  0  3  0  0  0  0  0  0
  180.4140  179.8510  139.7070 C   0  0  0  0  0  0  0  0  0  0  0  0
  187.3990  173.4320  137.8740 O   0  0  0  0  0  1  0  0  0  0  0  0
  188.3540  174.3530  138.3040 C   0  0  0  0  0  2  0  0  0  0  0  0
  192.3220  176.8140  137.3240 O   0  0  0  0  0  0  0  0  0  0  0  0
  193.6190  176.2860  137.0740 C   0  0  0  0  0  2  0  0  0  0  0  0
  193.7990  175.0200  137.8920 C   0  0  0  0  0  2  0  0  0  0  0  0
  195.4590  174.1790  136.4210 O   0  0  0  0  0  0  0  0  0  0  0  0
  195.1030  174.3440  137.5790 C   0  0  0  0  0  0  0  0  0  0  0  0
  197.2930  174.5060  138.7350 C   0  0  0  0  0  1  0  0  0  0  0  0
  195.9390  173.8050  138.6990 C   0  0  0  0  0  2  0  0  0  0  0  0
  188.0250  177.9680  141.1160 O   0  0  0  0  0  0  0  0  0  0  0  0
  186.6410  178.1200  141.3250 C   0  0  2  0  0  3  0  0  0  0  0  0
  186.1760  179.3470  140.8510 O   0  0  0  0  0  1  0  0  0  0  0  0
  186.2630  177.8570  142.7830 C   0  0  1  0  0  3  0  0  0  0  0  0
  187.2590  178.3130  143.6280 F   0  0  0  0  0  0  0  0  0  0  0  0
  183.9920  178.2280  142.1660 F   0  0  0  0  0  0  0  0  0  0  0  0
  184.9340  178.5340  143.1280 C   0  0  0  0  0  0  0  0  0  0  0  0
  185.0760  179.9070  143.1530 F   0  0  0  0  0  0  0  0  0  0  0  0
  184.4920  178.0990  144.3670 F   0  0  0  0  0  0  0  0  0  0  0  0
  1 18  1  0  0  0  0
  1 16  1  0  0  0  0
  2  6  1  0  0  0  0
  3  2  1  0  0  0  0
  4 14  1  0  0  0  0
  4 28  1  0  0  0  0
  5  9  1  0  0  0  0
  6 50  1  0  0  0  0
  7 13  1  0  0  0  0
  8 13  1  0  0  0  0
  8 10  1  0  0  0  0
  9  3  1  0  0  0  0
 10  3  1  0  0  0  0
 11 19  2  0  0  0  0
 12 17  1  0  0  0  0
 13 12  1  0  0  0  0
 13 42  1  0  0  0  0
 14 10  1  0  0  0  0
 15  6  1  0  0  0  0
 15 26  1  0  0  0  0
 16  4  1  0  0  0  0
 16 14  1  0  0  0  0
 17  2  1  0  0  0  0
 17 15  1  0  0  0  0
 18  5  1  0  0  0  0
 19 43  1  0  0  0  0
 19 12  1  0  0  0  0
 20 25  1  0  0  0  0
 21 22  1  0  0  0  0
 22 23  2  0  0  0  0
 22 20  1  0  0  0  0
 24 20  1  0  0  0  0
 26 21  1  0  0  0  0
 26 24  1  0  0  0  0
 28 27  1  0  0  0  0
 29 30  1  0  0  0  0
 29 28  1  0  0  0  0
 30 31  1  0  0  0  0
 31 27  1  0  0  0  0
 31 32  1  0  0  0  0
 32 40  1  0  0  0  0
 33 32  1  0  0  0  0
 34 36  1  0  0  0  0
 36 35  1  0  0  0  0
 37 34  2  0  0  0  0
 38 39  1  0  0  0  0
 39 36  2  0  0  0  0
 40 38  2  0  0  0  0
 40 37  1  0  0  0  0
 41 42  1  0  0  0  0
 44 43  1  0  0  0  0
 44 45  1  0  0  0  0
 46 47  2  0  0  0  0
 47 45  1  0  0  0  0
 47 49  1  0  0  0  0
 49 48  1  0  0  0  0
 50 51  1  0  0  0  0
 51 53  1  0  0  0  0
 52 51  1  0  0  0  0
 53 56  1  0  0  0  0
 53 54  1  0  0  0  0
 55 56  1  0  0  0  0
 56 57  1  0  0  0  0
 56 58  1  0  0  0  0
M  END
>  <MODEL>
8

>  <REMARK>
 VINA RESULT:      -3.4      3.822      6.763
  Name = 
  14 active torsions:
  status: ('A' for Active; 'I' for Inactive)
    1  A    between atoms: C_3  and  C_13
    2  A    between atoms: C_3  and  C_50
    3  A    between atoms: C_12  and  C_49
    4  A    between atoms: C_13  and  O_32
    5  A    between atoms: C_16  and  C_35
    6  A    between atoms: C_19  and  C_39
    7  A    between atoms: O_21  and  C_47
    8  A    between atoms: O_21  and  C_55
    9  A    between atoms: C_22  and  O_32
   10  A    between atoms: C_31  and  C_42
   11  A    between atoms: C_31  and  C_58
   12  A    between atoms: C_41  and  N_57
   13  A    between atoms: C_47  and  C_53
   14  A    between atoms: C_49  and  C_53
                            x       y       z     vdW  Elec       q    Type
                         _______ _______ _______ _____ _____    ______ ____

>  <TORSDO>
F 14

$$$$
=
 OpenBabel11062418033D

 58 64  0  0  1  0  0  0  0  0999 V2000
  186.7490  177.6620  134.5940 C   0  0  0  0  0  2  0  0  0  0  0  0
  188.8070  177.9110  138.7900 C   0  0  1  0  0  3  0  0  0  0  0  0
  187.8540  177.9100  137.5900 C   0  0  1  0  0  3  0  0  0  0  0  0
  185.1350  177.7760  136.6220 C   0  0  1  0  0  3  0  0  0  0  0  0
  187.5410  179.5220  136.1050 C   0  0  0  0  0  2  0  0  0  0  0  0
  188.3380  177.1240  140.0070 C   0  0  1  0  0  3  0  0  0  0  0  0
  189.7520  174.1630  136.3290 O   0  0  0  0  0  1  0  0  0  0  0  0
  188.1850  175.7940  136.3840 O   0  0  0  0  0  0  0  0  0  0  0  0
  188.4640  178.5580  136.5110 O   0  0  0  0  0  0  0  0  0  0  0  0
  187.3030  176.5280  137.2020 C   0  0  2  0  0  3  0  0  0  0  0  0
  191.4630  175.9880  135.6180 O   0  0  0  0  0  0  0  0  0  0  0  0
  190.2020  176.1070  137.6000 N   0  0  0  0  0  0  0  0  0  0  0  0
  189.1640  175.1310  137.1580 C   0  0  2  0  0  0  0  0  0  0  0  0
  185.8390  176.4320  136.6790 C   0  0  2  0  0  3  0  0  0  0  0  0
  189.6950  176.3780  140.0350 C   0  0  1  0  0  3  0  0  0  0  0  0
  185.5250  177.0890  135.3200 C   0  0  2  0  0  3  0  0  0  0  0  0
  190.0790  177.0560  138.7320 C   0  0  2  0  0  3  0  0  0  0  0  0
  186.9660  179.1660  134.7400 C   0  0  0  0  0  2  0  0  0  0  0  0
  191.4170  176.2860  136.8420 C   0  0  0  0  0  0  0  0  0  0  0  0
  190.4410  176.8820  143.5280 C   0  0  1  0  0  3  0  0  0  0  0  0
  190.7290  178.1420  141.4410 C   0  0  0  0  0  2  0  0  0  0  0  0
  190.6110  178.2150  142.9140 C   0  0  0  0  0  0  0  0  0  0  0  0
  190.4770  179.2650  143.5240 O   0  0  0  0  0  0  0  0  0  0  0  0
  190.3030  175.9700  142.3210 C   0  0  0  0  0  2  0  0  0  0  0  0
  191.6820  176.5080  144.3270 C   0  0  0  0  0  1  0  0  0  0  0  0
  190.6580  176.7170  141.1070 N   0  0  1  0  0  0  0  0  0  0  0  0
  183.1020  176.4450  136.1710 N   0  0  0  0  0  2  0  0  0  0  0  0
  183.6190  177.6660  136.7590 C   0  0  1  0  0  3  0  0  0  0  0  0
  183.2340  177.6280  138.2210 C   0  0  0  0  0  2  0  0  0  0  0  0
  182.0060  176.7490  138.2630 C   0  0  0  0  0  2  0  0  0  0  0  0
  181.8100  176.2870  136.8220 C   0  0  2  0  0  3  0  0  0  0  0  0
  181.3370  174.8330  136.7380 C   0  0  1  0  0  3  0  0  0  0  0  0
  180.3050  174.6870  135.8090 O   0  0  0  0  0  1  0  0  0  0  0  0
  183.2040  172.0420  135.0680 N   0  0  0  0  0  0  0  0  0  0  0  0
  185.5640  170.7560  135.3480 Cl  0  0  0  0  0  0  0  0  0  0  0  0
  184.3570  171.9540  135.7810 C   0  0  0  0  0  0  0  0  0  0  0  0
  182.2350  172.9320  135.3960 C   0  0  0  0  0  3  0  0  0  0  0  0
  183.5840  173.7180  137.2320 C   0  0  0  0  0  3  0  0  0  0  0  0
  184.5610  172.7810  136.8900 C   0  0  0  0  0  3  0  0  0  0  0  0
  182.4050  173.8020  136.4800 C   0  0  0  0  0  0  0  0  0  0  0  0
  187.8180  173.2480  137.8660 O   0  0  0  0  0  1  0  0  0  0  0  0
  188.5510  174.3400  138.3310 C   0  0  0  0  0  2  0  0  0  0  0  0
  192.5470  176.8030  137.4820 O   0  0  0  0  0  0  0  0  0  0  0  0
  193.4240  176.0010  138.2640 C   0  0  0  0  0  2  0  0  0  0  0  0
  193.9860  174.8950  137.3880 C   0  0  0  0  0  2  0  0  0  0  0  0
  195.3860  174.0820  139.1210 O   0  0  0  0  0  0  0  0  0  0  0  0
  195.2790  174.3640  137.9370 C   0  0  0  0  0  0  0  0  0  0  0  0
  196.3950  175.2890  135.9230 C   0  0  0  0  0  1  0  0  0  0  0  0
  196.4690  174.2480  137.0340 C   0  0  0  0  0  2  0  0  0  0  0  0
  188.1130  177.9690  141.1100 O   0  0  0  0  0  0  0  0  0  0  0  0
  186.7220  178.0780  141.2990 C   0  0  2  0  0  3  0  0  0  0  0  0
  186.2210  179.2770  140.7920 O   0  0  0  0  0  1  0  0  0  0  0  0
  186.3360  177.8350  142.7580 C   0  0  1  0  0  3  0  0  0  0  0  0
  187.2580  178.4250  143.6050 F   0  0  0  0  0  0  0  0  0  0  0  0
  184.9660  179.7670  143.0250 F   0  0  0  0  0  0  0  0  0  0  0  0
  184.9370  178.3850  143.0470 C   0  0  0  0  0  0  0  0  0  0  0  0
  184.5060  177.9960  144.3000 F   0  0  0  0  0  0  0  0  0  0  0  0
  184.0440  177.9240  142.0940 F   0  0  0  0  0  0  0  0  0  0  0  0
  1 18  1  0  0  0  0
  1 16  1  0  0  0  0
  2  6  1  0  0  0  0
  3  2  1  0  0  0  0
  4 14  1  0  0  0  0
  4 28  1  0  0  0  0
  5  9  1  0  0  0  0
  6 15  1  0  0  0  0
  6 50  1  0  0  0  0
  7 13  1  0  0  0  0
  8 13  1  0  0  0  0
  8 10  1  0  0  0  0
  9  3  1  0  0  0  0
 10  3  1  0  0  0  0
 11 19  2  0  0  0  0
 12 17  1  0  0  0  0
 13 12  1  0  0  0  0
 13 42  1  0  0  0  0
 14 10  1  0  0  0  0
 15 26  1  0  0  0  0
 16  4  1  0  0  0  0
 16 14  1  0  0  0  0
 17  2  1  0  0  0  0
 17 15  1  0  0  0  0
 18  5  1  0  0  0  0
 19 43  1  0  0  0  0
 19 12  1  0  0  0  0
 20 25  1  0  0  0  0
 21 22  1  0  0  0  0
 22 23  2  0  0  0  0
 22 20  1  0  0  0  0
 24 20  1  0  0  0  0
 26 21  1  0  0  0  0
 26 24  1  0  0  0  0
 27 28  1  0  0  0  0
 27 31  1  0  0  0  0
 28 29  1  0  0  0  0
 29 30  1  0  0  0  0
 31 30  1  0  0  0  0
 32 31  1  0  0  0  0
 33 32  1  0  0  0  0
 34 37  2  0  0  0  0
 34 36  1  0  0  0  0
 35 36  1  0  0  0  0
 36 39  2  0  0  0  0
 37 40  1  0  0  0  0
 39 38  1  0  0  0  0
 40 32  1  0  0  0  0
 40 38  2  0  0  0  0
 41 42  1  0  0  0  0
 43 44  1  0  0  0  0
 45 47  1  0  0  0  0
 45 44  1  0  0  0  0
 47 46  2  0  0  0  0
 48 49  1  0  0  0  0
 49 47  1  0  0  0  0
 50 51  1  0  0  0  0
 51 53  1  0  0  0  0
 52 51  1  0  0  0  0
 53 56  1  0  0  0  0
 53 54  1  0  0  0  0
 55 56  1  0  0  0  0
 56 57  1  0  0  0  0
 58 56  1  0  0  0  0
M  END
>  <MODEL>
9

>  <REMARK>
 VINA RESULT:      -3.4      3.147      5.488
  Name = 
  14 active torsions:
  status: ('A' for Active; 'I' for Inactive)
    1  A    between atoms: C_3  and  C_13
    2  A    between atoms: C_3  and  C_50
    3  A    between atoms: C_12  and  C_49
    4  A    between atoms: C_13  and  O_32
    5  A    between atoms: C_16  and  C_35
    6  A    between atoms: C_19  and  C_39
    7  A    between atoms: O_21  and  C_47
    8  A    between atoms: O_21  and  C_55
    9  A    between atoms: C_22  and  O_32
   10  A    between atoms: C_31  and  C_42
   11  A    between atoms: C_31  and  C_58
   12  A    between atoms: C_41  and  N_57
   13  A    between atoms: C_47  and  C_53
   14  A    between atoms: C_49  and  C_53
                            x       y       z     vdW  Elec       q    Type
                         _______ _______ _______ _____ _____    ______ ____

>  <TORSDO>
F 14

$$$$
