=
 OpenBabel11062418093D

 25 26  0  0  1  0  0  0  0  0999 V2000
  183.9960  178.7710  144.0970 C   0  0  0  0  0  3  0  0  0  0  0  0
  185.1020  178.2240  143.7020 N   0  0  0  0  0  0  0  0  0  0  0  0
  179.0990  179.2170  144.4260 Cl  0  0  0  0  0  0  0  0  0  0  0  0
  178.9310  180.1140  141.5700 O   0  0  0  0  0  1  0  0  0  0  0  0
  182.0270  178.1660  140.8620 C   0  0  0  0  0  2  0  0  0  0  0  0
  179.9650  179.2140  141.8480 C   0  0  2  0  0  3  0  0  0  0  0  0
  180.4490  179.4500  143.2870 C   0  0  2  0  0  3  0  0  0  0  0  0
  182.8970  179.0350  143.1290 C   0  0  2  0  0  3  0  0  0  0  0  0
  181.5840  178.5220  143.7000 C   0  0  0  0  0  2  0  0  0  0  0  0
  183.2310  178.4000  141.7750 C   0  0  0  0  0  2  0  0  0  0  0  0
  181.0900  179.3680  140.8040 C   0  0  2  0  0  3  0  0  0  0  0  0
  180.6760  180.7140  138.7090 N   0  0  0  0  0  1  0  0  0  0  0  0
  180.5470  179.4840  139.4130 C   0  0  0  0  0  0  0  0  0  0  0  0
  179.9840  178.5030  138.8570 O   0  0  0  0  0  0  0  0  0  0  0  0
  186.1960  177.9440  144.5840 C   0  0  0  0  0  0  0  0  0  0  0  0
  188.3770  177.3660  146.2650 C   0  0  0  0  0  0  0  0  0  0  0  0
  188.4870  177.2040  144.8770 C   0  0  0  0  0  3  0  0  0  0  0  0
  187.1720  177.8380  146.8060 C   0  0  0  0  0  3  0  0  0  0  0  0
  187.4010  177.4870  144.0430 C   0  0  0  0  0  3  0  0  0  0  0  0
  186.0870  178.1220  145.9730 C   0  0  0  0  0  3  0  0  0  0  0  0
  189.5630  177.0990  147.1550 C   0  0  0  0  0  0  0  0  0  0  0  0
  189.4520  175.8340  147.7060 F   0  0  0  0  0  0  0  0  0  0  0  0
  189.6130  178.0180  148.1910 F   0  0  0  0  0  0  0  0  0  0  0  0
  191.9340  176.7120  147.1160 O   0  0  0  0  0  1  0  0  0  0  0  0
  190.8570  177.1680  146.3540 C   0  0  0  0  0  2  0  0  0  0  0  0
  2  1  2  0  0  0  0
  2 15  1  0  0  0  0
  5 10  1  0  0  0  0
  6  4  1  6  0  0  0
  6  7  1  0  0  0  0
  7  9  1  0  0  0  0
  7  3  1  1  0  0  0
  8  9  1  0  0  0  0
  8  1  1  1  0  0  0
 10  8  1  0  0  0  0
 11 13  1  6  0  0  0
 11  5  1  0  0  0  0
 11  6  1  0  0  0  0
 12 13  1  0  0  0  0
 14 13  2  0  0  0  0
 15 20  1  0  0  0  0
 16 18  1  0  0  0  0
 16 21  1  0  0  0  0
 17 16  2  0  0  0  0
 19 15  2  0  0  0  0
 19 17  1  0  0  0  0
 20 18  2  0  0  0  0
 21 22  1  0  0  0  0
 21 23  1  0  0  0  0
 25 24  1  0  0  0  0
 25 21  1  0  0  0  0
M  END
>  <MODEL>
1

>  <REMARK>
 VINA RESULT:      -8.0      0.000      0.000
  Name = 
  5 active torsions:
  status: ('A' for Active; 'I' for Inactive)
    1  A    between atoms: C_1  and  C_7
    2  A    between atoms: C_1  and  C_14
    3  A    between atoms: C_3  and  N_12
    4  A    between atoms: C_5  and  C_17
    5  A    between atoms: C_19  and  C_24
                            x       y       z     vdW  Elec       q    Type
                         _______ _______ _______ _____ _____    ______ ____

>  <TORSDO>
F 5

$$$$
=
 OpenBabel11062418093D

 25 26  0  0  1  0  0  0  0  0999 V2000
  183.8890  178.7810  144.0910 C   0  0  0  0  0  3  0  0  0  0  0  0
  185.0460  178.3410  143.7110 N   0  0  0  0  0  0  0  0  0  0  0  0
  179.0010  179.3810  144.2880 Cl  0  0  0  0  0  0  0  0  0  0  0  0
  178.9310  180.2270  141.4120 O   0  0  0  0  0  1  0  0  0  0  0  0
  181.9830  178.1730  140.8200 C   0  0  0  0  0  2  0  0  0  0  0  0
  179.9300  179.3020  141.7330 C   0  0  2  0  0  3  0  0  0  0  0  0
  180.3850  179.5500  143.1790 C   0  0  2  0  0  3  0  0  0  0  0  0
  182.8220  179.0590  143.0910 C   0  0  2  0  0  3  0  0  0  0  0  0
  181.4810  178.5970  143.6380 C   0  0  0  0  0  2  0  0  0  0  0  0
  183.1700  178.3880  141.7570 C   0  0  0  0  0  2  0  0  0  0  0  0
  181.0850  179.4010  140.7150 C   0  0  2  0  0  3  0  0  0  0  0  0
  180.8410  180.6850  138.5550 N   0  0  0  0  0  1  0  0  0  0  0  0
  180.5800  179.5070  139.3090 C   0  0  0  0  0  0  0  0  0  0  0  0
  179.9330  178.5610  138.7840 O   0  0  0  0  0  0  0  0  0  0  0  0
  186.1130  178.0540  144.6240 C   0  0  0  0  0  0  0  0  0  0  0  0
  188.1760  177.5250  146.4640 C   0  0  0  0  0  0  0  0  0  0  0  0
  186.9580  178.0700  146.8980 C   0  0  0  0  0  3  0  0  0  0  0  0
  188.3470  177.2290  145.1040 C   0  0  0  0  0  3  0  0  0  0  0  0
  185.9360  178.3360  145.9820 C   0  0  0  0  0  3  0  0  0  0  0  0
  187.3260  177.4950  144.1890 C   0  0  0  0  0  3  0  0  0  0  0  0
  189.2580  177.2020  147.4610 C   0  0  0  0  0  0  0  0  0  0  0  0
  188.9600  176.0110  148.1000 F   0  0  0  0  0  0  0  0  0  0  0  0
  189.3470  178.1970  148.4230 F   0  0  0  0  0  0  0  0  0  0  0  0
  191.6200  176.8210  147.6860 O   0  0  0  0  0  1  0  0  0  0  0  0
  190.6020  177.0540  146.7590 C   0  0  0  0  0  2  0  0  0  0  0  0
  2  1  2  0  0  0  0
  2 15  1  0  0  0  0
  5 10  1  0  0  0  0
  6  4  1  6  0  0  0
  6  7  1  0  0  0  0
  7  9  1  0  0  0  0
  7  3  1  1  0  0  0
  8  9  1  0  0  0  0
  8  1  1  1  0  0  0
 10  8  1  0  0  0  0
 11 13  1  6  0  0  0
 11  5  1  0  0  0  0
 11  6  1  0  0  0  0
 12 13  1  0  0  0  0
 14 13  2  0  0  0  0
 15 19  1  0  0  0  0
 16 17  1  0  0  0  0
 16 21  1  0  0  0  0
 18 16  2  0  0  0  0
 19 17  2  0  0  0  0
 20 15  2  0  0  0  0
 20 18  1  0  0  0  0
 21 22  1  0  0  0  0
 21 23  1  0  0  0  0
 25 21  1  0  0  0  0
 25 24  1  0  0  0  0
M  END
>  <MODEL>
2

>  <REMARK>
 VINA RESULT:      -8.0      0.293      1.009
  Name = 
  5 active torsions:
  status: ('A' for Active; 'I' for Inactive)
    1  A    between atoms: C_1  and  C_7
    2  A    between atoms: C_1  and  C_14
    3  A    between atoms: C_3  and  N_12
    4  A    between atoms: C_5  and  C_17
    5  A    between atoms: C_19  and  C_24
                            x       y       z     vdW  Elec       q    Type
                         _______ _______ _______ _____ _____    ______ ____

>  <TORSDO>
F 5

$$$$
=
 OpenBabel11062418093D

 25 26  0  0  1  0  0  0  0  0999 V2000
  185.6200  177.9180  142.8580 C   0  0  0  0  0  3  0  0  0  0  0  0
  185.9530  177.7100  144.0920 N   0  0  0  0  0  0  0  0  0  0  0  0
  183.2520  179.1740  138.7220 Cl  0  0  0  0  0  0  0  0  0  0  0  0
  180.5960  178.6700  140.0210 O   0  0  0  0  0  1  0  0  0  0  0  0
  182.1460  179.4780  143.3110 C   0  0  0  0  0  2  0  0  0  0  0  0
  181.6010  179.1230  140.8830 C   0  0  2  0  0  3  0  0  0  0  0  0
  182.9550  178.5970  140.3810 C   0  0  2  0  0  3  0  0  0  0  0  0
  184.1960  178.1480  142.4900 C   0  0  2  0  0  3  0  0  0  0  0  0
  184.1280  179.0280  141.2510 C   0  0  0  0  0  2  0  0  0  0  0  0
  183.4410  178.7540  143.6770 C   0  0  0  0  0  2  0  0  0  0  0  0
  181.2870  178.6880  142.3290 C   0  0  2  0  0  3  0  0  0  0  0  0
  179.3540  180.2250  142.8510 N   0  0  0  0  0  1  0  0  0  0  0  0
  179.8450  178.9020  142.6740 C   0  0  0  0  0  0  0  0  0  0  0  0
  179.0620  177.9230  142.8020 O   0  0  0  0  0  0  0  0  0  0  0  0
  187.3050  177.4830  144.5100 C   0  0  0  0  0  0  0  0  0  0  0  0
  189.9720  177.0090  145.2740 C   0  0  0  0  0  0  0  0  0  0  0  0
  189.5640  176.8020  143.9480 C   0  0  0  0  0  3  0  0  0  0  0  0
  189.0390  177.4730  146.2130 C   0  0  0  0  0  3  0  0  0  0  0  0
  188.2380  177.0340  143.5710 C   0  0  0  0  0  3  0  0  0  0  0  0
  187.7130  177.7050  145.8360 C   0  0  0  0  0  3  0  0  0  0  0  0
  191.4100  176.7960  145.6650 C   0  0  0  0  0  0  0  0  0  0  0  0
  192.1610  177.8960  145.2880 F   0  0  0  0  0  0  0  0  0  0  0  0
  191.9300  175.6810  145.0270 F   0  0  0  0  0  0  0  0  0  0  0  0
  192.4870  175.6470  147.4810 O   0  0  0  0  0  1  0  0  0  0  0  0
  191.5330  176.6190  147.1740 C   0  0  0  0  0  2  0  0  0  0  0  0
  1  2  2  0  0  0  0
  2 15  1  0  0  0  0
  5 10  1  0  0  0  0
  6  4  1  6  0  0  0
  6 11  1  0  0  0  0
  7  3  1  6  0  0  0
  7  6  1  0  0  0  0
  7  9  1  0  0  0  0
  8  1  1  1  0  0  0
  8 10  1  0  0  0  0
  9  8  1  0  0  0  0
 11 13  1  1  0  0  0
 11  5  1  0  0  0  0
 13 14  2  0  0  0  0
 13 12  1  0  0  0  0
 15 20  1  0  0  0  0
 16 21  1  0  0  0  0
 16 18  1  0  0  0  0
 17 16  2  0  0  0  0
 19 17  1  0  0  0  0
 19 15  2  0  0  0  0
 20 18  2  0  0  0  0
 21 25  1  0  0  0  0
 22 21  1  0  0  0  0
 23 21  1  0  0  0  0
 25 24  1  0  0  0  0
M  END
>  <MODEL>
3

>  <REMARK>
 VINA RESULT:      -7.9      2.272      2.978
  Name = 
  5 active torsions:
  status: ('A' for Active; 'I' for Inactive)
    1  A    between atoms: C_1  and  C_7
    2  A    between atoms: C_1  and  C_14
    3  A    between atoms: C_3  and  N_12
    4  A    between atoms: C_5  and  C_17
    5  A    between atoms: C_19  and  C_24
                            x       y       z     vdW  Elec       q    Type
                         _______ _______ _______ _____ _____    ______ ____

>  <TORSDO>
F 5

$$$$
=
 OpenBabel11062418093D

 25 26  0  0  1  0  0  0  0  0999 V2000
  186.2590  178.2200  145.2590 C   0  0  0  0  0  3  0  0  0  0  0  0
  185.7970  178.1090  144.0550 N   0  0  0  0  0  0  0  0  0  0  0  0
  190.0960  176.6390  142.6010 Cl  0  0  0  0  0  0  0  0  0  0  0  0
  191.9460  177.0400  144.9270 O   0  0  0  0  0  1  0  0  0  0  0  0
  189.0600  176.4760  147.2140 C   0  0  0  0  0  2  0  0  0  0  0  0
  190.6360  176.6880  145.2670 C   0  0  2  0  0  3  0  0  0  0  0  0
  189.6810  177.2710  144.2140 C   0  0  2  0  0  3  0  0  0  0  0  0
  187.6790  177.8890  145.5560 C   0  0  2  0  0  3  0  0  0  0  0  0
  188.2170  176.9510  144.4860 C   0  0  0  0  0  2  0  0  0  0  0  0
  187.7930  177.2930  146.9640 C   0  0  0  0  0  2  0  0  0  0  0  0
  190.3170  177.1670  146.6970 C   0  0  2  0  0  3  0  0  0  0  0  0
  192.0290  175.5870  147.6700 N   0  0  0  0  0  1  0  0  0  0  0  0
  191.4430  176.8830  147.6440 C   0  0  0  0  0  0  0  0  0  0  0  0
  191.8820  177.7820  148.4100 O   0  0  0  0  0  0  0  0  0  0  0  0
  184.4420  178.4120  143.7050 C   0  0  0  0  0  0  0  0  0  0  0  0
  181.7950  179.0070  142.9530 C   0  0  0  0  0  0  0  0  0  0  0  0
  182.7330  178.5990  141.9930 C   0  0  0  0  0  3  0  0  0  0  0  0
  182.1870  179.0980  144.2970 C   0  0  0  0  0  3  0  0  0  0  0  0
  184.0480  178.3080  142.3670 C   0  0  0  0  0  3  0  0  0  0  0  0
  183.5010  178.8070  144.6710 C   0  0  0  0  0  3  0  0  0  0  0  0
  180.3700  179.2800  142.5500 C   0  0  0  0  0  0  0  0  0  0  0  0
  179.7690  180.0940  143.4950 F   0  0  0  0  0  0  0  0  0  0  0  0
  179.6490  178.0980  142.4780 F   0  0  0  0  0  0  0  0  0  0  0  0
  179.7020  181.2310  141.3160 O   0  0  0  0  0  1  0  0  0  0  0  0
  180.3220  179.9860  141.2010 C   0  0  0  0  0  2  0  0  0  0  0  0
  2  1  2  0  0  0  0
  6  4  1  6  0  0  0
  6 11  1  0  0  0  0
  7  3  1  6  0  0  0
  7  9  1  0  0  0  0
  7  6  1  0  0  0  0
  8  1  1  6  0  0  0
  8 10  1  0  0  0  0
  9  8  1  0  0  0  0
 10  5  1  0  0  0  0
 11  5  1  0  0  0  0
 11 13  1  1  0  0  0
 13 12  1  0  0  0  0
 13 14  2  0  0  0  0
 15  2  1  0  0  0  0
 15 20  1  0  0  0  0
 16 18  1  0  0  0  0
 17 19  1  0  0  0  0
 17 16  2  0  0  0  0
 18 20  2  0  0  0  0
 19 15  2  0  0  0  0
 21 16  1  0  0  0  0
 21 22  1  0  0  0  0
 23 21  1  0  0  0  0
 25 24  1  0  0  0  0
 25 21  1  0  0  0  0
M  END
>  <MODEL>
4

>  <REMARK>
 VINA RESULT:      -7.9      4.378      9.877
  Name = 
  5 active torsions:
  status: ('A' for Active; 'I' for Inactive)
    1  A    between atoms: C_1  and  C_7
    2  A    between atoms: C_1  and  C_14
    3  A    between atoms: C_3  and  N_12
    4  A    between atoms: C_5  and  C_17
    5  A    between atoms: C_19  and  C_24
                            x       y       z     vdW  Elec       q    Type
                         _______ _______ _______ _____ _____    ______ ____

>  <TORSDO>
F 5

$$$$
=
 OpenBabel11062418093D

 25 26  0  0  1  0  0  0  0  0999 V2000
  185.5730  177.6420  144.4010 C   0  0  0  0  0  3  0  0  0  0  0  0
  185.2080  178.2330  143.3080 N   0  0  0  0  0  0  0  0  0  0  0  0
  188.4240  178.0010  148.4050 Cl  0  0  0  0  0  0  0  0  0  0  0  0
  190.7230  176.7360  146.9530 O   0  0  0  0  0  1  0  0  0  0  0  0
  189.3310  178.0650  143.7630 C   0  0  0  0  0  2  0  0  0  0  0  0
  189.8640  177.4980  146.1530 C   0  0  2  0  0  3  0  0  0  0  0  0
  188.4420  177.4020  146.7270 C   0  0  2  0  0  3  0  0  0  0  0  0
  187.0150  177.4120  144.6900 C   0  0  2  0  0  3  0  0  0  0  0  0
  187.4160  178.1960  145.9290 C   0  0  0  0  0  2  0  0  0  0  0  0
  187.8580  177.7850  143.4660 C   0  0  0  0  0  2  0  0  0  0  0  0
  189.9530  177.0250  144.6880 C   0  0  2  0  0  3  0  0  0  0  0  0
  191.8280  175.4630  144.0420 N   0  0  0  0  0  1  0  0  0  0  0  0
  191.3700  176.7920  144.2630 C   0  0  0  0  0  0  0  0  0  0  0  0
  192.1580  177.7610  144.0920 O   0  0  0  0  0  0  0  0  0  0  0  0
  183.8380  178.4840  142.9730 C   0  0  0  0  0  0  0  0  0  0  0  0
  181.1630  178.9770  142.2510 C   0  0  0  0  0  0  0  0  0  0  0  0
  182.1070  178.6130  141.2790 C   0  0  0  0  0  3  0  0  0  0  0  0
  181.5640  179.0740  143.5920 C   0  0  0  0  0  3  0  0  0  0  0  0
  183.4360  178.3730  141.6390 C   0  0  0  0  0  3  0  0  0  0  0  0
  182.8920  178.8330  143.9520 C   0  0  0  0  0  3  0  0  0  0  0  0
  179.7240  179.1940  141.8640 C   0  0  0  0  0  0  0  0  0  0  0  0
  179.0680  179.8710  142.8790 F   0  0  0  0  0  0  0  0  0  0  0  0
  179.0820  177.9810  141.6710 F   0  0  0  0  0  0  0  0  0  0  0  0
  179.8400  181.3760  140.8650 O   0  0  0  0  0  1  0  0  0  0  0  0
  179.6330  180.0230  140.5890 C   0  0  0  0  0  2  0  0  0  0  0  0
  2  1  2  0  0  0  0
  5 11  1  0  0  0  0
  6  7  1  0  0  0  0
  6  4  1  1  0  0  0
  7  3  1  1  0  0  0
  8  1  1  6  0  0  0
  8  9  1  0  0  0  0
  9  7  1  0  0  0  0
 10  5  1  0  0  0  0
 10  8  1  0  0  0  0
 11 13  1  6  0  0  0
 11  6  1  0  0  0  0
 12 13  1  0  0  0  0
 14 13  2  0  0  0  0
 15  2  1  0  0  0  0
 15 20  1  0  0  0  0
 16 18  1  0  0  0  0
 17 19  1  0  0  0  0
 17 16  2  0  0  0  0
 18 20  2  0  0  0  0
 19 15  2  0  0  0  0
 21 16  1  0  0  0  0
 21 22  1  0  0  0  0
 23 21  1  0  0  0  0
 25 24  1  0  0  0  0
 25 21  1  0  0  0  0
M  END
>  <MODEL>
5

>  <REMARK>
 VINA RESULT:      -7.7      4.400      9.504
  Name = 
  5 active torsions:
  status: ('A' for Active; 'I' for Inactive)
    1  A    between atoms: C_1  and  C_7
    2  A    between atoms: C_1  and  C_14
    3  A    between atoms: C_3  and  N_12
    4  A    between atoms: C_5  and  C_17
    5  A    between atoms: C_19  and  C_24
                            x       y       z     vdW  Elec       q    Type
                         _______ _______ _______ _____ _____    ______ ____

>  <TORSDO>
F 5

$$$$
=
 OpenBabel11062418093D

 25 26  0  0  1  0  0  0  0  0999 V2000
  189.8210  177.1310  142.7550 C   0  0  0  0  0  3  0  0  0  0  0  0
  189.6550  177.5540  141.5430 N   0  0  0  0  0  0  0  0  0  0  0  0
  189.9930  177.2060  147.6800 Cl  0  0  0  0  0  0  0  0  0  0  0  0
  187.4130  178.7290  147.8050 O   0  0  0  0  0  1  0  0  0  0  0  0
  186.4380  177.1790  144.5600 C   0  0  0  0  0  2  0  0  0  0  0  0
  187.5300  177.8500  146.7230 C   0  0  2  0  0  3  0  0  0  0  0  0
  189.0080  177.7740  146.3090 C   0  0  2  0  0  3  0  0  0  0  0  0
  188.8840  177.5480  143.8340 C   0  0  2  0  0  3  0  0  0  0  0  0
  189.2550  176.8420  145.1290 C   0  0  0  0  0  2  0  0  0  0  0  0
  187.4390  177.2640  143.4090 C   0  0  0  0  0  2  0  0  0  0  0  0
  186.6080  178.3050  145.5740 C   0  0  2  0  0  3  0  0  0  0  0  0
  184.3810  179.4420  145.2210 N   0  0  0  0  0  1  0  0  0  0  0  0
  185.2540  178.7090  146.0730 C   0  0  0  0  0  0  0  0  0  0  0  0
  184.8780  178.4000  147.2350 O   0  0  0  0  0  0  0  0  0  0  0  0
  190.5210  177.1890  140.4610 C   0  0  0  0  0  0  0  0  0  0  0  0
  192.2700  176.5070  138.3640 C   0  0  0  0  0  0  0  0  0  0  0  0
  192.7560  177.1320  139.5220 C   0  0  0  0  0  3  0  0  0  0  0  0
  190.9030  176.2090  138.2710 C   0  0  0  0  0  3  0  0  0  0  0  0
  191.8860  177.4740  140.5610 C   0  0  0  0  0  3  0  0  0  0  0  0
  190.0320  176.5500  139.3090 C   0  0  0  0  0  3  0  0  0  0  0  0
  193.2190  176.1050  137.2660 C   0  0  0  0  0  0  0  0  0  0  0  0
  194.0160  177.1830  136.9230 F   0  0  0  0  0  0  0  0  0  0  0  0
  192.5180  175.7110  136.1360 F   0  0  0  0  0  0  0  0  0  0  0  0
  195.4540  175.2380  137.4350 O   0  0  0  0  0  1  0  0  0  0  0  0
  194.1170  174.9640  137.7270 C   0  0  0  0  0  2  0  0  0  0  0  0
  2  1  2  0  0  0  0
  5 11  1  0  0  0  0
  6  4  1  1  0  0  0
  7  6  1  0  0  0  0
  7  3  1  1  0  0  0
  8  1  1  6  0  0  0
  8  9  1  0  0  0  0
  9  7  1  0  0  0  0
 10  8  1  0  0  0  0
 10  5  1  0  0  0  0
 11 13  1  1  0  0  0
 11  6  1  0  0  0  0
 12 13  1  0  0  0  0
 13 14  2  0  0  0  0
 15 19  1  0  0  0  0
 15  2  1  0  0  0  0
 16 17  1  0  0  0  0
 17 19  2  0  0  0  0
 18 16  2  0  0  0  0
 18 20  1  0  0  0  0
 20 15  2  0  0  0  0
 21 25  1  0  0  0  0
 21 16  1  0  0  0  0
 22 21  1  0  0  0  0
 23 21  1  0  0  0  0
 24 25  1  0  0  0  0
M  END
>  <MODEL>
6

>  <REMARK>
 VINA RESULT:      -7.4      6.471      8.634
  Name = 
  5 active torsions:
  status: ('A' for Active; 'I' for Inactive)
    1  A    between atoms: C_1  and  C_7
    2  A    between atoms: C_1  and  C_14
    3  A    between atoms: C_3  and  N_12
    4  A    between atoms: C_5  and  C_17
    5  A    between atoms: C_19  and  C_24
                            x       y       z     vdW  Elec       q    Type
                         _______ _______ _______ _____ _____    ______ ____

>  <TORSDO>
F 5

$$$$
=
 OpenBabel11062418093D

 25 26  0  0  1  0  0  0  0  0999 V2000
  189.3970  177.5680  141.2130 C   0  0  0  0  0  3  0  0  0  0  0  0
  188.7160  176.7830  141.9850 N   0  0  0  0  0  0  0  0  0  0  0  0
  193.3060  176.0990  138.5960 Cl  0  0  0  0  0  0  0  0  0  0  0  0
  191.5740  175.5440  136.2120 O   0  0  0  0  0  1  0  0  0  0  0  0
  189.2080  178.1530  137.4280 C   0  0  0  0  0  2  0  0  0  0  0  0
  191.1400  176.5940  137.0270 C   0  0  2  0  0  3  0  0  0  0  0  0
  191.5380  176.2870  138.4800 C   0  0  2  0  0  3  0  0  0  0  0  0
  189.6340  177.2080  139.7890 C   0  0  2  0  0  3  0  0  0  0  0  0
  191.1110  177.3690  139.4630 C   0  0  0  0  0  2  0  0  0  0  0  0
  188.7400  178.0580  138.8790 C   0  0  0  0  0  2  0  0  0  0  0  0
  189.6220  176.8020  136.8530 C   0  0  2  0  0  3  0  0  0  0  0  0
  188.4360  175.6540  134.9430 N   0  0  0  0  0  1  0  0  0  0  0  0
  189.2140  176.7490  135.4130 C   0  0  0  0  0  0  0  0  0  0  0  0
  189.5460  177.6670  134.6160 O   0  0  0  0  0  0  0  0  0  0  0  0
  188.4530  177.0730  143.3630 C   0  0  0  0  0  0  0  0  0  0  0  0
  187.8730  177.6560  146.0550 C   0  0  0  0  0  0  0  0  0  0  0  0
  186.8380  177.4990  145.1220 C   0  0  0  0  0  3  0  0  0  0  0  0
  189.2020  177.5020  145.6340 C   0  0  0  0  0  3  0  0  0  0  0  0
  187.1270  177.2130  143.7840 C   0  0  0  0  0  3  0  0  0  0  0  0
  189.4920  177.2160  144.2970 C   0  0  0  0  0  3  0  0  0  0  0  0
  187.5540  177.9230  147.5020 C   0  0  0  0  0  0  0  0  0  0  0  0
  188.3820  178.9230  147.9830 F   0  0  0  0  0  0  0  0  0  0  0  0
  187.7630  176.7850  148.2650 F   0  0  0  0  0  0  0  0  0  0  0  0
  186.0020  179.7580  147.4910 O   0  0  0  0  0  1  0  0  0  0  0  0
  186.1070  178.3760  147.6550 C   0  0  0  0  0  2  0  0  0  0  0  0
  1  2  2  0  0  0  0
  2 15  1  0  0  0  0
  5 10  1  0  0  0  0
  6  4  1  6  0  0  0
  6  7  1  0  0  0  0
  7  3  1  6  0  0  0
  7  9  1  0  0  0  0
  8  1  1  1  0  0  0
  9  8  1  0  0  0  0
 10  8  1  0  0  0  0
 11 13  1  6  0  0  0
 11  6  1  0  0  0  0
 11  5  1  0  0  0  0
 12 13  1  0  0  0  0
 14 13  2  0  0  0  0
 15 19  2  0  0  0  0
 15 20  1  0  0  0  0
 16 21  1  0  0  0  0
 17 16  2  0  0  0  0
 18 16  1  0  0  0  0
 19 17  1  0  0  0  0
 20 18  2  0  0  0  0
 21 25  1  0  0  0  0
 21 22  1  0  0  0  0
 21 23  1  0  0  0  0
 24 25  1  0  0  0  0
M  END
>  <MODEL>
7

>  <REMARK>
 VINA RESULT:      -7.2      6.460      8.053
  Name = 
  5 active torsions:
  status: ('A' for Active; 'I' for Inactive)
    1  A    between atoms: C_1  and  C_7
    2  A    between atoms: C_1  and  C_14
    3  A    between atoms: C_3  and  N_12
    4  A    between atoms: C_5  and  C_17
    5  A    between atoms: C_19  and  C_24
                            x       y       z     vdW  Elec       q    Type
                         _______ _______ _______ _____ _____    ______ ____

>  <TORSDO>
F 5

$$$$
=
 OpenBabel11062418093D

 25 26  0  0  1  0  0  0  0  0999 V2000
  189.2900  177.9440  140.9420 C   0  0  0  0  0  3  0  0  0  0  0  0
  189.2370  177.0010  141.8280 N   0  0  0  0  0  0  0  0  0  0  0  0
  187.1840  178.6240  136.5390 Cl  0  0  0  0  0  0  0  0  0  0  0  0
  189.6850  177.7390  135.1410 O   0  0  0  0  0  1  0  0  0  0  0  0
  190.5110  175.6560  138.1180 C   0  0  0  0  0  2  0  0  0  0  0  0
  189.4520  177.1310  136.3790 C   0  0  2  0  0  3  0  0  0  0  0  0
  188.7230  178.1320  137.2890 C   0  0  2  0  0  3  0  0  0  0  0  0
  189.6700  177.6380  139.5360 C   0  0  2  0  0  3  0  0  0  0  0  0
  188.4180  177.5760  138.6740 C   0  0  0  0  0  2  0  0  0  0  0  0
  190.4780  176.3360  139.4860 C   0  0  0  0  0  2  0  0  0  0  0  0
  190.7830  176.6340  136.9800 C   0  0  2  0  0  3  0  0  0  0  0  0
  191.1280  174.8180  135.2610 N   0  0  0  0  0  1  0  0  0  0  0  0
  191.6360  175.9510  135.9550 C   0  0  0  0  0  0  0  0  0  0  0  0
  192.7940  176.3750  135.6950 O   0  0  0  0  0  0  0  0  0  0  0  0
  188.8780  177.2310  143.1960 C   0  0  0  0  0  0  0  0  0  0  0  0
  188.1080  177.6830  145.8650 C   0  0  0  0  0  0  0  0  0  0  0  0
  187.1540  177.3280  144.9000 C   0  0  0  0  0  3  0  0  0  0  0  0
  189.4550  177.7930  145.4890 C   0  0  0  0  0  3  0  0  0  0  0  0
  187.5370  177.1080  143.5740 C   0  0  0  0  0  3  0  0  0  0  0  0
  189.8380  177.5730  144.1630 C   0  0  0  0  0  3  0  0  0  0  0  0
  187.6960  177.8790  147.3010 C   0  0  0  0  0  0  0  0  0  0  0  0
  188.4420  178.9010  147.8620 F   0  0  0  0  0  0  0  0  0  0  0  0
  187.9250  176.7250  148.0350 F   0  0  0  0  0  0  0  0  0  0  0  0
  186.0570  179.6350  147.3460 O   0  0  0  0  0  1  0  0  0  0  0  0
  186.2210  178.2490  147.3870 C   0  0  0  0  0  2  0  0  0  0  0  0
  1  2  2  0  0  0  0
  2 15  1  0  0  0  0
  5 10  1  0  0  0  0
  6  4  1  6  0  0  0
  6 11  1  0  0  0  0
  6  7  1  0  0  0  0
  7  3  1  6  0  0  0
  7  9  1  0  0  0  0
  8  1  1  1  0  0  0
  9  8  1  0  0  0  0
 10  8  1  0  0  0  0
 11 13  1  6  0  0  0
 11  5  1  0  0  0  0
 12 13  1  0  0  0  0
 14 13  2  0  0  0  0
 15 19  2  0  0  0  0
 15 20  1  0  0  0  0
 16 21  1  0  0  0  0
 17 16  2  0  0  0  0
 18 16  1  0  0  0  0
 19 17  1  0  0  0  0
 20 18  2  0  0  0  0
 21 25  1  0  0  0  0
 21 22  1  0  0  0  0
 21 23  1  0  0  0  0
 24 25  1  0  0  0  0
M  END
>  <MODEL>
8

>  <REMARK>
 VINA RESULT:      -7.2      6.246      7.960
  Name = 
  5 active torsions:
  status: ('A' for Active; 'I' for Inactive)
    1  A    between atoms: C_1  and  C_7
    2  A    between atoms: C_1  and  C_14
    3  A    between atoms: C_3  and  N_12
    4  A    between atoms: C_5  and  C_17
    5  A    between atoms: C_19  and  C_24
                            x       y       z     vdW  Elec       q    Type
                         _______ _______ _______ _____ _____    ______ ____

>  <TORSDO>
F 5

$$$$
=
 OpenBabel11062418093D

 25 26  0  0  1  0  0  0  0  0999 V2000
  185.2900  178.7520  143.0670 C   0  0  0  0  0  3  0  0  0  0  0  0
  186.1000  177.7850  142.7710 N   0  0  0  0  0  0  0  0  0  0  0  0
  180.5270  178.8350  144.3320 Cl  0  0  0  0  0  0  0  0  0  0  0  0
  179.7460  179.6670  141.5590 O   0  0  0  0  0  1  0  0  0  0  0  0
  182.7890  177.9450  140.2740 C   0  0  0  0  0  2  0  0  0  0  0  0
  180.8800  178.8530  141.6350 C   0  0  2  0  0  3  0  0  0  0  0  0
  181.6120  179.1480  142.9540 C   0  0  2  0  0  3  0  0  0  0  0  0
  184.0080  178.9150  142.3280 C   0  0  2  0  0  3  0  0  0  0  0  0
  182.8730  178.3150  143.1430 C   0  0  0  0  0  2  0  0  0  0  0  0
  184.1240  178.2840  140.9370 C   0  0  0  0  0  2  0  0  0  0  0  0
  181.7690  179.0720  140.3940 C   0  0  2  0  0  3  0  0  0  0  0  0
  180.3000  177.9500  138.6740 N   0  0  0  0  0  1  0  0  0  0  0  0
  180.9620  179.1230  139.1330 C   0  0  0  0  0  0  0  0  0  0  0  0
  180.8560  180.1960  138.4800 O   0  0  0  0  0  0  0  0  0  0  0  0
  187.3460  177.5740  143.4450 C   0  0  0  0  0  0  0  0  0  0  0  0
  189.7670  177.1770  144.8260 C   0  0  0  0  0  0  0  0  0  0  0  0
  188.5700  177.3780  145.5300 C   0  0  0  0  0  3  0  0  0  0  0  0
  189.7400  177.1580  143.4230 C   0  0  0  0  0  3  0  0  0  0  0  0
  187.3700  177.5790  144.8430 C   0  0  0  0  0  3  0  0  0  0  0  0
  188.5400  177.3590  142.7360 C   0  0  0  0  0  3  0  0  0  0  0  0
  191.0500  176.9200  145.5710 C   0  0  0  0  0  0  0  0  0  0  0  0
  191.9220  177.9760  145.3700 F   0  0  0  0  0  0  0  0  0  0  0  0
  191.6590  175.7640  145.1080 F   0  0  0  0  0  0  0  0  0  0  0  0
  191.9760  176.8410  147.7870 O   0  0  0  0  0  1  0  0  0  0  0  0
  190.7820  176.7890  147.0650 C   0  0  0  0  0  2  0  0  0  0  0  0
  2  1  2  0  0  0  0
  2 15  1  0  0  0  0
  5 11  1  0  0  0  0
  5 10  1  0  0  0  0
  6  4  1  6  0  0  0
  6  7  1  0  0  0  0
  7  9  1  0  0  0  0
  7  3  1  1  0  0  0
  8  1  1  1  0  0  0
  8  9  1  0  0  0  0
 10  8  1  0  0  0  0
 11 13  1  6  0  0  0
 11  6  1  0  0  0  0
 12 13  1  0  0  0  0
 14 13  2  0  0  0  0
 15 19  1  0  0  0  0
 16 17  1  0  0  0  0
 16 21  1  0  0  0  0
 18 16  2  0  0  0  0
 19 17  2  0  0  0  0
 20 18  1  0  0  0  0
 20 15  2  0  0  0  0
 21 25  1  0  0  0  0
 22 21  1  0  0  0  0
 23 21  1  0  0  0  0
 25 24  1  0  0  0  0
M  END
>  <MODEL>
9

>  <REMARK>
 VINA RESULT:      -7.2      1.600      2.133
  Name = 
  5 active torsions:
  status: ('A' for Active; 'I' for Inactive)
    1  A    between atoms: C_1  and  C_7
    2  A    between atoms: C_1  and  C_14
    3  A    between atoms: C_3  and  N_12
    4  A    between atoms: C_5  and  C_17
    5  A    between atoms: C_19  and  C_24
                            x       y       z     vdW  Elec       q    Type
                         _______ _______ _______ _____ _____    ______ ____

>  <TORSDO>
F 5

$$$$
