=
 OpenBabel11062413453D

 35 37  0  0  1  0  0  0  0  0999 V2000
  188.7360  177.2510  142.8420 C   0  0  0  0  0  0  0  0  0  0  0  0
  190.6600  178.8010  144.7500 C   0  0  0  0  0  2  0  0  0  0  0  0
  191.1340  177.4560  142.6230 C   0  0  1  0  0  3  0  0  0  0  0  0
  189.7640  177.7050  142.1930 N   0  0  0  0  0  0  0  0  0  0  0  0
  189.0010  176.9290  145.3630 C   0  0  1  0  0  3  0  0  0  0  0  0
  188.8980  176.4150  143.9940 N   0  0  0  0  0  2  0  0  0  0  0  0
  192.0420  177.4350  141.4110 C   0  0  0  0  0  1  0  0  0  0  0  0
  190.3650  177.5810  145.6340 C   0  0  1  0  0  3  0  0  0  0  0  0
  191.6120  178.5450  143.5790 C   0  0  0  0  0  2  0  0  0  0  0  0
  187.3650  177.5020  142.3120 C   0  0  0  0  0  2  0  0  0  0  0  0
  185.4940  179.0070  139.8690 N   0  0  0  0  0  0  0  0  0  0  0  0
  185.3060  179.7520  142.0980 O   0  0  0  0  0  0  0  0  0  0  0  0
  187.5980  178.2240  140.0210 O   0  0  0  0  0  0  0  0  0  0  0  0
  187.3600  178.6790  141.3440 C   0  0  1  0  0  3  0  0  0  0  0  0
  185.9780  179.1980  141.1890 C   0  0  0  0  0  0  0  0  0  0  0  0
  186.4700  178.4460  139.2330 C   0  0  0  0  0  0  0  0  0  0  0  0
  186.3840  178.0690  137.8060 C   0  0  0  0  0  0  0  0  0  0  0  0
  188.3380  179.4110  137.2190 O   0  0  0  0  0  1  0  0  0  0  0  0
  185.3610  177.2050  137.3840 C   0  0  0  0  0  3  0  0  0  0  0  0
  187.1860  178.1800  135.5110 C   0  0  0  0  0  3  0  0  0  0  0  0
  185.2500  176.8340  136.0420 C   0  0  0  0  0  0  0  0  0  0  0  0
  187.3040  178.5560  136.8530 C   0  0  0  0  0  0  0  0  0  0  0  0
  186.1620  177.3210  135.1060 C   0  0  0  0  0  3  0  0  0  0  0  0
  184.1610  175.9190  135.6120 C   0  0  0  0  0  1  0  0  0  0  0  0
  191.3910  176.6270  145.6070 O   0  0  0  0  0  0  0  0  0  0  0  0
  193.1810  175.3850  147.3020 O   0  0  0  0  0  0  0  0  0  0  0  0
  191.6810  177.5050  148.2130 O   0  0  0  0  0  1  0  0  0  0  0  0
  191.6690  176.1380  147.2180 P   0  0  0  0  0  0  0  0  0  0  0  0
  190.6140  175.1730  147.7170 O   0  0  0  0  0  1  0  0  0  0  0  0
  187.7910  177.8110  145.7500 C   0  0  2  0  0  3  0  0  0  0  0  0
  187.8260  178.2520  147.2250 C   0  0  0  0  0  3  0  0  0  0  0  0
  187.9660  177.1470  148.0680 O   0  0  0  0  0  1  0  0  0  0  0  0
  186.6470  178.9200  147.5630 O   0  0  0  0  0  1  0  0  0  0  0  0
  186.4760  177.0850  145.4370 C   0  0  0  0  0  2  0  0  0  0  0  0
  185.5400  177.9640  144.8840 O   0  0  0  0  0  1  0  0  0  0  0  0
  1  6  1  0  0  0  0
  2  8  1  0  0  0  0
  3  7  1  6  0  0  0
  3  9  1  0  0  0  0
  4  3  1  0  0  0  0
  4  1  2  0  0  0  0
  5  8  1  0  0  0  0
  5 30  1  6  0  0  0
  6  5  1  0  0  0  0
  8 25  1  6  0  0  0
  9  2  1  0  0  0  0
 10  1  1  0  0  0  0
 11 15  1  0  0  0  0
 13 14  1  0  0  0  0
 14 10  1  1  0  0  0
 15 14  1  0  0  0  0
 15 12  2  0  0  0  0
 16 11  2  0  0  0  0
 16 13  1  0  0  0  0
 17 16  1  0  0  0  0
 19 17  1  0  0  0  0
 20 22  1  0  0  0  0
 21 19  2  0  0  0  0
 22 18  1  0  0  0  0
 22 17  2  0  0  0  0
 23 20  2  0  0  0  0
 23 21  1  0  0  0  0
 24 21  1  0  0  0  0
 25 28  1  0  0  0  0
 28 26  2  0  0  0  0
 28 29  1  0  0  0  0
 28 27  1  0  0  0  0
 30 34  1  1  0  0  0
 30 31  1  0  0  0  0
 31 33  1  0  0  0  0
 31 32  1  0  0  0  0
 35 34  1  0  0  0  0
M  END
>  <MODEL>
1

>  <REMARK>
 VINA RESULT:      -8.1      0.000      0.000
  Name = 
  8 active torsions:
  status: ('A' for Active; 'I' for Inactive)
    1  A    between atoms: C_2  and  C_23
    2  A    between atoms: C_4  and  C_18
    3  A    between atoms: P_10  and  O_27
    4  A    between atoms: C_16  and  C_18
    5  A    between atoms: C_19  and  C_33
    6  A    between atoms: C_20  and  C_33
    7  A    between atoms: C_25  and  C_33
    8  A    between atoms: O_27  and  C_30
                            x       y       z     vdW  Elec       q    Type
                         _______ _______ _______ _____ _____    ______ ____

>  <TORSDO>
F 8

$$$$
=
 OpenBabel11062413453D

 35 37  0  0  1  0  0  0  0  0999 V2000
  183.3420  178.5740  143.1170 C   0  0  0  0  0  0  0  0  0  0  0  0
  181.4700  179.8050  140.9440 C   0  0  0  0  0  2  0  0  0  0  0  0
  180.9260  178.6100  143.1420 C   0  0  1  0  0  3  0  0  0  0  0  0
  182.2360  178.9990  143.6470 N   0  0  0  0  0  0  0  0  0  0  0  0
  183.3000  178.0230  140.6230 C   0  0  1  0  0  3  0  0  0  0  0  0
  183.3310  177.6340  142.0350 N   0  0  0  0  0  2  0  0  0  0  0  0
  179.9280  178.6190  144.2820 C   0  0  0  0  0  1  0  0  0  0  0  0
  181.9190  178.5420  140.1960 C   0  0  1  0  0  3  0  0  0  0  0  0
  180.4480  179.5740  142.0610 C   0  0  0  0  0  2  0  0  0  0  0  0
  184.6450  178.9740  143.7210 C   0  0  0  0  0  2  0  0  0  0  0  0
  186.8390  178.4250  146.2940 N   0  0  0  0  0  0  0  0  0  0  0  0
  184.5860  178.9230  146.7770 O   0  0  0  0  0  0  0  0  0  0  0  0
  186.4870  177.5120  144.2680 O   0  0  0  0  0  0  0  0  0  0  0  0
  185.1730  177.8880  144.6510 C   0  0  1  0  0  3  0  0  0  0  0  0
  185.4530  178.4640  145.9900 C   0  0  0  0  0  0  0  0  0  0  0  0
  187.3910  177.8610  145.2690 C   0  0  0  0  0  0  0  0  0  0  0  0
  188.8470  177.6230  145.1740 C   0  0  0  0  0  0  0  0  0  0  0  0
  188.9310  178.3780  142.8530 O   0  0  0  0  0  1  0  0  0  0  0  0
  189.5360  177.1260  146.2910 C   0  0  0  0  0  3  0  0  0  0  0  0
  190.9410  177.6380  143.9340 C   0  0  0  0  0  3  0  0  0  0  0  0
  190.9110  176.8860  146.2310 C   0  0  0  0  0  0  0  0  0  0  0  0
  189.5650  177.8820  143.9860 C   0  0  0  0  0  0  0  0  0  0  0  0
  191.6130  177.1430  145.0530 C   0  0  0  0  0  3  0  0  0  0  0  0
  191.6260  176.3600  147.4220 C   0  0  0  0  0  1  0  0  0  0  0  0
  180.9650  177.5160  140.2330 O   0  0  0  0  0  0  0  0  0  0  0  0
  181.8760  175.4170  138.6900 O   0  0  0  0  0  1  0  0  0  0  0  0
  179.3250  176.3800  138.3190 O   0  0  0  0  0  1  0  0  0  0  0  0
  180.9200  176.8110  138.6800 P   0  0  0  0  0  0  0  0  0  0  0  0
  181.4330  177.7490  137.6070 O   0  0  0  0  0  0  0  0  0  0  0  0
  184.4720  178.9610  140.2470 C   0  0  2  0  0  3  0  0  0  0  0  0
  184.4010  179.4450  138.7870 C   0  0  0  0  0  3  0  0  0  0  0  0
  185.5690  179.1100  138.0980 O   0  0  0  0  0  1  0  0  0  0  0  0
  184.2400  180.8310  138.7390 O   0  0  0  0  0  1  0  0  0  0  0  0
  185.8170  178.2760  140.5220 C   0  0  0  0  0  2  0  0  0  0  0  0
  186.7420  179.1830  141.0470 O   0  0  0  0  0  1  0  0  0  0  0  0
  1  4  2  0  0  0  0
  1 10  1  0  0  0  0
  2  9  1  0  0  0  0
  3  4  1  0  0  0  0
  3  7  1  1  0  0  0
  5 30  1  1  0  0  0
  5  6  1  0  0  0  0
  6  1  1  0  0  0  0
  8 25  1  1  0  0  0
  8  5  1  0  0  0  0
  8  2  1  0  0  0  0
  9  3  1  0  0  0  0
 13 14  1  0  0  0  0
 13 16  1  0  0  0  0
 14 10  1  6  0  0  0
 14 15  1  0  0  0  0
 15 11  1  0  0  0  0
 15 12  2  0  0  0  0
 16 11  2  0  0  0  0
 17 16  1  0  0  0  0
 17 19  1  0  0  0  0
 18 22  1  0  0  0  0
 20 22  1  0  0  0  0
 20 23  2  0  0  0  0
 21 19  2  0  0  0  0
 21 24  1  0  0  0  0
 22 17  2  0  0  0  0
 23 21  1  0  0  0  0
 27 28  1  0  0  0  0
 28 26  1  0  0  0  0
 28 25  1  0  0  0  0
 29 28  2  0  0  0  0
 30 34  1  6  0  0  0
 31 30  1  0  0  0  0
 32 31  1  0  0  0  0
 33 31  1  0  0  0  0
 34 35  1  0  0  0  0
M  END
>  <MODEL>
2

>  <REMARK>
 VINA RESULT:      -8.0      4.329      9.388
  Name = 
  8 active torsions:
  status: ('A' for Active; 'I' for Inactive)
    1  A    between atoms: C_2  and  C_23
    2  A    between atoms: C_4  and  C_18
    3  A    between atoms: P_10  and  O_27
    4  A    between atoms: C_16  and  C_18
    5  A    between atoms: C_19  and  C_33
    6  A    between atoms: C_20  and  C_33
    7  A    between atoms: C_25  and  C_33
    8  A    between atoms: O_27  and  C_30
                            x       y       z     vdW  Elec       q    Type
                         _______ _______ _______ _____ _____    ______ ____

>  <TORSDO>
F 8

$$$$
=
 OpenBabel11062413453D

 35 37  0  0  1  0  0  0  0  0999 V2000
  186.3360  178.6490  141.3190 C   0  0  0  0  0  0  0  0  0  0  0  0
  188.1500  176.5670  142.7750 C   0  0  0  0  0  2  0  0  0  0  0  0
  186.3850  178.1810  143.6890 C   0  0  1  0  0  3  0  0  0  0  0  0
  185.7480  178.1850  142.3790 N   0  0  0  0  0  0  0  0  0  0  0  0
  188.8860  178.5030  141.2460 C   0  0  1  0  0  3  0  0  0  0  0  0
  187.6350  179.2510  141.3970 N   0  0  0  0  0  2  0  0  0  0  0  0
  185.3210  178.2910  144.7620 C   0  0  0  0  0  1  0  0  0  0  0  0
  189.2010  177.6480  142.4810 C   0  0  1  0  0  3  0  0  0  0  0  0
  187.1750  176.8940  143.9090 C   0  0  0  0  0  2  0  0  0  0  0  0
  185.6020  178.6670  140.0220 C   0  0  0  0  0  2  0  0  0  0  0  0
  182.5870  178.4750  138.4070 N   0  0  0  0  0  0  0  0  0  0  0  0
  184.0450  176.6230  138.3650 O   0  0  0  0  0  0  0  0  0  0  0  0
  183.3090  179.3460  140.3520 O   0  0  0  0  0  0  0  0  0  0  0  0
  184.1570  178.2170  140.2050 C   0  0  1  0  0  3  0  0  0  0  0  0
  183.6340  177.6720  138.9280 C   0  0  0  0  0  0  0  0  0  0  0  0
  182.4340  179.4260  139.2710 C   0  0  0  0  0  0  0  0  0  0  0  0
  181.4300  180.4990  139.1110 C   0  0  0  0  0  0  0  0  0  0  0  0
  179.9800  179.5500  140.8320 O   0  0  0  0  0  1  0  0  0  0  0  0
  181.6530  181.5140  138.1680 C   0  0  0  0  0  3  0  0  0  0  0  0
  179.3190  181.5590  139.6970 C   0  0  0  0  0  3  0  0  0  0  0  0
  180.7210  182.5400  137.9900 C   0  0  0  0  0  0  0  0  0  0  0  0
  180.2480  180.5300  139.8820 C   0  0  0  0  0  0  0  0  0  0  0  0
  179.5550  182.5610  138.7550 C   0  0  0  0  0  3  0  0  0  0  0  0
  180.9730  183.6070  136.9880 C   0  0  0  0  0  1  0  0  0  0  0  0
  189.4800  178.4540  143.5930 O   0  0  0  0  0  0  0  0  0  0  0  0
  190.9480  177.3670  145.6610 O   0  0  0  0  0  1  0  0  0  0  0  0
  191.7230  176.9290  143.0580 O   0  0  0  0  0  0  0  0  0  0  0  0
  191.0520  178.0590  144.1220 P   0  0  0  0  0  0  0  0  0  0  0  0
  191.9580  179.2710  144.1910 O   0  0  0  0  0  1  0  0  0  0  0  0
  188.9490  177.7300  139.9080 C   0  0  2  0  0  3  0  0  0  0  0  0
  190.0990  176.7070  139.8670 C   0  0  0  0  0  3  0  0  0  0  0  0
  191.3340  177.3540  139.7840 O   0  0  0  0  0  1  0  0  0  0  0  0
  189.9650  175.8650  138.7610 O   0  0  0  0  0  1  0  0  0  0  0  0
  189.0560  178.7050  138.7290 C   0  0  0  0  0  2  0  0  0  0  0  0
  187.9890  178.5350  137.8410 O   0  0  0  0  0  1  0  0  0  0  0  0
  1  6  1  0  0  0  0
  1  4  2  0  0  0  0
  2  9  1  0  0  0  0
  3  9  1  0  0  0  0
  3  7  1  1  0  0  0
  4  3  1  0  0  0  0
  5 30  1  6  0  0  0
  5  6  1  0  0  0  0
  5  8  1  0  0  0  0
  8  2  1  0  0  0  0
  8 25  1  1  0  0  0
 10  1  1  0  0  0  0
 11 15  1  0  0  0  0
 11 16  2  0  0  0  0
 12 15  2  0  0  0  0
 14 10  1  6  0  0  0
 14 13  1  0  0  0  0
 15 14  1  0  0  0  0
 16 13  1  0  0  0  0
 17 16  1  0  0  0  0
 17 22  1  0  0  0  0
 19 17  2  0  0  0  0
 20 22  2  0  0  0  0
 21 19  1  0  0  0  0
 21 23  2  0  0  0  0
 22 18  1  0  0  0  0
 23 20  1  0  0  0  0
 24 21  1  0  0  0  0
 25 28  1  0  0  0  0
 27 28  2  0  0  0  0
 28 29  1  0  0  0  0
 28 26  1  0  0  0  0
 30 34  1  6  0  0  0
 31 30  1  0  0  0  0
 32 31  1  0  0  0  0
 33 31  1  0  0  0  0
 35 34  1  0  0  0  0
M  END
>  <MODEL>
3

>  <REMARK>
 VINA RESULT:      -7.7      3.881      6.080
  Name = 
  8 active torsions:
  status: ('A' for Active; 'I' for Inactive)
    1  A    between atoms: C_2  and  C_23
    2  A    between atoms: C_4  and  C_18
    3  A    between atoms: P_10  and  O_27
    4  A    between atoms: C_16  and  C_18
    5  A    between atoms: C_19  and  C_33
    6  A    between atoms: C_20  and  C_33
    7  A    between atoms: C_25  and  C_33
    8  A    between atoms: O_27  and  C_30
                            x       y       z     vdW  Elec       q    Type
                         _______ _______ _______ _____ _____    ______ ____

>  <TORSDO>
F 8

$$$$
=
 OpenBabel11062413453D

 35 37  0  0  1  0  0  0  0  0999 V2000
  188.0900  177.7950  139.9290 C   0  0  0  0  0  0  0  0  0  0  0  0
  189.4520  178.4900  137.2080 C   0  0  0  0  0  2  0  0  0  0  0  0
  187.0010  178.0260  137.7850 C   0  0  1  0  0  3  0  0  0  0  0  0
  187.2730  178.4400  139.1550 N   0  0  0  0  0  0  0  0  0  0  0  0
  190.0200  176.5530  138.8070 C   0  0  1  0  0  3  0  0  0  0  0  0
  188.7260  176.5870  139.4920 N   0  0  0  0  0  2  0  0  0  0  0  0
  185.5940  178.4420  137.4060 C   0  0  0  0  0  1  0  0  0  0  0  0
  189.9160  177.0330  137.3520 C   0  0  1  0  0  3  0  0  0  0  0  0
  187.9840  178.6720  136.8130 C   0  0  0  0  0  2  0  0  0  0  0  0
  188.2790  178.2480  141.3370 C   0  0  0  0  0  2  0  0  0  0  0  0
  186.4900  178.2500  144.2590 N   0  0  0  0  0  0  0  0  0  0  0  0
  185.3480  178.3740  142.2000 O   0  0  0  0  0  0  0  0  0  0  0  0
  188.3090  177.1680  143.4960 O   0  0  0  0  0  0  0  0  0  0  0  0
  187.5470  177.3300  142.3090 C   0  0  1  0  0  3  0  0  0  0  0  0
  186.3600  178.0270  142.8630 C   0  0  0  0  0  0  0  0  0  0  0  0
  187.6310  177.7300  144.5760 C   0  0  0  0  0  0  0  0  0  0  0  0
  188.1630  177.7450  145.9550 C   0  0  0  0  0  0  0  0  0  0  0  0
  186.1120  178.7220  146.8530 O   0  0  0  0  0  1  0  0  0  0  0  0
  189.4580  177.2620  146.1980 C   0  0  0  0  0  3  0  0  0  0  0  0
  187.9420  178.2380  148.3280 C   0  0  0  0  0  3  0  0  0  0  0  0
  189.9900  177.2670  147.4890 C   0  0  0  0  0  0  0  0  0  0  0  0
  187.4010  178.2350  147.0380 C   0  0  0  0  0  0  0  0  0  0  0  0
  189.2320  177.7550  148.5530 C   0  0  0  0  0  3  0  0  0  0  0  0
  191.3630  176.7510  147.7290 C   0  0  0  0  0  1  0  0  0  0  0  0
  189.1590  176.1410  136.5810 O   0  0  0  0  0  0  0  0  0  0  0  0
  190.4200  173.8050  137.3370 O   0  0  0  0  0  1  0  0  0  0  0  0
  189.5080  174.0930  134.7570 O   0  0  0  0  0  0  0  0  0  0  0  0
  190.2110  174.9000  136.0660 P   0  0  0  0  0  0  0  0  0  0  0  0
  191.5660  175.4310  135.6490 O   0  0  0  0  0  1  0  0  0  0  0  0
  191.1350  177.2480  139.6240 C   0  0  2  0  0  3  0  0  0  0  0  0
  192.5200  177.1260  138.9620 C   0  0  0  0  0  3  0  0  0  0  0  0
  192.7710  175.8070  138.5790 O   0  0  0  0  0  1  0  0  0  0  0  0
  193.5210  177.5280  139.8480 O   0  0  0  0  0  1  0  0  0  0  0  0
  191.1730  176.6980  141.0550 C   0  0  0  0  0  2  0  0  0  0  0  0
  191.4310  177.7170  141.9760 O   0  0  0  0  0  1  0  0  0  0  0  0
  1 10  1  0  0  0  0
  2  8  1  0  0  0  0
  3  7  1  6  0  0  0
  3  4  1  0  0  0  0
  4  1  2  0  0  0  0
  5  6  1  0  0  0  0
  5 30  1  1  0  0  0
  6  1  1  0  0  0  0
  8 25  1  6  0  0  0
  8  5  1  0  0  0  0
  9  2  1  0  0  0  0
  9  3  1  0  0  0  0
 11 16  2  0  0  0  0
 12 15  2  0  0  0  0
 13 16  1  0  0  0  0
 14 10  1  6  0  0  0
 14 15  1  0  0  0  0
 14 13  1  0  0  0  0
 15 11  1  0  0  0  0
 16 17  1  0  0  0  0
 17 19  2  0  0  0  0
 17 22  1  0  0  0  0
 18 22  1  0  0  0  0
 19 21  1  0  0  0  0
 20 23  1  0  0  0  0
 21 24  1  0  0  0  0
 21 23  2  0  0  0  0
 22 20  2  0  0  0  0
 27 28  2  0  0  0  0
 28 25  1  0  0  0  0
 28 26  1  0  0  0  0
 29 28  1  0  0  0  0
 30 34  1  1  0  0  0
 31 30  1  0  0  0  0
 31 33  1  0  0  0  0
 32 31  1  0  0  0  0
 34 35  1  0  0  0  0
M  END
>  <MODEL>
4

>  <REMARK>
 VINA RESULT:      -7.5      3.474      8.691
  Name = 
  8 active torsions:
  status: ('A' for Active; 'I' for Inactive)
    1  A    between atoms: C_2  and  C_23
    2  A    between atoms: C_4  and  C_18
    3  A    between atoms: P_10  and  O_27
    4  A    between atoms: C_16  and  C_18
    5  A    between atoms: C_19  and  C_33
    6  A    between atoms: C_20  and  C_33
    7  A    between atoms: C_25  and  C_33
    8  A    between atoms: O_27  and  C_30
                            x       y       z     vdW  Elec       q    Type
                         _______ _______ _______ _____ _____    ______ ____

>  <TORSDO>
F 8

$$$$
=
 OpenBabel11062413453D

 35 37  0  0  1  0  0  0  0  0999 V2000
  186.3480  178.3340  141.9560 C   0  0  0  0  0  0  0  0  0  0  0  0
  188.4950  176.4470  143.2100 C   0  0  0  0  0  2  0  0  0  0  0  0
  186.7360  177.9490  144.3100 C   0  0  1  0  0  3  0  0  0  0  0  0
  185.9390  177.8610  143.0930 N   0  0  0  0  0  0  0  0  0  0  0  0
  188.8710  178.3840  141.5560 C   0  0  1  0  0  3  0  0  0  0  0  0
  187.5930  179.0370  141.8510 N   0  0  0  0  0  2  0  0  0  0  0  0
  185.8130  178.0120  145.5090 C   0  0  0  0  0  1  0  0  0  0  0  0
  189.4090  177.5960  142.7590 C   0  0  1  0  0  3  0  0  0  0  0  0
  187.6490  176.7350  144.4540 C   0  0  0  0  0  2  0  0  0  0  0  0
  185.4550  178.2540  140.7650 C   0  0  0  0  0  2  0  0  0  0  0  0
  182.1200  178.8930  140.3090 N   0  0  0  0  0  0  0  0  0  0  0  0
  182.9350  178.4760  142.4820 O   0  0  0  0  0  0  0  0  0  0  0  0
  184.0370  179.7010  139.4510 O   0  0  0  0  0  0  0  0  0  0  0  0
  184.4250  179.3780  140.7780 C   0  0  1  0  0  3  0  0  0  0  0  0
  183.1330  178.8710  141.3030 C   0  0  0  0  0  0  0  0  0  0  0  0
  182.6930  179.3870  139.2590 C   0  0  0  0  0  0  0  0  0  0  0  0
  181.9830  179.5850  137.9790 C   0  0  0  0  0  0  0  0  0  0  0  0
  182.4250  177.2960  137.2520 O   0  0  0  0  0  1  0  0  0  0  0  0
  181.4040  180.8330  137.7000 C   0  0  0  0  0  3  0  0  0  0  0  0
  181.1960  178.7790  135.8200 C   0  0  0  0  0  3  0  0  0  0  0  0
  180.7300  181.0530  136.4960 C   0  0  0  0  0  0  0  0  0  0  0  0
  181.8720  178.5510  137.0240 C   0  0  0  0  0  0  0  0  0  0  0  0
  180.6260  180.0260  135.5570 C   0  0  0  0  0  3  0  0  0  0  0  0
  180.1220  182.3800  136.2170 C   0  0  0  0  0  1  0  0  0  0  0  0
  189.7610  178.4570  143.8070 O   0  0  0  0  0  0  0  0  0  0  0  0
  191.4100  177.2940  145.6890 O   0  0  0  0  0  1  0  0  0  0  0  0
  192.0560  177.1310  143.0190 O   0  0  0  0  0  0  0  0  0  0  0  0
  191.3830  178.1200  144.2140 P   0  0  0  0  0  0  0  0  0  0  0  0
  192.2170  179.3770  144.3430 O   0  0  0  0  0  1  0  0  0  0  0  0
  188.8250  177.5750  140.2390 C   0  0  2  0  0  3  0  0  0  0  0  0
  190.0800  176.7080  140.0300 C   0  0  0  0  0  3  0  0  0  0  0  0
  191.2100  177.5090  139.8490 O   0  0  0  0  0  1  0  0  0  0  0  0
  189.9300  175.8930  138.9070 O   0  0  0  0  0  1  0  0  0  0  0  0
  188.6130  178.5100  139.0410 C   0  0  0  0  0  2  0  0  0  0  0  0
  187.5610  178.0620  138.2370 O   0  0  0  0  0  1  0  0  0  0  0  0
  1  4  2  0  0  0  0
  2  9  1  0  0  0  0
  3  9  1  0  0  0  0
  3  7  1  1  0  0  0
  4  3  1  0  0  0  0
  5 30  1  6  0  0  0
  5  6  1  0  0  0  0
  5  8  1  0  0  0  0
  6  1  1  0  0  0  0
  8  2  1  0  0  0  0
  8 25  1  1  0  0  0
 10  1  1  0  0  0  0
 11 15  1  0  0  0  0
 13 14  1  0  0  0  0
 14 10  1  6  0  0  0
 14 15  1  0  0  0  0
 15 12  2  0  0  0  0
 16 13  1  0  0  0  0
 16 11  2  0  0  0  0
 17 16  1  0  0  0  0
 19 17  1  0  0  0  0
 20 22  1  0  0  0  0
 21 19  2  0  0  0  0
 22 18  1  0  0  0  0
 22 17  2  0  0  0  0
 23 20  2  0  0  0  0
 23 21  1  0  0  0  0
 24 21  1  0  0  0  0
 25 28  1  0  0  0  0
 27 28  2  0  0  0  0
 28 29  1  0  0  0  0
 28 26  1  0  0  0  0
 30 34  1  6  0  0  0
 31 30  1  0  0  0  0
 32 31  1  0  0  0  0
 33 31  1  0  0  0  0
 35 34  1  0  0  0  0
M  END
>  <MODEL>
5

>  <REMARK>
 VINA RESULT:      -7.4      3.393      5.312
  Name = 
  8 active torsions:
  status: ('A' for Active; 'I' for Inactive)
    1  A    between atoms: C_2  and  C_23
    2  A    between atoms: C_4  and  C_18
    3  A    between atoms: P_10  and  O_27
    4  A    between atoms: C_16  and  C_18
    5  A    between atoms: C_19  and  C_33
    6  A    between atoms: C_20  and  C_33
    7  A    between atoms: C_25  and  C_33
    8  A    between atoms: O_27  and  C_30
                            x       y       z     vdW  Elec       q    Type
                         _______ _______ _______ _____ _____    ______ ____

>  <TORSDO>
F 8

$$$$
=
 OpenBabel11062413453D

 35 37  0  0  1  0  0  0  0  0999 V2000
  188.8150  177.2580  142.9300 C   0  0  0  0  0  0  0  0  0  0  0  0
  190.7860  178.7670  144.8220 C   0  0  0  0  0  2  0  0  0  0  0  0
  191.2110  177.4390  142.6740 C   0  0  1  0  0  3  0  0  0  0  0  0
  189.8370  177.7060  142.2680 N   0  0  0  0  0  0  0  0  0  0  0  0
  189.1180  176.9070  145.4420 C   0  0  1  0  0  3  0  0  0  0  0  0
  188.9870  176.4080  144.0710 N   0  0  0  0  0  2  0  0  0  0  0  0
  192.1000  177.4200  141.4470 C   0  0  0  0  0  1  0  0  0  0  0  0
  190.4930  177.5410  145.6980 C   0  0  1  0  0  3  0  0  0  0  0  0
  191.7170  178.5130  143.6320 C   0  0  0  0  0  2  0  0  0  0  0  0
  187.4390  177.5280  142.4250 C   0  0  0  0  0  2  0  0  0  0  0  0
  185.6130  178.8830  139.8620 N   0  0  0  0  0  0  0  0  0  0  0  0
  185.3600  179.7380  142.0440 O   0  0  0  0  0  0  0  0  0  0  0  0
  187.7220  178.1360  140.1060 O   0  0  0  0  0  0  0  0  0  0  0  0
  187.4450  178.6540  141.3980 C   0  0  1  0  0  3  0  0  0  0  0  0
  186.0620  179.1470  141.1820 C   0  0  0  0  0  0  0  0  0  0  0  0
  186.6120  178.3030  139.2790 C   0  0  0  0  0  0  0  0  0  0  0  0
  186.5660  177.8530  137.8730 C   0  0  0  0  0  0  0  0  0  0  0  0
  184.1720  177.3830  137.9840 O   0  0  0  0  0  1  0  0  0  0  0  0
  187.7440  177.8630  137.1090 C   0  0  0  0  0  3  0  0  0  0  0  0
  185.3660  176.9860  135.9400 C   0  0  0  0  0  3  0  0  0  0  0  0
  187.7350  177.4390  135.7780 C   0  0  0  0  0  0  0  0  0  0  0  0
  185.3670  177.4100  137.2740 C   0  0  0  0  0  0  0  0  0  0  0  0
  186.5460  177.0010  135.1950 C   0  0  0  0  0  3  0  0  0  0  0  0
  188.9900  177.4560  134.9840 C   0  0  0  0  0  1  0  0  0  0  0  0
  191.5080  176.5770  145.6450 O   0  0  0  0  0  0  0  0  0  0  0  0
  191.7260  177.4410  148.2570 O   0  0  0  0  0  1  0  0  0  0  0  0
  190.6530  174.9640  147.7220 O   0  0  0  0  0  1  0  0  0  0  0  0
  191.8250  176.0880  147.2490 P   0  0  0  0  0  0  0  0  0  0  0  0
  193.1960  175.4640  147.4000 O   0  0  0  0  0  0  0  0  0  0  0  0
  187.9240  177.7980  145.8580 C   0  0  2  0  0  3  0  0  0  0  0  0
  187.9890  178.2280  147.3350 C   0  0  0  0  0  3  0  0  0  0  0  0
  187.9440  177.1140  148.1770 O   0  0  0  0  0  1  0  0  0  0  0  0
  186.9160  179.0640  147.6490 O   0  0  0  0  0  1  0  0  0  0  0  0
  186.5960  177.0880  145.5640 C   0  0  0  0  0  2  0  0  0  0  0  0
  185.5760  178.0130  145.3260 O   0  0  0  0  0  1  0  0  0  0  0  0
  1  6  1  0  0  0  0
  2  8  1  0  0  0  0
  3  7  1  6  0  0  0
  3  9  1  0  0  0  0
  4  3  1  0  0  0  0
  4  1  2  0  0  0  0
  5  8  1  0  0  0  0
  5 30  1  6  0  0  0
  6  5  1  0  0  0  0
  8 25  1  6  0  0  0
  9  2  1  0  0  0  0
 10  1  1  0  0  0  0
 11 15  1  0  0  0  0
 13 14  1  0  0  0  0
 14 10  1  1  0  0  0
 15 14  1  0  0  0  0
 15 12  2  0  0  0  0
 16 11  2  0  0  0  0
 16 13  1  0  0  0  0
 17 16  1  0  0  0  0
 19 17  2  0  0  0  0
 20 22  2  0  0  0  0
 21 19  1  0  0  0  0
 22 17  1  0  0  0  0
 22 18  1  0  0  0  0
 23 21  2  0  0  0  0
 23 20  1  0  0  0  0
 24 21  1  0  0  0  0
 25 28  1  0  0  0  0
 28 29  2  0  0  0  0
 28 27  1  0  0  0  0
 28 26  1  0  0  0  0
 30 34  1  1  0  0  0
 30 31  1  0  0  0  0
 31 33  1  0  0  0  0
 31 32  1  0  0  0  0
 35 34  1  0  0  0  0
M  END
>  <MODEL>
6

>  <REMARK>
 VINA RESULT:      -7.3      0.820      1.639
  Name = 
  8 active torsions:
  status: ('A' for Active; 'I' for Inactive)
    1  A    between atoms: C_2  and  C_23
    2  A    between atoms: C_4  and  C_18
    3  A    between atoms: P_10  and  O_27
    4  A    between atoms: C_16  and  C_18
    5  A    between atoms: C_19  and  C_33
    6  A    between atoms: C_20  and  C_33
    7  A    between atoms: C_25  and  C_33
    8  A    between atoms: O_27  and  C_30
                            x       y       z     vdW  Elec       q    Type
                         _______ _______ _______ _____ _____    ______ ____

>  <TORSDO>
F 8

$$$$
=
 OpenBabel11062413453D

 35 37  0  0  1  0  0  0  0  0999 V2000
  184.2870  179.0110  140.0820 C   0  0  0  0  0  0  0  0  0  0  0  0
  182.9620  176.5430  138.7040 C   0  0  0  0  0  2  0  0  0  0  0  0
  185.0490  177.8910  138.0810 C   0  0  1  0  0  3  0  0  0  0  0  0
  185.1780  178.2870  139.4770 N   0  0  0  0  0  0  0  0  0  0  0  0
  181.8740  178.8070  139.2680 C   0  0  1  0  0  3  0  0  0  0  0  0
  183.1480  179.5230  139.3790 N   0  0  0  0  0  2  0  0  0  0  0  0
  186.4290  177.7290  137.4770 C   0  0  0  0  0  1  0  0  0  0  0  0
  181.9570  177.6270  138.2890 C   0  0  1  0  0  3  0  0  0  0  0  0
  184.2970  176.5690  137.9540 C   0  0  0  0  0  2  0  0  0  0  0  0
  184.5130  179.4200  141.4970 C   0  0  0  0  0  2  0  0  0  0  0  0
  184.8190  178.5090  144.7850 N   0  0  0  0  0  0  0  0  0  0  0  0
  182.6860  179.0070  143.9140 O   0  0  0  0  0  0  0  0  0  0  0  0
  185.7580  177.8550  142.8480 O   0  0  0  0  0  0  0  0  0  0  0  0
  184.4510  178.2170  142.4310 C   0  0  1  0  0  3  0  0  0  0  0  0
  183.8700  178.6210  143.7360 C   0  0  0  0  0  0  0  0  0  0  0  0
  185.8910  178.0570  144.2210 C   0  0  0  0  0  0  0  0  0  0  0  0
  187.1390  177.7920  144.9680 C   0  0  0  0  0  0  0  0  0  0  0  0
  188.3630  177.2110  142.9360 O   0  0  0  0  0  1  0  0  0  0  0  0
  187.1520  177.9520  146.3620 C   0  0  0  0  0  3  0  0  0  0  0  0
  189.4810  177.1350  145.0580 C   0  0  0  0  0  3  0  0  0  0  0  0
  188.3140  177.7050  147.0970 C   0  0  0  0  0  0  0  0  0  0  0  0
  188.3210  177.3810  144.3150 C   0  0  0  0  0  0  0  0  0  0  0  0
  189.4770  177.2970  146.4450 C   0  0  0  0  0  3  0  0  0  0  0  0
  188.3110  177.8790  148.5730 C   0  0  0  0  0  1  0  0  0  0  0  0
  182.1490  178.0770  136.9760 O   0  0  0  0  0  0  0  0  0  0  0  0
  180.4770  178.2400  134.7870 O   0  0  0  0  0  0  0  0  0  0  0  0
  181.9210  175.9420  135.2350 O   0  0  0  0  0  1  0  0  0  0  0  0
  181.0760  177.2020  135.9790 P   0  0  0  0  0  0  0  0  0  0  0  0
  179.9110  176.6250  136.7560 O   0  0  0  0  0  1  0  0  0  0  0  0
  181.2840  178.4420  140.6500 C   0  0  2  0  0  3  0  0  0  0  0  0
  180.1480  177.4070  140.5570 C   0  0  0  0  0  3  0  0  0  0  0  0
  179.1030  177.8910  139.7670 O   0  0  0  0  0  1  0  0  0  0  0  0
  179.6460  177.1180  141.8270 O   0  0  0  0  0  1  0  0  0  0  0  0
  180.8040  179.7030  141.3800 C   0  0  0  0  0  2  0  0  0  0  0  0
  180.1990  180.5960  140.4900 O   0  0  0  0  0  1  0  0  0  0  0  0
  1 10  1  0  0  0  0
  3  7  1  1  0  0  0
  3  4  1  0  0  0  0
  4  1  2  0  0  0  0
  5  6  1  0  0  0  0
  5 30  1  1  0  0  0
  6  1  1  0  0  0  0
  8 25  1  6  0  0  0
  8  2  1  0  0  0  0
  8  5  1  0  0  0  0
  9  3  1  0  0  0  0
  9  2  1  0  0  0  0
 13 16  1  0  0  0  0
 14 10  1  6  0  0  0
 14 13  1  0  0  0  0
 14 15  1  0  0  0  0
 15 12  2  0  0  0  0
 15 11  1  0  0  0  0
 16 11  2  0  0  0  0
 16 17  1  0  0  0  0
 17 19  1  0  0  0  0
 18 22  1  0  0  0  0
 19 21  2  0  0  0  0
 20 23  2  0  0  0  0
 21 24  1  0  0  0  0
 22 17  2  0  0  0  0
 22 20  1  0  0  0  0
 23 21  1  0  0  0  0
 26 28  2  0  0  0  0
 27 28  1  0  0  0  0
 28 29  1  0  0  0  0
 28 25  1  0  0  0  0
 30 34  1  6  0  0  0
 31 30  1  0  0  0  0
 31 33  1  0  0  0  0
 32 31  1  0  0  0  0
 35 34  1  0  0  0  0
M  END
>  <MODEL>
7

>  <REMARK>
 VINA RESULT:      -7.3      4.792      9.677
  Name = 
  8 active torsions:
  status: ('A' for Active; 'I' for Inactive)
    1  A    between atoms: C_2  and  C_23
    2  A    between atoms: C_4  and  C_18
    3  A    between atoms: P_10  and  O_27
    4  A    between atoms: C_16  and  C_18
    5  A    between atoms: C_19  and  C_33
    6  A    between atoms: C_20  and  C_33
    7  A    between atoms: C_25  and  C_33
    8  A    between atoms: O_27  and  C_30
                            x       y       z     vdW  Elec       q    Type
                         _______ _______ _______ _____ _____    ______ ____

>  <TORSDO>
F 8

$$$$
=
 OpenBabel11062413453D

 35 37  0  0  1  0  0  0  0  0999 V2000
  183.3920  178.6140  142.4900 C   0  0  0  0  0  0  0  0  0  0  0  0
  181.8420  179.7290  140.0210 C   0  0  0  0  0  2  0  0  0  0  0  0
  180.9940  178.8000  142.2520 C   0  0  1  0  0  3  0  0  0  0  0  0
  182.2710  179.1570  142.8550 N   0  0  0  0  0  0  0  0  0  0  0  0
  183.5640  177.8150  140.0700 C   0  0  1  0  0  3  0  0  0  0  0  0
  183.4230  177.5710  141.5080 N   0  0  0  0  0  2  0  0  0  0  0  0
  179.8900  178.9860  143.2710 C   0  0  0  0  0  1  0  0  0  0  0  0
  182.2740  178.3710  139.4490 C   0  0  1  0  0  3  0  0  0  0  0  0
  180.6990  179.6760  141.0380 C   0  0  0  0  0  2  0  0  0  0  0  0
  184.6530  178.9930  143.1900 C   0  0  0  0  0  2  0  0  0  0  0  0
  186.4460  178.5740  146.0790 N   0  0  0  0  0  0  0  0  0  0  0  0
  184.1550  179.1160  146.2040 O   0  0  0  0  0  0  0  0  0  0  0  0
  186.3740  177.5500  144.0760 O   0  0  0  0  0  0  0  0  0  0  0  0
  185.0250  177.9570  144.2450 C   0  0  1  0  0  3  0  0  0  0  0  0
  185.1190  178.6060  145.5760 C   0  0  0  0  0  0  0  0  0  0  0  0
  187.1310  177.9490  145.1770 C   0  0  0  0  0  0  0  0  0  0  0  0
  188.5810  177.6950  145.3050 C   0  0  0  0  0  0  0  0  0  0  0  0
  188.3440  176.8560  147.5870 O   0  0  0  0  0  1  0  0  0  0  0  0
  189.4290  177.9870  144.2260 C   0  0  0  0  0  3  0  0  0  0  0  0
  190.5180  176.9440  146.5750 C   0  0  0  0  0  3  0  0  0  0  0  0
  190.8040  177.7620  144.3180 C   0  0  0  0  0  0  0  0  0  0  0  0
  189.1400  177.1660  146.4900 C   0  0  0  0  0  0  0  0  0  0  0  0
  191.3480  177.2410  145.4920 C   0  0  0  0  0  3  0  0  0  0  0  0
  191.6880  178.0760  143.1650 C   0  0  0  0  0  1  0  0  0  0  0  0
  181.2500  177.4150  139.4800 O   0  0  0  0  0  0  0  0  0  0  0  0
  181.6570  178.1150  136.8420 O   0  0  0  0  0  0  0  0  0  0  0  0
  180.5700  175.6630  137.4530 O   0  0  0  0  0  1  0  0  0  0  0  0
  180.6240  177.2930  137.8980 P   0  0  0  0  0  0  0  0  0  0  0  0
  179.2340  177.8830  137.7810 O   0  0  0  0  0  1  0  0  0  0  0  0
  184.8310  178.6360  139.7350 C   0  0  2  0  0  3  0  0  0  0  0  0
  185.1470  178.6530  138.2280 C   0  0  0  0  0  3  0  0  0  0  0  0
  184.8510  177.4180  137.6470 O   0  0  0  0  0  1  0  0  0  0  0  0
  186.4990  178.9290  138.0160 O   0  0  0  0  0  1  0  0  0  0  0  0
  186.0340  178.1140  140.5310 C   0  0  0  0  0  2  0  0  0  0  0  0
  186.8680  179.1640  140.9240 O   0  0  0  0  0  1  0  0  0  0  0  0
  1  4  2  0  0  0  0
  1 10  1  0  0  0  0
  2  9  1  0  0  0  0
  3  4  1  0  0  0  0
  3  7  1  1  0  0  0
  5 30  1  1  0  0  0
  5  6  1  0  0  0  0
  6  1  1  0  0  0  0
  8 25  1  1  0  0  0
  8  2  1  0  0  0  0
  8  5  1  0  0  0  0
  9  3  1  0  0  0  0
 13 14  1  0  0  0  0
 13 16  1  0  0  0  0
 14 10  1  6  0  0  0
 14 15  1  0  0  0  0
 15 11  1  0  0  0  0
 15 12  2  0  0  0  0
 16 17  1  0  0  0  0
 16 11  2  0  0  0  0
 17 22  1  0  0  0  0
 19 21  1  0  0  0  0
 19 17  2  0  0  0  0
 21 23  2  0  0  0  0
 22 20  2  0  0  0  0
 22 18  1  0  0  0  0
 23 20  1  0  0  0  0
 24 21  1  0  0  0  0
 26 28  2  0  0  0  0
 27 28  1  0  0  0  0
 28 25  1  0  0  0  0
 29 28  1  0  0  0  0
 30 34  1  1  0  0  0
 31 30  1  0  0  0  0
 32 31  1  0  0  0  0
 33 31  1  0  0  0  0
 34 35  1  0  0  0  0
M  END
>  <MODEL>
8

>  <REMARK>
 VINA RESULT:      -7.1      4.311      9.600
  Name = 
  8 active torsions:
  status: ('A' for Active; 'I' for Inactive)
    1  A    between atoms: C_2  and  C_23
    2  A    between atoms: C_4  and  C_18
    3  A    between atoms: P_10  and  O_27
    4  A    between atoms: C_16  and  C_18
    5  A    between atoms: C_19  and  C_33
    6  A    between atoms: C_20  and  C_33
    7  A    between atoms: C_25  and  C_33
    8  A    between atoms: O_27  and  C_30
                            x       y       z     vdW  Elec       q    Type
                         _______ _______ _______ _____ _____    ______ ____

>  <TORSDO>
F 8

$$$$
=
 OpenBabel11062413453D

 35 37  0  0  1  0  0  0  0  0999 V2000
  183.9890  178.2290  140.4190 C   0  0  0  0  0  0  0  0  0  0  0  0
  181.5180  177.3690  138.7160 C   0  0  0  0  0  2  0  0  0  0  0  0
  183.9100  177.9620  138.0180 C   0  0  1  0  0  3  0  0  0  0  0  0
  184.3620  177.5910  139.3520 N   0  0  0  0  0  0  0  0  0  0  0  0
  181.6890  179.3410  140.3630 C   0  0  1  0  0  3  0  0  0  0  0  0
  183.1530  179.3900  140.3310 N   0  0  0  0  0  2  0  0  0  0  0  0
  184.9760  177.5930  137.0070 C   0  0  0  0  0  1  0  0  0  0  0  0
  181.1000  178.8090  139.0480 C   0  0  1  0  0  3  0  0  0  0  0  0
  182.6170  177.2360  137.6580 C   0  0  0  0  0  2  0  0  0  0  0  0
  184.5350  177.8240  141.7450 C   0  0  0  0  0  2  0  0  0  0  0  0
  187.8220  178.1070  142.6680 N   0  0  0  0  0  0  0  0  0  0  0  0
  187.1980  178.5710  140.4420 O   0  0  0  0  0  0  0  0  0  0  0  0
  185.8440  178.6100  143.6150 O   0  0  0  0  0  0  0  0  0  0  0  0
  185.5720  178.8260  142.2390 C   0  0  1  0  0  3  0  0  0  0  0  0
  186.9000  178.5010  141.6630 C   0  0  0  0  0  0  0  0  0  0  0  0
  187.1630  178.1920  143.7780 C   0  0  0  0  0  0  0  0  0  0  0  0
  187.7600  177.8650  145.0900 C   0  0  0  0  0  0  0  0  0  0  0  0
  185.6330  178.1580  146.2550 O   0  0  0  0  0  1  0  0  0  0  0  0
  189.1260  177.5530  145.1650 C   0  0  0  0  0  3  0  0  0  0  0  0
  187.5930  177.5490  147.4980 C   0  0  0  0  0  3  0  0  0  0  0  0
  189.7200  177.2430  146.3910 C   0  0  0  0  0  0  0  0  0  0  0  0
  186.9910  177.8590  146.2740 C   0  0  0  0  0  0  0  0  0  0  0  0
  188.9540  177.2420  147.5560 C   0  0  0  0  0  3  0  0  0  0  0  0
  191.1680  176.9140  146.4530 C   0  0  0  0  0  1  0  0  0  0  0  0
  181.3350  179.7030  137.9950 O   0  0  0  0  0  0  0  0  0  0  0  0
  180.4750  182.3240  138.0690 O   0  0  0  0  0  1  0  0  0  0  0  0
  179.2740  180.5400  136.3530 O   0  0  0  0  0  0  0  0  0  0  0  0
  179.9710  180.7220  137.8830 P   0  0  0  0  0  0  0  0  0  0  0  0
  178.9310  180.4100  138.9390 O   0  0  0  0  0  1  0  0  0  0  0  0
  181.1540  178.6310  141.6290 C   0  0  2  0  0  3  0  0  0  0  0  0
  179.6370  178.3730  141.5680 C   0  0  0  0  0  3  0  0  0  0  0  0
  178.9560  179.2200  142.4460 O   0  0  0  0  0  1  0  0  0  0  0  0
  179.3530  177.0510  141.9190 O   0  0  0  0  0  1  0  0  0  0  0  0
  181.5130  179.4330  142.8860 C   0  0  0  0  0  2  0  0  0  0  0  0
  181.6120  178.5960  144.0020 O   0  0  0  0  0  1  0  0  0  0  0  0
  1 10  1  0  0  0  0
  2  8  1  0  0  0  0
  3  7  1  6  0  0  0
  3  4  1  0  0  0  0
  4  1  2  0  0  0  0
  5 30  1  1  0  0  0
  6  5  1  0  0  0  0
  6  1  1  0  0  0  0
  8 25  1  6  0  0  0
  8  5  1  0  0  0  0
  9  3  1  0  0  0  0
  9  2  1  0  0  0  0
 11 16  2  0  0  0  0
 12 15  2  0  0  0  0
 13 16  1  0  0  0  0
 14 10  1  6  0  0  0
 14 13  1  0  0  0  0
 15 14  1  0  0  0  0
 15 11  1  0  0  0  0
 16 17  1  0  0  0  0
 17 19  2  0  0  0  0
 17 22  1  0  0  0  0
 18 22  1  0  0  0  0
 19 21  1  0  0  0  0
 20 23  1  0  0  0  0
 21 24  1  0  0  0  0
 21 23  2  0  0  0  0
 22 20  2  0  0  0  0
 27 28  2  0  0  0  0
 28 25  1  0  0  0  0
 28 26  1  0  0  0  0
 28 29  1  0  0  0  0
 30 34  1  1  0  0  0
 31 30  1  0  0  0  0
 31 33  1  0  0  0  0
 31 32  1  0  0  0  0
 34 35  1  0  0  0  0
M  END
>  <MODEL>
9

>  <REMARK>
 VINA RESULT:      -7.0      4.607      9.823
  Name = 
  8 active torsions:
  status: ('A' for Active; 'I' for Inactive)
    1  A    between atoms: C_2  and  C_23
    2  A    between atoms: C_4  and  C_18
    3  A    between atoms: P_10  and  O_27
    4  A    between atoms: C_16  and  C_18
    5  A    between atoms: C_19  and  C_33
    6  A    between atoms: C_20  and  C_33
    7  A    between atoms: C_25  and  C_33
    8  A    between atoms: O_27  and  C_30
                            x       y       z     vdW  Elec       q    Type
                         _______ _______ _______ _____ _____    ______ ____

>  <TORSDO>
F 8

$$$$
