=
 OpenBabel11062413473D

 35 40  0  0  1  0  0  0  0  0999 V2000
  191.7690  176.3550  138.5200 N   0  0  0  0  0  0  0  0  0  0  0  0
  190.1050  176.8310  135.9650 O   0  0  0  0  0  1  0  0  0  0  0  0
  192.8500  177.0840  140.4640 O   0  0  0  0  0  1  0  0  0  0  0  0
  190.4660  175.6870  136.6770 C   0  0  2  0  0  3  0  0  0  0  0  0
  189.6170  175.5850  137.9330 C   0  0  0  0  0  2  0  0  0  0  0  0
  191.9000  175.8300  137.1640 C   0  0  2  0  0  3  0  0  0  0  0  0
  190.4010  176.2940  139.0290 C   0  0  2  0  0  3  0  0  0  0  0  0
  193.9290  177.5080  138.4970 O   0  0  0  0  0  0  0  0  0  0  0  0
  192.8560  176.9920  139.2100 C   0  0  0  0  0  0  0  0  0  0  0  0
  193.9300  174.3430  137.8780 C   0  0  0  0  0  2  0  0  0  0  0  0
  196.1370  174.0030  137.1420 O   0  0  0  0  0  0  0  0  0  0  0  0
  191.9160  174.2290  134.6540 C   0  0  0  0  0  2  0  0  0  0  0  0
  193.4180  174.0440  134.7350 C   0  0  2  0  0  3  0  0  0  0  0  0
  195.5250  175.2880  134.5940 C   0  0  0  0  0  2  0  0  0  0  0  0
  192.5700  174.4320  137.1730 C   0  0  2  0  0  3  0  0  0  0  0  0
  195.0350  175.7250  135.9580 C   0  0  2  0  0  3  0  0  0  0  0  0
  192.5110  173.5700  135.8860 C   0  0  1  0  0  3  0  0  0  0  0  0
  195.0990  174.6240  136.9790 C   0  0  0  0  0  0  0  0  0  0  0  0
  194.0360  175.4470  134.8240 C   0  0  2  0  0  3  0  0  0  0  0  0
  188.3670  177.8500  138.9560 C   0  0  1  0  0  3  0  0  0  0  0  0
  186.5100  178.1860  140.4070 O   0  0  0  0  0  1  0  0  0  0  0  0
  190.0560  178.0680  140.6400 O   0  0  0  0  0  0  0  0  0  0  0  0
  189.8490  177.7100  139.2890 C   0  0  1  0  0  3  0  0  0  0  0  0
  187.8120  178.6070  140.1170 C   0  0  1  0  0  3  0  0  0  0  0  0
  188.7950  178.2880  141.2280 C   0  0  1  0  0  3  0  0  0  0  0  0
  188.9580  179.7400  137.5760 O   0  0  0  0  0  1  0  0  0  0  0  0
  188.1510  178.6010  137.6460 C   0  0  0  0  0  2  0  0  0  0  0  0
  188.3780  177.0670  142.0540 C   0  0  0  0  0  2  0  0  0  0  0  0
  189.5470  176.4210  142.6310 N   0  0  0  0  0  2  0  0  0  0  0  0
  191.6340  176.7730  145.6680 N   0  0  0  0  0  0  0  0  0  0  0  0
  189.3480  177.1040  146.2310 C   0  0  0  0  0  2  0  0  0  0  0  0
  190.6910  177.0450  146.6060 C   0  0  0  0  0  3  0  0  0  0  0  0
  189.9470  176.6230  143.9890 C   0  0  0  0  0  0  0  0  0  0  0  0
  191.2940  176.5600  144.3700 C   0  0  0  0  0  2  0  0  0  0  0  0
  189.0060  176.8910  144.9330 N   0  0  0  0  0  0  0  0  0  0  0  0
  1  7  1  0  0  0  0
  1  9  1  0  0  0  0
  4  2  1  1  0  0  0
  4  6  1  0  0  0  0
  4  5  1  0  0  0  0
  6 15  1  0  0  0  0
  6  1  1  1  0  0  0
  7  5  1  6  0  0  0
  7 23  1  0  0  0  0
  8  9  2  0  0  0  0
  9  3  1  0  0  0  0
 13 12  1  6  0  0  0
 13 19  1  0  0  0  0
 13 17  1  0  0  0  0
 15 10  1  6  0  0  0
 16 14  1  6  0  0  0
 16 18  1  0  0  0  0
 17 12  1  6  0  0  0
 17 15  1  0  0  0  0
 18 11  2  0  0  0  0
 18 10  1  0  0  0  0
 19 14  1  6  0  0  0
 19 16  1  0  0  0  0
 20 27  1  6  0  0  0
 20 23  1  0  0  0  0
 20 24  1  0  0  0  0
 22 25  1  0  0  0  0
 23 22  1  1  0  0  0
 24 21  1  1  0  0  0
 24 25  1  0  0  0  0
 25 28  1  6  0  0  0
 26 27  1  0  0  0  0
 28 29  1  0  0  0  0
 29 33  1  0  0  0  0
 30 32  2  0  0  0  0
 31 32  1  0  0  0  0
 33 34  1  0  0  0  0
 33 35  2  0  0  0  0
 34 30  1  0  0  0  0
 35 31  1  0  0  0  0
M  END
>  <MODEL>
1

>  <REMARK>
 VINA RESULT:      -6.6      0.000      0.000
  Name = 
  6 active torsions:
  status: ('A' for Active; 'I' for Inactive)
    1  A    between atoms: C_3  and  C_31
    2  A    between atoms: N_16  and  C_22
    3  A    between atoms: N_16  and  C_23
    4  A    between atoms: C_17  and  C_25
    5  A    between atoms: C_19  and  C_27
    6  A    between atoms: C_23  and  C_26
                            x       y       z     vdW  Elec       q    Type
                         _______ _______ _______ _____ _____    ______ ____

>  <TORSDO>
F 6

$$$$
=
 OpenBabel11062413473D

 35 40  0  0  1  0  0  0  0  0999 V2000
  184.1230  178.6710  141.2710 N   0  0  0  0  0  0  0  0  0  0  0  0
  182.5790  180.0850  143.5380 O   0  0  0  0  0  1  0  0  0  0  0  0
  186.0030  178.3690  139.9080 O   0  0  0  0  0  1  0  0  0  0  0  0
  182.3780  178.8980  142.8330 C   0  0  2  0  0  3  0  0  0  0  0  0
  183.3450  177.8410  143.3390 C   0  0  0  0  0  2  0  0  0  0  0  0
  182.7360  179.1140  141.3710 C   0  0  2  0  0  3  0  0  0  0  0  0
  184.5810  177.9450  142.4530 C   0  0  2  0  0  3  0  0  0  0  0  0
  184.6720  180.1550  139.4020 O   0  0  0  0  0  0  0  0  0  0  0  0
  184.9760  179.0450  140.1780 C   0  0  0  0  0  0  0  0  0  0  0  0
  182.2110  178.1040  139.0170 C   0  0  0  0  0  2  0  0  0  0  0  0
  181.2960  178.8800  136.9940 O   0  0  0  0  0  0  0  0  0  0  0  0
  179.7870  179.4350  141.6270 C   0  0  0  0  0  2  0  0  0  0  0  0
  179.6410  179.6460  140.1340 C   0  0  2  0  0  3  0  0  0  0  0  0
  180.2010  181.2250  138.3440 C   0  0  0  0  0  2  0  0  0  0  0  0
  181.8090  178.2380  140.4910 C   0  0  2  0  0  3  0  0  0  0  0  0
  181.5550  180.5970  138.5960 C   0  0  2  0  0  3  0  0  0  0  0  0
  180.2750  178.3530  140.6810 C   0  0  1  0  0  3  0  0  0  0  0  0
  181.6310  179.1690  138.1310 C   0  0  0  0  0  0  0  0  0  0  0  0
  180.5690  180.8090  139.7540 C   0  0  2  0  0  3  0  0  0  0  0  0
  185.8590  178.3480  144.6370 C   0  0  1  0  0  3  0  0  0  0  0  0
  187.6050  177.1750  145.7520 O   0  0  0  0  0  1  0  0  0  0  0  0
  186.9440  178.4640  142.5050 O   0  0  0  0  0  0  0  0  0  0  0  0
  185.7170  178.7080  143.1620 C   0  0  1  0  0  3  0  0  0  0  0  0
  187.3320  178.1840  144.8230 C   0  0  1  0  0  3  0  0  0  0  0  0
  187.8110  177.8420  143.4250 C   0  0  1  0  0  3  0  0  0  0  0  0
  184.4580  178.9090  146.5200 O   0  0  0  0  0  1  0  0  0  0  0  0
  185.3010  179.4430  145.5410 C   0  0  0  0  0  2  0  0  0  0  0  0
  187.8560  176.3320  143.1680 C   0  0  0  0  0  2  0  0  0  0  0  0
  189.2340  175.8700  143.0910 N   0  0  0  0  0  2  0  0  0  0  0  0
  192.2660  177.5190  141.7540 N   0  0  0  0  0  0  0  0  0  0  0  0
  190.8250  176.9290  139.9580 C   0  0  0  0  0  2  0  0  0  0  0  0
  192.0150  177.4920  140.4200 C   0  0  0  0  0  3  0  0  0  0  0  0
  190.1860  176.4350  142.1870 C   0  0  0  0  0  0  0  0  0  0  0  0
  191.3800  177.0060  142.6470 C   0  0  0  0  0  2  0  0  0  0  0  0
  189.9380  176.4140  140.8500 N   0  0  0  0  0  0  0  0  0  0  0  0
  1  7  1  0  0  0  0
  3  9  1  0  0  0  0
  4  5  1  0  0  0  0
  4  2  1  1  0  0  0
  6  1  1  1  0  0  0
  6  4  1  0  0  0  0
  7 23  1  0  0  0  0
  7  5  1  1  0  0  0
  8  9  2  0  0  0  0
  9  1  1  0  0  0  0
 11 18  2  0  0  0  0
 13 17  1  0  0  0  0
 13 12  1  1  0  0  0
 15 10  1  6  0  0  0
 15 17  1  0  0  0  0
 15  6  1  0  0  0  0
 16 14  1  6  0  0  0
 16 19  1  0  0  0  0
 17 12  1  1  0  0  0
 18 16  1  0  0  0  0
 18 10  1  0  0  0  0
 19 14  1  6  0  0  0
 19 13  1  0  0  0  0
 20 24  1  0  0  0  0
 20 27  1  1  0  0  0
 22 25  1  0  0  0  0
 23 22  1  6  0  0  0
 23 20  1  0  0  0  0
 24 21  1  1  0  0  0
 25 28  1  6  0  0  0
 25 24  1  0  0  0  0
 27 26  1  0  0  0  0
 29 28  1  0  0  0  0
 30 34  1  0  0  0  0
 31 32  1  0  0  0  0
 31 35  1  0  0  0  0
 32 30  2  0  0  0  0
 33 34  1  0  0  0  0
 33 29  1  0  0  0  0
 35 33  2  0  0  0  0
M  END
>  <MODEL>
2

>  <REMARK>
 VINA RESULT:      -6.4      4.972      9.764
  Name = 
  6 active torsions:
  status: ('A' for Active; 'I' for Inactive)
    1  A    between atoms: C_3  and  C_31
    2  A    between atoms: N_16  and  C_22
    3  A    between atoms: N_16  and  C_23
    4  A    between atoms: C_17  and  C_25
    5  A    between atoms: C_19  and  C_27
    6  A    between atoms: C_23  and  C_26
                            x       y       z     vdW  Elec       q    Type
                         _______ _______ _______ _____ _____    ______ ____

>  <TORSDO>
F 6

$$$$
=
 OpenBabel11062413473D

 35 40  0  0  1  0  0  0  0  0999 V2000
  192.1810  175.6010  137.3730 N   0  0  0  0  0  0  0  0  0  0  0  0
  190.5240  174.8850  134.8700 O   0  0  0  0  0  1  0  0  0  0  0  0
  193.2220  177.1270  138.8110 O   0  0  0  0  0  1  0  0  0  0  0  0
  190.9150  174.1680  136.0010 C   0  0  2  0  0  3  0  0  0  0  0  0
  190.0590  174.5860  137.1850 C   0  0  0  0  0  2  0  0  0  0  0  0
  192.3390  174.5510  136.3720 C   0  0  2  0  0  3  0  0  0  0  0  0
  190.8110  175.7220  137.8670 C   0  0  2  0  0  3  0  0  0  0  0  0
  194.3040  176.7020  136.8450 O   0  0  0  0  0  0  0  0  0  0  0  0
  193.2410  176.5070  137.7160 C   0  0  0  0  0  0  0  0  0  0  0  0
  194.3080  173.6010  137.8070 C   0  0  0  0  0  2  0  0  0  0  0  0
  196.6050  173.2000  137.4980 O   0  0  0  0  0  0  0  0  0  0  0  0
  192.7470  172.1510  134.6570 C   0  0  0  0  0  2  0  0  0  0  0  0
  194.2300  172.1340  134.9660 C   0  0  2  0  0  3  0  0  0  0  0  0
  196.2910  173.4110  134.6040 C   0  0  0  0  0  2  0  0  0  0  0  0
  193.0520  173.3140  136.9740 C   0  0  2  0  0  3  0  0  0  0  0  0
  195.6090  174.2730  135.6440 C   0  0  2  0  0  3  0  0  0  0  0  0
  193.1960  172.0390  136.1040 C   0  0  1  0  0  3  0  0  0  0  0  0
  195.5760  173.6300  137.0030 C   0  0  0  0  0  0  0  0  0  0  0  0
  194.7800  173.5180  134.5940 C   0  0  2  0  0  3  0  0  0  0  0  0
  188.7500  177.0210  137.0750 C   0  0  1  0  0  3  0  0  0  0  0  0
  186.8070  177.8390  138.1800 O   0  0  0  0  0  1  0  0  0  0  0  0
  190.3360  177.9820  138.5900 O   0  0  0  0  0  0  0  0  0  0  0  0
  190.2130  177.0940  137.4980 C   0  0  1  0  0  3  0  0  0  0  0  0
  188.1130  178.1610  137.7980 C   0  0  1  0  0  3  0  0  0  0  0  0
  189.0380  178.3680  138.9820 C   0  0  1  0  0  3  0  0  0  0  0  0
  187.5500  176.3570  135.0880 O   0  0  0  0  0  1  0  0  0  0  0  0
  188.5910  177.1590  135.5640 C   0  0  0  0  0  2  0  0  0  0  0  0
  188.6030  177.5750  140.2180 C   0  0  0  0  0  2  0  0  0  0  0  0
  189.6850  177.5150  141.1910 N   0  0  0  0  0  2  0  0  0  0  0  0
  188.2400  176.8380  144.5300 N   0  0  0  0  0  0  0  0  0  0  0  0
  190.0840  178.3250  144.7480 C   0  0  0  0  0  2  0  0  0  0  0  0
  189.0510  177.5830  145.3250 C   0  0  0  0  0  3  0  0  0  0  0  0
  189.4550  177.5390  142.6010 C   0  0  0  0  0  0  0  0  0  0  0  0
  188.4170  176.8000  143.1830 C   0  0  0  0  0  2  0  0  0  0  0  0
  190.2610  178.2870  143.4000 N   0  0  0  0  0  0  0  0  0  0  0  0
  1  9  1  0  0  0  0
  1  7  1  0  0  0  0
  4  2  1  6  0  0  0
  4  6  1  0  0  0  0
  4  5  1  0  0  0  0
  6 15  1  0  0  0  0
  6  1  1  1  0  0  0
  7  5  1  6  0  0  0
  8  9  2  0  0  0  0
  9  3  1  0  0  0  0
 13 12  1  6  0  0  0
 13 17  1  0  0  0  0
 15 10  1  6  0  0  0
 16 14  1  6  0  0  0
 16 18  1  0  0  0  0
 17 12  1  6  0  0  0
 17 15  1  0  0  0  0
 18 11  2  0  0  0  0
 18 10  1  0  0  0  0
 19 14  1  6  0  0  0
 19 13  1  0  0  0  0
 19 16  1  0  0  0  0
 20 27  1  6  0  0  0
 20 23  1  0  0  0  0
 20 24  1  0  0  0  0
 22 25  1  0  0  0  0
 23  7  1  0  0  0  0
 23 22  1  1  0  0  0
 24 21  1  1  0  0  0
 24 25  1  0  0  0  0
 25 28  1  1  0  0  0
 26 27  1  0  0  0  0
 28 29  1  0  0  0  0
 29 33  1  0  0  0  0
 30 32  2  0  0  0  0
 31 32  1  0  0  0  0
 33 34  1  0  0  0  0
 33 35  2  0  0  0  0
 34 30  1  0  0  0  0
 35 31  1  0  0  0  0
M  END
>  <MODEL>
3

>  <REMARK>
 VINA RESULT:      -6.4      1.626      2.102
  Name = 
  6 active torsions:
  status: ('A' for Active; 'I' for Inactive)
    1  A    between atoms: C_3  and  C_31
    2  A    between atoms: N_16  and  C_22
    3  A    between atoms: N_16  and  C_23
    4  A    between atoms: C_17  and  C_25
    5  A    between atoms: C_19  and  C_27
    6  A    between atoms: C_23  and  C_26
                            x       y       z     vdW  Elec       q    Type
                         _______ _______ _______ _____ _____    ______ ____

>  <TORSDO>
F 6

$$$$
=
 OpenBabel11062413473D

 35 40  0  0  1  0  0  0  0  0999 V2000
  183.4570  178.9150  140.3620 N   0  0  0  0  0  0  0  0  0  0  0  0
  181.2820  179.7750  142.3760 O   0  0  0  0  0  1  0  0  0  0  0  0
  185.5810  179.0910  139.3930 O   0  0  0  0  0  1  0  0  0  0  0  0
  181.4390  178.6640  141.5460 C   0  0  2  0  0  3  0  0  0  0  0  0
  182.4730  177.7270  142.1480 C   0  0  0  0  0  2  0  0  0  0  0  0
  182.0180  179.1100  140.2120 C   0  0  2  0  0  3  0  0  0  0  0  0
  183.8110  178.1370  141.5470 C   0  0  2  0  0  3  0  0  0  0  0  0
  184.0630  180.6830  138.7790 O   0  0  0  0  0  0  0  0  0  0  0  0
  184.4160  179.5520  139.5030 C   0  0  0  0  0  0  0  0  0  0  0  0
  182.0650  178.3960  137.6970 C   0  0  0  0  0  2  0  0  0  0  0  0
  181.2710  179.2680  135.6620 O   0  0  0  0  0  0  0  0  0  0  0  0
  179.0700  178.7470  140.0140 C   0  0  0  0  0  2  0  0  0  0  0  0
  179.0790  179.1550  138.5550 C   0  0  2  0  0  3  0  0  0  0  0  0
  179.4840  181.0800  137.0910 C   0  0  0  0  0  2  0  0  0  0  0  0
  181.4500  178.2050  139.0900 C   0  0  2  0  0  3  0  0  0  0  0  0
  180.9020  180.7250  137.4840 C   0  0  2  0  0  3  0  0  0  0  0  0
  179.9210  177.9580  139.0350 C   0  0  1  0  0  3  0  0  0  0  0  0
  181.3740  179.4380  136.8660 C   0  0  0  0  0  0  0  0  0  0  0  0
  179.7480  180.5350  138.4800 C   0  0  2  0  0  3  0  0  0  0  0  0
  184.5930  178.4570  143.9650 C   0  0  1  0  0  3  0  0  0  0  0  0
  186.3230  177.4710  145.2700 O   0  0  0  0  0  1  0  0  0  0  0  0
  185.9790  179.0570  142.1070 O   0  0  0  0  0  0  0  0  0  0  0  0
  184.6340  178.9860  142.5360 C   0  0  1  0  0  3  0  0  0  0  0  0
  186.0150  178.5340  144.4150 C   0  0  1  0  0  3  0  0  0  0  0  0
  186.7840  178.4780  143.1080 C   0  0  1  0  0  3  0  0  0  0  0  0
  183.8220  178.9510  146.1990 O   0  0  0  0  0  1  0  0  0  0  0  0
  183.6810  179.3000  144.8530 C   0  0  0  0  0  2  0  0  0  0  0  0
  187.1730  177.0510  142.7110 C   0  0  0  0  0  2  0  0  0  0  0  0
  188.5740  176.9950  142.3210 N   0  0  0  0  0  2  0  0  0  0  0  0
  191.6440  175.6940  143.9290 N   0  0  0  0  0  0  0  0  0  0  0  0
  190.6410  177.3300  145.3350 C   0  0  0  0  0  2  0  0  0  0  0  0
  191.6610  176.4110  145.0830 C   0  0  0  0  0  3  0  0  0  0  0  0
  189.6280  176.7820  143.2630 C   0  0  0  0  0  0  0  0  0  0  0  0
  190.6510  175.8570  143.0150 C   0  0  0  0  0  2  0  0  0  0  0  0
  189.6480  177.4940  144.4200 N   0  0  0  0  0  0  0  0  0  0  0  0
  1  7  1  0  0  0  0
  3  9  1  0  0  0  0
  4  5  1  0  0  0  0
  4  2  1  1  0  0  0
  6  1  1  1  0  0  0
  6  4  1  0  0  0  0
  7  5  1  1  0  0  0
  7 23  1  0  0  0  0
  8  9  2  0  0  0  0
  9  1  1  0  0  0  0
 11 18  2  0  0  0  0
 13 17  1  0  0  0  0
 13 12  1  1  0  0  0
 15 10  1  6  0  0  0
 15  6  1  0  0  0  0
 16 14  1  6  0  0  0
 16 19  1  0  0  0  0
 17 15  1  0  0  0  0
 17 12  1  1  0  0  0
 18 16  1  0  0  0  0
 18 10  1  0  0  0  0
 19 14  1  6  0  0  0
 19 13  1  0  0  0  0
 20 24  1  0  0  0  0
 20 27  1  1  0  0  0
 22 25  1  0  0  0  0
 23 22  1  6  0  0  0
 23 20  1  0  0  0  0
 24 21  1  1  0  0  0
 25 28  1  6  0  0  0
 25 24  1  0  0  0  0
 27 26  1  0  0  0  0
 29 28  1  0  0  0  0
 29 33  1  0  0  0  0
 30 32  2  0  0  0  0
 32 31  1  0  0  0  0
 33 35  2  0  0  0  0
 34 33  1  0  0  0  0
 34 30  1  0  0  0  0
 35 31  1  0  0  0  0
M  END
>  <MODEL>
4

>  <REMARK>
 VINA RESULT:      -6.4      5.814      9.753
  Name = 
  6 active torsions:
  status: ('A' for Active; 'I' for Inactive)
    1  A    between atoms: C_3  and  C_31
    2  A    between atoms: N_16  and  C_22
    3  A    between atoms: N_16  and  C_23
    4  A    between atoms: C_17  and  C_25
    5  A    between atoms: C_19  and  C_27
    6  A    between atoms: C_23  and  C_26
                            x       y       z     vdW  Elec       q    Type
                         _______ _______ _______ _____ _____    ______ ____

>  <TORSDO>
F 6

$$$$
=
 OpenBabel11062413473D

 35 40  0  0  1  0  0  0  0  0999 V2000
  192.5420  175.3430  137.2950 N   0  0  0  0  0  0  0  0  0  0  0  0
  190.9280  174.2950  134.8820 O   0  0  0  0  0  1  0  0  0  0  0  0
  193.4930  177.0570  138.5740 O   0  0  0  0  0  1  0  0  0  0  0  0
  191.3610  173.7130  136.0740 C   0  0  2  0  0  3  0  0  0  0  0  0
  190.4830  174.1920  137.2180 C   0  0  0  0  0  2  0  0  0  0  0  0
  192.7610  174.2130  136.3970 C   0  0  2  0  0  3  0  0  0  0  0  0
  191.1680  175.4300  137.7840 C   0  0  2  0  0  3  0  0  0  0  0  0
  194.5960  176.5100  136.6510 O   0  0  0  0  0  0  0  0  0  0  0  0
  193.5470  176.3370  137.5440 C   0  0  0  0  0  0  0  0  0  0  0  0
  194.8070  173.5160  137.8710 C   0  0  0  0  0  2  0  0  0  0  0  0
  197.1120  173.1860  137.5420 O   0  0  0  0  0  0  0  0  0  0  0  0
  193.2420  171.6590  134.9440 C   0  0  0  0  0  2  0  0  0  0  0  0
  194.7310  171.7430  135.2100 C   0  0  2  0  0  3  0  0  0  0  0  0
  196.7200  173.0630  134.6520 C   0  0  0  0  0  2  0  0  0  0  0  0
  193.5460  173.0830  137.1100 C   0  0  2  0  0  3  0  0  0  0  0  0
  196.0220  174.0030  135.6110 C   0  0  2  0  0  3  0  0  0  0  0  0
  193.7300  171.7280  136.3800 C   0  0  1  0  0  3  0  0  0  0  0  0
  196.0520  173.5130  137.0320 C   0  0  0  0  0  0  0  0  0  0  0  0
  195.2050  173.1010  134.6730 C   0  0  2  0  0  3  0  0  0  0  0  0
  189.0320  176.5240  136.8880 C   0  0  1  0  0  3  0  0  0  0  0  0
  187.0470  177.3310  137.9260 O   0  0  0  0  0  1  0  0  0  0  0  0
  190.5630  177.7180  138.2910 O   0  0  0  0  0  0  0  0  0  0  0  0
  190.4890  176.7230  137.2900 C   0  0  1  0  0  3  0  0  0  0  0  0
  188.3310  177.6910  137.5030 C   0  0  1  0  0  3  0  0  0  0  0  0
  189.2460  178.0640  138.6540 C   0  0  1  0  0  3  0  0  0  0  0  0
  188.3630  177.7260  134.9040 O   0  0  0  0  0  1  0  0  0  0  0  0
  188.8620  176.5070  135.3720 C   0  0  0  0  0  2  0  0  0  0  0  0
  188.8610  177.3700  139.9640 C   0  0  0  0  0  2  0  0  0  0  0  0
  188.4910  178.3530  140.9720 N   0  0  0  0  0  2  0  0  0  0  0  0
  185.7270  177.9490  143.4000 N   0  0  0  0  0  0  0  0  0  0  0  0
  184.9090  179.0030  141.4310 C   0  0  0  0  0  2  0  0  0  0  0  0
  184.6920  178.5000  142.7150 C   0  0  0  0  0  3  0  0  0  0  0  0
  187.1950  178.3900  141.5720 C   0  0  0  0  0  0  0  0  0  0  0  0
  186.9720  177.8820  142.8580 C   0  0  0  0  0  2  0  0  0  0  0  0
  186.1540  178.9360  140.8890 N   0  0  0  0  0  0  0  0  0  0  0  0
  1  9  1  0  0  0  0
  1  7  1  0  0  0  0
  4  2  1  6  0  0  0
  4  6  1  0  0  0  0
  4  5  1  0  0  0  0
  6 15  1  0  0  0  0
  6  1  1  1  0  0  0
  7  5  1  6  0  0  0
  8  9  2  0  0  0  0
  9  3  1  0  0  0  0
 13 12  1  6  0  0  0
 13 17  1  0  0  0  0
 15 10  1  6  0  0  0
 16 14  1  6  0  0  0
 16 18  1  0  0  0  0
 17 12  1  6  0  0  0
 17 15  1  0  0  0  0
 18 11  2  0  0  0  0
 18 10  1  0  0  0  0
 19 14  1  6  0  0  0
 19 13  1  0  0  0  0
 19 16  1  0  0  0  0
 20 27  1  6  0  0  0
 20 23  1  0  0  0  0
 20 24  1  0  0  0  0
 22 25  1  0  0  0  0
 23  7  1  0  0  0  0
 23 22  1  1  0  0  0
 24 21  1  1  0  0  0
 24 25  1  0  0  0  0
 25 28  1  1  0  0  0
 26 27  1  0  0  0  0
 28 29  1  0  0  0  0
 29 33  1  0  0  0  0
 31 32  1  0  0  0  0
 32 30  2  0  0  0  0
 33 34  1  0  0  0  0
 34 30  1  0  0  0  0
 35 31  1  0  0  0  0
 35 33  2  0  0  0  0
M  END
>  <MODEL>
5

>  <REMARK>
 VINA RESULT:      -6.1      2.491      3.242
  Name = 
  6 active torsions:
  status: ('A' for Active; 'I' for Inactive)
    1  A    between atoms: C_3  and  C_31
    2  A    between atoms: N_16  and  C_22
    3  A    between atoms: N_16  and  C_23
    4  A    between atoms: C_17  and  C_25
    5  A    between atoms: C_19  and  C_27
    6  A    between atoms: C_23  and  C_26
                            x       y       z     vdW  Elec       q    Type
                         _______ _______ _______ _____ _____    ______ ____

>  <TORSDO>
F 6

$$$$
=
 OpenBabel11062413473D

 35 40  0  0  1  0  0  0  0  0999 V2000
  191.5420  176.5380  139.1120 N   0  0  0  0  0  0  0  0  0  0  0  0
  190.0320  177.5650  136.6250 O   0  0  0  0  0  1  0  0  0  0  0  0
  192.5670  176.8400  141.1960 O   0  0  0  0  0  1  0  0  0  0  0  0
  190.2960  176.2910  137.1310 C   0  0  2  0  0  3  0  0  0  0  0  0
  189.3820  176.0200  138.3150 C   0  0  0  0  0  2  0  0  0  0  0  0
  191.7100  176.2560  137.6900 C   0  0  2  0  0  3  0  0  0  0  0  0
  190.1510  176.4730  139.5510 C   0  0  2  0  0  3  0  0  0  0  0  0
  193.7610  177.5400  139.3790 O   0  0  0  0  0  0  0  0  0  0  0  0
  192.6280  176.9730  139.9460 C   0  0  0  0  0  0  0  0  0  0  0  0
  193.7330  174.6230  137.9800 C   0  0  0  0  0  2  0  0  0  0  0  0
  195.8090  174.2780  136.9320 O   0  0  0  0  0  0  0  0  0  0  0  0
  191.3260  174.9310  135.0510 C   0  0  0  0  0  2  0  0  0  0  0  0
  192.8150  174.6800  134.9170 C   0  0  2  0  0  3  0  0  0  0  0  0
  194.9500  175.8490  134.6270 C   0  0  0  0  0  2  0  0  0  0  0  0
  192.3020  174.8400  137.4710 C   0  0  2  0  0  3  0  0  0  0  0  0
  194.6590  176.1570  136.0800 C   0  0  2  0  0  3  0  0  0  0  0  0
  192.0360  174.1220  136.1230 C   0  0  1  0  0  3  0  0  0  0  0  0
  194.7930  174.9520  136.9690 C   0  0  0  0  0  0  0  0  0  0  0  0
  193.5120  176.0400  135.0650 C   0  0  2  0  0  3  0  0  0  0  0  0
  188.2000  178.1260  139.7130 C   0  0  1  0  0  3  0  0  0  0  0  0
  186.3270  178.3090  141.1700 O   0  0  0  0  0  1  0  0  0  0  0  0
  189.8550  177.9610  141.4370 O   0  0  0  0  0  0  0  0  0  0  0  0
  189.6640  177.8510  140.0410 C   0  0  1  0  0  3  0  0  0  0  0  0
  187.6550  178.7030  140.9780 C   0  0  1  0  0  3  0  0  0  0  0  0
  188.5910  178.1450  142.0330 C   0  0  1  0  0  3  0  0  0  0  0  0
  187.1550  178.6200  137.5950 O   0  0  0  0  0  1  0  0  0  0  0  0
  188.0560  179.1010  138.5480 C   0  0  0  0  0  2  0  0  0  0  0  0
  188.0930  176.8260  142.6290 C   0  0  0  0  0  2  0  0  0  0  0  0
  188.3040  176.8060  144.0700 N   0  0  0  0  0  2  0  0  0  0  0  0
  185.3710  178.5760  145.4700 N   0  0  0  0  0  0  0  0  0  0  0  0
  186.9300  178.1200  147.2080 C   0  0  0  0  0  2  0  0  0  0  0  0
  185.7120  178.6530  146.7830 C   0  0  0  0  0  3  0  0  0  0  0  0
  187.4160  177.4470  144.9870 C   0  0  0  0  0  0  0  0  0  0  0  0
  186.1950  177.9870  144.5640 C   0  0  0  0  0  2  0  0  0  0  0  0
  187.7540  177.5310  146.3020 N   0  0  0  0  0  0  0  0  0  0  0  0
  1  7  1  0  0  0  0
  1  9  1  0  0  0  0
  4  2  1  1  0  0  0
  4  6  1  0  0  0  0
  4  5  1  0  0  0  0
  6  1  1  1  0  0  0
  7  5  1  6  0  0  0
  7 23  1  0  0  0  0
  8  9  2  0  0  0  0
  9  3  1  0  0  0  0
 11 18  2  0  0  0  0
 13 12  1  6  0  0  0
 13 19  1  0  0  0  0
 13 17  1  0  0  0  0
 15  6  1  0  0  0  0
 15 10  1  6  0  0  0
 16 14  1  6  0  0  0
 16 18  1  0  0  0  0
 17 12  1  6  0  0  0
 17 15  1  0  0  0  0
 18 10  1  0  0  0  0
 19 14  1  6  0  0  0
 19 16  1  0  0  0  0
 20 27  1  6  0  0  0
 20 23  1  0  0  0  0
 20 24  1  0  0  0  0
 22 25  1  0  0  0  0
 23 22  1  1  0  0  0
 24 21  1  1  0  0  0
 24 25  1  0  0  0  0
 25 28  1  6  0  0  0
 26 27  1  0  0  0  0
 28 29  1  0  0  0  0
 29 33  1  0  0  0  0
 30 32  2  0  0  0  0
 32 31  1  0  0  0  0
 33 35  2  0  0  0  0
 34 33  1  0  0  0  0
 34 30  1  0  0  0  0
 35 31  1  0  0  0  0
M  END
>  <MODEL>
6

>  <REMARK>
 VINA RESULT:      -6.0      1.538      2.014
  Name = 
  6 active torsions:
  status: ('A' for Active; 'I' for Inactive)
    1  A    between atoms: C_3  and  C_31
    2  A    between atoms: N_16  and  C_22
    3  A    between atoms: N_16  and  C_23
    4  A    between atoms: C_17  and  C_25
    5  A    between atoms: C_19  and  C_27
    6  A    between atoms: C_23  and  C_26
                            x       y       z     vdW  Elec       q    Type
                         _______ _______ _______ _____ _____    ______ ____

>  <TORSDO>
F 6

$$$$
=
 OpenBabel11062413473D

 35 40  0  0  1  0  0  0  0  0999 V2000
  187.5630  178.0070  142.1830 N   0  0  0  0  0  0  0  0  0  0  0  0
  190.0430  178.2190  144.0070 O   0  0  0  0  0  1  0  0  0  0  0  0
  186.2950  178.6280  140.3150 O   0  0  0  0  0  0  0  0  0  0  0  0
  189.0060  177.2910  143.8990 C   0  0  2  0  0  3  0  0  0  0  0  0
  189.2360  176.4180  142.6760 C   0  0  0  0  0  2  0  0  0  0  0  0
  187.7000  178.0250  143.6360 C   0  0  2  0  0  3  0  0  0  0  0  0
  188.5030  177.1000  141.5290 C   0  0  2  0  0  3  0  0  0  0  0  0
  186.2570  180.0760  142.0800 O   0  0  0  0  0  1  0  0  0  0  0  0
  186.6870  178.9010  141.4790 C   0  0  0  0  0  0  0  0  0  0  0  0
  185.1600  177.9120  144.2490 C   0  0  0  0  0  2  0  0  0  0  0  0
  183.7450  178.9040  145.8440 O   0  0  0  0  0  0  0  0  0  0  0  0
  188.1560  176.8130  146.3170 C   0  0  0  0  0  2  0  0  0  0  0  0
  186.9310  177.5030  146.8800 C   0  0  2  0  0  3  0  0  0  0  0  0
  186.0500  179.7230  147.4360 C   0  0  0  0  0  2  0  0  0  0  0  0
  186.5420  177.2480  144.3120 C   0  0  2  0  0  3  0  0  0  0  0  0
  185.9480  179.7520  145.9260 C   0  0  2  0  0  3  0  0  0  0  0  0
  186.8050  176.5550  145.6730 C   0  0  1  0  0  3  0  0  0  0  0  0
  184.8780  178.8380  145.3960 C   0  0  0  0  0  0  0  0  0  0  0  0
  187.1010  179.0060  146.6130 C   0  0  2  0  0  3  0  0  0  0  0  0
  190.7060  177.0700  140.2210 C   0  0  1  0  0  3  0  0  0  0  0  0
  191.3320  176.2190  138.0890 O   0  0  0  0  0  1  0  0  0  0  0  0
  188.8080  178.3150  139.4580 O   0  0  0  0  0  0  0  0  0  0  0  0
  189.4780  177.8790  140.6230 C   0  0  1  0  0  3  0  0  0  0  0  0
  190.8530  177.3470  138.7610 C   0  0  1  0  0  3  0  0  0  0  0  0
  189.4420  177.7230  138.3470 C   0  0  1  0  0  3  0  0  0  0  0  0
  193.0810  177.5030  140.1830 O   0  0  0  0  0  1  0  0  0  0  0  0
  191.9460  177.5030  140.9990 C   0  0  0  0  0  2  0  0  0  0  0  0
  188.6300  176.5210  137.8560 C   0  0  0  0  0  2  0  0  0  0  0  0
  187.4060  176.9660  137.2060 N   0  0  0  0  0  2  0  0  0  0  0  0
  183.8230  176.0360  137.2150 N   0  0  0  0  0  0  0  0  0  0  0  0
  185.1570  174.0660  137.2160 C   0  0  0  0  0  2  0  0  0  0  0  0
  183.9030  174.6800  137.2120 C   0  0  0  0  0  3  0  0  0  0  0  0
  186.2030  176.1940  137.2180 C   0  0  0  0  0  0  0  0  0  0  0  0
  184.9430  176.8060  137.2190 C   0  0  0  0  0  2  0  0  0  0  0  0
  186.2770  174.8360  137.2190 N   0  0  0  0  0  0  0  0  0  0  0  0
  3  9  2  0  0  0  0
  4  2  1  6  0  0  0
  5  4  1  0  0  0  0
  6  1  1  6  0  0  0
  6  4  1  0  0  0  0
  6 15  1  0  0  0  0
  7  1  1  0  0  0  0
  7  5  1  1  0  0  0
  9  8  1  0  0  0  0
  9  1  1  0  0  0  0
 10 18  1  0  0  0  0
 13 12  1  6  0  0  0
 15 10  1  1  0  0  0
 15 17  1  0  0  0  0
 16 19  1  0  0  0  0
 16 14  1  1  0  0  0
 17 12  1  6  0  0  0
 17 13  1  0  0  0  0
 18 11  2  0  0  0  0
 18 16  1  0  0  0  0
 19 13  1  0  0  0  0
 19 14  1  1  0  0  0
 20 23  1  0  0  0  0
 20 27  1  1  0  0  0
 23 22  1  6  0  0  0
 23  7  1  0  0  0  0
 24 21  1  6  0  0  0
 24 20  1  0  0  0  0
 25 28  1  1  0  0  0
 25 24  1  0  0  0  0
 25 22  1  0  0  0  0
 26 27  1  0  0  0  0
 29 33  1  0  0  0  0
 29 28  1  0  0  0  0
 30 34  1  0  0  0  0
 31 35  1  0  0  0  0
 32 30  2  0  0  0  0
 32 31  1  0  0  0  0
 33 34  1  0  0  0  0
 33 35  2  0  0  0  0
M  END
>  <MODEL>
7

>  <REMARK>
 VINA RESULT:      -5.9      3.419      9.326
  Name = 
  6 active torsions:
  status: ('A' for Active; 'I' for Inactive)
    1  A    between atoms: C_3  and  C_31
    2  A    between atoms: N_16  and  C_22
    3  A    between atoms: N_16  and  C_23
    4  A    between atoms: C_17  and  C_25
    5  A    between atoms: C_19  and  C_27
    6  A    between atoms: C_23  and  C_26
                            x       y       z     vdW  Elec       q    Type
                         _______ _______ _______ _____ _____    ______ ____

>  <TORSDO>
F 6

$$$$
=
 OpenBabel11062413473D

 35 40  0  0  1  0  0  0  0  0999 V2000
  188.0830  177.0210  137.4920 N   0  0  0  0  0  0  0  0  0  0  0  0
  186.7290  175.4440  135.2100 O   0  0  0  0  0  1  0  0  0  0  0  0
  188.6090  179.0010  138.6250 O   0  0  0  0  0  1  0  0  0  0  0  0
  187.3150  175.0710  136.4210 C   0  0  2  0  0  3  0  0  0  0  0  0
  186.3680  175.4010  137.5620 C   0  0  0  0  0  2  0  0  0  0  0  0
  188.5550  175.9170  136.6610 C   0  0  2  0  0  3  0  0  0  0  0  0
  186.7390  176.8050  138.0230 C   0  0  2  0  0  3  0  0  0  0  0  0
  189.7760  178.6040  136.7020 O   0  0  0  0  0  0  0  0  0  0  0  0
  188.8180  178.2450  137.6420 C   0  0  0  0  0  0  0  0  0  0  0  0
  190.8180  175.8270  137.9690 C   0  0  0  0  0  2  0  0  0  0  0  0
  193.1060  175.8820  137.4250 O   0  0  0  0  0  0  0  0  0  0  0  0
  189.4010  173.3120  135.4930 C   0  0  0  0  0  2  0  0  0  0  0  0
  190.8620  173.7050  135.5770 C   0  0  2  0  0  3  0  0  0  0  0  0
  192.4960  175.2730  134.6370 C   0  0  0  0  0  2  0  0  0  0  0  0
  189.6070  175.0650  137.4170 C   0  0  2  0  0  3  0  0  0  0  0  0
  191.7120  176.1980  135.5440 C   0  0  2  0  0  3  0  0  0  0  0  0
  189.9890  173.6760  136.8450 C   0  0  1  0  0  3  0  0  0  0  0  0
  191.9620  175.9320  137.0020 C   0  0  0  0  0  0  0  0  0  0  0  0
  191.0110  175.0360  134.8240 C   0  0  2  0  0  3  0  0  0  0  0  0
  184.3290  177.3340  137.3350 C   0  0  1  0  0  3  0  0  0  0  0  0
  182.3710  177.9250  138.5520 O   0  0  0  0  0  1  0  0  0  0  0  0
  185.7520  178.9970  138.3070 O   0  0  0  0  0  0  0  0  0  0  0  0
  185.7550  177.8560  137.4730 C   0  0  1  0  0  3  0  0  0  0  0  0
  183.4910  178.4380  137.8890 C   0  0  1  0  0  3  0  0  0  0  0  0
  184.4500  179.1530  138.8220 C   0  0  1  0  0  3  0  0  0  0  0  0
  183.2560  175.8470  135.7650 O   0  0  0  0  0  1  0  0  0  0  0  0
  183.9740  177.0400  135.8800 C   0  0  0  0  0  2  0  0  0  0  0  0
  184.3850  178.6220  140.2580 C   0  0  0  0  0  2  0  0  0  0  0  0
  185.3280  179.3360  141.1070 N   0  0  0  0  0  2  0  0  0  0  0  0
  188.1550  177.6410  142.7910 N   0  0  0  0  0  0  0  0  0  0  0  0
  186.3400  177.8620  144.3120 C   0  0  0  0  0  2  0  0  0  0  0  0
  187.6400  177.4390  144.0310 C   0  0  0  0  0  3  0  0  0  0  0  0
  186.1220  178.6780  142.0970 C   0  0  0  0  0  0  0  0  0  0  0  0
  187.4260  178.2490  141.8180 C   0  0  0  0  0  2  0  0  0  0  0  0
  185.6110  178.4710  143.3390 N   0  0  0  0  0  0  0  0  0  0  0  0
  1  9  1  0  0  0  0
  1  7  1  0  0  0  0
  4  2  1  6  0  0  0
  4  6  1  0  0  0  0
  4  5  1  0  0  0  0
  6 15  1  0  0  0  0
  6  1  1  1  0  0  0
  7  5  1  6  0  0  0
  8  9  2  0  0  0  0
  9  3  1  0  0  0  0
 13 12  1  6  0  0  0
 13 17  1  0  0  0  0
 15 10  1  6  0  0  0
 16 14  1  6  0  0  0
 16 18  1  0  0  0  0
 17 12  1  6  0  0  0
 17 15  1  0  0  0  0
 18 11  2  0  0  0  0
 18 10  1  0  0  0  0
 19 14  1  6  0  0  0
 19 16  1  0  0  0  0
 19 13  1  0  0  0  0
 20 27  1  6  0  0  0
 20 23  1  0  0  0  0
 20 24  1  0  0  0  0
 22 25  1  0  0  0  0
 23  7  1  0  0  0  0
 23 22  1  1  0  0  0
 24 21  1  1  0  0  0
 24 25  1  0  0  0  0
 25 28  1  1  0  0  0
 26 27  1  0  0  0  0
 28 29  1  0  0  0  0
 29 33  1  0  0  0  0
 30 32  2  0  0  0  0
 32 31  1  0  0  0  0
 33 35  2  0  0  0  0
 34 33  1  0  0  0  0
 34 30  1  0  0  0  0
 35 31  1  0  0  0  0
M  END
>  <MODEL>
8

>  <REMARK>
 VINA RESULT:      -5.8      3.001      4.185
  Name = 
  6 active torsions:
  status: ('A' for Active; 'I' for Inactive)
    1  A    between atoms: C_3  and  C_31
    2  A    between atoms: N_16  and  C_22
    3  A    between atoms: N_16  and  C_23
    4  A    between atoms: C_17  and  C_25
    5  A    between atoms: C_19  and  C_27
    6  A    between atoms: C_23  and  C_26
                            x       y       z     vdW  Elec       q    Type
                         _______ _______ _______ _____ _____    ______ ____

>  <TORSDO>
F 6

$$$$
=
 OpenBabel11062413473D

 35 40  0  0  1  0  0  0  0  0999 V2000
  185.5210  177.2870  137.5760 N   0  0  0  0  0  0  0  0  0  0  0  0
  184.3580  176.1470  134.9540 O   0  0  0  0  0  1  0  0  0  0  0  0
  185.8330  178.9990  139.1410 O   0  0  0  0  0  1  0  0  0  0  0  0
  184.9650  175.5670  136.0690 C   0  0  2  0  0  3  0  0  0  0  0  0
  183.9770  175.5380  137.2230 C   0  0  0  0  0  2  0  0  0  0  0  0
  186.1110  176.4510  136.5350 C   0  0  2  0  0  3  0  0  0  0  0  0
  184.2000  176.8290  137.9990 C   0  0  2  0  0  3  0  0  0  0  0  0
  187.0550  179.1620  137.2190 O   0  0  0  0  0  0  0  0  0  0  0  0
  186.1280  178.5100  138.0210 C   0  0  0  0  0  0  0  0  0  0  0  0
  188.3450  176.2810  137.8840 C   0  0  0  0  0  2  0  0  0  0  0  0
  190.6230  176.6960  137.4720 O   0  0  0  0  0  0  0  0  0  0  0  0
  187.2590  174.3010  134.8250 C   0  0  0  0  0  2  0  0  0  0  0  0
  188.6660  174.8080  135.0640 C   0  0  2  0  0  3  0  0  0  0  0  0
  190.1370  176.7130  134.5940 C   0  0  0  0  0  2  0  0  0  0  0  0
  187.2350  175.5540  137.1140 C   0  0  2  0  0  3  0  0  0  0  0  0
  189.2400  177.3090  135.6570 C   0  0  2  0  0  3  0  0  0  0  0  0
  187.7770  174.3880  136.2490 C   0  0  1  0  0  3  0  0  0  0  0  0
  189.4890  176.7290  137.0210 C   0  0  0  0  0  0  0  0  0  0  0  0
  188.6840  176.2880  134.6530 C   0  0  2  0  0  3  0  0  0  0  0  0
  181.7560  177.2690  137.3710 C   0  0  1  0  0  3  0  0  0  0  0  0
  179.7380  177.3830  138.6280 O   0  0  0  0  0  1  0  0  0  0  0  0
  182.9980  178.7980  138.7330 O   0  0  0  0  0  0  0  0  0  0  0  0
  183.1220  177.8790  137.6660 C   0  0  1  0  0  3  0  0  0  0  0  0
  180.8070  178.1350  138.1310 C   0  0  1  0  0  3  0  0  0  0  0  0
  181.6820  178.7100  139.2290 C   0  0  1  0  0  3  0  0  0  0  0  0
  181.5600  178.5630  135.3430 O   0  0  0  0  0  1  0  0  0  0  0  0
  181.4450  177.2770  135.8770 C   0  0  0  0  0  2  0  0  0  0  0  0
  181.6560  177.8670  140.5080 C   0  0  0  0  0  2  0  0  0  0  0  0
  181.7700  178.7200  141.6820 N   0  0  0  0  0  2  0  0  0  0  0  0
  185.2060  178.2620  142.9790 N   0  0  0  0  0  0  0  0  0  0  0  0
  183.7820  178.9880  144.7390 C   0  0  0  0  0  2  0  0  0  0  0  0
  185.0440  178.6070  144.2820 C   0  0  0  0  0  3  0  0  0  0  0  0
  182.8930  178.6690  142.5650 C   0  0  0  0  0  0  0  0  0  0  0  0
  184.1610  178.2830  142.1110 C   0  0  0  0  0  2  0  0  0  0  0  0
  182.7350  179.0100  143.8720 N   0  0  0  0  0  0  0  0  0  0  0  0
  1  7  1  0  0  0  0
  1  9  1  0  0  0  0
  4  2  1  6  0  0  0
  4  6  1  0  0  0  0
  4  5  1  0  0  0  0
  6 15  1  0  0  0  0
  6  1  1  1  0  0  0
  7  5  1  6  0  0  0
  8  9  2  0  0  0  0
  9  3  1  0  0  0  0
 13 12  1  6  0  0  0
 13 17  1  0  0  0  0
 15 10  1  6  0  0  0
 16 14  1  6  0  0  0
 16 18  1  0  0  0  0
 17 12  1  6  0  0  0
 17 15  1  0  0  0  0
 18 11  2  0  0  0  0
 18 10  1  0  0  0  0
 19 14  1  6  0  0  0
 19 13  1  0  0  0  0
 19 16  1  0  0  0  0
 20 27  1  6  0  0  0
 20 23  1  0  0  0  0
 20 24  1  0  0  0  0
 22 25  1  0  0  0  0
 23  7  1  0  0  0  0
 23 22  1  1  0  0  0
 24 21  1  1  0  0  0
 24 25  1  0  0  0  0
 25 28  1  1  0  0  0
 26 27  1  0  0  0  0
 28 29  1  0  0  0  0
 29 33  1  0  0  0  0
 30 32  2  0  0  0  0
 32 31  1  0  0  0  0
 33 35  2  0  0  0  0
 34 33  1  0  0  0  0
 34 30  1  0  0  0  0
 35 31  1  0  0  0  0
M  END
>  <MODEL>
9

>  <REMARK>
 VINA RESULT:      -5.8      4.838      6.525
  Name = 
  6 active torsions:
  status: ('A' for Active; 'I' for Inactive)
    1  A    between atoms: C_3  and  C_31
    2  A    between atoms: N_16  and  C_22
    3  A    between atoms: N_16  and  C_23
    4  A    between atoms: C_17  and  C_25
    5  A    between atoms: C_19  and  C_27
    6  A    between atoms: C_23  and  C_26
                            x       y       z     vdW  Elec       q    Type
                         _______ _______ _______ _____ _____    ______ ____

>  <TORSDO>
F 6

$$$$
