=
 OpenBabel11062415593D

 41 47  0  0  1  0  0  0  0  0999 V2000
  185.2540  173.2440  137.0910 N   0  0  0  0  0  2  0  0  0  0  0  0
  184.1810  178.4170  138.3240 C   0  0  1  0  0  0  0  0  0  0  0  0
  185.6670  178.0320  138.1680 C   0  0  0  0  0  2  0  0  0  0  0  0
  183.2730  177.8920  141.5940 C   0  0  0  0  0  2  0  0  0  0  0  0
  178.9310  178.1110  136.0500 C   0  0  0  0  0  2  0  0  0  0  0  0
  183.5630  178.5340  136.9210 C   0  0  0  0  0  2  0  0  0  0  0  0
  181.5340  175.9020  138.4760 C   0  0  0  0  0  1  0  0  0  0  0  0
  179.0090  176.5790  136.1200 C   0  0  0  0  0  2  0  0  0  0  0  0
  181.3000  177.3080  140.3430 O   0  0  0  0  0  0  0  0  0  0  0  0
  183.5590  176.0280  135.2620 N   0  0  0  0  0  0  0  0  0  0  0  0
  181.4470  176.5860  135.5290 C   0  0  1  0  0  3  0  0  0  0  0  0
  181.9030  177.2500  139.0570 C   0  0  2  0  0  0  0  0  0  0  0  0
  183.9520  172.8170  136.7940 N   0  0  0  0  0  0  0  0  0  0  0  0
  183.1900  173.7840  136.1060 C   0  0  0  0  0  2  0  0  0  0  0  0
  185.3090  174.6040  136.5380 C   0  0  1  0  0  3  0  0  0  0  0  0
  184.0010  177.0530  140.5410 C   0  0  0  0  0  2  0  0  0  0  0  0
  182.0420  178.6960  136.8780 C   0  0  2  0  0  3  0  0  0  0  0  0
  180.0750  175.9950  135.1990 C   0  0  0  0  0  2  0  0  0  0  0  0
  187.0590  176.0940  137.6590 N   0  0  2  0  0  0  0  0  0  0  0  0
  183.4340  171.5270  137.2070 C   0  0  0  0  0  1  0  0  0  0  0  0
  183.9500  174.8420  135.9570 C   0  0  0  0  0  0  0  0  0  0  0  0
  181.2860  178.3500  138.1740 C   0  0  0  0  0  2  0  0  0  0  0  0
  183.4600  177.2980  139.1220 C   0  0  2  0  0  3  0  0  0  0  0  0
  181.8960  178.3350  141.0990 C   0  0  1  0  0  3  0  0  0  0  0  0
  180.0760  178.7550  135.2590 C   0  0  0  0  0  2  0  0  0  0  0  0
  182.3800  176.1250  134.5940 O   0  0  0  0  0  0  0  0  0  0  0  0
  185.6500  175.5950  137.6590 C   0  0  1  0  0  3  0  0  0  0  0  0
  181.4400  178.1290  135.5850 C   0  0  2  0  0  3  0  0  0  0  0  0
  185.9580  176.9340  137.1430 C   0  0  1  0  0  3  0  0  0  0  0  0
  188.4850  174.2260  136.8830 C   0  0  0  0  0  2  0  0  0  0  0  0
  189.2270  176.5180  136.6520 C   0  0  0  0  0  2  0  0  0  0  0  0
  187.4660  175.7130  135.1450 C   0  0  0  0  0  1  0  0  0  0  0  0
  187.9900  175.6400  136.5870 C   0  0  0  0  0  0  0  0  0  0  0  0
  189.9620  174.3140  137.2140 C   0  0  0  0  0  2  0  0  0  0  0  0
  190.2310  175.7710  137.4980 C   0  0  0  0  0  2  0  0  0  0  0  0
  181.4640  179.6230  143.1990 O   0  0  0  0  0  1  0  0  0  0  0  0
  181.0260  178.7030  142.2510 C   0  0  0  0  0  0  0  0  0  0  0  0
  179.8700  178.2150  142.3400 O   0  0  0  0  0  0  0  0  0  0  0  0
  183.1580  180.7050  138.7090 O   0  0  0  0  0  0  0  0  0  0  0  0
  184.9250  180.0100  139.9780 O   0  0  0  0  0  1  0  0  0  0  0  0
  184.1180  179.7530  139.0430 C   0  0  0  0  0  0  0  0  0  0  0  0
  2 41  1  1  0  0  0
  2 23  1  0  0  0  0
  3  2  1  0  0  0  0
  5  8  1  0  0  0  0
  6  2  1  0  0  0  0
  9 24  1  0  0  0  0
 10 21  2  0  0  0  0
 11 18  1  6  0  0  0
 11 28  1  0  0  0  0
 12  7  1  6  0  0  0
 12 23  1  0  0  0  0
 12  9  1  0  0  0  0
 13  1  1  0  0  0  0
 13 20  1  0  0  0  0
 14 13  1  0  0  0  0
 15 21  1  1  0  0  0
 15  1  1  0  0  0  0
 15 27  1  0  0  0  0
 16  4  1  0  0  0  0
 17  6  1  1  0  0  0
 17 22  1  0  0  0  0
 18  8  1  0  0  0  0
 19 33  1  6  0  0  0
 19 27  1  0  0  0  0
 21 14  1  0  0  0  0
 22 12  1  0  0  0  0
 23 16  1  1  0  0  0
 24  4  1  0  0  0  0
 24 37  1  1  0  0  0
 25 28  1  0  0  0  0
 25  5  1  0  0  0  0
 26 10  1  0  0  0  0
 26 11  1  0  0  0  0
 28 17  1  0  0  0  0
 29 19  1  0  0  0  0
 29 27  1  0  0  0  0
 29  3  1  0  0  0  0
 30 34  1  0  0  0  0
 31 35  1  0  0  0  0
 32 33  1  0  0  0  0
 33 31  1  0  0  0  0
 33 30  1  0  0  0  0
 34 35  1  0  0  0  0
 37 38  2  0  0  0  0
 37 36  1  0  0  0  0
 39 41  2  0  0  0  0
 41 40  1  0  0  0  0
M  END
>  <MODEL>
1

>  <REMARK>
 VINA RESULT:      -4.2      0.000      0.000
  Name = 
  3 active torsions:
  status: ('A' for Active; 'I' for Inactive)
    1  A    between atoms: C_3  and  C_36
    2  A    between atoms: C_17  and  C_35
    3  A    between atoms: C_23  and  N_28
                            x       y       z     vdW  Elec       q    Type
                         _______ _______ _______ _____ _____    ______ ____

>  <TORSDO>
F 3

$$$$
=
 OpenBabel11062415593D

 41 47  0  0  1  0  0  0  0  0999 V2000
  184.4120  177.8980  141.5940 N   0  0  0  0  0  2  0  0  0  0  0  0
  183.7560  175.8590  136.6090 C   0  0  1  0  0  0  0  0  0  0  0  0
  182.4750  176.2460  137.3780 C   0  0  0  0  0  2  0  0  0  0  0  0
  184.5290  172.6020  137.3810 C   0  0  0  0  0  2  0  0  0  0  0  0
  189.0060  177.4940  134.9990 C   0  0  0  0  0  2  0  0  0  0  0  0
  184.4130  177.1470  136.0880 C   0  0  0  0  0  2  0  0  0  0  0  0
  187.0250  175.7240  138.2370 C   0  0  0  0  0  1  0  0  0  0  0  0
  189.3940  177.6410  136.4770 C   0  0  0  0  0  2  0  0  0  0  0  0
  186.6750  173.6700  137.1520 O   0  0  0  0  0  0  0  0  0  0  0  0
  185.3090  179.1150  138.1760 N   0  0  0  0  0  0  0  0  0  0  0  0
  187.1240  178.5190  137.0810 C   0  0  1  0  0  3  0  0  0  0  0  0
  186.2190  175.0160  137.1690 C   0  0  2  0  0  0  0  0  0  0  0  0
  185.8010  178.0880  141.5700 N   0  0  0  0  0  0  0  0  0  0  0  0
  186.2810  178.5410  140.3230 C   0  0  0  0  0  2  0  0  0  0  0  0
  183.9870  178.2650  140.2370 C   0  0  1  0  0  3  0  0  0  0  0  0
  184.1740  173.8400  138.2090 C   0  0  0  0  0  2  0  0  0  0  0  0
  185.8110  176.9820  135.4870 C   0  0  2  0  0  3  0  0  0  0  0  0
  188.6310  178.7560  137.1850 C   0  0  0  0  0  2  0  0  0  0  0  0
  181.7850  177.1770  139.5250 N   0  0  2  0  0  0  0  0  0  0  0  0
  186.6550  177.7930  142.7030 C   0  0  0  0  0  1  0  0  0  0  0  0
  185.2480  178.6390  139.5220 C   0  0  0  0  0  0  0  0  0  0  0  0
  186.5350  175.6610  135.8070 C   0  0  0  0  0  2  0  0  0  0  0  0
  184.7210  175.1360  137.5870 C   0  0  2  0  0  3  0  0  0  0  0  0
  185.7380  172.8620  136.4820 C   0  0  1  0  0  3  0  0  0  0  0  0
  187.7820  178.3260  134.5940 C   0  0  0  0  0  2  0  0  0  0  0  0
  186.4500  179.6150  137.6320 O   0  0  0  0  0  0  0  0  0  0  0  0
  183.2740  177.0720  139.5870 C   0  0  1  0  0  3  0  0  0  0  0  0
  186.6540  178.2560  135.6330 C   0  0  2  0  0  3  0  0  0  0  0  0
  182.6120  177.4370  138.3290 C   0  0  1  0  0  3  0  0  0  0  0  0
  181.1350  178.4050  141.5730 C   0  0  0  0  0  2  0  0  0  0  0  0
  179.6550  178.3350  139.6590 C   0  0  0  0  0  2  0  0  0  0  0  0
  181.6560  179.7490  139.5250 C   0  0  0  0  0  1  0  0  0  0  0  0
  181.1210  178.4060  140.0460 C   0  0  0  0  0  0  0  0  0  0  0  0
  179.7060  178.2300  142.0470 C   0  0  0  0  0  2  0  0  0  0  0  0
  178.9340  177.7400  140.8470 C   0  0  0  0  0  2  0  0  0  0  0  0
  185.6300  170.6290  135.3590 O   0  0  0  0  0  0  0  0  0  0  0  0
  186.3630  171.5730  136.0720 C   0  0  0  0  0  0  0  0  0  0  0  0
  187.5750  171.3580  136.3320 O   0  0  0  0  0  1  0  0  0  0  0  0
  182.0340  174.5440  135.2930 O   0  0  0  0  0  1  0  0  0  0  0  0
  184.2070  174.6090  134.5940 O   0  0  0  0  0  0  0  0  0  0  0  0
  183.3520  174.9640  135.4510 C   0  0  0  0  0  0  0  0  0  0  0  0
  2 41  1  6  0  0  0
  2  3  1  0  0  0  0
  2 23  1  0  0  0  0
  3 29  1  0  0  0  0
  4 16  1  0  0  0  0
  5  8  1  0  0  0  0
  6  2  1  0  0  0  0
  8 18  1  0  0  0  0
  9 12  1  0  0  0  0
 10 21  2  0  0  0  0
 11 18  1  6  0  0  0
 11 26  1  0  0  0  0
 12 23  1  0  0  0  0
 12  7  1  1  0  0  0
 13  1  1  0  0  0  0
 13 20  1  0  0  0  0
 14 13  1  0  0  0  0
 15 21  1  6  0  0  0
 15  1  1  0  0  0  0
 17 28  1  0  0  0  0
 17 22  1  1  0  0  0
 17  6  1  0  0  0  0
 19 27  1  0  0  0  0
 19 33  1  1  0  0  0
 21 14  1  0  0  0  0
 22 12  1  0  0  0  0
 23 16  1  6  0  0  0
 24 37  1  1  0  0  0
 24  9  1  0  0  0  0
 24  4  1  0  0  0  0
 25  5  1  0  0  0  0
 25 28  1  0  0  0  0
 26 10  1  0  0  0  0
 27 15  1  0  0  0  0
 28 11  1  0  0  0  0
 29 19  1  0  0  0  0
 29 27  1  0  0  0  0
 30 34  1  0  0  0  0
 31 33  1  0  0  0  0
 31 35  1  0  0  0  0
 32 33  1  0  0  0  0
 33 30  1  0  0  0  0
 35 34  1  0  0  0  0
 36 37  2  0  0  0  0
 37 38  1  0  0  0  0
 39 41  1  0  0  0  0
 40 41  2  0  0  0  0
M  END
>  <MODEL>
2

>  <REMARK>
 VINA RESULT:      -3.7      3.165      7.558
  Name = 
  3 active torsions:
  status: ('A' for Active; 'I' for Inactive)
    1  A    between atoms: C_3  and  C_36
    2  A    between atoms: C_17  and  C_35
    3  A    between atoms: C_23  and  N_28
                            x       y       z     vdW  Elec       q    Type
                         _______ _______ _______ _____ _____    ______ ____

>  <TORSDO>
F 3

$$$$
=
 OpenBabel11062415593D

 41 47  0  0  1  0  0  0  0  0999 V2000
  182.3020  179.0090  141.2680 N   0  0  0  0  0  2  0  0  0  0  0  0
  181.2180  176.8320  136.4180 C   0  0  1  0  0  0  0  0  0  0  0  0
  180.2510  177.9240  136.9230 C   0  0  0  0  0  2  0  0  0  0  0  0
  180.0960  173.7940  137.5600 C   0  0  0  0  0  2  0  0  0  0  0  0
  186.6890  175.3350  135.6100 C   0  0  0  0  0  2  0  0  0  0  0  0
  182.5010  177.5170  135.9190 C   0  0  0  0  0  2  0  0  0  0  0  0
  183.7430  175.3270  138.5880 C   0  0  0  0  0  1  0  0  0  0  0  0
  186.9360  175.4940  137.1170 C   0  0  0  0  0  2  0  0  0  0  0  0
  182.4950  173.5880  137.6210 O   0  0  0  0  0  0  0  0  0  0  0  0
  184.0600  179.0640  137.9700 N   0  0  0  0  0  0  0  0  0  0  0  0
  185.4050  177.4760  137.2520 C   0  0  1  0  0  3  0  0  0  0  0  0
  182.8060  174.9640  137.4550 C   0  0  2  0  0  0  0  0  0  0  0  0
  183.5800  178.4690  141.4680 N   0  0  0  0  0  0  0  0  0  0  0  0
  184.3560  178.4200  140.2900 C   0  0  0  0  0  2  0  0  0  0  0  0
  182.2770  179.3250  139.8340 C   0  0  1  0  0  3  0  0  0  0  0  0
  180.3510  175.1530  138.2170 C   0  0  0  0  0  2  0  0  0  0  0  0
  183.6630  176.5810  135.5810 C   0  0  2  0  0  3  0  0  0  0  0  0
  186.7940  176.9350  137.5940 C   0  0  0  0  0  2  0  0  0  0  0  0
  179.9210  179.3950  138.8410 N   0  0  2  0  0  0  0  0  0  0  0  0
  184.0290  177.9640  142.7500 C   0  0  0  0  0  1  0  0  0  0  0  0
  183.6160  178.8980  139.3190 C   0  0  0  0  0  0  0  0  0  0  0  0
  183.5550  175.1430  136.1220 C   0  0  0  0  0  2  0  0  0  0  0  0
  181.5550  175.8840  137.5990 C   0  0  2  0  0  3  0  0  0  0  0  0
  181.3510  173.2670  136.8650 C   0  0  1  0  0  3  0  0  0  0  0  0
  186.1270  176.5950  134.9370 C   0  0  0  0  0  2  0  0  0  0  0  0
  185.3450  178.8320  137.5930 O   0  0  0  0  0  0  0  0  0  0  0  0
  181.1220  178.5670  139.1660 C   0  0  1  0  0  3  0  0  0  0  0  0
  185.0250  177.2630  135.7700 C   0  0  2  0  0  3  0  0  0  0  0  0
  180.8850  179.0160  137.7880 C   0  0  1  0  0  3  0  0  0  0  0  0
  178.9310  181.5900  138.2670 C   0  0  0  0  0  2  0  0  0  0  0  0
  181.3000  181.3910  138.7230 C   0  0  0  0  0  2  0  0  0  0  0  0
  179.7400  181.2560  140.6130 C   0  0  0  0  0  1  0  0  0  0  0  0
  179.9430  180.8560  139.1440 C   0  0  0  0  0  0  0  0  0  0  0  0
  179.7070  182.4520  137.2910 C   0  0  0  0  0  2  0  0  0  0  0  0
  181.1230  181.9340  137.3240 C   0  0  0  0  0  2  0  0  0  0  0  0
  180.0120  171.1690  136.6230 O   0  0  0  0  0  1  0  0  0  0  0  0
  181.2550  171.7940  136.6690 C   0  0  0  0  0  0  0  0  0  0  0  0
  182.3020  171.1170  136.4980 O   0  0  0  0  0  0  0  0  0  0  0  0
  179.2050  176.3530  134.9520 O   0  0  0  0  0  1  0  0  0  0  0  0
  181.1730  175.2510  134.5940 O   0  0  0  0  0  0  0  0  0  0  0  0
  180.5340  176.0950  135.2800 C   0  0  0  0  0  0  0  0  0  0  0  0
  1 13  1  0  0  0  0
  2 41  1  6  0  0  0
  2  3  1  0  0  0  0
  2 23  1  0  0  0  0
  3 29  1  0  0  0  0
  4 16  1  0  0  0  0
  5  8  1  0  0  0  0
  6  2  1  0  0  0  0
  8 18  1  0  0  0  0
 10 21  2  0  0  0  0
 11 26  1  0  0  0  0
 11 18  1  6  0  0  0
 12 23  1  0  0  0  0
 12  9  1  0  0  0  0
 12  7  1  1  0  0  0
 13 20  1  0  0  0  0
 14 13  1  0  0  0  0
 15 21  1  6  0  0  0
 15  1  1  0  0  0  0
 17 28  1  0  0  0  0
 17  6  1  1  0  0  0
 17 22  1  0  0  0  0
 19 33  1  1  0  0  0
 19 27  1  0  0  0  0
 21 14  1  0  0  0  0
 22 12  1  0  0  0  0
 23 16  1  6  0  0  0
 24 37  1  1  0  0  0
 24  4  1  0  0  0  0
 24  9  1  0  0  0  0
 25  5  1  0  0  0  0
 25 28  1  0  0  0  0
 26 10  1  0  0  0  0
 27 15  1  0  0  0  0
 28 11  1  0  0  0  0
 29 19  1  0  0  0  0
 29 27  1  0  0  0  0
 30 33  1  0  0  0  0
 31 33  1  0  0  0  0
 33 32  1  0  0  0  0
 34 35  1  0  0  0  0
 34 30  1  0  0  0  0
 35 31  1  0  0  0  0
 36 37  1  0  0  0  0
 38 37  2  0  0  0  0
 39 41  1  0  0  0  0
 40 41  2  0  0  0  0
M  END
>  <MODEL>
3

>  <REMARK>
 VINA RESULT:      -3.3      2.958      7.232
  Name = 
  3 active torsions:
  status: ('A' for Active; 'I' for Inactive)
    1  A    between atoms: C_3  and  C_36
    2  A    between atoms: C_17  and  C_35
    3  A    between atoms: C_23  and  N_28
                            x       y       z     vdW  Elec       q    Type
                         _______ _______ _______ _____ _____    ______ ____

>  <TORSDO>
F 3

$$$$
