=
 OpenBabel11062415583D

 41 45  0  0  1  0  0  0  0  0999 V2000
  187.1150  174.9090  135.6490 C   0  0  0  0  0  2  0  0  0  0  0  0
  188.4670  176.5270  136.9030 C   0  0  0  0  0  3  0  0  0  0  0  0
  186.6330  178.5300  139.4700 O   0  0  0  0  0  0  0  0  0  0  0  0
  187.3280  177.1790  137.6190 C   0  0  0  0  0  0  0  0  0  0  0  0
  186.2460  175.8690  135.0960 O   0  0  0  0  0  0  0  0  0  0  0  0
  187.6320  177.8390  138.7500 C   0  0  1  0  0  3  0  0  0  0  0  0
  185.9290  177.2590  137.0860 C   0  0  0  0  0  0  0  0  0  0  0  0
  184.2230  177.1280  135.3900 N   0  0  0  0  0  1  0  0  0  0  0  0
  185.5120  176.7650  135.8830 C   0  0  2  0  0  3  0  0  0  0  0  0
  184.9610  177.9970  137.8940 C   0  0  0  0  0  3  0  0  0  0  0  0
  185.3160  178.6030  139.0340 C   0  0  0  0  0  0  0  0  0  0  0  0
  188.3910  175.5350  136.0170 C   0  0  0  0  0  3  0  0  0  0  0  0
  184.2880  179.3320  139.8430 C   0  0  0  0  0  2  0  0  0  0  0  0
  183.5170  178.4420  140.8310 C   0  0  2  0  0  3  0  0  0  0  0  0
  185.1700  178.5440  144.8500 C   0  0  0  0  0  0  0  0  0  0  0  0
  183.2800  178.8190  143.3480 C   0  0  0  0  0  0  0  0  0  0  0  0
  181.8570  179.1990  143.1950 C   0  0  0  0  0  1  0  0  0  0  0  0
  183.8270  178.8770  144.6310 C   0  0  0  0  0  3  0  0  0  0  0  0
  185.9580  178.1350  143.7750 C   0  0  0  0  0  3  0  0  0  0  0  0
  185.4110  178.0640  142.4910 C   0  0  0  0  0  3  0  0  0  0  0  0
  184.0780  178.4240  142.2490 C   0  0  0  0  0  0  0  0  0  0  0  0
  186.2600  177.4910  146.7030 O   0  0  0  0  0  0  0  0  0  0  0  0
  185.5470  179.6380  147.0600 O   0  0  0  0  0  1  0  0  0  0  0  0
  185.7190  178.5350  146.2220 C   0  0  0  0  0  0  0  0  0  0  0  0
  183.3750  177.1410  140.3350 O   0  0  0  0  0  0  0  0  0  0  0  0
  182.0990  175.7970  138.8370 C   0  0  0  0  0  1  0  0  0  0  0  0
  182.1790  177.1020  139.5790 C   0  0  0  0  0  3  0  0  0  0  0  0
  180.9980  177.1910  140.5190 C   0  0  0  0  0  1  0  0  0  0  0  0
  188.9650  177.8760  139.2000 O   0  0  0  0  0  0  0  0  0  0  0  0
  189.4610  176.9540  140.1520 C   0  0  0  0  0  2  0  0  0  0  0  0
  190.6530  177.5630  140.8820 C   0  0  0  0  0  2  0  0  0  0  0  0
  189.8120  177.6950  143.2890 C   0  0  1  0  0  0  0  0  0  0  0  0
  190.4720  177.5650  144.6490 C   0  0  1  0  0  3  0  0  0  0  0  0
  189.4610  176.3220  142.6280 C   0  0  0  0  0  2  0  0  0  0  0  0
  190.7040  178.7650  143.7330 C   0  0  0  0  0  2  0  0  0  0  0  0
  190.7270  176.9800  142.2800 C   0  0  1  0  0  3  0  0  0  0  0  0
  189.4970  177.9030  145.7860 C   0  0  0  0  0  2  0  0  0  0  0  0
  189.6600  176.9530  146.9880 C   0  0  0  0  0  2  0  0  0  0  0  0
  191.1090  176.9280  147.4890 C   0  0  0  0  0  2  0  0  0  0  0  0
  192.7940  175.6490  148.1430 C   0  0  0  0  0  1  0  0  0  0  0  0
  191.6510  175.6380  147.3370 O   0  0  0  0  0  0  0  0  0  0  0  0
  1 12  1  0  0  0  0
  2  4  1  0  0  0  0
  4  6  1  0  0  0  0
  5  1  1  0  0  0  0
  5  9  1  0  0  0  0
  6 29  1  6  0  0  0
  6  3  1  0  0  0  0
  7  4  2  0  0  0  0
  7 10  1  0  0  0  0
  9  8  1  1  0  0  0
  9  7  1  0  0  0  0
 10 11  2  0  0  0  0
 11  3  1  0  0  0  0
 11 13  1  0  0  0  0
 12  2  2  0  0  0  0
 14 13  1  6  0  0  0
 14 21  1  0  0  0  0
 15 24  1  0  0  0  0
 16 18  2  0  0  0  0
 17 16  1  0  0  0  0
 18 15  1  0  0  0  0
 19 15  2  0  0  0  0
 20 19  1  0  0  0  0
 21 20  2  0  0  0  0
 21 16  1  0  0  0  0
 24 22  2  0  0  0  0
 24 23  1  0  0  0  0
 25 14  1  0  0  0  0
 26 27  1  0  0  0  0
 27 25  1  0  0  0  0
 27 28  1  0  0  0  0
 29 30  1  0  0  0  0
 30 31  1  0  0  0  0
 32 34  1  6  0  0  0
 32 35  1  0  0  0  0
 32 33  1  0  0  0  0
 33 37  1  1  0  0  0
 35 33  1  0  0  0  0
 36 31  1  6  0  0  0
 36 34  1  0  0  0  0
 36 32  1  0  0  0  0
 37 38  1  0  0  0  0
 38 39  1  0  0  0  0
 41 39  1  0  0  0  0
 41 40  1  0  0  0  0
M  END
>  <MODEL>
1

>  <REMARK>
 VINA RESULT:      -8.7      0.000      0.000
  Name = 
  14 active torsions:
  status: ('A' for Active; 'I' for Inactive)
    1  A    between atoms: C_4  and  C_6
    2  A    between atoms: C_4  and  C_30
    3  A    between atoms: C_10  and  C_23
    4  A    between atoms: C_13  and  O_27
    5  A    between atoms: C_15  and  O_27
    6  A    between atoms: C_15  and  C_31
    7  A    between atoms: C_15  and  C_40
    8  A    between atoms: C_19  and  O_41
    9  A    between atoms: C_24  and  C_25
   10  A    between atoms: C_24  and  C_37
   11  A    between atoms: C_25  and  O_41
   12  A    between atoms: O_29  and  C_34
   13  A    between atoms: C_30  and  C_34
   14  A    between atoms: C_31  and  C_36
                            x       y       z     vdW  Elec       q    Type
                         _______ _______ _______ _____ _____    ______ ____

>  <TORSDO>
F 14

$$$$
=
 OpenBabel11062415583D

 41 45  0  0  1  0  0  0  0  0999 V2000
  185.4900  178.9510  145.9430 C   0  0  0  0  0  2  0  0  0  0  0  0
  186.7630  177.6560  144.2940 C   0  0  0  0  0  3  0  0  0  0  0  0
  186.1460  178.5350  140.7150 O   0  0  0  0  0  0  0  0  0  0  0  0
  186.0720  178.1980  143.0850 C   0  0  0  0  0  0  0  0  0  0  0  0
  184.2250  178.5460  145.4770 O   0  0  0  0  0  0  0  0  0  0  0  0
  186.7360  178.0970  141.9210 C   0  0  1  0  0  3  0  0  0  0  0  0
  184.6610  178.7030  143.0730 C   0  0  0  0  0  0  0  0  0  0  0  0
  182.4330  178.9920  143.9430 N   0  0  0  0  0  1  0  0  0  0  0  0
  183.8190  178.7230  144.1490 C   0  0  2  0  0  3  0  0  0  0  0  0
  184.1280  179.1310  141.7820 C   0  0  0  0  0  3  0  0  0  0  0  0
  184.8530  179.0410  140.6590 C   0  0  0  0  0  0  0  0  0  0  0  0
  186.5090  177.9630  145.5650 C   0  0  0  0  0  3  0  0  0  0  0  0
  184.2770  179.5110  139.3590 C   0  0  0  0  0  2  0  0  0  0  0  0
  183.1200  178.6460  138.8340 C   0  0  2  0  0  3  0  0  0  0  0  0
  184.4130  174.7420  137.4230 C   0  0  0  0  0  0  0  0  0  0  0  0
  182.8810  176.1030  138.7290 C   0  0  0  0  0  0  0  0  0  0  0  0
  181.7290  176.1350  139.6580 C   0  0  0  0  0  1  0  0  0  0  0  0
  183.3210  174.8510  138.2930 C   0  0  0  0  0  3  0  0  0  0  0  0
  185.0520  175.8990  136.9770 C   0  0  0  0  0  3  0  0  0  0  0  0
  184.6060  177.1540  137.4010 C   0  0  0  0  0  3  0  0  0  0  0  0
  183.5350  177.2800  138.2960 C   0  0  0  0  0  0  0  0  0  0  0  0
  185.6230  173.3190  135.9260 O   0  0  0  0  0  0  0  0  0  0  0  0
  184.2450  172.2540  137.4130 O   0  0  0  0  0  1  0  0  0  0  0  0
  184.8230  173.4200  136.9070 C   0  0  0  0  0  0  0  0  0  0  0  0
  182.3570  179.3410  137.8900 O   0  0  0  0  0  0  0  0  0  0  0  0
  180.8950  181.1990  137.5840 C   0  0  0  0  0  1  0  0  0  0  0  0
  181.6930  180.3900  138.5690 C   0  0  0  0  0  3  0  0  0  0  0  0
  180.7400  179.7970  139.5830 C   0  0  0  0  0  1  0  0  0  0  0  0
  188.0170  177.5140  141.8960 O   0  0  0  0  0  0  0  0  0  0  0  0
  188.9280  177.7490  140.8390 C   0  0  0  0  0  2  0  0  0  0  0  0
  190.3380  177.8940  141.4020 C   0  0  0  0  0  2  0  0  0  0  0  0
  191.2780  177.2840  143.6950 C   0  0  1  0  0  0  0  0  0  0  0  0
  190.6590  177.0060  145.0520 C   0  0  1  0  0  3  0  0  0  0  0  0
  191.4510  178.8070  143.3860 C   0  0  0  0  0  2  0  0  0  0  0  0
  190.5260  176.0430  143.8740 C   0  0  0  0  0  2  0  0  0  0  0  0
  190.2530  178.1110  142.9000 C   0  0  1  0  0  3  0  0  0  0  0  0
  191.7070  176.5190  146.0640 C   0  0  0  0  0  2  0  0  0  0  0  0
  191.2050  176.6320  147.5160 C   0  0  0  0  0  2  0  0  0  0  0  0
  189.7010  176.9250  147.5670 C   0  0  0  0  0  2  0  0  0  0  0  0
  188.1270  177.9400  148.7480 C   0  0  0  0  0  1  0  0  0  0  0  0
  189.4580  178.0750  148.3410 O   0  0  0  0  0  0  0  0  0  0  0  0
  2 12  2  0  0  0  0
  3  6  1  0  0  0  0
  4  2  1  0  0  0  0
  5  1  1  0  0  0  0
  6 29  1  6  0  0  0
  6  4  1  0  0  0  0
  7  4  2  0  0  0  0
  7  9  1  0  0  0  0
  9  8  1  1  0  0  0
  9  5  1  0  0  0  0
 10  7  1  0  0  0  0
 11  3  1  0  0  0  0
 11 10  2  0  0  0  0
 12  1  1  0  0  0  0
 13 11  1  0  0  0  0
 14 13  1  6  0  0  0
 15 18  1  0  0  0  0
 16 17  1  0  0  0  0
 18 16  2  0  0  0  0
 19 20  1  0  0  0  0
 19 15  2  0  0  0  0
 20 21  2  0  0  0  0
 21 16  1  0  0  0  0
 21 14  1  0  0  0  0
 22 24  2  0  0  0  0
 24 23  1  0  0  0  0
 24 15  1  0  0  0  0
 25 27  1  0  0  0  0
 25 14  1  0  0  0  0
 26 27  1  0  0  0  0
 27 28  1  0  0  0  0
 30 31  1  0  0  0  0
 30 29  1  0  0  0  0
 32 34  1  6  0  0  0
 32 35  1  0  0  0  0
 32 33  1  0  0  0  0
 33 37  1  1  0  0  0
 35 33  1  0  0  0  0
 36 31  1  6  0  0  0
 36 34  1  0  0  0  0
 36 32  1  0  0  0  0
 37 38  1  0  0  0  0
 38 39  1  0  0  0  0
 39 41  1  0  0  0  0
 41 40  1  0  0  0  0
M  END
>  <MODEL>
2

>  <REMARK>
 VINA RESULT:      -8.5      2.431      6.022
  Name = 
  14 active torsions:
  status: ('A' for Active; 'I' for Inactive)
    1  A    between atoms: C_4  and  C_6
    2  A    between atoms: C_4  and  C_30
    3  A    between atoms: C_10  and  C_23
    4  A    between atoms: C_13  and  O_27
    5  A    between atoms: C_15  and  O_27
    6  A    between atoms: C_15  and  C_31
    7  A    between atoms: C_15  and  C_40
    8  A    between atoms: C_19  and  O_41
    9  A    between atoms: C_24  and  C_25
   10  A    between atoms: C_24  and  C_37
   11  A    between atoms: C_25  and  O_41
   12  A    between atoms: O_29  and  C_34
   13  A    between atoms: C_30  and  C_34
   14  A    between atoms: C_31  and  C_36
                            x       y       z     vdW  Elec       q    Type
                         _______ _______ _______ _____ _____    ______ ____

>  <TORSDO>
F 14

$$$$
=
 OpenBabel11062415583D

 41 45  0  0  1  0  0  0  0  0999 V2000
  190.5520  176.7470  141.2260 C   0  0  0  0  0  2  0  0  0  0  0  0
  188.8850  178.3970  141.9450 C   0  0  0  0  0  3  0  0  0  0  0  0
  185.8260  178.6460  139.8140 O   0  0  0  0  0  0  0  0  0  0  0  0
  188.0000  178.2740  140.7480 C   0  0  0  0  0  0  0  0  0  0  0  0
  190.7890  177.3420  139.9720 O   0  0  0  0  0  0  0  0  0  0  0  0
  186.7260  178.6760  140.9010 C   0  0  1  0  0  3  0  0  0  0  0  0
  188.4740  177.8740  139.3820 C   0  0  0  0  0  0  0  0  0  0  0  0
  190.1190  177.4680  137.6700 N   0  0  0  0  0  1  0  0  0  0  0  0
  189.7660  177.5860  139.0480 C   0  0  2  0  0  3  0  0  0  0  0  0
  187.4760  177.8750  138.3150 C   0  0  0  0  0  3  0  0  0  0  0  0
  186.2100  178.2510  138.5390 C   0  0  0  0  0  0  0  0  0  0  0  0
  190.0250  177.7440  142.1670 C   0  0  0  0  0  3  0  0  0  0  0  0
  185.2140  178.2180  137.4220 C   0  0  0  0  0  2  0  0  0  0  0  0
  184.1590  177.1080  137.5520 C   0  0  2  0  0  3  0  0  0  0  0  0
  180.8250  178.2550  140.0960 C   0  0  0  0  0  0  0  0  0  0  0  0
  181.8400  178.1290  137.8910 C   0  0  0  0  0  0  0  0  0  0  0  0
  181.7310  178.4560  136.4520 C   0  0  0  0  0  1  0  0  0  0  0  0
  180.7860  178.5190  138.7210 C   0  0  0  0  0  3  0  0  0  0  0  0
  181.9200  177.5800  140.6330 C   0  0  0  0  0  3  0  0  0  0  0  0
  182.9710  177.1770  139.8040 C   0  0  0  0  0  3  0  0  0  0  0  0
  182.9630  177.4610  138.4310 C   0  0  0  0  0  0  0  0  0  0  0  0
  179.1680  179.7690  140.9270 O   0  0  0  0  0  0  0  0  0  0  0  0
  179.1900  177.6930  141.8940 O   0  0  0  0  0  1  0  0  0  0  0  0
  179.6730  178.6040  140.9520 C   0  0  0  0  0  0  0  0  0  0  0  0
  184.7400  175.9030  137.9620 O   0  0  0  0  0  0  0  0  0  0  0  0
  185.4660  173.7630  137.2040 C   0  0  0  0  0  1  0  0  0  0  0  0
  184.9580  175.1200  136.8030 C   0  0  0  0  0  3  0  0  0  0  0  0
  183.6460  174.9420  136.0730 C   0  0  0  0  0  1  0  0  0  0  0  0
  186.2950  179.1680  142.1480 O   0  0  0  0  0  0  0  0  0  0  0  0
  184.9700  178.9870  142.6080 C   0  0  0  0  0  2  0  0  0  0  0  0
  184.9870  178.2390  143.9370 C   0  0  0  0  0  2  0  0  0  0  0  0
  186.5350  177.5030  145.8290 C   0  0  1  0  0  0  0  0  0  0  0  0
  187.7300  178.1290  146.5220 C   0  0  1  0  0  3  0  0  0  0  0  0
  186.8920  176.7950  144.4810 C   0  0  0  0  0  2  0  0  0  0  0  0
  186.3060  178.6500  146.7060 C   0  0  0  0  0  2  0  0  0  0  0  0
  186.4110  178.1820  144.4550 C   0  0  1  0  0  3  0  0  0  0  0  0
  188.1860  177.2950  147.7280 C   0  0  0  0  0  2  0  0  0  0  0  0
  189.6150  176.7470  147.5450 C   0  0  0  0  0  2  0  0  0  0  0  0
  190.1780  177.1050  146.1650 C   0  0  0  0  0  2  0  0  0  0  0  0
  191.9740  176.0230  146.8760 C   0  0  0  0  0  1  0  0  0  0  0  0
  191.5820  177.1950  146.2230 O   0  0  0  0  0  0  0  0  0  0  0  0
  1 12  1  0  0  0  0
  2 12  2  0  0  0  0
  3  6  1  0  0  0  0
  4  6  1  0  0  0  0
  4  2  1  0  0  0  0
  5  1  1  0  0  0  0
  6 29  1  6  0  0  0
  7  4  2  0  0  0  0
  9  8  1  6  0  0  0
  9  7  1  0  0  0  0
  9  5  1  0  0  0  0
 10 11  2  0  0  0  0
 10  7  1  0  0  0  0
 11  3  1  0  0  0  0
 13 11  1  0  0  0  0
 14 13  1  1  0  0  0
 14 25  1  0  0  0  0
 14 21  1  0  0  0  0
 15 19  1  0  0  0  0
 15 24  1  0  0  0  0
 16 21  2  0  0  0  0
 16 18  1  0  0  0  0
 17 16  1  0  0  0  0
 18 15  2  0  0  0  0
 20 19  2  0  0  0  0
 21 20  1  0  0  0  0
 22 24  2  0  0  0  0
 24 23  1  0  0  0  0
 27 26  1  0  0  0  0
 27 25  1  0  0  0  0
 28 27  1  0  0  0  0
 29 30  1  0  0  0  0
 30 31  1  0  0  0  0
 32 34  1  1  0  0  0
 32 33  1  0  0  0  0
 32 35  1  0  0  0  0
 33 35  1  0  0  0  0
 33 37  1  1  0  0  0
 36 31  1  6  0  0  0
 36 34  1  0  0  0  0
 36 32  1  0  0  0  0
 38 37  1  0  0  0  0
 39 41  1  0  0  0  0
 39 38  1  0  0  0  0
 41 40  1  0  0  0  0
M  END
>  <MODEL>
3

>  <REMARK>
 VINA RESULT:      -8.0      2.213      4.977
  Name = 
  14 active torsions:
  status: ('A' for Active; 'I' for Inactive)
    1  A    between atoms: C_4  and  C_6
    2  A    between atoms: C_4  and  C_30
    3  A    between atoms: C_10  and  C_23
    4  A    between atoms: C_13  and  O_27
    5  A    between atoms: C_15  and  O_27
    6  A    between atoms: C_15  and  C_31
    7  A    between atoms: C_15  and  C_40
    8  A    between atoms: C_19  and  O_41
    9  A    between atoms: C_24  and  C_25
   10  A    between atoms: C_24  and  C_37
   11  A    between atoms: C_25  and  O_41
   12  A    between atoms: O_29  and  C_34
   13  A    between atoms: C_30  and  C_34
   14  A    between atoms: C_31  and  C_36
                            x       y       z     vdW  Elec       q    Type
                         _______ _______ _______ _____ _____    ______ ____

>  <TORSDO>
F 14

$$$$
=
 OpenBabel11062415583D

 41 45  0  0  1  0  0  0  0  0999 V2000
  185.3930  179.0040  146.3010 C   0  0  0  0  0  2  0  0  0  0  0  0
  186.7390  177.6240  144.7840 C   0  0  0  0  0  3  0  0  0  0  0  0
  186.3530  178.3680  141.1430 O   0  0  0  0  0  0  0  0  0  0  0  0
  186.1310  178.1270  143.5150 C   0  0  0  0  0  0  0  0  0  0  0  0
  184.1510  178.6000  145.7750 O   0  0  0  0  0  0  0  0  0  0  0  0
  186.8620  177.9700  142.3980 C   0  0  1  0  0  3  0  0  0  0  0  0
  184.7320  178.6530  143.3980 C   0  0  0  0  0  0  0  0  0  0  0  0
  182.4620  179.0100  144.1200 N   0  0  0  0  0  1  0  0  0  0  0  0
  183.8290  178.7290  144.4190 C   0  0  2  0  0  3  0  0  0  0  0  0
  184.2860  179.0370  142.0610 C   0  0  0  0  0  3  0  0  0  0  0  0
  185.0750  178.8910  140.9890 C   0  0  0  0  0  0  0  0  0  0  0  0
  186.4150  177.9860  146.0240 C   0  0  0  0  0  3  0  0  0  0  0  0
  184.5870  179.3160  139.6390 C   0  0  0  0  0  2  0  0  0  0  0  0
  183.4380  178.4580  139.0850 C   0  0  2  0  0  3  0  0  0  0  0  0
  184.8000  174.8400  137.0980 C   0  0  0  0  0  0  0  0  0  0  0  0
  183.2130  175.9680  138.5510 C   0  0  0  0  0  0  0  0  0  0  0  0
  182.0270  175.8490  139.4280 C   0  0  0  0  0  1  0  0  0  0  0  0
  183.6750  174.8050  137.9310 C   0  0  0  0  0  3  0  0  0  0  0  0
  185.4500  176.0520  136.8740 C   0  0  0  0  0  3  0  0  0  0  0  0
  184.9840  177.2210  137.4830 C   0  0  0  0  0  3  0  0  0  0  0  0
  183.8790  177.1990  138.3450 C   0  0  0  0  0  0  0  0  0  0  0  0
  185.2680  172.4950  136.9750 O   0  0  0  0  0  1  0  0  0  0  0  0
  185.7320  173.7000  135.0840 O   0  0  0  0  0  0  0  0  0  0  0  0
  185.2350  173.6200  136.3860 C   0  0  0  0  0  0  0  0  0  0  0  0
  182.5710  179.2210  138.2960 O   0  0  0  0  0  0  0  0  0  0  0  0
  181.2300  181.1920  138.3210 C   0  0  0  0  0  1  0  0  0  0  0  0
  181.9200  180.1440  139.1500 C   0  0  0  0  0  3  0  0  0  0  0  0
  180.8760  179.4130  139.9630 C   0  0  0  0  0  1  0  0  0  0  0  0
  188.1320  177.3660  142.4740 O   0  0  0  0  0  0  0  0  0  0  0  0
  189.3260  178.1100  142.3220 C   0  0  0  0  0  2  0  0  0  0  0  0
  190.3100  177.3280  141.4580 C   0  0  0  0  0  2  0  0  0  0  0  0
  189.9630  177.7270  138.9610 C   0  0  1  0  0  0  0  0  0  0  0  0
  188.7560  177.6960  138.0420 C   0  0  1  0  0  3  0  0  0  0  0  0
  190.5740  176.3150  139.2410 C   0  0  0  0  0  2  0  0  0  0  0  0
  188.9680  178.7910  139.0850 C   0  0  0  0  0  2  0  0  0  0  0  0
  189.6070  176.8770  140.1920 C   0  0  1  0  0  3  0  0  0  0  0  0
  189.1070  178.1850  136.6290 C   0  0  0  0  0  2  0  0  0  0  0  0
  188.7600  177.1390  135.5530 C   0  0  0  0  0  2  0  0  0  0  0  0
  189.6610  175.9040  135.6620 C   0  0  0  0  0  2  0  0  0  0  0  0
  188.8630  174.1510  136.7550 C   0  0  0  0  0  1  0  0  0  0  0  0
  188.9020  174.7330  135.4840 O   0  0  0  0  0  0  0  0  0  0  0  0
  2 12  2  0  0  0  0
  3  6  1  0  0  0  0
  4  2  1  0  0  0  0
  5  1  1  0  0  0  0
  6 29  1  6  0  0  0
  6  4  1  0  0  0  0
  7  4  2  0  0  0  0
  7  9  1  0  0  0  0
  9  8  1  1  0  0  0
  9  5  1  0  0  0  0
 10  7  1  0  0  0  0
 11  3  1  0  0  0  0
 11 10  2  0  0  0  0
 12  1  1  0  0  0  0
 13 11  1  0  0  0  0
 14 13  1  6  0  0  0
 15 18  1  0  0  0  0
 16 17  1  0  0  0  0
 18 16  2  0  0  0  0
 19 15  2  0  0  0  0
 19 20  1  0  0  0  0
 20 21  2  0  0  0  0
 21 16  1  0  0  0  0
 21 14  1  0  0  0  0
 23 24  2  0  0  0  0
 24 22  1  0  0  0  0
 24 15  1  0  0  0  0
 25 14  1  0  0  0  0
 25 27  1  0  0  0  0
 26 27  1  0  0  0  0
 27 28  1  0  0  0  0
 30 29  1  0  0  0  0
 31 30  1  0  0  0  0
 32 35  1  1  0  0  0
 32 34  1  0  0  0  0
 32 36  1  0  0  0  0
 33 37  1  6  0  0  0
 33 32  1  0  0  0  0
 33 35  1  0  0  0  0
 34 36  1  0  0  0  0
 36 31  1  1  0  0  0
 38 39  1  0  0  0  0
 38 37  1  0  0  0  0
 41 39  1  0  0  0  0
 41 40  1  0  0  0  0
M  END
>  <MODEL>
4

>  <REMARK>
 VINA RESULT:      -7.8      2.766      7.431
  Name = 
  14 active torsions:
  status: ('A' for Active; 'I' for Inactive)
    1  A    between atoms: C_4  and  C_6
    2  A    between atoms: C_4  and  C_30
    3  A    between atoms: C_10  and  C_23
    4  A    between atoms: C_13  and  O_27
    5  A    between atoms: C_15  and  O_27
    6  A    between atoms: C_15  and  C_31
    7  A    between atoms: C_15  and  C_40
    8  A    between atoms: C_19  and  O_41
    9  A    between atoms: C_24  and  C_25
   10  A    between atoms: C_24  and  C_37
   11  A    between atoms: C_25  and  O_41
   12  A    between atoms: O_29  and  C_34
   13  A    between atoms: C_30  and  C_34
   14  A    between atoms: C_31  and  C_36
                            x       y       z     vdW  Elec       q    Type
                         _______ _______ _______ _____ _____    ______ ____

>  <TORSDO>
F 14

$$$$
=
 OpenBabel11062415583D

 41 45  0  0  1  0  0  0  0  0999 V2000
  183.6900  177.1120  134.9390 C   0  0  0  0  0  2  0  0  0  0  0  0
  183.6550  177.3690  137.3790 C   0  0  0  0  0  3  0  0  0  0  0  0
  186.8530  178.5130  138.9350 O   0  0  0  0  0  0  0  0  0  0  0  0
  185.1170  177.6320  137.5410 C   0  0  0  0  0  0  0  0  0  0  0  0
  184.7020  176.1330  134.9280 O   0  0  0  0  0  0  0  0  0  0  0  0
  185.4890  178.2640  138.6680 C   0  0  1  0  0  3  0  0  0  0  0  0
  186.1770  177.1180  136.6140 C   0  0  0  0  0  0  0  0  0  0  0  0
  187.0640  175.7110  134.8710 N   0  0  0  0  0  1  0  0  0  0  0  0
  185.9550  176.3360  135.5160 C   0  0  2  0  0  3  0  0  0  0  0  0
  187.5620  177.4170  136.9710 C   0  0  0  0  0  3  0  0  0  0  0  0
  187.8690  178.0860  138.0900 C   0  0  0  0  0  0  0  0  0  0  0  0
  183.0090  177.1200  136.2410 C   0  0  0  0  0  3  0  0  0  0  0  0
  189.3000  178.3910  138.4080 C   0  0  0  0  0  2  0  0  0  0  0  0
  190.0760  177.2100  139.0140 C   0  0  2  0  0  3  0  0  0  0  0  0
  190.5680  177.2060  143.3330 C   0  0  0  0  0  0  0  0  0  0  0  0
  191.5330  177.3640  141.1090 C   0  0  0  0  0  0  0  0  0  0  0  0
  192.7610  177.4860  140.2910 C   0  0  0  0  0  1  0  0  0  0  0  0
  191.6840  177.3330  142.4960 C   0  0  0  0  0  3  0  0  0  0  0  0
  189.2950  177.1290  142.7700 C   0  0  0  0  0  3  0  0  0  0  0  0
  189.1390  177.1710  141.3820 C   0  0  0  0  0  3  0  0  0  0  0  0
  190.2470  177.2660  140.5280 C   0  0  0  0  0  0  0  0  0  0  0  0
  190.3860  178.2770  145.4660 O   0  0  0  0  0  0  0  0  0  0  0  0
  191.3790  176.2130  145.4730 O   0  0  0  0  0  1  0  0  0  0  0  0
  190.7310  177.2510  144.8010 C   0  0  0  0  0  0  0  0  0  0  0  0
  191.3110  177.0380  138.3800 O   0  0  0  0  0  0  0  0  0  0  0  0
  192.4000  176.0010  136.5300 C   0  0  0  0  0  1  0  0  0  0  0  0
  191.0900  176.2520  137.2230 C   0  0  0  0  0  3  0  0  0  0  0  0
  190.5040  174.9210  137.6350 C   0  0  0  0  0  1  0  0  0  0  0  0
  184.5150  178.6480  139.6080 O   0  0  0  0  0  0  0  0  0  0  0  0
  184.3940  178.0100  140.8650 C   0  0  0  0  0  2  0  0  0  0  0  0
  183.7200  178.9540  141.8560 C   0  0  0  0  0  2  0  0  0  0  0  0
  184.7680  178.3950  144.1140 C   0  0  1  0  0  0  0  0  0  0  0  0
  185.1770  179.2150  145.3230 C   0  0  1  0  0  3  0  0  0  0  0  0
  185.8310  178.3940  142.9680 C   0  0  0  0  0  2  0  0  0  0  0  0
  183.7170  178.9740  144.9500 C   0  0  0  0  0  2  0  0  0  0  0  0
  184.7250  179.3580  142.9170 C   0  0  1  0  0  3  0  0  0  0  0  0
  185.6170  178.3210  146.4920 C   0  0  0  0  0  2  0  0  0  0  0  0
  186.9740  177.6430  146.2230 C   0  0  0  0  0  2  0  0  0  0  0  0
  187.7400  177.3870  147.5250 C   0  0  0  0  0  2  0  0  0  0  0  0
  189.3750  178.2440  148.7480 C   0  0  0  0  0  1  0  0  0  0  0  0
  188.2150  178.6010  148.0550 O   0  0  0  0  0  0  0  0  0  0  0  0
  1 12  1  0  0  0  0
  2  4  1  0  0  0  0
  4  6  1  0  0  0  0
  5  1  1  0  0  0  0
  5  9  1  0  0  0  0
  6  3  1  0  0  0  0
  6 29  1  1  0  0  0
  7 10  1  0  0  0  0
  7  4  2  0  0  0  0
  9  8  1  6  0  0  0
  9  7  1  0  0  0  0
 10 11  2  0  0  0  0
 11 13  1  0  0  0  0
 11  3  1  0  0  0  0
 12  2  2  0  0  0  0
 14 13  1  6  0  0  0
 14 21  1  0  0  0  0
 15 24  1  0  0  0  0
 16 18  1  0  0  0  0
 17 16  1  0  0  0  0
 18 15  2  0  0  0  0
 19 15  1  0  0  0  0
 20 19  2  0  0  0  0
 21 16  2  0  0  0  0
 21 20  1  0  0  0  0
 24 22  2  0  0  0  0
 24 23  1  0  0  0  0
 25 14  1  0  0  0  0
 26 27  1  0  0  0  0
 27 28  1  0  0  0  0
 27 25  1  0  0  0  0
 29 30  1  0  0  0  0
 30 31  1  0  0  0  0
 32 34  1  6  0  0  0
 32 35  1  0  0  0  0
 32 33  1  0  0  0  0
 33 37  1  1  0  0  0
 35 33  1  0  0  0  0
 36 31  1  6  0  0  0
 36 34  1  0  0  0  0
 36 32  1  0  0  0  0
 38 37  1  0  0  0  0
 38 39  1  0  0  0  0
 39 41  1  0  0  0  0
 41 40  1  0  0  0  0
M  END
>  <MODEL>
5

>  <REMARK>
 VINA RESULT:      -7.6      1.804      5.787
  Name = 
  14 active torsions:
  status: ('A' for Active; 'I' for Inactive)
    1  A    between atoms: C_4  and  C_6
    2  A    between atoms: C_4  and  C_30
    3  A    between atoms: C_10  and  C_23
    4  A    between atoms: C_13  and  O_27
    5  A    between atoms: C_15  and  O_27
    6  A    between atoms: C_15  and  C_31
    7  A    between atoms: C_15  and  C_40
    8  A    between atoms: C_19  and  O_41
    9  A    between atoms: C_24  and  C_25
   10  A    between atoms: C_24  and  C_37
   11  A    between atoms: C_25  and  O_41
   12  A    between atoms: O_29  and  C_34
   13  A    between atoms: C_30  and  C_34
   14  A    between atoms: C_31  and  C_36
                            x       y       z     vdW  Elec       q    Type
                         _______ _______ _______ _____ _____    ______ ____

>  <TORSDO>
F 14

$$$$
=
 OpenBabel11062415583D

 41 45  0  0  1  0  0  0  0  0999 V2000
  185.0550  179.0810  145.9860 C   0  0  0  0  0  2  0  0  0  0  0  0
  186.6270  177.9170  144.5050 C   0  0  0  0  0  3  0  0  0  0  0  0
  186.2570  178.6420  140.8580 O   0  0  0  0  0  0  0  0  0  0  0  0
  185.9960  178.3460  143.2190 C   0  0  0  0  0  0  0  0  0  0  0  0
  183.8990  178.5150  145.4160 O   0  0  0  0  0  0  0  0  0  0  0  0
  186.7770  178.3030  142.1260 C   0  0  1  0  0  3  0  0  0  0  0  0
  184.5420  178.6750  143.0600 C   0  0  0  0  0  0  0  0  0  0  0  0
  182.2220  178.7080  143.7080 N   0  0  0  0  0  1  0  0  0  0  0  0
  183.6050  178.6140  144.0510 C   0  0  2  0  0  3  0  0  0  0  0  0
  184.0900  179.0090  141.7110 C   0  0  0  0  0  3  0  0  0  0  0  0
  184.9250  178.9860  140.6650 C   0  0  0  0  0  0  0  0  0  0  0  0
  186.2170  178.2160  145.7360 C   0  0  0  0  0  3  0  0  0  0  0  0
  184.4260  179.3550  139.3020 C   0  0  0  0  0  2  0  0  0  0  0  0
  184.1110  178.1520  138.3990 C   0  0  2  0  0  3  0  0  0  0  0  0
  187.5890  176.5450  136.3440 C   0  0  0  0  0  0  0  0  0  0  0  0
  185.3370  176.2500  137.2090 C   0  0  0  0  0  0  0  0  0  0  0  0
  184.2000  175.3280  137.4310 C   0  0  0  0  0  1  0  0  0  0  0  0
  186.4690  175.7340  136.5750 C   0  0  0  0  0  3  0  0  0  0  0  0
  187.5590  177.8820  136.7360 C   0  0  0  0  0  3  0  0  0  0  0  0
  186.4230  178.4050  137.3600 C   0  0  0  0  0  3  0  0  0  0  0  0
  185.3060  177.6010  137.6280 C   0  0  0  0  0  0  0  0  0  0  0  0
  189.1080  174.7990  135.7320 O   0  0  0  0  0  1  0  0  0  0  0  0
  189.5540  176.8610  134.8410 O   0  0  0  0  0  0  0  0  0  0  0  0
  188.7510  176.0110  135.6050 C   0  0  0  0  0  0  0  0  0  0  0  0
  183.0480  178.4320  137.5350 O   0  0  0  0  0  0  0  0  0  0  0  0
  180.8440  179.3410  137.4940 C   0  0  0  0  0  1  0  0  0  0  0  0
  181.9060  178.6870  138.3330 C   0  0  0  0  0  3  0  0  0  0  0  0
  181.3650  177.3740  138.8520 C   0  0  0  0  0  1  0  0  0  0  0  0
  188.1140  177.8800  142.2390 O   0  0  0  0  0  0  0  0  0  0  0  0
  188.7510  177.1270  141.2250 C   0  0  0  0  0  2  0  0  0  0  0  0
  190.2290  177.5010  141.1610 C   0  0  0  0  0  2  0  0  0  0  0  0
  190.4920  177.1220  143.6710 C   0  0  1  0  0  0  0  0  0  0  0  0
  191.6820  176.9520  144.5970 C   0  0  1  0  0  3  0  0  0  0  0  0
  190.0820  175.8090  142.9290 C   0  0  0  0  0  2  0  0  0  0  0  0
  191.3340  178.2860  143.9420 C   0  0  0  0  0  2  0  0  0  0  0  0
  190.9730  176.7620  142.2560 C   0  0  1  0  0  3  0  0  0  0  0  0
  191.2530  176.9160  146.0710 C   0  0  0  0  0  2  0  0  0  0  0  0
  189.7340  177.1140  146.2360 C   0  0  0  0  0  2  0  0  0  0  0  0
  189.2820  176.8080  147.6690 C   0  0  0  0  0  2  0  0  0  0  0  0
  188.0470  178.2530  148.8050 C   0  0  0  0  0  1  0  0  0  0  0  0
  189.3720  177.9670  148.4620 O   0  0  0  0  0  0  0  0  0  0  0  0
  2 12  2  0  0  0  0
  3  6  1  0  0  0  0
  4  2  1  0  0  0  0
  5  1  1  0  0  0  0
  6 29  1  6  0  0  0
  6  4  1  0  0  0  0
  7  4  2  0  0  0  0
  7  9  1  0  0  0  0
  9  8  1  1  0  0  0
  9  5  1  0  0  0  0
 10  7  1  0  0  0  0
 11  3  1  0  0  0  0
 11 10  2  0  0  0  0
 12  1  1  0  0  0  0
 13 11  1  0  0  0  0
 14 13  1  6  0  0  0
 15 18  2  0  0  0  0
 15 19  1  0  0  0  0
 16 17  1  0  0  0  0
 16 21  2  0  0  0  0
 18 16  1  0  0  0  0
 19 20  2  0  0  0  0
 20 21  1  0  0  0  0
 21 14  1  0  0  0  0
 23 24  2  0  0  0  0
 24 22  1  0  0  0  0
 24 15  1  0  0  0  0
 25 27  1  0  0  0  0
 25 14  1  0  0  0  0
 26 27  1  0  0  0  0
 27 28  1  0  0  0  0
 30 29  1  0  0  0  0
 31 30  1  0  0  0  0
 32 34  1  1  0  0  0
 32 35  1  0  0  0  0
 32 33  1  0  0  0  0
 33 37  1  1  0  0  0
 35 33  1  0  0  0  0
 36 31  1  6  0  0  0
 36 34  1  0  0  0  0
 36 32  1  0  0  0  0
 37 38  1  0  0  0  0
 38 39  1  0  0  0  0
 39 41  1  0  0  0  0
 41 40  1  0  0  0  0
M  END
>  <MODEL>
6

>  <REMARK>
 VINA RESULT:      -7.5      2.181      6.219
  Name = 
  14 active torsions:
  status: ('A' for Active; 'I' for Inactive)
    1  A    between atoms: C_4  and  C_6
    2  A    between atoms: C_4  and  C_30
    3  A    between atoms: C_10  and  C_23
    4  A    between atoms: C_13  and  O_27
    5  A    between atoms: C_15  and  O_27
    6  A    between atoms: C_15  and  C_31
    7  A    between atoms: C_15  and  C_40
    8  A    between atoms: C_19  and  O_41
    9  A    between atoms: C_24  and  C_25
   10  A    between atoms: C_24  and  C_37
   11  A    between atoms: C_25  and  O_41
   12  A    between atoms: O_29  and  C_34
   13  A    between atoms: C_30  and  C_34
   14  A    between atoms: C_31  and  C_36
                            x       y       z     vdW  Elec       q    Type
                         _______ _______ _______ _____ _____    ______ ____

>  <TORSDO>
F 14

$$$$
=
 OpenBabel11062415583D

 41 45  0  0  1  0  0  0  0  0999 V2000
  190.4970  176.3440  142.1250 C   0  0  0  0  0  2  0  0  0  0  0  0
  188.9980  178.2820  142.2580 C   0  0  0  0  0  3  0  0  0  0  0  0
  186.5500  178.6330  139.4570 O   0  0  0  0  0  0  0  0  0  0  0  0
  188.3840  178.1120  140.9060 C   0  0  0  0  0  0  0  0  0  0  0  0
  191.0900  176.7240  140.9060 O   0  0  0  0  0  0  0  0  0  0  0  0
  187.1870  178.6950  140.7150 C   0  0  1  0  0  3  0  0  0  0  0  0
  189.0710  177.4700  139.7390 C   0  0  0  0  0  0  0  0  0  0  0  0
  190.9610  176.6190  138.5110 N   0  0  0  0  0  1  0  0  0  0  0  0
  190.3430  176.9710  139.7490 C   0  0  2  0  0  3  0  0  0  0  0  0
  188.3410  177.4540  138.4740 C   0  0  0  0  0  3  0  0  0  0  0  0
  187.1330  178.0200  138.3560 C   0  0  0  0  0  0  0  0  0  0  0  0
  189.9440  177.5220  142.8070 C   0  0  0  0  0  3  0  0  0  0  0  0
  186.4080  177.9640  137.0460 C   0  0  0  0  0  2  0  0  0  0  0  0
  185.3460  176.8560  136.9610 C   0  0  2  0  0  3  0  0  0  0  0  0
  181.4620  178.1380  138.4320 C   0  0  0  0  0  0  0  0  0  0  0  0
  182.9050  177.5120  136.5800 C   0  0  0  0  0  0  0  0  0  0  0  0
  183.0510  177.3510  135.1160 C   0  0  0  0  0  1  0  0  0  0  0  0
  181.6690  177.9510  137.0590 C   0  0  0  0  0  3  0  0  0  0  0  0
  182.4960  177.8650  139.3250 C   0  0  0  0  0  3  0  0  0  0  0  0
  183.7310  177.4130  138.8500 C   0  0  0  0  0  3  0  0  0  0  0  0
  183.9670  177.2510  137.4770 C   0  0  0  0  0  0  0  0  0  0  0  0
  179.0690  178.0890  138.3900 O   0  0  0  0  0  0  0  0  0  0  0  0
  180.0060  179.4850  139.9450 O   0  0  0  0  0  1  0  0  0  0  0  0
  180.1280  178.5290  138.9350 C   0  0  0  0  0  0  0  0  0  0  0  0
  185.7900  175.6810  137.5760 O   0  0  0  0  0  0  0  0  0  0  0  0
  186.6050  173.8760  136.2490 C   0  0  0  0  0  1  0  0  0  0  0  0
  185.3880  174.5950  136.7610 C   0  0  0  0  0  3  0  0  0  0  0  0
  184.5760  173.6290  137.5930 C   0  0  0  0  0  1  0  0  0  0  0  0
  186.5810  179.4070  141.7680 O   0  0  0  0  0  0  0  0  0  0  0  0
  185.1850  179.3680  141.9940 C   0  0  0  0  0  2  0  0  0  0  0  0
  184.7840  177.9790  142.4800 C   0  0  0  0  0  2  0  0  0  0  0  0
  185.9100  178.6160  144.6800 C   0  0  1  0  0  0  0  0  0  0  0  0
  186.0410  177.9460  146.0350 C   0  0  1  0  0  3  0  0  0  0  0  0
  184.5560  179.3730  144.4830 C   0  0  0  0  0  2  0  0  0  0  0  0
  186.7680  177.4380  144.7920 C   0  0  0  0  0  2  0  0  0  0  0  0
  184.6820  177.9950  143.9930 C   0  0  1  0  0  3  0  0  0  0  0  0
  186.9850  178.7250  146.9630 C   0  0  0  0  0  2  0  0  0  0  0  0
  187.5250  177.8460  148.1080 C   0  0  0  0  0  2  0  0  0  0  0  0
  189.0510  177.7200  148.0450 C   0  0  0  0  0  2  0  0  0  0  0  0
  190.7700  176.7570  147.0340 C   0  0  0  0  0  1  0  0  0  0  0  0
  189.4130  176.5720  147.3170 O   0  0  0  0  0  0  0  0  0  0  0  0
  1 12  1  0  0  0  0
  2 12  2  0  0  0  0
  3  6  1  0  0  0  0
  4  2  1  0  0  0  0
  5  1  1  0  0  0  0
  6  4  1  0  0  0  0
  6 29  1  6  0  0  0
  7  9  1  0  0  0  0
  7  4  2  0  0  0  0
  9  8  1  1  0  0  0
  9  5  1  0  0  0  0
 10  7  1  0  0  0  0
 11 10  2  0  0  0  0
 11  3  1  0  0  0  0
 13 11  1  0  0  0  0
 14 13  1  1  0  0  0
 14 21  1  0  0  0  0
 14 25  1  0  0  0  0
 15 24  1  0  0  0  0
 15 19  1  0  0  0  0
 16 18  1  0  0  0  0
 16 21  2  0  0  0  0
 17 16  1  0  0  0  0
 18 15  2  0  0  0  0
 20 19  2  0  0  0  0
 21 20  1  0  0  0  0
 22 24  2  0  0  0  0
 24 23  1  0  0  0  0
 26 27  1  0  0  0  0
 27 25  1  0  0  0  0
 27 28  1  0  0  0  0
 29 30  1  0  0  0  0
 30 31  1  0  0  0  0
 32 34  1  6  0  0  0
 32 35  1  0  0  0  0
 32 33  1  0  0  0  0
 33 37  1  1  0  0  0
 35 33  1  0  0  0  0
 36 31  1  6  0  0  0
 36 34  1  0  0  0  0
 36 32  1  0  0  0  0
 37 38  1  0  0  0  0
 39 38  1  0  0  0  0
 40 41  1  0  0  0  0
 41 39  1  0  0  0  0
M  END
>  <MODEL>
7

>  <REMARK>
 VINA RESULT:      -7.5      2.252      5.684
  Name = 
  14 active torsions:
  status: ('A' for Active; 'I' for Inactive)
    1  A    between atoms: C_4  and  C_6
    2  A    between atoms: C_4  and  C_30
    3  A    between atoms: C_10  and  C_23
    4  A    between atoms: C_13  and  O_27
    5  A    between atoms: C_15  and  O_27
    6  A    between atoms: C_15  and  C_31
    7  A    between atoms: C_15  and  C_40
    8  A    between atoms: C_19  and  O_41
    9  A    between atoms: C_24  and  C_25
   10  A    between atoms: C_24  and  C_37
   11  A    between atoms: C_25  and  O_41
   12  A    between atoms: O_29  and  C_34
   13  A    between atoms: C_30  and  C_34
   14  A    between atoms: C_31  and  C_36
                            x       y       z     vdW  Elec       q    Type
                         _______ _______ _______ _____ _____    ______ ____

>  <TORSDO>
F 14

$$$$
=
 OpenBabel11062415583D

 41 45  0  0  1  0  0  0  0  0999 V2000
  184.9880  179.1470  146.0080 C   0  0  0  0  0  2  0  0  0  0  0  0
  186.2670  177.8960  144.3290 C   0  0  0  0  0  3  0  0  0  0  0  0
  185.3890  178.6000  140.7660 O   0  0  0  0  0  0  0  0  0  0  0  0
  185.4710  178.3410  143.1450 C   0  0  0  0  0  0  0  0  0  0  0  0
  183.7350  178.6300  145.6260 O   0  0  0  0  0  0  0  0  0  0  0  0
  186.0760  178.2510  141.9490 C   0  0  1  0  0  3  0  0  0  0  0  0
  184.0250  178.7360  143.1980 C   0  0  0  0  0  0  0  0  0  0  0  0
  181.8320  178.8840  144.1840 N   0  0  0  0  0  1  0  0  0  0  0  0
  183.2450  178.7290  144.3190 C   0  0  2  0  0  3  0  0  0  0  0  0
  183.3920  179.0780  141.9260 C   0  0  0  0  0  3  0  0  0  0  0  0
  184.0600  179.0040  140.7680 C   0  0  0  0  0  0  0  0  0  0  0  0
  186.0590  178.2270  145.6020 C   0  0  0  0  0  3  0  0  0  0  0  0
  183.3790  179.3830  139.4890 C   0  0  0  0  0  2  0  0  0  0  0  0
  181.8440  179.3610  139.5620 C   0  0  2  0  0  3  0  0  0  0  0  0
  180.2160  175.3660  140.1060 C   0  0  0  0  0  0  0  0  0  0  0  0
  180.2420  177.7240  140.6970 C   0  0  0  0  0  0  0  0  0  0  0  0
  179.7050  178.7940  141.5670 C   0  0  0  0  0  1  0  0  0  0  0  0
  179.7450  176.4320  140.8840 C   0  0  0  0  0  3  0  0  0  0  0  0
  181.1760  175.6070  139.1250 C   0  0  0  0  0  3  0  0  0  0  0  0
  181.6670  176.9010  138.9260 C   0  0  0  0  0  3  0  0  0  0  0  0
  181.2310  177.9730  139.7160 C   0  0  0  0  0  0  0  0  0  0  0  0
  179.1160  173.4120  139.2690 O   0  0  0  0  0  0  0  0  0  0  0  0
  179.5230  173.4340  141.5230 O   0  0  0  0  0  1  0  0  0  0  0  0
  179.6300  174.0190  140.2600 C   0  0  0  0  0  0  0  0  0  0  0  0
  181.2770  180.0370  138.4770 O   0  0  0  0  0  0  0  0  0  0  0  0
  181.1840  182.2700  137.6480 C   0  0  0  0  0  1  0  0  0  0  0  0
  181.1030  181.3890  138.8620 C   0  0  0  0  0  3  0  0  0  0  0  0
  179.7340  181.5530  139.4820 C   0  0  0  0  0  1  0  0  0  0  0  0
  187.3960  177.7670  141.8690 O   0  0  0  0  0  0  0  0  0  0  0  0
  188.4850  178.6080  141.5410 C   0  0  0  0  0  2  0  0  0  0  0  0
  189.7960  177.9010  141.8720 C   0  0  0  0  0  2  0  0  0  0  0  0
  190.9480  177.3280  144.0760 C   0  0  1  0  0  0  0  0  0  0  0  0
  190.9750  176.1010  144.9690 C   0  0  1  0  0  3  0  0  0  0  0  0
  189.6950  178.2370  144.2980 C   0  0  0  0  0  2  0  0  0  0  0  0
  191.6600  176.1420  143.6050 C   0  0  0  0  0  2  0  0  0  0  0  0
  189.6690  177.2330  143.2270 C   0  0  1  0  0  3  0  0  0  0  0  0
  191.9850  176.2570  146.1150 C   0  0  0  0  0  2  0  0  0  0  0  0
  191.2930  176.3600  147.4860 C   0  0  0  0  0  2  0  0  0  0  0  0
  190.6700  177.7460  147.6960 C   0  0  0  0  0  2  0  0  0  0  0  0
  188.6620  176.8140  147.6780 C   0  0  0  0  0  1  0  0  0  0  0  0
  189.4870  177.6370  148.4500 O   0  0  0  0  0  0  0  0  0  0  0  0
  2 12  2  0  0  0  0
  3 11  1  0  0  0  0
  3  6  1  0  0  0  0
  4  7  2  0  0  0  0
  4  2  1  0  0  0  0
  5  1  1  0  0  0  0
  6 29  1  6  0  0  0
  6  4  1  0  0  0  0
  7  9  1  0  0  0  0
  9  8  1  1  0  0  0
  9  5  1  0  0  0  0
 10  7  1  0  0  0  0
 11 10  2  0  0  0  0
 12  1  1  0  0  0  0
 13 11  1  0  0  0  0
 14 13  1  6  0  0  0
 14 21  1  0  0  0  0
 15 24  1  0  0  0  0
 15 18  1  0  0  0  0
 16 18  2  0  0  0  0
 16 17  1  0  0  0  0
 19 15  2  0  0  0  0
 20 19  1  0  0  0  0
 20 21  2  0  0  0  0
 21 16  1  0  0  0  0
 22 24  2  0  0  0  0
 24 23  1  0  0  0  0
 25 27  1  0  0  0  0
 25 14  1  0  0  0  0
 26 27  1  0  0  0  0
 27 28  1  0  0  0  0
 30 29  1  0  0  0  0
 30 31  1  0  0  0  0
 32 35  1  6  0  0  0
 32 34  1  0  0  0  0
 32 33  1  0  0  0  0
 33 37  1  1  0  0  0
 35 33  1  0  0  0  0
 36 31  1  6  0  0  0
 36 32  1  0  0  0  0
 36 34  1  0  0  0  0
 37 38  1  0  0  0  0
 38 39  1  0  0  0  0
 39 41  1  0  0  0  0
 40 41  1  0  0  0  0
M  END
>  <MODEL>
8

>  <REMARK>
 VINA RESULT:      -7.5      3.094      5.902
  Name = 
  14 active torsions:
  status: ('A' for Active; 'I' for Inactive)
    1  A    between atoms: C_4  and  C_6
    2  A    between atoms: C_4  and  C_30
    3  A    between atoms: C_10  and  C_23
    4  A    between atoms: C_13  and  O_27
    5  A    between atoms: C_15  and  O_27
    6  A    between atoms: C_15  and  C_31
    7  A    between atoms: C_15  and  C_40
    8  A    between atoms: C_19  and  O_41
    9  A    between atoms: C_24  and  C_25
   10  A    between atoms: C_24  and  C_37
   11  A    between atoms: C_25  and  O_41
   12  A    between atoms: O_29  and  C_34
   13  A    between atoms: C_30  and  C_34
   14  A    between atoms: C_31  and  C_36
                            x       y       z     vdW  Elec       q    Type
                         _______ _______ _______ _____ _____    ______ ____

>  <TORSDO>
F 14

$$$$
=
 OpenBabel11062415583D

 41 45  0  0  1  0  0  0  0  0999 V2000
  191.0680  176.7530  138.3060 C   0  0  0  0  0  2  0  0  0  0  0  0
  188.7250  176.5510  137.6060 C   0  0  0  0  0  3  0  0  0  0  0  0
  186.2770  178.6290  139.5160 O   0  0  0  0  0  0  0  0  0  0  0  0
  188.1460  177.3620  138.7190 C   0  0  0  0  0  0  0  0  0  0  0  0
  190.8490  176.2970  139.6200 O   0  0  0  0  0  0  0  0  0  0  0  0
  186.9280  177.8890  138.5050 C   0  0  1  0  0  3  0  0  0  0  0  0
  188.7660  177.4990  140.0770 C   0  0  0  0  0  0  0  0  0  0  0  0
  190.2660  176.9060  141.8680 N   0  0  0  0  0  1  0  0  0  0  0  0
  189.9230  176.8960  140.4820 C   0  0  2  0  0  3  0  0  0  0  0  0
  188.0210  178.2780  141.0630 C   0  0  0  0  0  3  0  0  0  0  0  0
  186.8260  178.8110  140.7780 C   0  0  0  0  0  0  0  0  0  0  0  0
  190.0100  176.2570  137.4160 C   0  0  0  0  0  3  0  0  0  0  0  0
  186.1050  179.6210  141.8110 C   0  0  0  0  0  2  0  0  0  0  0  0
  185.2840  178.7850  142.8060 C   0  0  2  0  0  3  0  0  0  0  0  0
  187.5610  177.5660  146.3030 C   0  0  0  0  0  0  0  0  0  0  0  0
  185.5170  178.4510  145.3290 C   0  0  0  0  0  0  0  0  0  0  0  0
  184.1640  179.0030  145.5660 C   0  0  0  0  0  1  0  0  0  0  0  0
  186.2670  178.0840  146.4490 C   0  0  0  0  0  3  0  0  0  0  0  0
  188.0920  177.4020  145.0250 C   0  0  0  0  0  3  0  0  0  0  0  0
  187.3410  177.7570  143.9020 C   0  0  0  0  0  3  0  0  0  0  0  0
  186.0570  178.3060  144.0300 C   0  0  0  0  0  0  0  0  0  0  0  0
  187.8740  177.3090  148.6620 O   0  0  0  0  0  1  0  0  0  0  0  0
  189.5890  176.5540  147.3450 O   0  0  0  0  0  0  0  0  0  0  0  0
  188.3160  177.1100  147.4880 C   0  0  0  0  0  0  0  0  0  0  0  0
  184.6520  177.7130  142.1660 O   0  0  0  0  0  0  0  0  0  0  0  0
  183.0960  177.1980  140.4350 C   0  0  0  0  0  1  0  0  0  0  0  0
  183.5890  178.2440  141.3960 C   0  0  0  0  0  3  0  0  0  0  0  0
  182.4520  178.6190  142.3190 C   0  0  0  0  0  1  0  0  0  0  0  0
  186.2780  177.6690  137.2760 O   0  0  0  0  0  0  0  0  0  0  0  0
  184.9690  177.1380  137.2040 C   0  0  0  0  0  2  0  0  0  0  0  0
  184.9350  175.9890  136.2020 C   0  0  0  0  0  2  0  0  0  0  0  0
  182.7480  175.1550  137.2190 C   0  0  1  0  0  0  0  0  0  0  0  0
  181.6920  174.1560  136.7840 C   0  0  1  0  0  3  0  0  0  0  0  0
  182.5810  176.5660  136.5670 C   0  0  0  0  0  2  0  0  0  0  0  0
  183.0880  173.7330  137.2370 C   0  0  0  0  0  2  0  0  0  0  0  0
  183.4930  175.5970  135.9480 C   0  0  1  0  0  3  0  0  0  0  0  0
  180.6460  173.9220  137.8840 C   0  0  0  0  0  2  0  0  0  0  0  0
  180.4550  175.1650  138.7730 C   0  0  0  0  0  2  0  0  0  0  0  0
  180.0310  174.7770  140.1950 C   0  0  0  0  0  2  0  0  0  0  0  0
  179.4560  176.8710  140.6270 C   0  0  0  0  0  1  0  0  0  0  0  0
  178.9450  175.5700  140.6100 O   0  0  0  0  0  0  0  0  0  0  0  0
  1  5  1  0  0  0  0
  2  4  1  0  0  0  0
  3 11  1  0  0  0  0
  4  7  2  0  0  0  0
  5  9  1  0  0  0  0
  6 29  1  1  0  0  0
  6  4  1  0  0  0  0
  6  3  1  0  0  0  0
  7  9  1  0  0  0  0
  7 10  1  0  0  0  0
  9  8  1  6  0  0  0
 11 10  2  0  0  0  0
 11 13  1  0  0  0  0
 12  2  2  0  0  0  0
 12  1  1  0  0  0  0
 14 13  1  6  0  0  0
 14 21  1  0  0  0  0
 15 18  1  0  0  0  0
 15 24  1  0  0  0  0
 16 17  1  0  0  0  0
 16 18  2  0  0  0  0
 19 15  2  0  0  0  0
 20 21  2  0  0  0  0
 20 19  1  0  0  0  0
 21 16  1  0  0  0  0
 23 24  2  0  0  0  0
 24 22  1  0  0  0  0
 25 14  1  0  0  0  0
 26 27  1  0  0  0  0
 27 25  1  0  0  0  0
 27 28  1  0  0  0  0
 30 29  1  0  0  0  0
 31 30  1  0  0  0  0
 32 34  1  1  0  0  0
 32 35  1  0  0  0  0
 33 32  1  0  0  0  0
 33 35  1  0  0  0  0
 33 37  1  1  0  0  0
 36 31  1  1  0  0  0
 36 34  1  0  0  0  0
 36 32  1  0  0  0  0
 37 38  1  0  0  0  0
 38 39  1  0  0  0  0
 39 41  1  0  0  0  0
 41 40  1  0  0  0  0
M  END
>  <MODEL>
9

>  <REMARK>
 VINA RESULT:      -7.2      2.362      6.910
  Name = 
  14 active torsions:
  status: ('A' for Active; 'I' for Inactive)
    1  A    between atoms: C_4  and  C_6
    2  A    between atoms: C_4  and  C_30
    3  A    between atoms: C_10  and  C_23
    4  A    between atoms: C_13  and  O_27
    5  A    between atoms: C_15  and  O_27
    6  A    between atoms: C_15  and  C_31
    7  A    between atoms: C_15  and  C_40
    8  A    between atoms: C_19  and  O_41
    9  A    between atoms: C_24  and  C_25
   10  A    between atoms: C_24  and  C_37
   11  A    between atoms: C_25  and  O_41
   12  A    between atoms: O_29  and  C_34
   13  A    between atoms: C_30  and  C_34
   14  A    between atoms: C_31  and  C_36
                            x       y       z     vdW  Elec       q    Type
                         _______ _______ _______ _____ _____    ______ ____

>  <TORSDO>
F 14

$$$$
