=
 OpenBabel11062414303D

 31 36  0  0  1  0  0  0  0  0999 V2000
  187.0170  177.2370  145.3080 C   0  0  1  0  0  3  0  0  0  0  0  0
  188.4270  177.5060  143.6240 N   0  0  0  0  0  0  0  0  0  0  0  0
  189.4860  177.3540  145.7760 C   0  0  0  0  0  0  0  0  0  0  0  0
  187.1220  176.8620  143.8610 C   0  0  2  0  0  3  0  0  0  0  0  0
  188.3090  177.9320  145.0320 C   0  0  2  0  0  3  0  0  0  0  0  0
  188.8490  176.6870  147.9620 O   0  0  0  0  0  0  0  0  0  0  0  0
  190.6800  176.8050  143.6900 C   0  0  0  0  0  3  0  0  0  0  0  0
  186.0300  177.5880  143.0860 C   0  0  0  0  0  2  0  0  0  0  0  0
  185.1410  178.2460  144.1250 C   0  0  1  0  0  3  0  0  0  0  0  0
  185.9040  178.2610  145.4380 C   0  0  0  0  0  2  0  0  0  0  0  0
  190.5760  176.9200  145.1650 C   0  0  0  0  0  0  0  0  0  0  0  0
  191.1390  176.9370  147.4790 N   0  0  0  0  0  0  0  0  0  0  0  0
  188.9890  178.0580  148.2660 C   0  0  0  0  0  2  0  0  0  0  0  0
  189.7880  177.4110  147.2080 C   0  0  1  0  0  0  0  0  0  0  0  0
  189.6090  177.0980  142.9350 C   0  0  0  0  0  0  0  0  0  0  0  0
  191.6590  176.6010  146.1430 C   0  0  0  0  0  3  0  0  0  0  0  0
  189.7360  176.3300  138.6920 C   0  0  0  0  0  2  0  0  0  0  0  0
  188.9250  177.7960  140.5630 C   0  0  0  0  0  0  0  0  0  0  0  0
  188.2840  178.3170  138.1890 C   0  0  0  0  0  2  0  0  0  0  0  0
  189.5940  176.9490  141.5090 N   0  0  0  0  0  2  0  0  0  0  0  0
  189.7950  177.3880  136.4260 C   0  0  0  0  0  2  0  0  0  0  0  0
  190.6190  176.6800  137.4970 C   0  0  0  0  0  2  0  0  0  0  0  0
  188.2400  178.7790  140.9570 O   0  0  0  0  0  0  0  0  0  0  0  0
  189.1730  178.6590  136.9970 C   0  0  0  0  0  2  0  0  0  0  0  0
  189.0390  177.5270  139.1600 N   0  0  0  0  0  0  0  0  0  0  0  0
  184.7010  179.5840  143.7180 N   0  0  0  0  0  2  0  0  0  0  0  0
  183.3680  179.8790  144.2410 C   0  0  0  0  0  2  0  0  0  0  0  0
  181.8380  178.0590  144.2640 F   0  0  0  0  0  0  0  0  0  0  0  0
  181.2690  179.9360  143.1570 F   0  0  0  0  0  0  0  0  0  0  0  0
  182.3150  179.0930  143.4790 C   0  0  0  0  0  0  0  0  0  0  0  0
  182.8590  178.5790  142.3160 F   0  0  0  0  0  0  0  0  0  0  0  0
  1 10  1  6  0  0  0
  2  4  1  0  0  0  0
  2  5  1  0  0  0  0
  3 14  1  0  0  0  0
  4  8  1  6  0  0  0
  4  1  1  0  0  0  0
  5  1  1  0  0  0  0
  5  3  1  1  0  0  0
  6 13  1  0  0  0  0
  7 11  1  0  0  0  0
  8  9  1  0  0  0  0
  9 26  1  6  0  0  0
  9 10  1  0  0  0  0
 11  3  2  0  0  0  0
 11 16  1  0  0  0  0
 14 12  1  0  0  0  0
 14  6  1  0  0  0  0
 14 13  1  1  0  0  0
 15  2  1  0  0  0  0
 15  7  2  0  0  0  0
 16 12  2  0  0  0  0
 17 25  1  0  0  0  0
 18 23  2  0  0  0  0
 18 20  1  0  0  0  0
 19 25  1  0  0  0  0
 20 15  1  0  0  0  0
 21 24  1  0  0  0  0
 21 22  1  0  0  0  0
 22 17  1  0  0  0  0
 24 19  1  0  0  0  0
 25 18  1  0  0  0  0
 26 27  1  0  0  0  0
 29 30  1  0  0  0  0
 30 27  1  0  0  0  0
 30 28  1  0  0  0  0
 31 30  1  0  0  0  0
M  END
>  <MODEL>
1

>  <REMARK>
 VINA RESULT:     -10.0      0.000      0.000
  Name = 
  4 active torsions:
  status: ('A' for Active; 'I' for Inactive)
    1  A    between atoms: N_9  and  C_17
    2  A    between atoms: N_9  and  C_23
    3  A    between atoms: N_12  and  C_30
    4  A    between atoms: C_16  and  C_17
                            x       y       z     vdW  Elec       q    Type
                         _______ _______ _______ _____ _____    ______ ____

>  <TORSDO>
F 4

$$$$
=
 OpenBabel11062414303D

 31 36  0  0  1  0  0  0  0  0999 V2000
  189.1440  176.6550  142.6910 C   0  0  1  0  0  3  0  0  0  0  0  0
  187.4420  178.0120  142.2880 N   0  0  0  0  0  0  0  0  0  0  0  0
  188.9510  177.7520  140.4350 C   0  0  0  0  0  0  0  0  0  0  0  0
  187.7070  176.8040  143.0910 C   0  0  2  0  0  3  0  0  0  0  0  0
  188.8710  177.9120  141.9330 C   0  0  2  0  0  3  0  0  0  0  0  0
  190.7080  176.2730  139.8440 O   0  0  0  0  0  0  0  0  0  0  0  0
  186.6020  178.4360  140.1230 C   0  0  0  0  0  3  0  0  0  0  0  0
  187.6430  177.1350  144.5760 C   0  0  0  0  0  2  0  0  0  0  0  0
  189.0570  176.9820  145.1040 C   0  0  1  0  0  3  0  0  0  0  0  0
  189.9940  176.9680  143.9090 C   0  0  0  0  0  2  0  0  0  0  0  0
  187.9500  178.0630  139.6290 C   0  0  0  0  0  0  0  0  0  0  0  0
  189.8020  177.6710  138.1830 N   0  0  0  0  0  0  0  0  0  0  0  0
  191.5320  177.4020  140.0350 C   0  0  0  0  0  2  0  0  0  0  0  0
  190.1290  177.5280  139.5950 C   0  0  1  0  0  0  0  0  0  0  0  0
  186.3620  178.4080  141.4440 C   0  0  0  0  0  0  0  0  0  0  0  0
  188.3680  178.0110  138.1950 C   0  0  0  0  0  3  0  0  0  0  0  0
  182.6580  179.3670  143.4370 C   0  0  0  0  0  2  0  0  0  0  0  0
  183.8030  178.5750  141.3470 C   0  0  0  0  0  0  0  0  0  0  0  0
  181.3050  178.8480  141.3860 C   0  0  0  0  0  2  0  0  0  0  0  0
  185.0720  178.6850  142.0090 N   0  0  0  0  0  2  0  0  0  0  0  0
  180.2370  178.7710  143.6460 C   0  0  0  0  0  2  0  0  0  0  0  0
  181.6120  178.6630  144.2980 C   0  0  0  0  0  2  0  0  0  0  0  0
  183.7410  178.2270  140.1360 O   0  0  0  0  0  0  0  0  0  0  0  0
  180.2650  178.1460  142.2540 C   0  0  0  0  0  2  0  0  0  0  0  0
  182.5970  178.8570  142.0690 N   0  0  0  0  0  0  0  0  0  0  0  0
  189.4050  178.0230  146.0760 N   0  0  0  0  0  2  0  0  0  0  0  0
  189.6050  177.4500  147.4070 C   0  0  0  0  0  2  0  0  0  0  0  0
  187.4740  178.4850  147.6090 F   0  0  0  0  0  0  0  0  0  0  0  0
  187.7720  176.4400  148.5030 F   0  0  0  0  0  0  0  0  0  0  0  0
  188.3710  177.6610  148.2650 C   0  0  0  0  0  0  0  0  0  0  0  0
  188.7280  178.2340  149.4730 F   0  0  0  0  0  0  0  0  0  0  0  0
  1  4  1  0  0  0  0
  1 10  1  1  0  0  0
  2  4  1  0  0  0  0
  4  8  1  1  0  0  0
  5  3  1  6  0  0  0
  5  2  1  0  0  0  0
  5  1  1  0  0  0  0
  6 13  1  0  0  0  0
  7 15  2  0  0  0  0
  8  9  1  0  0  0  0
  9 26  1  1  0  0  0
 10  9  1  0  0  0  0
 11  7  1  0  0  0  0
 11  3  2  0  0  0  0
 12 16  2  0  0  0  0
 12 14  1  0  0  0  0
 14  6  1  0  0  0  0
 14 13  1  1  0  0  0
 14  3  1  0  0  0  0
 15 20  1  0  0  0  0
 15  2  1  0  0  0  0
 16 11  1  0  0  0  0
 17 22  1  0  0  0  0
 18 20  1  0  0  0  0
 18 25  1  0  0  0  0
 19 25  1  0  0  0  0
 19 24  1  0  0  0  0
 21 22  1  0  0  0  0
 23 18  2  0  0  0  0
 24 21  1  0  0  0  0
 25 17  1  0  0  0  0
 26 27  1  0  0  0  0
 27 30  1  0  0  0  0
 28 30  1  0  0  0  0
 30 29  1  0  0  0  0
 30 31  1  0  0  0  0
M  END
>  <MODEL>
2

>  <REMARK>
 VINA RESULT:      -9.2      3.135      7.090
  Name = 
  4 active torsions:
  status: ('A' for Active; 'I' for Inactive)
    1  A    between atoms: N_9  and  C_17
    2  A    between atoms: N_9  and  C_23
    3  A    between atoms: N_12  and  C_30
    4  A    between atoms: C_16  and  C_17
                            x       y       z     vdW  Elec       q    Type
                         _______ _______ _______ _____ _____    ______ ____

>  <TORSDO>
F 4

$$$$
=
 OpenBabel11062414303D

 31 36  0  0  1  0  0  0  0  0999 V2000
  189.1850  176.5680  142.6940 C   0  0  1  0  0  3  0  0  0  0  0  0
  187.5060  177.9640  142.3350 N   0  0  0  0  0  0  0  0  0  0  0  0
  189.0120  177.7390  140.4750 C   0  0  0  0  0  0  0  0  0  0  0  0
  187.7510  176.7270  143.0980 C   0  0  2  0  0  3  0  0  0  0  0  0
  188.9330  177.8530  141.9770 C   0  0  2  0  0  3  0  0  0  0  0  0
  190.7450  176.2500  139.8370 O   0  0  0  0  0  0  0  0  0  0  0  0
  186.6760  178.4720  140.1840 C   0  0  0  0  0  3  0  0  0  0  0  0
  187.6910  177.0120  144.5930 C   0  0  0  0  0  2  0  0  0  0  0  0
  189.1020  176.8190  145.1160 C   0  0  1  0  0  3  0  0  0  0  0  0
  190.0400  176.8280  143.9220 C   0  0  0  0  0  2  0  0  0  0  0  0
  188.0170  178.0920  139.6780 C   0  0  0  0  0  0  0  0  0  0  0  0
  189.8630  177.7160  138.2210 N   0  0  0  0  0  0  0  0  0  0  0  0
  191.5870  177.3590  140.0650 C   0  0  0  0  0  2  0  0  0  0  0  0
  190.1880  177.5230  139.6280 C   0  0  1  0  0  0  0  0  0  0  0  0
  186.4330  178.4050  141.5030 C   0  0  0  0  0  0  0  0  0  0  0  0
  188.4360  178.0790  138.2440 C   0  0  0  0  0  3  0  0  0  0  0  0
  182.7440  179.3660  143.5230 C   0  0  0  0  0  2  0  0  0  0  0  0
  183.8770  178.6020  141.4160 C   0  0  0  0  0  0  0  0  0  0  0  0
  181.3820  178.9010  141.4650 C   0  0  0  0  0  2  0  0  0  0  0  0
  185.1480  178.6850  142.0760 N   0  0  0  0  0  2  0  0  0  0  0  0
  180.3170  178.7930  143.7260 C   0  0  0  0  0  2  0  0  0  0  0  0
  181.6920  178.6560  144.3720 C   0  0  0  0  0  2  0  0  0  0  0  0
  183.8080  178.2780  140.1980 O   0  0  0  0  0  0  0  0  0  0  0  0
  180.3360  178.1940  142.3220 C   0  0  0  0  0  2  0  0  0  0  0  0
  182.6760  178.8830  142.1450 N   0  0  0  0  0  0  0  0  0  0  0  0
  189.4670  177.8220  146.1220 N   0  0  0  0  0  2  0  0  0  0  0  0
  189.7810  177.1900  147.4020 C   0  0  0  0  0  2  0  0  0  0  0  0
  191.8590  177.3280  148.5490 F   0  0  0  0  0  0  0  0  0  0  0  0
  191.3150  175.3970  147.5250 F   0  0  0  0  0  0  0  0  0  0  0  0
  191.2410  176.7740  147.4430 C   0  0  0  0  0  0  0  0  0  0  0  0
  191.8840  177.1950  146.2930 F   0  0  0  0  0  0  0  0  0  0  0  0
  1  4  1  0  0  0  0
  1 10  1  1  0  0  0
  2  4  1  0  0  0  0
  4  8  1  1  0  0  0
  5  3  1  6  0  0  0
  5  2  1  0  0  0  0
  5  1  1  0  0  0  0
  6 13  1  0  0  0  0
  7 15  2  0  0  0  0
  8  9  1  0  0  0  0
  9 26  1  1  0  0  0
 10  9  1  0  0  0  0
 11  7  1  0  0  0  0
 11  3  2  0  0  0  0
 12 16  2  0  0  0  0
 12 14  1  0  0  0  0
 14  6  1  0  0  0  0
 14 13  1  1  0  0  0
 14  3  1  0  0  0  0
 15 20  1  0  0  0  0
 15  2  1  0  0  0  0
 16 11  1  0  0  0  0
 17 22  1  0  0  0  0
 18 20  1  0  0  0  0
 18 25  1  0  0  0  0
 19 25  1  0  0  0  0
 19 24  1  0  0  0  0
 21 22  1  0  0  0  0
 23 18  2  0  0  0  0
 24 21  1  0  0  0  0
 25 17  1  0  0  0  0
 26 27  1  0  0  0  0
 27 30  1  0  0  0  0
 30 29  1  0  0  0  0
 30 28  1  0  0  0  0
 31 30  1  0  0  0  0
M  END
>  <MODEL>
3

>  <REMARK>
 VINA RESULT:      -9.0      3.947      7.495
  Name = 
  4 active torsions:
  status: ('A' for Active; 'I' for Inactive)
    1  A    between atoms: N_9  and  C_17
    2  A    between atoms: N_9  and  C_23
    3  A    between atoms: N_12  and  C_30
    4  A    between atoms: C_16  and  C_17
                            x       y       z     vdW  Elec       q    Type
                         _______ _______ _______ _____ _____    ______ ____

>  <TORSDO>
F 4

$$$$
=
 OpenBabel11062414303D

 31 36  0  0  1  0  0  0  0  0999 V2000
  188.9670  178.3300  142.1580 C   0  0  1  0  0  3  0  0  0  0  0  0
  186.8470  177.8200  142.5360 N   0  0  0  0  0  0  0  0  0  0  0  0
  188.2740  177.5710  144.4540 C   0  0  0  0  0  0  0  0  0  0  0  0
  187.6090  178.7540  141.6870 C   0  0  2  0  0  3  0  0  0  0  0  0
  188.1790  177.3520  142.9650 C   0  0  2  0  0  3  0  0  0  0  0  0
  190.4650  178.2420  145.0650 O   0  0  0  0  0  0  0  0  0  0  0  0
  185.8430  177.9300  144.6690 C   0  0  0  0  0  3  0  0  0  0  0  0
  187.4580  178.3730  140.2200 C   0  0  0  0  0  2  0  0  0  0  0  0
  188.8250  177.8970  139.7650 C   0  0  1  0  0  3  0  0  0  0  0  0
  189.6490  177.6120  141.0080 C   0  0  0  0  0  2  0  0  0  0  0  0
  187.2100  177.7550  145.2190 C   0  0  0  0  0  0  0  0  0  0  0  0
  189.0150  177.4570  146.7430 N   0  0  0  0  0  0  0  0  0  0  0  0
  190.7570  176.8640  144.9790 C   0  0  0  0  0  2  0  0  0  0  0  0
  189.4150  177.3530  145.3460 C   0  0  1  0  0  0  0  0  0  0  0  0
  185.6750  177.9600  143.3380 C   0  0  0  0  0  0  0  0  0  0  0  0
  187.5700  177.7330  146.6690 C   0  0  0  0  0  3  0  0  0  0  0  0
  181.9920  178.5300  141.1640 C   0  0  0  0  0  2  0  0  0  0  0  0
  183.1980  178.6270  143.3650 C   0  0  0  0  0  0  0  0  0  0  0  0
  180.7510  179.1920  143.2450 C   0  0  0  0  0  2  0  0  0  0  0  0
  184.4030  178.1950  142.7170 N   0  0  0  0  0  2  0  0  0  0  0  0
  179.9080  179.9050  141.0000 C   0  0  0  0  0  2  0  0  0  0  0  0
  181.2830  179.6420  140.3940 C   0  0  0  0  0  2  0  0  0  0  0  0
  183.1740  178.8160  144.6120 O   0  0  0  0  0  0  0  0  0  0  0  0
  180.0480  180.3010  142.4680 C   0  0  0  0  0  2  0  0  0  0  0  0
  182.0120  178.8490  142.5900 N   0  0  0  0  0  0  0  0  0  0  0  0
  188.7430  176.7390  138.8690 N   0  0  0  0  0  2  0  0  0  0  0  0
  188.2420  177.1290  137.5530 C   0  0  0  0  0  2  0  0  0  0  0  0
  190.5800  177.3240  137.1670 F   0  0  0  0  0  0  0  0  0  0  0  0
  189.1810  177.4420  135.4070 F   0  0  0  0  0  0  0  0  0  0  0  0
  189.3470  177.7770  136.7360 C   0  0  0  0  0  0  0  0  0  0  0  0
  189.2870  179.1530  136.8680 F   0  0  0  0  0  0  0  0  0  0  0  0
  1 10  1  6  0  0  0
  1  5  1  0  0  0  0
  2  5  1  0  0  0  0
  2 15  1  0  0  0  0
  3 11  2  0  0  0  0
  3 14  1  0  0  0  0
  4  8  1  6  0  0  0
  4  1  1  0  0  0  0
  4  2  1  0  0  0  0
  5  3  1  1  0  0  0
  6 14  1  0  0  0  0
  7 11  1  0  0  0  0
  9 26  1  1  0  0  0
  9  8  1  0  0  0  0
  9 10  1  0  0  0  0
 11 16  1  0  0  0  0
 13  6  1  0  0  0  0
 14 13  1  6  0  0  0
 14 12  1  0  0  0  0
 15  7  2  0  0  0  0
 16 12  2  0  0  0  0
 17 25  1  0  0  0  0
 18 23  2  0  0  0  0
 20 15  1  0  0  0  0
 20 18  1  0  0  0  0
 21 24  1  0  0  0  0
 22 21  1  0  0  0  0
 22 17  1  0  0  0  0
 24 19  1  0  0  0  0
 25 19  1  0  0  0  0
 25 18  1  0  0  0  0
 27 26  1  0  0  0  0
 29 30  1  0  0  0  0
 30 31  1  0  0  0  0
 30 28  1  0  0  0  0
 30 27  1  0  0  0  0
M  END
>  <MODEL>
4

>  <REMARK>
 VINA RESULT:      -8.9      3.511      6.824
  Name = 
  4 active torsions:
  status: ('A' for Active; 'I' for Inactive)
    1  A    between atoms: N_9  and  C_17
    2  A    between atoms: N_9  and  C_23
    3  A    between atoms: N_12  and  C_30
    4  A    between atoms: C_16  and  C_17
                            x       y       z     vdW  Elec       q    Type
                         _______ _______ _______ _____ _____    ______ ____

>  <TORSDO>
F 4

$$$$
=
 OpenBabel11062414303D

 31 36  0  0  1  0  0  0  0  0999 V2000
  190.0840  177.9370  142.6090 C   0  0  1  0  0  3  0  0  0  0  0  0
  187.9470  177.3640  142.6640 N   0  0  0  0  0  0  0  0  0  0  0  0
  189.0340  177.3160  144.8080 C   0  0  0  0  0  0  0  0  0  0  0  0
  188.8150  178.2660  141.8850 C   0  0  2  0  0  3  0  0  0  0  0  0
  189.2010  176.9860  143.3460 C   0  0  2  0  0  3  0  0  0  0  0  0
  191.0680  178.1220  145.7230 O   0  0  0  0  0  0  0  0  0  0  0  0
  186.5930  177.5840  144.5850 C   0  0  0  0  0  3  0  0  0  0  0  0
  188.9270  177.7750  140.4480 C   0  0  0  0  0  2  0  0  0  0  0  0
  190.3650  177.3270  140.2670 C   0  0  1  0  0  3  0  0  0  0  0  0
  190.9740  177.1670  141.6480 C   0  0  0  0  0  2  0  0  0  0  0  0
  187.8500  177.5080  145.3670 C   0  0  0  0  0  0  0  0  0  0  0  0
  189.3780  177.3990  147.1910 N   0  0  0  0  0  0  0  0  0  0  0  0
  191.4120  176.7560  145.7950 C   0  0  0  0  0  2  0  0  0  0  0  0
  190.0120  177.2120  145.8930 C   0  0  1  0  0  0  0  0  0  0  0  0
  186.6520  177.5110  143.2450 C   0  0  0  0  0  0  0  0  0  0  0  0
  187.9590  177.6060  146.8540 C   0  0  0  0  0  3  0  0  0  0  0  0
  183.0350  177.6350  140.8970 C   0  0  0  0  0  2  0  0  0  0  0  0
  185.2460  178.6890  141.4520 C   0  0  0  0  0  0  0  0  0  0  0  0
  183.7310  179.7630  139.7580 C   0  0  0  0  0  2  0  0  0  0  0  0
  185.4980  177.6460  142.4040 N   0  0  0  0  0  2  0  0  0  0  0  0
  182.0630  178.2460  138.6740 C   0  0  0  0  0  2  0  0  0  0  0  0
  182.5240  177.0950  139.5630 C   0  0  0  0  0  2  0  0  0  0  0  0
  186.0710  179.6320  141.3020 O   0  0  0  0  0  0  0  0  0  0  0  0
  183.2170  179.2150  138.4300 C   0  0  0  0  0  2  0  0  0  0  0  0
  184.0520  178.6580  140.6600 N   0  0  0  0  0  0  0  0  0  0  0  0
  190.4720  176.1040  139.4630 N   0  0  0  0  0  2  0  0  0  0  0  0
  191.1870  176.3600  138.2140 C   0  0  0  0  0  2  0  0  0  0  0  0
  190.7560  176.3720  135.8750 F   0  0  0  0  0  0  0  0  0  0  0  0
  189.0480  175.9700  137.2870 F   0  0  0  0  0  0  0  0  0  0  0  0
  190.2080  176.6970  137.1030 C   0  0  0  0  0  0  0  0  0  0  0  0
  189.9060  178.0470  137.1330 F   0  0  0  0  0  0  0  0  0  0  0  0
  1 10  1  6  0  0  0
  1  5  1  0  0  0  0
  2 15  1  0  0  0  0
  2  5  1  0  0  0  0
  3 11  2  0  0  0  0
  3 14  1  0  0  0  0
  4  8  1  6  0  0  0
  4  1  1  0  0  0  0
  4  2  1  0  0  0  0
  5  3  1  1  0  0  0
  6 13  1  0  0  0  0
  6 14  1  0  0  0  0
  7 11  1  0  0  0  0
  9 26  1  1  0  0  0
  9  8  1  0  0  0  0
  9 10  1  0  0  0  0
 11 16  1  0  0  0  0
 14 13  1  6  0  0  0
 14 12  1  0  0  0  0
 15  7  2  0  0  0  0
 16 12  2  0  0  0  0
 18 20  1  0  0  0  0
 19 25  1  0  0  0  0
 20 15  1  0  0  0  0
 21 22  1  0  0  0  0
 22 17  1  0  0  0  0
 23 18  2  0  0  0  0
 24 21  1  0  0  0  0
 24 19  1  0  0  0  0
 25 17  1  0  0  0  0
 25 18  1  0  0  0  0
 27 26  1  0  0  0  0
 28 30  1  0  0  0  0
 30 31  1  0  0  0  0
 30 29  1  0  0  0  0
 30 27  1  0  0  0  0
M  END
>  <MODEL>
5

>  <REMARK>
 VINA RESULT:      -8.7      3.662      6.099
  Name = 
  4 active torsions:
  status: ('A' for Active; 'I' for Inactive)
    1  A    between atoms: N_9  and  C_17
    2  A    between atoms: N_9  and  C_23
    3  A    between atoms: N_12  and  C_30
    4  A    between atoms: C_16  and  C_17
                            x       y       z     vdW  Elec       q    Type
                         _______ _______ _______ _____ _____    ______ ____

>  <TORSDO>
F 4

$$$$
=
 OpenBabel11062414303D

 31 36  0  0  1  0  0  0  0  0999 V2000
  189.3490  178.1950  142.7600 C   0  0  1  0  0  3  0  0  0  0  0  0
  187.1850  177.8450  142.4560 N   0  0  0  0  0  0  0  0  0  0  0  0
  187.8990  177.6560  144.7430 C   0  0  0  0  0  0  0  0  0  0  0  0
  188.2530  178.6630  141.8530 C   0  0  2  0  0  3  0  0  0  0  0  0
  188.2680  177.3300  143.3170 C   0  0  2  0  0  3  0  0  0  0  0  0
  189.8280  178.2360  145.9960 O   0  0  0  0  0  0  0  0  0  0  0  0
  185.5650  178.1770  144.1400 C   0  0  0  0  0  3  0  0  0  0  0  0
  188.5480  178.1820  140.4380 C   0  0  0  0  0  2  0  0  0  0  0  0
  189.9440  177.5900  140.4760 C   0  0  1  0  0  3  0  0  0  0  0  0
  190.3020  177.3510  141.9320 C   0  0  0  0  0  2  0  0  0  0  0  0
  186.6660  177.9610  145.1110 C   0  0  0  0  0  0  0  0  0  0  0  0
  187.8580  177.6700  147.1520 N   0  0  0  0  0  0  0  0  0  0  0  0
  190.0170  176.8400  146.0810 C   0  0  0  0  0  2  0  0  0  0  0  0
  188.6730  177.4370  145.9670 C   0  0  1  0  0  0  0  0  0  0  0  0
  185.8340  178.1160  142.8260 C   0  0  0  0  0  0  0  0  0  0  0  0
  186.5410  178.0270  146.5990 C   0  0  0  0  0  3  0  0  0  0  0  0
  183.1350  178.8360  139.5380 C   0  0  0  0  0  2  0  0  0  0  0  0
  183.4530  178.6280  142.0210 C   0  0  0  0  0  0  0  0  0  0  0  0
  181.1640  179.0660  141.0780 C   0  0  0  0  0  2  0  0  0  0  0  0
  184.8510  178.3800  141.8150 N   0  0  0  0  0  2  0  0  0  0  0  0
  181.1050  180.0990  138.8000 C   0  0  0  0  0  2  0  0  0  0  0  0
  182.6270  180.0200  138.7200 C   0  0  0  0  0  2  0  0  0  0  0  0
  182.9620  178.6020  143.1830 O   0  0  0  0  0  0  0  0  0  0  0  0
  180.6640  180.2480  140.2540 C   0  0  0  0  0  2  0  0  0  0  0  0
  182.6070  178.9110  140.8990 N   0  0  0  0  0  0  0  0  0  0  0  0
  190.0580  176.3750  139.6640 N   0  0  0  0  0  2  0  0  0  0  0  0
  189.2880  176.4970  138.4270 C   0  0  0  0  0  2  0  0  0  0  0  0
  189.8970  176.4930  136.1290 F   0  0  0  0  0  0  0  0  0  0  0  0
  189.8060  178.4610  137.2190 F   0  0  0  0  0  0  0  0  0  0  0  0
  190.1360  177.1250  137.3350 C   0  0  0  0  0  0  0  0  0  0  0  0
  191.4770  177.0160  137.6580 F   0  0  0  0  0  0  0  0  0  0  0  0
  1 10  1  6  0  0  0
  1  5  1  0  0  0  0
  2 15  1  0  0  0  0
  2  5  1  0  0  0  0
  3 11  2  0  0  0  0
  3 14  1  0  0  0  0
  4  8  1  6  0  0  0
  4  2  1  0  0  0  0
  4  1  1  0  0  0  0
  5  3  1  1  0  0  0
  6 13  1  0  0  0  0
  7 11  1  0  0  0  0
  8  9  1  0  0  0  0
  9 26  1  6  0  0  0
  9 10  1  0  0  0  0
 11 16  1  0  0  0  0
 14  6  1  0  0  0  0
 14 13  1  1  0  0  0
 14 12  1  0  0  0  0
 15  7  2  0  0  0  0
 16 12  2  0  0  0  0
 17 25  1  0  0  0  0
 18 23  2  0  0  0  0
 20 18  1  0  0  0  0
 20 15  1  0  0  0  0
 21 24  1  0  0  0  0
 22 21  1  0  0  0  0
 22 17  1  0  0  0  0
 24 19  1  0  0  0  0
 25 19  1  0  0  0  0
 25 18  1  0  0  0  0
 27 26  1  0  0  0  0
 28 30  1  0  0  0  0
 29 30  1  0  0  0  0
 30 31  1  0  0  0  0
 30 27  1  0  0  0  0
M  END
>  <MODEL>
6

>  <REMARK>
 VINA RESULT:      -8.6      3.783      6.500
  Name = 
  4 active torsions:
  status: ('A' for Active; 'I' for Inactive)
    1  A    between atoms: N_9  and  C_17
    2  A    between atoms: N_9  and  C_23
    3  A    between atoms: N_12  and  C_30
    4  A    between atoms: C_16  and  C_17
                            x       y       z     vdW  Elec       q    Type
                         _______ _______ _______ _____ _____    ______ ____

>  <TORSDO>
F 4

$$$$
=
 OpenBabel11062414303D

 31 36  0  0  1  0  0  0  0  0999 V2000
  188.4670  178.3510  145.5680 C   0  0  1  0  0  3  0  0  0  0  0  0
  187.9940  177.8660  143.4610 N   0  0  0  0  0  0  0  0  0  0  0  0
  186.0660  178.3300  144.8180 C   0  0  0  0  0  0  0  0  0  0  0  0
  189.0810  178.5200  144.2120 C   0  0  2  0  0  3  0  0  0  0  0  0
  187.4070  177.6390  144.7950 C   0  0  2  0  0  3  0  0  0  0  0  0
  185.6540  179.2890  146.9480 O   0  0  0  0  0  0  0  0  0  0  0  0
  186.0350  178.5960  142.3670 C   0  0  0  0  0  3  0  0  0  0  0  0
  190.3500  177.6800  144.1390 C   0  0  0  0  0  2  0  0  0  0  0  0
  190.5950  177.1640  145.5440 C   0  0  1  0  0  3  0  0  0  0  0  0
  189.3080  177.3420  146.3300 C   0  0  0  0  0  2  0  0  0  0  0  0
  185.4270  178.6870  143.7170 C   0  0  0  0  0  0  0  0  0  0  0  0
  183.8460  179.0010  145.4700 N   0  0  0  0  0  0  0  0  0  0  0  0
  185.2830  177.9760  147.3090 C   0  0  0  0  0  2  0  0  0  0  0  0
  185.1250  178.4780  145.9310 C   0  0  1  0  0  0  0  0  0  0  0  0
  187.3080  178.1870  142.2520 C   0  0  0  0  0  0  0  0  0  0  0  0
  184.0390  179.1530  144.0180 C   0  0  0  0  0  3  0  0  0  0  0  0
  189.2170  178.3370  138.3850 C   0  0  0  0  0  2  0  0  0  0  0  0
  189.0430  177.2190  140.6280 C   0  0  0  0  0  0  0  0  0  0  0  0
  190.7390  176.4220  138.9530 C   0  0  0  0  0  2  0  0  0  0  0  0
  188.0010  178.1350  140.9970 N   0  0  0  0  0  2  0  0  0  0  0  0
  190.2490  176.9700  136.5620 C   0  0  0  0  0  2  0  0  0  0  0  0
  189.0120  177.7530  136.9900 C   0  0  0  0  0  2  0  0  0  0  0  0
  189.4600  176.3590  141.4510 O   0  0  0  0  0  0  0  0  0  0  0  0
  190.5280  175.8460  137.5560 C   0  0  0  0  0  2  0  0  0  0  0  0
  189.6110  177.2780  139.3130 N   0  0  0  0  0  0  0  0  0  0  0  0
  191.0700  175.7770  145.5550 N   0  0  0  0  0  2  0  0  0  0  0  0
  192.3740  175.6750  146.2080 C   0  0  0  0  0  2  0  0  0  0  0  0
  191.1760  174.8590  148.0940 F   0  0  0  0  0  0  0  0  0  0  0  0
  193.3840  175.2530  148.3030 F   0  0  0  0  0  0  0  0  0  0  0  0
  192.2130  175.6940  147.7180 C   0  0  0  0  0  0  0  0  0  0  0  0
  191.9490  176.9820  148.1480 F   0  0  0  0  0  0  0  0  0  0  0  0
  1 10  1  1  0  0  0
  2  4  1  0  0  0  0
  2  5  1  0  0  0  0
  3 14  1  0  0  0  0
  4  8  1  1  0  0  0
  4  1  1  0  0  0  0
  5  3  1  6  0  0  0
  5  1  1  0  0  0  0
  6 13  1  0  0  0  0
  7 11  1  0  0  0  0
  8  9  1  0  0  0  0
  9 26  1  6  0  0  0
  9 10  1  0  0  0  0
 11 16  1  0  0  0  0
 11  3  2  0  0  0  0
 12 14  1  0  0  0  0
 14  6  1  0  0  0  0
 14 13  1  1  0  0  0
 15  7  2  0  0  0  0
 15  2  1  0  0  0  0
 16 12  2  0  0  0  0
 17 25  1  0  0  0  0
 18 20  1  0  0  0  0
 18 23  2  0  0  0  0
 19 25  1  0  0  0  0
 20 15  1  0  0  0  0
 21 22  1  0  0  0  0
 21 24  1  0  0  0  0
 22 17  1  0  0  0  0
 24 19  1  0  0  0  0
 25 18  1  0  0  0  0
 26 27  1  0  0  0  0
 27 30  1  0  0  0  0
 30 28  1  0  0  0  0
 30 31  1  0  0  0  0
 30 29  1  0  0  0  0
M  END
>  <MODEL>
7

>  <REMARK>
 VINA RESULT:      -8.5      3.820      5.958
  Name = 
  4 active torsions:
  status: ('A' for Active; 'I' for Inactive)
    1  A    between atoms: N_9  and  C_17
    2  A    between atoms: N_9  and  C_23
    3  A    between atoms: N_12  and  C_30
    4  A    between atoms: C_16  and  C_17
                            x       y       z     vdW  Elec       q    Type
                         _______ _______ _______ _____ _____    ______ ____

>  <TORSDO>
F 4

$$$$
=
 OpenBabel11062414303D

 31 36  0  0  1  0  0  0  0  0999 V2000
  189.3400  178.3020  142.5940 C   0  0  1  0  0  3  0  0  0  0  0  0
  187.2780  177.8920  143.2860 N   0  0  0  0  0  0  0  0  0  0  0  0
  188.9830  177.3130  144.8790 C   0  0  0  0  0  0  0  0  0  0  0  0
  187.9650  178.8700  142.4220 C   0  0  2  0  0  3  0  0  0  0  0  0
  188.6180  177.2860  143.4150 C   0  0  2  0  0  3  0  0  0  0  0  0
  191.2970  177.7540  145.1570 O   0  0  0  0  0  0  0  0  0  0  0  0
  186.6650  177.8050  145.5630 C   0  0  0  0  0  3  0  0  0  0  0  0
  187.5340  178.6840  140.9730 C   0  0  0  0  0  2  0  0  0  0  0  0
  188.7570  178.1780  140.2310 C   0  0  1  0  0  3  0  0  0  0  0  0
  189.7520  177.6860  141.2680 C   0  0  0  0  0  2  0  0  0  0  0  0
  188.0850  177.4720  145.8370 C   0  0  0  0  0  0  0  0  0  0  0  0
  190.0890  176.8680  146.9720 N   0  0  0  0  0  0  0  0  0  0  0  0
  191.4480  176.3810  144.8700 C   0  0  0  0  0  2  0  0  0  0  0  0
  190.2350  176.9100  145.5230 C   0  0  1  0  0  0  0  0  0  0  0  0
  186.2760  178.0100  144.2950 C   0  0  0  0  0  0  0  0  0  0  0  0
  188.6820  177.2470  147.1880 C   0  0  0  0  0  3  0  0  0  0  0  0
  182.2430  179.3540  143.5600 C   0  0  0  0  0  2  0  0  0  0  0  0
  184.3150  178.2550  142.6600 C   0  0  0  0  0  0  0  0  0  0  0  0
  182.3320  178.6200  141.1590 C   0  0  0  0  0  2  0  0  0  0  0  0
  184.9430  178.4050  143.9410 N   0  0  0  0  0  2  0  0  0  0  0  0
  180.1270  178.8780  142.3120 C   0  0  0  0  0  2  0  0  0  0  0  0
  180.8220  178.8060  143.6690 C   0  0  0  0  0  2  0  0  0  0  0  0
  184.9480  177.7540  141.6900 O   0  0  0  0  0  0  0  0  0  0  0  0
  180.9110  178.0760  141.2780 C   0  0  0  0  0  2  0  0  0  0  0  0
  182.9550  178.6720  142.4800 N   0  0  0  0  0  0  0  0  0  0  0  0
  188.4230  177.1470  139.2430 N   0  0  0  0  0  2  0  0  0  0  0  0
  187.6490  177.7110  138.1390 C   0  0  0  0  0  2  0  0  0  0  0  0
  189.0550  179.3560  137.1530 F   0  0  0  0  0  0  0  0  0  0  0  0
  189.6190  177.1860  136.9440 F   0  0  0  0  0  0  0  0  0  0  0  0
  188.5630  178.0740  136.9820 C   0  0  0  0  0  0  0  0  0  0  0  0
  187.8660  178.0020  135.7890 F   0  0  0  0  0  0  0  0  0  0  0  0
  1 10  1  6  0  0  0
  1  5  1  0  0  0  0
  2  5  1  0  0  0  0
  2 15  1  0  0  0  0
  3 14  1  0  0  0  0
  3 11  2  0  0  0  0
  4  8  1  6  0  0  0
  4  1  1  0  0  0  0
  4  2  1  0  0  0  0
  5  3  1  1  0  0  0
  6 14  1  0  0  0  0
  7 11  1  0  0  0  0
  9 26  1  6  0  0  0
  9  8  1  0  0  0  0
  9 10  1  0  0  0  0
 11 16  1  0  0  0  0
 12 16  2  0  0  0  0
 13  6  1  0  0  0  0
 14 13  1  6  0  0  0
 14 12  1  0  0  0  0
 15  7  2  0  0  0  0
 17 22  1  0  0  0  0
 18 20  1  0  0  0  0
 19 24  1  0  0  0  0
 19 25  1  0  0  0  0
 20 15  1  0  0  0  0
 21 22  1  0  0  0  0
 23 18  2  0  0  0  0
 24 21  1  0  0  0  0
 25 18  1  0  0  0  0
 25 17  1  0  0  0  0
 27 26  1  0  0  0  0
 29 30  1  0  0  0  0
 30 28  1  0  0  0  0
 30 27  1  0  0  0  0
 31 30  1  0  0  0  0
M  END
>  <MODEL>
8

>  <REMARK>
 VINA RESULT:      -8.4      3.321      6.385
  Name = 
  4 active torsions:
  status: ('A' for Active; 'I' for Inactive)
    1  A    between atoms: N_9  and  C_17
    2  A    between atoms: N_9  and  C_23
    3  A    between atoms: N_12  and  C_30
    4  A    between atoms: C_16  and  C_17
                            x       y       z     vdW  Elec       q    Type
                         _______ _______ _______ _____ _____    ______ ____

>  <TORSDO>
F 4

$$$$
=
 OpenBabel11062414303D

 31 36  0  0  1  0  0  0  0  0999 V2000
  183.5900  179.6160  144.2340 C   0  0  1  0  0  3  0  0  0  0  0  0
  184.7040  178.7110  142.5500 N   0  0  0  0  0  0  0  0  0  0  0  0
  182.3280  178.8300  142.2050 C   0  0  0  0  0  0  0  0  0  0  0  0
  184.9310  179.7420  143.5790 C   0  0  2  0  0  3  0  0  0  0  0  0
  183.4030  178.5350  143.2220 C   0  0  2  0  0  3  0  0  0  0  0  0
  180.4980  179.9470  143.2190 O   0  0  0  0  0  0  0  0  0  0  0  0
  183.9190  178.7080  140.3240 C   0  0  0  0  0  3  0  0  0  0  0  0
  186.0010  179.2790  144.5600 C   0  0  0  0  0  2  0  0  0  0  0  0
  185.2950  179.0650  145.8850 C   0  0  1  0  0  3  0  0  0  0  0  0
  183.8040  179.0010  145.6050 C   0  0  0  0  0  2  0  0  0  0  0  0
  182.5590  178.8300  140.9020 C   0  0  0  0  0  0  0  0  0  0  0  0
  180.1890  178.9600  141.1050 N   0  0  0  0  0  0  0  0  0  0  0  0
  180.1220  178.6520  143.6350 C   0  0  0  0  0  2  0  0  0  0  0  0
  180.8760  178.8800  142.3870 C   0  0  1  0  0  0  0  0  0  0  0  0
  184.9760  178.6490  141.1510 C   0  0  0  0  0  0  0  0  0  0  0  0
  181.2880  178.9400  140.1240 C   0  0  0  0  0  3  0  0  0  0  0  0
  188.9480  178.7220  139.4680 C   0  0  0  0  0  2  0  0  0  0  0  0
  187.4510  178.0070  141.3540 C   0  0  0  0  0  0  0  0  0  0  0  0
  189.9120  177.5030  141.4420 C   0  0  0  0  0  2  0  0  0  0  0  0
  186.3310  178.6010  140.6830 N   0  0  0  0  0  2  0  0  0  0  0  0
  191.0910  177.4520  139.2360 C   0  0  0  0  0  2  0  0  0  0  0  0
  189.8050  177.8730  138.5330 C   0  0  0  0  0  2  0  0  0  0  0  0
  187.3080  177.4740  142.4890 O   0  0  0  0  0  0  0  0  0  0  0  0
  190.7640  176.6590  140.4990 C   0  0  0  0  0  2  0  0  0  0  0  0
  188.7420  178.0130  140.7300 N   0  0  0  0  0  0  0  0  0  0  0  0
  185.7830  177.8780  146.5930 N   0  0  0  0  0  2  0  0  0  0  0  0
  187.1180  177.5030  146.1280 C   0  0  0  0  0  2  0  0  0  0  0  0
  188.3450  176.4280  147.8580 F   0  0  0  0  0  0  0  0  0  0  0  0
  189.3220  178.1100  146.7240 F   0  0  0  0  0  0  0  0  0  0  0  0
  188.1310  177.6520  147.2500 C   0  0  0  0  0  0  0  0  0  0  0  0
  187.6690  178.5590  148.1860 F   0  0  0  0  0  0  0  0  0  0  0  0
  1 10  1  1  0  0  0
  2  5  1  0  0  0  0
  2  4  1  0  0  0  0
  3 14  1  0  0  0  0
  4  1  1  0  0  0  0
  4  8  1  1  0  0  0
  5  3  1  6  0  0  0
  5  1  1  0  0  0  0
  6 13  1  0  0  0  0
  7 11  1  0  0  0  0
  7 15  2  0  0  0  0
  8  9  1  0  0  0  0
  9 26  1  6  0  0  0
 10  9  1  0  0  0  0
 11  3  2  0  0  0  0
 12 14  1  0  0  0  0
 14  6  1  0  0  0  0
 14 13  1  1  0  0  0
 15  2  1  0  0  0  0
 16 11  1  0  0  0  0
 16 12  2  0  0  0  0
 17 25  1  0  0  0  0
 18 23  2  0  0  0  0
 20 15  1  0  0  0  0
 20 18  1  0  0  0  0
 21 24  1  0  0  0  0
 22 21  1  0  0  0  0
 22 17  1  0  0  0  0
 24 19  1  0  0  0  0
 25 18  1  0  0  0  0
 25 19  1  0  0  0  0
 27 26  1  0  0  0  0
 27 30  1  0  0  0  0
 29 30  1  0  0  0  0
 30 28  1  0  0  0  0
 30 31  1  0  0  0  0
M  END
>  <MODEL>
9

>  <REMARK>
 VINA RESULT:      -8.3      3.470      6.503
  Name = 
  4 active torsions:
  status: ('A' for Active; 'I' for Inactive)
    1  A    between atoms: N_9  and  C_17
    2  A    between atoms: N_9  and  C_23
    3  A    between atoms: N_12  and  C_30
    4  A    between atoms: C_16  and  C_17
                            x       y       z     vdW  Elec       q    Type
                         _______ _______ _______ _____ _____    ______ ____

>  <TORSDO>
F 4

$$$$
