=
 OpenBabel11062413533D

 25 27  0  0  1  0  0  0  0  0999 V2000
  187.8250  177.7760  144.8830 C   0  0  0  0  0  0  0  0  0  0  0  0
  187.6860  178.0300  143.5030 C   0  0  0  0  0  0  0  0  0  0  0  0
  186.4640  178.3160  142.9620 C   0  0  0  0  0  0  0  0  0  0  0  0
  188.7120  178.0040  142.4130 C   0  0  2  0  0  3  0  0  0  0  0  0
  186.5240  178.5540  141.5700 N   0  0  0  0  0  0  0  0  0  0  0  0
  187.9210  178.4400  141.1620 C   0  0  0  0  0  3  0  0  0  0  0  0
  185.3160  178.3360  143.7530 C   0  0  0  0  0  0  0  0  0  0  0  0
  185.4360  178.0630  145.0810 N   0  0  0  0  0  0  0  0  0  0  0  0
  186.6460  177.7930  145.6540 C   0  0  0  0  0  3  0  0  0  0  0  0
  190.4470  176.6480  147.3770 C   0  0  0  0  0  3  0  0  0  0  0  0
  189.2030  176.9030  146.7980 C   0  0  0  0  0  3  0  0  0  0  0  0
  190.3260  177.8350  144.8780 C   0  0  0  0  0  3  0  0  0  0  0  0
  189.1310  177.5120  145.5370 C   0  0  0  0  0  0  0  0  0  0  0  0
  191.5520  177.5640  145.4890 C   0  0  0  0  0  3  0  0  0  0  0  0
  191.5870  176.9820  146.7180 N   0  0  0  0  0  0  0  0  0  0  0  0
  189.2670  176.6210  142.2060 C   0  0  0  0  0  0  0  0  0  0  0  0
  188.6790  175.6640  142.6830 O   0  0  0  0  0  0  0  0  0  0  0  0
  191.3450  177.5290  141.5220 O   0  0  0  0  0  1  0  0  0  0  0  0
  190.5330  176.3970  141.4370 C   0  0  0  0  0  2  0  0  0  0  0  0
  183.9690  178.6050  143.1640 C   0  0  0  0  0  2  0  0  0  0  0  0
  183.0380  179.2240  144.2000 C   0  0  0  0  0  2  0  0  0  0  0  0
  180.6550  180.0770  142.8620 O   0  0  0  0  0  0  0  0  0  0  0  0
  181.7570  178.5300  144.2250 N   0  0  0  0  0  2  0  0  0  0  0  0
  179.4060  178.3180  143.6290 O   0  0  0  0  0  1  0  0  0  0  0  0
  180.6000  179.0190  143.5430 C   0  0  0  0  0  0  0  0  0  0  0  0
  1 13  1  0  0  0  0
  1  9  1  0  0  0  0
  2  1  2  0  0  0  0
  3  2  1  0  0  0  0
  3  7  2  0  0  0  0
  4 16  1  6  0  0  0
  4  2  1  0  0  0  0
  5  3  1  0  0  0  0
  6  5  2  0  0  0  0
  6  4  1  0  0  0  0
  7  8  1  0  0  0  0
  8  9  2  0  0  0  0
 11 10  1  0  0  0  0
 12 14  2  0  0  0  0
 12 13  1  0  0  0  0
 13 11  2  0  0  0  0
 14 15  1  0  0  0  0
 15 10  2  0  0  0  0
 16 17  2  0  0  0  0
 19 18  1  0  0  0  0
 19 16  1  0  0  0  0
 20  7  1  0  0  0  0
 20 21  1  0  0  0  0
 21 23  1  0  0  0  0
 22 25  2  0  0  0  0
 25 24  1  0  0  0  0
 25 23  1  0  0  0  0
M  END
>  <MODEL>
1

>  <REMARK>
 VINA RESULT:      -7.9      0.000      0.000
  Name = 
  6 active torsions:
  status: ('A' for Active; 'I' for Inactive)
    1  A    between atoms: C_1  and  C_13
    2  A    between atoms: C_2  and  N_6
    3  A    between atoms: C_2  and  C_18
    4  A    between atoms: C_14  and  C_21
    5  A    between atoms: C_18  and  C_22
    6  A    between atoms: C_20  and  C_21
                            x       y       z     vdW  Elec       q    Type
                         _______ _______ _______ _____ _____    ______ ____

>  <TORSDO>
F 6

$$$$
=
 OpenBabel11062413533D

 25 27  0  0  1  0  0  0  0  0999 V2000
  188.4270  177.8680  142.7360 C   0  0  0  0  0  0  0  0  0  0  0  0
  189.6930  177.6840  142.1440 C   0  0  0  0  0  0  0  0  0  0  0  0
  189.8730  177.8700  140.8020 C   0  0  0  0  0  0  0  0  0  0  0  0
  190.9850  177.2450  142.7580 C   0  0  2  0  0  3  0  0  0  0  0  0
  191.2090  177.6540  140.3950 N   0  0  0  0  0  0  0  0  0  0  0  0
  191.9850  177.3190  141.5850 C   0  0  0  0  0  3  0  0  0  0  0  0
  188.8060  178.2180  139.9750 C   0  0  0  0  0  0  0  0  0  0  0  0
  187.5730  178.3700  140.5340 N   0  0  0  0  0  0  0  0  0  0  0  0
  187.3660  178.2090  141.8740 C   0  0  0  0  0  3  0  0  0  0  0  0
  188.9070  177.9090  146.4960 C   0  0  0  0  0  3  0  0  0  0  0  0
  189.1780  178.0250  145.1310 C   0  0  0  0  0  3  0  0  0  0  0  0
  186.9130  177.3460  144.6590 C   0  0  0  0  0  3  0  0  0  0  0  0
  188.1790  177.7330  144.1930 C   0  0  0  0  0  0  0  0  0  0  0  0
  186.6800  177.2420  146.0310 C   0  0  0  0  0  3  0  0  0  0  0  0
  187.6740  177.5210  146.9150 N   0  0  0  0  0  0  0  0  0  0  0  0
  190.9060  175.8310  143.2680 C   0  0  0  0  0  0  0  0  0  0  0  0
  190.0380  175.0890  142.8370 O   0  0  0  0  0  0  0  0  0  0  0  0
  191.9230  176.2160  145.3710 O   0  0  0  0  0  1  0  0  0  0  0  0
  191.8620  175.3220  144.3020 C   0  0  0  0  0  2  0  0  0  0  0  0
  188.9830  178.3830  138.5010 C   0  0  0  0  0  2  0  0  0  0  0  0
  188.8440  177.0450  137.7850 C   0  0  0  0  0  2  0  0  0  0  0  0
  190.7850  175.0090  138.3160 O   0  0  0  0  0  1  0  0  0  0  0  0
  190.0230  176.7660  136.9750 N   0  0  0  0  0  2  0  0  0  0  0  0
  192.0750  175.5450  136.5000 O   0  0  0  0  0  0  0  0  0  0  0  0
  190.9610  175.7400  137.3050 C   0  0  0  0  0  0  0  0  0  0  0  0
  1 13  1  0  0  0  0
  2  1  1  0  0  0  0
  2  4  1  0  0  0  0
  3  2  2  0  0  0  0
  4 16  1  6  0  0  0
  5  3  1  0  0  0  0
  5  6  2  0  0  0  0
  6  4  1  0  0  0  0
  7  8  2  0  0  0  0
  7  3  1  0  0  0  0
  8  9  1  0  0  0  0
  9  1  2  0  0  0  0
 10 15  1  0  0  0  0
 11 10  2  0  0  0  0
 12 14  1  0  0  0  0
 13 12  2  0  0  0  0
 13 11  1  0  0  0  0
 14 15  2  0  0  0  0
 16 19  1  0  0  0  0
 17 16  2  0  0  0  0
 19 18  1  0  0  0  0
 20  7  1  0  0  0  0
 21 20  1  0  0  0  0
 23 25  1  0  0  0  0
 23 21  1  0  0  0  0
 24 25  2  0  0  0  0
 25 22  1  0  0  0  0
M  END
>  <MODEL>
2

>  <REMARK>
 VINA RESULT:      -7.5      4.101      6.374
  Name = 
  6 active torsions:
  status: ('A' for Active; 'I' for Inactive)
    1  A    between atoms: C_1  and  C_13
    2  A    between atoms: C_2  and  N_6
    3  A    between atoms: C_2  and  C_18
    4  A    between atoms: C_14  and  C_21
    5  A    between atoms: C_18  and  C_22
    6  A    between atoms: C_20  and  C_21
                            x       y       z     vdW  Elec       q    Type
                         _______ _______ _______ _____ _____    ______ ____

>  <TORSDO>
F 6

$$$$
=
 OpenBabel11062413533D

 25 27  0  0  1  0  0  0  0  0999 V2000
  186.9730  178.0380  144.5010 C   0  0  0  0  0  0  0  0  0  0  0  0
  187.4550  178.0510  143.1760 C   0  0  0  0  0  0  0  0  0  0  0  0
  186.6230  178.3340  142.1300 C   0  0  0  0  0  0  0  0  0  0  0  0
  188.8220  177.7450  142.6480 C   0  0  2  0  0  3  0  0  0  0  0  0
  187.2860  178.3130  140.8820 N   0  0  0  0  0  0  0  0  0  0  0  0
  188.6910  178.0120  141.1340 C   0  0  0  0  0  3  0  0  0  0  0  0
  185.2680  178.5900  142.3390 C   0  0  0  0  0  0  0  0  0  0  0  0
  184.7880  178.5510  143.6120 N   0  0  0  0  0  0  0  0  0  0  0  0
  185.5980  178.2890  144.6800 C   0  0  0  0  0  3  0  0  0  0  0  0
  190.0160  177.6660  146.7300 C   0  0  0  0  0  3  0  0  0  0  0  0
  189.2320  177.8850  145.5950 C   0  0  0  0  0  3  0  0  0  0  0  0
  187.2590  177.4920  146.9260 C   0  0  0  0  0  3  0  0  0  0  0  0
  187.8370  177.7890  145.6820 C   0  0  0  0  0  0  0  0  0  0  0  0
  188.0770  177.2810  148.0380 C   0  0  0  0  0  3  0  0  0  0  0  0
  189.4280  177.3700  147.9180 N   0  0  0  0  0  0  0  0  0  0  0  0
  189.1970  176.3060  142.8790 C   0  0  0  0  0  0  0  0  0  0  0  0
  188.3170  175.4840  143.0760 O   0  0  0  0  0  0  0  0  0  0  0  0
  191.4640  176.9740  143.0350 O   0  0  0  0  0  1  0  0  0  0  0  0
  190.6290  175.8670  142.8820 C   0  0  0  0  0  2  0  0  0  0  0  0
  184.3400  178.8590  141.1980 C   0  0  0  0  0  2  0  0  0  0  0  0
  183.0060  178.1550  141.4060 C   0  0  0  0  0  2  0  0  0  0  0  0
  181.5490  178.8430  143.7730 O   0  0  0  0  0  1  0  0  0  0  0  0
  181.9170  179.1200  141.4820 N   0  0  0  0  0  2  0  0  0  0  0  0
  180.1790  180.3230  142.6890 O   0  0  0  0  0  0  0  0  0  0  0  0
  181.2220  179.4080  142.6970 C   0  0  0  0  0  0  0  0  0  0  0  0
  1  9  1  0  0  0  0
  1 13  1  0  0  0  0
  2  1  2  0  0  0  0
  3  7  2  0  0  0  0
  3  2  1  0  0  0  0
  4 16  1  6  0  0  0
  4  2  1  0  0  0  0
  5  6  2  0  0  0  0
  5  3  1  0  0  0  0
  6  4  1  0  0  0  0
  7  8  1  0  0  0  0
  8  9  2  0  0  0  0
 10 15  1  0  0  0  0
 11 13  1  0  0  0  0
 11 10  2  0  0  0  0
 12 14  1  0  0  0  0
 13 12  2  0  0  0  0
 15 14  2  0  0  0  0
 16 19  1  0  0  0  0
 16 17  2  0  0  0  0
 19 18  1  0  0  0  0
 20 21  1  0  0  0  0
 20  7  1  0  0  0  0
 21 23  1  0  0  0  0
 23 25  1  0  0  0  0
 24 25  2  0  0  0  0
 25 22  1  0  0  0  0
M  END
>  <MODEL>
3

>  <REMARK>
 VINA RESULT:      -7.5      1.440      1.920
  Name = 
  6 active torsions:
  status: ('A' for Active; 'I' for Inactive)
    1  A    between atoms: C_1  and  C_13
    2  A    between atoms: C_2  and  N_6
    3  A    between atoms: C_2  and  C_18
    4  A    between atoms: C_14  and  C_21
    5  A    between atoms: C_18  and  C_22
    6  A    between atoms: C_20  and  C_21
                            x       y       z     vdW  Elec       q    Type
                         _______ _______ _______ _____ _____    ______ ____

>  <TORSDO>
F 6

$$$$
=
 OpenBabel11062413533D

 25 27  0  0  1  0  0  0  0  0999 V2000
  187.7850  177.7010  144.8880 C   0  0  0  0  0  0  0  0  0  0  0  0
  188.7110  177.1390  143.9860 C   0  0  0  0  0  0  0  0  0  0  0  0
  189.9520  176.7500  144.4060 C   0  0  0  0  0  0  0  0  0  0  0  0
  188.5950  176.9050  142.5120 C   0  0  2  0  0  3  0  0  0  0  0  0
  190.7340  176.2000  143.3660 N   0  0  0  0  0  0  0  0  0  0  0  0
  189.9220  176.2030  142.1530 C   0  0  0  0  0  3  0  0  0  0  0  0
  190.3480  176.9240  145.7320 C   0  0  0  0  0  0  0  0  0  0  0  0
  189.4700  177.4920  146.6040 N   0  0  0  0  0  0  0  0  0  0  0  0
  188.2170  177.8740  146.2170 C   0  0  0  0  0  3  0  0  0  0  0  0
  184.6130  178.2360  142.8820 C   0  0  0  0  0  3  0  0  0  0  0  0
  185.9220  177.8760  143.2060 C   0  0  0  0  0  3  0  0  0  0  0  0
  185.5430  178.6570  145.4560 C   0  0  0  0  0  3  0  0  0  0  0  0
  186.4060  178.0930  144.5040 C   0  0  0  0  0  0  0  0  0  0  0  0
  184.2400  179.0030  145.0950 C   0  0  0  0  0  3  0  0  0  0  0  0
  183.8050  178.7900  143.8240 N   0  0  0  0  0  0  0  0  0  0  0  0
  188.4840  178.1980  141.7500 C   0  0  0  0  0  0  0  0  0  0  0  0
  188.9180  179.2240  142.2490 O   0  0  0  0  0  0  0  0  0  0  0  0
  188.6810  178.9090  139.5000 O   0  0  0  0  0  1  0  0  0  0  0  0
  187.8400  178.2520  140.3990 C   0  0  0  0  0  2  0  0  0  0  0  0
  191.7170  176.5420  146.1930 C   0  0  0  0  0  2  0  0  0  0  0  0
  191.6460  175.6790  147.4460 C   0  0  0  0  0  2  0  0  0  0  0  0
  192.1110  177.8780  149.2190 O   0  0  0  0  0  0  0  0  0  0  0  0
  192.8320  175.8670  148.2720 N   0  0  0  0  0  2  0  0  0  0  0  0
  194.1730  177.1230  149.8690 O   0  0  0  0  0  1  0  0  0  0  0  0
  193.0060  176.9980  149.1280 C   0  0  0  0  0  0  0  0  0  0  0  0
  1  9  1  0  0  0  0
  2  3  1  0  0  0  0
  2  1  2  0  0  0  0
  3  7  2  0  0  0  0
  4 16  1  6  0  0  0
  4  2  1  0  0  0  0
  5  3  1  0  0  0  0
  6  4  1  0  0  0  0
  6  5  2  0  0  0  0
  7 20  1  0  0  0  0
  7  8  1  0  0  0  0
  9  8  2  0  0  0  0
 10 11  2  0  0  0  0
 10 15  1  0  0  0  0
 11 13  1  0  0  0  0
 13  1  1  0  0  0  0
 13 12  2  0  0  0  0
 14 12  1  0  0  0  0
 15 14  2  0  0  0  0
 16 17  2  0  0  0  0
 18 19  1  0  0  0  0
 19 16  1  0  0  0  0
 20 21  1  0  0  0  0
 21 23  1  0  0  0  0
 23 25  1  0  0  0  0
 25 22  2  0  0  0  0
 25 24  1  0  0  0  0
M  END
>  <MODEL>
4

>  <REMARK>
 VINA RESULT:      -7.4      3.141      7.303
  Name = 
  6 active torsions:
  status: ('A' for Active; 'I' for Inactive)
    1  A    between atoms: C_1  and  C_13
    2  A    between atoms: C_2  and  N_6
    3  A    between atoms: C_2  and  C_18
    4  A    between atoms: C_14  and  C_21
    5  A    between atoms: C_18  and  C_22
    6  A    between atoms: C_20  and  C_21
                            x       y       z     vdW  Elec       q    Type
                         _______ _______ _______ _____ _____    ______ ____

>  <TORSDO>
F 6

$$$$
=
 OpenBabel11062413533D

 25 27  0  0  1  0  0  0  0  0999 V2000
  188.3860  177.5850  142.0670 C   0  0  0  0  0  0  0  0  0  0  0  0
  189.0860  177.2120  143.2320 C   0  0  0  0  0  0  0  0  0  0  0  0
  188.4790  177.2450  144.4560 C   0  0  0  0  0  0  0  0  0  0  0  0
  190.5110  176.7860  143.4010 C   0  0  2  0  0  3  0  0  0  0  0  0
  189.3330  176.8250  145.5010 N   0  0  0  0  0  0  0  0  0  0  0  0
  190.6130  176.4570  144.9060 C   0  0  0  0  0  3  0  0  0  0  0  0
  187.1600  177.6770  144.5920 C   0  0  0  0  0  0  0  0  0  0  0  0
  186.4850  178.0660  143.4750 N   0  0  0  0  0  0  0  0  0  0  0  0
  187.0590  178.0260  142.2370 C   0  0  0  0  0  3  0  0  0  0  0  0
  189.3540  178.4690  138.5100 C   0  0  0  0  0  3  0  0  0  0  0  0
  188.7700  178.5490  139.7760 C   0  0  0  0  0  3  0  0  0  0  0  0
  189.7810  176.4330  140.3380 C   0  0  0  0  0  3  0  0  0  0  0  0
  188.9720  177.5190  140.7050 C   0  0  0  0  0  0  0  0  0  0  0  0
  190.3480  176.3880  139.0630 C   0  0  0  0  0  3  0  0  0  0  0  0
  190.1230  177.3980  138.1810 N   0  0  0  0  0  0  0  0  0  0  0  0
  191.4680  177.8960  143.0590 C   0  0  0  0  0  0  0  0  0  0  0  0
  191.9620  177.9360  141.9440 O   0  0  0  0  0  0  0  0  0  0  0  0
  190.8880  179.9710  144.0430 O   0  0  0  0  0  1  0  0  0  0  0  0
  191.8340  178.9450  144.0640 C   0  0  0  0  0  2  0  0  0  0  0  0
  186.5010  177.7580  145.9300 C   0  0  0  0  0  2  0  0  0  0  0  0
  185.6240  179.0000  146.0290 C   0  0  0  0  0  2  0  0  0  0  0  0
  183.9990  179.8980  143.8500 O   0  0  0  0  0  0  0  0  0  0  0  0
  184.2220  178.6620  145.8210 N   0  0  0  0  0  2  0  0  0  0  0  0
  182.1250  178.8100  144.5930 O   0  0  0  0  0  1  0  0  0  0  0  0
  183.4630  179.1560  144.7150 C   0  0  0  0  0  0  0  0  0  0  0  0
  1  9  2  0  0  0  0
  1  2  1  0  0  0  0
  2  4  1  0  0  0  0
  2  3  2  0  0  0  0
  3  7  1  0  0  0  0
  3  5  1  0  0  0  0
  4 16  1  1  0  0  0
  4  6  1  0  0  0  0
  6  5  2  0  0  0  0
  7 20  1  0  0  0  0
  8  7  2  0  0  0  0
  9  8  1  0  0  0  0
 10 11  1  0  0  0  0
 11 13  2  0  0  0  0
 12 13  1  0  0  0  0
 13  1  1  0  0  0  0
 14 12  2  0  0  0  0
 15 10  2  0  0  0  0
 15 14  1  0  0  0  0
 16 19  1  0  0  0  0
 17 16  2  0  0  0  0
 18 19  1  0  0  0  0
 20 21  1  0  0  0  0
 22 25  2  0  0  0  0
 23 21  1  0  0  0  0
 24 25  1  0  0  0  0
 25 23  1  0  0  0  0
M  END
>  <MODEL>
5

>  <REMARK>
 VINA RESULT:      -7.4      2.126      4.525
  Name = 
  6 active torsions:
  status: ('A' for Active; 'I' for Inactive)
    1  A    between atoms: C_1  and  C_13
    2  A    between atoms: C_2  and  N_6
    3  A    between atoms: C_2  and  C_18
    4  A    between atoms: C_14  and  C_21
    5  A    between atoms: C_18  and  C_22
    6  A    between atoms: C_20  and  C_21
                            x       y       z     vdW  Elec       q    Type
                         _______ _______ _______ _____ _____    ______ ____

>  <TORSDO>
F 6

$$$$
=
 OpenBabel11062413533D

 25 27  0  0  1  0  0  0  0  0999 V2000
  191.5390  177.1240  140.7480 C   0  0  0  0  0  0  0  0  0  0  0  0
  190.8110  176.8260  139.5780 C   0  0  0  0  0  0  0  0  0  0  0  0
  191.4520  176.5620  138.4000 C   0  0  0  0  0  0  0  0  0  0  0  0
  189.3320  176.7800  139.3530 C   0  0  2  0  0  3  0  0  0  0  0  0
  190.5600  176.2730  137.3440 N   0  0  0  0  0  0  0  0  0  0  0  0
  189.2050  176.3270  137.8830 C   0  0  0  0  0  3  0  0  0  0  0  0
  192.8440  176.6090  138.3140 C   0  0  0  0  0  0  0  0  0  0  0  0
  193.5540  176.9250  139.4320 N   0  0  0  0  0  0  0  0  0  0  0  0
  192.9420  177.1740  140.6270 C   0  0  0  0  0  3  0  0  0  0  0  0
  189.4550  176.6840  143.8830 C   0  0  0  0  0  3  0  0  0  0  0  0
  190.0200  176.4360  142.6310 C   0  0  0  0  0  3  0  0  0  0  0  0
  191.2110  178.5270  142.7930 C   0  0  0  0  0  3  0  0  0  0  0  0
  190.9030  177.3670  142.0660 C   0  0  0  0  0  0  0  0  0  0  0  0
  190.6270  178.7390  144.0430 C   0  0  0  0  0  3  0  0  0  0  0  0
  189.7650  177.8220  144.5580 N   0  0  0  0  0  0  0  0  0  0  0  0
  188.7010  178.1350  139.5220 C   0  0  0  0  0  0  0  0  0  0  0  0
  189.0430  179.0480  138.7880 O   0  0  0  0  0  0  0  0  0  0  0  0
  186.4330  178.6320  139.9880 O   0  0  0  0  0  1  0  0  0  0  0  0
  187.6720  178.3880  140.5800 C   0  0  0  0  0  2  0  0  0  0  0  0
  193.5530  176.3640  137.0220 C   0  0  0  0  0  2  0  0  0  0  0  0
  194.2270  174.9980  137.0240 C   0  0  0  0  0  2  0  0  0  0  0  0
  195.4330  173.4200  139.0870 O   0  0  0  0  0  1  0  0  0  0  0  0
  195.6090  175.1030  137.4740 N   0  0  0  0  0  2  0  0  0  0  0  0
  197.4650  174.4620  138.9130 O   0  0  0  0  0  0  0  0  0  0  0  0
  196.1450  174.2910  138.5210 C   0  0  0  0  0  0  0  0  0  0  0  0
  1 13  1  0  0  0  0
  2  1  2  0  0  0  0
  3  2  1  0  0  0  0
  4 16  1  6  0  0  0
  4  2  1  0  0  0  0
  5  6  2  0  0  0  0
  5  3  1  0  0  0  0
  6  4  1  0  0  0  0
  7  3  2  0  0  0  0
  7  8  1  0  0  0  0
  8  9  2  0  0  0  0
  9  1  1  0  0  0  0
 10 15  1  0  0  0  0
 11 10  2  0  0  0  0
 12 14  1  0  0  0  0
 13 11  1  0  0  0  0
 13 12  2  0  0  0  0
 14 15  2  0  0  0  0
 16 19  1  0  0  0  0
 17 16  2  0  0  0  0
 18 19  1  0  0  0  0
 20 21  1  0  0  0  0
 20  7  1  0  0  0  0
 21 23  1  0  0  0  0
 23 25  1  0  0  0  0
 25 24  2  0  0  0  0
 25 22  1  0  0  0  0
M  END
>  <MODEL>
6

>  <REMARK>
 VINA RESULT:      -7.2      4.569      9.117
  Name = 
  6 active torsions:
  status: ('A' for Active; 'I' for Inactive)
    1  A    between atoms: C_1  and  C_13
    2  A    between atoms: C_2  and  N_6
    3  A    between atoms: C_2  and  C_18
    4  A    between atoms: C_14  and  C_21
    5  A    between atoms: C_18  and  C_22
    6  A    between atoms: C_20  and  C_21
                            x       y       z     vdW  Elec       q    Type
                         _______ _______ _______ _____ _____    ______ ____

>  <TORSDO>
F 6

$$$$
=
 OpenBabel11062413533D

 25 27  0  0  1  0  0  0  0  0999 V2000
  188.4730  177.8760  142.8050 C   0  0  0  0  0  0  0  0  0  0  0  0
  189.7220  177.6750  142.1830 C   0  0  0  0  0  0  0  0  0  0  0  0
  189.8720  177.8500  140.8370 C   0  0  0  0  0  0  0  0  0  0  0  0
  191.0250  177.2250  142.7690 C   0  0  2  0  0  3  0  0  0  0  0  0
  191.1950  177.6170  140.3980 N   0  0  0  0  0  0  0  0  0  0  0  0
  191.9960  177.2810  141.5710 C   0  0  0  0  0  3  0  0  0  0  0  0
  188.7880  178.2050  140.0340 C   0  0  0  0  0  0  0  0  0  0  0  0
  187.5720  178.3730  140.6210 N   0  0  0  0  0  0  0  0  0  0  0  0
  187.3950  178.2220  141.9670 C   0  0  0  0  0  3  0  0  0  0  0  0
  189.0370  177.9550  146.5520 C   0  0  0  0  0  3  0  0  0  0  0  0
  189.2770  178.0610  145.1810 C   0  0  0  0  0  3  0  0  0  0  0  0
  187.0070  177.3580  144.7660 C   0  0  0  0  0  3  0  0  0  0  0  0
  188.2590  177.7520  144.2680 C   0  0  0  0  0  0  0  0  0  0  0  0
  186.8060  177.2650  146.1440 C   0  0  0  0  0  3  0  0  0  0  0  0
  187.8170  177.5610  147.0030 N   0  0  0  0  0  0  0  0  0  0  0  0
  190.9430  175.8150  143.2890 C   0  0  0  0  0  0  0  0  0  0  0  0
  190.0570  175.0800  142.8830 O   0  0  0  0  0  0  0  0  0  0  0  0
  191.9020  176.1230  145.4320 O   0  0  0  0  0  1  0  0  0  0  0  0
  191.9180  175.3030  144.3040 C   0  0  0  0  0  2  0  0  0  0  0  0
  188.9320  178.3580  138.5540 C   0  0  0  0  0  2  0  0  0  0  0  0
  188.4790  177.0960  137.8310 C   0  0  0  0  0  2  0  0  0  0  0  0
  185.8580  177.8200  136.9360 O   0  0  0  0  0  1  0  0  0  0  0  0
  188.1050  177.3940  136.4540 N   0  0  0  0  0  2  0  0  0  0  0  0
  186.4830  177.9870  134.7390 O   0  0  0  0  0  0  0  0  0  0  0  0
  186.7710  177.7380  136.0730 C   0  0  0  0  0  0  0  0  0  0  0  0
  1 13  1  0  0  0  0
  2  4  1  0  0  0  0
  2  1  1  0  0  0  0
  3  2  2  0  0  0  0
  4 16  1  6  0  0  0
  5  3  1  0  0  0  0
  5  6  2  0  0  0  0
  6  4  1  0  0  0  0
  7  8  2  0  0  0  0
  7  3  1  0  0  0  0
  8  9  1  0  0  0  0
  9  1  2  0  0  0  0
 10 15  1  0  0  0  0
 11 10  2  0  0  0  0
 12 14  1  0  0  0  0
 13 12  2  0  0  0  0
 13 11  1  0  0  0  0
 14 15  2  0  0  0  0
 16 19  1  0  0  0  0
 17 16  2  0  0  0  0
 19 18  1  0  0  0  0
 20  7  1  0  0  0  0
 21 20  1  0  0  0  0
 23 21  1  0  0  0  0
 24 25  2  0  0  0  0
 25 23  1  0  0  0  0
 25 22  1  0  0  0  0
M  END
>  <MODEL>
7

>  <REMARK>
 VINA RESULT:      -7.2      3.701      5.478
  Name = 
  6 active torsions:
  status: ('A' for Active; 'I' for Inactive)
    1  A    between atoms: C_1  and  C_13
    2  A    between atoms: C_2  and  N_6
    3  A    between atoms: C_2  and  C_18
    4  A    between atoms: C_14  and  C_21
    5  A    between atoms: C_18  and  C_22
    6  A    between atoms: C_20  and  C_21
                            x       y       z     vdW  Elec       q    Type
                         _______ _______ _______ _____ _____    ______ ____

>  <TORSDO>
F 6

$$$$
=
 OpenBabel11062413533D

 25 27  0  0  1  0  0  0  0  0999 V2000
  188.1070  177.7080  143.6840 C   0  0  0  0  0  0  0  0  0  0  0  0
  189.4700  178.0520  143.7950 C   0  0  0  0  0  0  0  0  0  0  0  0
  190.3340  177.8320  142.7600 C   0  0  0  0  0  0  0  0  0  0  0  0
  190.2250  178.6270  144.9520 C   0  0  2  0  0  3  0  0  0  0  0  0
  191.6520  178.2510  143.0500 N   0  0  0  0  0  0  0  0  0  0  0  0
  191.6490  178.8240  144.3920 C   0  0  0  0  0  3  0  0  0  0  0  0
  189.9010  177.2350  141.5760 C   0  0  0  0  0  0  0  0  0  0  0  0
  188.5920  176.8730  141.4720 N   0  0  0  0  0  0  0  0  0  0  0  0
  187.7010  177.0980  142.4820 C   0  0  0  0  0  3  0  0  0  0  0  0
  185.1290  179.0930  145.5780 C   0  0  0  0  0  3  0  0  0  0  0  0
  186.0640  178.8850  144.5620 C   0  0  0  0  0  3  0  0  0  0  0  0
  187.1760  177.2680  145.9650 C   0  0  0  0  0  3  0  0  0  0  0  0
  187.1090  177.9700  144.7520 C   0  0  0  0  0  0  0  0  0  0  0  0
  186.2220  177.5020  146.9560 C   0  0  0  0  0  3  0  0  0  0  0  0
  185.2260  178.4040  146.7460 N   0  0  0  0  0  0  0  0  0  0  0  0
  190.2650  177.6760  146.1180 C   0  0  0  0  0  0  0  0  0  0  0  0
  189.6550  177.9550  147.1370 O   0  0  0  0  0  0  0  0  0  0  0  0
  192.0560  176.4170  147.0210 O   0  0  0  0  0  1  0  0  0  0  0  0
  191.0490  176.4020  146.0550 C   0  0  0  0  0  2  0  0  0  0  0  0
  190.8460  176.9510  140.4550 C   0  0  0  0  0  2  0  0  0  0  0  0
  190.0880  176.6620  139.1650 C   0  0  0  0  0  2  0  0  0  0  0  0
  187.9090  178.4720  138.7500 O   0  0  0  0  0  1  0  0  0  0  0  0
  190.1050  177.8220  138.2830 N   0  0  0  0  0  2  0  0  0  0  0  0
  189.0550  179.7530  137.2360 O   0  0  0  0  0  0  0  0  0  0  0  0
  188.9750  178.6790  138.1120 C   0  0  0  0  0  0  0  0  0  0  0  0
  1  2  1  0  0  0  0
  1 13  1  0  0  0  0
  2  4  1  0  0  0  0
  3  5  1  0  0  0  0
  3  2  2  0  0  0  0
  4 16  1  1  0  0  0
  5  6  2  0  0  0  0
  6  4  1  0  0  0  0
  7  3  1  0  0  0  0
  8  7  2  0  0  0  0
  8  9  1  0  0  0  0
  9  1  2  0  0  0  0
 10 15  1  0  0  0  0
 11 13  1  0  0  0  0
 11 10  2  0  0  0  0
 12 14  1  0  0  0  0
 13 12  2  0  0  0  0
 15 14  2  0  0  0  0
 16 17  2  0  0  0  0
 19 16  1  0  0  0  0
 19 18  1  0  0  0  0
 20  7  1  0  0  0  0
 21 20  1  0  0  0  0
 23 21  1  0  0  0  0
 24 25  2  0  0  0  0
 25 23  1  0  0  0  0
 25 22  1  0  0  0  0
M  END
>  <MODEL>
8

>  <REMARK>
 VINA RESULT:      -7.1      3.555      6.133
  Name = 
  6 active torsions:
  status: ('A' for Active; 'I' for Inactive)
    1  A    between atoms: C_1  and  C_13
    2  A    between atoms: C_2  and  N_6
    3  A    between atoms: C_2  and  C_18
    4  A    between atoms: C_14  and  C_21
    5  A    between atoms: C_18  and  C_22
    6  A    between atoms: C_20  and  C_21
                            x       y       z     vdW  Elec       q    Type
                         _______ _______ _______ _____ _____    ______ ____

>  <TORSDO>
F 6

$$$$
=
 OpenBabel11062413533D

 25 27  0  0  1  0  0  0  0  0999 V2000
  187.6710  178.0360  141.6710 C   0  0  0  0  0  0  0  0  0  0  0  0
  187.8660  177.6820  143.0220 C   0  0  0  0  0  0  0  0  0  0  0  0
  186.8860  177.8920  143.9500 C   0  0  0  0  0  0  0  0  0  0  0  0
  189.0700  177.1060  143.6990 C   0  0  2  0  0  3  0  0  0  0  0  0
  187.2580  177.4630  145.2440 N   0  0  0  0  0  0  0  0  0  0  0  0
  188.5990  176.8960  145.1530 C   0  0  0  0  0  3  0  0  0  0  0  0
  185.6760  178.4870  143.5950 C   0  0  0  0  0  0  0  0  0  0  0  0
  185.4890  178.8580  142.2990 N   0  0  0  0  0  0  0  0  0  0  0  0
  186.4430  178.6450  141.3440 C   0  0  0  0  0  3  0  0  0  0  0  0
  190.5480  176.5430  139.7060 C   0  0  0  0  0  3  0  0  0  0  0  0
  189.6300  176.7680  140.7340 C   0  0  0  0  0  3  0  0  0  0  0  0
  188.6570  178.5480  139.4290 C   0  0  0  0  0  3  0  0  0  0  0  0
  188.6750  177.7860  140.6070 C   0  0  0  0  0  0  0  0  0  0  0  0
  189.5910  178.2930  138.4230 C   0  0  0  0  0  3  0  0  0  0  0  0
  190.5120  177.3050  138.5810 N   0  0  0  0  0  0  0  0  0  0  0  0
  190.2320  178.0610  143.6750 C   0  0  0  0  0  0  0  0  0  0  0  0
  190.0180  179.2600  143.5860 O   0  0  0  0  0  0  0  0  0  0  0  0
  191.6830  176.1990  143.4920 O   0  0  0  0  0  1  0  0  0  0  0  0
  191.6450  177.5700  143.7450 C   0  0  0  0  0  2  0  0  0  0  0  0
  184.6140  178.7590  144.6110 C   0  0  0  0  0  2  0  0  0  0  0  0
  183.3950  179.4040  143.9620 C   0  0  0  0  0  2  0  0  0  0  0  0
  180.8040  179.9020  142.8510 O   0  0  0  0  0  0  0  0  0  0  0  0
  182.1930  178.6250  144.2300 N   0  0  0  0  0  2  0  0  0  0  0  0
  179.8170  178.1650  143.9700 O   0  0  0  0  0  1  0  0  0  0  0  0
  180.9250  178.9370  143.6500 C   0  0  0  0  0  0  0  0  0  0  0  0
  1  2  1  0  0  0  0
  2  4  1  0  0  0  0
  2  3  2  0  0  0  0
  3  5  1  0  0  0  0
  4 16  1  1  0  0  0
  4  6  1  0  0  0  0
  6  5  2  0  0  0  0
  7  3  1  0  0  0  0
  7 20  1  0  0  0  0
  8  7  2  0  0  0  0
  9  1  2  0  0  0  0
  9  8  1  0  0  0  0
 10 11  1  0  0  0  0
 12 13  1  0  0  0  0
 13 11  2  0  0  0  0
 13  1  1  0  0  0  0
 14 15  1  0  0  0  0
 14 12  2  0  0  0  0
 15 10  2  0  0  0  0
 16 19  1  0  0  0  0
 17 16  2  0  0  0  0
 18 19  1  0  0  0  0
 21 23  1  0  0  0  0
 21 20  1  0  0  0  0
 22 25  2  0  0  0  0
 25 24  1  0  0  0  0
 25 23  1  0  0  0  0
M  END
>  <MODEL>
9

>  <REMARK>
 VINA RESULT:      -7.1      1.795      3.948
  Name = 
  6 active torsions:
  status: ('A' for Active; 'I' for Inactive)
    1  A    between atoms: C_1  and  C_13
    2  A    between atoms: C_2  and  N_6
    3  A    between atoms: C_2  and  C_18
    4  A    between atoms: C_14  and  C_21
    5  A    between atoms: C_18  and  C_22
    6  A    between atoms: C_20  and  C_21
                            x       y       z     vdW  Elec       q    Type
                         _______ _______ _______ _____ _____    ______ ____

>  <TORSDO>
F 6

$$$$
