=
 OpenBabel11062416213D

 29 30  0  0  1  0  0  0  0  0999 V2000
  189.6120  177.4630  141.4460 C   0  0  2  0  0  3  0  0  0  0  0  0
  190.8160  176.9760  136.1400 O   0  0  0  0  0  0  0  0  0  0  0  0
  191.1620  176.4610  139.6830 C   0  0  1  0  0  3  0  0  0  0  0  0
  190.4710  176.8640  137.3070 C   0  0  0  0  0  0  0  0  0  0  0  0
  191.2440  175.9680  138.2350 C   0  0  2  0  0  3  0  0  0  0  0  0
  189.4990  178.1010  139.1080 O   0  0  0  0  0  0  0  0  0  0  0  0
  192.1340  177.4420  139.8990 O   0  0  0  0  0  1  0  0  0  0  0  0
  189.7590  177.0250  139.9800 C   0  0  2  0  0  3  0  0  0  0  0  0
  190.7460  174.6800  138.1510 F   0  0  0  0  0  0  0  0  0  0  0  0
  189.2240  177.5440  137.8430 C   0  0  1  0  0  3  0  0  0  0  0  0
  188.9360  179.8910  137.4270 O   0  0  0  0  0  1  0  0  0  0  0  0
  188.6780  178.6210  136.9020 C   0  0  2  0  0  3  0  0  0  0  0  0
  187.1740  178.4430  136.7230 C   0  0  0  0  0  2  0  0  0  0  0  0
  185.2050  177.0310  137.3290 C   0  0  0  0  0  1  0  0  0  0  0  0
  186.7180  177.0860  137.2330 C   0  0  0  0  0  2  0  0  0  0  0  0
  190.4560  176.5750  142.3660 C   0  0  2  0  0  3  0  0  0  0  0  0
  189.6640  175.6060  142.9920 O   0  0  0  0  0  1  0  0  0  0  0  0
  191.1910  177.4170  143.4040 C   0  0  0  0  0  2  0  0  0  0  0  0
  190.2550  177.8400  144.5250 C   0  0  0  0  0  2  0  0  0  0  0  0
  190.5300  177.1080  145.6830 O   0  0  0  0  0  0  0  0  0  0  0  0
  189.4370  177.7260  147.7170 C   0  0  0  0  0  2  0  0  0  0  0  0
  187.0110  178.3470  147.6250 C   0  0  0  0  0  2  0  0  0  0  0  0
  186.8870  177.6620  146.2660 C   0  0  0  0  0  2  0  0  0  0  0  0
  188.1020  177.6750  148.4580 C   0  0  0  0  0  2  0  0  0  0  0  0
  189.3100  177.0370  146.3590 C   0  0  0  0  0  3  0  0  0  0  0  0
  188.2220  177.7140  145.5270 C   0  0  0  0  0  2  0  0  0  0  0  0
  188.1460  177.4580  141.8800 C   0  0  0  0  0  2  0  0  0  0  0  0
  187.5030  178.7990  141.5840 C   0  0  0  0  0  2  0  0  0  0  0  0
  186.6240  178.6650  140.5110 O   0  0  0  0  0  1  0  0  0  0  0  0
  1 27  1  1  0  0  0
  1 16  1  0  0  0  0
  2  4  2  0  0  0  0
  3  7  1  6  0  0  0
  3  8  1  0  0  0  0
  4 10  1  0  0  0  0
  4  5  1  0  0  0  0
  5  9  1  1  0  0  0
  5  3  1  0  0  0  0
  6  8  1  0  0  0  0
  8  1  1  1  0  0  0
 10 12  1  6  0  0  0
 10  6  1  0  0  0  0
 12 11  1  1  0  0  0
 13 12  1  0  0  0  0
 13 15  1  0  0  0  0
 15 14  1  0  0  0  0
 16 17  1  1  0  0  0
 16 18  1  0  0  0  0
 18 19  1  0  0  0  0
 19 20  1  0  0  0  0
 20 25  1  0  0  0  0
 21 24  1  0  0  0  0
 22 24  1  0  0  0  0
 23 22  1  0  0  0  0
 25 21  1  0  0  0  0
 26 23  1  0  0  0  0
 26 25  1  0  0  0  0
 28 27  1  0  0  0  0
 29 28  1  0  0  0  0
M  END
>  <MODEL>
1

>  <REMARK>
 VINA RESULT:      -7.0      0.000      0.000
  Name = 
  11 active torsions:
  status: ('A' for Active; 'I' for Inactive)
    1  A    between atoms: C_3  and  C_7
    2  A    between atoms: C_3  and  C_12
    3  A    between atoms: C_7  and  O_22
    4  A    between atoms: C_9  and  C_26
    5  A    between atoms: C_10  and  C_23
    6  A    between atoms: C_12  and  C_29
    7  A    between atoms: C_20  and  C_29
    8  A    between atoms: C_21  and  O_22
    9  A    between atoms: C_23  and  C_27
   10  A    between atoms: C_25  and  C_27
   11  A    between atoms: C_26  and  C_29
                            x       y       z     vdW  Elec       q    Type
                         _______ _______ _______ _____ _____    ______ ____

>  <TORSDO>
F 11

$$$$
=
 OpenBabel11062416213D

 29 30  0  0  1  0  0  0  0  0999 V2000
  191.0840  177.5490  145.8140 C   0  0  2  0  0  3  0  0  0  0  0  0
  185.6400  177.3740  146.2250 O   0  0  0  0  0  0  0  0  0  0  0  0
  189.0490  177.5810  147.3540 C   0  0  1  0  0  3  0  0  0  0  0  0
  186.8320  177.6410  146.1850 C   0  0  0  0  0  0  0  0  0  0  0  0
  187.5700  177.9690  147.4530 C   0  0  2  0  0  3  0  0  0  0  0  0
  188.8420  177.0990  145.0070 O   0  0  0  0  0  0  0  0  0  0  0  0
  189.1990  176.2300  147.6740 O   0  0  0  0  0  1  0  0  0  0  0  0
  189.5840  177.8560  145.9340 C   0  0  2  0  0  3  0  0  0  0  0  0
  187.4600  179.3240  147.7110 F   0  0  0  0  0  0  0  0  0  0  0  0
  187.5890  177.7320  144.8720 C   0  0  1  0  0  3  0  0  0  0  0  0
  187.6130  176.1820  143.0380 O   0  0  0  0  0  1  0  0  0  0  0  0
  186.8190  177.1280  143.6940 C   0  0  2  0  0  3  0  0  0  0  0  0
  186.4250  178.2260  142.7120 C   0  0  0  0  0  2  0  0  0  0  0  0
  184.1330  178.7870  143.5300 C   0  0  0  0  0  1  0  0  0  0  0  0
  184.9380  178.1750  142.4010 C   0  0  0  0  0  2  0  0  0  0  0  0
  191.6710  178.1840  144.5490 C   0  0  2  0  0  3  0  0  0  0  0  0
  190.9620  179.3370  144.1930 O   0  0  0  0  0  1  0  0  0  0  0  0
  191.6810  177.1850  143.3980 C   0  0  0  0  0  2  0  0  0  0  0  0
  190.7990  177.6610  142.2550 C   0  0  0  0  0  2  0  0  0  0  0  0
  190.6160  176.6310  141.3280 O   0  0  0  0  0  0  0  0  0  0  0  0
  190.7710  176.2580  138.9720 C   0  0  0  0  0  2  0  0  0  0  0  0
  189.2990  177.6020  137.4530 C   0  0  0  0  0  2  0  0  0  0  0  0
  189.0670  178.6140  138.5730 C   0  0  0  0  0  2  0  0  0  0  0  0
  190.6690  176.9440  137.6110 C   0  0  0  0  0  2  0  0  0  0  0  0
  190.5410  177.2740  140.0900 C   0  0  0  0  0  3  0  0  0  0  0  0
  189.1690  177.9260  139.9330 C   0  0  0  0  0  2  0  0  0  0  0  0
  191.3440  176.0430  145.8380 C   0  0  0  0  0  2  0  0  0  0  0  0
  192.3010  175.6880  146.9590 C   0  0  0  0  0  2  0  0  0  0  0  0
  192.3750  176.7510  147.8580 O   0  0  0  0  0  1  0  0  0  0  0  0
  1 27  1  6  0  0  0
  3  5  1  0  0  0  0
  3  7  1  6  0  0  0
  4  2  2  0  0  0  0
  4  5  1  0  0  0  0
  5  9  1  6  0  0  0
  6  8  1  0  0  0  0
  8  1  1  1  0  0  0
  8  3  1  0  0  0  0
 10 12  1  6  0  0  0
 10  6  1  0  0  0  0
 10  4  1  0  0  0  0
 12 11  1  6  0  0  0
 13 12  1  0  0  0  0
 15 13  1  0  0  0  0
 15 14  1  0  0  0  0
 16 17  1  6  0  0  0
 16  1  1  0  0  0  0
 18 16  1  0  0  0  0
 19 18  1  0  0  0  0
 20 19  1  0  0  0  0
 21 25  1  0  0  0  0
 22 24  1  0  0  0  0
 22 23  1  0  0  0  0
 23 26  1  0  0  0  0
 24 21  1  0  0  0  0
 25 20  1  0  0  0  0
 26 25  1  0  0  0  0
 27 28  1  0  0  0  0
 28 29  1  0  0  0  0
M  END
>  <MODEL>
2

>  <REMARK>
 VINA RESULT:      -7.0      3.023      7.476
  Name = 
  11 active torsions:
  status: ('A' for Active; 'I' for Inactive)
    1  A    between atoms: C_3  and  C_7
    2  A    between atoms: C_3  and  C_12
    3  A    between atoms: C_7  and  O_22
    4  A    between atoms: C_9  and  C_26
    5  A    between atoms: C_10  and  C_23
    6  A    between atoms: C_12  and  C_29
    7  A    between atoms: C_20  and  C_29
    8  A    between atoms: C_21  and  O_22
    9  A    between atoms: C_23  and  C_27
   10  A    between atoms: C_25  and  C_27
   11  A    between atoms: C_26  and  C_29
                            x       y       z     vdW  Elec       q    Type
                         _______ _______ _______ _____ _____    ______ ____

>  <TORSDO>
F 11

$$$$
=
 OpenBabel11062416213D

 29 30  0  0  1  0  0  0  0  0999 V2000
  189.4660  177.1700  141.2320 C   0  0  2  0  0  3  0  0  0  0  0  0
  189.8240  177.2570  135.7820 O   0  0  0  0  0  0  0  0  0  0  0  0
  188.4900  178.0220  139.0340 C   0  0  1  0  0  3  0  0  0  0  0  0
  189.8230  177.4570  136.9870 C   0  0  0  0  0  0  0  0  0  0  0  0
  188.8270  178.4080  137.5890 C   0  0  2  0  0  3  0  0  0  0  0  0
  190.2330  176.3660  139.0750 O   0  0  0  0  0  0  0  0  0  0  0  0
  187.4890  177.0480  139.0350 O   0  0  0  0  0  1  0  0  0  0  0  0
  189.7460  177.4980  139.7570 C   0  0  2  0  0  3  0  0  0  0  0  0
  189.3390  179.6920  137.5570 F   0  0  0  0  0  0  0  0  0  0  0  0
  190.8610  176.8330  137.9030 C   0  0  1  0  0  3  0  0  0  0  0  0
  191.4770  174.5130  137.9610 O   0  0  0  0  0  1  0  0  0  0  0  0
  191.6430  175.6980  137.2360 C   0  0  2  0  0  3  0  0  0  0  0  0
  193.1250  176.0510  137.1760 C   0  0  0  0  0  2  0  0  0  0  0  0
  195.1680  174.6600  136.8160 C   0  0  0  0  0  1  0  0  0  0  0  0
  193.9810  174.9200  137.7230 C   0  0  0  0  0  2  0  0  0  0  0  0
  188.7360  178.3290  141.9190 C   0  0  2  0  0  3  0  0  0  0  0  0
  189.5290  178.8930  142.9240 O   0  0  0  0  0  1  0  0  0  0  0  0
  187.4010  177.8630  142.4890 C   0  0  0  0  0  2  0  0  0  0  0  0
  187.5910  177.1670  143.8270 C   0  0  0  0  0  2  0  0  0  0  0  0
  186.7740  177.7550  144.7950 O   0  0  0  0  0  0  0  0  0  0  0  0
  188.8700  177.2940  145.8490 C   0  0  0  0  0  2  0  0  0  0  0  0
  189.1790  177.9800  148.2390 C   0  0  0  0  0  2  0  0  0  0  0  0
  187.6640  178.0900  148.4030 C   0  0  0  0  0  2  0  0  0  0  0  0
  189.5210  176.9310  147.1820 C   0  0  0  0  0  2  0  0  0  0  0  0
  187.3550  177.4010  146.0150 C   0  0  0  0  0  3  0  0  0  0  0  0
  187.0160  178.4550  147.0690 C   0  0  0  0  0  2  0  0  0  0  0  0
  190.7570  176.8220  141.9750 C   0  0  0  0  0  2  0  0  0  0  0  0
  190.5290  175.6520  142.9120 C   0  0  0  0  0  2  0  0  0  0  0  0
  191.5920  175.5630  143.8090 O   0  0  0  0  0  1  0  0  0  0  0  0
  1 16  1  0  0  0  0
  1 27  1  1  0  0  0
  2  4  2  0  0  0  0
  3  7  1  6  0  0  0
  3  8  1  0  0  0  0
  4  5  1  0  0  0  0
  4 10  1  0  0  0  0
  5  9  1  1  0  0  0
  5  3  1  0  0  0  0
  6  8  1  0  0  0  0
  8  1  1  1  0  0  0
 10 12  1  6  0  0  0
 10  6  1  0  0  0  0
 12 11  1  1  0  0  0
 13 12  1  0  0  0  0
 13 15  1  0  0  0  0
 14 15  1  0  0  0  0
 16 18  1  0  0  0  0
 16 17  1  1  0  0  0
 18 19  1  0  0  0  0
 19 20  1  0  0  0  0
 20 25  1  0  0  0  0
 21 25  1  0  0  0  0
 21 24  1  0  0  0  0
 22 23  1  0  0  0  0
 24 22  1  0  0  0  0
 25 26  1  0  0  0  0
 26 23  1  0  0  0  0
 27 28  1  0  0  0  0
 28 29  1  0  0  0  0
M  END
>  <MODEL>
3

>  <REMARK>
 VINA RESULT:      -6.7      2.085      4.131
  Name = 
  11 active torsions:
  status: ('A' for Active; 'I' for Inactive)
    1  A    between atoms: C_3  and  C_7
    2  A    between atoms: C_3  and  C_12
    3  A    between atoms: C_7  and  O_22
    4  A    between atoms: C_9  and  C_26
    5  A    between atoms: C_10  and  C_23
    6  A    between atoms: C_12  and  C_29
    7  A    between atoms: C_20  and  C_29
    8  A    between atoms: C_21  and  O_22
    9  A    between atoms: C_23  and  C_27
   10  A    between atoms: C_25  and  C_27
   11  A    between atoms: C_26  and  C_29
                            x       y       z     vdW  Elec       q    Type
                         _______ _______ _______ _____ _____    ______ ____

>  <TORSDO>
F 11

$$$$
=
 OpenBabel11062416213D

 29 30  0  0  1  0  0  0  0  0999 V2000
  189.4000  176.8710  139.2930 C   0  0  2  0  0  3  0  0  0  0  0  0
  184.7610  179.7330  138.9420 O   0  0  0  0  0  0  0  0  0  0  0  0
  187.7280  178.0640  137.7800 C   0  0  1  0  0  3  0  0  0  0  0  0
  185.6710  178.9180  138.9310 C   0  0  0  0  0  0  0  0  0  0  0  0
  186.2570  178.4650  137.6230 C   0  0  2  0  0  3  0  0  0  0  0  0
  187.5940  178.2300  140.1750 O   0  0  0  0  0  0  0  0  0  0  0  0
  188.5330  179.2020  137.6910 O   0  0  0  0  0  1  0  0  0  0  0  0
  187.9510  177.3550  139.1300 C   0  0  2  0  0  3  0  0  0  0  0  0
  185.5300  177.3920  137.1400 F   0  0  0  0  0  0  0  0  0  0  0  0
  186.1860  178.2740  140.2070 C   0  0  1  0  0  3  0  0  0  0  0  0
  186.8080  179.3360  142.2690 O   0  0  0  0  0  1  0  0  0  0  0  0
  185.7100  178.9920  141.4730 C   0  0  2  0  0  3  0  0  0  0  0  0
  184.7750  178.0860  142.2660 C   0  0  0  0  0  2  0  0  0  0  0  0
  183.7210  178.9070  144.3760 C   0  0  0  0  0  1  0  0  0  0  0  0
  183.6220  178.8760  142.8630 C   0  0  0  0  0  2  0  0  0  0  0  0
  190.0390  177.4790  140.5460 C   0  0  2  0  0  3  0  0  0  0  0  0
  191.3870  177.7840  140.3220 O   0  0  0  0  0  1  0  0  0  0  0  0
  189.8950  176.5380  141.7370 C   0  0  0  0  0  2  0  0  0  0  0  0
  189.5830  177.3110  143.0080 C   0  0  0  0  0  2  0  0  0  0  0  0
  188.5680  176.6710  143.7230 O   0  0  0  0  0  0  0  0  0  0  0  0
  186.9090  177.3390  145.3100 C   0  0  0  0  0  2  0  0  0  0  0  0
  187.6270  177.7830  147.6690 C   0  0  0  0  0  2  0  0  0  0  0  0
  189.0760  177.9150  147.2040 C   0  0  0  0  0  2  0  0  0  0  0  0
  186.6730  178.1980  146.5510 C   0  0  0  0  0  2  0  0  0  0  0  0
  188.3580  177.4760  144.8450 C   0  0  0  0  0  3  0  0  0  0  0  0
  189.3100  177.0550  145.9640 C   0  0  0  0  0  2  0  0  0  0  0  0
  190.2320  177.1860  138.0490 C   0  0  0  0  0  2  0  0  0  0  0  0
  190.6530  175.9050  137.3560 C   0  0  0  0  0  2  0  0  0  0  0  0
  190.9480  174.9350  138.3130 O   0  0  0  0  0  1  0  0  0  0  0  0
  1 27  1  6  0  0  0
  1 16  1  0  0  0  0
  3  7  1  1  0  0  0
  3  8  1  0  0  0  0
  4  2  2  0  0  0  0
  4 10  1  0  0  0  0
  5  9  1  1  0  0  0
  5  3  1  0  0  0  0
  5  4  1  0  0  0  0
  6 10  1  0  0  0  0
  8  1  1  1  0  0  0
  8  6  1  0  0  0  0
 10 12  1  1  0  0  0
 12 13  1  0  0  0  0
 12 11  1  1  0  0  0
 13 15  1  0  0  0  0
 15 14  1  0  0  0  0
 16 17  1  6  0  0  0
 16 18  1  0  0  0  0
 18 19  1  0  0  0  0
 19 20  1  0  0  0  0
 20 25  1  0  0  0  0
 21 24  1  0  0  0  0
 23 22  1  0  0  0  0
 24 22  1  0  0  0  0
 25 21  1  0  0  0  0
 25 26  1  0  0  0  0
 26 23  1  0  0  0  0
 28 27  1  0  0  0  0
 28 29  1  0  0  0  0
M  END
>  <MODEL>
4

>  <REMARK>
 VINA RESULT:      -6.5      2.115      4.433
  Name = 
  11 active torsions:
  status: ('A' for Active; 'I' for Inactive)
    1  A    between atoms: C_3  and  C_7
    2  A    between atoms: C_3  and  C_12
    3  A    between atoms: C_7  and  O_22
    4  A    between atoms: C_9  and  C_26
    5  A    between atoms: C_10  and  C_23
    6  A    between atoms: C_12  and  C_29
    7  A    between atoms: C_20  and  C_29
    8  A    between atoms: C_21  and  O_22
    9  A    between atoms: C_23  and  C_27
   10  A    between atoms: C_25  and  C_27
   11  A    between atoms: C_26  and  C_29
                            x       y       z     vdW  Elec       q    Type
                         _______ _______ _______ _____ _____    ______ ____

>  <TORSDO>
F 11

$$$$
=
 OpenBabel11062416213D

 29 30  0  0  1  0  0  0  0  0999 V2000
  188.1690  178.4450  140.6990 C   0  0  2  0  0  3  0  0  0  0  0  0
  187.3740  177.6530  135.3530 O   0  0  0  0  0  0  0  0  0  0  0  0
  189.1900  178.4240  138.3600 C   0  0  1  0  0  3  0  0  0  0  0  0
  187.6640  177.6250  136.5400 C   0  0  0  0  0  0  0  0  0  0  0  0
  189.0950  177.7940  136.9660 C   0  0  2  0  0  3  0  0  0  0  0  0
  186.8180  178.2170  138.6960 O   0  0  0  0  0  0  0  0  0  0  0  0
  189.1090  179.8140  138.2500 O   0  0  0  0  0  1  0  0  0  0  0  0
  188.0640  177.8930  139.2690 C   0  0  2  0  0  3  0  0  0  0  0  0
  189.7240  176.5620  136.9680 F   0  0  0  0  0  0  0  0  0  0  0  0
  186.6260  177.3390  137.6110 C   0  0  1  0  0  3  0  0  0  0  0  0
  184.4050  178.1610  138.0070 O   0  0  0  0  0  1  0  0  0  0  0  0
  185.1880  177.4460  137.0950 C   0  0  2  0  0  3  0  0  0  0  0  0
  184.5980  176.0540  136.9040 C   0  0  0  0  0  2  0  0  0  0  0  0
  182.7240  176.5660  135.3340 C   0  0  0  0  0  1  0  0  0  0  0  0
  184.0640  175.8730  135.4930 C   0  0  0  0  0  2  0  0  0  0  0  0
  189.4280  177.9180  141.3950 C   0  0  2  0  0  3  0  0  0  0  0  0
  189.5450  176.5320  141.2360 O   0  0  0  0  0  1  0  0  0  0  0  0
  189.4220  178.2880  142.8740 C   0  0  0  0  0  2  0  0  0  0  0  0
  189.6620  177.0650  143.7440 C   0  0  0  0  0  2  0  0  0  0  0  0
  188.4730  176.6780  144.3680 O   0  0  0  0  0  0  0  0  0  0  0  0
  186.9270  177.5040  145.9940 C   0  0  0  0  0  2  0  0  0  0  0  0
  187.7530  177.9150  148.3230 C   0  0  0  0  0  2  0  0  0  0  0  0
  189.1930  177.9190  147.8130 C   0  0  0  0  0  2  0  0  0  0  0  0
  186.8030  178.3950  147.2280 C   0  0  0  0  0  2  0  0  0  0  0  0
  188.3670  177.5130  145.4830 C   0  0  0  0  0  3  0  0  0  0  0  0
  189.3150  177.0270  146.5790 C   0  0  0  0  0  2  0  0  0  0  0  0
  186.9180  178.1130  141.5120 C   0  0  0  0  0  2  0  0  0  0  0  0
  186.1520  179.3790  141.8440 C   0  0  0  0  0  2  0  0  0  0  0  0
  184.9990  179.4420  141.0630 O   0  0  0  0  0  1  0  0  0  0  0  0
  1 16  1  0  0  0  0
  1 27  1  1  0  0  0
  2  4  2  0  0  0  0
  3  7  1  6  0  0  0
  3  8  1  0  0  0  0
  4  5  1  0  0  0  0
  4 10  1  0  0  0  0
  5  9  1  1  0  0  0
  5  3  1  0  0  0  0
  6  8  1  0  0  0  0
  8  1  1  1  0  0  0
 10 12  1  6  0  0  0
 10  6  1  0  0  0  0
 12 11  1  1  0  0  0
 13 12  1  0  0  0  0
 14 15  1  0  0  0  0
 15 13  1  0  0  0  0
 16 17  1  1  0  0  0
 16 18  1  0  0  0  0
 18 19  1  0  0  0  0
 19 20  1  0  0  0  0
 20 25  1  0  0  0  0
 21 24  1  0  0  0  0
 23 22  1  0  0  0  0
 24 22  1  0  0  0  0
 25 21  1  0  0  0  0
 25 26  1  0  0  0  0
 26 23  1  0  0  0  0
 27 28  1  0  0  0  0
 29 28  1  0  0  0  0
M  END
>  <MODEL>
5

>  <REMARK>
 VINA RESULT:      -6.4      1.698      2.706
  Name = 
  11 active torsions:
  status: ('A' for Active; 'I' for Inactive)
    1  A    between atoms: C_3  and  C_7
    2  A    between atoms: C_3  and  C_12
    3  A    between atoms: C_7  and  O_22
    4  A    between atoms: C_9  and  C_26
    5  A    between atoms: C_10  and  C_23
    6  A    between atoms: C_12  and  C_29
    7  A    between atoms: C_20  and  C_29
    8  A    between atoms: C_21  and  O_22
    9  A    between atoms: C_23  and  C_27
   10  A    between atoms: C_25  and  C_27
   11  A    between atoms: C_26  and  C_29
                            x       y       z     vdW  Elec       q    Type
                         _______ _______ _______ _____ _____    ______ ____

>  <TORSDO>
F 11

$$$$
=
 OpenBabel11062416213D

 29 30  0  0  1  0  0  0  0  0999 V2000
  184.7910  178.0540  142.5680 C   0  0  2  0  0  3  0  0  0  0  0  0
  181.6230  178.8790  138.1950 O   0  0  0  0  0  0  0  0  0  0  0  0
  184.6720  178.4060  140.0430 C   0  0  1  0  0  3  0  0  0  0  0  0
  182.3570  178.4780  139.0860 C   0  0  0  0  0  0  0  0  0  0  0  0
  183.8050  178.1980  138.7970 C   0  0  2  0  0  3  0  0  0  0  0  0
  182.7330  178.6690  141.4400 O   0  0  0  0  0  0  0  0  0  0  0  0
  185.0070  179.7570  140.1580 O   0  0  0  0  0  1  0  0  0  0  0  0
  183.9250  177.9310  141.3050 C   0  0  2  0  0  3  0  0  0  0  0  0
  183.9410  176.8970  138.3460 F   0  0  0  0  0  0  0  0  0  0  0  0
  181.8320  178.1700  140.4780 C   0  0  1  0  0  3  0  0  0  0  0  0
  180.5090  180.1010  141.0170 O   0  0  0  0  0  1  0  0  0  0  0  0
  180.4300  178.7340  140.7270 C   0  0  2  0  0  3  0  0  0  0  0  0
  179.7760  178.0070  141.8960 C   0  0  0  0  0  2  0  0  0  0  0  0
  180.3440  178.5810  144.2600 C   0  0  0  0  0  1  0  0  0  0  0  0
  179.5070  178.9560  143.0520 C   0  0  0  0  0  2  0  0  0  0  0  0
  184.0840  178.8980  143.6330 C   0  0  2  0  0  3  0  0  0  0  0  0
  184.5670  180.2110  143.6330 O   0  0  0  0  0  1  0  0  0  0  0  0
  184.2420  178.2700  145.0130 C   0  0  0  0  0  2  0  0  0  0  0  0
  185.2850  179.0120  145.8340 C   0  0  0  0  0  2  0  0  0  0  0  0
  185.6650  178.2420  146.9370 O   0  0  0  0  0  0  0  0  0  0  0  0
  187.5350  177.9470  148.3970 C   0  0  0  0  0  2  0  0  0  0  0  0
  189.7290  177.2600  147.4000 C   0  0  0  0  0  2  0  0  0  0  0  0
  189.2420  177.7040  146.0220 C   0  0  0  0  0  2  0  0  0  0  0  0
  189.0530  178.0880  148.4920 C   0  0  0  0  0  2  0  0  0  0  0  0
  187.0510  178.3960  147.0190 C   0  0  0  0  0  3  0  0  0  0  0  0
  187.7240  177.5620  145.9290 C   0  0  0  0  0  2  0  0  0  0  0  0
  186.1680  178.6330  142.2400 C   0  0  0  0  0  2  0  0  0  0  0  0
  187.2540  177.6190  142.5410 C   0  0  0  0  0  2  0  0  0  0  0  0
  188.5030  178.2100  142.3590 O   0  0  0  0  0  1  0  0  0  0  0  0
  1 27  1  6  0  0  0
  1 16  1  0  0  0  0
  2  4  2  0  0  0  0
  3  7  1  1  0  0  0
  3  8  1  0  0  0  0
  4 10  1  0  0  0  0
  5  9  1  1  0  0  0
  5  4  1  0  0  0  0
  5  3  1  0  0  0  0
  8  6  1  0  0  0  0
  8  1  1  1  0  0  0
 10 12  1  1  0  0  0
 10  6  1  0  0  0  0
 12 11  1  1  0  0  0
 12 13  1  0  0  0  0
 13 15  1  0  0  0  0
 15 14  1  0  0  0  0
 16 17  1  1  0  0  0
 16 18  1  0  0  0  0
 18 19  1  0  0  0  0
 19 20  1  0  0  0  0
 20 25  1  0  0  0  0
 21 24  1  0  0  0  0
 22 24  1  0  0  0  0
 23 22  1  0  0  0  0
 25 21  1  0  0  0  0
 26 23  1  0  0  0  0
 26 25  1  0  0  0  0
 27 28  1  0  0  0  0
 29 28  1  0  0  0  0
M  END
>  <MODEL>
6

>  <REMARK>
 VINA RESULT:      -6.4      4.165      6.454
  Name = 
  11 active torsions:
  status: ('A' for Active; 'I' for Inactive)
    1  A    between atoms: C_3  and  C_7
    2  A    between atoms: C_3  and  C_12
    3  A    between atoms: C_7  and  O_22
    4  A    between atoms: C_9  and  C_26
    5  A    between atoms: C_10  and  C_23
    6  A    between atoms: C_12  and  C_29
    7  A    between atoms: C_20  and  C_29
    8  A    between atoms: C_21  and  O_22
    9  A    between atoms: C_23  and  C_27
   10  A    between atoms: C_25  and  C_27
   11  A    between atoms: C_26  and  C_29
                            x       y       z     vdW  Elec       q    Type
                         _______ _______ _______ _____ _____    ______ ____

>  <TORSDO>
F 11

$$$$
=
 OpenBabel11062416213D

 29 30  0  0  1  0  0  0  0  0999 V2000
  184.9190  178.6780  142.2300 C   0  0  2  0  0  3  0  0  0  0  0  0
  181.6480  178.3630  137.8670 O   0  0  0  0  0  0  0  0  0  0  0  0
  184.7440  178.5600  139.6870 C   0  0  1  0  0  3  0  0  0  0  0  0
  182.4280  178.2090  138.7950 C   0  0  0  0  0  0  0  0  0  0  0  0
  183.8960  178.0410  138.5210 C   0  0  2  0  0  3  0  0  0  0  0  0
  182.7970  178.8560  141.0670 O   0  0  0  0  0  0  0  0  0  0  0  0
  184.9270  179.9380  139.5530 O   0  0  0  0  0  1  0  0  0  0  0  0
  184.0630  178.2390  141.0320 C   0  0  2  0  0  3  0  0  0  0  0  0
  184.1720  176.7030  138.3030 F   0  0  0  0  0  0  0  0  0  0  0  0
  181.9500  178.1000  140.2330 C   0  0  1  0  0  3  0  0  0  0  0  0
  180.4420  179.9250  140.6330 O   0  0  0  0  0  1  0  0  0  0  0  0
  180.4970  178.5440  140.4160 C   0  0  2  0  0  3  0  0  0  0  0  0
  179.8770  177.8200  141.6060 C   0  0  0  0  0  2  0  0  0  0  0  0
  180.2110  178.2470  144.0450 C   0  0  0  0  0  1  0  0  0  0  0  0
  179.6150  178.7790  142.7560 C   0  0  0  0  0  2  0  0  0  0  0  0
  186.1800  177.8150  142.3450 C   0  0  2  0  0  3  0  0  0  0  0  0
  186.2930  177.2630  143.6250 O   0  0  0  0  0  1  0  0  0  0  0  0
  187.4230  178.6270  142.0000 C   0  0  0  0  0  2  0  0  0  0  0  0
  188.6880  177.8220  142.2520 C   0  0  0  0  0  2  0  0  0  0  0  0
  189.5040  178.4840  143.1730 O   0  0  0  0  0  0  0  0  0  0  0  0
  191.3220  177.4580  144.3390 C   0  0  0  0  0  2  0  0  0  0  0  0
  190.9750  176.7750  146.7240 C   0  0  0  0  0  2  0  0  0  0  0  0
  189.4620  176.8420  146.5240 C   0  0  0  0  0  2  0  0  0  0  0  0
  191.6670  176.4240  145.4080 C   0  0  0  0  0  2  0  0  0  0  0  0
  189.8080  177.5210  144.1380 C   0  0  0  0  0  3  0  0  0  0  0  0
  189.1190  177.8770  145.4540 C   0  0  0  0  0  2  0  0  0  0  0  0
  184.1130  178.6400  143.5290 C   0  0  0  0  0  2  0  0  0  0  0  0
  184.4850  179.8110  144.4170 C   0  0  0  0  0  2  0  0  0  0  0  0
  184.6690  179.3630  145.7240 O   0  0  0  0  0  1  0  0  0  0  0  0
  1 16  1  0  0  0  0
  1 27  1  1  0  0  0
  2  4  2  0  0  0  0
  3  7  1  6  0  0  0
  3  8  1  0  0  0  0
  4 10  1  0  0  0  0
  5  9  1  1  0  0  0
  5  4  1  0  0  0  0
  5  3  1  0  0  0  0
  8  6  1  0  0  0  0
  8  1  1  1  0  0  0
 10 12  1  6  0  0  0
 10  6  1  0  0  0  0
 12 11  1  1  0  0  0
 12 13  1  0  0  0  0
 13 15  1  0  0  0  0
 15 14  1  0  0  0  0
 16 17  1  1  0  0  0
 18 19  1  0  0  0  0
 18 16  1  0  0  0  0
 19 20  1  0  0  0  0
 20 25  1  0  0  0  0
 21 24  1  0  0  0  0
 23 22  1  0  0  0  0
 24 22  1  0  0  0  0
 25 21  1  0  0  0  0
 25 26  1  0  0  0  0
 26 23  1  0  0  0  0
 27 28  1  0  0  0  0
 28 29  1  0  0  0  0
M  END
>  <MODEL>
7

>  <REMARK>
 VINA RESULT:      -6.3      4.120      6.268
  Name = 
  11 active torsions:
  status: ('A' for Active; 'I' for Inactive)
    1  A    between atoms: C_3  and  C_7
    2  A    between atoms: C_3  and  C_12
    3  A    between atoms: C_7  and  O_22
    4  A    between atoms: C_9  and  C_26
    5  A    between atoms: C_10  and  C_23
    6  A    between atoms: C_12  and  C_29
    7  A    between atoms: C_20  and  C_29
    8  A    between atoms: C_21  and  O_22
    9  A    between atoms: C_23  and  C_27
   10  A    between atoms: C_25  and  C_27
   11  A    between atoms: C_26  and  C_29
                            x       y       z     vdW  Elec       q    Type
                         _______ _______ _______ _____ _____    ______ ____

>  <TORSDO>
F 11

$$$$
=
 OpenBabel11062416213D

 29 30  0  0  1  0  0  0  0  0999 V2000
  187.2800  177.4490  143.3080 C   0  0  2  0  0  3  0  0  0  0  0  0
  192.0530  176.3800  145.7400 O   0  0  0  0  0  0  0  0  0  0  0  0
  189.6940  176.6670  143.0400 C   0  0  1  0  0  3  0  0  0  0  0  0
  191.0960  176.8090  145.1130 C   0  0  0  0  0  0  0  0  0  0  0  0
  191.1120  176.7850  143.6100 C   0  0  2  0  0  3  0  0  0  0  0  0
  188.7130  176.9910  145.2110 O   0  0  0  0  0  0  0  0  0  0  0  0
  189.3150  175.3230  143.0080 O   0  0  0  0  0  1  0  0  0  0  0  0
  188.7020  177.4820  143.8910 C   0  0  2  0  0  3  0  0  0  0  0  0
  191.7090  177.9410  143.1390 F   0  0  0  0  0  0  0  0  0  0  0  0
  189.9060  177.4490  145.8070 C   0  0  1  0  0  3  0  0  0  0  0  0
  189.1780  175.9990  147.5770 O   0  0  0  0  0  1  0  0  0  0  0  0
  189.8770  177.1820  147.3140 C   0  0  2  0  0  3  0  0  0  0  0  0
  189.1990  178.3410  148.0360 C   0  0  0  0  0  2  0  0  0  0  0  0
  186.7400  178.6390  147.7160 C   0  0  0  0  0  1  0  0  0  0  0  0
  187.8170  177.9470  148.5290 C   0  0  0  0  0  2  0  0  0  0  0  0
  187.1140  178.5120  142.2170 C   0  0  2  0  0  3  0  0  0  0  0  0
  186.0120  178.2260  141.4040 O   0  0  0  0  0  1  0  0  0  0  0  0
  188.3820  178.6270  141.3780 C   0  0  0  0  0  2  0  0  0  0  0  0
  188.1130  178.2560  139.9280 C   0  0  0  0  0  2  0  0  0  0  0  0
  188.9330  179.0050  139.0800 O   0  0  0  0  0  0  0  0  0  0  0  0
  189.7610  177.4390  137.4740 C   0  0  0  0  0  2  0  0  0  0  0  0
  188.1100  176.2170  136.0400 C   0  0  0  0  0  2  0  0  0  0  0  0
  187.0460  177.2600  136.3740 C   0  0  0  0  0  2  0  0  0  0  0  0
  189.5010  176.8450  136.0910 C   0  0  0  0  0  2  0  0  0  0  0  0
  188.6970  178.4850  137.8050 C   0  0  0  0  0  3  0  0  0  0  0  0
  187.3070  177.8520  137.7580 C   0  0  0  0  0  2  0  0  0  0  0  0
  186.2290  177.6250  144.4040 C   0  0  0  0  0  2  0  0  0  0  0  0
  185.3770  178.8490  144.1280 C   0  0  0  0  0  2  0  0  0  0  0  0
  184.1320  178.6940  144.7350 O   0  0  0  0  0  1  0  0  0  0  0  0
  1 27  1  1  0  0  0
  3  7  1  1  0  0  0
  3  5  1  0  0  0  0
  3  8  1  0  0  0  0
  4  2  2  0  0  0  0
  4 10  1  0  0  0  0
  5  9  1  6  0  0  0
  5  4  1  0  0  0  0
  6 10  1  0  0  0  0
  8  1  1  6  0  0  0
  8  6  1  0  0  0  0
 10 12  1  1  0  0  0
 12 11  1  6  0  0  0
 12 13  1  0  0  0  0
 13 15  1  0  0  0  0
 14 15  1  0  0  0  0
 16 17  1  6  0  0  0
 16  1  1  0  0  0  0
 18 16  1  0  0  0  0
 19 18  1  0  0  0  0
 20 19  1  0  0  0  0
 21 25  1  0  0  0  0
 22 24  1  0  0  0  0
 22 23  1  0  0  0  0
 23 26  1  0  0  0  0
 24 21  1  0  0  0  0
 25 20  1  0  0  0  0
 26 25  1  0  0  0  0
 28 27  1  0  0  0  0
 28 29  1  0  0  0  0
M  END
>  <MODEL>
8

>  <REMARK>
 VINA RESULT:      -6.3      2.011      7.873
  Name = 
  11 active torsions:
  status: ('A' for Active; 'I' for Inactive)
    1  A    between atoms: C_3  and  C_7
    2  A    between atoms: C_3  and  C_12
    3  A    between atoms: C_7  and  O_22
    4  A    between atoms: C_9  and  C_26
    5  A    between atoms: C_10  and  C_23
    6  A    between atoms: C_12  and  C_29
    7  A    between atoms: C_20  and  C_29
    8  A    between atoms: C_21  and  O_22
    9  A    between atoms: C_23  and  C_27
   10  A    between atoms: C_25  and  C_27
   11  A    between atoms: C_26  and  C_29
                            x       y       z     vdW  Elec       q    Type
                         _______ _______ _______ _____ _____    ______ ____

>  <TORSDO>
F 11

$$$$
=
 OpenBabel11062416213D

 29 30  0  0  1  0  0  0  0  0999 V2000
  188.0790  177.0730  137.8520 C   0  0  2  0  0  3  0  0  0  0  0  0
  182.7900  177.8990  136.7660 O   0  0  0  0  0  0  0  0  0  0  0  0
  186.1990  176.9410  136.1320 C   0  0  1  0  0  3  0  0  0  0  0  0
  183.9150  177.4870  137.0090 C   0  0  0  0  0  0  0  0  0  0  0  0
  184.6890  176.7510  135.9510 C   0  0  2  0  0  3  0  0  0  0  0  0
  185.8830  178.0200  138.2580 O   0  0  0  0  0  0  0  0  0  0  0  0
  186.5950  178.1340  135.5230 O   0  0  0  0  0  1  0  0  0  0  0  0
  186.5630  176.9580  137.6300 C   0  0  2  0  0  3  0  0  0  0  0  0
  184.3780  175.4040  136.0070 F   0  0  0  0  0  0  0  0  0  0  0  0
  184.5370  177.6230  138.3880 C   0  0  1  0  0  3  0  0  0  0  0  0
  184.5600  179.7470  139.5080 O   0  0  0  0  0  1  0  0  0  0  0  0
  183.7830  178.6040  139.2900 C   0  0  2  0  0  3  0  0  0  0  0  0
  183.4680  177.9440  140.6280 C   0  0  0  0  0  2  0  0  0  0  0  0
  183.9150  178.7660  142.9440 C   0  0  0  0  0  1  0  0  0  0  0  0
  184.5400  178.2560  141.6590 C   0  0  0  0  0  2  0  0  0  0  0  0
  188.4390  178.4300  138.4670 C   0  0  2  0  0  3  0  0  0  0  0  0
  189.1540  179.2170  137.5580 O   0  0  0  0  0  1  0  0  0  0  0  0
  189.2330  178.2450  139.7550 C   0  0  0  0  0  2  0  0  0  0  0  0
  188.3060  178.0980  140.9510 C   0  0  0  0  0  2  0  0  0  0  0  0
  188.8040  177.1320  141.8300 O   0  0  0  0  0  0  0  0  0  0  0  0
  187.3720  177.1440  143.7440 C   0  0  0  0  0  2  0  0  0  0  0  0
  188.4130  177.3930  146.0100 C   0  0  0  0  0  2  0  0  0  0  0  0
  189.6880  177.9340  145.3650 C   0  0  0  0  0  2  0  0  0  0  0  0
  187.2000  177.7290  145.1450 C   0  0  0  0  0  2  0  0  0  0  0  0
  188.6460  177.6900  143.1010 C   0  0  0  0  0  3  0  0  0  0  0  0
  189.8590  177.3480  143.9650 C   0  0  0  0  0  2  0  0  0  0  0  0
  188.8480  176.8440  136.5500 C   0  0  0  0  0  2  0  0  0  0  0  0
  189.6570  175.5650  136.6320 C   0  0  0  0  0  2  0  0  0  0  0  0
  189.9600  175.2920  137.9650 O   0  0  0  0  0  1  0  0  0  0  0  0
  1 27  1  6  0  0  0
  1 16  1  0  0  0  0
  2  4  2  0  0  0  0
  3  7  1  1  0  0  0
  3  8  1  0  0  0  0
  4 10  1  0  0  0  0
  5  9  1  1  0  0  0
  5  3  1  0  0  0  0
  5  4  1  0  0  0  0
  6 10  1  0  0  0  0
  8  1  1  6  0  0  0
  8  6  1  0  0  0  0
 10 12  1  1  0  0  0
 12 11  1  1  0  0  0
 12 13  1  0  0  0  0
 13 15  1  0  0  0  0
 15 14  1  0  0  0  0
 16 17  1  6  0  0  0
 16 18  1  0  0  0  0
 18 19  1  0  0  0  0
 19 20  1  0  0  0  0
 20 25  1  0  0  0  0
 21 24  1  0  0  0  0
 23 22  1  0  0  0  0
 24 22  1  0  0  0  0
 25 21  1  0  0  0  0
 25 26  1  0  0  0  0
 26 23  1  0  0  0  0
 27 28  1  0  0  0  0
 28 29  1  0  0  0  0
M  END
>  <MODEL>
9

>  <REMARK>
 VINA RESULT:      -6.2      2.539      5.192
  Name = 
  11 active torsions:
  status: ('A' for Active; 'I' for Inactive)
    1  A    between atoms: C_3  and  C_7
    2  A    between atoms: C_3  and  C_12
    3  A    between atoms: C_7  and  O_22
    4  A    between atoms: C_9  and  C_26
    5  A    between atoms: C_10  and  C_23
    6  A    between atoms: C_12  and  C_29
    7  A    between atoms: C_20  and  C_29
    8  A    between atoms: C_21  and  O_22
    9  A    between atoms: C_23  and  C_27
   10  A    between atoms: C_25  and  C_27
   11  A    between atoms: C_26  and  C_29
                            x       y       z     vdW  Elec       q    Type
                         _______ _______ _______ _____ _____    ______ ____

>  <TORSDO>
F 11

$$$$
