=
 OpenBabel11062414543D

 51 56  0  0  1  0  0  0  0  0999 V2000
  187.2520  177.0160  135.9020 N   0  0  0  0  0  0  0  0  0  0  0  0
  184.3060  176.4450  136.8720 N   0  0  1  0  0  0  0  0  0  0  0  0
  185.3320  175.4550  136.5210 C   0  0  1  0  0  3  0  0  0  0  0  0
  183.7810  177.7530  140.1340 O   0  0  0  0  0  0  0  0  0  0  0  0
  185.8860  178.1700  137.6820 C   0  0  0  0  0  2  0  0  0  0  0  0
  184.6440  171.7200  136.3580 C   0  0  0  0  0  2  0  0  0  0  0  0
  183.5730  177.6910  138.7380 C   0  0  1  0  0  0  0  0  0  0  0  0
  183.0860  179.8330  139.3140 C   0  0  0  0  0  3  0  0  0  0  0  0
  182.5160  176.6660  138.3250 C   0  0  1  0  0  3  0  0  0  0  0  0
  183.4300  179.0590  140.5310 C   0  0  0  0  0  2  0  0  0  0  0  0
  184.7960  174.1800  135.8760 C   0  0  2  0  0  3  0  0  0  0  0  0
  183.1180  175.8140  137.3000 N   0  0  0  0  0  2  0  0  0  0  0  0
  184.5150  173.1180  136.9490 C   0  0  0  0  0  2  0  0  0  0  0  0
  186.8630  174.8850  134.7350 C   0  0  0  0  0  2  0  0  0  0  0  0
  186.2290  176.0580  135.4480 C   0  0  2  0  0  3  0  0  0  0  0  0
  187.1670  177.4090  137.3240 C   0  0  2  0  0  3  0  0  0  0  0  0
  183.1640  179.0440  138.2720 C   0  0  0  0  0  3  0  0  0  0  0  0
  187.1540  178.1890  135.0400 C   0  0  0  0  0  1  0  0  0  0  0  0
  186.5430  172.4650  135.1220 C   0  0  0  0  0  3  0  0  0  0  0  0
  185.9760  171.5450  135.8260 N   0  0  0  0  0  0  0  0  0  0  0  0
  185.8440  173.7640  134.8180 C   0  0  1  0  0  3  0  0  0  0  0  0
  184.7990  177.1560  138.0370 C   0  0  1  0  0  3  0  0  0  0  0  0
  182.0260  175.7920  139.4780 C   0  0  0  0  0  2  0  0  0  0  0  0
  179.5470  176.1770  139.8900 N   0  0  0  0  0  2  0  0  0  0  0  0
  180.3000  174.3390  138.6950 O   0  0  0  0  0  0  0  0  0  0  0  0
  180.5920  175.4010  139.3050 C   0  0  0  0  0  0  0  0  0  0  0  0
  179.8060  177.3510  140.7020 C   0  0  0  0  0  2  0  0  0  0  0  0
  179.1200  178.5660  140.1060 C   0  0  0  0  0  2  0  0  0  0  0  0
  179.8020  179.8640  140.5340 C   0  0  2  0  0  3  0  0  0  0  0  0
  180.4480  180.2230  142.8530 N   0  0  0  0  0  1  0  0  0  0  0  0
  179.3370  180.2990  141.9180 C   0  0  0  0  0  2  0  0  0  0  0  0
  179.8640  180.5560  138.2220 O   0  0  0  0  0  1  0  0  0  0  0  0
  179.5370  180.9720  139.5160 C   0  0  0  0  0  2  0  0  0  0  0  0
  188.6480  178.3430  137.8370 S   0  0  0  0  0  0  0  0  0  0  0  0
  189.0410  177.1790  139.1400 C   0  0  0  0  0  3  0  0  0  0  0  0
  190.0830  177.4010  139.9420 C   0  0  0  0  0  3  0  0  0  0  0  0
  190.4370  176.4450  141.0310 C   0  0  0  0  0  2  0  0  0  0  0  0
  190.4900  178.4030  142.3740 O   0  0  0  0  0  0  0  0  0  0  0  0
  190.9710  176.4060  143.4970 N   0  0  0  0  0  2  0  0  0  0  0  0
  190.6340  177.1530  142.3260 C   0  0  0  0  0  0  0  0  0  0  0  0
  191.7840  178.4130  145.0360 O   0  0  0  0  0  0  0  0  0  0  0  0
  191.8630  176.1480  145.9650 O   0  0  0  0  0  0  0  0  0  0  0  0
  191.0790  177.0840  145.0900 S   0  0  0  0  0  0  0  0  0  0  0  0
  187.8760  176.8150  149.0420 F   0  0  0  0  0  0  0  0  0  0  0  0
  187.0830  178.6220  147.1490 S   0  0  0  0  0  0  0  0  0  0  0  0
  187.0800  177.9340  145.4580 C   0  0  2  0  0  3  0  0  0  0  0  0
  188.1360  177.3190  147.8130 C   0  0  0  0  0  0  0  0  0  0  0  0
  189.4590  177.2830  145.7370 C   0  0  0  0  0  0  0  0  0  0  0  0
  186.4530  176.7010  145.4510 F   0  0  0  0  0  0  0  0  0  0  0  0
  189.1940  176.8730  147.1300 C   0  0  0  0  0  3  0  0  0  0  0  0
  188.4920  177.7940  144.9660 C   0  0  0  0  0  3  0  0  0  0  0  0
  1 16  1  0  0  0  0
  2 12  1  1  0  0  0
  2 22  1  0  0  0  0
  3  2  1  0  0  0  0
  4 10  1  0  0  0  0
  5 22  1  0  0  0  0
  6 13  1  0  0  0  0
  7  4  1  0  0  0  0
  8 10  1  0  0  0  0
  9  7  1  0  0  0  0
  9 23  1  0  0  0  0
 11  3  1  0  0  0  0
 11 13  1  0  0  0  0
 12  9  1  0  0  0  0
 14 21  1  0  0  0  0
 14 15  1  0  0  0  0
 15  1  1  0  0  0  0
 15  3  1  0  0  0  0
 16  5  1  0  0  0  0
 16 34  1  0  0  0  0
 17  7  1  0  0  0  0
 17  8  2  0  0  0  0
 18  1  1  0  0  0  0
 19 20  2  0  0  0  0
 20  6  1  0  0  0  0
 21 19  1  0  0  0  0
 21 11  1  0  0  0  0
 22  7  1  0  0  0  0
 24 27  1  0  0  0  0
 25 26  2  0  0  0  0
 26 23  1  0  0  0  0
 26 24  1  0  0  0  0
 28 29  1  0  0  0  0
 28 27  1  0  0  0  0
 29 31  1  0  0  0  0
 31 30  1  0  0  0  0
 32 33  1  0  0  0  0
 33 29  1  0  0  0  0
 34 35  1  0  0  0  0
 35 36  2  0  0  0  0
 36 37  1  0  0  0  0
 37 40  1  0  0  0  0
 39 43  1  0  0  0  0
 40 38  2  0  0  0  0
 40 39  1  0  0  0  0
 41 43  2  0  0  0  0
 43 48  1  0  0  0  0
 43 42  2  0  0  0  0
 45 47  1  0  0  0  0
 46 45  1  0  0  0  0
 47 44  1  0  0  0  0
 48 50  1  0  0  0  0
 49 46  1  0  0  0  0
 50 47  2  0  0  0  0
 51 46  1  0  0  0  0
 51 48  2  0  0  0  0
M  END
>  <MODEL>
1

>  <REMARK>
 VINA RESULT:      -7.5      0.000      0.000
  Name = 
  13 active torsions:
  status: ('A' for Active; 'I' for Inactive)
    1  A    between atoms: C_14  and  C_16
    2  A    between atoms: C_14  and  C_39
    3  A    between atoms: C_16  and  N_22
    4  A    between atoms: C_19  and  C_32
    5  A    between atoms: C_20  and  S_44
    6  A    between atoms: C_28  and  C_39
    7  A    between atoms: C_29  and  S_49
    8  A    between atoms: C_32  and  C_50
    9  A    between atoms: C_33  and  C_43
   10  A    between atoms: C_33  and  C_51
   11  A    between atoms: N_35  and  S_44
   12  A    between atoms: C_36  and  S_49
   13  A    between atoms: C_39  and  C_47
                            x       y       z     vdW  Elec       q    Type
                         _______ _______ _______ _____ _____    ______ ____

>  <TORSDO>
F 13

$$$$
=
 OpenBabel11062414543D

 51 56  0  0  1  0  0  0  0  0999 V2000
  185.7760  177.2590  136.6530 N   0  0  0  0  0  0  0  0  0  0  0  0
  188.1130  177.8960  138.6730 N   0  0  1  0  0  0  0  0  0  0  0  0
  186.6860  177.7450  138.9870 C   0  0  1  0  0  3  0  0  0  0  0  0
  190.4890  175.2530  138.7180 O   0  0  0  0  0  0  0  0  0  0  0  0
  188.1180  176.3270  136.7580 C   0  0  0  0  0  2  0  0  0  0  0  0
  185.2340  178.4120  142.4360 C   0  0  0  0  0  2  0  0  0  0  0  0
  190.0550  176.5720  138.4560 C   0  0  1  0  0  0  0  0  0  0  0  0
  191.7520  176.2040  136.9910 C   0  0  0  0  0  3  0  0  0  0  0  0
  190.1690  177.5020  139.6640 C   0  0  1  0  0  3  0  0  0  0  0  0
  191.5830  175.0160  137.8620 C   0  0  0  0  0  2  0  0  0  0  0  0
  186.1830  178.6320  140.1210 C   0  0  2  0  0  3  0  0  0  0  0  0
  188.8650  178.1400  139.8430 N   0  0  0  0  0  2  0  0  0  0  0  0
  186.2830  177.8920  141.4620 C   0  0  0  0  0  2  0  0  0  0  0  0
  184.5140  178.5710  138.3080 C   0  0  0  0  0  2  0  0  0  0  0  0
  185.8820  178.2060  137.7770 C   0  0  2  0  0  3  0  0  0  0  0  0
  186.6120  176.0450  136.7640 C   0  0  2  0  0  3  0  0  0  0  0  0
  190.8710  177.1110  137.3340 C   0  0  0  0  0  3  0  0  0  0  0  0
  186.1040  177.9970  135.4390 C   0  0  0  0  0  1  0  0  0  0  0  0
  183.6760  178.5140  140.6320 C   0  0  0  0  0  3  0  0  0  0  0  0
  183.9190  178.2270  141.8660 N   0  0  0  0  0  0  0  0  0  0  0  0
  184.7490  179.0570  139.7270 C   0  0  1  0  0  3  0  0  0  0  0  0
  188.5680  176.6040  138.1920 C   0  0  1  0  0  3  0  0  0  0  0  0
  190.5570  176.7850  140.9560 C   0  0  0  0  0  2  0  0  0  0  0  0
  191.4390  178.1780  142.8910 N   0  0  0  0  0  2  0  0  0  0  0  0
  192.8190  177.5300  141.1450 O   0  0  0  0  0  0  0  0  0  0  0  0
  191.6730  177.4870  141.6650 C   0  0  0  0  0  0  0  0  0  0  0  0
  190.1250  178.2710  143.4980 C   0  0  0  0  0  2  0  0  0  0  0  0
  190.2290  178.1380  145.0060 C   0  0  0  0  0  2  0  0  0  0  0  0
  189.0660  177.3320  145.5820 C   0  0  2  0  0  3  0  0  0  0  0  0
  186.6810  177.5030  146.0380 N   0  0  0  0  0  1  0  0  0  0  0  0
  187.7270  177.8770  145.1010 C   0  0  0  0  0  2  0  0  0  0  0  0
  190.0300  176.3800  147.5800 O   0  0  0  0  0  1  0  0  0  0  0  0
  189.1170  177.3280  147.1090 C   0  0  0  0  0  2  0  0  0  0  0  0
  186.1690  174.8240  135.4830 S   0  0  0  0  0  0  0  0  0  0  0  0
  185.2130  173.8350  136.6290 C   0  0  0  0  0  3  0  0  0  0  0  0
  184.2280  173.0570  136.1790 C   0  0  0  0  0  3  0  0  0  0  0  0
  183.4110  172.2280  137.1130 C   0  0  0  0  0  2  0  0  0  0  0  0
  181.1040  171.8870  136.6610 O   0  0  0  0  0  0  0  0  0  0  0  0
  181.6400  173.9490  137.6320 N   0  0  0  0  0  2  0  0  0  0  0  0
  181.9870  172.6630  137.1120 C   0  0  0  0  0  0  0  0  0  0  0  0
  179.2000  173.4920  138.5780 O   0  0  0  0  0  0  0  0  0  0  0  0
  179.4030  174.7270  136.4730 O   0  0  0  0  0  0  0  0  0  0  0  0
  180.0120  174.5150  137.8290 S   0  0  0  0  0  0  0  0  0  0  0  0
  181.3650  179.4200  138.0700 F   0  0  0  0  0  0  0  0  0  0  0  0
  179.1760  178.8420  139.6040 S   0  0  0  0  0  0  0  0  0  0  0  0
  179.4240  177.3970  140.6920 C   0  0  2  0  0  3  0  0  0  0  0  0
  180.5640  178.4310  138.5310 C   0  0  0  0  0  0  0  0  0  0  0  0
  180.0370  176.0330  138.7110 C   0  0  0  0  0  0  0  0  0  0  0  0
  180.6390  177.5010  141.3450 F   0  0  0  0  0  0  0  0  0  0  0  0
  180.7880  177.1710  138.1470 C   0  0  0  0  0  3  0  0  0  0  0  0
  179.3870  176.1370  139.8760 C   0  0  0  0  0  3  0  0  0  0  0  0
  1 16  1  0  0  0  0
  1 15  1  0  0  0  0
  2  3  1  0  0  0  0
  2 12  1  1  0  0  0
  3 11  1  0  0  0  0
  5 16  1  0  0  0  0
  5 22  1  0  0  0  0
  7  4  1  0  0  0  0
  7  9  1  0  0  0  0
  8 17  2  0  0  0  0
  8 10  1  0  0  0  0
  9 12  1  0  0  0  0
  9 23  1  0  0  0  0
 10  4  1  0  0  0  0
 11 13  1  0  0  0  0
 13  6  1  0  0  0  0
 14 21  1  0  0  0  0
 15 14  1  0  0  0  0
 15  3  1  0  0  0  0
 17  7  1  0  0  0  0
 18  1  1  0  0  0  0
 19 20  2  0  0  0  0
 20  6  1  0  0  0  0
 21 11  1  0  0  0  0
 21 19  1  0  0  0  0
 22  7  1  0  0  0  0
 22  2  1  0  0  0  0
 23 26  1  0  0  0  0
 24 27  1  0  0  0  0
 25 26  2  0  0  0  0
 26 24  1  0  0  0  0
 27 28  1  0  0  0  0
 28 29  1  0  0  0  0
 29 33  1  0  0  0  0
 31 29  1  0  0  0  0
 31 30  1  0  0  0  0
 33 32  1  0  0  0  0
 34 35  1  0  0  0  0
 34 16  1  0  0  0  0
 36 35  2  0  0  0  0
 36 37  1  0  0  0  0
 38 40  2  0  0  0  0
 39 43  1  0  0  0  0
 40 37  1  0  0  0  0
 40 39  1  0  0  0  0
 42 43  2  0  0  0  0
 43 41  2  0  0  0  0
 43 48  1  0  0  0  0
 44 47  1  0  0  0  0
 45 46  1  0  0  0  0
 46 49  1  0  0  0  0
 47 45  1  0  0  0  0
 48 51  2  0  0  0  0
 50 47  2  0  0  0  0
 50 48  1  0  0  0  0
 51 46  1  0  0  0  0
M  END
>  <MODEL>
2

>  <REMARK>
 VINA RESULT:      -7.4      3.676      9.507
  Name = 
  13 active torsions:
  status: ('A' for Active; 'I' for Inactive)
    1  A    between atoms: C_14  and  C_16
    2  A    between atoms: C_14  and  C_39
    3  A    between atoms: C_16  and  N_22
    4  A    between atoms: C_19  and  C_32
    5  A    between atoms: C_20  and  S_44
    6  A    between atoms: C_28  and  C_39
    7  A    between atoms: C_29  and  S_49
    8  A    between atoms: C_32  and  C_50
    9  A    between atoms: C_33  and  C_43
   10  A    between atoms: C_33  and  C_51
   11  A    between atoms: N_35  and  S_44
   12  A    between atoms: C_36  and  S_49
   13  A    between atoms: C_39  and  C_47
                            x       y       z     vdW  Elec       q    Type
                         _______ _______ _______ _____ _____    ______ ____

>  <TORSDO>
F 13

$$$$
=
 OpenBabel11062414543D

 51 56  0  0  1  0  0  0  0  0999 V2000
  191.1220  174.5440  135.9620 N   0  0  0  0  0  0  0  0  0  0  0  0
  188.0360  174.9970  135.4970 N   0  0  1  0  0  0  0  0  0  0  0  0
  188.7190  173.7190  135.7360 C   0  0  1  0  0  3  0  0  0  0  0  0
  186.6730  177.0740  138.0380 O   0  0  0  0  0  0  0  0  0  0  0  0
  189.6120  176.3760  136.8160 C   0  0  0  0  0  2  0  0  0  0  0  0
  186.9560  170.3560  135.5500 C   0  0  0  0  0  2  0  0  0  0  0  0
  187.0560  176.7670  136.7130 C   0  0  1  0  0  0  0  0  0  0  0  0
  187.1210  179.0340  136.8380 C   0  0  0  0  0  3  0  0  0  0  0  0
  185.9920  175.9940  135.9360 C   0  0  1  0  0  3  0  0  0  0  0  0
  186.6470  178.4800  138.1300 C   0  0  0  0  0  2  0  0  0  0  0  0
  188.1070  172.5230  135.0130 C   0  0  2  0  0  3  0  0  0  0  0  0
  186.6420  174.8110  135.3720 N   0  0  0  0  0  2  0  0  0  0  0  0
  187.0690  171.8320  135.9080 C   0  0  0  0  0  2  0  0  0  0  0  0
  190.5660  172.3910  134.9100 C   0  0  0  0  0  2  0  0  0  0  0  0
  190.1250  173.8160  135.1580 C   0  0  2  0  0  3  0  0  0  0  0  0
  190.5910  175.2450  137.1500 C   0  0  2  0  0  3  0  0  0  0  0  0
  187.3560  178.0450  136.0120 C   0  0  0  0  0  3  0  0  0  0  0  0
  191.7890  175.4850  135.0690 C   0  0  0  0  0  1  0  0  0  0  0  0
  189.3270  170.2860  135.2820 C   0  0  0  0  0  3  0  0  0  0  0  0
  188.2460  169.7250  135.7100 N   0  0  0  0  0  0  0  0  0  0  0  0
  189.2950  171.6250  134.5940 C   0  0  1  0  0  3  0  0  0  0  0  0
  188.2060  175.7880  136.7020 C   0  0  1  0  0  3  0  0  0  0  0  0
  184.8060  175.5520  136.7920 C   0  0  0  0  0  2  0  0  0  0  0  0
  182.7380  177.0310  136.7920 N   0  0  0  0  0  2  0  0  0  0  0  0
  183.0360  175.3750  135.1980 O   0  0  0  0  0  0  0  0  0  0  0  0
  183.5020  175.9830  136.1970 C   0  0  0  0  0  0  0  0  0  0  0  0
  183.1520  177.7070  138.0070 C   0  0  0  0  0  2  0  0  0  0  0  0
  182.0210  178.5650  138.5450 C   0  0  0  0  0  2  0  0  0  0  0  0
  182.3670  179.1600  139.9080 C   0  0  2  0  0  3  0  0  0  0  0  0
  184.6670  179.6680  140.5240 N   0  0  0  0  0  1  0  0  0  0  0  0
  183.6820  178.6020  140.4350 C   0  0  0  0  0  2  0  0  0  0  0  0
  180.8180  177.5680  140.8540 O   0  0  0  0  0  1  0  0  0  0  0  0
  181.2430  178.8990  140.9100 C   0  0  0  0  0  2  0  0  0  0  0  0
  191.9430  175.8430  138.2190 S   0  0  0  0  0  0  0  0  0  0  0  0
  190.8500  176.9090  139.1560 C   0  0  0  0  0  3  0  0  0  0  0  0
  190.5900  176.6400  140.4350 C   0  0  0  0  0  3  0  0  0  0  0  0
  189.6780  177.5080  141.2370 C   0  0  0  0  0  2  0  0  0  0  0  0
  190.4590  179.0620  142.8540 O   0  0  0  0  0  0  0  0  0  0  0  0
  190.6440  176.8080  143.4610 N   0  0  0  0  0  2  0  0  0  0  0  0
  190.2830  177.8520  142.5540 C   0  0  0  0  0  0  0  0  0  0  0  0
  192.1880  178.2210  145.0970 O   0  0  0  0  0  0  0  0  0  0  0  0
  191.9080  175.8330  145.5600 O   0  0  0  0  0  0  0  0  0  0  0  0
  191.2130  177.0740  145.0780 S   0  0  0  0  0  0  0  0  0  0  0  0
  186.2160  177.9110  145.6020 F   0  0  0  0  0  0  0  0  0  0  0  0
  187.3740  176.9220  147.8730 S   0  0  0  0  0  0  0  0  0  0  0  0
  188.8770  177.8330  148.3670 C   0  0  2  0  0  3  0  0  0  0  0  0
  187.3850  177.5640  146.1900 C   0  0  0  0  0  0  0  0  0  0  0  0
  189.8420  177.4270  146.1160 C   0  0  0  0  0  0  0  0  0  0  0  0
  188.6380  179.1950  148.3250 F   0  0  0  0  0  0  0  0  0  0  0  0
  188.5230  177.6630  145.4970 C   0  0  0  0  0  3  0  0  0  0  0  0
  190.0080  177.4830  147.4420 C   0  0  0  0  0  3  0  0  0  0  0  0
  1 16  1  0  0  0  0
  2 12  1  1  0  0  0
  2  3  1  0  0  0  0
  2 22  1  0  0  0  0
  4 10  1  0  0  0  0
  5 16  1  0  0  0  0
  6 20  1  0  0  0  0
  6 13  1  0  0  0  0
  7  4  1  0  0  0  0
  8 10  1  0  0  0  0
  9  7  1  0  0  0  0
  9 23  1  0  0  0  0
 11  3  1  0  0  0  0
 11 13  1  0  0  0  0
 12  9  1  0  0  0  0
 14 15  1  0  0  0  0
 15  3  1  0  0  0  0
 15  1  1  0  0  0  0
 16 34  1  0  0  0  0
 17  7  1  0  0  0  0
 17  8  2  0  0  0  0
 18  1  1  0  0  0  0
 19 20  2  0  0  0  0
 21 14  1  0  0  0  0
 21 11  1  0  0  0  0
 21 19  1  0  0  0  0
 22  7  1  0  0  0  0
 22  5  1  0  0  0  0
 24 27  1  0  0  0  0
 25 26  2  0  0  0  0
 26 23  1  0  0  0  0
 26 24  1  0  0  0  0
 27 28  1  0  0  0  0
 28 29  1  0  0  0  0
 29 31  1  0  0  0  0
 29 33  1  0  0  0  0
 31 30  1  0  0  0  0
 32 33  1  0  0  0  0
 34 35  1  0  0  0  0
 35 36  2  0  0  0  0
 36 37  1  0  0  0  0
 37 40  1  0  0  0  0
 39 43  1  0  0  0  0
 40 38  2  0  0  0  0
 40 39  1  0  0  0  0
 43 41  2  0  0  0  0
 43 42  2  0  0  0  0
 43 48  1  0  0  0  0
 44 47  1  0  0  0  0
 45 46  1  0  0  0  0
 47 45  1  0  0  0  0
 48 51  2  0  0  0  0
 49 46  1  0  0  0  0
 50 48  1  0  0  0  0
 50 47  2  0  0  0  0
 51 46  1  0  0  0  0
M  END
>  <MODEL>
3

>  <REMARK>
 VINA RESULT:      -6.1      2.314      3.563
  Name = 
  13 active torsions:
  status: ('A' for Active; 'I' for Inactive)
    1  A    between atoms: C_14  and  C_16
    2  A    between atoms: C_14  and  C_39
    3  A    between atoms: C_16  and  N_22
    4  A    between atoms: C_19  and  C_32
    5  A    between atoms: C_20  and  S_44
    6  A    between atoms: C_28  and  C_39
    7  A    between atoms: C_29  and  S_49
    8  A    between atoms: C_32  and  C_50
    9  A    between atoms: C_33  and  C_43
   10  A    between atoms: C_33  and  C_51
   11  A    between atoms: N_35  and  S_44
   12  A    between atoms: C_36  and  S_49
   13  A    between atoms: C_39  and  C_47
                            x       y       z     vdW  Elec       q    Type
                         _______ _______ _______ _____ _____    ______ ____

>  <TORSDO>
F 13

$$$$
=
 OpenBabel11062414543D

 51 56  0  0  1  0  0  0  0  0999 V2000
  188.7590  177.3530  142.5960 N   0  0  0  0  0  0  0  0  0  0  0  0
  185.6280  177.6190  142.8600 N   0  0  1  0  0  0  0  0  0  0  0  0
  186.6360  177.9760  143.8660 C   0  0  1  0  0  3  0  0  0  0  0  0
  184.3440  179.8410  140.4010 O   0  0  0  0  0  0  0  0  0  0  0  0
  187.0530  178.0990  140.8930 C   0  0  0  0  0  2  0  0  0  0  0  0
  185.7500  179.0890  147.3910 C   0  0  0  0  0  2  0  0  0  0  0  0
  184.5130  178.5790  141.0140 C   0  0  1  0  0  0  0  0  0  0  0  0
  184.0450  178.1240  138.8380 C   0  0  0  0  0  3  0  0  0  0  0  0
  183.5350  178.3230  142.1590 C   0  0  1  0  0  3  0  0  0  0  0  0
  183.9940  179.5890  139.0590 C   0  0  0  0  0  2  0  0  0  0  0  0
  186.2030  177.7550  145.3120 C   0  0  2  0  0  3  0  0  0  0  0  0
  184.3260  177.9150  143.3200 N   0  0  0  0  0  2  0  0  0  0  0  0
  185.5690  179.0330  145.8800 C   0  0  0  0  0  2  0  0  0  0  0  0
  188.5450  177.0440  145.0270 C   0  0  0  0  0  2  0  0  0  0  0  0
  187.8290  177.0430  143.6950 C   0  0  2  0  0  3  0  0  0  0  0  0
  188.3250  178.4300  141.6810 C   0  0  2  0  0  3  0  0  0  0  0  0
  184.3420  177.5330  139.9690 C   0  0  0  0  0  3  0  0  0  0  0  0
  188.9800  176.1140  141.8590 C   0  0  0  0  0  1  0  0  0  0  0  0
  187.9600  178.2330  147.1130 C   0  0  0  0  0  3  0  0  0  0  0  0
  187.1600  179.0530  147.7060 N   0  0  0  0  0  0  0  0  0  0  0  0
  187.4630  177.2710  146.0670 C   0  0  1  0  0  3  0  0  0  0  0  0
  185.8410  178.5060  141.7300 C   0  0  1  0  0  3  0  0  0  0  0  0
  182.6930  179.5420  142.5320 C   0  0  0  0  0  2  0  0  0  0  0  0
  180.1680  179.4080  142.2580 N   0  0  0  0  0  2  0  0  0  0  0  0
  181.2150  178.6380  144.1770 O   0  0  0  0  0  0  0  0  0  0  0  0
  181.3380  179.1470  143.0320 C   0  0  0  0  0  0  0  0  0  0  0  0
  180.2140  180.0900  140.9780 C   0  0  0  0  0  2  0  0  0  0  0  0
  179.4070  179.3270  139.9450 C   0  0  0  0  0  2  0  0  0  0  0  0
  180.0070  177.9510  139.6660 C   0  0  2  0  0  3  0  0  0  0  0  0
  180.4800  179.1500  137.6020 N   0  0  0  0  0  1  0  0  0  0  0  0
  180.4720  177.8350  138.2200 C   0  0  0  0  0  2  0  0  0  0  0  0
  179.0670  176.4780  141.3320 O   0  0  0  0  0  1  0  0  0  0  0  0
  178.9980  176.8490  139.9860 C   0  0  0  0  0  2  0  0  0  0  0  0
  189.6780  178.9260  140.5610 S   0  0  0  0  0  0  0  0  0  0  0  0
  188.7410  178.5000  139.0960 C   0  0  0  0  0  3  0  0  0  0  0  0
  189.1110  178.9720  137.9060 C   0  0  0  0  0  3  0  0  0  0  0  0
  188.3440  178.6400  136.6700 C   0  0  0  0  0  2  0  0  0  0  0  0
  189.6370  176.7360  136.0790 O   0  0  0  0  0  0  0  0  0  0  0  0
  187.3330  176.3630  136.2660 N   0  0  0  0  0  2  0  0  0  0  0  0
  188.4910  177.2000  136.3170 C   0  0  0  0  0  0  0  0  0  0  0  0
  188.3640  174.0180  136.9680 O   0  0  0  0  0  0  0  0  0  0  0  0
  187.8130  174.3690  134.6080 O   0  0  0  0  0  0  0  0  0  0  0  0
  187.3790  174.6460  136.0190 S   0  0  0  0  0  0  0  0  0  0  0  0
  182.5120  175.3640  137.3400 F   0  0  0  0  0  0  0  0  0  0  0  0
  182.8640  173.2050  135.6980 S   0  0  0  0  0  0  0  0  0  0  0  0
  184.1850  172.0800  136.2650 C   0  0  2  0  0  3  0  0  0  0  0  0
  183.4250  174.5820  136.7160 C   0  0  0  0  0  0  0  0  0  0  0  0
  185.7740  173.9870  136.2870 C   0  0  0  0  0  0  0  0  0  0  0  0
  184.0390  171.8250  137.6170 F   0  0  0  0  0  0  0  0  0  0  0  0
  184.7240  174.8700  136.8310 C   0  0  0  0  0  3  0  0  0  0  0  0
  185.5270  172.7030  136.0040 C   0  0  0  0  0  3  0  0  0  0  0  0
  1 15  1  0  0  0  0
  2 12  1  1  0  0  0
  2  3  1  0  0  0  0
  3 11  1  0  0  0  0
  4  7  1  0  0  0  0
  5 16  1  0  0  0  0
  5 22  1  0  0  0  0
  6 20  1  0  0  0  0
  7 22  1  0  0  0  0
  7  9  1  0  0  0  0
  8 10  1  0  0  0  0
  8 17  2  0  0  0  0
  9 23  1  0  0  0  0
  9 12  1  0  0  0  0
 10  4  1  0  0  0  0
 11 13  1  0  0  0  0
 11 21  1  0  0  0  0
 13  6  1  0  0  0  0
 14 21  1  0  0  0  0
 15  3  1  0  0  0  0
 15 14  1  0  0  0  0
 16  1  1  0  0  0  0
 17  7  1  0  0  0  0
 18  1  1  0  0  0  0
 19 20  2  0  0  0  0
 21 19  1  0  0  0  0
 22  2  1  0  0  0  0
 23 26  1  0  0  0  0
 24 26  1  0  0  0  0
 26 25  2  0  0  0  0
 27 24  1  0  0  0  0
 28 27  1  0  0  0  0
 29 28  1  0  0  0  0
 29 33  1  0  0  0  0
 30 31  1  0  0  0  0
 31 29  1  0  0  0  0
 33 32  1  0  0  0  0
 34 16  1  0  0  0  0
 35 34  1  0  0  0  0
 36 35  2  0  0  0  0
 37 36  1  0  0  0  0
 38 40  2  0  0  0  0
 39 40  1  0  0  0  0
 40 37  1  0  0  0  0
 42 43  2  0  0  0  0
 43 39  1  0  0  0  0
 43 48  1  0  0  0  0
 43 41  2  0  0  0  0
 45 46  1  0  0  0  0
 45 47  1  0  0  0  0
 46 49  1  0  0  0  0
 47 50  2  0  0  0  0
 47 44  1  0  0  0  0
 48 50  1  0  0  0  0
 51 46  1  0  0  0  0
 51 48  2  0  0  0  0
M  END
>  <MODEL>
4

>  <REMARK>
 VINA RESULT:      -6.1      3.851      8.022
  Name = 
  13 active torsions:
  status: ('A' for Active; 'I' for Inactive)
    1  A    between atoms: C_14  and  C_16
    2  A    between atoms: C_14  and  C_39
    3  A    between atoms: C_16  and  N_22
    4  A    between atoms: C_19  and  C_32
    5  A    between atoms: C_20  and  S_44
    6  A    between atoms: C_28  and  C_39
    7  A    between atoms: C_29  and  S_49
    8  A    between atoms: C_32  and  C_50
    9  A    between atoms: C_33  and  C_43
   10  A    between atoms: C_33  and  C_51
   11  A    between atoms: N_35  and  S_44
   12  A    between atoms: C_36  and  S_49
   13  A    between atoms: C_39  and  C_47
                            x       y       z     vdW  Elec       q    Type
                         _______ _______ _______ _____ _____    ______ ____

>  <TORSDO>
F 13

$$$$
=
 OpenBabel11062414543D

 51 56  0  0  1  0  0  0  0  0999 V2000
  193.4140  175.3160  136.7410 N   0  0  0  0  0  0  0  0  0  0  0  0
  190.3610  175.4030  135.9560 N   0  0  1  0  0  0  0  0  0  0  0  0
  191.2230  174.2170  136.0340 C   0  0  1  0  0  3  0  0  0  0  0  0
  188.4090  176.6700  138.6420 O   0  0  0  0  0  0  0  0  0  0  0  0
  191.5340  176.6840  137.7200 C   0  0  0  0  0  2  0  0  0  0  0  0
  190.0890  170.7500  134.9620 C   0  0  0  0  0  2  0  0  0  0  0  0
  188.9730  176.7110  137.3470 C   0  0  1  0  0  0  0  0  0  0  0  0
  188.6370  178.8850  137.9160 C   0  0  0  0  0  3  0  0  0  0  0  0
  188.1420  175.9750  136.2970 C   0  0  1  0  0  3  0  0  0  0  0  0
  188.1340  178.0060  139.0000 C   0  0  0  0  0  2  0  0  0  0  0  0
  190.9030  173.1260  135.0170 C   0  0  2  0  0  3  0  0  0  0  0  0
  189.0390  175.0470  135.6090 N   0  0  0  0  0  2  0  0  0  0  0  0
  189.9110  172.1160  135.6120 C   0  0  0  0  0  2  0  0  0  0  0  0
  193.3450  173.3790  135.2260 C   0  0  0  0  0  2  0  0  0  0  0  0
  192.6440  174.6380  135.6830 C   0  0  2  0  0  3  0  0  0  0  0  0
  192.6510  175.6620  137.9580 C   0  0  2  0  0  3  0  0  0  0  0  0
  189.1210  178.1390  136.9540 C   0  0  0  0  0  3  0  0  0  0  0  0
  194.0000  176.5120  136.1460 C   0  0  0  0  0  1  0  0  0  0  0  0
  192.4510  171.0850  135.0110 C   0  0  0  0  0  3  0  0  0  0  0  0
  191.4440  170.2940  135.1710 N   0  0  0  0  0  0  0  0  0  0  0  0
  192.2630  172.5200  134.5970 C   0  0  1  0  0  3  0  0  0  0  0  0
  190.2690  175.9350  137.3040 C   0  0  1  0  0  3  0  0  0  0  0  0
  186.9670  175.1930  136.8820 C   0  0  0  0  0  2  0  0  0  0  0  0
  184.5280  175.4460  136.2100 N   0  0  0  0  0  2  0  0  0  0  0  0
  186.0780  174.4780  134.7840 O   0  0  0  0  0  0  0  0  0  0  0  0
  185.8580  175.0370  135.8900 C   0  0  0  0  0  0  0  0  0  0  0  0
  184.1700  175.9970  137.5030 C   0  0  0  0  0  2  0  0  0  0  0  0
  183.7730  177.4550  137.3640 C   0  0  0  0  0  2  0  0  0  0  0  0
  183.3960  178.0670  138.7120 C   0  0  2  0  0  3  0  0  0  0  0  0
  181.2180  178.5490  139.6860 N   0  0  0  0  0  1  0  0  0  0  0  0
  182.1240  178.8970  138.6040 C   0  0  0  0  0  2  0  0  0  0  0  0
  184.2810  180.2840  139.0690 O   0  0  0  0  0  1  0  0  0  0  0  0
  184.5400  178.9230  139.2540 C   0  0  0  0  0  2  0  0  0  0  0  0
  193.7640  176.2100  139.2970 S   0  0  0  0  0  0  0  0  0  0  0  0
  192.5040  177.2410  140.0430 C   0  0  0  0  0  3  0  0  0  0  0  0
  192.5140  177.4610  141.3580 C   0  0  0  0  0  3  0  0  0  0  0  0
  191.4720  178.3100  142.0070 C   0  0  0  0  0  2  0  0  0  0  0  0
  190.6950  176.3490  143.0980 O   0  0  0  0  0  0  0  0  0  0  0  0
  189.0590  177.9650  142.6600 N   0  0  0  0  0  2  0  0  0  0  0  0
  190.4010  177.4750  142.6180 C   0  0  0  0  0  0  0  0  0  0  0  0
  187.8700  175.6750  143.2890 O   0  0  0  0  0  0  0  0  0  0  0  0
  186.4530  177.6300  142.8810 O   0  0  0  0  0  0  0  0  0  0  0  0
  187.7520  177.1640  143.4730 S   0  0  0  0  0  0  0  0  0  0  0  0
  185.7220  179.5920  147.4640 F   0  0  0  0  0  0  0  0  0  0  0  0
  187.1960  177.4050  148.1850 S   0  0  0  0  0  0  0  0  0  0  0  0
  188.8540  177.3730  147.4210 C   0  0  2  0  0  3  0  0  0  0  0  0
  186.5430  178.6120  147.0180 C   0  0  0  0  0  0  0  0  0  0  0  0
  187.8060  177.5710  145.1800 C   0  0  0  0  0  0  0  0  0  0  0  0
  189.4580  178.6100  147.5560 F   0  0  0  0  0  0  0  0  0  0  0  0
  186.8200  178.5300  145.7140 C   0  0  0  0  0  3  0  0  0  0  0  0
  188.7350  177.0170  145.9670 C   0  0  0  0  0  3  0  0  0  0  0  0
  1 16  1  0  0  0  0
  2 12  1  1  0  0  0
  2  3  1  0  0  0  0
  2 22  1  0  0  0  0
  4 10  1  0  0  0  0
  5 16  1  0  0  0  0
  6 20  1  0  0  0  0
  6 13  1  0  0  0  0
  7  4  1  0  0  0  0
  8 10  1  0  0  0  0
  9 23  1  0  0  0  0
  9  7  1  0  0  0  0
 11 13  1  0  0  0  0
 11  3  1  0  0  0  0
 12  9  1  0  0  0  0
 14 15  1  0  0  0  0
 15  3  1  0  0  0  0
 15  1  1  0  0  0  0
 16 34  1  0  0  0  0
 17  7  1  0  0  0  0
 17  8  2  0  0  0  0
 18  1  1  0  0  0  0
 19 20  2  0  0  0  0
 21 19  1  0  0  0  0
 21 11  1  0  0  0  0
 21 14  1  0  0  0  0
 22  7  1  0  0  0  0
 22  5  1  0  0  0  0
 24 27  1  0  0  0  0
 25 26  2  0  0  0  0
 26 24  1  0  0  0  0
 26 23  1  0  0  0  0
 28 27  1  0  0  0  0
 28 29  1  0  0  0  0
 29 33  1  0  0  0  0
 31 29  1  0  0  0  0
 31 30  1  0  0  0  0
 32 33  1  0  0  0  0
 34 35  1  0  0  0  0
 35 36  2  0  0  0  0
 36 37  1  0  0  0  0
 37 40  1  0  0  0  0
 39 43  1  0  0  0  0
 40 39  1  0  0  0  0
 40 38  2  0  0  0  0
 41 43  2  0  0  0  0
 42 43  2  0  0  0  0
 43 48  1  0  0  0  0
 46 49  1  0  0  0  0
 46 45  1  0  0  0  0
 47 44  1  0  0  0  0
 47 45  1  0  0  0  0
 48 50  1  0  0  0  0
 48 51  2  0  0  0  0
 50 47  2  0  0  0  0
 51 46  1  0  0  0  0
M  END
>  <MODEL>
5

>  <REMARK>
 VINA RESULT:      -6.0      3.451      5.117
  Name = 
  13 active torsions:
  status: ('A' for Active; 'I' for Inactive)
    1  A    between atoms: C_14  and  C_16
    2  A    between atoms: C_14  and  C_39
    3  A    between atoms: C_16  and  N_22
    4  A    between atoms: C_19  and  C_32
    5  A    between atoms: C_20  and  S_44
    6  A    between atoms: C_28  and  C_39
    7  A    between atoms: C_29  and  S_49
    8  A    between atoms: C_32  and  C_50
    9  A    between atoms: C_33  and  C_43
   10  A    between atoms: C_33  and  C_51
   11  A    between atoms: N_35  and  S_44
   12  A    between atoms: C_36  and  S_49
   13  A    between atoms: C_39  and  C_47
                            x       y       z     vdW  Elec       q    Type
                         _______ _______ _______ _____ _____    ______ ____

>  <TORSDO>
F 13

$$$$
=
 OpenBabel11062414543D

 51 56  0  0  1  0  0  0  0  0999 V2000
  190.0230  176.8840  143.5800 N   0  0  0  0  0  0  0  0  0  0  0  0
  186.9270  177.3520  143.9570 N   0  0  1  0  0  0  0  0  0  0  0  0
  187.9910  177.6310  144.9300 C   0  0  1  0  0  3  0  0  0  0  0  0
  185.7060  179.6770  141.5620 O   0  0  0  0  0  0  0  0  0  0  0  0
  188.3110  177.7560  141.9450 C   0  0  0  0  0  2  0  0  0  0  0  0
  187.3040  178.7650  148.4920 C   0  0  0  0  0  2  0  0  0  0  0  0
  185.8140  178.4000  142.1590 C   0  0  1  0  0  0  0  0  0  0  0  0
  185.2410  177.9980  139.9980 C   0  0  0  0  0  3  0  0  0  0  0  0
  184.8620  178.1970  143.3370 C   0  0  1  0  0  3  0  0  0  0  0  0
  185.2940  179.4610  140.2320 C   0  0  0  0  0  2  0  0  0  0  0  0
  187.5950  177.4250  146.3880 C   0  0  2  0  0  3  0  0  0  0  0  0
  185.6650  177.7270  144.4660 N   0  0  0  0  0  2  0  0  0  0  0  0
  187.0670  178.7350  146.9880 C   0  0  0  0  0  2  0  0  0  0  0  0
  189.8750  176.5660  146.0140 C   0  0  0  0  0  2  0  0  0  0  0  0
  189.1140  176.6250  144.7090 C   0  0  2  0  0  3  0  0  0  0  0  0
  189.6290  177.9960  142.6890 C   0  0  2  0  0  3  0  0  0  0  0  0
  185.5380  177.3780  141.1130 C   0  0  0  0  0  3  0  0  0  0  0  0
  190.1370  175.6410  142.8260 C   0  0  0  0  0  1  0  0  0  0  0  0
  189.4420  177.7690  148.1290 C   0  0  0  0  0  3  0  0  0  0  0  0
  188.7190  178.6340  148.7560 N   0  0  0  0  0  0  0  0  0  0  0  0
  188.8470  176.8520  147.0940 C   0  0  1  0  0  3  0  0  0  0  0  0
  187.1580  178.2330  142.8270 C   0  0  1  0  0  3  0  0  0  0  0  0
  184.1150  179.4640  143.7480 C   0  0  0  0  0  2  0  0  0  0  0  0
  181.6150  179.1120  144.0470 N   0  0  0  0  0  2  0  0  0  0  0  0
  183.0720  178.9920  145.8450 O   0  0  0  0  0  0  0  0  0  0  0  0
  182.9270  179.1540  144.6050 C   0  0  0  0  0  0  0  0  0  0  0  0
  181.3500  179.3960  142.6490 C   0  0  0  0  0  2  0  0  0  0  0  0
  181.7090  178.1980  141.7900 C   0  0  0  0  0  2  0  0  0  0  0  0
  180.9690  178.2220  140.4540 C   0  0  2  0  0  3  0  0  0  0  0  0
  181.0000  180.3190  139.2190 N   0  0  0  0  0  1  0  0  0  0  0  0
  180.2800  179.5620  140.2300 C   0  0  0  0  0  2  0  0  0  0  0  0
  179.3200  176.8980  141.6190 O   0  0  0  0  0  1  0  0  0  0  0  0
  179.9490  177.0860  140.3840 C   0  0  0  0  0  2  0  0  0  0  0  0
  190.9710  178.4140  141.5260 S   0  0  0  0  0  0  0  0  0  0  0  0
  190.2160  177.4970  140.1860 C   0  0  0  0  0  3  0  0  0  0  0  0
  190.9750  176.7810  139.3560 C   0  0  0  0  0  3  0  0  0  0  0  0
  190.3730  176.0140  138.2270 C   0  0  0  0  0  2  0  0  0  0  0  0
  189.8010  177.8620  136.8480 O   0  0  0  0  0  0  0  0  0  0  0  0
  188.0140  176.4770  137.4560 N   0  0  0  0  0  2  0  0  0  0  0  0
  189.3950  176.8460  137.4720 C   0  0  0  0  0  0  0  0  0  0  0  0
  187.2080  177.2580  135.0490 O   0  0  0  0  0  0  0  0  0  0  0  0
  186.6690  178.6900  136.9600 O   0  0  0  0  0  0  0  0  0  0  0  0
  186.8030  177.2670  136.4980 S   0  0  0  0  0  0  0  0  0  0  0  0
  184.2590  173.0450  137.7810 F   0  0  0  0  0  0  0  0  0  0  0  0
  182.7830  175.3220  138.1200 S   0  0  0  0  0  0  0  0  0  0  0  0
  182.7920  176.4070  136.6520 C   0  0  2  0  0  3  0  0  0  0  0  0
  184.2290  174.3850  137.5930 C   0  0  0  0  0  0  0  0  0  0  0  0
  185.2740  176.4300  136.7050 C   0  0  0  0  0  0  0  0  0  0  0  0
  182.5460  175.6620  135.5130 F   0  0  0  0  0  0  0  0  0  0  0  0
  185.2900  174.9970  137.0580 C   0  0  0  0  0  3  0  0  0  0  0  0
  184.1240  177.0920  136.5370 C   0  0  0  0  0  3  0  0  0  0  0  0
  1 15  1  0  0  0  0
  2 12  1  1  0  0  0
  2  3  1  0  0  0  0
  3 11  1  0  0  0  0
  4  7  1  0  0  0  0
  5 16  1  0  0  0  0
  5 22  1  0  0  0  0
  6 20  1  0  0  0  0
  7 22  1  0  0  0  0
  7  9  1  0  0  0  0
  8 10  1  0  0  0  0
  8 17  2  0  0  0  0
  9 23  1  0  0  0  0
  9 12  1  0  0  0  0
 10  4  1  0  0  0  0
 11 13  1  0  0  0  0
 11 21  1  0  0  0  0
 13  6  1  0  0  0  0
 14 21  1  0  0  0  0
 15  3  1  0  0  0  0
 15 14  1  0  0  0  0
 16  1  1  0  0  0  0
 17  7  1  0  0  0  0
 18  1  1  0  0  0  0
 19 20  2  0  0  0  0
 21 19  1  0  0  0  0
 22  2  1  0  0  0  0
 23 26  1  0  0  0  0
 24 26  1  0  0  0  0
 26 25  2  0  0  0  0
 27 24  1  0  0  0  0
 28 27  1  0  0  0  0
 29 28  1  0  0  0  0
 30 31  1  0  0  0  0
 31 29  1  0  0  0  0
 33 29  1  0  0  0  0
 33 32  1  0  0  0  0
 34 16  1  0  0  0  0
 35 34  1  0  0  0  0
 36 35  2  0  0  0  0
 37 36  1  0  0  0  0
 38 40  2  0  0  0  0
 39 40  1  0  0  0  0
 40 37  1  0  0  0  0
 41 43  2  0  0  0  0
 43 48  1  0  0  0  0
 43 42  2  0  0  0  0
 43 39  1  0  0  0  0
 46 45  1  0  0  0  0
 47 44  1  0  0  0  0
 47 45  1  0  0  0  0
 48 50  1  0  0  0  0
 49 46  1  0  0  0  0
 50 47  2  0  0  0  0
 51 46  1  0  0  0  0
 51 48  2  0  0  0  0
M  END
>  <MODEL>
6

>  <REMARK>
 VINA RESULT:      -5.9      3.739      8.265
  Name = 
  13 active torsions:
  status: ('A' for Active; 'I' for Inactive)
    1  A    between atoms: C_14  and  C_16
    2  A    between atoms: C_14  and  C_39
    3  A    between atoms: C_16  and  N_22
    4  A    between atoms: C_19  and  C_32
    5  A    between atoms: C_20  and  S_44
    6  A    between atoms: C_28  and  C_39
    7  A    between atoms: C_29  and  S_49
    8  A    between atoms: C_32  and  C_50
    9  A    between atoms: C_33  and  C_43
   10  A    between atoms: C_33  and  C_51
   11  A    between atoms: N_35  and  S_44
   12  A    between atoms: C_36  and  S_49
   13  A    between atoms: C_39  and  C_47
                            x       y       z     vdW  Elec       q    Type
                         _______ _______ _______ _____ _____    ______ ____

>  <TORSDO>
F 13

$$$$
=
 OpenBabel11062414543D

 51 56  0  0  1  0  0  0  0  0999 V2000
  191.9980  174.5410  135.8300 N   0  0  0  0  0  0  0  0  0  0  0  0
  188.8860  174.9390  135.5050 N   0  0  1  0  0  0  0  0  0  0  0  0
  189.6000  173.6750  135.7300 C   0  0  1  0  0  3  0  0  0  0  0  0
  187.6120  177.0340  138.0770 O   0  0  0  0  0  0  0  0  0  0  0  0
  190.5010  176.3630  136.7270 C   0  0  0  0  0  2  0  0  0  0  0  0
  187.8870  170.2830  135.6790 C   0  0  0  0  0  2  0  0  0  0  0  0
  187.9370  176.7120  136.7400 C   0  0  1  0  0  0  0  0  0  0  0  0
  187.9700  178.9820  136.8280 C   0  0  0  0  0  3  0  0  0  0  0  0
  186.8490  175.9100  136.0260 C   0  0  1  0  0  3  0  0  0  0  0  0
  187.5680  178.4410  138.1490 C   0  0  0  0  0  2  0  0  0  0  0  0
  188.9750  172.4580  135.0550 C   0  0  2  0  0  3  0  0  0  0  0  0
  187.4910  174.7290  135.4490 N   0  0  0  0  0  2  0  0  0  0  0  0
  187.9920  171.7660  136.0100 C   0  0  0  0  0  2  0  0  0  0  0  0
  191.4280  172.3640  134.8370 C   0  0  0  0  0  2  0  0  0  0  0  0
  190.9760  173.7850  135.0850 C   0  0  2  0  0  3  0  0  0  0  0  0
  191.5120  175.2520  137.0310 C   0  0  2  0  0  3  0  0  0  0  0  0
  188.1820  177.9830  136.0060 C   0  0  0  0  0  3  0  0  0  0  0  0
  192.6070  175.4780  134.8920 C   0  0  0  0  0  1  0  0  0  0  0  0
  190.2420  170.2450  135.3000 C   0  0  0  0  0  3  0  0  0  0  0  0
  189.1930  169.6740  135.7860 N   0  0  0  0  0  0  0  0  0  0  0  0
  190.1560  171.5720  134.5940 C   0  0  1  0  0  3  0  0  0  0  0  0
  189.1010  175.7510  136.6890 C   0  0  1  0  0  3  0  0  0  0  0  0
  185.7130  175.4640  136.9440 C   0  0  0  0  0  2  0  0  0  0  0  0
  183.1710  175.5210  136.9610 N   0  0  0  0  0  2  0  0  0  0  0  0
  184.3600  175.3240  134.9810 O   0  0  0  0  0  0  0  0  0  0  0  0
  184.3970  175.4560  136.2320 C   0  0  0  0  0  0  0  0  0  0  0  0
  183.1250  175.5630  138.4100 C   0  0  0  0  0  2  0  0  0  0  0  0
  181.9560  176.4110  138.8760 C   0  0  0  0  0  2  0  0  0  0  0  0
  182.1810  177.8910  138.5770 C   0  0  2  0  0  3  0  0  0  0  0  0
  183.4700  179.7170  139.5420 N   0  0  0  0  0  1  0  0  0  0  0  0
  183.5520  178.3490  139.0570 C   0  0  0  0  0  2  0  0  0  0  0  0
  180.0940  177.9400  139.7890 O   0  0  0  0  0  1  0  0  0  0  0  0
  181.0860  178.7430  139.2190 C   0  0  0  0  0  2  0  0  0  0  0  0
  192.9040  175.8880  138.0250 S   0  0  0  0  0  0  0  0  0  0  0  0
  191.8240  176.8450  139.0870 C   0  0  0  0  0  3  0  0  0  0  0  0
  192.2800  177.3240  140.2450 C   0  0  0  0  0  3  0  0  0  0  0  0
  191.4000  178.1180  141.1520 C   0  0  0  0  0  2  0  0  0  0  0  0
  190.5540  175.9860  141.7720 O   0  0  0  0  0  0  0  0  0  0  0  0
  189.4520  177.8170  142.7270 N   0  0  0  0  0  2  0  0  0  0  0  0
  190.4530  177.2360  141.8890 C   0  0  0  0  0  0  0  0  0  0  0  0
  188.9450  176.8590  145.1520 O   0  0  0  0  0  0  0  0  0  0  0  0
  188.2780  175.5080  143.2220 O   0  0  0  0  0  0  0  0  0  0  0  0
  188.3890  176.9080  143.7540 S   0  0  0  0  0  0  0  0  0  0  0  0
  184.4200  178.7530  146.3590 F   0  0  0  0  0  0  0  0  0  0  0  0
  184.7010  179.9000  143.8930 S   0  0  0  0  0  0  0  0  0  0  0  0
  184.8870  178.6780  142.5500 C   0  0  2  0  0  3  0  0  0  0  0  0
  185.1070  178.7210  145.1940 C   0  0  0  0  0  0  0  0  0  0  0  0
  186.8070  177.6690  143.7570 C   0  0  0  0  0  0  0  0  0  0  0  0
  183.9280  177.6890  142.6770 F   0  0  0  0  0  0  0  0  0  0  0  0
  186.1040  177.8450  145.0430 C   0  0  0  0  0  3  0  0  0  0  0  0
  186.2590  178.0700  142.6050 C   0  0  0  0  0  3  0  0  0  0  0  0
  1 16  1  0  0  0  0
  2 12  1  1  0  0  0
  2  3  1  0  0  0  0
  2 22  1  0  0  0  0
  4 10  1  0  0  0  0
  5 16  1  0  0  0  0
  6 20  1  0  0  0  0
  6 13  1  0  0  0  0
  7  4  1  0  0  0  0
  8 10  1  0  0  0  0
  9  7  1  0  0  0  0
  9 23  1  0  0  0  0
 11  3  1  0  0  0  0
 11 13  1  0  0  0  0
 12  9  1  0  0  0  0
 14 15  1  0  0  0  0
 15  3  1  0  0  0  0
 15  1  1  0  0  0  0
 16 34  1  0  0  0  0
 17  7  1  0  0  0  0
 17  8  2  0  0  0  0
 18  1  1  0  0  0  0
 19 20  2  0  0  0  0
 21 14  1  0  0  0  0
 21 11  1  0  0  0  0
 21 19  1  0  0  0  0
 22  5  1  0  0  0  0
 22  7  1  0  0  0  0
 24 27  1  0  0  0  0
 25 26  2  0  0  0  0
 26 23  1  0  0  0  0
 26 24  1  0  0  0  0
 27 28  1  0  0  0  0
 29 28  1  0  0  0  0
 29 31  1  0  0  0  0
 29 33  1  0  0  0  0
 31 30  1  0  0  0  0
 33 32  1  0  0  0  0
 34 35  1  0  0  0  0
 35 36  2  0  0  0  0
 36 37  1  0  0  0  0
 37 40  1  0  0  0  0
 38 40  2  0  0  0  0
 39 43  1  0  0  0  0
 40 39  1  0  0  0  0
 42 43  2  0  0  0  0
 43 48  1  0  0  0  0
 43 41  2  0  0  0  0
 45 47  1  0  0  0  0
 46 51  1  0  0  0  0
 46 49  1  0  0  0  0
 46 45  1  0  0  0  0
 47 44  1  0  0  0  0
 48 50  1  0  0  0  0
 50 47  2  0  0  0  0
 51 48  2  0  0  0  0
M  END
>  <MODEL>
7

>  <REMARK>
 VINA RESULT:      -5.9      3.016      4.314
  Name = 
  13 active torsions:
  status: ('A' for Active; 'I' for Inactive)
    1  A    between atoms: C_14  and  C_16
    2  A    between atoms: C_14  and  C_39
    3  A    between atoms: C_16  and  N_22
    4  A    between atoms: C_19  and  C_32
    5  A    between atoms: C_20  and  S_44
    6  A    between atoms: C_28  and  C_39
    7  A    between atoms: C_29  and  S_49
    8  A    between atoms: C_32  and  C_50
    9  A    between atoms: C_33  and  C_43
   10  A    between atoms: C_33  and  C_51
   11  A    between atoms: N_35  and  S_44
   12  A    between atoms: C_36  and  S_49
   13  A    between atoms: C_39  and  C_47
                            x       y       z     vdW  Elec       q    Type
                         _______ _______ _______ _____ _____    ______ ____

>  <TORSDO>
F 13

$$$$
=
 OpenBabel11062414543D

 51 56  0  0  1  0  0  0  0  0999 V2000
  188.3950  176.2210  136.7770 N   0  0  0  0  0  0  0  0  0  0  0  0
  189.5000  176.3520  139.7290 N   0  0  1  0  0  0  0  0  0  0  0  0
  190.2820  176.3920  138.4860 C   0  0  1  0  0  3  0  0  0  0  0  0
  188.2320  179.2090  141.4190 O   0  0  0  0  0  0  0  0  0  0  0  0
  187.4810  177.4350  138.7910 C   0  0  0  0  0  2  0  0  0  0  0  0
  194.0830  176.3490  138.4200 C   0  0  0  0  0  2  0  0  0  0  0  0
  188.3710  177.8220  141.1900 C   0  0  1  0  0  0  0  0  0  0  0  0
  186.3490  178.0560  142.1980 C   0  0  0  0  0  3  0  0  0  0  0  0
  189.5920  177.2110  141.8780 C   0  0  1  0  0  3  0  0  0  0  0  0
  187.0080  179.3800  142.0980 C   0  0  0  0  0  2  0  0  0  0  0  0
  191.6540  175.7290  138.5710 C   0  0  2  0  0  3  0  0  0  0  0  0
  190.3390  176.4740  140.8580 N   0  0  0  0  0  2  0  0  0  0  0  0
  192.7210  176.7610  138.9640 C   0  0  0  0  0  2  0  0  0  0  0  0
  190.5910  175.1720  136.4190 C   0  0  0  0  0  2  0  0  0  0  0  0
  189.5450  175.5740  137.4340 C   0  0  2  0  0  3  0  0  0  0  0  0
  187.9880  177.5220  137.3480 C   0  0  2  0  0  3  0  0  0  0  0  0
  187.1360  177.1480  141.6760 C   0  0  0  0  0  3  0  0  0  0  0  0
  187.2870  175.2730  136.8230 C   0  0  0  0  0  1  0  0  0  0  0  0
  193.0160  175.6490  136.4040 C   0  0  0  0  0  3  0  0  0  0  0  0
  194.0090  176.2360  136.9820 N   0  0  0  0  0  0  0  0  0  0  0  0
  191.8870  175.0520  137.2000 C   0  0  1  0  0  3  0  0  0  0  0  0
  188.6760  177.5470  139.7370 C   0  0  1  0  0  3  0  0  0  0  0  0
  190.5130  178.2440  142.5240 C   0  0  0  0  0  2  0  0  0  0  0  0
  190.6830  177.6740  144.9960 N   0  0  0  0  0  2  0  0  0  0  0  0
  192.4290  177.2390  143.5350 O   0  0  0  0  0  0  0  0  0  0  0  0
  191.2570  177.6700  143.6890 C   0  0  0  0  0  0  0  0  0  0  0  0
  189.3830  178.2530  145.2770 C   0  0  0  0  0  2  0  0  0  0  0  0
  188.3490  177.1590  145.4690 C   0  0  0  0  0  2  0  0  0  0  0  0
  187.3100  177.5460  146.5200 C   0  0  2  0  0  3  0  0  0  0  0  0
  185.6760  179.2930  146.9710 N   0  0  0  0  0  1  0  0  0  0  0  0
  186.2380  178.4520  145.9280 C   0  0  0  0  0  2  0  0  0  0  0  0
  187.9320  177.4180  148.8490 O   0  0  0  0  0  1  0  0  0  0  0  0
  187.9790  178.2300  147.7120 C   0  0  0  0  0  2  0  0  0  0  0  0
  186.7710  178.3570  136.2760 S   0  0  0  0  0  0  0  0  0  0  0  0
  185.4210  177.3360  136.8620 C   0  0  0  0  0  3  0  0  0  0  0  0
  184.1950  177.5020  136.3670 C   0  0  0  0  0  3  0  0  0  0  0  0
  183.0510  176.6700  136.8420 C   0  0  0  0  0  2  0  0  0  0  0  0
  180.9960  176.9570  137.9990 O   0  0  0  0  0  0  0  0  0  0  0  0
  182.2310  178.9150  137.6520 N   0  0  0  0  0  2  0  0  0  0  0  0
  182.0260  177.5060  137.5280 C   0  0  0  0  0  0  0  0  0  0  0  0
  179.8670  180.1080  137.8620 O   0  0  0  0  0  0  0  0  0  0  0  0
  181.8420  181.3290  138.6390 O   0  0  0  0  0  0  0  0  0  0  0  0
  181.1960  179.9760  138.5550 S   0  0  0  0  0  0  0  0  0  0  0  0
  183.2160  178.4390  142.9710 F   0  0  0  0  0  0  0  0  0  0  0  0
  180.6270  179.2810  143.2200 S   0  0  0  0  0  0  0  0  0  0  0  0
  179.5040  178.5190  141.9990 C   0  0  2  0  0  3  0  0  0  0  0  0
  182.1180  178.8590  142.3010 C   0  0  0  0  0  0  0  0  0  0  0  0
  180.9770  179.3220  140.1690 C   0  0  0  0  0  0  0  0  0  0  0  0
  179.7180  177.1530  141.9490 F   0  0  0  0  0  0  0  0  0  0  0  0
  182.1710  178.9950  140.9730 C   0  0  0  0  0  3  0  0  0  0  0  0
  179.7420  179.1250  140.6450 C   0  0  0  0  0  3  0  0  0  0  0  0
  1 18  1  0  0  0  0
  1 16  1  0  0  0  0
  1 15  1  0  0  0  0
  2 22  1  0  0  0  0
  2 12  1  1  0  0  0
  3 11  1  0  0  0  0
  3  2  1  0  0  0  0
  4 10  1  0  0  0  0
  5 22  1  0  0  0  0
  6 13  1  0  0  0  0
  7  4  1  0  0  0  0
  7 17  1  0  0  0  0
  7  9  1  0  0  0  0
  9 23  1  0  0  0  0
 10  8  1  0  0  0  0
 11 13  1  0  0  0  0
 12  9  1  0  0  0  0
 14 21  1  0  0  0  0
 14 15  1  0  0  0  0
 15  3  1  0  0  0  0
 16  5  1  0  0  0  0
 17  8  2  0  0  0  0
 19 20  2  0  0  0  0
 19 21  1  0  0  0  0
 20  6  1  0  0  0  0
 21 11  1  0  0  0  0
 22  7  1  0  0  0  0
 23 26  1  0  0  0  0
 24 27  1  0  0  0  0
 25 26  2  0  0  0  0
 26 24  1  0  0  0  0
 27 28  1  0  0  0  0
 28 29  1  0  0  0  0
 29 33  1  0  0  0  0
 31 29  1  0  0  0  0
 31 30  1  0  0  0  0
 33 32  1  0  0  0  0
 34 35  1  0  0  0  0
 34 16  1  0  0  0  0
 36 37  1  0  0  0  0
 36 35  2  0  0  0  0
 37 40  1  0  0  0  0
 39 43  1  0  0  0  0
 40 39  1  0  0  0  0
 40 38  2  0  0  0  0
 41 43  2  0  0  0  0
 43 42  2  0  0  0  0
 43 48  1  0  0  0  0
 46 45  1  0  0  0  0
 47 44  1  0  0  0  0
 47 45  1  0  0  0  0
 48 51  2  0  0  0  0
 48 50  1  0  0  0  0
 49 46  1  0  0  0  0
 50 47  2  0  0  0  0
 51 46  1  0  0  0  0
M  END
>  <MODEL>
8

>  <REMARK>
 VINA RESULT:      -5.8      3.305      8.587
  Name = 
  13 active torsions:
  status: ('A' for Active; 'I' for Inactive)
    1  A    between atoms: C_14  and  C_16
    2  A    between atoms: C_14  and  C_39
    3  A    between atoms: C_16  and  N_22
    4  A    between atoms: C_19  and  C_32
    5  A    between atoms: C_20  and  S_44
    6  A    between atoms: C_28  and  C_39
    7  A    between atoms: C_29  and  S_49
    8  A    between atoms: C_32  and  C_50
    9  A    between atoms: C_33  and  C_43
   10  A    between atoms: C_33  and  C_51
   11  A    between atoms: N_35  and  S_44
   12  A    between atoms: C_36  and  S_49
   13  A    between atoms: C_39  and  C_47
                            x       y       z     vdW  Elec       q    Type
                         _______ _______ _______ _____ _____    ______ ____

>  <TORSDO>
F 13

$$$$
=
 OpenBabel11062414543D

 51 56  0  0  1  0  0  0  0  0999 V2000
  184.8860  178.8190  139.1310 N   0  0  0  0  0  0  0  0  0  0  0  0
  182.9800  176.8150  137.6140 N   0  0  1  0  0  0  0  0  0  0  0  0
  184.4470  176.8610  137.5550 C   0  0  1  0  0  3  0  0  0  0  0  0
  181.1030  174.8730  139.9240 O   0  0  0  0  0  0  0  0  0  0  0  0
  182.7930  177.6590  139.9340 C   0  0  0  0  0  2  0  0  0  0  0  0
  186.5010  174.6870  135.2090 C   0  0  0  0  0  2  0  0  0  0  0  0
  181.2620  175.8430  138.9080 C   0  0  1  0  0  0  0  0  0  0  0  0
  179.3620  176.4370  140.0010 C   0  0  0  0  0  3  0  0  0  0  0  0
  181.2760  175.2510  137.4990 C   0  0  1  0  0  3  0  0  0  0  0  0
  179.8970  175.1830  140.5840 C   0  0  0  0  0  2  0  0  0  0  0  0
  185.0450  176.4750  136.2060 C   0  0  2  0  0  3  0  0  0  0  0  0
  182.4750  175.7550  136.8290 N   0  0  0  0  0  2  0  0  0  0  0  0
  185.3560  174.9710  136.1710 C   0  0  0  0  0  2  0  0  0  0  0  0
  186.2650  178.4030  137.1370 C   0  0  0  0  0  2  0  0  0  0  0  0
  184.8860  178.3070  137.7490 C   0  0  2  0  0  3  0  0  0  0  0  0
  184.2890  177.9190  140.1410 C   0  0  2  0  0  3  0  0  0  0  0  0
  180.1480  176.8220  139.0260 C   0  0  0  0  0  3  0  0  0  0  0  0
  184.1900  180.1010  139.1130 C   0  0  0  0  0  1  0  0  0  0  0  0
  187.5920  176.6580  135.9960 C   0  0  0  0  0  3  0  0  0  0  0  0
  187.6710  175.4250  135.6270 N   0  0  0  0  0  0  0  0  0  0  0  0
  186.2760  177.3900  136.0070 C   0  0  1  0  0  3  0  0  0  0  0  0
  182.6320  176.4750  138.9810 C   0  0  1  0  0  3  0  0  0  0  0  0
  181.2950  173.7240  137.4750 C   0  0  0  0  0  2  0  0  0  0  0  0
  179.8740  172.4720  135.7780 N   0  0  0  0  0  2  0  0  0  0  0  0
  178.9470  173.3510  137.7120 O   0  0  0  0  0  0  0  0  0  0  0  0
  179.9840  173.1610  137.0230 C   0  0  0  0  0  0  0  0  0  0  0  0
  180.9970  172.3070  134.8740 C   0  0  0  0  0  2  0  0  0  0  0  0
  181.4070  170.8480  134.8020 C   0  0  0  0  0  2  0  0  0  0  0  0
  182.9020  170.6700  135.0560 C   0  0  2  0  0  3  0  0  0  0  0  0
  183.5180  171.4300  137.2850 N   0  0  0  0  0  1  0  0  0  0  0  0
  183.1710  170.2580  136.4980 C   0  0  0  0  0  2  0  0  0  0  0  0
  185.0370  171.7210  134.6510 O   0  0  0  0  0  1  0  0  0  0  0  0
  183.6610  171.9540  134.7240 C   0  0  0  0  0  2  0  0  0  0  0  0
  184.6200  178.5200  141.8320 S   0  0  0  0  0  0  0  0  0  0  0  0
  186.3190  178.9380  141.4470 C   0  0  0  0  0  3  0  0  0  0  0  0
  187.2800  178.0260  141.5900 C   0  0  0  0  0  3  0  0  0  0  0  0
  188.7040  178.3500  141.2840 C   0  0  0  0  0  2  0  0  0  0  0  0
  189.7760  179.4810  143.0770 O   0  0  0  0  0  0  0  0  0  0  0  0
  190.0170  177.1520  143.0750 N   0  0  0  0  0  2  0  0  0  0  0  0
  189.5280  178.3770  142.5240 C   0  0  0  0  0  0  0  0  0  0  0  0
  192.0100  177.9940  144.6160 O   0  0  0  0  0  0  0  0  0  0  0  0
  191.3820  175.6310  144.7420 O   0  0  0  0  0  0  0  0  0  0  0  0
  190.8560  177.0290  144.5890 S   0  0  0  0  0  0  0  0  0  0  0  0
  186.0720  177.7670  146.1780 F   0  0  0  0  0  0  0  0  0  0  0  0
  187.7310  176.8880  148.1660 S   0  0  0  0  0  0  0  0  0  0  0  0
  189.2770  177.8510  148.2880 C   0  0  2  0  0  3  0  0  0  0  0  0
  187.3520  177.4690  146.5030 C   0  0  0  0  0  0  0  0  0  0  0  0
  189.7360  177.3870  145.8930 C   0  0  0  0  0  0  0  0  0  0  0  0
  188.9930  179.2040  148.2600 F   0  0  0  0  0  0  0  0  0  0  0  0
  188.3060  177.5690  145.5740 C   0  0  0  0  0  3  0  0  0  0  0  0
  190.1870  177.4940  147.1480 C   0  0  0  0  0  3  0  0  0  0  0  0
  1 16  1  0  0  0  0
  2 12  1  6  0  0  0
  2 22  1  0  0  0  0
  3  2  1  0  0  0  0
  3 15  1  0  0  0  0
  4 10  1  0  0  0  0
  5 16  1  0  0  0  0
  6 20  1  0  0  0  0
  6 13  1  0  0  0  0
  7 22  1  0  0  0  0
  7 17  1  0  0  0  0
  7  4  1  0  0  0  0
  8 10  1  0  0  0  0
  9  7  1  0  0  0  0
 11  3  1  0  0  0  0
 12  9  1  0  0  0  0
 13 11  1  0  0  0  0
 14 15  1  0  0  0  0
 15  1  1  0  0  0  0
 16 34  1  0  0  0  0
 17  8  2  0  0  0  0
 18  1  1  0  0  0  0
 19 21  1  0  0  0  0
 20 19  2  0  0  0  0
 21 11  1  0  0  0  0
 21 14  1  0  0  0  0
 22  5  1  0  0  0  0
 23  9  1  0  0  0  0
 24 26  1  0  0  0  0
 26 23  1  0  0  0  0
 26 25  2  0  0  0  0
 27 24  1  0  0  0  0
 28 27  1  0  0  0  0
 28 29  1  0  0  0  0
 29 31  1  0  0  0  0
 31 30  1  0  0  0  0
 32 33  1  0  0  0  0
 33 29  1  0  0  0  0
 35 36  2  0  0  0  0
 35 34  1  0  0  0  0
 37 36  1  0  0  0  0
 37 40  1  0  0  0  0
 39 43  1  0  0  0  0
 40 39  1  0  0  0  0
 40 38  2  0  0  0  0
 43 41  2  0  0  0  0
 43 42  2  0  0  0  0
 43 48  1  0  0  0  0
 44 47  1  0  0  0  0
 45 46  1  0  0  0  0
 47 45  1  0  0  0  0
 48 51  2  0  0  0  0
 49 46  1  0  0  0  0
 50 48  1  0  0  0  0
 50 47  2  0  0  0  0
 51 46  1  0  0  0  0
M  END
>  <MODEL>
9

>  <REMARK>
 VINA RESULT:      -5.8      2.376      4.987
  Name = 
  13 active torsions:
  status: ('A' for Active; 'I' for Inactive)
    1  A    between atoms: C_14  and  C_16
    2  A    between atoms: C_14  and  C_39
    3  A    between atoms: C_16  and  N_22
    4  A    between atoms: C_19  and  C_32
    5  A    between atoms: C_20  and  S_44
    6  A    between atoms: C_28  and  C_39
    7  A    between atoms: C_29  and  S_49
    8  A    between atoms: C_32  and  C_50
    9  A    between atoms: C_33  and  C_43
   10  A    between atoms: C_33  and  C_51
   11  A    between atoms: N_35  and  S_44
   12  A    between atoms: C_36  and  S_49
   13  A    between atoms: C_39  and  C_47
                            x       y       z     vdW  Elec       q    Type
                         _______ _______ _______ _____ _____    ______ ____

>  <TORSDO>
F 13

$$$$
