=
 OpenBabel11062412253D

 37 42  0  0  1  0  0  0  0  0999 V2000
  182.2380  178.9480  143.3920 C   0  0  0  0  0  3  0  0  0  0  0  0
  184.1160  178.1790  141.8650 S   0  0  0  0  0  0  0  0  0  0  0  0
  185.7460  178.3390  145.5540 C   0  0  0  0  0  0  0  0  0  0  0  0
  190.1790  177.0310  144.8020 N   0  0  0  0  0  0  0  0  0  0  0  0
  186.9400  178.1350  146.2660 C   0  0  0  0  0  3  0  0  0  0  0  0
  189.8740  177.4880  147.1120 O   0  0  0  0  0  0  0  0  0  0  0  0
  183.4410  178.9700  145.5630 C   0  0  0  0  0  3  0  0  0  0  0  0
  184.4930  178.3360  143.4940 C   0  0  0  0  0  0  0  0  0  0  0  0
  186.8580  177.6940  143.4500 C   0  0  0  0  0  3  0  0  0  0  0  0
  185.7070  178.1160  144.1420 C   0  0  0  0  0  0  0  0  0  0  0  0
  184.6230  178.7550  146.2110 N   0  0  0  0  0  0  0  0  0  0  0  0
  188.0560  177.7150  145.5440 C   0  0  0  0  0  0  0  0  0  0  0  0
  183.3710  178.7590  144.1870 C   0  0  0  0  0  0  0  0  0  0  0  0
  188.0240  177.5030  144.1910 C   0  0  0  0  0  0  0  0  0  0  0  0
  182.5010  178.6440  142.0590 C   0  0  0  0  0  0  0  0  0  0  0  0
  189.3700  177.0800  143.7830 C   0  0  0  0  0  0  0  0  0  0  0  0
  189.4130  177.4200  145.9430 C   0  0  0  0  0  0  0  0  0  0  0  0
  189.5530  177.6700  141.3480 N   0  0  0  0  0  2  0  0  0  0  0  0
  189.7940  176.7490  142.4140 C   0  0  0  0  0  0  0  0  0  0  0  0
  190.3730  175.6530  142.1860 O   0  0  0  0  0  0  0  0  0  0  0  0
  191.5270  177.4310  139.6000 O   0  0  0  0  0  0  0  0  0  0  0  0
  189.3000  178.5730  138.6520 C   0  0  0  0  0  1  0  0  0  0  0  0
  189.5550  175.9890  139.3020 O   0  0  0  0  0  0  0  0  0  0  0  0
  190.0310  177.3530  139.7160 S   0  0  0  0  0  0  0  0  0  0  0  0
  181.5330  178.8220  140.9450 C   0  0  0  0  0  2  0  0  0  0  0  0
  182.6140  177.9100  137.6850 C   0  0  0  0  0  1  0  0  0  0  0  0
  182.3420  179.2490  138.3430 C   0  0  2  0  0  0  0  0  0  0  0  0
  184.4910  180.4860  138.9960 O   0  0  0  0  0  0  0  0  0  0  0  0
  183.4100  179.8430  138.9940 C   0  0  0  0  0  0  0  0  0  0  0  0
  182.2540  179.1520  139.7280 N   0  0  0  0  0  0  0  0  0  0  0  0
  181.2840  180.1780  137.7610 C   0  0  0  0  0  2  0  0  0  0  0  0
  181.1070  181.4370  138.6000 C   0  0  1  0  0  3  0  0  0  0  0  0
  181.4580  182.6540  137.7610 C   0  0  0  0  0  2  0  0  0  0  0  0
  180.1530  183.3590  137.4580 C   0  0  0  0  0  2  0  0  0  0  0  0
  179.6520  181.5970  139.0130 C   0  0  2  0  0  3  0  0  0  0  0  0
  179.2300  182.9880  138.5930 C   0  0  0  0  0  2  0  0  0  0  0  0
  179.5340  181.4670  140.3960 O   0  0  0  0  0  1  0  0  0  0  0  0
  1 13  1  0  0  0  0
  2 15  1  0  0  0  0
  2  8  1  0  0  0  0
  3 11  1  0  0  0  0
  3  5  1  0  0  0  0
  4 17  1  0  0  0  0
  7 11  2  0  0  0  0
  8 10  1  0  0  0  0
  8 13  2  0  0  0  0
  9 10  1  0  0  0  0
  9 14  2  0  0  0  0
 10  3  2  0  0  0  0
 12 17  1  0  0  0  0
 12  5  2  0  0  0  0
 13  7  1  0  0  0  0
 14 12  1  0  0  0  0
 15  1  2  0  0  0  0
 16 14  1  0  0  0  0
 16  4  2  0  0  0  0
 17  6  2  0  0  0  0
 18 19  1  0  0  0  0
 19 16  1  0  0  0  0
 20 19  2  0  0  0  0
 21 24  2  0  0  0  0
 22 24  1  0  0  0  0
 23 24  2  0  0  0  0
 24 18  1  0  0  0  0
 25 15  1  0  0  0  0
 27 26  1  6  0  0  0
 27 29  1  0  0  0  0
 27 30  1  0  0  0  0
 29 28  2  0  0  0  0
 29 30  1  0  0  0  0
 30 25  1  0  0  0  0
 31 27  1  0  0  0  0
 32 31  1  6  0  0  0
 32 35  1  0  0  0  0
 33 32  1  0  0  0  0
 34 33  1  0  0  0  0
 34 36  1  0  0  0  0
 35 37  1  1  0  0  0
 36 35  1  0  0  0  0
M  END
>  <MODEL>
1

>  <REMARK>
 VINA RESULT:     -10.5      0.000      0.000
  Name = 
  6 active torsions:
  status: ('A' for Active; 'I' for Inactive)
    1  A    between atoms: C_2  and  C_25
    2  A    between atoms: C_8  and  C_32
    3  A    between atoms: C_8  and  N_34
    4  A    between atoms: N_11  and  S_35
    5  A    between atoms: C_21  and  C_36
    6  A    between atoms: C_24  and  C_25
                            x       y       z     vdW  Elec       q    Type
                         _______ _______ _______ _____ _____    ______ ____

>  <TORSDO>
F 6

$$$$
=
 OpenBabel11062412253D

 37 42  0  0  1  0  0  0  0  0999 V2000
  183.6190  178.7010  144.6850 C   0  0  0  0  0  3  0  0  0  0  0  0
  185.1880  178.3520  142.7180 S   0  0  0  0  0  0  0  0  0  0  0  0
  187.4800  177.8610  146.0040 C   0  0  0  0  0  0  0  0  0  0  0  0
  191.7120  176.9660  144.2120 N   0  0  0  0  0  0  0  0  0  0  0  0
  188.7890  177.5840  146.4320 C   0  0  0  0  0  3  0  0  0  0  0  0
  191.8390  176.9380  146.5830 O   0  0  0  0  0  0  0  0  0  0  0  0
  185.2080  178.3540  146.5600 C   0  0  0  0  0  3  0  0  0  0  0  0
  185.8630  178.2010  144.2500 C   0  0  0  0  0  0  0  0  0  0  0  0
  188.1860  177.7070  143.6480 C   0  0  0  0  0  3  0  0  0  0  0  0
  187.1790  177.9220  144.6080 C   0  0  0  0  0  0  0  0  0  0  0  0
  186.4940  178.0780  146.9250 N   0  0  0  0  0  0  0  0  0  0  0  0
  189.7560  177.3750  145.4500 C   0  0  0  0  0  0  0  0  0  0  0  0
  184.8840  178.4180  145.2060 C   0  0  0  0  0  0  0  0  0  0  0  0
  189.4730  177.4350  144.1100 C   0  0  0  0  0  0  0  0  0  0  0  0
  183.6320  178.6820  143.2920 C   0  0  0  0  0  0  0  0  0  0  0  0
  190.7260  177.1730  143.3870 C   0  0  0  0  0  0  0  0  0  0  0  0
  191.1680  177.0790  145.5270 C   0  0  0  0  0  0  0  0  0  0  0  0
  189.7590  176.9130  141.0830 N   0  0  0  0  0  2  0  0  0  0  0  0
  190.8900  177.1440  141.9260 C   0  0  0  0  0  0  0  0  0  0  0  0
  192.0300  177.3260  141.4220 O   0  0  0  0  0  0  0  0  0  0  0  0
  190.6280  178.0810  138.8720 O   0  0  0  0  0  0  0  0  0  0  0  0
  188.2390  176.8910  138.6670 C   0  0  0  0  0  1  0  0  0  0  0  0
  190.5820  175.6210  138.9230 O   0  0  0  0  0  0  0  0  0  0  0  0
  189.8750  176.8740  139.3580 S   0  0  0  0  0  0  0  0  0  0  0  0
  182.4690  179.0260  142.4320 C   0  0  0  0  0  2  0  0  0  0  0  0
  182.9750  176.9010  139.6300 C   0  0  0  0  0  1  0  0  0  0  0  0
  182.6050  178.3660  139.7580 C   0  0  2  0  0  0  0  0  0  0  0  0
  184.5740  179.9330  139.2590 O   0  0  0  0  0  0  0  0  0  0  0  0
  183.6580  179.2650  139.8050 C   0  0  0  0  0  0  0  0  0  0  0  0
  182.8370  178.8630  141.0360 N   0  0  0  0  0  0  0  0  0  0  0  0
  181.2920  178.8700  139.1720 C   0  0  0  0  0  2  0  0  0  0  0  0
  181.1000  180.3630  139.4050 C   0  0  1  0  0  3  0  0  0  0  0  0
  181.1870  181.0950  138.0760 C   0  0  0  0  0  2  0  0  0  0  0  0
  179.7820  181.5450  137.7390 C   0  0  0  0  0  2  0  0  0  0  0  0
  179.7120  180.6380  139.9630 C   0  0  2  0  0  3  0  0  0  0  0  0
  179.0800  181.6820  139.0680 C   0  0  0  0  0  2  0  0  0  0  0  0
  179.8110  181.1290  141.2630 O   0  0  0  0  0  1  0  0  0  0  0  0
  1 13  1  0  0  0  0
  2 15  1  0  0  0  0
  2  8  1  0  0  0  0
  3  5  1  0  0  0  0
  3 11  1  0  0  0  0
  4 17  1  0  0  0  0
  7 11  2  0  0  0  0
  8 10  1  0  0  0  0
  8 13  2  0  0  0  0
  9 14  2  0  0  0  0
  9 10  1  0  0  0  0
 10  3  2  0  0  0  0
 12 17  1  0  0  0  0
 12  5  2  0  0  0  0
 13  7  1  0  0  0  0
 14 12  1  0  0  0  0
 15  1  2  0  0  0  0
 16 14  1  0  0  0  0
 16  4  2  0  0  0  0
 17  6  2  0  0  0  0
 18 19  1  0  0  0  0
 19 16  1  0  0  0  0
 20 19  2  0  0  0  0
 21 24  2  0  0  0  0
 22 24  1  0  0  0  0
 23 24  2  0  0  0  0
 24 18  1  0  0  0  0
 25 15  1  0  0  0  0
 27 26  1  6  0  0  0
 27 29  1  0  0  0  0
 27 30  1  0  0  0  0
 28 29  2  0  0  0  0
 29 30  1  0  0  0  0
 30 25  1  0  0  0  0
 31 27  1  0  0  0  0
 32 31  1  6  0  0  0
 32 35  1  0  0  0  0
 33 32  1  0  0  0  0
 34 33  1  0  0  0  0
 34 36  1  0  0  0  0
 35 37  1  1  0  0  0
 36 35  1  0  0  0  0
M  END
>  <MODEL>
2

>  <REMARK>
 VINA RESULT:     -10.4      1.279      1.635
  Name = 
  6 active torsions:
  status: ('A' for Active; 'I' for Inactive)
    1  A    between atoms: C_2  and  C_25
    2  A    between atoms: C_8  and  C_32
    3  A    between atoms: C_8  and  N_34
    4  A    between atoms: N_11  and  S_35
    5  A    between atoms: C_21  and  C_36
    6  A    between atoms: C_24  and  C_25
                            x       y       z     vdW  Elec       q    Type
                         _______ _______ _______ _____ _____    ______ ____

>  <TORSDO>
F 6

$$$$
=
 OpenBabel11062412253D

 37 42  0  0  1  0  0  0  0  0999 V2000
  186.9810  177.8030  146.4910 C   0  0  0  0  0  3  0  0  0  0  0  0
  187.3830  177.4600  144.0060 S   0  0  0  0  0  0  0  0  0  0  0  0
  183.5810  178.7870  144.2940 C   0  0  0  0  0  0  0  0  0  0  0  0
  182.1550  178.8700  139.8360 N   0  0  0  0  0  0  0  0  0  0  0  0
  182.4400  179.1070  143.5390 C   0  0  0  0  0  3  0  0  0  0  0  0
  180.3860  179.6000  141.2420 O   0  0  0  0  0  0  0  0  0  0  0  0
  184.6340  178.6080  146.4330 C   0  0  0  0  0  3  0  0  0  0  0  0
  185.8630  178.0260  144.4480 C   0  0  0  0  0  0  0  0  0  0  0  0
  184.8080  178.1880  142.2420 C   0  0  0  0  0  3  0  0  0  0  0  0
  184.7670  178.3270  143.6420 C   0  0  0  0  0  0  0  0  0  0  0  0
  183.5540  178.9100  145.6550 N   0  0  0  0  0  0  0  0  0  0  0  0
  182.5230  178.9580  142.1550 C   0  0  0  0  0  0  0  0  0  0  0  0
  185.8060  178.1590  145.8260 C   0  0  0  0  0  0  0  0  0  0  0  0
  183.6570  178.5160  141.5260 C   0  0  0  0  0  0  0  0  0  0  0  0
  187.9680  177.4030  145.5920 C   0  0  0  0  0  0  0  0  0  0  0  0
  183.3720  178.4790  140.0850 C   0  0  0  0  0  0  0  0  0  0  0  0
  181.5660  179.1860  141.0970 C   0  0  0  0  0  0  0  0  0  0  0  0
  184.0200  176.9040  138.2390 N   0  0  0  0  0  2  0  0  0  0  0  0
  184.3060  178.0600  139.0300 C   0  0  0  0  0  0  0  0  0  0  0  0
  185.3560  178.7240  138.8250 O   0  0  0  0  0  0  0  0  0  0  0  0
  185.0820  177.3600  135.8570 O   0  0  0  0  0  0  0  0  0  0  0  0
  184.4650  174.8040  136.3580 C   0  0  0  0  0  1  0  0  0  0  0  0
  186.4580  176.1680  137.5130 O   0  0  0  0  0  0  0  0  0  0  0  0
  185.0670  176.3560  136.9750 S   0  0  0  0  0  0  0  0  0  0  0  0
  189.3040  176.8810  145.9820 C   0  0  0  0  0  2  0  0  0  0  0  0
  191.9740  175.6980  143.9580 C   0  0  0  0  0  1  0  0  0  0  0  0
  190.8670  176.7060  143.7170 C   0  0  2  0  0  0  0  0  0  0  0  0
  191.6910  179.1310  143.8460 O   0  0  0  0  0  0  0  0  0  0  0  0
  191.1440  178.0180  144.0600 C   0  0  0  0  0  0  0  0  0  0  0  0
  190.2420  177.1000  144.8950 N   0  0  0  0  0  0  0  0  0  0  0  0
  189.8730  176.4830  142.5830 C   0  0  0  0  0  2  0  0  0  0  0  0
  190.0450  177.5040  141.4660 C   0  0  1  0  0  3  0  0  0  0  0  0
  191.2370  177.1150  140.6080 C   0  0  0  0  0  2  0  0  0  0  0  0
  190.6760  176.6170  139.2930 C   0  0  0  0  0  2  0  0  0  0  0  0
  188.8300  177.4990  140.5520 C   0  0  2  0  0  3  0  0  0  0  0  0
  189.3440  177.3120  139.1420 C   0  0  0  0  0  2  0  0  0  0  0  0
  188.1560  178.7160  140.6500 O   0  0  0  0  0  1  0  0  0  0  0  0
  2  8  1  0  0  0  0
  2 15  1  0  0  0  0
  3 11  1  0  0  0  0
  4 16  2  0  0  0  0
  4 17  1  0  0  0  0
  5  3  1  0  0  0  0
  8 13  2  0  0  0  0
  9 10  1  0  0  0  0
 10  3  2  0  0  0  0
 10  8  1  0  0  0  0
 11  7  2  0  0  0  0
 12  5  2  0  0  0  0
 13  7  1  0  0  0  0
 13  1  1  0  0  0  0
 14 12  1  0  0  0  0
 14  9  2  0  0  0  0
 15 25  1  0  0  0  0
 15  1  2  0  0  0  0
 16 14  1  0  0  0  0
 17  6  2  0  0  0  0
 17 12  1  0  0  0  0
 18 19  1  0  0  0  0
 19 16  1  0  0  0  0
 20 19  2  0  0  0  0
 21 24  2  0  0  0  0
 22 24  1  0  0  0  0
 24 23  2  0  0  0  0
 24 18  1  0  0  0  0
 27 26  1  1  0  0  0
 27 29  1  0  0  0  0
 27 30  1  0  0  0  0
 28 29  2  0  0  0  0
 29 30  1  0  0  0  0
 30 25  1  0  0  0  0
 31 27  1  0  0  0  0
 32 31  1  1  0  0  0
 33 32  1  0  0  0  0
 34 33  1  0  0  0  0
 35 37  1  6  0  0  0
 35 32  1  0  0  0  0
 36 34  1  0  0  0  0
 36 35  1  0  0  0  0
M  END
>  <MODEL>
3

>  <REMARK>
 VINA RESULT:     -10.2      2.684      7.843
  Name = 
  6 active torsions:
  status: ('A' for Active; 'I' for Inactive)
    1  A    between atoms: C_2  and  C_25
    2  A    between atoms: C_8  and  C_32
    3  A    between atoms: C_8  and  N_34
    4  A    between atoms: N_11  and  S_35
    5  A    between atoms: C_21  and  C_36
    6  A    between atoms: C_24  and  C_25
                            x       y       z     vdW  Elec       q    Type
                         _______ _______ _______ _____ _____    ______ ____

>  <TORSDO>
F 6

$$$$
=
 OpenBabel11062412253D

 37 42  0  0  1  0  0  0  0  0999 V2000
  182.3420  179.0010  143.1880 C   0  0  0  0  0  3  0  0  0  0  0  0
  184.3150  178.2590  141.7720 S   0  0  0  0  0  0  0  0  0  0  0  0
  185.6650  178.2200  145.5760 C   0  0  0  0  0  0  0  0  0  0  0  0
  190.1160  176.8480  145.0990 N   0  0  0  0  0  0  0  0  0  0  0  0
  186.7980  177.9590  146.3660 C   0  0  0  0  0  3  0  0  0  0  0  0
  189.6460  177.2100  147.3980 O   0  0  0  0  0  0  0  0  0  0  0  0
  183.3780  178.9010  145.4420 C   0  0  0  0  0  3  0  0  0  0  0  0
  184.5710  178.3350  143.4310 C   0  0  0  0  0  0  0  0  0  0  0  0
  186.9200  177.6440  143.5340 C   0  0  0  0  0  3  0  0  0  0  0  0
  185.7280  178.0600  144.1560 C   0  0  0  0  0  0  0  0  0  0  0  0
  184.5040  178.6310  146.1660 N   0  0  0  0  0  0  0  0  0  0  0  0
  187.9570  177.5460  145.7100 C   0  0  0  0  0  0  0  0  0  0  0  0
  183.4080  178.7530  144.0560 C   0  0  0  0  0  0  0  0  0  0  0  0
  188.0230  177.3940  144.3500 C   0  0  0  0  0  0  0  0  0  0  0  0
  182.7000  178.7500  141.8660 C   0  0  0  0  0  0  0  0  0  0  0  0
  189.3880  176.9590  144.0250 C   0  0  0  0  0  0  0  0  0  0  0  0
  189.2740  177.2040  146.1950 C   0  0  0  0  0  0  0  0  0  0  0  0
  189.6780  177.6080  141.6150 N   0  0  0  0  0  2  0  0  0  0  0  0
  189.9080  176.6800  142.6780 C   0  0  0  0  0  0  0  0  0  0  0  0
  190.5580  175.6210  142.4660 O   0  0  0  0  0  0  0  0  0  0  0  0
  189.8200  176.0030  139.5140 O   0  0  0  0  0  0  0  0  0  0  0  0
  192.0420  177.4060  140.0270 C   0  0  0  0  0  1  0  0  0  0  0  0
  189.7480  178.4280  139.0980 O   0  0  0  0  0  0  0  0  0  0  0  0
  190.2670  177.3500  140.0090 S   0  0  0  0  0  0  0  0  0  0  0  0
  181.8220  178.9980  140.6920 C   0  0  0  0  0  2  0  0  0  0  0  0
  181.2270  177.4110  137.5690 C   0  0  0  0  0  1  0  0  0  0  0  0
  182.0190  177.0050  138.7970 C   0  0  2  0  0  0  0  0  0  0  0  0
  180.8070  175.2470  140.2190 O   0  0  0  0  0  0  0  0  0  0  0  0
  181.3280  176.3010  139.7690 C   0  0  0  0  0  0  0  0  0  0  0  0
  181.7090  177.7800  139.9090 N   0  0  0  0  0  0  0  0  0  0  0  0
  183.5140  176.7350  138.6800 C   0  0  0  0  0  2  0  0  0  0  0  0
  184.1630  177.5850  137.5950 C   0  0  1  0  0  3  0  0  0  0  0  0
  185.3640  178.3110  138.1770 C   0  0  0  0  0  2  0  0  0  0  0  0
  186.5930  177.6470  137.5950 C   0  0  0  0  0  2  0  0  0  0  0  0
  184.6890  176.7020  136.4740 C   0  0  2  0  0  3  0  0  0  0  0  0
  186.1430  177.0690  136.2740 C   0  0  0  0  0  2  0  0  0  0  0  0
  183.9760  176.9480  135.3020 O   0  0  0  0  0  1  0  0  0  0  0  0
  1 13  1  0  0  0  0
  2 15  1  0  0  0  0
  2  8  1  0  0  0  0
  3 11  1  0  0  0  0
  3  5  2  0  0  0  0
  4 17  1  0  0  0  0
  7 11  2  0  0  0  0
  8 13  2  0  0  0  0
  8 10  1  0  0  0  0
  9 10  2  0  0  0  0
  9 14  1  0  0  0  0
 10  3  1  0  0  0  0
 12 17  1  0  0  0  0
 12  5  1  0  0  0  0
 13  7  1  0  0  0  0
 14 12  2  0  0  0  0
 15  1  2  0  0  0  0
 16 14  1  0  0  0  0
 16  4  2  0  0  0  0
 17  6  2  0  0  0  0
 18 19  1  0  0  0  0
 19 16  1  0  0  0  0
 20 19  2  0  0  0  0
 21 24  2  0  0  0  0
 23 24  2  0  0  0  0
 24 22  1  0  0  0  0
 24 18  1  0  0  0  0
 25 15  1  0  0  0  0
 27 26  1  6  0  0  0
 27 29  1  0  0  0  0
 27 30  1  0  0  0  0
 29 30  1  0  0  0  0
 29 28  2  0  0  0  0
 30 25  1  0  0  0  0
 31 27  1  0  0  0  0
 32 33  1  0  0  0  0
 32 31  1  1  0  0  0
 34 33  1  0  0  0  0
 35 37  1  6  0  0  0
 35 32  1  0  0  0  0
 36 35  1  0  0  0  0
 36 34  1  0  0  0  0
M  END
>  <MODEL>
4

>  <REMARK>
 VINA RESULT:     -10.1      2.395      3.505
  Name = 
  6 active torsions:
  status: ('A' for Active; 'I' for Inactive)
    1  A    between atoms: C_2  and  C_25
    2  A    between atoms: C_8  and  C_32
    3  A    between atoms: C_8  and  N_34
    4  A    between atoms: N_11  and  S_35
    5  A    between atoms: C_21  and  C_36
    6  A    between atoms: C_24  and  C_25
                            x       y       z     vdW  Elec       q    Type
                         _______ _______ _______ _____ _____    ______ ____

>  <TORSDO>
F 6

$$$$
=
 OpenBabel11062412253D

 37 42  0  0  1  0  0  0  0  0999 V2000
  190.8390  176.7390  141.5450 C   0  0  0  0  0  3  0  0  0  0  0  0
  188.5310  177.3740  140.6970 S   0  0  0  0  0  0  0  0  0  0  0  0
  188.2800  177.5910  144.7200 C   0  0  0  0  0  0  0  0  0  0  0  0
  183.8310  178.8640  145.4310 N   0  0  0  0  0  0  0  0  0  0  0  0
  187.4020  177.8750  145.7790 C   0  0  0  0  0  3  0  0  0  0  0  0
  184.9270  178.6300  147.5240 O   0  0  0  0  0  0  0  0  0  0  0  0
  190.4620  176.9410  143.9900 C   0  0  0  0  0  3  0  0  0  0  0  0
  188.7440  177.3810  142.3640 C   0  0  0  0  0  0  0  0  0  0  0  0
  186.4950  178.0390  143.0810 C   0  0  0  0  0  3  0  0  0  0  0  0
  187.8240  177.6750  143.3680 C   0  0  0  0  0  0  0  0  0  0  0  0
  189.5720  177.2300  144.9840 N   0  0  0  0  0  0  0  0  0  0  0  0
  186.0950  178.2340  145.4520 C   0  0  0  0  0  0  0  0  0  0  0  0
  190.0470  177.0160  142.6610 C   0  0  0  0  0  0  0  0  0  0  0  0
  185.6530  178.3130  144.1580 C   0  0  0  0  0  0  0  0  0  0  0  0
  190.1240  176.9150  140.3630 C   0  0  0  0  0  0  0  0  0  0  0  0
  184.2380  178.7080  144.2030 C   0  0  0  0  0  0  0  0  0  0  0  0
  184.9530  178.5800  146.2660 C   0  0  0  0  0  0  0  0  0  0  0  0
  181.9450  179.0030  143.2220 N   0  0  0  0  0  2  0  0  0  0  0  0
  183.3590  178.9080  143.0410 C   0  0  0  0  0  0  0  0  0  0  0  0
  183.8590  178.9960  141.8880 O   0  0  0  0  0  0  0  0  0  0  0  0
  180.0740  180.5150  142.1160 O   0  0  0  0  0  0  0  0  0  0  0  0
  179.7220  177.8770  141.8280 C   0  0  0  0  0  1  0  0  0  0  0  0
  181.6180  179.3250  140.6140 O   0  0  0  0  0  0  0  0  0  0  0  0
  180.8510  179.2460  141.9040 S   0  0  0  0  0  0  0  0  0  0  0  0
  190.6510  176.6200  139.0040 C   0  0  0  0  0  2  0  0  0  0  0  0
  189.7090  177.1300  135.6160 C   0  0  0  0  0  1  0  0  0  0  0  0
  189.0100  177.4070  136.9330 C   0  0  2  0  0  0  0  0  0  0  0  0
  189.0480  179.8910  137.5720 O   0  0  0  0  0  0  0  0  0  0  0  0
  189.2380  178.6490  137.5020 C   0  0  0  0  0  0  0  0  0  0  0  0
  189.8790  177.3540  138.0180 N   0  0  0  0  0  0  0  0  0  0  0  0
  187.6710  176.7450  137.2340 C   0  0  0  0  0  2  0  0  0  0  0  0
  186.4990  177.6780  136.9570 C   0  0  1  0  0  3  0  0  0  0  0  0
  185.6850  177.1310  135.7960 C   0  0  0  0  0  2  0  0  0  0  0  0
  184.3920  176.6080  136.3840 C   0  0  0  0  0  2  0  0  0  0  0  0
  185.5660  177.7270  138.1570 C   0  0  2  0  0  3  0  0  0  0  0  0
  184.1780  177.4100  137.6450 C   0  0  0  0  0  2  0  0  0  0  0  0
  185.5810  179.0030  138.7180 O   0  0  0  0  0  1  0  0  0  0  0  0
  1 13  1  0  0  0  0
  2  8  1  0  0  0  0
  3 11  1  0  0  0  0
  3  5  2  0  0  0  0
  4 17  1  0  0  0  0
  7 11  2  0  0  0  0
  8 13  2  0  0  0  0
  8 10  1  0  0  0  0
  9 10  2  0  0  0  0
  9 14  1  0  0  0  0
 10  3  1  0  0  0  0
 12  5  1  0  0  0  0
 12 17  1  0  0  0  0
 13  7  1  0  0  0  0
 14 16  1  0  0  0  0
 14 12  2  0  0  0  0
 15  2  1  0  0  0  0
 15  1  2  0  0  0  0
 16  4  2  0  0  0  0
 17  6  2  0  0  0  0
 19 18  1  0  0  0  0
 19 16  1  0  0  0  0
 20 19  2  0  0  0  0
 22 24  1  0  0  0  0
 23 24  2  0  0  0  0
 24 21  2  0  0  0  0
 24 18  1  0  0  0  0
 25 15  1  0  0  0  0
 27 26  1  6  0  0  0
 27 31  1  0  0  0  0
 27 29  1  0  0  0  0
 27 30  1  0  0  0  0
 29 28  2  0  0  0  0
 29 30  1  0  0  0  0
 30 25  1  0  0  0  0
 32 31  1  1  0  0  0
 32 35  1  0  0  0  0
 33 34  1  0  0  0  0
 33 32  1  0  0  0  0
 34 36  1  0  0  0  0
 35 37  1  6  0  0  0
 36 35  1  0  0  0  0
M  END
>  <MODEL>
5

>  <REMARK>
 VINA RESULT:     -10.0      3.169      6.854
  Name = 
  6 active torsions:
  status: ('A' for Active; 'I' for Inactive)
    1  A    between atoms: C_2  and  C_25
    2  A    between atoms: C_8  and  C_32
    3  A    between atoms: C_8  and  N_34
    4  A    between atoms: N_11  and  S_35
    5  A    between atoms: C_21  and  C_36
    6  A    between atoms: C_24  and  C_25
                            x       y       z     vdW  Elec       q    Type
                         _______ _______ _______ _____ _____    ______ ____

>  <TORSDO>
F 6

$$$$
=
 OpenBabel11062412253D

 37 42  0  0  1  0  0  0  0  0999 V2000
  182.3400  179.0110  143.2810 C   0  0  0  0  0  3  0  0  0  0  0  0
  184.2880  178.2680  141.8290 S   0  0  0  0  0  0  0  0  0  0  0  0
  185.7060  178.2320  145.6090 C   0  0  0  0  0  0  0  0  0  0  0  0
  190.1480  176.8610  145.0540 N   0  0  0  0  0  0  0  0  0  0  0  0
  186.8520  177.9720  146.3790 C   0  0  0  0  0  3  0  0  0  0  0  0
  189.7190  177.2250  147.3610 O   0  0  0  0  0  0  0  0  0  0  0  0
  183.4160  178.9120  145.5150 C   0  0  0  0  0  3  0  0  0  0  0  0
  184.5740  178.3460  143.4840 C   0  0  0  0  0  0  0  0  0  0  0  0
  186.9240  177.6550  143.5460 C   0  0  0  0  0  3  0  0  0  0  0  0
  185.7440  178.0720  144.1890 C   0  0  0  0  0  0  0  0  0  0  0  0
  184.5550  178.6430  146.2190 N   0  0  0  0  0  0  0  0  0  0  0  0
  188.0000  177.5590  145.7030 C   0  0  0  0  0  0  0  0  0  0  0  0
  183.4210  178.7630  144.1300 C   0  0  0  0  0  0  0  0  0  0  0  0
  188.0410  177.4060  144.3420 C   0  0  0  0  0  0  0  0  0  0  0  0
  182.6750  178.7590  141.9520 C   0  0  0  0  0  0  0  0  0  0  0  0
  189.4010  176.9720  143.9930 C   0  0  0  0  0  0  0  0  0  0  0  0
  189.3250  177.2170  146.1650 C   0  0  0  0  0  0  0  0  0  0  0  0
  189.6340  177.6110  141.5750 N   0  0  0  0  0  2  0  0  0  0  0  0
  189.8970  176.6920  142.6370 C   0  0  0  0  0  0  0  0  0  0  0  0
  190.5560  175.6410  142.4170 O   0  0  0  0  0  0  0  0  0  0  0  0
  191.6840  177.5300  139.9010 O   0  0  0  0  0  0  0  0  0  0  0  0
  189.4230  178.5390  138.8830 C   0  0  0  0  0  1  0  0  0  0  0  0
  189.8250  175.9670  139.5080 O   0  0  0  0  0  0  0  0  0  0  0  0
  190.1930  177.3530  139.9580 S   0  0  0  0  0  0  0  0  0  0  0  0
  181.7760  179.0060  140.7930 C   0  0  0  0  0  2  0  0  0  0  0  0
  179.8980  176.0340  140.2810 C   0  0  0  0  0  1  0  0  0  0  0  0
  180.7690  176.8730  139.3660 C   0  0  2  0  0  0  0  0  0  0  0  0
  183.0630  175.8120  138.9340 O   0  0  0  0  0  0  0  0  0  0  0  0
  182.1120  176.5400  139.3180 C   0  0  0  0  0  0  0  0  0  0  0  0
  181.5730  177.7650  140.0680 N   0  0  0  0  0  0  0  0  0  0  0  0
  180.1680  177.5000  138.1140 C   0  0  0  0  0  2  0  0  0  0  0  0
  181.2040  178.2750  137.3110 C   0  0  1  0  0  3  0  0  0  0  0  0
  181.3700  177.6270  135.9470 C   0  0  0  0  0  2  0  0  0  0  0  0
  180.7280  178.5630  134.9450 C   0  0  0  0  0  2  0  0  0  0  0  0
  180.7260  179.6970  137.0620 C   0  0  2  0  0  3  0  0  0  0  0  0
  180.8140  179.9340  135.5700 C   0  0  0  0  0  2  0  0  0  0  0  0
  181.5520  180.6000  137.7320 O   0  0  0  0  0  1  0  0  0  0  0  0
  1 13  1  0  0  0  0
  2 15  1  0  0  0  0
  2  8  1  0  0  0  0
  3 11  1  0  0  0  0
  3  5  2  0  0  0  0
  4 17  1  0  0  0  0
  7 11  2  0  0  0  0
  8 13  2  0  0  0  0
  8 10  1  0  0  0  0
  9 10  2  0  0  0  0
  9 14  1  0  0  0  0
 10  3  1  0  0  0  0
 12 17  1  0  0  0  0
 12  5  1  0  0  0  0
 13  7  1  0  0  0  0
 14 12  2  0  0  0  0
 15  1  2  0  0  0  0
 16 14  1  0  0  0  0
 16  4  2  0  0  0  0
 17  6  2  0  0  0  0
 18 19  1  0  0  0  0
 19 16  1  0  0  0  0
 20 19  2  0  0  0  0
 21 24  2  0  0  0  0
 22 24  1  0  0  0  0
 23 24  2  0  0  0  0
 24 18  1  0  0  0  0
 25 15  1  0  0  0  0
 27 30  1  0  0  0  0
 27 26  1  1  0  0  0
 28 29  2  0  0  0  0
 29 27  1  0  0  0  0
 29 30  1  0  0  0  0
 30 25  1  0  0  0  0
 31 27  1  0  0  0  0
 32 31  1  1  0  0  0
 33 32  1  0  0  0  0
 34 36  1  0  0  0  0
 34 33  1  0  0  0  0
 35 32  1  0  0  0  0
 35 37  1  1  0  0  0
 36 35  1  0  0  0  0
M  END
>  <MODEL>
6

>  <REMARK>
 VINA RESULT:      -9.8      1.581      2.250
  Name = 
  6 active torsions:
  status: ('A' for Active; 'I' for Inactive)
    1  A    between atoms: C_2  and  C_25
    2  A    between atoms: C_8  and  C_32
    3  A    between atoms: C_8  and  N_34
    4  A    between atoms: N_11  and  S_35
    5  A    between atoms: C_21  and  C_36
    6  A    between atoms: C_24  and  C_25
                            x       y       z     vdW  Elec       q    Type
                         _______ _______ _______ _____ _____    ______ ____

>  <TORSDO>
F 6

$$$$
=
 OpenBabel11062412253D

 37 42  0  0  1  0  0  0  0  0999 V2000
  191.3020  176.9810  141.9230 C   0  0  0  0  0  3  0  0  0  0  0  0
  189.0500  177.4950  140.8680 S   0  0  0  0  0  0  0  0  0  0  0  0
  188.4210  177.6710  144.8510 C   0  0  0  0  0  0  0  0  0  0  0  0
  183.8620  178.6950  145.1520 N   0  0  0  0  0  0  0  0  0  0  0  0
  187.4350  177.9000  145.8260 C   0  0  0  0  0  3  0  0  0  0  0  0
  184.7730  178.5080  147.3370 O   0  0  0  0  0  0  0  0  0  0  0  0
  190.6920  177.1460  144.3230 C   0  0  0  0  0  3  0  0  0  0  0  0
  189.1090  177.5030  142.5470 C   0  0  0  0  0  0  0  0  0  0  0  0
  186.7710  178.0320  143.0560 C   0  0  0  0  0  3  0  0  0  0  0  0
  188.0860  177.7390  143.4630 C   0  0  0  0  0  0  0  0  0  0  0  0
  189.7000  177.3790  145.2320 N   0  0  0  0  0  0  0  0  0  0  0  0
  186.1460  178.1890  145.3800 C   0  0  0  0  0  0  0  0  0  0  0  0
  190.3970  177.2070  142.9630 C   0  0  0  0  0  0  0  0  0  0  0  0
  185.8200  178.2530  144.0510 C   0  0  0  0  0  0  0  0  0  0  0  0
  190.6900  177.1260  140.6800 C   0  0  0  0  0  0  0  0  0  0  0  0
  184.3880  178.5700  143.9670 C   0  0  0  0  0  0  0  0  0  0  0  0
  184.9170  178.4670  146.0870 C   0  0  0  0  0  0  0  0  0  0  0  0
  184.2760  178.9910  141.4930 N   0  0  0  0  0  2  0  0  0  0  0  0
  183.6090  178.7290  142.7300 C   0  0  0  0  0  0  0  0  0  0  0  0
  182.3530  178.6330  142.7650 O   0  0  0  0  0  0  0  0  0  0  0  0
  182.0490  179.7180  140.2600 O   0  0  0  0  0  0  0  0  0  0  0  0
  183.2940  177.5980  139.2020 C   0  0  0  0  0  1  0  0  0  0  0  0
  184.1810  180.1220  139.1010 O   0  0  0  0  0  0  0  0  0  0  0  0
  183.4270  179.1810  139.9980 S   0  0  0  0  0  0  0  0  0  0  0  0
  191.3550  176.8680  139.3760 C   0  0  0  0  0  2  0  0  0  0  0  0
  190.4540  176.6390  135.9460 C   0  0  0  0  0  1  0  0  0  0  0  0
  189.6470  176.8610  137.2110 C   0  0  2  0  0  0  0  0  0  0  0  0
  188.9240  179.3030  137.5100 O   0  0  0  0  0  0  0  0  0  0  0  0
  189.4740  178.1760  137.6080 C   0  0  0  0  0  0  0  0  0  0  0  0
  190.4450  177.2080  138.2960 N   0  0  0  0  0  0  0  0  0  0  0  0
  188.5510  175.8740  137.5920 C   0  0  0  0  0  2  0  0  0  0  0  0
  187.5210  175.7080  136.4820 C   0  0  1  0  0  3  0  0  0  0  0  0
  187.1420  174.2420  136.3620 C   0  0  0  0  0  2  0  0  0  0  0  0
  185.7360  174.1150  136.9070 C   0  0  0  0  0  2  0  0  0  0  0  0
  186.2450  176.4610  136.8260 C   0  0  2  0  0  3  0  0  0  0  0  0
  185.1070  175.4720  136.7030 C   0  0  0  0  0  2  0  0  0  0  0  0
  186.0560  177.5110  135.9290 O   0  0  0  0  0  1  0  0  0  0  0  0
  1 13  1  0  0  0  0
  2  8  1  0  0  0  0
  3 11  1  0  0  0  0
  3  5  2  0  0  0  0
  4 17  1  0  0  0  0
  7 11  2  0  0  0  0
  8 13  2  0  0  0  0
  8 10  1  0  0  0  0
  9 10  2  0  0  0  0
  9 14  1  0  0  0  0
 10  3  1  0  0  0  0
 12  5  1  0  0  0  0
 12 17  1  0  0  0  0
 13  7  1  0  0  0  0
 14 12  2  0  0  0  0
 15  2  1  0  0  0  0
 15  1  2  0  0  0  0
 16 14  1  0  0  0  0
 16  4  2  0  0  0  0
 17  6  2  0  0  0  0
 18 19  1  0  0  0  0
 19 20  2  0  0  0  0
 19 16  1  0  0  0  0
 22 24  1  0  0  0  0
 23 24  2  0  0  0  0
 24 21  2  0  0  0  0
 24 18  1  0  0  0  0
 25 15  1  0  0  0  0
 27 26  1  6  0  0  0
 27 31  1  0  0  0  0
 27 29  1  0  0  0  0
 27 30  1  0  0  0  0
 28 29  2  0  0  0  0
 29 30  1  0  0  0  0
 30 25  1  0  0  0  0
 32 35  1  0  0  0  0
 32 31  1  1  0  0  0
 33 32  1  0  0  0  0
 33 34  1  0  0  0  0
 35 37  1  6  0  0  0
 36 35  1  0  0  0  0
 36 34  1  0  0  0  0
M  END
>  <MODEL>
7

>  <REMARK>
 VINA RESULT:      -9.6      3.083      7.066
  Name = 
  6 active torsions:
  status: ('A' for Active; 'I' for Inactive)
    1  A    between atoms: C_2  and  C_25
    2  A    between atoms: C_8  and  C_32
    3  A    between atoms: C_8  and  N_34
    4  A    between atoms: N_11  and  S_35
    5  A    between atoms: C_21  and  C_36
    6  A    between atoms: C_24  and  C_25
                            x       y       z     vdW  Elec       q    Type
                         _______ _______ _______ _____ _____    ______ ____

>  <TORSDO>
F 6

$$$$
=
 OpenBabel11062412253D

 37 42  0  0  1  0  0  0  0  0999 V2000
  181.4810  178.6890  139.6400 C   0  0  0  0  0  3  0  0  0  0  0  0
  183.8770  177.8520  139.7510 S   0  0  0  0  0  0  0  0  0  0  0  0
  182.9710  178.9830  143.5190 C   0  0  0  0  0  0  0  0  0  0  0  0
  186.9270  178.1000  145.8620 N   0  0  0  0  0  0  0  0  0  0  0  0
  183.4920  179.0820  144.8200 C   0  0  0  0  0  3  0  0  0  0  0  0
  185.3100  178.9930  147.3550 O   0  0  0  0  0  0  0  0  0  0  0  0
  181.1410  179.3140  142.0180 C   0  0  0  0  0  3  0  0  0  0  0  0
  183.2050  178.3930  141.1930 C   0  0  0  0  0  0  0  0  0  0  0  0
  185.1030  178.0520  142.7050 C   0  0  0  0  0  3  0  0  0  0  0  0
  183.7800  178.4650  142.4600 C   0  0  0  0  0  0  0  0  0  0  0  0
  181.6910  179.3870  143.2650 N   0  0  0  0  0  0  0  0  0  0  0  0
  184.8050  178.6600  145.0210 C   0  0  0  0  0  0  0  0  0  0  0  0
  181.9040  178.8120  140.9650 C   0  0  0  0  0  0  0  0  0  0  0  0
  185.5850  178.1650  144.0090 C   0  0  0  0  0  0  0  0  0  0  0  0
  182.4830  178.1450  138.8390 C   0  0  0  0  0  0  0  0  0  0  0  0
  186.8940  177.8340  144.5880 C   0  0  0  0  0  0  0  0  0  0  0  0
  185.6420  178.6240  146.1980 C   0  0  0  0  0  0  0  0  0  0  0  0
  189.3040  177.9520  143.8900 N   0  0  0  0  0  2  0  0  0  0  0  0
  188.0450  177.2780  143.8610 C   0  0  0  0  0  0  0  0  0  0  0  0
  187.9160  176.2040  143.2140 O   0  0  0  0  0  0  0  0  0  0  0  0
  191.8540  178.2990  143.2640 O   0  0  0  0  0  0  0  0  0  0  0  0
  190.3430  177.2260  141.3320 C   0  0  0  0  0  1  0  0  0  0  0  0
  191.0620  175.9930  143.5970 O   0  0  0  0  0  0  0  0  0  0  0  0
  190.7030  177.3530  143.0670 S   0  0  0  0  0  0  0  0  0  0  0  0
  182.3830  177.9650  137.3670 C   0  0  0  0  0  2  0  0  0  0  0  0
  184.7350  177.1270  134.8390 C   0  0  0  0  0  1  0  0  0  0  0  0
  184.7470  176.9760  136.3480 C   0  0  2  0  0  0  0  0  0  0  0  0
  184.3060  174.5660  137.1050 O   0  0  0  0  0  0  0  0  0  0  0  0
  184.2270  175.7960  136.8520 C   0  0  0  0  0  0  0  0  0  0  0  0
  183.4830  177.1360  136.9070 N   0  0  0  0  0  0  0  0  0  0  0  0
  185.8320  177.6600  137.1700 C   0  0  0  0  0  2  0  0  0  0  0  0
  187.2110  177.4930  136.5440 C   0  0  1  0  0  3  0  0  0  0  0  0
  187.9640  178.8090  136.6270 C   0  0  0  0  0  2  0  0  0  0  0  0
  189.0430  178.6220  137.6730 C   0  0  0  0  0  2  0  0  0  0  0  0
  188.0270  176.4740  137.3240 C   0  0  2  0  0  3  0  0  0  0  0  0
  189.3370  177.1420  137.6790 C   0  0  0  0  0  2  0  0  0  0  0  0
  188.2700  175.3520  136.5320 O   0  0  0  0  0  1  0  0  0  0  0  0
  1 13  1  0  0  0  0
  2  8  1  0  0  0  0
  3  5  2  0  0  0  0
  4 17  1  0  0  0  0
  5 12  1  0  0  0  0
  7 11  2  0  0  0  0
  8 10  1  0  0  0  0
  9 14  1  0  0  0  0
 10  9  2  0  0  0  0
 10  3  1  0  0  0  0
 11  3  1  0  0  0  0
 12 17  1  0  0  0  0
 13  8  2  0  0  0  0
 13  7  1  0  0  0  0
 14 16  1  0  0  0  0
 14 12  2  0  0  0  0
 15  1  2  0  0  0  0
 15  2  1  0  0  0  0
 16  4  2  0  0  0  0
 17  6  2  0  0  0  0
 19 18  1  0  0  0  0
 19 16  1  0  0  0  0
 20 19  2  0  0  0  0
 22 24  1  0  0  0  0
 24 21  2  0  0  0  0
 24 23  2  0  0  0  0
 24 18  1  0  0  0  0
 25 15  1  0  0  0  0
 27 26  1  6  0  0  0
 27 29  1  0  0  0  0
 27 30  1  0  0  0  0
 27 31  1  0  0  0  0
 29 30  1  0  0  0  0
 29 28  2  0  0  0  0
 30 25  1  0  0  0  0
 32 33  1  0  0  0  0
 32 31  1  1  0  0  0
 32 35  1  0  0  0  0
 33 34  1  0  0  0  0
 34 36  1  0  0  0  0
 35 37  1  6  0  0  0
 35 36  1  0  0  0  0
M  END
>  <MODEL>
8

>  <REMARK>
 VINA RESULT:      -9.3      2.996      5.203
  Name = 
  6 active torsions:
  status: ('A' for Active; 'I' for Inactive)
    1  A    between atoms: C_2  and  C_25
    2  A    between atoms: C_8  and  C_32
    3  A    between atoms: C_8  and  N_34
    4  A    between atoms: N_11  and  S_35
    5  A    between atoms: C_21  and  C_36
    6  A    between atoms: C_24  and  C_25
                            x       y       z     vdW  Elec       q    Type
                         _______ _______ _______ _____ _____    ______ ____

>  <TORSDO>
F 6

$$$$
=
 OpenBabel11062412253D

 37 42  0  0  1  0  0  0  0  0999 V2000
  183.4450  178.8360  145.1800 C   0  0  0  0  0  3  0  0  0  0  0  0
  184.2470  178.8310  142.7700 S   0  0  0  0  0  0  0  0  0  0  0  0
  187.3990  177.5450  144.9400 C   0  0  0  0  0  0  0  0  0  0  0  0
  190.6950  176.8370  141.6920 N   0  0  0  0  0  0  0  0  0  0  0  0
  188.7340  177.1190  144.8420 C   0  0  0  0  0  3  0  0  0  0  0  0
  191.5720  176.3040  143.8330 O   0  0  0  0  0  0  0  0  0  0  0  0
  185.5000  178.0230  146.3110 C   0  0  0  0  0  3  0  0  0  0  0  0
  185.3550  178.3270  143.9290 C   0  0  0  0  0  0  0  0  0  0  0  0
  187.2880  177.8560  142.4980 C   0  0  0  0  0  3  0  0  0  0  0  0
  186.6750  177.9140  143.7640 C   0  0  0  0  0  0  0  0  0  0  0  0
  186.7930  177.6120  146.1640 N   0  0  0  0  0  0  0  0  0  0  0  0
  189.3020  177.0740  143.5700 C   0  0  0  0  0  0  0  0  0  0  0  0
  184.7680  178.3870  145.1830 C   0  0  0  0  0  0  0  0  0  0  0  0
  188.6130  177.4280  142.4400 C   0  0  0  0  0  0  0  0  0  0  0  0
  183.0080  179.1100  143.8860 C   0  0  0  0  0  0  0  0  0  0  0  0
  189.5280  177.2620  141.3010 C   0  0  0  0  0  0  0  0  0  0  0  0
  190.6190  176.6980  143.1110 C   0  0  0  0  0  0  0  0  0  0  0  0
  189.5660  176.5870  138.8820 N   0  0  0  0  0  2  0  0  0  0  0  0
  189.2100  177.5340  139.8920 C   0  0  0  0  0  0  0  0  0  0  0  0
  188.6210  178.6030  139.5790 O   0  0  0  0  0  0  0  0  0  0  0  0
  187.7890  176.4570  136.9230 O   0  0  0  0  0  0  0  0  0  0  0  0
  190.2940  175.8120  136.2330 C   0  0  0  0  0  1  0  0  0  0  0  0
  189.4450  178.2760  136.8460 O   0  0  0  0  0  0  0  0  0  0  0  0
  189.2160  176.8350  137.2060 S   0  0  0  0  0  0  0  0  0  0  0  0
  181.6790  179.6860  143.5480 C   0  0  0  0  0  2  0  0  0  0  0  0
  180.5080  179.8260  140.1960 C   0  0  0  0  0  1  0  0  0  0  0  0
  181.1480  178.7240  141.0190 C   0  0  2  0  0  0  0  0  0  0  0  0
  179.4520  176.9730  141.8160 O   0  0  0  0  0  0  0  0  0  0  0  0
  180.2850  177.9120  141.7360 C   0  0  0  0  0  0  0  0  0  0  0  0
  181.1440  179.0080  142.3810 N   0  0  0  0  0  0  0  0  0  0  0  0
  182.4620  178.1030  140.5630 C   0  0  0  0  0  2  0  0  0  0  0  0
  182.8470  178.5510  139.1580 C   0  0  1  0  0  3  0  0  0  0  0  0
  184.2040  179.2310  139.2020 C   0  0  0  0  0  2  0  0  0  0  0  0
  185.1840  178.2780  138.5510 C   0  0  0  0  0  2  0  0  0  0  0  0
  182.9910  177.3470  138.2400 C   0  0  2  0  0  3  0  0  0  0  0  0
  184.3580  177.4490  137.5980 C   0  0  0  0  0  2  0  0  0  0  0  0
  182.0050  177.3790  137.2550 O   0  0  0  0  0  1  0  0  0  0  0  0
  1 13  1  0  0  0  0
  2 15  1  0  0  0  0
  2  8  1  0  0  0  0
  3 11  1  0  0  0  0
  4 17  1  0  0  0  0
  5  3  1  0  0  0  0
  8 13  2  0  0  0  0
  9 10  1  0  0  0  0
 10  8  1  0  0  0  0
 10  3  2  0  0  0  0
 11  7  2  0  0  0  0
 12  5  2  0  0  0  0
 13  7  1  0  0  0  0
 14  9  2  0  0  0  0
 14 12  1  0  0  0  0
 15  1  2  0  0  0  0
 16  4  2  0  0  0  0
 16 14  1  0  0  0  0
 17 12  1  0  0  0  0
 17  6  2  0  0  0  0
 18 19  1  0  0  0  0
 19 16  1  0  0  0  0
 20 19  2  0  0  0  0
 21 24  2  0  0  0  0
 22 24  1  0  0  0  0
 23 24  2  0  0  0  0
 24 18  1  0  0  0  0
 25 15  1  0  0  0  0
 27 26  1  6  0  0  0
 27 29  1  0  0  0  0
 27 30  1  0  0  0  0
 29 28  2  0  0  0  0
 29 30  1  0  0  0  0
 30 25  1  0  0  0  0
 31 27  1  0  0  0  0
 32 33  1  0  0  0  0
 32 31  1  1  0  0  0
 34 33  1  0  0  0  0
 35 37  1  6  0  0  0
 35 32  1  0  0  0  0
 36 35  1  0  0  0  0
 36 34  1  0  0  0  0
M  END
>  <MODEL>
9

>  <REMARK>
 VINA RESULT:      -9.1      2.317      3.682
  Name = 
  6 active torsions:
  status: ('A' for Active; 'I' for Inactive)
    1  A    between atoms: C_2  and  C_25
    2  A    between atoms: C_8  and  C_32
    3  A    between atoms: C_8  and  N_34
    4  A    between atoms: N_11  and  S_35
    5  A    between atoms: C_21  and  C_36
    6  A    between atoms: C_24  and  C_25
                            x       y       z     vdW  Elec       q    Type
                         _______ _______ _______ _____ _____    ______ ____

>  <TORSDO>
F 6

$$$$
