=
 OpenBabel11062414563D

 51 55  0  0  1  0  0  0  0  0999 V2000
  184.2870  175.0150  134.8750 C   0  0  0  0  0  2  0  0  0  0  0  0
  190.2810  174.7970  134.9910 C   0  0  0  0  0  3  0  0  0  0  0  0
  185.8820  173.4820  135.7760 C   0  0  2  0  0  3  0  0  0  0  0  0
  188.3530  176.5610  137.5570 N   0  0  2  0  0  0  0  0  0  0  0  0
  189.0800  177.8300  137.5310 C   0  0  1  0  0  3  0  0  0  0  0  0
  188.1590  178.9920  137.0940 C   0  0  0  0  0  2  0  0  0  0  0  0
  187.0520  173.3750  134.9020 N   0  0  0  0  0  0  0  0  0  0  0  0
  185.1220  177.2750  135.8140 C   0  0  0  0  0  2  0  0  0  0  0  0
  186.2030  177.7570  136.8260 C   0  0  1  0  0  3  0  0  0  0  0  0
  188.1950  173.7680  135.4030 C   0  0  0  0  0  0  0  0  0  0  0  0
  189.0080  175.3870  136.9760 C   0  0  2  0  0  3  0  0  0  0  0  0
  190.1230  175.5910  136.1370 C   0  0  0  0  0  2  0  0  0  0  0  0
  186.1380  172.9630  137.1870 C   0  0  0  0  0  2  0  0  0  0  0  0
  188.2530  174.2210  136.7460 C   0  0  1  0  0  3  0  0  0  0  0  0
  186.8670  176.5700  137.5960 C   0  0  0  0  0  2  0  0  0  0  0  0
  184.5720  173.5620  135.1300 N   0  0  0  0  0  0  0  0  0  0  0  0
  187.3160  173.8040  137.6370 C   0  0  0  0  0  2  0  0  0  0  0  0
  189.2700  173.9730  134.5940 N   0  0  0  0  0  0  0  0  0  0  0  0
  187.2250  178.4910  136.0960 N   0  0  0  0  0  2  0  0  0  0  0  0
  184.5050  175.9070  136.1240 C   0  0  1  0  0  3  0  0  0  0  0  0
  182.0080  175.9750  138.8400 C   0  0  0  0  0  3  0  0  0  0  0  0
  181.7320  176.1340  136.4540 S   0  0  0  0  0  0  0  0  0  0  0  0
  183.2870  175.9190  138.3390 N   0  0  0  0  0  0  0  0  0  0  0  0
  180.9860  176.0800  137.9360 N   0  0  0  0  0  0  0  0  0  0  0  0
  183.2970  175.9980  136.9890 C   0  0  0  0  0  0  0  0  0  0  0  0
  189.6960  178.1180  138.8770 C   0  0  0  0  0  3  0  0  0  0  0  0
  189.7690  177.1550  139.7960 C   0  0  0  0  0  3  0  0  0  0  0  0
  190.3220  177.4500  141.1590 C   0  0  2  0  0  3  0  0  0  0  0  0
  192.2100  177.3180  142.6860 C   0  0  0  0  0  1  0  0  0  0  0  0
  191.8340  177.3100  141.2360 C   0  0  0  0  0  2  0  0  0  0  0  0
  189.6170  176.5890  142.1910 C   0  0  0  0  0  2  0  0  0  0  0  0
  187.5480  176.6720  143.5010 C   0  0  0  0  0  3  0  0  0  0  0  0
  188.3780  178.7080  142.5820 O   0  0  0  0  0  1  0  0  0  0  0  0
  188.4550  177.3290  142.7640 C   0  0  0  0  0  0  0  0  0  0  0  0
  186.3770  177.3060  144.2100 C   0  0  1  0  0  3  0  0  0  0  0  0
  186.6410  177.5440  145.6400 N   0  0  0  0  0  2  0  0  0  0  0  0
  188.0680  177.5570  145.9290 C   0  0  0  0  0  2  0  0  0  0  0  0
  188.3000  177.8960  147.3880 C   0  0  0  0  0  2  0  0  0  0  0  0
  189.7500  177.6270  147.7760 C   0  0  0  0  0  2  0  0  0  0  0  0
  190.4680  176.9210  146.6310 C   0  0  0  0  0  2  0  0  0  0  0  0
  191.2240  175.7860  147.1340 N   0  0  0  0  0  1  0  0  0  0  0  0
  185.7900  178.5150  143.4800 C   0  0  0  0  0  2  0  0  0  0  0  0
  183.1690  179.0090  144.1920 S   0  0  0  0  0  1  0  0  0  0  0  0
  184.3520  178.2580  143.0320 C   0  0  0  0  0  2  0  0  0  0  0  0
  183.5110  173.0520  135.9930 C   0  0  0  0  0  2  0  0  0  0  0  0
  183.3070  171.5650  135.7530 C   0  0  2  0  0  3  0  0  0  0  0  0
  184.0190  171.1500  134.6130 O   0  0  0  0  0  1  0  0  0  0  0  0
  181.8210  171.2940  135.5420 C   0  0  0  0  0  2  0  0  0  0  0  0
  180.9520  172.2470  136.2900 C   0  0  0  0  0  0  0  0  0  0  0  0
  180.2640  173.2470  135.6180 O   0  0  0  0  0  0  0  0  0  0  0  0
  180.8160  172.1250  137.5330 O   0  0  0  0  0  1  0  0  0  0  0  0
  1 16  1  0  0  0  0
  1 20  1  0  0  0  0
  2 12  1  0  0  0  0
  3 13  1  1  0  0  0
  4 15  1  6  0  0  0
  5  4  1  0  0  0  0
  5 26  1  1  0  0  0
  6  5  1  0  0  0  0
  7 10  2  0  0  0  0
  7  3  1  0  0  0  0
  8 20  1  0  0  0  0
  9  8  1  6  0  0  0
  9 15  1  0  0  0  0
 10 14  1  0  0  0  0
 11 12  1  6  0  0  0
 11  4  1  0  0  0  0
 13 17  1  0  0  0  0
 14 11  1  0  0  0  0
 14 17  1  6  0  0  0
 16  3  1  0  0  0  0
 16 45  1  0  0  0  0
 18  2  2  0  0  0  0
 18 10  1  0  0  0  0
 19  9  1  0  0  0  0
 19  6  1  0  0  0  0
 20 25  1  6  0  0  0
 22 25  1  0  0  0  0
 22 24  1  0  0  0  0
 23 21  1  0  0  0  0
 24 21  2  0  0  0  0
 25 23  2  0  0  0  0
 26 27  2  0  0  0  0
 28 27  1  6  0  0  0
 28 30  1  0  0  0  0
 28 31  1  0  0  0  0
 30 29  1  0  0  0  0
 31 34  1  0  0  0  0
 32 35  1  0  0  0  0
 33 34  1  0  0  0  0
 34 32  2  0  0  0  0
 35 42  1  6  0  0  0
 35 36  1  0  0  0  0
 36 37  1  0  0  0  0
 37 38  1  0  0  0  0
 38 39  1  0  0  0  0
 40 41  1  0  0  0  0
 40 39  1  0  0  0  0
 44 42  1  0  0  0  0
 44 43  1  0  0  0  0
 46 47  1  6  0  0  0
 46 45  1  0  0  0  0
 48 46  1  0  0  0  0
 48 49  1  0  0  0  0
 49 51  1  0  0  0  0
 50 49  2  0  0  0  0
M  END
>  <MODEL>
1

>  <REMARK>
 VINA RESULT:      -5.8      0.000      0.000
  Name = 
  18 active torsions:
  status: ('A' for Active; 'I' for Inactive)
    1  A    between atoms: C_1  and  C_3
    2  A    between atoms: C_1  and  C_13
    3  A    between atoms: C_2  and  C_8
    4  A    between atoms: C_2  and  C_32
    5  A    between atoms: C_4  and  C_48
    6  A    between atoms: C_4  and  C_50
    7  A    between atoms: C_4  and  C_51
    8  A    between atoms: C_8  and  C_16
    9  A    between atoms: C_8  and  N_17
   10  A    between atoms: C_11  and  C_37
   11  A    between atoms: C_12  and  C_39
   12  A    between atoms: C_12  and  C_45
   13  A    between atoms: C_13  and  C_41
   14  A    between atoms: N_17  and  C_41
   15  A    between atoms: C_19  and  C_45
   16  A    between atoms: N_35  and  C_39
   17  A    between atoms: C_40  and  C_49
   18  A    between atoms: C_42  and  C_48
                            x       y       z     vdW  Elec       q    Type
                         _______ _______ _______ _____ _____    ______ ____

>  <TORSDO>
F 18

$$$$
=
 OpenBabel11062414563D

 51 55  0  0  1  0  0  0  0  0999 V2000
  184.9610  175.1550  134.5960 C   0  0  0  0  0  2  0  0  0  0  0  0
  190.8840  174.6610  135.4090 C   0  0  0  0  0  3  0  0  0  0  0  0
  186.3690  173.5420  135.6550 C   0  0  2  0  0  3  0  0  0  0  0  0
  188.7490  176.4880  137.7580 N   0  0  2  0  0  0  0  0  0  0  0  0
  189.5300  177.7220  137.8350 C   0  0  1  0  0  3  0  0  0  0  0  0
  188.7200  178.9290  137.3110 C   0  0  0  0  0  2  0  0  0  0  0  0
  187.6280  173.3900  134.9230 N   0  0  0  0  0  0  0  0  0  0  0  0
  185.7800  177.3660  135.6590 C   0  0  0  0  0  2  0  0  0  0  0  0
  186.7550  177.7880  136.7970 C   0  0  1  0  0  3  0  0  0  0  0  0
  188.7200  173.7250  135.5590 C   0  0  0  0  0  0  0  0  0  0  0  0
  189.4140  175.2900  137.2400 C   0  0  2  0  0  3  0  0  0  0  0  0
  190.6280  175.4500  136.5400 C   0  0  0  0  0  2  0  0  0  0  0  0
  186.4340  172.9990  137.0780 C   0  0  0  0  0  2  0  0  0  0  0  0
  188.6400  174.1620  136.9060 C   0  0  1  0  0  3  0  0  0  0  0  0
  187.2700  176.5650  137.6220 C   0  0  0  0  0  2  0  0  0  0  0  0
  185.1490  173.6880  134.8620 N   0  0  0  0  0  0  0  0  0  0  0  0
  187.5870  173.7800  137.6750 C   0  0  0  0  0  2  0  0  0  0  0  0
  189.8910  173.8880  134.8840 N   0  0  0  0  0  0  0  0  0  0  0  0
  187.8880  178.4810  136.2030 N   0  0  0  0  0  2  0  0  0  0  0  0
  185.0710  176.0250  135.8750 C   0  0  1  0  0  3  0  0  0  0  0  0
  182.3000  176.3350  138.2920 C   0  0  0  0  0  3  0  0  0  0  0  0
  182.2700  176.1080  135.8950 S   0  0  0  0  0  0  0  0  0  0  0  0
  183.6250  176.2910  137.9320 N   0  0  0  0  0  0  0  0  0  0  0  0
  181.3750  176.2300  137.2880 N   0  0  0  0  0  0  0  0  0  0  0  0
  183.7740  176.1630  136.5940 C   0  0  0  0  0  0  0  0  0  0  0  0
  189.9960  177.9690  139.2480 C   0  0  0  0  0  3  0  0  0  0  0  0
  189.9590  176.9820  140.1440 C   0  0  0  0  0  3  0  0  0  0  0  0
  190.3600  177.2360  141.5670 C   0  0  2  0  0  3  0  0  0  0  0  0
  192.6010  177.3570  140.6310 C   0  0  0  0  0  1  0  0  0  0  0  0
  191.8250  176.9330  141.8400 C   0  0  0  0  0  2  0  0  0  0  0  0
  189.4370  176.4730  142.4990 C   0  0  0  0  0  2  0  0  0  0  0  0
  188.5840  176.7330  144.7810 C   0  0  0  0  0  3  0  0  0  0  0  0
  189.4380  178.6630  143.6740 O   0  0  0  0  0  1  0  0  0  0  0  0
  189.1120  177.3090  143.6920 C   0  0  0  0  0  0  0  0  0  0  0  0
  188.2890  177.4380  146.0820 C   0  0  1  0  0  3  0  0  0  0  0  0
  186.8460  177.6330  146.3070 N   0  0  0  0  0  2  0  0  0  0  0  0
  186.2680  178.5500  145.3340 C   0  0  0  0  0  2  0  0  0  0  0  0
  184.7930  178.7480  145.6180 C   0  0  0  0  0  2  0  0  0  0  0  0
  183.9770  178.5990  144.3390 C   0  0  0  0  0  2  0  0  0  0  0  0
  184.7400  179.2030  143.1670 C   0  0  0  0  0  2  0  0  0  0  0  0
  184.1610  178.7660  141.9070 N   0  0  0  0  0  1  0  0  0  0  0  0
  189.0300  176.8570  147.2860 C   0  0  0  0  0  2  0  0  0  0  0  0
  191.6940  176.2110  146.9670 S   0  0  0  0  0  1  0  0  0  0  0  0
  190.4350  177.4420  147.4190 C   0  0  0  0  0  2  0  0  0  0  0  0
  183.9720  173.2200  135.5870 C   0  0  0  0  0  2  0  0  0  0  0  0
  183.7710  171.7310  135.3570 C   0  0  2  0  0  3  0  0  0  0  0  0
  184.8290  171.2050  134.5950 O   0  0  0  0  0  1  0  0  0  0  0  0
  182.4590  171.5160  134.6080 C   0  0  0  0  0  2  0  0  0  0  0  0
  181.2630  171.7690  135.4610 C   0  0  0  0  0  0  0  0  0  0  0  0
  181.3370  171.6220  136.8390 O   0  0  0  0  0  1  0  0  0  0  0  0
  180.1870  172.1480  134.9330 O   0  0  0  0  0  0  0  0  0  0  0  0
  1 16  1  0  0  0  0
  1 20  1  0  0  0  0
  2 12  1  0  0  0  0
  3 13  1  1  0  0  0
  4 15  1  6  0  0  0
  4  5  1  0  0  0  0
  5 26  1  1  0  0  0
  6  5  1  0  0  0  0
  7 10  2  0  0  0  0
  7  3  1  0  0  0  0
  8 20  1  0  0  0  0
  9  8  1  6  0  0  0
  9 15  1  0  0  0  0
 10 14  1  0  0  0  0
 11 12  1  6  0  0  0
 11  4  1  0  0  0  0
 13 17  1  0  0  0  0
 14 11  1  0  0  0  0
 14 17  1  6  0  0  0
 16 45  1  0  0  0  0
 16  3  1  0  0  0  0
 18  2  2  0  0  0  0
 18 10  1  0  0  0  0
 19  9  1  0  0  0  0
 19  6  1  0  0  0  0
 20 25  1  6  0  0  0
 22 25  1  0  0  0  0
 22 24  1  0  0  0  0
 23 21  1  0  0  0  0
 24 21  2  0  0  0  0
 25 23  2  0  0  0  0
 26 27  2  0  0  0  0
 28 27  1  6  0  0  0
 28 30  1  0  0  0  0
 28 31  1  0  0  0  0
 29 30  1  0  0  0  0
 31 34  1  0  0  0  0
 33 34  1  0  0  0  0
 34 32  2  0  0  0  0
 35 32  1  6  0  0  0
 35 36  1  0  0  0  0
 35 42  1  0  0  0  0
 37 38  1  0  0  0  0
 37 36  1  0  0  0  0
 39 38  1  0  0  0  0
 40 39  1  0  0  0  0
 41 40  1  0  0  0  0
 42 44  1  0  0  0  0
 43 44  1  0  0  0  0
 46 47  1  6  0  0  0
 46 45  1  0  0  0  0
 48 46  1  0  0  0  0
 48 49  1  0  0  0  0
 49 50  1  0  0  0  0
 51 49  2  0  0  0  0
M  END
>  <MODEL>
2

>  <REMARK>
 VINA RESULT:      -5.8      1.698      2.872
  Name = 
  18 active torsions:
  status: ('A' for Active; 'I' for Inactive)
    1  A    between atoms: C_1  and  C_3
    2  A    between atoms: C_1  and  C_13
    3  A    between atoms: C_2  and  C_8
    4  A    between atoms: C_2  and  C_32
    5  A    between atoms: C_4  and  C_48
    6  A    between atoms: C_4  and  C_50
    7  A    between atoms: C_4  and  C_51
    8  A    between atoms: C_8  and  C_16
    9  A    between atoms: C_8  and  N_17
   10  A    between atoms: C_11  and  C_37
   11  A    between atoms: C_12  and  C_39
   12  A    between atoms: C_12  and  C_45
   13  A    between atoms: C_13  and  C_41
   14  A    between atoms: N_17  and  C_41
   15  A    between atoms: C_19  and  C_45
   16  A    between atoms: N_35  and  C_39
   17  A    between atoms: C_40  and  C_49
   18  A    between atoms: C_42  and  C_48
                            x       y       z     vdW  Elec       q    Type
                         _______ _______ _______ _____ _____    ______ ____

>  <TORSDO>
F 18

$$$$
=
 OpenBabel11062414563D

 51 55  0  0  1  0  0  0  0  0999 V2000
  184.3440  175.9130  134.5940 C   0  0  0  0  0  2  0  0  0  0  0  0
  189.9190  173.7710  135.1510 C   0  0  0  0  0  3  0  0  0  0  0  0
  185.2790  173.9250  135.5300 C   0  0  2  0  0  3  0  0  0  0  0  0
  188.4350  175.9950  137.6540 N   0  0  2  0  0  0  0  0  0  0  0  0
  189.5290  176.9620  137.7510 C   0  0  1  0  0  3  0  0  0  0  0  0
  189.0700  178.3700  137.3080 C   0  0  0  0  0  2  0  0  0  0  0  0
  186.4270  173.4700  134.7430 N   0  0  0  0  0  0  0  0  0  0  0  0
  185.7700  177.7590  135.7120 C   0  0  0  0  0  2  0  0  0  0  0  0
  186.8530  177.8390  136.8270 C   0  0  1  0  0  3  0  0  0  0  0  0
  187.5860  173.4600  135.3490 C   0  0  0  0  0  0  0  0  0  0  0  0
  188.7300  174.6880  137.0620 C   0  0  2  0  0  3  0  0  0  0  0  0
  189.9220  174.5440  136.3230 C   0  0  0  0  0  2  0  0  0  0  0  0
  185.2300  173.3150  136.9270 C   0  0  0  0  0  2  0  0  0  0  0  0
  187.6660  173.8340  136.7150 C   0  0  1  0  0  3  0  0  0  0  0  0
  187.0330  176.4820  137.5810 C   0  0  0  0  0  2  0  0  0  0  0  0
  184.1260  174.4400  134.7920 N   0  0  0  0  0  0  0  0  0  0  0  0
  186.5690  173.7190  137.5090 C   0  0  0  0  0  2  0  0  0  0  0  0
  188.7380  173.3280  134.6350 N   0  0  0  0  0  0  0  0  0  0  0  0
  188.1170  178.2230  136.2170 N   0  0  0  0  0  2  0  0  0  0  0  0
  184.7230  176.6550  135.9010 C   0  0  1  0  0  3  0  0  0  0  0  0
  181.5160  178.0040  137.1300 C   0  0  0  0  0  3  0  0  0  0  0  0
  183.4130  177.1340  138.3310 S   0  0  0  0  0  0  0  0  0  0  0  0
  182.4020  177.6250  136.1500 N   0  0  0  0  0  0  0  0  0  0  0  0
  181.9060  177.8260  138.4300 N   0  0  0  0  0  0  0  0  0  0  0  0
  183.5350  177.1080  136.6760 C   0  0  0  0  0  0  0  0  0  0  0  0
  190.0830  177.0010  139.1530 C   0  0  0  0  0  3  0  0  0  0  0  0
  189.3170  177.4190  140.1600 C   0  0  0  0  0  3  0  0  0  0  0  0
  189.8790  177.5220  141.5480 C   0  0  2  0  0  3  0  0  0  0  0  0
  191.8940  176.9850  142.7970 C   0  0  0  0  0  1  0  0  0  0  0  0
  190.8580  176.4080  141.8810 C   0  0  0  0  0  2  0  0  0  0  0  0
  188.7440  177.6030  142.5510 C   0  0  0  0  0  2  0  0  0  0  0  0
  188.8990  177.0410  144.9310 C   0  0  0  0  0  3  0  0  0  0  0  0
  190.2540  178.8190  144.1060 O   0  0  0  0  0  1  0  0  0  0  0  0
  189.2890  177.8320  143.9210 C   0  0  0  0  0  0  0  0  0  0  0  0
  189.4320  177.1020  146.3410 C   0  0  1  0  0  3  0  0  0  0  0  0
  188.5110  176.5020  147.3220 N   0  0  0  0  0  2  0  0  0  0  0  0
  187.8780  177.5140  148.1560 C   0  0  0  0  0  2  0  0  0  0  0  0
  187.6480  178.7790  147.3530 C   0  0  0  0  0  2  0  0  0  0  0  0
  186.1750  179.1680  147.3790 C   0  0  0  0  0  2  0  0  0  0  0  0
  185.5790  179.0280  145.9830 C   0  0  0  0  0  2  0  0  0  0  0  0
  184.1730  178.6670  146.0680 N   0  0  0  0  0  1  0  0  0  0  0  0
  190.8790  176.6290  146.4790 C   0  0  0  0  0  2  0  0  0  0  0  0
  192.8650  175.7280  148.1700 S   0  0  0  0  0  1  0  0  0  0  0  0
  191.3700  176.7330  147.9220 C   0  0  0  0  0  2  0  0  0  0  0  0
  182.8860  174.2770  135.5440 C   0  0  0  0  0  2  0  0  0  0  0  0
  181.7250  174.0260  134.5950 C   0  0  2  0  0  3  0  0  0  0  0  0
  180.8470  175.1240  134.5940 O   0  0  0  0  0  1  0  0  0  0  0  0
  180.9700  172.7810  135.0510 C   0  0  0  0  0  2  0  0  0  0  0  0
  181.7700  171.9320  135.9790 C   0  0  0  0  0  0  0  0  0  0  0  0
  181.7020  172.1300  137.3500 O   0  0  0  0  0  1  0  0  0  0  0  0
  182.4890  171.0090  135.5190 O   0  0  0  0  0  0  0  0  0  0  0  0
  1 16  1  0  0  0  0
  1 20  1  0  0  0  0
  2 12  1  0  0  0  0
  3 13  1  6  0  0  0
  4 15  1  6  0  0  0
  4  5  1  0  0  0  0
  5 26  1  1  0  0  0
  6  5  1  0  0  0  0
  7 10  2  0  0  0  0
  7  3  1  0  0  0  0
  8 20  1  0  0  0  0
  9  8  1  6  0  0  0
  9 15  1  0  0  0  0
 10 14  1  0  0  0  0
 11 12  1  6  0  0  0
 11  4  1  0  0  0  0
 13 17  1  0  0  0  0
 14 11  1  0  0  0  0
 14 17  1  6  0  0  0
 16  3  1  0  0  0  0
 16 45  1  0  0  0  0
 18  2  2  0  0  0  0
 18 10  1  0  0  0  0
 19  9  1  0  0  0  0
 19  6  1  0  0  0  0
 20 25  1  6  0  0  0
 21 24  2  0  0  0  0
 22 24  1  0  0  0  0
 23 25  2  0  0  0  0
 23 21  1  0  0  0  0
 25 22  1  0  0  0  0
 26 27  2  0  0  0  0
 28 27  1  6  0  0  0
 28 30  1  0  0  0  0
 28 31  1  0  0  0  0
 30 29  1  0  0  0  0
 31 34  1  0  0  0  0
 34 33  1  0  0  0  0
 34 32  2  0  0  0  0
 35 32  1  6  0  0  0
 35 42  1  0  0  0  0
 35 36  1  0  0  0  0
 36 37  1  0  0  0  0
 38 39  1  0  0  0  0
 38 37  1  0  0  0  0
 40 41  1  0  0  0  0
 40 39  1  0  0  0  0
 42 44  1  0  0  0  0
 44 43  1  0  0  0  0
 46 47  1  1  0  0  0
 46 48  1  0  0  0  0
 46 45  1  0  0  0  0
 48 49  1  0  0  0  0
 49 50  1  0  0  0  0
 51 49  2  0  0  0  0
M  END
>  <MODEL>
3

>  <REMARK>
 VINA RESULT:      -5.6      2.117      3.079
  Name = 
  18 active torsions:
  status: ('A' for Active; 'I' for Inactive)
    1  A    between atoms: C_1  and  C_3
    2  A    between atoms: C_1  and  C_13
    3  A    between atoms: C_2  and  C_8
    4  A    between atoms: C_2  and  C_32
    5  A    between atoms: C_4  and  C_48
    6  A    between atoms: C_4  and  C_50
    7  A    between atoms: C_4  and  C_51
    8  A    between atoms: C_8  and  C_16
    9  A    between atoms: C_8  and  N_17
   10  A    between atoms: C_11  and  C_37
   11  A    between atoms: C_12  and  C_39
   12  A    between atoms: C_12  and  C_45
   13  A    between atoms: C_13  and  C_41
   14  A    between atoms: N_17  and  C_41
   15  A    between atoms: C_19  and  C_45
   16  A    between atoms: N_35  and  C_39
   17  A    between atoms: C_40  and  C_49
   18  A    between atoms: C_42  and  C_48
                            x       y       z     vdW  Elec       q    Type
                         _______ _______ _______ _____ _____    ______ ____

>  <TORSDO>
F 18

$$$$
=
 OpenBabel11062414563D

 51 55  0  0  1  0  0  0  0  0999 V2000
  190.2810  178.8360  142.9310 C   0  0  0  0  0  2  0  0  0  0  0  0
  185.0000  179.1980  145.7510 C   0  0  0  0  0  3  0  0  0  0  0  0
  189.1060  177.4220  144.4560 C   0  0  2  0  0  3  0  0  0  0  0  0
  185.3130  177.7680  142.3940 N   0  0  2  0  0  0  0  0  0  0  0  0
  184.2440  178.5260  141.7430 C   0  0  1  0  0  3  0  0  0  0  0  0
  184.8030  179.4170  140.6100 C   0  0  0  0  0  2  0  0  0  0  0  0
  188.3760  178.2180  145.4450 N   0  0  0  0  0  0  0  0  0  0  0  0
  188.4800  179.3090  141.1360 C   0  0  0  0  0  2  0  0  0  0  0  0
  187.0430  178.8090  140.8090 C   0  0  1  0  0  3  0  0  0  0  0  0
  187.0720  178.1100  145.4360 C   0  0  0  0  0  0  0  0  0  0  0  0
  185.3120  177.7070  143.8580 C   0  0  2  0  0  3  0  0  0  0  0  0
  184.5130  178.6300  144.5640 C   0  0  0  0  0  2  0  0  0  0  0  0
  188.6160  175.9810  144.3660 C   0  0  0  0  0  2  0  0  0  0  0  0
  186.4490  177.2170  144.5270 C   0  0  1  0  0  3  0  0  0  0  0  0
  186.6170  177.5980  141.7010 C   0  0  0  0  0  2  0  0  0  0  0  0
  190.4430  177.8860  144.0830 N   0  0  0  0  0  0  0  0  0  0  0  0
  187.1450  176.1550  144.0450 C   0  0  0  0  0  2  0  0  0  0  0  0
  186.3000  179.0050  146.1120 N   0  0  0  0  0  0  0  0  0  0  0  0
  186.1130  179.9090  141.0130 N   0  0  0  0  0  2  0  0  0  0  0  0
  189.3960  178.2690  141.7920 C   0  0  1  0  0  3  0  0  0  0  0  0
  191.9040  176.7280  139.5660 C   0  0  0  0  0  3  0  0  0  0  0  0
  189.5260  176.3850  139.7220 S   0  0  0  0  0  0  0  0  0  0  0  0
  191.5020  177.5520  140.5900 N   0  0  0  0  0  0  0  0  0  0  0  0
  190.9350  175.9960  138.9350 N   0  0  0  0  0  0  0  0  0  0  0  0
  190.1690  177.4690  140.8020 C   0  0  0  0  0  0  0  0  0  0  0  0
  183.1810  177.5980  141.2130 C   0  0  0  0  0  3  0  0  0  0  0  0
  182.3220  178.0270  140.2880 C   0  0  0  0  0  3  0  0  0  0  0  0
  181.2220  177.1310  139.8010 C   0  0  2  0  0  3  0  0  0  0  0  0
  179.6120  178.6220  140.8480 C   0  0  0  0  0  1  0  0  0  0  0  0
  179.9790  177.1800  140.6750 C   0  0  0  0  0  2  0  0  0  0  0  0
  181.7500  175.7180  139.6400 C   0  0  0  0  0  2  0  0  0  0  0  0
  183.2310  175.3740  137.7190 C   0  0  0  0  0  3  0  0  0  0  0  0
  180.8850  175.1220  137.3880 O   0  0  0  0  0  1  0  0  0  0  0  0
  181.9790  175.4200  138.1960 C   0  0  0  0  0  0  0  0  0  0  0  0
  183.6110  175.0010  136.3070 C   0  0  1  0  0  3  0  0  0  0  0  0
  184.0710  176.1580  135.5200 N   0  0  0  0  0  2  0  0  0  0  0  0
  184.6490  177.1910  136.3680 C   0  0  0  0  0  2  0  0  0  0  0  0
  186.1020  177.4160  135.9970 C   0  0  0  0  0  2  0  0  0  0  0  0
  186.8680  178.0110  137.1730 C   0  0  0  0  0  2  0  0  0  0  0  0
  188.3010  178.3160  136.7530 C   0  0  0  0  0  2  0  0  0  0  0  0
  188.8130  179.4570  137.4940 N   0  0  0  0  0  1  0  0  0  0  0  0
  184.5300  173.7830  136.2130 C   0  0  0  0  0  2  0  0  0  0  0  0
  186.9590  172.7460  137.0120 S   0  0  0  0  0  1  0  0  0  0  0  0
  185.4530  173.6780  137.4250 C   0  0  0  0  0  2  0  0  0  0  0  0
  191.2890  176.7860  143.6290 C   0  0  0  0  0  2  0  0  0  0  0  0
  192.1590  176.2860  144.7710 C   0  0  2  0  0  3  0  0  0  0  0  0
  192.1460  174.8810  144.8180 O   0  0  0  0  0  1  0  0  0  0  0  0
  191.6180  176.8370  146.0870 C   0  0  0  0  0  2  0  0  0  0  0  0
  191.8850  175.9320  147.2410 C   0  0  0  0  0  0  0  0  0  0  0  0
  193.1340  175.9100  147.8430 O   0  0  0  0  0  1  0  0  0  0  0  0
  190.9640  175.2070  147.6930 O   0  0  0  0  0  0  0  0  0  0  0  0
  1 16  1  0  0  0  0
  2 18  2  0  0  0  0
  3 13  1  1  0  0  0
  3  7  1  0  0  0  0
  4 15  1  1  0  0  0
  4 11  1  0  0  0  0
  5 26  1  6  0  0  0
  5  4  1  0  0  0  0
  6 19  1  0  0  0  0
  6  5  1  0  0  0  0
  8 20  1  0  0  0  0
  9 19  1  0  0  0  0
  9  8  1  1  0  0  0
  9 15  1  0  0  0  0
 10  7  2  0  0  0  0
 10 18  1  0  0  0  0
 11 14  1  0  0  0  0
 11 12  1  1  0  0  0
 12  2  1  0  0  0  0
 14 17  1  6  0  0  0
 14 10  1  0  0  0  0
 16  3  1  0  0  0  0
 17 13  1  0  0  0  0
 20 25  1  6  0  0  0
 20  1  1  0  0  0  0
 21 23  1  0  0  0  0
 22 25  1  0  0  0  0
 23 25  2  0  0  0  0
 24 21  2  0  0  0  0
 24 22  1  0  0  0  0
 27 26  2  0  0  0  0
 28 31  1  1  0  0  0
 28 27  1  0  0  0  0
 28 30  1  0  0  0  0
 30 29  1  0  0  0  0
 32 34  2  0  0  0  0
 33 34  1  0  0  0  0
 34 31  1  0  0  0  0
 35 42  1  1  0  0  0
 35 32  1  0  0  0  0
 36 35  1  0  0  0  0
 36 37  1  0  0  0  0
 38 37  1  0  0  0  0
 38 39  1  0  0  0  0
 40 39  1  0  0  0  0
 40 41  1  0  0  0  0
 42 44  1  0  0  0  0
 43 44  1  0  0  0  0
 45 16  1  0  0  0  0
 45 46  1  0  0  0  0
 46 47  1  1  0  0  0
 46 48  1  0  0  0  0
 48 49  1  0  0  0  0
 49 51  2  0  0  0  0
 49 50  1  0  0  0  0
M  END
>  <MODEL>
4

>  <REMARK>
 VINA RESULT:      -4.9      3.036     10.178
  Name = 
  18 active torsions:
  status: ('A' for Active; 'I' for Inactive)
    1  A    between atoms: C_1  and  C_3
    2  A    between atoms: C_1  and  C_13
    3  A    between atoms: C_2  and  C_8
    4  A    between atoms: C_2  and  C_32
    5  A    between atoms: C_4  and  C_48
    6  A    between atoms: C_4  and  C_50
    7  A    between atoms: C_4  and  C_51
    8  A    between atoms: C_8  and  C_16
    9  A    between atoms: C_8  and  N_17
   10  A    between atoms: C_11  and  C_37
   11  A    between atoms: C_12  and  C_39
   12  A    between atoms: C_12  and  C_45
   13  A    between atoms: C_13  and  C_41
   14  A    between atoms: N_17  and  C_41
   15  A    between atoms: C_19  and  C_45
   16  A    between atoms: N_35  and  C_39
   17  A    between atoms: C_40  and  C_49
   18  A    between atoms: C_42  and  C_48
                            x       y       z     vdW  Elec       q    Type
                         _______ _______ _______ _____ _____    ______ ____

>  <TORSDO>
F 18

$$$$
=
 OpenBabel11062414563D

 51 55  0  0  1  0  0  0  0  0999 V2000
  183.8820  179.5390  139.7940 C   0  0  0  0  0  2  0  0  0  0  0  0
  181.5840  176.9050  134.9200 C   0  0  0  0  0  3  0  0  0  0  0  0
  182.4150  177.6880  139.4350 C   0  0  2  0  0  3  0  0  0  0  0  0
  184.8340  175.9330  136.3000 N   0  0  2  0  0  0  0  0  0  0  0  0
  185.6130  175.9920  135.0640 C   0  0  1  0  0  3  0  0  0  0  0  0
  186.7260  177.0610  135.1560 C   0  0  0  0  0  2  0  0  0  0  0  0
  181.5330  177.9390  138.2930 N   0  0  0  0  0  0  0  0  0  0  0  0
  185.8550  178.9760  138.2200 C   0  0  0  0  0  2  0  0  0  0  0  0
  186.2930  177.7760  137.3310 C   0  0  1  0  0  3  0  0  0  0  0  0
  181.6580  177.1350  137.2700 C   0  0  0  0  0  0  0  0  0  0  0  0
  183.3750  175.8580  136.1850 C   0  0  2  0  0  3  0  0  0  0  0  0
  182.7860  176.1830  134.9450 C   0  0  0  0  0  2  0  0  0  0  0  0
  182.4890  176.2160  139.8240 C   0  0  0  0  0  2  0  0  0  0  0  0
  182.5830  176.0610  137.3310 C   0  0  1  0  0  3  0  0  0  0  0  0
  185.3950  176.5160  137.5480 C   0  0  0  0  0  2  0  0  0  0  0  0
  182.6810  178.8140  140.3320 N   0  0  0  0  0  0  0  0  0  0  0  0
  182.9530  175.5610  138.5390 C   0  0  0  0  0  2  0  0  0  0  0  0
  181.0960  177.4500  136.0700 N   0  0  0  0  0  0  0  0  0  0  0  0
  186.2240  178.1840  135.9370 N   0  0  0  0  0  2  0  0  0  0  0  0
  185.0740  178.5970  139.4830 C   0  0  1  0  0  3  0  0  0  0  0  0
  186.5830  177.9540  142.7890 C   0  0  0  0  0  3  0  0  0  0  0  0
  187.6020  178.5470  140.6890 S   0  0  0  0  0  0  0  0  0  0  0  0
  185.5330  178.0370  141.9050 N   0  0  0  0  0  0  0  0  0  0  0  0
  187.8340  178.2240  142.3020 N   0  0  0  0  0  0  0  0  0  0  0  0
  185.9530  178.3660  140.6630 C   0  0  0  0  0  0  0  0  0  0  0  0
  186.2000  174.6420  134.7400 C   0  0  0  0  0  3  0  0  0  0  0  0
  186.4410  173.7680  135.7180 C   0  0  0  0  0  3  0  0  0  0  0  0
  187.0840  172.4470  135.4130 C   0  0  2  0  0  3  0  0  0  0  0  0
  184.8590  171.6900  136.0340 C   0  0  0  0  0  1  0  0  0  0  0  0
  186.0820  171.3150  135.2540 C   0  0  0  0  0  2  0  0  0  0  0  0
  188.1330  172.1370  136.4640 C   0  0  0  0  0  2  0  0  0  0  0  0
  190.0240  173.4080  135.5650 C   0  0  0  0  0  3  0  0  0  0  0  0
  189.0340  174.1560  137.6000 O   0  0  0  0  0  1  0  0  0  0  0  0
  189.1210  173.2520  136.5440 C   0  0  0  0  0  0  0  0  0  0  0  0
  191.0210  174.5370  135.4730 C   0  0  1  0  0  3  0  0  0  0  0  0
  190.7490  175.6140  136.4410 N   0  0  0  0  0  2  0  0  0  0  0  0
  191.9750  176.2760  136.8660 C   0  0  0  0  0  2  0  0  0  0  0  0
  192.0450  176.3170  138.3800 C   0  0  0  0  0  2  0  0  0  0  0  0
  190.7350  176.8360  138.9620 C   0  0  0  0  0  2  0  0  0  0  0  0
  190.8420  176.9190  140.4800 C   0  0  0  0  0  2  0  0  0  0  0  0
  192.0920  177.5550  140.8650 N   0  0  0  0  0  1  0  0  0  0  0  0
  192.4790  174.0780  135.4500 C   0  0  0  0  0  2  0  0  0  0  0  0
  194.3820  172.2510  136.2600 S   0  0  0  0  0  1  0  0  0  0  0  0
  192.7520  173.0160  136.5130 C   0  0  0  0  0  2  0  0  0  0  0  0
  183.0070  178.3640  141.6820 C   0  0  0  0  0  2  0  0  0  0  0  0
  182.4450  179.3340  142.7090 C   0  0  2  0  0  3  0  0  0  0  0  0
  183.4380  179.6920  143.6390 O   0  0  0  0  0  1  0  0  0  0  0  0
  181.2870  178.6670  143.4420 C   0  0  0  0  0  2  0  0  0  0  0  0
  179.9710  178.9200  142.7900 C   0  0  0  0  0  0  0  0  0  0  0  0
  179.8720  179.8060  141.7270 O   0  0  0  0  0  0  0  0  0  0  0  0
  178.9490  178.3040  143.1840 O   0  0  0  0  0  1  0  0  0  0  0  0
  1 16  1  0  0  0  0
  2 12  1  0  0  0  0
  2 18  2  0  0  0  0
  3 13  1  1  0  0  0
  3 16  1  0  0  0  0
  4 15  1  1  0  0  0
  5 26  1  1  0  0  0
  5  6  1  0  0  0  0
  5  4  1  0  0  0  0
  6 19  1  0  0  0  0
  7  3  1  0  0  0  0
  8 20  1  0  0  0  0
  9 15  1  6  0  0  0
  9  8  1  0  0  0  0
 10 14  1  0  0  0  0
 10  7  2  0  0  0  0
 11 12  1  6  0  0  0
 11  4  1  0  0  0  0
 11 14  1  0  0  0  0
 14 17  1  1  0  0  0
 16 45  1  0  0  0  0
 17 13  1  0  0  0  0
 18 10  1  0  0  0  0
 19  9  1  0  0  0  0
 20  1  1  0  0  0  0
 20 25  1  1  0  0  0
 22 24  1  0  0  0  0
 23 21  1  0  0  0  0
 24 21  2  0  0  0  0
 25 22  1  0  0  0  0
 25 23  2  0  0  0  0
 26 27  2  0  0  0  0
 28 30  1  1  0  0  0
 28 27  1  0  0  0  0
 28 31  1  0  0  0  0
 30 29  1  0  0  0  0
 31 34  1  0  0  0  0
 32 34  2  0  0  0  0
 34 33  1  0  0  0  0
 35 42  1  1  0  0  0
 35 32  1  0  0  0  0
 35 36  1  0  0  0  0
 36 37  1  0  0  0  0
 37 38  1  0  0  0  0
 38 39  1  0  0  0  0
 39 40  1  0  0  0  0
 40 41  1  0  0  0  0
 42 44  1  0  0  0  0
 43 44  1  0  0  0  0
 45 46  1  0  0  0  0
 46 48  1  0  0  0  0
 46 47  1  1  0  0  0
 49 51  1  0  0  0  0
 49 48  1  0  0  0  0
 50 49  2  0  0  0  0
M  END
>  <MODEL>
5

>  <REMARK>
 VINA RESULT:      -4.0      3.634      8.015
  Name = 
  18 active torsions:
  status: ('A' for Active; 'I' for Inactive)
    1  A    between atoms: C_1  and  C_3
    2  A    between atoms: C_1  and  C_13
    3  A    between atoms: C_2  and  C_8
    4  A    between atoms: C_2  and  C_32
    5  A    between atoms: C_4  and  C_48
    6  A    between atoms: C_4  and  C_50
    7  A    between atoms: C_4  and  C_51
    8  A    between atoms: C_8  and  C_16
    9  A    between atoms: C_8  and  N_17
   10  A    between atoms: C_11  and  C_37
   11  A    between atoms: C_12  and  C_39
   12  A    between atoms: C_12  and  C_45
   13  A    between atoms: C_13  and  C_41
   14  A    between atoms: N_17  and  C_41
   15  A    between atoms: C_19  and  C_45
   16  A    between atoms: N_35  and  C_39
   17  A    between atoms: C_40  and  C_49
   18  A    between atoms: C_42  and  C_48
                            x       y       z     vdW  Elec       q    Type
                         _______ _______ _______ _____ _____    ______ ____

>  <TORSDO>
F 18

$$$$
=
 OpenBabel11062414563D

 51 55  0  0  1  0  0  0  0  0999 V2000
  187.7750  176.4400  143.8900 C   0  0  0  0  0  2  0  0  0  0  0  0
  187.4530  176.9620  137.9230 C   0  0  0  0  0  3  0  0  0  0  0  0
  188.9520  177.7360  142.2650 C   0  0  2  0  0  3  0  0  0  0  0  0
  185.3770  178.9850  140.1620 N   0  0  2  0  0  0  0  0  0  0  0  0
  184.0830  178.7400  139.5270 C   0  0  1  0  0  3  0  0  0  0  0  0
  183.1160  178.0170  140.4920 C   0  0  0  0  0  2  0  0  0  0  0  0
  189.1330  176.9750  141.0260 N   0  0  0  0  0  0  0  0  0  0  0  0
  185.3080  176.9380  143.2920 C   0  0  0  0  0  2  0  0  0  0  0  0
  184.5420  177.8920  142.3290 C   0  0  1  0  0  3  0  0  0  0  0  0
  188.5510  177.4520  139.9560 C   0  0  0  0  0  0  0  0  0  0  0  0
  186.5850  178.7010  139.3830 C   0  0  2  0  0  3  0  0  0  0  0  0
  186.4600  177.9070  138.2240 C   0  0  0  0  0  2  0  0  0  0  0  0
  189.1520  179.2360  142.0810 C   0  0  0  0  0  2  0  0  0  0  0  0
  187.8330  178.6730  140.0340 C   0  0  1  0  0  3  0  0  0  0  0  0
  185.4870  178.9300  141.6440 C   0  0  0  0  0  2  0  0  0  0  0  0
  189.1160  177.0090  143.5240 N   0  0  0  0  0  0  0  0  0  0  0  0
  188.1400  179.5720  141.0050 C   0  0  0  0  0  2  0  0  0  0  0  0
  188.4230  176.6840  138.8390 N   0  0  0  0  0  0  0  0  0  0  0  0
  183.8860  177.0890  141.3090 N   0  0  0  0  0  2  0  0  0  0  0  0
  186.6330  177.4880  143.8330 C   0  0  1  0  0  3  0  0  0  0  0  0
  186.7800  178.8680  147.2520 C   0  0  0  0  0  3  0  0  0  0  0  0
  185.3050  179.3780  145.4180 S   0  0  0  0  0  0  0  0  0  0  0  0
  187.2140  178.0650  146.2240 N   0  0  0  0  0  0  0  0  0  0  0  0
  185.7010  179.6740  147.0030 N   0  0  0  0  0  0  0  0  0  0  0  0
  186.4720  178.2410  145.1070 C   0  0  0  0  0  0  0  0  0  0  0  0
  183.4770  180.0320  139.0380 C   0  0  0  0  0  3  0  0  0  0  0  0
  182.1610  180.1200  138.8480 C   0  0  0  0  0  3  0  0  0  0  0  0
  181.5580  181.3800  138.3010 C   0  0  2  0  0  3  0  0  0  0  0  0
  180.0780  180.8480  140.1550 C   0  0  0  0  0  1  0  0  0  0  0  0
  180.3910  181.8940  139.1290 C   0  0  0  0  0  2  0  0  0  0  0  0
  181.1780  181.1730  136.8470 C   0  0  0  0  0  2  0  0  0  0  0  0
  181.5560  178.7960  136.3930 C   0  0  0  0  0  3  0  0  0  0  0  0
  179.3210  179.5220  136.7910 O   0  0  0  0  0  1  0  0  0  0  0  0
  180.6820  179.7810  136.6420 C   0  0  0  0  0  0  0  0  0  0  0  0
  181.2040  177.3350  136.2520 C   0  0  1  0  0  3  0  0  0  0  0  0
  182.2230  176.5750  135.5080 N   0  0  0  0  0  2  0  0  0  0  0  0
  183.5540  176.7700  136.0670 C   0  0  0  0  0  2  0  0  0  0  0  0
  184.4330  175.5790  135.7410 C   0  0  0  0  0  2  0  0  0  0  0  0
  183.7410  174.2790  136.1320 C   0  0  0  0  0  2  0  0  0  0  0  0
  184.1830  173.8580  137.5280 C   0  0  0  0  0  2  0  0  0  0  0  0
  185.6320  173.7620  137.5920 N   0  0  0  0  0  1  0  0  0  0  0  0
  180.7710  176.6720  137.5600 C   0  0  0  0  0  2  0  0  0  0  0  0
  179.4840  174.2970  138.1270 S   0  0  0  0  0  1  0  0  0  0  0  0
  179.4220  175.9700  137.4160 C   0  0  0  0  0  2  0  0  0  0  0  0
  189.5300  177.8930  144.6090 C   0  0  0  0  0  2  0  0  0  0  0  0
  191.0100  177.7100  144.9010 C   0  0  2  0  0  3  0  0  0  0  0  0
  191.7600  177.8180  143.7160 O   0  0  0  0  0  1  0  0  0  0  0  0
  191.2310  176.3290  145.5090 C   0  0  0  0  0  2  0  0  0  0  0  0
  191.5470  176.3870  146.9650 C   0  0  0  0  0  0  0  0  0  0  0  0
  192.6240  175.6790  147.4790 O   0  0  0  0  0  0  0  0  0  0  0  0
  190.8530  177.1050  147.7280 O   0  0  0  0  0  1  0  0  0  0  0  0
  2 12  1  0  0  0  0
  2 18  2  0  0  0  0
  3 13  1  1  0  0  0
  3 16  1  0  0  0  0
  4 15  1  1  0  0  0
  5 26  1  1  0  0  0
  5  4  1  0  0  0  0
  5  6  1  0  0  0  0
  6 19  1  0  0  0  0
  7  3  1  0  0  0  0
  8 20  1  0  0  0  0
  9 15  1  6  0  0  0
  9  8  1  0  0  0  0
 10 14  1  0  0  0  0
 10  7  2  0  0  0  0
 11 12  1  1  0  0  0
 11 14  1  0  0  0  0
 11  4  1  0  0  0  0
 14 17  1  1  0  0  0
 16  1  1  0  0  0  0
 16 45  1  0  0  0  0
 17 13  1  0  0  0  0
 18 10  1  0  0  0  0
 19  9  1  0  0  0  0
 20  1  1  0  0  0  0
 20 25  1  1  0  0  0
 22 24  1  0  0  0  0
 23 21  1  0  0  0  0
 24 21  2  0  0  0  0
 25 22  1  0  0  0  0
 25 23  2  0  0  0  0
 27 26  2  0  0  0  0
 28 31  1  6  0  0  0
 28 27  1  0  0  0  0
 28 30  1  0  0  0  0
 30 29  1  0  0  0  0
 32 34  2  0  0  0  0
 34 33  1  0  0  0  0
 34 31  1  0  0  0  0
 35 32  1  1  0  0  0
 35 42  1  0  0  0  0
 36 37  1  0  0  0  0
 36 35  1  0  0  0  0
 38 37  1  0  0  0  0
 38 39  1  0  0  0  0
 39 40  1  0  0  0  0
 40 41  1  0  0  0  0
 44 42  1  0  0  0  0
 44 43  1  0  0  0  0
 45 46  1  0  0  0  0
 46 47  1  6  0  0  0
 46 48  1  0  0  0  0
 48 49  1  0  0  0  0
 49 50  2  0  0  0  0
 49 51  1  0  0  0  0
M  END
>  <MODEL>
6

>  <REMARK>
 VINA RESULT:      -3.7      3.225      9.874
  Name = 
  18 active torsions:
  status: ('A' for Active; 'I' for Inactive)
    1  A    between atoms: C_1  and  C_3
    2  A    between atoms: C_1  and  C_13
    3  A    between atoms: C_2  and  C_8
    4  A    between atoms: C_2  and  C_32
    5  A    between atoms: C_4  and  C_48
    6  A    between atoms: C_4  and  C_50
    7  A    between atoms: C_4  and  C_51
    8  A    between atoms: C_8  and  C_16
    9  A    between atoms: C_8  and  N_17
   10  A    between atoms: C_11  and  C_37
   11  A    between atoms: C_12  and  C_39
   12  A    between atoms: C_12  and  C_45
   13  A    between atoms: C_13  and  C_41
   14  A    between atoms: N_17  and  C_41
   15  A    between atoms: C_19  and  C_45
   16  A    between atoms: N_35  and  C_39
   17  A    between atoms: C_40  and  C_49
   18  A    between atoms: C_42  and  C_48
                            x       y       z     vdW  Elec       q    Type
                         _______ _______ _______ _____ _____    ______ ____

>  <TORSDO>
F 18

$$$$
=
 OpenBabel11062414563D

 51 55  0  0  1  0  0  0  0  0999 V2000
  189.9670  178.9810  142.6070 C   0  0  0  0  0  2  0  0  0  0  0  0
  184.7370  179.3640  145.5190 C   0  0  0  0  0  3  0  0  0  0  0  0
  188.8680  177.6310  144.2430 C   0  0  2  0  0  3  0  0  0  0  0  0
  185.0230  177.7380  142.2500 N   0  0  2  0  0  0  0  0  0  0  0  0
  183.9190  178.4220  141.5780 C   0  0  1  0  0  3  0  0  0  0  0  0
  184.4260  179.2570  140.3800 C   0  0  0  0  0  2  0  0  0  0  0  0
  188.1340  178.4650  145.1970 N   0  0  0  0  0  0  0  0  0  0  0  0
  188.1160  179.2880  140.8280 C   0  0  0  0  0  2  0  0  0  0  0  0
  186.6870  178.7270  140.5650 C   0  0  1  0  0  3  0  0  0  0  0  0
  186.8350  178.3190  145.2250 C   0  0  0  0  0  0  0  0  0  0  0  0
  185.0550  177.7680  143.7150 C   0  0  2  0  0  3  0  0  0  0  0  0
  184.2440  178.7100  144.3810 C   0  0  0  0  0  2  0  0  0  0  0  0
  188.4200  176.1740  144.2520 C   0  0  0  0  0  2  0  0  0  0  0  0
  186.2200  177.3530  144.3870 C   0  0  1  0  0  3  0  0  0  0  0  0
  186.3170  177.5630  141.5390 C   0  0  0  0  0  2  0  0  0  0  0  0
  190.1820  178.1090  143.8110 N   0  0  0  0  0  0  0  0  0  0  0  0
  186.9380  176.2840  143.9550 C   0  0  0  0  0  2  0  0  0  0  0  0
  186.0500  179.2320  145.8610 N   0  0  0  0  0  0  0  0  0  0  0  0
  185.7290  179.8110  140.7220 N   0  0  0  0  0  2  0  0  0  0  0  0
  189.0760  178.3180  141.5250 C   0  0  1  0  0  3  0  0  0  0  0  0
  191.6100  176.6070  139.4590 C   0  0  0  0  0  3  0  0  0  0  0  0
  189.2050  176.5200  139.3810 S   0  0  0  0  0  0  0  0  0  0  0  0
  191.2000  177.4260  140.4840 N   0  0  0  0  0  0  0  0  0  0  0  0
  190.6340  176.0120  138.7050 N   0  0  0  0  0  0  0  0  0  0  0  0
  189.8520  177.4810  140.5690 C   0  0  0  0  0  0  0  0  0  0  0  0
  182.8730  177.4320  141.1310 C   0  0  0  0  0  3  0  0  0  0  0  0
  181.8390  177.8420  140.3970 C   0  0  0  0  0  3  0  0  0  0  0  0
  180.7610  176.8760  140.0010 C   0  0  2  0  0  3  0  0  0  0  0  0
  180.0590  174.9510  138.6930 C   0  0  0  0  0  1  0  0  0  0  0  0
  181.2150  175.8650  138.9610 C   0  0  0  0  0  2  0  0  0  0  0  0
  179.5310  177.6440  139.5510 C   0  0  0  0  0  2  0  0  0  0  0  0
  179.6330  178.2530  137.1800 C   0  0  0  0  0  3  0  0  0  0  0  0
  180.4250  179.8310  138.7800 O   0  0  0  0  0  1  0  0  0  0  0  0
  179.8920  178.5870  138.4520 C   0  0  0  0  0  0  0  0  0  0  0  0
  179.8630  179.1420  135.9830 C   0  0  1  0  0  3  0  0  0  0  0  0
  179.7190  180.5730  136.3020 N   0  0  0  0  0  2  0  0  0  0  0  0
  180.5580  181.4020  135.4480 C   0  0  0  0  0  2  0  0  0  0  0  0
  179.9350  182.7730  135.2810 C   0  0  0  0  0  2  0  0  0  0  0  0
  179.9200  183.5210  136.6090 C   0  0  0  0  0  2  0  0  0  0  0  0
  181.3160  183.5120  137.2210 C   0  0  0  0  0  2  0  0  0  0  0  0
  181.8560  184.8610  137.2670 N   0  0  0  0  0  1  0  0  0  0  0  0
  181.1310  178.8080  135.1970 C   0  0  0  0  0  2  0  0  0  0  0  0
  183.3240  177.1650  134.8630 S   0  0  0  0  0  1  0  0  0  0  0  0
  181.6490  177.4100  135.5280 C   0  0  0  0  0  2  0  0  0  0  0  0
  191.0510  177.0080  143.4070 C   0  0  0  0  0  2  0  0  0  0  0  0
  191.9760  176.6210  144.5500 C   0  0  2  0  0  3  0  0  0  0  0  0
  191.8730  175.2450  144.8190 O   0  0  0  0  0  1  0  0  0  0  0  0
  191.5820  177.4070  145.7960 C   0  0  0  0  0  2  0  0  0  0  0  0
  191.4100  176.5370  146.9940 C   0  0  0  0  0  0  0  0  0  0  0  0
  192.5150  176.0870  147.7020 O   0  0  0  0  0  1  0  0  0  0  0  0
  190.2550  176.2320  147.3850 O   0  0  0  0  0  0  0  0  0  0  0  0
  1 16  1  0  0  0  0
  2 18  2  0  0  0  0
  3 13  1  1  0  0  0
  3  7  1  0  0  0  0
  4 15  1  6  0  0  0
  4 11  1  0  0  0  0
  5 26  1  6  0  0  0
  5  4  1  0  0  0  0
  6 19  1  0  0  0  0
  6  5  1  0  0  0  0
  7 10  2  0  0  0  0
  8 20  1  0  0  0  0
  9 19  1  0  0  0  0
  9  8  1  1  0  0  0
  9 15  1  0  0  0  0
 10 18  1  0  0  0  0
 11 12  1  6  0  0  0
 11 14  1  0  0  0  0
 12  2  1  0  0  0  0
 14 17  1  6  0  0  0
 14 10  1  0  0  0  0
 16  3  1  0  0  0  0
 17 13  1  0  0  0  0
 20 25  1  6  0  0  0
 20  1  1  0  0  0  0
 21 23  1  0  0  0  0
 22 25  1  0  0  0  0
 23 25  2  0  0  0  0
 24 22  1  0  0  0  0
 24 21  2  0  0  0  0
 27 26  2  0  0  0  0
 28 30  1  6  0  0  0
 28 27  1  0  0  0  0
 29 30  1  0  0  0  0
 31 28  1  0  0  0  0
 32 34  2  0  0  0  0
 34 33  1  0  0  0  0
 34 31  1  0  0  0  0
 35 42  1  1  0  0  0
 35 36  1  0  0  0  0
 35 32  1  0  0  0  0
 37 36  1  0  0  0  0
 38 37  1  0  0  0  0
 38 39  1  0  0  0  0
 39 40  1  0  0  0  0
 40 41  1  0  0  0  0
 42 44  1  0  0  0  0
 43 44  1  0  0  0  0
 45 16  1  0  0  0  0
 45 46  1  0  0  0  0
 46 47  1  1  0  0  0
 46 48  1  0  0  0  0
 48 49  1  0  0  0  0
 49 51  2  0  0  0  0
 49 50  1  0  0  0  0
M  END
>  <MODEL>
7

>  <REMARK>
 VINA RESULT:      -3.6      4.356     10.786
  Name = 
  18 active torsions:
  status: ('A' for Active; 'I' for Inactive)
    1  A    between atoms: C_1  and  C_3
    2  A    between atoms: C_1  and  C_13
    3  A    between atoms: C_2  and  C_8
    4  A    between atoms: C_2  and  C_32
    5  A    between atoms: C_4  and  C_48
    6  A    between atoms: C_4  and  C_50
    7  A    between atoms: C_4  and  C_51
    8  A    between atoms: C_8  and  C_16
    9  A    between atoms: C_8  and  N_17
   10  A    between atoms: C_11  and  C_37
   11  A    between atoms: C_12  and  C_39
   12  A    between atoms: C_12  and  C_45
   13  A    between atoms: C_13  and  C_41
   14  A    between atoms: N_17  and  C_41
   15  A    between atoms: C_19  and  C_45
   16  A    between atoms: N_35  and  C_39
   17  A    between atoms: C_40  and  C_49
   18  A    between atoms: C_42  and  C_48
                            x       y       z     vdW  Elec       q    Type
                         _______ _______ _______ _____ _____    ______ ____

>  <TORSDO>
F 18

$$$$
=
 OpenBabel11062414563D

 51 55  0  0  1  0  0  0  0  0999 V2000
  181.3410  177.6130  136.7880 C   0  0  0  0  0  2  0  0  0  0  0  0
  187.0740  178.6820  135.3850 C   0  0  0  0  0  3  0  0  0  0  0  0
  183.0910  176.3080  135.8180 C   0  0  2  0  0  3  0  0  0  0  0  0
  186.0740  177.5240  138.7130 N   0  0  2  0  0  0  0  0  0  0  0  0
  186.7940  178.5190  139.5060 C   0  0  1  0  0  3  0  0  0  0  0  0
  185.8180  179.3910  140.3290 C   0  0  0  0  0  2  0  0  0  0  0  0
  183.9340  177.1320  134.9500 N   0  0  0  0  0  0  0  0  0  0  0  0
  182.4870  178.5650  138.9020 C   0  0  0  0  0  2  0  0  0  0  0  0
  183.8380  178.3680  139.6490 C   0  0  1  0  0  3  0  0  0  0  0  0
  185.1850  177.2660  135.3050 C   0  0  0  0  0  0  0  0  0  0  0  0
  186.4860  177.3340  137.3200 C   0  0  2  0  0  3  0  0  0  0  0  0
  187.2970  178.3210  136.7230 C   0  0  0  0  0  2  0  0  0  0  0  0
  183.7510  174.9950  136.2240 C   0  0  0  0  0  2  0  0  0  0  0  0
  185.6640  176.5860  136.4550 C   0  0  1  0  0  3  0  0  0  0  0  0
  184.6720  177.1810  139.0670 C   0  0  0  0  0  2  0  0  0  0  0  0
  181.6480  176.5500  135.7720 N   0  0  0  0  0  0  0  0  0  0  0  0
  185.0330  175.4620  136.8830 C   0  0  0  0  0  2  0  0  0  0  0  0
  185.9680  178.2230  134.7350 N   0  0  0  0  0  0  0  0  0  0  0  0
  184.6090  179.5970  139.5430 N   0  0  0  0  0  2  0  0  0  0  0  0
  181.9550  177.3210  138.1810 C   0  0  1  0  0  3  0  0  0  0  0  0
  180.1690  174.6590  140.0090 C   0  0  0  0  0  3  0  0  0  0  0  0
  179.7600  177.0290  139.8970 S   0  0  0  0  0  0  0  0  0  0  0  0
  181.1690  175.1450  139.2000 N   0  0  0  0  0  0  0  0  0  0  0  0
  179.2600  175.5620  140.4910 N   0  0  0  0  0  0  0  0  0  0  0  0
  181.0720  176.4850  139.0400 C   0  0  0  0  0  0  0  0  0  0  0  0
  187.8000  177.8520  140.4100 C   0  0  0  0  0  3  0  0  0  0  0  0
  189.0550  177.6770  139.9960 C   0  0  0  0  0  3  0  0  0  0  0  0
  190.0460  176.9570  140.8640 C   0  0  2  0  0  3  0  0  0  0  0  0
  191.1010  176.8070  143.0490 C   0  0  0  0  0  1  0  0  0  0  0  0
  189.8420  177.2160  142.3470 C   0  0  0  0  0  2  0  0  0  0  0  0
  191.4550  177.2960  140.4140 C   0  0  0  0  0  2  0  0  0  0  0  0
  192.8080  176.9970  138.3940 C   0  0  0  0  0  3  0  0  0  0  0  0
  190.9980  175.4920  138.7660 O   0  0  0  0  0  1  0  0  0  0  0  0
  191.7630  176.5970  139.1320 C   0  0  0  0  0  0  0  0  0  0  0  0
  193.2850  176.3300  137.1270 C   0  0  1  0  0  3  0  0  0  0  0  0
  194.5710  175.6330  137.3020 N   0  0  0  0  0  2  0  0  0  0  0  0
  194.3790  174.2400  137.6810 C   0  0  0  0  0  2  0  0  0  0  0  0
  195.5520  173.4060  137.2040 C   0  0  0  0  0  2  0  0  0  0  0  0
  196.1730  174.0210  135.9560 C   0  0  0  0  0  2  0  0  0  0  0  0
  197.4190  174.8130  136.3360 C   0  0  0  0  0  2  0  0  0  0  0  0
  197.2660  176.2080  135.9570 N   0  0  0  0  0  1  0  0  0  0  0  0
  192.2160  175.4910  136.4270 C   0  0  0  0  0  2  0  0  0  0  0  0
  192.1790  173.3650  134.6670 S   0  0  0  0  0  1  0  0  0  0  0  0
  192.6500  175.0860  135.0190 C   0  0  0  0  0  2  0  0  0  0  0  0
  180.8880  175.3590  136.1390 C   0  0  0  0  0  2  0  0  0  0  0  0
  180.3450  174.6780  134.8930 C   0  0  2  0  0  3  0  0  0  0  0  0
  178.9640  174.9160  134.7670 O   0  0  0  0  0  1  0  0  0  0  0  0
  180.5870  173.1760  135.0020 C   0  0  0  0  0  2  0  0  0  0  0  0
  180.3380  172.6520  136.3750 C   0  0  0  0  0  0  0  0  0  0  0  0
  181.4000  172.3040  137.1990 O   0  0  0  0  0  1  0  0  0  0  0  0
  179.1610  172.5530  136.8030 O   0  0  0  0  0  0  0  0  0  0  0  0
  1 20  1  0  0  0  0
  2 12  1  0  0  0  0
  3 13  1  6  0  0  0
  4 15  1  6  0  0  0
  4  5  1  0  0  0  0
  5  6  1  0  0  0  0
  5 26  1  1  0  0  0
  7 10  2  0  0  0  0
  7  3  1  0  0  0  0
  9  8  1  6  0  0  0
 10 14  1  0  0  0  0
 11 12  1  6  0  0  0
 11  4  1  0  0  0  0
 13 17  1  0  0  0  0
 14 17  1  1  0  0  0
 14 11  1  0  0  0  0
 15  9  1  0  0  0  0
 16  3  1  0  0  0  0
 16 45  1  0  0  0  0
 16  1  1  0  0  0  0
 18 10  1  0  0  0  0
 18  2  2  0  0  0  0
 19  9  1  0  0  0  0
 19  6  1  0  0  0  0
 20  8  1  0  0  0  0
 20 25  1  1  0  0  0
 21 24  2  0  0  0  0
 22 24  1  0  0  0  0
 23 21  1  0  0  0  0
 25 23  2  0  0  0  0
 25 22  1  0  0  0  0
 27 26  2  0  0  0  0
 28 27  1  6  0  0  0
 28 30  1  0  0  0  0
 30 29  1  0  0  0  0
 31 28  1  0  0  0  0
 32 34  2  0  0  0  0
 33 34  1  0  0  0  0
 34 31  1  0  0  0  0
 35 42  1  1  0  0  0
 35 36  1  0  0  0  0
 35 32  1  0  0  0  0
 36 37  1  0  0  0  0
 38 37  1  0  0  0  0
 39 40  1  0  0  0  0
 39 38  1  0  0  0  0
 41 40  1  0  0  0  0
 43 44  1  0  0  0  0
 44 42  1  0  0  0  0
 46 47  1  1  0  0  0
 46 48  1  0  0  0  0
 46 45  1  0  0  0  0
 48 49  1  0  0  0  0
 49 51  2  0  0  0  0
 49 50  1  0  0  0  0
M  END
>  <MODEL>
8

>  <REMARK>
 VINA RESULT:      -3.6      3.495      6.373
  Name = 
  18 active torsions:
  status: ('A' for Active; 'I' for Inactive)
    1  A    between atoms: C_1  and  C_3
    2  A    between atoms: C_1  and  C_13
    3  A    between atoms: C_2  and  C_8
    4  A    between atoms: C_2  and  C_32
    5  A    between atoms: C_4  and  C_48
    6  A    between atoms: C_4  and  C_50
    7  A    between atoms: C_4  and  C_51
    8  A    between atoms: C_8  and  C_16
    9  A    between atoms: C_8  and  N_17
   10  A    between atoms: C_11  and  C_37
   11  A    between atoms: C_12  and  C_39
   12  A    between atoms: C_12  and  C_45
   13  A    between atoms: C_13  and  C_41
   14  A    between atoms: N_17  and  C_41
   15  A    between atoms: C_19  and  C_45
   16  A    between atoms: N_35  and  C_39
   17  A    between atoms: C_40  and  C_49
   18  A    between atoms: C_42  and  C_48
                            x       y       z     vdW  Elec       q    Type
                         _______ _______ _______ _____ _____    ______ ____

>  <TORSDO>
F 18

$$$$
=
 OpenBabel11062414563D

 51 55  0  0  1  0  0  0  0  0999 V2000
  183.9520  177.7280  136.2180 C   0  0  0  0  0  2  0  0  0  0  0  0
  189.2980  175.2600  135.0750 C   0  0  0  0  0  3  0  0  0  0  0  0
  184.7660  175.4840  136.1270 C   0  0  2  0  0  3  0  0  0  0  0  0
  188.3290  176.3150  138.4460 N   0  0  2  0  0  0  0  0  0  0  0  0
  189.5220  177.0950  138.7730 C   0  0  1  0  0  3  0  0  0  0  0  0
  189.1700  178.5810  139.0090 C   0  0  0  0  0  2  0  0  0  0  0  0
  185.7700  175.3380  135.0710 N   0  0  0  0  0  0  0  0  0  0  0  0
  185.6740  178.8630  137.7790 C   0  0  0  0  0  2  0  0  0  0  0  0
  186.8710  178.4160  138.6670 C   0  0  1  0  0  3  0  0  0  0  0  0
  186.9790  175.0170  135.4520 C   0  0  0  0  0  0  0  0  0  0  0  0
  188.4200  175.3590  137.3390 C   0  0  2  0  0  3  0  0  0  0  0  0
  189.5060  175.4730  136.4460 C   0  0  0  0  0  2  0  0  0  0  0  0
  184.8000  174.3510  137.1470 C   0  0  0  0  0  2  0  0  0  0  0  0
  187.2410  174.7840  136.8270 C   0  0  1  0  0  3  0  0  0  0  0  0
  186.9850  176.8610  138.7720 C   0  0  0  0  0  2  0  0  0  0  0  0
  183.6020  176.3190  135.8300 N   0  0  0  0  0  0  0  0  0  0  0  0
  186.2290  174.4060  137.6500 C   0  0  0  0  0  2  0  0  0  0  0  0
  188.0290  175.1340  134.5940 N   0  0  0  0  0  0  0  0  0  0  0  0
  188.0970  178.9520  138.0960 N   0  0  0  0  0  2  0  0  0  0  0  0
  184.5430  177.8370  137.6480 C   0  0  1  0  0  3  0  0  0  0  0  0
  181.7600  178.8470  139.8510 C   0  0  0  0  0  3  0  0  0  0  0  0
  183.3700  177.0700  140.0740 S   0  0  0  0  0  0  0  0  0  0  0  0
  182.5330  178.9350  138.7170 N   0  0  0  0  0  0  0  0  0  0  0  0
  182.0820  177.8680  140.7520 N   0  0  0  0  0  0  0  0  0  0  0  0
  183.4970  177.9880  138.6970 C   0  0  0  0  0  0  0  0  0  0  0  0
  190.2210  176.5180  139.9780 C   0  0  0  0  0  3  0  0  0  0  0  0
  190.0110  177.0420  141.1850 C   0  0  0  0  0  3  0  0  0  0  0  0
  190.7510  176.5160  142.3790 C   0  0  2  0  0  3  0  0  0  0  0  0
  188.4290  176.1620  143.0090 C   0  0  0  0  0  1  0  0  0  0  0  0
  189.8420  175.8590  143.4060 C   0  0  0  0  0  2  0  0  0  0  0  0
  191.5890  177.6250  142.9870 C   0  0  0  0  0  2  0  0  0  0  0  0
  190.9170  176.7880  145.1890 C   0  0  0  0  0  3  0  0  0  0  0  0
  191.1950  179.1390  144.9180 O   0  0  0  0  0  1  0  0  0  0  0  0
  191.1940  177.8430  144.4090 C   0  0  0  0  0  0  0  0  0  0  0  0
  190.5900  176.8560  146.6600 C   0  0  1  0  0  3  0  0  0  0  0  0
  189.1640  177.1280  146.9130 N   0  0  0  0  0  2  0  0  0  0  0  0
  188.5290  177.7710  145.7710 C   0  0  0  0  0  2  0  0  0  0  0  0
  187.0290  177.8360  145.9790 C   0  0  0  0  0  2  0  0  0  0  0  0
  186.3310  178.2990  144.7050 C   0  0  0  0  0  2  0  0  0  0  0  0
  184.9310  178.8000  145.0370 C   0  0  0  0  0  2  0  0  0  0  0  0
  184.0010  178.4410  143.9780 N   0  0  0  0  0  1  0  0  0  0  0  0
  191.1520  175.6920  147.4760 C   0  0  0  0  0  2  0  0  0  0  0  0
  193.1640  176.3980  149.2280 S   0  0  0  0  0  1  0  0  0  0  0  0
  192.6730  175.7680  147.5950 C   0  0  0  0  0  2  0  0  0  0  0  0
  182.4380  175.9230  136.6160 C   0  0  0  0  0  2  0  0  0  0  0  0
  181.4660  175.1330  135.7540 C   0  0  2  0  0  3  0  0  0  0  0  0
  180.5940  176.0020  135.0760 O   0  0  0  0  0  1  0  0  0  0  0  0
  180.6520  174.2030  136.6480 C   0  0  0  0  0  2  0  0  0  0  0  0
  180.3170  174.8190  137.9640 C   0  0  0  0  0  0  0  0  0  0  0  0
  179.9960  176.1660  138.0490 O   0  0  0  0  0  0  0  0  0  0  0  0
  180.2930  174.1070  138.9990 O   0  0  0  0  0  1  0  0  0  0  0  0
  1 20  1  0  0  0  0
  2 12  1  0  0  0  0
  3 13  1  6  0  0  0
  4 15  1  6  0  0  0
  4  5  1  0  0  0  0
  5  6  1  0  0  0  0
  5 26  1  1  0  0  0
  7 10  2  0  0  0  0
  7  3  1  0  0  0  0
  9  8  1  6  0  0  0
  9 15  1  0  0  0  0
 10 14  1  0  0  0  0
 11 12  1  6  0  0  0
 11  4  1  0  0  0  0
 13 17  1  0  0  0  0
 14 11  1  0  0  0  0
 14 17  1  1  0  0  0
 16  3  1  0  0  0  0
 16  1  1  0  0  0  0
 16 45  1  0  0  0  0
 18  2  2  0  0  0  0
 18 10  1  0  0  0  0
 19  9  1  0  0  0  0
 19  6  1  0  0  0  0
 20  8  1  0  0  0  0
 20 25  1  1  0  0  0
 21 24  2  0  0  0  0
 22 24  1  0  0  0  0
 23 21  1  0  0  0  0
 25 23  2  0  0  0  0
 25 22  1  0  0  0  0
 26 27  2  0  0  0  0
 28 27  1  6  0  0  0
 28 31  1  0  0  0  0
 28 30  1  0  0  0  0
 29 30  1  0  0  0  0
 31 34  1  0  0  0  0
 34 33  1  0  0  0  0
 34 32  2  0  0  0  0
 35 32  1  6  0  0  0
 35 36  1  0  0  0  0
 35 42  1  0  0  0  0
 37 38  1  0  0  0  0
 37 36  1  0  0  0  0
 39 40  1  0  0  0  0
 39 38  1  0  0  0  0
 41 40  1  0  0  0  0
 42 44  1  0  0  0  0
 44 43  1  0  0  0  0
 46 47  1  1  0  0  0
 46 45  1  0  0  0  0
 46 48  1  0  0  0  0
 48 49  1  0  0  0  0
 49 50  2  0  0  0  0
 49 51  1  0  0  0  0
M  END
>  <MODEL>
9

>  <REMARK>
 VINA RESULT:      -3.6      2.563      3.853
  Name = 
  18 active torsions:
  status: ('A' for Active; 'I' for Inactive)
    1  A    between atoms: C_1  and  C_3
    2  A    between atoms: C_1  and  C_13
    3  A    between atoms: C_2  and  C_8
    4  A    between atoms: C_2  and  C_32
    5  A    between atoms: C_4  and  C_48
    6  A    between atoms: C_4  and  C_50
    7  A    between atoms: C_4  and  C_51
    8  A    between atoms: C_8  and  C_16
    9  A    between atoms: C_8  and  N_17
   10  A    between atoms: C_11  and  C_37
   11  A    between atoms: C_12  and  C_39
   12  A    between atoms: C_12  and  C_45
   13  A    between atoms: C_13  and  C_41
   14  A    between atoms: N_17  and  C_41
   15  A    between atoms: C_19  and  C_45
   16  A    between atoms: N_35  and  C_39
   17  A    between atoms: C_40  and  C_49
   18  A    between atoms: C_42  and  C_48
                            x       y       z     vdW  Elec       q    Type
                         _______ _______ _______ _____ _____    ______ ____

>  <TORSDO>
F 18

$$$$
