=
 OpenBabel11062413383D

 42 47  0  0  1  0  0  0  0  0999 V2000
  184.5160  179.2850  139.5380 C   0  0  0  0  0  0  0  0  0  0  0  0
  184.0960  180.2160  138.7990 O   0  0  0  0  0  0  0  0  0  0  0  0
  184.0190  178.0690  136.7990 F   0  0  0  0  0  0  0  0  0  0  0  0
  183.7070  175.2700  137.1250 C   0  0  0  0  0  2  0  0  0  0  0  0
  182.4020  175.5070  137.8930 C   0  0  0  0  0  2  0  0  0  0  0  0
  184.9470  176.0010  137.6490 C   0  0  0  0  0  2  0  0  0  0  0  0
  184.7670  177.5100  137.8240 C   0  0  2  0  0  3  0  0  0  0  0  0
  184.2080  177.8590  139.2110 C   0  0  2  0  0  3  0  0  0  0  0  0
  182.7310  177.4570  139.3900 C   0  0  1  0  0  3  0  0  0  0  0  0
  182.6020  175.9330  139.3360 C   0  0  0  0  0  2  0  0  0  0  0  0
  182.1240  177.9990  140.6990 C   0  0  0  0  0  2  0  0  0  0  0  0
  179.1210  183.1340  138.4330 C   0  0  0  0  0  0  0  0  0  0  0  0
  179.1620  181.3910  142.1970 O   0  0  0  0  0  0  0  0  0  0  0  0
  181.0450  179.0000  140.4170 C   0  0  0  0  0  0  0  0  0  0  0  0
  179.6240  180.7870  141.1970 C   0  0  0  0  0  0  0  0  0  0  0  0
  179.0730  182.6060  139.6220 N   0  0  0  0  0  0  0  0  0  0  0  0
  179.4820  182.3290  137.3100 N   0  0  0  0  0  2  0  0  0  0  0  0
  180.5320  179.6920  141.3920 N   0  0  0  0  0  0  0  0  0  0  0  0
  180.0500  181.0330  137.5310 C   0  0  0  0  0  3  0  0  0  0  0  0
  179.1690  181.1590  139.8140 C   0  0  1  0  0  3  0  0  0  0  0  0
  178.9310  184.5970  138.2670 C   0  0  0  0  0  1  0  0  0  0  0  0
  180.0040  180.4990  138.7490 C   0  0  0  0  0  0  0  0  0  0  0  0
  180.7580  179.3310  139.0540 N   0  0  0  0  0  2  0  0  0  0  0  0
  185.3580  179.5630  140.6110 O   0  0  0  0  0  0  0  0  0  0  0  0
  186.0130  178.5340  141.3470 C   0  0  2  0  0  3  0  0  0  0  0  0
  186.5250  177.9330  145.0830 N   0  0  0  0  0  0  0  0  0  0  0  0
  184.4410  178.6880  143.3180 C   0  0  0  0  0  2  0  0  0  0  0  0
  185.9040  178.8070  142.8580 C   0  0  1  0  0  3  0  0  0  0  0  0
  187.5960  177.8270  146.0240 C   0  0  0  0  0  0  0  0  0  0  0  0
  186.7910  177.8310  143.6480 C   0  0  0  0  0  2  0  0  0  0  0  0
  187.3600  177.4390  147.2060 O   0  0  0  0  0  0  0  0  0  0  0  0
  185.1380  177.8690  145.5420 C   0  0  0  0  0  2  0  0  0  0  0  0
  184.3290  178.9250  144.8150 C   0  0  0  0  0  2  0  0  0  0  0  0
  188.8940  178.1830  145.6420 O   0  0  0  0  0  0  0  0  0  0  0  0
  190.9330  179.1400  144.0970 C   0  0  0  0  0  1  0  0  0  0  0  0
  189.9410  177.2180  145.5040 C   0  0  1  0  0  3  0  0  0  0  0  0
  191.5560  176.6410  143.7020 C   0  0  2  0  0  3  0  0  0  0  0  0
  190.0850  176.8250  144.0430 C   0  0  2  0  0  3  0  0  0  0  0  0
  191.1190  177.7340  144.6840 C   0  0  2  0  0  0  0  0  0  0  0  0
  191.8260  177.1490  142.2930 C   0  0  0  0  0  1  0  0  0  0  0  0
  187.5560  178.5460  139.5040 O   0  0  0  0  0  1  0  0  0  0  0  0
  187.4680  178.4810  140.9000 C   0  0  0  0  0  2  0  0  0  0  0  0
  1 24  1  0  0  0  0
  2  1  2  0  0  0  0
  4  6  1  0  0  0  0
  4  5  1  0  0  0  0
  5 10  1  0  0  0  0
  6  7  1  0  0  0  0
  7  3  1  6  0  0  0
  7  8  1  0  0  0  0
  8  9  1  0  0  0  0
  8  1  1  6  0  0  0
  9 11  1  1  0  0  0
 10  9  1  0  0  0  0
 12 16  2  0  0  0  0
 14 11  1  0  0  0  0
 14 18  2  0  0  0  0
 15 18  1  0  0  0  0
 15 13  2  0  0  0  0
 16 20  1  0  0  0  0
 17 19  1  0  0  0  0
 17 12  1  0  0  0  0
 19 22  2  0  0  0  0
 20 22  1  6  0  0  0
 20 15  1  0  0  0  0
 21 12  1  0  0  0  0
 22 23  1  0  0  0  0
 23 14  1  0  0  0  0
 24 25  1  0  0  0  0
 25 42  1  6  0  0  0
 26 32  1  0  0  0  0
 26 29  1  0  0  0  0
 27 33  1  0  0  0  0
 28 25  1  6  0  0  0
 28 27  1  0  0  0  0
 28 30  1  0  0  0  0
 29 31  2  0  0  0  0
 30 26  1  0  0  0  0
 33 32  1  0  0  0  0
 34 29  1  0  0  0  0
 35 39  1  0  0  0  0
 36 34  1  6  0  0  0
 37 40  1  6  0  0  0
 37 38  1  0  0  0  0
 37 39  1  0  0  0  0
 38 39  1  0  0  0  0
 38 36  1  0  0  0  0
 39 36  1  0  0  0  0
 41 42  1  0  0  0  0
M  END
>  <MODEL>
1

>  <REMARK>
 VINA RESULT:      -8.8      0.000      0.000
  Name = 
  9 active torsions:
  status: ('A' for Active; 'I' for Inactive)
    1  A    between atoms: C_2  and  O_36
    2  A    between atoms: C_3  and  C_16
    3  A    between atoms: C_3  and  C_29
    4  A    between atoms: O_4  and  C_8
    5  A    between atoms: O_4  and  C_30
    6  A    between atoms: C_8  and  C_25
    7  A    between atoms: C_21  and  C_30
    8  A    between atoms: C_28  and  O_36
    9  A    between atoms: C_30  and  C_42
                            x       y       z     vdW  Elec       q    Type
                         _______ _______ _______ _____ _____    ______ ____

>  <TORSDO>
F 9

$$$$
=
 OpenBabel11062413383D

 42 47  0  0  1  0  0  0  0  0999 V2000
  183.2110  178.1840  141.2540 C   0  0  0  0  0  0  0  0  0  0  0  0
  183.3420  176.9940  140.8560 O   0  0  0  0  0  0  0  0  0  0  0  0
  180.5450  177.4850  139.9760 F   0  0  0  0  0  0  0  0  0  0  0  0
  179.3230  179.8960  139.1210 C   0  0  0  0  0  2  0  0  0  0  0  0
  180.4280  180.0830  138.0760 C   0  0  0  0  0  2  0  0  0  0  0  0
  179.7820  179.7040  140.5700 C   0  0  0  0  0  2  0  0  0  0  0  0
  180.8130  178.5920  140.7670 C   0  0  2  0  0  3  0  0  0  0  0  0
  182.2480  179.1080  140.5790 C   0  0  2  0  0  3  0  0  0  0  0  0
  182.5880  179.4420  139.1140 C   0  0  1  0  0  3  0  0  0  0  0  0
  181.7300  180.6190  138.6420 C   0  0  0  0  0  2  0  0  0  0  0  0
  184.0830  179.7550  138.9090 C   0  0  0  0  0  2  0  0  0  0  0  0
  186.0730  173.9920  137.0760 C   0  0  0  0  0  0  0  0  0  0  0  0
  188.0380  177.6340  137.3650 O   0  0  0  0  0  0  0  0  0  0  0  0
  184.7540  178.6720  138.1190 C   0  0  0  0  0  0  0  0  0  0  0  0
  186.7860  177.5650  137.4340 C   0  0  0  0  0  0  0  0  0  0  0  0
  186.7260  175.1170  137.1160 N   0  0  0  0  0  0  0  0  0  0  0  0
  184.6490  173.9980  136.9710 N   0  0  0  0  0  2  0  0  0  0  0  0
  186.0510  178.6510  138.0200 N   0  0  0  0  0  0  0  0  0  0  0  0
  183.9350  175.2210  137.1860 C   0  0  0  0  0  3  0  0  0  0  0  0
  186.0600  176.3910  136.8400 C   0  0  1  0  0  3  0  0  0  0  0  0
  186.7980  172.7120  137.2730 C   0  0  0  0  0  1  0  0  0  0  0  0
  184.6070  176.3690  137.2320 C   0  0  0  0  0  0  0  0  0  0  0  0
  183.9680  177.5610  137.6740 N   0  0  0  0  0  2  0  0  0  0  0  0
  183.8860  178.6250  142.3890 O   0  0  0  0  0  0  0  0  0  0  0  0
  185.2630  178.3370  142.6130 C   0  0  2  0  0  3  0  0  0  0  0  0
  186.9440  177.8390  146.0040 N   0  0  0  0  0  0  0  0  0  0  0  0
  184.4040  178.5620  144.9780 C   0  0  0  0  0  2  0  0  0  0  0  0
  185.6430  178.6550  144.0700 C   0  0  1  0  0  3  0  0  0  0  0  0
  188.2600  177.7510  146.5560 C   0  0  0  0  0  0  0  0  0  0  0  0
  186.7370  177.6940  144.5640 C   0  0  0  0  0  2  0  0  0  0  0  0
  188.4150  177.4000  147.7620 O   0  0  0  0  0  0  0  0  0  0  0  0
  185.7780  177.8020  146.8850 C   0  0  0  0  0  2  0  0  0  0  0  0
  184.7780  178.8430  146.4250 C   0  0  0  0  0  2  0  0  0  0  0  0
  189.3670  178.0850  145.7680 O   0  0  0  0  0  0  0  0  0  0  0  0
  191.1560  179.1460  143.9980 C   0  0  0  0  0  1  0  0  0  0  0  0
  190.3270  177.1100  145.3470 C   0  0  1  0  0  3  0  0  0  0  0  0
  191.5790  176.6890  143.2400 C   0  0  2  0  0  3  0  0  0  0  0  0
  190.1990  176.8780  143.8510 C   0  0  2  0  0  3  0  0  0  0  0  0
  191.3700  177.6790  144.3920 C   0  0  2  0  0  0  0  0  0  0  0  0
  191.6270  177.3430  141.8670 C   0  0  0  0  0  1  0  0  0  0  0  0
  187.1980  178.4360  141.1920 O   0  0  0  0  0  1  0  0  0  0  0  0
  186.0880  179.1630  141.6350 C   0  0  0  0  0  2  0  0  0  0  0  0
  1 24  1  0  0  0  0
  2  1  2  0  0  0  0
  4  6  1  0  0  0  0
  5 10  1  0  0  0  0
  5  4  1  0  0  0  0
  6  7  1  0  0  0  0
  7  3  1  6  0  0  0
  8  7  1  0  0  0  0
  8  1  1  6  0  0  0
  9 11  1  1  0  0  0
  9  8  1  0  0  0  0
 10  9  1  0  0  0  0
 12 16  2  0  0  0  0
 12 21  1  0  0  0  0
 13 15  2  0  0  0  0
 14 11  1  0  0  0  0
 15 18  1  0  0  0  0
 17 12  1  0  0  0  0
 17 19  1  0  0  0  0
 18 14  2  0  0  0  0
 19 22  2  0  0  0  0
 20 16  1  1  0  0  0
 20 22  1  0  0  0  0
 20 15  1  0  0  0  0
 22 23  1  0  0  0  0
 23 14  1  0  0  0  0
 24 25  1  0  0  0  0
 25 42  1  6  0  0  0
 26 29  1  0  0  0  0
 26 32  1  0  0  0  0
 27 33  1  0  0  0  0
 28 25  1  6  0  0  0
 28 30  1  0  0  0  0
 28 27  1  0  0  0  0
 29 31  2  0  0  0  0
 30 26  1  0  0  0  0
 33 32  1  0  0  0  0
 34 29  1  0  0  0  0
 35 39  1  0  0  0  0
 36 34  1  6  0  0  0
 37 40  1  6  0  0  0
 37 38  1  0  0  0  0
 37 39  1  0  0  0  0
 38 39  1  0  0  0  0
 38 36  1  0  0  0  0
 39 36  1  0  0  0  0
 41 42  1  0  0  0  0
M  END
>  <MODEL>
2

>  <REMARK>
 VINA RESULT:      -8.7      2.625      5.464
  Name = 
  9 active torsions:
  status: ('A' for Active; 'I' for Inactive)
    1  A    between atoms: C_2  and  O_36
    2  A    between atoms: C_3  and  C_16
    3  A    between atoms: C_3  and  C_29
    4  A    between atoms: O_4  and  C_8
    5  A    between atoms: O_4  and  C_30
    6  A    between atoms: C_8  and  C_25
    7  A    between atoms: C_21  and  C_30
    8  A    between atoms: C_28  and  O_36
    9  A    between atoms: C_30  and  C_42
                            x       y       z     vdW  Elec       q    Type
                         _______ _______ _______ _____ _____    ______ ____

>  <TORSDO>
F 9

$$$$
=
 OpenBabel11062413383D

 42 47  0  0  1  0  0  0  0  0999 V2000
  183.0770  177.7690  140.8910 C   0  0  0  0  0  0  0  0  0  0  0  0
  182.8420  176.6060  140.4640 O   0  0  0  0  0  0  0  0  0  0  0  0
  180.6230  177.7850  139.1000 F   0  0  0  0  0  0  0  0  0  0  0  0
  179.9240  180.4860  138.5930 C   0  0  0  0  0  2  0  0  0  0  0  0
  181.2180  180.6680  137.7940 C   0  0  0  0  0  2  0  0  0  0  0  0
  180.0760  179.9560  140.0230 C   0  0  0  0  0  2  0  0  0  0  0  0
  180.8900  178.6660  140.1380 C   0  0  2  0  0  3  0  0  0  0  0  0
  182.3920  178.9530  140.2850 C   0  0  2  0  0  3  0  0  0  0  0  0
  183.0400  179.4860  138.9930 C   0  0  1  0  0  3  0  0  0  0  0  0
  182.4550  180.8600  138.6530 C   0  0  0  0  0  2  0  0  0  0  0  0
  184.5760  179.5690  139.0900 C   0  0  0  0  0  2  0  0  0  0  0  0
  186.2970  173.8300  136.9410 C   0  0  0  0  0  0  0  0  0  0  0  0
  188.4750  177.2920  137.6300 O   0  0  0  0  0  0  0  0  0  0  0  0
  185.2240  178.5020  138.2610 C   0  0  0  0  0  0  0  0  0  0  0  0
  187.2190  177.3070  137.6180 C   0  0  0  0  0  0  0  0  0  0  0  0
  187.0190  174.9000  137.1080 N   0  0  0  0  0  0  0  0  0  0  0  0
  184.8870  173.9440  136.7500 N   0  0  0  0  0  2  0  0  0  0  0  0
  186.5210  178.3970  138.2400 N   0  0  0  0  0  0  0  0  0  0  0  0
  184.2430  175.1950  137.0150 C   0  0  0  0  0  3  0  0  0  0  0  0
  186.4580  176.2340  136.8910 C   0  0  1  0  0  3  0  0  0  0  0  0
  186.9220  172.4900  137.0820 C   0  0  0  0  0  1  0  0  0  0  0  0
  184.9840  176.2860  137.1910 C   0  0  0  0  0  0  0  0  0  0  0  0
  184.3970  177.4850  137.6850 N   0  0  0  0  0  2  0  0  0  0  0  0
  183.9000  177.9610  141.9980 O   0  0  0  0  0  0  0  0  0  0  0  0
  183.6690  179.0020  142.9420 C   0  0  2  0  0  3  0  0  0  0  0  0
  186.8030  177.8360  144.7860 N   0  0  0  0  0  0  0  0  0  0  0  0
  184.2590  178.9240  145.3970 C   0  0  0  0  0  2  0  0  0  0  0  0
  184.8150  179.0530  143.9680 C   0  0  1  0  0  3  0  0  0  0  0  0
  188.1760  177.5510  144.5100 C   0  0  0  0  0  0  0  0  0  0  0  0
  185.8360  177.9360  143.6930 C   0  0  0  0  0  2  0  0  0  0  0  0
  188.8960  177.0030  145.3950 O   0  0  0  0  0  0  0  0  0  0  0  0
  186.3010  177.7600  146.1570 C   0  0  0  0  0  2  0  0  0  0  0  0
  185.3880  178.9420  146.4150 C   0  0  0  0  0  2  0  0  0  0  0  0
  188.7250  177.9090  143.2730 O   0  0  0  0  0  0  0  0  0  0  0  0
  191.3500  177.4140  142.7050 C   0  0  0  0  0  1  0  0  0  0  0  0
  188.8590  176.9740  142.1980 C   0  0  1  0  0  3  0  0  0  0  0  0
  190.5050  176.6510  140.3620 C   0  0  2  0  0  3  0  0  0  0  0  0
  189.5590  177.6400  141.0250 C   0  0  2  0  0  3  0  0  0  0  0  0
  190.3130  176.6380  141.8830 C   0  0  2  0  0  0  0  0  0  0  0  0
  191.7660  177.3710  139.9060 C   0  0  0  0  0  1  0  0  0  0  0  0
  181.4540  179.8100  143.4040 O   0  0  0  0  0  1  0  0  0  0  0  0
  182.3310  178.7410  143.6220 C   0  0  0  0  0  2  0  0  0  0  0  0
  1 24  1  0  0  0  0
  2  1  2  0  0  0  0
  4  6  1  0  0  0  0
  5  4  1  0  0  0  0
  5 10  1  0  0  0  0
  6  7  1  0  0  0  0
  7  3  1  6  0  0  0
  7  8  1  0  0  0  0
  8  1  1  6  0  0  0
  9 11  1  1  0  0  0
  9  8  1  0  0  0  0
 10  9  1  0  0  0  0
 12 21  1  0  0  0  0
 12 16  2  0  0  0  0
 14 11  1  0  0  0  0
 15 13  2  0  0  0  0
 15 18  1  0  0  0  0
 17 12  1  0  0  0  0
 17 19  1  0  0  0  0
 18 14  2  0  0  0  0
 19 22  2  0  0  0  0
 20 16  1  1  0  0  0
 20 22  1  0  0  0  0
 20 15  1  0  0  0  0
 22 23  1  0  0  0  0
 23 14  1  0  0  0  0
 24 25  1  0  0  0  0
 25 42  1  1  0  0  0
 26 32  1  0  0  0  0
 27 33  1  0  0  0  0
 28 25  1  6  0  0  0
 28 27  1  0  0  0  0
 29 26  1  0  0  0  0
 29 31  2  0  0  0  0
 30 28  1  0  0  0  0
 30 26  1  0  0  0  0
 32 33  1  0  0  0  0
 34 29  1  0  0  0  0
 36 34  1  1  0  0  0
 37 40  1  1  0  0  0
 37 38  1  0  0  0  0
 37 39  1  0  0  0  0
 38 39  1  0  0  0  0
 38 36  1  0  0  0  0
 39 36  1  0  0  0  0
 39 35  1  0  0  0  0
 41 42  1  0  0  0  0
M  END
>  <MODEL>
3

>  <REMARK>
 VINA RESULT:      -8.5      2.744      5.915
  Name = 
  9 active torsions:
  status: ('A' for Active; 'I' for Inactive)
    1  A    between atoms: C_2  and  O_36
    2  A    between atoms: C_3  and  C_16
    3  A    between atoms: C_3  and  C_29
    4  A    between atoms: O_4  and  C_8
    5  A    between atoms: O_4  and  C_30
    6  A    between atoms: C_8  and  C_25
    7  A    between atoms: C_21  and  C_30
    8  A    between atoms: C_28  and  O_36
    9  A    between atoms: C_30  and  C_42
                            x       y       z     vdW  Elec       q    Type
                         _______ _______ _______ _____ _____    ______ ____

>  <TORSDO>
F 9

$$$$
=
 OpenBabel11062413383D

 42 47  0  0  1  0  0  0  0  0999 V2000
  185.4310  178.2820  138.5340 C   0  0  0  0  0  0  0  0  0  0  0  0
  185.8500  178.9700  139.5040 O   0  0  0  0  0  0  0  0  0  0  0  0
  185.6950  175.6310  137.0740 F   0  0  0  0  0  0  0  0  0  0  0  0
  187.5140  175.9890  134.9280 C   0  0  0  0  0  2  0  0  0  0  0  0
  188.6510  176.2070  135.9310 C   0  0  0  0  0  2  0  0  0  0  0  0
  186.2820  176.8870  135.0890 C   0  0  0  0  0  2  0  0  0  0  0  0
  185.6810  176.8910  136.4950 C   0  0  2  0  0  3  0  0  0  0  0  0
  186.3380  177.9520  137.3910 C   0  0  2  0  0  3  0  0  0  0  0  0
  187.7840  177.5990  137.7910 C   0  0  1  0  0  3  0  0  0  0  0  0
  188.6750  177.5940  136.5470 C   0  0  0  0  0  2  0  0  0  0  0  0
  188.3550  178.5590  138.8540 C   0  0  0  0  0  2  0  0  0  0  0  0
  190.8230  176.7970  144.4510 C   0  0  0  0  0  0  0  0  0  0  0  0
  192.5440  177.3310  140.7150 O   0  0  0  0  0  0  0  0  0  0  0  0
  189.1530  177.8110  139.8780 C   0  0  0  0  0  0  0  0  0  0  0  0
  191.2970  177.2880  140.8540 C   0  0  0  0  0  0  0  0  0  0  0  0
  191.4050  176.9170  143.2920 N   0  0  0  0  0  0  0  0  0  0  0  0
  189.4160  176.5650  144.5210 N   0  0  0  0  0  2  0  0  0  0  0  0
  190.4530  177.8270  139.8250 N   0  0  0  0  0  0  0  0  0  0  0  0
  188.6180  176.7400  143.3450 C   0  0  0  0  0  3  0  0  0  0  0  0
  190.6940  176.6080  142.0510 C   0  0  1  0  0  3  0  0  0  0  0  0
  191.6010  177.0320  145.6940 C   0  0  0  0  0  1  0  0  0  0  0  0
  189.2160  176.8690  142.1630 C   0  0  0  0  0  0  0  0  0  0  0  0
  188.4740  177.2760  141.0190 N   0  0  0  0  0  2  0  0  0  0  0  0
  184.1520  177.7350  138.5590 O   0  0  0  0  0  0  0  0  0  0  0  0
  183.0260  178.4130  138.0080 C   0  0  2  0  0  3  0  0  0  0  0  0
  181.2000  179.2640  141.2520 N   0  0  0  0  0  0  0  0  0  0  0  0
  181.1000  179.9680  138.5100 C   0  0  0  0  0  2  0  0  0  0  0  0
  182.3680  179.3050  139.0750 C   0  0  1  0  0  3  0  0  0  0  0  0
  181.3940  179.1480  142.6640 C   0  0  0  0  0  0  0  0  0  0  0  0
  182.0220  178.4830  140.3290 C   0  0  0  0  0  2  0  0  0  0  0  0
  180.4400  179.4110  143.4540 O   0  0  0  0  0  0  0  0  0  0  0  0
  180.0160  179.9430  140.7290 C   0  0  0  0  0  2  0  0  0  0  0  0
  180.4260  180.8270  139.5680 C   0  0  0  0  0  2  0  0  0  0  0  0
  182.6460  178.7760  143.1650 O   0  0  0  0  0  0  0  0  0  0  0  0
  185.3060  178.1620  143.2280 C   0  0  0  0  0  1  0  0  0  0  0  0
  183.3390  179.5550  144.1450 C   0  0  1  0  0  3  0  0  0  0  0  0
  185.2860  179.1510  145.6380 C   0  0  2  0  0  3  0  0  0  0  0  0
  183.9190  178.6400  145.2100 C   0  0  2  0  0  3  0  0  0  0  0  0
  184.8370  179.2720  144.1780 C   0  0  2  0  0  0  0  0  0  0  0  0
  186.2160  177.9750  145.9020 C   0  0  0  0  0  1  0  0  0  0  0  0
  182.4780  176.0800  137.8260 O   0  0  0  0  0  1  0  0  0  0  0  0
  182.0490  177.3680  137.4840 C   0  0  0  0  0  2  0  0  0  0  0  0
  1 24  1  0  0  0  0
  1  2  2  0  0  0  0
  4  6  1  0  0  0  0
  4  5  1  0  0  0  0
  5 10  1  0  0  0  0
  6  7  1  0  0  0  0
  7  3  1  1  0  0  0
  7  8  1  0  0  0  0
  8  9  1  0  0  0  0
  8  1  1  1  0  0  0
  9 11  1  1  0  0  0
 10  9  1  0  0  0  0
 11 14  1  0  0  0  0
 12 17  1  0  0  0  0
 12 21  1  0  0  0  0
 13 15  2  0  0  0  0
 14 23  1  0  0  0  0
 16 12  2  0  0  0  0
 18 14  2  0  0  0  0
 18 15  1  0  0  0  0
 19 17  1  0  0  0  0
 20 15  1  6  0  0  0
 20 22  1  0  0  0  0
 20 16  1  0  0  0  0
 22 19  2  0  0  0  0
 23 22  1  0  0  0  0
 25 42  1  1  0  0  0
 25 24  1  0  0  0  0
 26 29  1  0  0  0  0
 27 28  1  0  0  0  0
 27 33  1  0  0  0  0
 28 25  1  6  0  0  0
 28 30  1  0  0  0  0
 29 34  1  0  0  0  0
 29 31  2  0  0  0  0
 30 26  1  0  0  0  0
 32 26  1  0  0  0  0
 33 32  1  0  0  0  0
 35 39  1  0  0  0  0
 36 34  1  6  0  0  0
 36 39  1  0  0  0  0
 36 38  1  0  0  0  0
 37 40  1  6  0  0  0
 38 37  1  0  0  0  0
 39 38  1  0  0  0  0
 39 37  1  0  0  0  0
 42 41  1  0  0  0  0
M  END
>  <MODEL>
4

>  <REMARK>
 VINA RESULT:      -8.5      2.726      8.224
  Name = 
  9 active torsions:
  status: ('A' for Active; 'I' for Inactive)
    1  A    between atoms: C_2  and  O_36
    2  A    between atoms: C_3  and  C_16
    3  A    between atoms: C_3  and  C_29
    4  A    between atoms: O_4  and  C_8
    5  A    between atoms: O_4  and  C_30
    6  A    between atoms: C_8  and  C_25
    7  A    between atoms: C_21  and  C_30
    8  A    between atoms: C_28  and  O_36
    9  A    between atoms: C_30  and  C_42
                            x       y       z     vdW  Elec       q    Type
                         _______ _______ _______ _____ _____    ______ ____

>  <TORSDO>
F 9

$$$$
=
 OpenBabel11062413383D

 42 47  0  0  1  0  0  0  0  0999 V2000
  190.9810  177.2950  140.7980 C   0  0  0  0  0  0  0  0  0  0  0  0
  192.0440  177.7720  140.3170 O   0  0  0  0  0  0  0  0  0  0  0  0
  190.5580  175.2480  143.0030 F   0  0  0  0  0  0  0  0  0  0  0  0
  190.0830  176.6480  145.4220 C   0  0  0  0  0  2  0  0  0  0  0  0
  188.7560  177.1660  144.8580 C   0  0  0  0  0  2  0  0  0  0  0  0
  191.3330  176.9160  144.5760 C   0  0  0  0  0  2  0  0  0  0  0  0
  191.2240  176.4590  143.1210 C   0  0  2  0  0  3  0  0  0  0  0  0
  190.6150  177.5480  142.2260 C   0  0  2  0  0  3  0  0  0  0  0  0
  189.1120  177.7740  142.4800 C   0  0  1  0  0  3  0  0  0  0  0  0
  188.9060  178.3280  143.8920 C   0  0  0  0  0  2  0  0  0  0  0  0
  188.4700  178.7120  141.4390 C   0  0  0  0  0  2  0  0  0  0  0  0
  182.3380  179.4050  139.8740 C   0  0  0  0  0  0  0  0  0  0  0  0
  184.1770  178.2500  143.4080 O   0  0  0  0  0  0  0  0  0  0  0  0
  187.0020  178.4420  141.3070 C   0  0  0  0  0  0  0  0  0  0  0  0
  184.8210  178.3110  142.3320 C   0  0  0  0  0  0  0  0  0  0  0  0
  182.8640  179.0040  140.9950 N   0  0  0  0  0  0  0  0  0  0  0  0
  183.0700  179.2720  138.6560 N   0  0  0  0  0  2  0  0  0  0  0  0
  186.2540  178.3910  142.3710 N   0  0  0  0  0  0  0  0  0  0  0  0
  184.4660  178.9590  138.7070 C   0  0  0  0  0  3  0  0  0  0  0  0
  184.1010  178.2220  141.0160 C   0  0  1  0  0  3  0  0  0  0  0  0
  181.0360  180.1180  139.8840 C   0  0  0  0  0  1  0  0  0  0  0  0
  185.0020  178.5550  139.8570 C   0  0  0  0  0  0  0  0  0  0  0  0
  186.4150  178.4640  140.0010 N   0  0  0  0  0  2  0  0  0  0  0  0
  190.0820  176.6130  139.9830 O   0  0  0  0  0  0  0  0  0  0  0  0
  190.1020  176.7350  138.5640 C   0  0  2  0  0  3  0  0  0  0  0  0
  186.8900  177.0060  136.5180 N   0  0  0  0  0  0  0  0  0  0  0  0
  189.0640  178.6520  137.2880 C   0  0  0  0  0  2  0  0  0  0  0  0
  188.7850  177.3540  138.0640 C   0  0  1  0  0  3  0  0  0  0  0  0
  185.6580  176.3020  136.3420 C   0  0  0  0  0  0  0  0  0  0  0  0
  188.0230  176.3560  137.1750 C   0  0  0  0  0  2  0  0  0  0  0  0
  184.8740  176.6310  135.4040 O   0  0  0  0  0  0  0  0  0  0  0  0
  187.1200  178.2660  135.8130 C   0  0  0  0  0  2  0  0  0  0  0  0
  187.7700  179.2520  136.7630 C   0  0  0  0  0  2  0  0  0  0  0  0
  185.3130  175.2750  137.2260 O   0  0  0  0  0  0  0  0  0  0  0  0
  185.5440  172.6290  137.8600 C   0  0  0  0  0  1  0  0  0  0  0  0
  184.0460  174.6110  137.1690 C   0  0  1  0  0  3  0  0  0  0  0  0
  183.3040  172.3150  136.5670 C   0  0  2  0  0  3  0  0  0  0  0  0
  184.0790  173.5360  136.0960 C   0  0  2  0  0  3  0  0  0  0  0  0
  184.1290  173.1410  137.5610 C   0  0  2  0  0  0  0  0  0  0  0  0
  184.0000  171.0490  136.0910 C   0  0  0  0  0  1  0  0  0  0  0  0
  191.5900  174.8650  138.3110 O   0  0  0  0  0  1  0  0  0  0  0  0
  190.3220  175.3510  137.9690 C   0  0  0  0  0  2  0  0  0  0  0  0
  2  1  2  0  0  0  0
  5  4  1  0  0  0  0
  6  4  1  0  0  0  0
  7  3  1  1  0  0  0
  7  6  1  0  0  0  0
  8  1  1  6  0  0  0
  8  9  1  0  0  0  0
  8  7  1  0  0  0  0
  9 11  1  6  0  0  0
  9 10  1  0  0  0  0
 10  5  1  0  0  0  0
 12 21  1  0  0  0  0
 12 16  2  0  0  0  0
 14 11  1  0  0  0  0
 14 18  2  0  0  0  0
 15 18  1  0  0  0  0
 15 13  2  0  0  0  0
 16 20  1  0  0  0  0
 17 19  1  0  0  0  0
 17 12  1  0  0  0  0
 19 22  2  0  0  0  0
 20 22  1  6  0  0  0
 20 15  1  0  0  0  0
 22 23  1  0  0  0  0
 23 14  1  0  0  0  0
 24  1  1  0  0  0  0
 25 42  1  6  0  0  0
 25 24  1  0  0  0  0
 26 30  1  0  0  0  0
 27 28  1  0  0  0  0
 28 25  1  6  0  0  0
 29 26  1  0  0  0  0
 29 34  1  0  0  0  0
 30 28  1  0  0  0  0
 31 29  2  0  0  0  0
 32 26  1  0  0  0  0
 32 33  1  0  0  0  0
 33 27  1  0  0  0  0
 36 34  1  6  0  0  0
 36 39  1  0  0  0  0
 37 40  1  6  0  0  0
 37 39  1  0  0  0  0
 38 37  1  0  0  0  0
 38 36  1  0  0  0  0
 38 39  1  0  0  0  0
 39 35  1  0  0  0  0
 42 41  1  0  0  0  0
M  END
>  <MODEL>
5

>  <REMARK>
 VINA RESULT:      -8.2      3.388      8.049
  Name = 
  9 active torsions:
  status: ('A' for Active; 'I' for Inactive)
    1  A    between atoms: C_2  and  O_36
    2  A    between atoms: C_3  and  C_16
    3  A    between atoms: C_3  and  C_29
    4  A    between atoms: O_4  and  C_8
    5  A    between atoms: O_4  and  C_30
    6  A    between atoms: C_8  and  C_25
    7  A    between atoms: C_21  and  C_30
    8  A    between atoms: C_28  and  O_36
    9  A    between atoms: C_30  and  C_42
                            x       y       z     vdW  Elec       q    Type
                         _______ _______ _______ _____ _____    ______ ____

>  <TORSDO>
F 9

$$$$
=
 OpenBabel11062413383D

 42 47  0  0  1  0  0  0  0  0999 V2000
  184.1830  176.6070  136.6680 C   0  0  0  0  0  0  0  0  0  0  0  0
  183.7870  177.4440  135.8110 O   0  0  0  0  0  0  0  0  0  0  0  0
  184.4650  173.8760  137.9680 F   0  0  0  0  0  0  0  0  0  0  0  0
  186.3070  172.3610  136.4360 C   0  0  0  0  0  2  0  0  0  0  0  0
  187.4330  173.3130  136.8520 C   0  0  0  0  0  2  0  0  0  0  0  0
  185.0740  173.0040  135.7930 C   0  0  0  0  0  2  0  0  0  0  0  0
  184.4560  174.1420  136.6070 C   0  0  2  0  0  3  0  0  0  0  0  0
  185.1020  175.4950  136.2740 C   0  0  2  0  0  3  0  0  0  0  0  0
  186.5440  175.6280  136.8030 C   0  0  1  0  0  3  0  0  0  0  0  0
  187.4490  174.6240  136.0860 C   0  0  0  0  0  2  0  0  0  0  0  0
  187.1020  177.0560  136.6490 C   0  0  0  0  0  2  0  0  0  0  0  0
  189.2820  177.3170  142.6240 C   0  0  0  0  0  0  0  0  0  0  0  0
  186.1380  179.2590  140.7400 O   0  0  0  0  0  0  0  0  0  0  0  0
  187.5540  177.6000  137.9700 C   0  0  0  0  0  0  0  0  0  0  0  0
  187.0060  178.6370  140.0790 C   0  0  0  0  0  0  0  0  0  0  0  0
  188.3060  177.9780  142.0710 N   0  0  0  0  0  0  0  0  0  0  0  0
  190.3350  176.7920  141.8160 N   0  0  0  0  0  2  0  0  0  0  0  0
  186.7120  178.2340  138.7320 N   0  0  0  0  0  0  0  0  0  0  0  0
  190.1740  176.7540  140.3930 C   0  0  0  0  0  3  0  0  0  0  0  0
  188.3650  178.3840  140.6670 C   0  0  1  0  0  3  0  0  0  0  0  0
  189.2290  177.0000  144.0740 C   0  0  0  0  0  1  0  0  0  0  0  0
  189.1720  177.4260  139.8320 C   0  0  0  0  0  0  0  0  0  0  0  0
  188.8440  177.2220  138.4620 N   0  0  0  0  0  2  0  0  0  0  0  0
  183.8530  176.7650  138.0110 O   0  0  0  0  0  0  0  0  0  0  0  0
  182.5020  176.7970  138.4610 C   0  0  2  0  0  3  0  0  0  0  0  0
  181.1900  179.1200  141.1930 N   0  0  0  0  0  0  0  0  0  0  0  0
  181.1900  178.9540  138.3650 C   0  0  0  0  0  2  0  0  0  0  0  0
  182.2080  178.1300  139.1720 C   0  0  1  0  0  3  0  0  0  0  0  0
  181.4020  179.3820  142.5820 C   0  0  0  0  0  0  0  0  0  0  0  0
  181.6800  177.8780  140.5940 C   0  0  0  0  0  2  0  0  0  0  0  0
  180.6170  180.1580  143.2030 O   0  0  0  0  0  0  0  0  0  0  0  0
  180.2580  179.9440  140.4260 C   0  0  0  0  0  2  0  0  0  0  0  0
  180.8710  180.2580  139.0760 C   0  0  0  0  0  2  0  0  0  0  0  0
  182.4950  178.8060  143.2390 O   0  0  0  0  0  0  0  0  0  0  0  0
  185.0620  177.8760  143.2360 C   0  0  0  0  0  1  0  0  0  0  0  0
  183.3200  179.5470  144.1430 C   0  0  1  0  0  3  0  0  0  0  0  0
  185.2700  178.9890  145.5820 C   0  0  2  0  0  3  0  0  0  0  0  0
  183.8340  178.6270  145.2380 C   0  0  2  0  0  3  0  0  0  0  0  0
  184.7720  179.0850  144.1350 C   0  0  2  0  0  0  0  0  0  0  0  0
  186.0630  177.7250  145.8790 C   0  0  0  0  0  1  0  0  0  0  0  0
  181.1650  174.8720  138.9940 O   0  0  0  0  0  1  0  0  0  0  0  0
  182.2820  175.6140  139.3950 C   0  0  0  0  0  2  0  0  0  0  0  0
  1 24  1  0  0  0  0
  2  1  2  0  0  0  0
  4  5  1  0  0  0  0
  6  4  1  0  0  0  0
  6  7  1  0  0  0  0
  7  3  1  1  0  0  0
  8  7  1  0  0  0  0
  8  1  1  1  0  0  0
  8  9  1  0  0  0  0
  9 11  1  6  0  0  0
 10  9  1  0  0  0  0
 10  5  1  0  0  0  0
 11 14  1  0  0  0  0
 12 21  1  0  0  0  0
 14 23  1  0  0  0  0
 14 18  2  0  0  0  0
 15 20  1  0  0  0  0
 15 13  2  0  0  0  0
 16 12  2  0  0  0  0
 17 12  1  0  0  0  0
 18 15  1  0  0  0  0
 19 17  1  0  0  0  0
 20 22  1  6  0  0  0
 20 16  1  0  0  0  0
 22 19  2  0  0  0  0
 23 22  1  0  0  0  0
 24 25  1  0  0  0  0
 25 42  1  1  0  0  0
 26 29  1  0  0  0  0
 27 33  1  0  0  0  0
 27 28  1  0  0  0  0
 28 25  1  6  0  0  0
 28 30  1  0  0  0  0
 29 31  2  0  0  0  0
 29 34  1  0  0  0  0
 30 26  1  0  0  0  0
 32 26  1  0  0  0  0
 33 32  1  0  0  0  0
 35 39  1  0  0  0  0
 36 34  1  6  0  0  0
 36 38  1  0  0  0  0
 37 40  1  6  0  0  0
 38 37  1  0  0  0  0
 39 36  1  0  0  0  0
 39 38  1  0  0  0  0
 39 37  1  0  0  0  0
 41 42  1  0  0  0  0
M  END
>  <MODEL>
6

>  <REMARK>
 VINA RESULT:      -8.2      2.859      7.383
  Name = 
  9 active torsions:
  status: ('A' for Active; 'I' for Inactive)
    1  A    between atoms: C_2  and  O_36
    2  A    between atoms: C_3  and  C_16
    3  A    between atoms: C_3  and  C_29
    4  A    between atoms: O_4  and  C_8
    5  A    between atoms: O_4  and  C_30
    6  A    between atoms: C_8  and  C_25
    7  A    between atoms: C_21  and  C_30
    8  A    between atoms: C_28  and  O_36
    9  A    between atoms: C_30  and  C_42
                            x       y       z     vdW  Elec       q    Type
                         _______ _______ _______ _____ _____    ______ ____

>  <TORSDO>
F 9

$$$$
=
 OpenBabel11062413383D

 42 47  0  0  1  0  0  0  0  0999 V2000
  186.5900  176.5280  136.5550 C   0  0  0  0  0  0  0  0  0  0  0  0
  186.6640  176.7710  135.3200 O   0  0  0  0  0  0  0  0  0  0  0  0
  186.2530  173.7490  135.3740 F   0  0  0  0  0  0  0  0  0  0  0  0
  184.5680  172.2600  137.1000 C   0  0  0  0  0  2  0  0  0  0  0  0
  183.3950  173.1800  136.7460 C   0  0  0  0  0  2  0  0  0  0  0  0
  185.8370  172.9440  137.6180 C   0  0  0  0  0  2  0  0  0  0  0  0
  186.3670  174.0620  136.7200 C   0  0  2  0  0  3  0  0  0  0  0  0
  185.7260  175.4160  137.0590 C   0  0  2  0  0  3  0  0  0  0  0  0
  184.2440  175.5080  136.6440 C   0  0  1  0  0  3  0  0  0  0  0  0
  183.4170  174.5160  137.4660 C   0  0  0  0  0  2  0  0  0  0  0  0
  183.6740  176.9330  136.7960 C   0  0  0  0  0  2  0  0  0  0  0  0
  180.7540  179.0190  142.0530 C   0  0  0  0  0  0  0  0  0  0  0  0
  184.6600  179.4200  140.7150 O   0  0  0  0  0  0  0  0  0  0  0  0
  183.4040  177.2520  138.2350 C   0  0  0  0  0  0  0  0  0  0  0  0
  183.8700  178.6040  140.1780 C   0  0  0  0  0  0  0  0  0  0  0  0
  181.9990  179.1440  141.6950 N   0  0  0  0  0  0  0  0  0  0  0  0
  179.9670  177.9480  141.5330 N   0  0  0  0  0  2  0  0  0  0  0  0
  184.1560  178.1090  138.8610 N   0  0  0  0  0  0  0  0  0  0  0  0
  180.4610  177.1900  140.4230 C   0  0  0  0  0  3  0  0  0  0  0  0
  182.6800  178.0920  140.9390 C   0  0  1  0  0  3  0  0  0  0  0  0
  180.1210  180.0650  142.8960 C   0  0  0  0  0  1  0  0  0  0  0  0
  181.7330  177.3240  140.0560 C   0  0  0  0  0  0  0  0  0  0  0  0
  182.1920  176.7720  138.8270 N   0  0  0  0  0  2  0  0  0  0  0  0
  187.3900  177.2210  137.4590 O   0  0  0  0  0  0  0  0  0  0  0  0
  188.7420  177.5640  137.1670 C   0  0  2  0  0  3  0  0  0  0  0  0
  190.7980  177.3890  140.3800 N   0  0  0  0  0  0  0  0  0  0  0  0
  191.0950  176.7720  137.6310 C   0  0  0  0  0  2  0  0  0  0  0  0
  189.6850  176.9530  138.2190 C   0  0  1  0  0  3  0  0  0  0  0  0
  190.5970  177.4260  141.7950 C   0  0  0  0  0  0  0  0  0  0  0  0
  189.7420  177.8400  139.4740 C   0  0  0  0  0  2  0  0  0  0  0  0
  191.5940  177.5090  142.5710 O   0  0  0  0  0  0  0  0  0  0  0  0
  192.1360  177.1650  139.8360 C   0  0  0  0  0  2  0  0  0  0  0  0
  192.0410  176.1980  138.6730 C   0  0  0  0  0  2  0  0  0  0  0  0
  189.3010  177.3380  142.3150 O   0  0  0  0  0  0  0  0  0  0  0  0
  186.6940  177.6920  143.0490 C   0  0  0  0  0  1  0  0  0  0  0  0
  189.0230  176.7150  143.5730 C   0  0  1  0  0  3  0  0  0  0  0  0
  187.5110  177.2280  145.4790 C   0  0  2  0  0  3  0  0  0  0  0  0
  188.6190  177.7690  144.5890 C   0  0  2  0  0  3  0  0  0  0  0  0
  187.5650  176.8530  143.9940 C   0  0  2  0  0  0  0  0  0  0  0  0
  186.5200  178.3370  145.8000 C   0  0  0  0  0  1  0  0  0  0  0  0
  187.6200  179.6610  136.8220 O   0  0  0  0  0  1  0  0  0  0  0  0
  188.8540  179.0830  137.1430 C   0  0  0  0  0  2  0  0  0  0  0  0
  1 24  1  0  0  0  0
  2  1  2  0  0  0  0
  4  6  1  0  0  0  0
  5  4  1  0  0  0  0
  5 10  1  0  0  0  0
  7  3  1  6  0  0  0
  7  8  1  0  0  0  0
  7  6  1  0  0  0  0
  8  1  1  6  0  0  0
  9 11  1  1  0  0  0
  9  8  1  0  0  0  0
  9 10  1  0  0  0  0
 11 14  1  0  0  0  0
 12 21  1  0  0  0  0
 14 23  1  0  0  0  0
 14 18  2  0  0  0  0
 15 13  2  0  0  0  0
 15 20  1  0  0  0  0
 16 12  2  0  0  0  0
 17 12  1  0  0  0  0
 18 15  1  0  0  0  0
 19 17  1  0  0  0  0
 20 22  1  6  0  0  0
 20 16  1  0  0  0  0
 22 19  2  0  0  0  0
 23 22  1  0  0  0  0
 25 42  1  1  0  0  0
 25 24  1  0  0  0  0
 26 29  1  0  0  0  0
 27 28  1  0  0  0  0
 27 33  1  0  0  0  0
 28 25  1  6  0  0  0
 28 30  1  0  0  0  0
 29 34  1  0  0  0  0
 29 31  2  0  0  0  0
 30 26  1  0  0  0  0
 32 26  1  0  0  0  0
 33 32  1  0  0  0  0
 35 39  1  0  0  0  0
 36 34  1  6  0  0  0
 36 39  1  0  0  0  0
 36 38  1  0  0  0  0
 37 40  1  6  0  0  0
 38 37  1  0  0  0  0
 39 38  1  0  0  0  0
 39 37  1  0  0  0  0
 41 42  1  0  0  0  0
M  END
>  <MODEL>
7

>  <REMARK>
 VINA RESULT:      -8.1      3.134      5.122
  Name = 
  9 active torsions:
  status: ('A' for Active; 'I' for Inactive)
    1  A    between atoms: C_2  and  O_36
    2  A    between atoms: C_3  and  C_16
    3  A    between atoms: C_3  and  C_29
    4  A    between atoms: O_4  and  C_8
    5  A    between atoms: O_4  and  C_30
    6  A    between atoms: C_8  and  C_25
    7  A    between atoms: C_21  and  C_30
    8  A    between atoms: C_28  and  O_36
    9  A    between atoms: C_30  and  C_42
                            x       y       z     vdW  Elec       q    Type
                         _______ _______ _______ _____ _____    ______ ____

>  <TORSDO>
F 9

$$$$
=
 OpenBabel11062413383D

 42 47  0  0  1  0  0  0  0  0999 V2000
  184.0380  178.9980  138.5850 C   0  0  0  0  0  0  0  0  0  0  0  0
  184.8760  179.7910  139.0930 O   0  0  0  0  0  0  0  0  0  0  0  0
  182.3670  181.4980  139.0230 F   0  0  0  0  0  0  0  0  0  0  0  0
  179.6930  180.6920  139.5120 C   0  0  0  0  0  2  0  0  0  0  0  0
  180.1300  180.0550  140.8350 C   0  0  0  0  0  2  0  0  0  0  0  0
  180.4470  180.2390  138.2570 C   0  0  0  0  0  2  0  0  0  0  0  0
  181.9690  180.3480  138.3570 C   0  0  2  0  0  3  0  0  0  0  0  0
  182.5920  179.0810  138.9600 C   0  0  2  0  0  3  0  0  0  0  0  0
  182.3020  178.9170  140.4650 C   0  0  1  0  0  3  0  0  0  0  0  0
  180.8010  178.7020  140.6790 C   0  0  0  0  0  2  0  0  0  0  0  0
  183.1020  177.7620  141.1000 C   0  0  0  0  0  2  0  0  0  0  0  0
  187.2680  177.8480  145.9120 C   0  0  0  0  0  0  0  0  0  0  0  0
  183.4300  179.3780  145.5500 O   0  0  0  0  0  0  0  0  0  0  0  0
  183.9330  178.2530  142.2460 C   0  0  0  0  0  0  0  0  0  0  0  0
  184.0670  178.9790  144.5430 C   0  0  0  0  0  0  0  0  0  0  0  0
  186.0810  178.3770  145.8380 N   0  0  0  0  0  0  0  0  0  0  0  0
  188.0100  177.5910  144.7190 N   0  0  0  0  0  2  0  0  0  0  0  0
  183.3540  178.6570  143.3390 N   0  0  0  0  0  0  0  0  0  0  0  0
  187.3450  177.6560  143.4530 C   0  0  0  0  0  3  0  0  0  0  0  0
  185.5680  178.9150  144.5770 C   0  0  1  0  0  3  0  0  0  0  0  0
  187.7920  177.3940  147.2250 C   0  0  0  0  0  1  0  0  0  0  0  0
  186.1280  178.1920  143.3820 C   0  0  0  0  0  0  0  0  0  0  0  0
  185.3510  178.0610  142.1970 N   0  0  0  0  0  2  0  0  0  0  0  0
  184.4260  178.1020  137.5930 O   0  0  0  0  0  0  0  0  0  0  0  0
  184.4980  176.6990  137.8260 C   0  0  2  0  0  3  0  0  0  0  0  0
  187.9200  176.7240  136.1330 N   0  0  0  0  0  0  0  0  0  0  0  0
  185.4180  175.4270  135.8460 C   0  0  0  0  0  2  0  0  0  0  0  0
  185.7660  176.1160  137.1770 C   0  0  1  0  0  3  0  0  0  0  0  0
  189.2590  177.1430  136.4090 C   0  0  0  0  0  0  0  0  0  0  0  0
  186.8110  177.2210  136.9460 C   0  0  0  0  0  2  0  0  0  0  0  0
  190.1260  177.1290  135.4860 O   0  0  0  0  0  0  0  0  0  0  0  0
  187.6140  176.0240  134.8870 C   0  0  0  0  0  2  0  0  0  0  0  0
  186.6700  174.8770  135.1840 C   0  0  0  0  0  2  0  0  0  0  0  0
  189.6120  177.5340  137.7050 O   0  0  0  0  0  0  0  0  0  0  0  0
  188.6920  178.2920  140.1620 C   0  0  0  0  0  1  0  0  0  0  0  0
  189.9800  176.5900  138.7150 C   0  0  1  0  0  3  0  0  0  0  0  0
  190.5580  176.7510  141.1280 C   0  0  2  0  0  3  0  0  0  0  0  0
  190.8890  177.2580  139.7330 C   0  0  2  0  0  3  0  0  0  0  0  0
  189.4450  176.9570  140.0940 C   0  0  2  0  0  0  0  0  0  0  0  0
  190.6840  177.8880  142.1320 C   0  0  0  0  0  1  0  0  0  0  0  0
  182.7170  175.1190  138.1520 O   0  0  0  0  0  1  0  0  0  0  0  0
  183.2410  176.0560  137.2540 C   0  0  0  0  0  2  0  0  0  0  0  0
  1  2  2  0  0  0  0
  4  5  1  0  0  0  0
  6  7  1  0  0  0  0
  6  4  1  0  0  0  0
  7  8  1  0  0  0  0
  7  3  1  1  0  0  0
  8  1  1  1  0  0  0
  8  9  1  0  0  0  0
  9 10  1  0  0  0  0
  9 11  1  6  0  0  0
 10  5  1  0  0  0  0
 11 14  1  0  0  0  0
 12 21  1  0  0  0  0
 14 18  2  0  0  0  0
 15 20  1  0  0  0  0
 15 13  2  0  0  0  0
 16 12  2  0  0  0  0
 17 12  1  0  0  0  0
 18 15  1  0  0  0  0
 19 17  1  0  0  0  0
 20 22  1  6  0  0  0
 20 16  1  0  0  0  0
 22 19  2  0  0  0  0
 23 14  1  0  0  0  0
 23 22  1  0  0  0  0
 24 25  1  0  0  0  0
 24  1  1  0  0  0  0
 25 42  1  6  0  0  0
 26 29  1  0  0  0  0
 26 30  1  0  0  0  0
 27 28  1  0  0  0  0
 28 25  1  6  0  0  0
 29 34  1  0  0  0  0
 30 28  1  0  0  0  0
 31 29  2  0  0  0  0
 32 33  1  0  0  0  0
 32 26  1  0  0  0  0
 33 27  1  0  0  0  0
 36 34  1  6  0  0  0
 36 38  1  0  0  0  0
 36 39  1  0  0  0  0
 37 40  1  1  0  0  0
 38 39  1  0  0  0  0
 38 37  1  0  0  0  0
 39 35  1  0  0  0  0
 39 37  1  0  0  0  0
 42 41  1  0  0  0  0
M  END
>  <MODEL>
8

>  <REMARK>
 VINA RESULT:      -8.1      2.914      7.174
  Name = 
  9 active torsions:
  status: ('A' for Active; 'I' for Inactive)
    1  A    between atoms: C_2  and  O_36
    2  A    between atoms: C_3  and  C_16
    3  A    between atoms: C_3  and  C_29
    4  A    between atoms: O_4  and  C_8
    5  A    between atoms: O_4  and  C_30
    6  A    between atoms: C_8  and  C_25
    7  A    between atoms: C_21  and  C_30
    8  A    between atoms: C_28  and  O_36
    9  A    between atoms: C_30  and  C_42
                            x       y       z     vdW  Elec       q    Type
                         _______ _______ _______ _____ _____    ______ ____

>  <TORSDO>
F 9

$$$$
=
 OpenBabel11062413383D

 42 47  0  0  1  0  0  0  0  0999 V2000
  187.1460  177.9660  137.5000 C   0  0  0  0  0  0  0  0  0  0  0  0
  186.8320  179.1600  137.2420 O   0  0  0  0  0  0  0  0  0  0  0  0
  188.2670  175.2410  136.7600 F   0  0  0  0  0  0  0  0  0  0  0  0
  191.0970  175.4080  136.8280 C   0  0  0  0  0  2  0  0  0  0  0  0
  191.0460  175.6140  138.3450 C   0  0  0  0  0  2  0  0  0  0  0  0
  190.2600  176.3730  135.9820 C   0  0  0  0  0  2  0  0  0  0  0  0
  188.7920  176.4720  136.3980 C   0  0  2  0  0  3  0  0  0  0  0  0
  188.5790  177.5380  137.4830 C   0  0  2  0  0  3  0  0  0  0  0  0
  189.1510  177.1310  138.8550 C   0  0  1  0  0  3  0  0  0  0  0  0
  190.6760  177.0250  138.7660 C   0  0  0  0  0  2  0  0  0  0  0  0
  188.7490  178.1090  139.9780 C   0  0  0  0  0  2  0  0  0  0  0  0
  189.1530  177.3730  146.2880 C   0  0  0  0  0  0  0  0  0  0  0  0
  192.0550  177.4980  143.3260 O   0  0  0  0  0  0  0  0  0  0  0  0
  189.1570  177.5810  141.3190 C   0  0  0  0  0  0  0  0  0  0  0  0
  190.8390  177.3760  143.0380 C   0  0  0  0  0  0  0  0  0  0  0  0
  190.0990  177.3700  145.3930 N   0  0  0  0  0  0  0  0  0  0  0  0
  187.8160  177.0430  145.9110 N   0  0  0  0  0  2  0  0  0  0  0  0
  190.3940  177.6930  141.7100 N   0  0  0  0  0  0  0  0  0  0  0  0
  187.4740  176.9830  144.5220 C   0  0  0  0  0  3  0  0  0  0  0  0
  189.8740  176.8300  144.0520 C   0  0  1  0  0  3  0  0  0  0  0  0
  189.4420  177.8450  147.6650 C   0  0  0  0  0  1  0  0  0  0  0  0
  188.4430  176.9870  143.6110 C   0  0  0  0  0  0  0  0  0  0  0  0
  188.1360  177.1650  142.2320 N   0  0  0  0  0  2  0  0  0  0  0  0
  186.1760  177.0530  137.9040 O   0  0  0  0  0  0  0  0  0  0  0  0
  185.0660  176.7120  137.0780 C   0  0  2  0  0  3  0  0  0  0  0  0
  181.9210  177.5260  139.0840 N   0  0  0  0  0  0  0  0  0  0  0  0
  182.7690  177.5000  136.3820 C   0  0  0  0  0  2  0  0  0  0  0  0
  183.8200  177.5090  137.5050 C   0  0  1  0  0  3  0  0  0  0  0  0
  181.5440  177.8150  140.4330 C   0  0  0  0  0  0  0  0  0  0  0  0
  183.2220  176.9240  138.7960 C   0  0  0  0  0  2  0  0  0  0  0  0
  180.3180  177.8720  140.7450 O   0  0  0  0  0  0  0  0  0  0  0  0
  180.9220  177.5740  138.0190 C   0  0  0  0  0  2  0  0  0  0  0  0
  181.5230  178.2580  136.8080 C   0  0  0  0  0  2  0  0  0  0  0  0
  182.5310  178.0650  141.3920 O   0  0  0  0  0  0  0  0  0  0  0  0
  184.8550  178.4720  142.7660 C   0  0  0  0  0  1  0  0  0  0  0  0
  182.3630  179.0410  142.4250 C   0  0  1  0  0  3  0  0  0  0  0  0
  183.3440  179.3750  144.6860 C   0  0  2  0  0  3  0  0  0  0  0  0
  182.6090  178.3990  143.7800 C   0  0  2  0  0  3  0  0  0  0  0  0
  183.6530  179.3270  143.1850 C   0  0  2  0  0  0  0  0  0  0  0  0
  184.3480  178.6230  145.5470 C   0  0  0  0  0  1  0  0  0  0  0  0
  185.2120  174.5610  136.0170 O   0  0  0  0  0  1  0  0  0  0  0  0
  184.8280  175.2120  137.1950 C   0  0  0  0  0  2  0  0  0  0  0  0
  1 24  1  0  0  0  0
  2  1  2  0  0  0  0
  4  5  1  0  0  0  0
  5 10  1  0  0  0  0
  6  7  1  0  0  0  0
  6  4  1  0  0  0  0
  7  3  1  1  0  0  0
  7  8  1  0  0  0  0
  8  1  1  1  0  0  0
  8  9  1  0  0  0  0
  9 11  1  1  0  0  0
 10  9  1  0  0  0  0
 11 14  1  0  0  0  0
 12 21  1  0  0  0  0
 14 18  2  0  0  0  0
 14 23  1  0  0  0  0
 15 13  2  0  0  0  0
 16 12  2  0  0  0  0
 17 12  1  0  0  0  0
 18 15  1  0  0  0  0
 19 17  1  0  0  0  0
 20 15  1  6  0  0  0
 20 16  1  0  0  0  0
 22 20  1  0  0  0  0
 22 19  2  0  0  0  0
 23 22  1  0  0  0  0
 25 42  1  1  0  0  0
 25 24  1  0  0  0  0
 26 29  1  0  0  0  0
 27 33  1  0  0  0  0
 27 28  1  0  0  0  0
 28 25  1  6  0  0  0
 28 30  1  0  0  0  0
 29 31  2  0  0  0  0
 29 34  1  0  0  0  0
 30 26  1  0  0  0  0
 32 26  1  0  0  0  0
 33 32  1  0  0  0  0
 35 39  1  0  0  0  0
 36 34  1  6  0  0  0
 36 39  1  0  0  0  0
 36 38  1  0  0  0  0
 37 40  1  1  0  0  0
 38 37  1  0  0  0  0
 39 38  1  0  0  0  0
 39 37  1  0  0  0  0
 41 42  1  0  0  0  0
M  END
>  <MODEL>
9

>  <REMARK>
 VINA RESULT:      -8.0      3.032      8.675
  Name = 
  9 active torsions:
  status: ('A' for Active; 'I' for Inactive)
    1  A    between atoms: C_2  and  O_36
    2  A    between atoms: C_3  and  C_16
    3  A    between atoms: C_3  and  C_29
    4  A    between atoms: O_4  and  C_8
    5  A    between atoms: O_4  and  C_30
    6  A    between atoms: C_8  and  C_25
    7  A    between atoms: C_21  and  C_30
    8  A    between atoms: C_28  and  O_36
    9  A    between atoms: C_30  and  C_42
                            x       y       z     vdW  Elec       q    Type
                         _______ _______ _______ _____ _____    ______ ____

>  <TORSDO>
F 9

$$$$
