=
 OpenBabel11062414143D

 32 35  0  0  1  0  0  0  0  0999 V2000
  183.0970  177.5320  136.2260 C   0  0  0  0  0  1  0  0  0  0  0  0
  183.2340  176.0650  139.4900 O   0  0  0  0  0  0  0  0  0  0  0  0
  180.1560  176.5850  138.3160 C   0  0  0  0  0  2  0  0  0  0  0  0
  183.2420  177.5470  137.6720 N   0  0  0  0  0  0  0  0  0  0  0  0
  183.8760  178.7200  138.2770 C   0  0  1  0  0  3  0  0  0  0  0  0
  182.6670  176.4780  138.4440 C   0  0  0  0  0  0  0  0  0  0  0  0
  182.6660  180.0190  138.7710 S   0  0  0  0  0  0  0  0  0  0  0  0
  181.4200  175.9060  138.0500 N   0  0  0  0  0  2  0  0  0  0  0  0
  181.4500  178.9430  139.6180 C   0  0  2  0  0  3  0  0  0  0  0  0
  180.1940  178.0220  137.8050 C   0  0  0  0  0  2  0  0  0  0  0  0
  180.1690  178.9690  138.9160 N   0  0  0  0  0  2  0  0  0  0  0  0
  188.0350  176.9340  137.7870 C   0  0  0  0  0  2  0  0  0  0  0  0
  187.2900  177.8040  139.6750 C   0  0  2  0  0  3  0  0  0  0  0  0
  188.4770  177.5090  139.0010 O   0  0  0  0  0  0  0  0  0  0  0  0
  184.9530  178.3800  139.3200 C   0  0  1  0  0  3  0  0  0  0  0  0
  186.3260  178.2750  138.6480 C   0  0  2  0  0  3  0  0  0  0  0  0
  185.0100  179.4110  140.2990 O   0  0  0  0  0  0  0  0  0  0  0  0
  186.5480  177.2320  137.6040 C   0  0  0  0  0  2  0  0  0  0  0  0
  185.9730  179.1190  141.3080 C   0  0  2  0  0  3  0  0  0  0  0  0
  187.4000  178.8640  140.7480 C   0  0  1  0  0  3  0  0  0  0  0  0
  188.2780  178.4530  141.7520 O   0  0  0  0  0  1  0  0  0  0  0  0
  185.4310  178.1460  142.3710 C   0  0  1  0  0  3  0  0  0  0  0  0
  186.5120  177.5490  143.2610 C   0  0  0  0  0  1  0  0  0  0  0  0
  184.3370  178.7960  143.2010 C   0  0  0  0  0  2  0  0  0  0  0  0
  184.9330  179.1120  144.8870 S   0  0  0  0  0  1  0  0  0  0  0  0
  178.9310  179.0110  144.4080 N   0  0  0  0  0  1  0  0  0  0  0  0
  181.0620  178.7360  143.2450 C   0  0  0  0  0  2  0  0  0  0  0  0
  181.2070  178.2540  141.9280 O   0  0  0  0  0  0  0  0  0  0  0  0
  179.9490  180.2110  141.2060 C   0  0  0  0  0  2  0  0  0  0  0  0
  181.2300  179.3710  141.0660 C   0  0  2  0  0  3  0  0  0  0  0  0
  179.7850  179.5860  143.3860 C   0  0  1  0  0  3  0  0  0  0  0  0
  179.0840  179.6430  142.1650 O   0  0  0  0  0  0  0  0  0  0  0  0
  1  4  1  0  0  0  0
  4  5  1  0  0  0  0
  4  6  1  0  0  0  0
  5  7  1  1  0  0  0
  5 15  1  0  0  0  0
  6  2  2  0  0  0  0
  8  3  1  0  0  0  0
  8  6  1  0  0  0  0
  9  7  1  6  0  0  0
  9 30  1  0  0  0  0
 10  3  1  0  0  0  0
 10 11  1  0  0  0  0
 11  9  1  0  0  0  0
 12 14  1  0  0  0  0
 13 14  1  6  0  0  0
 13 20  1  0  0  0  0
 15 17  1  1  0  0  0
 16 18  1  6  0  0  0
 16 15  1  0  0  0  0
 16 13  1  0  0  0  0
 17 19  1  0  0  0  0
 18 12  1  0  0  0  0
 19 22  1  6  0  0  0
 20 19  1  0  0  0  0
 20 21  1  1  0  0  0
 22 24  1  0  0  0  0
 22 23  1  1  0  0  0
 24 25  1  0  0  0  0
 27 31  1  0  0  0  0
 28 27  1  0  0  0  0
 29 32  1  0  0  0  0
 30 29  1  6  0  0  0
 30 28  1  0  0  0  0
 31 26  1  1  0  0  0
 32 31  1  0  0  0  0
M  END
>  <MODEL>
1

>  <REMARK>
 VINA RESULT:      -6.1      0.000      0.000
  Name = 
  4 active torsions:
  status: ('A' for Active; 'I' for Inactive)
    1  A    between atoms: C_8  and  C_23
    2  A    between atoms: C_11  and  C_13
    3  A    between atoms: C_13  and  C_28
    4  A    between atoms: C_16  and  C_17
                            x       y       z     vdW  Elec       q    Type
                         _______ _______ _______ _____ _____    ______ ____

>  <TORSDO>
F 4

$$$$
=
 OpenBabel11062414143D

 32 35  0  0  1  0  0  0  0  0999 V2000
  184.7530  174.2680  134.8060 C   0  0  0  0  0  1  0  0  0  0  0  0
  184.0630  174.1540  138.3180 O   0  0  0  0  0  0  0  0  0  0  0  0
  182.5200  171.8140  136.5110 C   0  0  0  0  0  2  0  0  0  0  0  0
  184.0860  174.6750  136.0320 N   0  0  0  0  0  0  0  0  0  0  0  0
  183.4250  175.9810  136.0410 C   0  0  1  0  0  3  0  0  0  0  0  0
  184.0090  173.7470  137.1280 C   0  0  0  0  0  0  0  0  0  0  0  0
  181.6480  175.8930  135.5580 S   0  0  0  0  0  0  0  0  0  0  0  0
  183.8270  172.3540  136.8700 N   0  0  0  0  0  2  0  0  0  0  0  0
  181.1570  174.4730  136.6050 C   0  0  2  0  0  3  0  0  0  0  0  0
  181.9160  172.5890  135.3430 C   0  0  0  0  0  2  0  0  0  0  0  0
  180.7430  173.3440  135.7730 N   0  0  0  0  0  2  0  0  0  0  0  0
  187.3740  177.6030  137.6200 C   0  0  0  0  0  2  0  0  0  0  0  0
  185.4000  178.2060  138.4050 C   0  0  2  0  0  3  0  0  0  0  0  0
  186.7220  178.6490  138.3150 O   0  0  0  0  0  0  0  0  0  0  0  0
  183.7360  176.8310  137.2830 C   0  0  1  0  0  3  0  0  0  0  0  0
  185.0930  177.5260  137.1210 C   0  0  2  0  0  3  0  0  0  0  0  0
  182.7350  177.8300  137.4400 O   0  0  0  0  0  0  0  0  0  0  0  0
  186.3240  176.6950  136.9820 C   0  0  0  0  0  2  0  0  0  0  0  0
  182.9670  178.6210  138.6040 C   0  0  2  0  0  3  0  0  0  0  0  0
  184.3690  179.2910  138.6290 C   0  0  1  0  0  3  0  0  0  0  0  0
  184.6020  179.9430  139.8410 O   0  0  0  0  0  1  0  0  0  0  0  0
  182.4740  177.9300  139.8880 C   0  0  1  0  0  3  0  0  0  0  0  0
  183.5910  177.5840  140.8620 C   0  0  0  0  0  1  0  0  0  0  0  0
  181.3910  178.7500  140.5690 C   0  0  0  0  0  2  0  0  0  0  0  0
  180.7070  179.9710  139.4110 S   0  0  0  0  0  1  0  0  0  0  0  0
  178.9580  176.1530  141.2560 N   0  0  0  0  0  1  0  0  0  0  0  0
  179.0280  176.4380  138.8300 C   0  0  0  0  0  2  0  0  0  0  0  0
  180.1460  176.1620  138.0170 O   0  0  0  0  0  0  0  0  0  0  0  0
  179.9270  173.8400  138.7190 C   0  0  0  0  0  2  0  0  0  0  0  0
  180.0160  174.8360  137.5500 C   0  0  2  0  0  3  0  0  0  0  0  0
  178.9310  175.4350  139.9960 C   0  0  1  0  0  3  0  0  0  0  0  0
  179.9970  174.5150  139.9550 O   0  0  0  0  0  0  0  0  0  0  0  0
  1  4  1  0  0  0  0
  3  8  1  0  0  0  0
  4  5  1  0  0  0  0
  4  6  1  0  0  0  0
  5  7  1  1  0  0  0
  5 15  1  0  0  0  0
  6  2  2  0  0  0  0
  8  6  1  0  0  0  0
  9  7  1  6  0  0  0
  9 30  1  0  0  0  0
 10 11  1  0  0  0  0
 10  3  1  0  0  0  0
 11  9  1  0  0  0  0
 12 14  1  0  0  0  0
 13 14  1  6  0  0  0
 13 20  1  0  0  0  0
 15 17  1  6  0  0  0
 16 18  1  1  0  0  0
 16 15  1  0  0  0  0
 16 13  1  0  0  0  0
 17 19  1  0  0  0  0
 18 12  1  0  0  0  0
 19 20  1  0  0  0  0
 19 22  1  1  0  0  0
 20 21  1  1  0  0  0
 22 24  1  0  0  0  0
 22 23  1  1  0  0  0
 25 24  1  0  0  0  0
 27 31  1  0  0  0  0
 28 27  1  0  0  0  0
 29 32  1  0  0  0  0
 30 28  1  0  0  0  0
 30 29  1  1  0  0  0
 31 26  1  1  0  0  0
 32 31  1  0  0  0  0
M  END
>  <MODEL>
2

>  <REMARK>
 VINA RESULT:      -5.6      2.930      4.471
  Name = 
  4 active torsions:
  status: ('A' for Active; 'I' for Inactive)
    1  A    between atoms: C_8  and  C_23
    2  A    between atoms: C_11  and  C_13
    3  A    between atoms: C_13  and  C_28
    4  A    between atoms: C_16  and  C_17
                            x       y       z     vdW  Elec       q    Type
                         _______ _______ _______ _____ _____    ______ ____

>  <TORSDO>
F 4

$$$$
=
 OpenBabel11062414143D

 32 35  0  0  1  0  0  0  0  0999 V2000
  181.5120  174.3450  136.4850 C   0  0  0  0  0  1  0  0  0  0  0  0
  182.3370  175.7390  139.6790 O   0  0  0  0  0  0  0  0  0  0  0  0
  179.0790  175.6980  138.9660 C   0  0  0  0  0  2  0  0  0  0  0  0
  181.9570  175.3910  137.3910 N   0  0  0  0  0  0  0  0  0  0  0  0
  182.6990  176.5140  136.8150 C   0  0  1  0  0  3  0  0  0  0  0  0
  181.5610  175.3350  138.7720 C   0  0  0  0  0  0  0  0  0  0  0  0
  181.6140  177.9250  136.3360 S   0  0  0  0  0  0  0  0  0  0  0  0
  180.2610  174.8590  139.1220 N   0  0  0  0  0  2  0  0  0  0  0  0
  180.6070  178.0180  137.8630 C   0  0  2  0  0  3  0  0  0  0  0  0
  179.0020  176.2730  137.5540 C   0  0  0  0  0  2  0  0  0  0  0  0
  179.2070  177.7180  137.5700 N   0  0  0  0  0  2  0  0  0  0  0  0
  187.0220  175.2040  136.2470 C   0  0  0  0  0  2  0  0  0  0  0  0
  186.4040  176.8400  137.5960 C   0  0  2  0  0  3  0  0  0  0  0  0
  187.5090  176.3710  136.8820 O   0  0  0  0  0  0  0  0  0  0  0  0
  183.9720  176.8870  137.5920 C   0  0  1  0  0  3  0  0  0  0  0  0
  185.2140  176.5990  136.7410 C   0  0  2  0  0  3  0  0  0  0  0  0
  183.9510  178.2750  137.9030 O   0  0  0  0  0  0  0  0  0  0  0  0
  185.4960  175.1980  136.3150 C   0  0  0  0  0  2  0  0  0  0  0  0
  185.0990  178.6580  138.6560 C   0  0  2  0  0  3  0  0  0  0  0  0
  186.4430  178.3080  137.9590 C   0  0  1  0  0  3  0  0  0  0  0  0
  187.5340  178.5770  138.7870 O   0  0  0  0  0  1  0  0  0  0  0  0
  184.9550  178.3250  140.1530 C   0  0  1  0  0  3  0  0  0  0  0  0
  186.0760  178.8900  141.0140 C   0  0  0  0  0  1  0  0  0  0  0  0
  183.5950  178.7510  140.6780 C   0  0  0  0  0  2  0  0  0  0  0  0
  183.5740  178.6830  142.4930 S   0  0  0  0  0  1  0  0  0  0  0  0
  178.9630  183.0530  138.9740 N   0  0  0  0  0  1  0  0  0  0  0  0
  179.7270  180.9230  139.8960 C   0  0  0  0  0  2  0  0  0  0  0  0
  179.5430  179.6660  139.2840 O   0  0  0  0  0  0  0  0  0  0  0  0
  180.9280  180.4910  137.4580 C   0  0  0  0  0  2  0  0  0  0  0  0
  180.6930  179.3950  138.5120 C   0  0  2  0  0  3  0  0  0  0  0  0
  179.9730  182.0200  138.8420 C   0  0  1  0  0  3  0  0  0  0  0  0
  179.9300  181.4830  137.5400 O   0  0  0  0  0  0  0  0  0  0  0  0
  1  4  1  0  0  0  0
  3  8  1  0  0  0  0
  4  6  1  0  0  0  0
  5  7  1  1  0  0  0
  5  4  1  0  0  0  0
  5 15  1  0  0  0  0
  6  8  1  0  0  0  0
  6  2  2  0  0  0  0
  9  7  1  6  0  0  0
  9 30  1  0  0  0  0
 10 11  1  0  0  0  0
 10  3  1  0  0  0  0
 11  9  1  0  0  0  0
 12 18  1  0  0  0  0
 12 14  1  0  0  0  0
 13 14  1  6  0  0  0
 13 20  1  0  0  0  0
 15 17  1  6  0  0  0
 16 18  1  1  0  0  0
 16 15  1  0  0  0  0
 16 13  1  0  0  0  0
 17 19  1  0  0  0  0
 19 22  1  1  0  0  0
 20 19  1  0  0  0  0
 20 21  1  1  0  0  0
 22 24  1  0  0  0  0
 22 23  1  1  0  0  0
 24 25  1  0  0  0  0
 28 27  1  0  0  0  0
 29 32  1  0  0  0  0
 30 29  1  6  0  0  0
 30 28  1  0  0  0  0
 31 26  1  6  0  0  0
 31 27  1  0  0  0  0
 32 31  1  0  0  0  0
M  END
>  <MODEL>
3

>  <REMARK>
 VINA RESULT:      -5.3      2.432      3.126
  Name = 
  4 active torsions:
  status: ('A' for Active; 'I' for Inactive)
    1  A    between atoms: C_8  and  C_23
    2  A    between atoms: C_11  and  C_13
    3  A    between atoms: C_13  and  C_28
    4  A    between atoms: C_16  and  C_17
                            x       y       z     vdW  Elec       q    Type
                         _______ _______ _______ _____ _____    ______ ____

>  <TORSDO>
F 4

$$$$
=
 OpenBabel11062414143D

 32 35  0  0  1  0  0  0  0  0999 V2000
  188.4540  176.6450  134.6000 C   0  0  0  0  0  1  0  0  0  0  0  0
  187.8190  174.7620  137.5790 O   0  0  0  0  0  0  0  0  0  0  0  0
  185.2230  175.0130  135.5010 C   0  0  0  0  0  2  0  0  0  0  0  0
  188.1340  176.4730  136.0080 N   0  0  0  0  0  0  0  0  0  0  0  0
  188.3290  177.6250  136.8910 C   0  0  1  0  0  3  0  0  0  0  0  0
  187.5440  175.2370  136.4460 C   0  0  0  0  0  0  0  0  0  0  0  0
  186.8150  178.6610  137.0700 S   0  0  0  0  0  0  0  0  0  0  0  0
  186.6050  174.5600  135.6100 N   0  0  0  0  0  2  0  0  0  0  0  0
  185.6050  177.3180  137.3650 C   0  0  2  0  0  3  0  0  0  0  0  0
  185.1640  176.5000  135.1620 C   0  0  0  0  0  2  0  0  0  0  0  0
  184.6260  177.2670  136.2820 N   0  0  0  0  0  2  0  0  0  0  0  0
  192.4060  175.7310  137.6060 C   0  0  0  0  0  2  0  0  0  0  0  0
  191.1980  176.6730  139.1950 C   0  0  2  0  0  3  0  0  0  0  0  0
  192.5150  176.3310  138.8820 O   0  0  0  0  0  0  0  0  0  0  0  0
  189.0670  177.2920  138.1980 C   0  0  1  0  0  3  0  0  0  0  0  0
  190.5680  177.1350  137.9320 C   0  0  2  0  0  3  0  0  0  0  0  0
  188.8840  178.3500  139.1310 O   0  0  0  0  0  0  0  0  0  0  0  0
  191.0360  176.0560  137.0140 C   0  0  0  0  0  2  0  0  0  0  0  0
  189.5230  178.0670  140.3730 C   0  0  2  0  0  3  0  0  0  0  0  0
  191.0410  177.7620  140.2330 C   0  0  1  0  0  3  0  0  0  0  0  0
  191.5960  177.3610  141.4500 O   0  0  0  0  0  1  0  0  0  0  0  0
  188.6810  177.1380  141.2670 C   0  0  1  0  0  3  0  0  0  0  0  0
  189.4790  176.4730  142.3800 C   0  0  0  0  0  1  0  0  0  0  0  0
  187.4690  177.8660  141.8220 C   0  0  0  0  0  2  0  0  0  0  0  0
  187.2750  177.5020  143.5920 S   0  0  0  0  0  1  0  0  0  0  0  0
  181.6630  179.1220  140.6050 N   0  0  0  0  0  1  0  0  0  0  0  0
  182.9560  177.1800  139.8760 C   0  0  0  0  0  2  0  0  0  0  0  0
  183.5430  177.0320  138.6030 O   0  0  0  0  0  0  0  0  0  0  0  0
  184.9160  178.9690  139.1490 C   0  0  0  0  0  2  0  0  0  0  0  0
  184.8710  177.5020  138.6890 C   0  0  2  0  0  3  0  0  0  0  0  0
  183.0090  178.6480  140.3430 C   0  0  1  0  0  3  0  0  0  0  0  0
  183.6130  179.4630  139.3650 O   0  0  0  0  0  0  0  0  0  0  0  0
  1  4  1  0  0  0  0
  3  8  1  0  0  0  0
  4  6  1  0  0  0  0
  4  5  1  0  0  0  0
  5  7  1  1  0  0  0
  5 15  1  0  0  0  0
  6  2  2  0  0  0  0
  7  9  1  0  0  0  0
  8  6  1  0  0  0  0
  9 11  1  6  0  0  0
  9 30  1  0  0  0  0
 10  3  1  0  0  0  0
 10 11  1  0  0  0  0
 12 14  1  0  0  0  0
 13 14  1  6  0  0  0
 13 20  1  0  0  0  0
 15 17  1  1  0  0  0
 16 18  1  6  0  0  0
 16 15  1  0  0  0  0
 16 13  1  0  0  0  0
 17 19  1  0  0  0  0
 18 12  1  0  0  0  0
 19 22  1  6  0  0  0
 20 19  1  0  0  0  0
 20 21  1  1  0  0  0
 22 24  1  0  0  0  0
 22 23  1  1  0  0  0
 24 25  1  0  0  0  0
 27 31  1  0  0  0  0
 28 30  1  0  0  0  0
 28 27  1  0  0  0  0
 29 32  1  0  0  0  0
 30 29  1  6  0  0  0
 31 26  1  6  0  0  0
 32 31  1  0  0  0  0
M  END
>  <MODEL>
4

>  <REMARK>
 VINA RESULT:      -5.3      2.901      4.678
  Name = 
  4 active torsions:
  status: ('A' for Active; 'I' for Inactive)
    1  A    between atoms: C_8  and  C_23
    2  A    between atoms: C_11  and  C_13
    3  A    between atoms: C_13  and  C_28
    4  A    between atoms: C_16  and  C_17
                            x       y       z     vdW  Elec       q    Type
                         _______ _______ _______ _____ _____    ______ ____

>  <TORSDO>
F 4

$$$$
=
 OpenBabel11062414143D

 32 35  0  0  1  0  0  0  0  0999 V2000
  178.9440  178.4420  137.8790 C   0  0  0  0  0  1  0  0  0  0  0  0
  182.0140  180.2820  137.9980 O   0  0  0  0  0  0  0  0  0  0  0  0
  181.1620  179.1720  134.9710 C   0  0  0  0  0  2  0  0  0  0  0  0
  180.3670  178.6180  138.1200 N   0  0  0  0  0  0  0  0  0  0  0  0
  181.0350  177.6320  138.9730 C   0  0  1  0  0  3  0  0  0  0  0  0
  181.0680  179.6700  137.4350 C   0  0  0  0  0  0  0  0  0  0  0  0
  181.7620  176.2310  138.0200 S   0  0  0  0  0  0  0  0  0  0  0  0
  180.7220  179.9970  136.0890 N   0  0  0  0  0  2  0  0  0  0  0  0
  182.5910  177.2030  136.7070 C   0  0  2  0  0  3  0  0  0  0  0  0
  180.8030  177.7070  135.2030 C   0  0  0  0  0  2  0  0  0  0  0  0
  182.0040  176.9020  135.4030 N   0  0  0  0  0  2  0  0  0  0  0  0
  180.0130  179.8920  142.7900 C   0  0  0  0  0  2  0  0  0  0  0  0
  182.0440  179.1820  142.2930 C   0  0  2  0  0  3  0  0  0  0  0  0
  181.2500  179.5460  143.3830 O   0  0  0  0  0  0  0  0  0  0  0  0
  181.9440  178.2490  140.0480 C   0  0  1  0  0  3  0  0  0  0  0  0
  181.1590  178.4530  141.3490 C   0  0  2  0  0  3  0  0  0  0  0  0
  183.0320  177.3720  140.3120 O   0  0  0  0  0  0  0  0  0  0  0  0
  179.9840  179.3720  141.3540 C   0  0  0  0  0  2  0  0  0  0  0  0
  183.9220  177.9220  141.2810 C   0  0  2  0  0  3  0  0  0  0  0  0
  183.2260  178.2950  142.6200 C   0  0  1  0  0  3  0  0  0  0  0  0
  184.1020  178.9510  143.4870 O   0  0  0  0  0  1  0  0  0  0  0  0
  184.8980  178.9420  140.6670 C   0  0  1  0  0  3  0  0  0  0  0  0
  186.2350  179.0190  141.3900 C   0  0  0  0  0  1  0  0  0  0  0  0
  185.0920  178.6860  139.1820 C   0  0  0  0  0  2  0  0  0  0  0  0
  186.8130  178.2070  138.8480 S   0  0  0  0  0  1  0  0  0  0  0  0
  187.0670  174.6580  135.0380 N   0  0  0  0  0  1  0  0  0  0  0  0
  185.9740  176.8170  135.3840 C   0  0  0  0  0  2  0  0  0  0  0  0
  184.5820  177.0340  135.3370 O   0  0  0  0  0  0  0  0  0  0  0  0
  184.4100  175.5360  137.2510 C   0  0  0  0  0  2  0  0  0  0  0  0
  184.0880  176.9170  136.6550 C   0  0  2  0  0  3  0  0  0  0  0  0
  186.2990  175.4380  135.9910 C   0  0  1  0  0  3  0  0  0  0  0  0
  185.1180  174.7450  136.3230 O   0  0  0  0  0  0  0  0  0  0  0  0
  1  4  1  0  0  0  0
  3 10  1  0  0  0  0
  3  8  1  0  0  0  0
  4  5  1  0  0  0  0
  5  7  1  6  0  0  0
  5 15  1  0  0  0  0
  6  2  2  0  0  0  0
  6  4  1  0  0  0  0
  8  6  1  0  0  0  0
  9 11  1  6  0  0  0
  9  7  1  0  0  0  0
 10 11  1  0  0  0  0
 12 14  1  0  0  0  0
 13 20  1  0  0  0  0
 13 14  1  1  0  0  0
 15 17  1  1  0  0  0
 15 16  1  0  0  0  0
 16 18  1  6  0  0  0
 16 13  1  0  0  0  0
 17 19  1  0  0  0  0
 18 12  1  0  0  0  0
 19 22  1  6  0  0  0
 19 20  1  0  0  0  0
 20 21  1  1  0  0  0
 22 23  1  1  0  0  0
 24 22  1  0  0  0  0
 25 24  1  0  0  0  0
 27 31  1  0  0  0  0
 28 27  1  0  0  0  0
 28 30  1  0  0  0  0
 30  9  1  0  0  0  0
 30 29  1  6  0  0  0
 31 26  1  6  0  0  0
 31 32  1  0  0  0  0
 32 29  1  0  0  0  0
M  END
>  <MODEL>
5

>  <REMARK>
 VINA RESULT:      -5.2      2.686      6.195
  Name = 
  4 active torsions:
  status: ('A' for Active; 'I' for Inactive)
    1  A    between atoms: C_8  and  C_23
    2  A    between atoms: C_11  and  C_13
    3  A    between atoms: C_13  and  C_28
    4  A    between atoms: C_16  and  C_17
                            x       y       z     vdW  Elec       q    Type
                         _______ _______ _______ _____ _____    ______ ____

>  <TORSDO>
F 4

$$$$
=
 OpenBabel11062414143D

 32 35  0  0  1  0  0  0  0  0999 V2000
  180.5010  173.6390  137.8050 C   0  0  0  0  0  1  0  0  0  0  0  0
  182.6640  175.8070  139.6620 O   0  0  0  0  0  0  0  0  0  0  0  0
  179.4170  176.5340  139.8930 C   0  0  0  0  0  2  0  0  0  0  0  0
  181.4210  174.7520  137.9760 N   0  0  0  0  0  0  0  0  0  0  0  0
  182.0850  175.2720  136.7790 C   0  0  1  0  0  3  0  0  0  0  0  0
  181.5540  175.3570  139.2740 C   0  0  0  0  0  0  0  0  0  0  0  0
  181.1620  176.6580  135.9880 S   0  0  0  0  0  0  0  0  0  0  0  0
  180.4100  175.4890  140.1190 N   0  0  0  0  0  2  0  0  0  0  0  0
  180.8150  177.6410  137.4940 C   0  0  2  0  0  3  0  0  0  0  0  0
  178.9320  176.5180  138.4460 C   0  0  0  0  0  2  0  0  0  0  0  0
  179.3750  177.7130  137.7360 N   0  0  0  0  0  2  0  0  0  0  0  0
  185.5640  172.3590  136.4160 C   0  0  0  0  0  2  0  0  0  0  0  0
  185.8100  174.5480  136.5760 C   0  0  2  0  0  3  0  0  0  0  0  0
  186.4710  173.4040  136.1210 O   0  0  0  0  0  0  0  0  0  0  0  0
  183.5980  175.4880  136.9470 C   0  0  1  0  0  3  0  0  0  0  0  0
  184.3720  174.3620  136.2540 C   0  0  2  0  0  3  0  0  0  0  0  0
  183.9710  176.7250  136.3500 O   0  0  0  0  0  0  0  0  0  0  0  0
  184.1930  172.9580  136.7250 C   0  0  0  0  0  2  0  0  0  0  0  0
  185.3630  176.9830  136.5130 C   0  0  2  0  0  3  0  0  0  0  0  0
  186.2730  175.8500  135.9610 C   0  0  1  0  0  3  0  0  0  0  0  0
  187.6160  176.0810  136.2610 O   0  0  0  0  0  1  0  0  0  0  0  0
  185.6920  177.5590  137.9030 C   0  0  1  0  0  3  0  0  0  0  0  0
  187.0340  178.2750  137.9650 C   0  0  0  0  0  1  0  0  0  0  0  0
  184.5720  178.4540  138.4030 C   0  0  0  0  0  2  0  0  0  0  0  0
  184.8710  178.9300  140.1300 S   0  0  0  0  0  1  0  0  0  0  0  0
  180.6670  183.0370  137.8870 N   0  0  0  0  0  1  0  0  0  0  0  0
  181.8900  180.9990  138.4530 C   0  0  0  0  0  2  0  0  0  0  0  0
  181.3050  179.7270  138.6240 O   0  0  0  0  0  0  0  0  0  0  0  0
  180.6470  179.8520  136.2820 C   0  0  0  0  0  2  0  0  0  0  0  0
  181.3710  179.0580  137.3830 C   0  0  2  0  0  3  0  0  0  0  0  0
  181.1740  181.7920  137.3430 C   0  0  1  0  0  3  0  0  0  0  0  0
  180.1070  181.0460  136.8020 O   0  0  0  0  0  0  0  0  0  0  0  0
  1  4  1  0  0  0  0
  3  8  1  0  0  0  0
  4  6  1  0  0  0  0
  5  7  1  1  0  0  0
  5 15  1  0  0  0  0
  5  4  1  0  0  0  0
  6  2  2  0  0  0  0
  6  8  1  0  0  0  0
  9  7  1  6  0  0  0
  9 11  1  0  0  0  0
 10  3  1  0  0  0  0
 11 10  1  0  0  0  0
 12 18  1  0  0  0  0
 13 14  1  6  0  0  0
 14 12  1  0  0  0  0
 15 17  1  6  0  0  0
 16 13  1  0  0  0  0
 16 18  1  1  0  0  0
 16 15  1  0  0  0  0
 17 19  1  0  0  0  0
 19 22  1  1  0  0  0
 20 21  1  1  0  0  0
 20 19  1  0  0  0  0
 20 13  1  0  0  0  0
 22 23  1  6  0  0  0
 22 24  1  0  0  0  0
 24 25  1  0  0  0  0
 27 28  1  0  0  0  0
 29 32  1  0  0  0  0
 30 29  1  6  0  0  0
 30  9  1  0  0  0  0
 30 28  1  0  0  0  0
 31 26  1  1  0  0  0
 31 27  1  0  0  0  0
 32 31  1  0  0  0  0
M  END
>  <MODEL>
6

>  <REMARK>
 VINA RESULT:      -5.0      3.298      4.611
  Name = 
  4 active torsions:
  status: ('A' for Active; 'I' for Inactive)
    1  A    between atoms: C_8  and  C_23
    2  A    between atoms: C_11  and  C_13
    3  A    between atoms: C_13  and  C_28
    4  A    between atoms: C_16  and  C_17
                            x       y       z     vdW  Elec       q    Type
                         _______ _______ _______ _____ _____    ______ ____

>  <TORSDO>
F 4

$$$$
=
 OpenBabel11062414143D

 32 35  0  0  1  0  0  0  0  0999 V2000
  189.6800  178.3180  144.8030 C   0  0  0  0  0  1  0  0  0  0  0  0
  187.5530  175.9120  143.2190 O   0  0  0  0  0  0  0  0  0  0  0  0
  190.7910  175.6280  142.4710 C   0  0  0  0  0  2  0  0  0  0  0  0
  188.7460  177.8470  143.7940 N   0  0  0  0  0  0  0  0  0  0  0  0
  188.0210  178.8570  143.0200 C   0  0  1  0  0  3  0  0  0  0  0  0
  188.6560  176.4370  143.5270 C   0  0  0  0  0  0  0  0  0  0  0  0
  188.8800  179.3180  141.4550 S   0  0  0  0  0  0  0  0  0  0  0  0
  189.8310  175.6280  143.5690 N   0  0  0  0  0  2  0  0  0  0  0  0
  189.2700  177.6320  140.8570 C   0  0  2  0  0  3  0  0  0  0  0  0
  191.2150  177.0520  142.1200 C   0  0  0  0  0  2  0  0  0  0  0  0
  190.7160  177.4320  140.8020 N   0  0  0  0  0  2  0  0  0  0  0  0
  184.8380  178.2530  146.2170 C   0  0  0  0  0  2  0  0  0  0  0  0
  184.3840  178.5290  144.0740 C   0  0  2  0  0  3  0  0  0  0  0  0
  183.8090  178.6660  145.3400 O   0  0  0  0  0  0  0  0  0  0  0  0
  186.5120  178.5870  142.8970 C   0  0  1  0  0  3  0  0  0  0  0  0
  185.8030  178.9480  144.2070 C   0  0  2  0  0  3  0  0  0  0  0  0
  185.9680  179.3880  141.8550 O   0  0  0  0  0  0  0  0  0  0  0  0
  186.1610  178.2150  145.4550 C   0  0  0  0  0  2  0  0  0  0  0  0
  184.5740  179.1430  141.6830 C   0  0  2  0  0  3  0  0  0  0  0  0
  183.7430  179.3520  142.9790 C   0  0  1  0  0  3  0  0  0  0  0  0
  182.4120  178.9740  142.8000 O   0  0  0  0  0  1  0  0  0  0  0  0
  184.3020  177.8780  140.8480 C   0  0  1  0  0  3  0  0  0  0  0  0
  182.8210  177.5830  140.6520 C   0  0  0  0  0  1  0  0  0  0  0  0
  185.0280  177.9360  139.5150 C   0  0  0  0  0  2  0  0  0  0  0  0
  183.8550  177.6880  138.1490 S   0  0  0  0  0  1  0  0  0  0  0  0
  189.3790  177.1300  135.4690 N   0  0  0  0  0  1  0  0  0  0  0  0
  188.7160  176.1040  137.5850 C   0  0  0  0  0  2  0  0  0  0  0  0
  189.3560  176.3190  138.8230 O   0  0  0  0  0  0  0  0  0  0  0  0
  188.6900  178.6530  138.6200 C   0  0  0  0  0  2  0  0  0  0  0  0
  188.6800  177.3730  139.4740 C   0  0  2  0  0  3  0  0  0  0  0  0
  188.7140  177.3870  136.7320 C   0  0  1  0  0  3  0  0  0  0  0  0
  189.3720  178.4370  137.4050 O   0  0  0  0  0  0  0  0  0  0  0  0
  2  6  2  0  0  0  0
  3  8  1  0  0  0  0
  4  1  1  0  0  0  0
  5  7  1  6  0  0  0
  5  4  1  0  0  0  0
  6  8  1  0  0  0  0
  6  4  1  0  0  0  0
  9 11  1  6  0  0  0
  9  7  1  0  0  0  0
 10  3  1  0  0  0  0
 11 10  1  0  0  0  0
 13 16  1  0  0  0  0
 13 14  1  1  0  0  0
 14 12  1  0  0  0  0
 15 17  1  6  0  0  0
 15  5  1  0  0  0  0
 15 16  1  0  0  0  0
 16 18  1  1  0  0  0
 18 12  1  0  0  0  0
 19 22  1  1  0  0  0
 19 17  1  0  0  0  0
 19 20  1  0  0  0  0
 20 21  1  6  0  0  0
 20 13  1  0  0  0  0
 22 23  1  6  0  0  0
 24 22  1  0  0  0  0
 25 24  1  0  0  0  0
 27 28  1  0  0  0  0
 28 30  1  0  0  0  0
 30 29  1  6  0  0  0
 30  9  1  0  0  0  0
 31 26  1  6  0  0  0
 31 32  1  0  0  0  0
 31 27  1  0  0  0  0
 32 29  1  0  0  0  0
M  END
>  <MODEL>
7

>  <REMARK>
 VINA RESULT:      -5.0      4.020      8.156
  Name = 
  4 active torsions:
  status: ('A' for Active; 'I' for Inactive)
    1  A    between atoms: C_8  and  C_23
    2  A    between atoms: C_11  and  C_13
    3  A    between atoms: C_13  and  C_28
    4  A    between atoms: C_16  and  C_17
                            x       y       z     vdW  Elec       q    Type
                         _______ _______ _______ _____ _____    ______ ____

>  <TORSDO>
F 4

$$$$
=
 OpenBabel11062414143D

 32 35  0  0  1  0  0  0  0  0999 V2000
  179.8310  177.6790  138.1170 C   0  0  0  0  0  1  0  0  0  0  0  0
  182.1860  175.6060  139.8440 O   0  0  0  0  0  0  0  0  0  0  0  0
  182.2690  178.8290  140.6950 C   0  0  0  0  0  2  0  0  0  0  0  0
  181.0760  176.9430  138.2710 N   0  0  0  0  0  0  0  0  0  0  0  0
  181.8180  176.6080  137.0530 C   0  0  1  0  0  3  0  0  0  0  0  0
  181.5730  176.6770  139.5930 C   0  0  0  0  0  0  0  0  0  0  0  0
  183.0740  177.8800  136.6020 S   0  0  0  0  0  0  0  0  0  0  0  0
  181.4120  177.6520  140.6240 N   0  0  0  0  0  2  0  0  0  0  0  0
  183.8330  178.1040  138.2540 C   0  0  2  0  0  3  0  0  0  0  0  0
  182.2950  179.5640  139.3580 C   0  0  0  0  0  2  0  0  0  0  0  0
  183.6120  179.4650  138.7370 N   0  0  0  0  0  2  0  0  0  0  0  0
  179.4900  172.7040  137.2850 C   0  0  0  0  0  2  0  0  0  0  0  0
  181.6210  172.8280  136.7230 C   0  0  2  0  0  3  0  0  0  0  0  0
  180.5020  172.0030  136.5880 O   0  0  0  0  0  0  0  0  0  0  0  0
  182.2960  175.1490  136.9950 C   0  0  1  0  0  3  0  0  0  0  0  0
  181.1320  174.2260  136.6180 C   0  0  2  0  0  3  0  0  0  0  0  0
  183.3110  175.0190  136.0050 O   0  0  0  0  0  0  0  0  0  0  0  0
  179.9490  174.1410  137.5230 C   0  0  0  0  0  2  0  0  0  0  0  0
  183.8090  173.6860  135.9410 C   0  0  2  0  0  3  0  0  0  0  0  0
  182.7040  172.6220  135.6860 C   0  0  1  0  0  3  0  0  0  0  0  0
  183.2150  171.3250  135.7640 O   0  0  0  0  0  1  0  0  0  0  0  0
  184.8490  173.3960  137.0390 C   0  0  1  0  0  3  0  0  0  0  0  0
  185.6180  172.1000  136.8250 C   0  0  0  0  0  1  0  0  0  0  0  0
  185.7960  174.5710  137.2180 C   0  0  0  0  0  2  0  0  0  0  0  0
  187.4570  174.1330  136.6260 S   0  0  0  0  0  1  0  0  0  0  0  0
  189.0730  179.3630  137.7610 N   0  0  0  0  0  1  0  0  0  0  0  0
  187.3760  178.2590  139.1290 C   0  0  0  0  0  2  0  0  0  0  0  0
  186.0140  178.6200  139.1730 O   0  0  0  0  0  0  0  0  0  0  0  0
  185.9080  178.0180  136.8150 C   0  0  0  0  0  2  0  0  0  0  0  0
  185.3320  177.8230  138.2280 C   0  0  2  0  0  3  0  0  0  0  0  0
  187.9520  178.4430  137.7120 C   0  0  1  0  0  3  0  0  0  0  0  0
  186.9710  178.9440  136.8330 O   0  0  0  0  0  0  0  0  0  0  0  0
  1  4  1  0  0  0  0
  4  6  1  0  0  0  0
  5  7  1  1  0  0  0
  5  4  1  0  0  0  0
  6  2  2  0  0  0  0
  6  8  1  0  0  0  0
  8  3  1  0  0  0  0
  9  7  1  6  0  0  0
  9 11  1  0  0  0  0
 10  3  1  0  0  0  0
 11 10  1  0  0  0  0
 12 18  1  0  0  0  0
 13 14  1  6  0  0  0
 14 12  1  0  0  0  0
 15 17  1  6  0  0  0
 15  5  1  0  0  0  0
 16 13  1  0  0  0  0
 16 15  1  0  0  0  0
 16 18  1  1  0  0  0
 19 17  1  0  0  0  0
 19 22  1  1  0  0  0
 20 21  1  1  0  0  0
 20 19  1  0  0  0  0
 20 13  1  0  0  0  0
 22 23  1  6  0  0  0
 22 24  1  0  0  0  0
 25 24  1  0  0  0  0
 27 28  1  0  0  0  0
 29 32  1  0  0  0  0
 30 29  1  6  0  0  0
 30  9  1  0  0  0  0
 30 28  1  0  0  0  0
 31 26  1  1  0  0  0
 31 27  1  0  0  0  0
 32 31  1  0  0  0  0
M  END
>  <MODEL>
8

>  <REMARK>
 VINA RESULT:      -4.9      3.422      7.009
  Name = 
  4 active torsions:
  status: ('A' for Active; 'I' for Inactive)
    1  A    between atoms: C_8  and  C_23
    2  A    between atoms: C_11  and  C_13
    3  A    between atoms: C_13  and  C_28
    4  A    between atoms: C_16  and  C_17
                            x       y       z     vdW  Elec       q    Type
                         _______ _______ _______ _____ _____    ______ ____

>  <TORSDO>
F 4

$$$$
=
 OpenBabel11062414143D

 32 35  0  0  1  0  0  0  0  0999 V2000
  185.0440  172.0830  134.6380 C   0  0  0  0  0  1  0  0  0  0  0  0
  186.3350  173.4170  137.7010 O   0  0  0  0  0  0  0  0  0  0  0  0
  183.0070  173.2770  137.5260 C   0  0  0  0  0  2  0  0  0  0  0  0
  185.5980  173.1180  135.4950 N   0  0  0  0  0  0  0  0  0  0  0  0
  186.2000  174.2830  134.8440 C   0  0  1  0  0  3  0  0  0  0  0  0
  185.4350  173.0100  136.9190 C   0  0  0  0  0  0  0  0  0  0  0  0
  185.0070  175.6670  134.5940 S   0  0  0  0  0  0  0  0  0  0  0  0
  184.2250  172.4770  137.4590 N   0  0  0  0  0  2  0  0  0  0  0  0
  184.2610  175.6810  136.2670 C   0  0  2  0  0  3  0  0  0  0  0  0
  182.6830  173.8880  136.1650 C   0  0  0  0  0  2  0  0  0  0  0  0
  182.8420  175.3380  136.1950 N   0  0  0  0  0  2  0  0  0  0  0  0
  190.2420  172.2050  134.5940 C   0  0  0  0  0  2  0  0  0  0  0  0
  189.9660  174.2590  135.3570 C   0  0  2  0  0  3  0  0  0  0  0  0
  190.9350  173.4220  134.7980 O   0  0  0  0  0  0  0  0  0  0  0  0
  187.5710  174.6800  135.4160 C   0  0  1  0  0  3  0  0  0  0  0  0
  188.6890  173.9480  134.6650 C   0  0  2  0  0  3  0  0  0  0  0  0
  187.7650  176.0810  135.2580 O   0  0  0  0  0  0  0  0  0  0  0  0
  188.7410  172.4580  134.7090 C   0  0  0  0  0  2  0  0  0  0  0  0
  189.0120  176.4990  135.8090 C   0  0  2  0  0  3  0  0  0  0  0  0
  190.2350  175.7410  135.2200 C   0  0  1  0  0  3  0  0  0  0  0  0
  191.4160  176.0860  135.8800 O   0  0  0  0  0  1  0  0  0  0  0  0
  188.9450  176.6840  137.3360 C   0  0  1  0  0  3  0  0  0  0  0  0
  189.7970  175.6880  138.1090 C   0  0  0  0  0  1  0  0  0  0  0  0
  189.2820  178.1120  137.7290 C   0  0  0  0  0  2  0  0  0  0  0  0
  189.4870  178.2370  139.5290 S   0  0  0  0  0  1  0  0  0  0  0  0
  185.1530  179.0670  140.3930 N   0  0  0  0  0  1  0  0  0  0  0  0
  185.7510  178.4670  138.1010 C   0  0  0  0  0  2  0  0  0  0  0  0
  185.6710  177.1670  137.5590 O   0  0  0  0  0  0  0  0  0  0  0  0
  183.2680  177.2930  137.9390 C   0  0  0  0  0  2  0  0  0  0  0  0
  184.4090  177.0420  136.9390 C   0  0  2  0  0  3  0  0  0  0  0  0
  184.6030  178.7240  139.0960 C   0  0  1  0  0  3  0  0  0  0  0  0
  183.7830  177.5840  139.2190 O   0  0  0  0  0  0  0  0  0  0  0  0
  1  4  1  0  0  0  0
  4  6  1  0  0  0  0
  5  7  1  1  0  0  0
  5 15  1  0  0  0  0
  5  4  1  0  0  0  0
  6  8  1  0  0  0  0
  6  2  2  0  0  0  0
  8  3  1  0  0  0  0
  9  7  1  6  0  0  0
  9 30  1  0  0  0  0
 10 11  1  0  0  0  0
 10  3  1  0  0  0  0
 11  9  1  0  0  0  0
 12 18  1  0  0  0  0
 12 14  1  0  0  0  0
 13 14  1  6  0  0  0
 15 17  1  6  0  0  0
 16 18  1  1  0  0  0
 16 13  1  0  0  0  0
 16 15  1  0  0  0  0
 17 19  1  0  0  0  0
 19 22  1  1  0  0  0
 20 13  1  0  0  0  0
 20 19  1  0  0  0  0
 20 21  1  1  0  0  0
 22 24  1  0  0  0  0
 22 23  1  1  0  0  0
 24 25  1  0  0  0  0
 27 31  1  0  0  0  0
 28 27  1  0  0  0  0
 29 32  1  0  0  0  0
 30 28  1  0  0  0  0
 30 29  1  1  0  0  0
 31 32  1  0  0  0  0
 31 26  1  1  0  0  0
M  END
>  <MODEL>
9

>  <REMARK>
 VINA RESULT:      -4.7      4.018      6.113
  Name = 
  4 active torsions:
  status: ('A' for Active; 'I' for Inactive)
    1  A    between atoms: C_8  and  C_23
    2  A    between atoms: C_11  and  C_13
    3  A    between atoms: C_13  and  C_28
    4  A    between atoms: C_16  and  C_17
                            x       y       z     vdW  Elec       q    Type
                         _______ _______ _______ _____ _____    ______ ____

>  <TORSDO>
F 4

$$$$
