=
 OpenBabel11062414483D

 33 37  0  0  1  0  0  0  0  0999 V2000
  186.4720  178.0410  138.1720 C   0  0  0  0  0  0  0  0  0  0  0  0
  187.2890  178.5750  135.9010 C   0  0  0  0  0  1  0  0  0  0  0  0
  191.0260  175.6300  137.7300 C   0  0  0  0  0  0  0  0  0  0  0  0
  188.5220  177.1340  138.7180 C   0  0  0  0  0  0  0  0  0  0  0  0
  187.0500  178.3380  140.5130 C   0  0  0  0  0  0  0  0  0  0  0  0
  190.9810  176.5370  138.7290 C   0  0  0  0  0  0  0  0  0  0  0  0
  186.9580  177.4620  136.8810 C   0  0  1  0  0  3  0  0  0  0  0  0
  188.2160  176.7840  137.3270 C   0  0  0  0  0  0  0  0  0  0  0  0
  184.9310  179.0870  139.6390 N   0  0  0  0  0  0  0  0  0  0  0  0
  185.7860  178.9480  140.6940 C   0  0  0  0  0  0  0  0  0  0  0  0
  188.7830  175.7970  136.6390 C   0  0  0  0  0  3  0  0  0  0  0  0
  189.7160  177.0540  139.3160 C   0  0  0  0  0  3  0  0  0  0  0  0
  187.3640  177.8750  139.2180 C   0  0  0  0  0  0  0  0  0  0  0  0
  189.8080  174.9010  137.2480 C   0  0  0  0  0  2  0  0  0  0  0  0
  185.2400  178.6500  138.3880 C   0  0  0  0  0  3  0  0  0  0  0  0
  185.3940  179.4490  141.9690 N   0  0  0  0  0  1  0  0  0  0  0  0
  193.0220  174.0420  137.6400 C   0  0  0  0  0  2  0  0  0  0  0  0
  192.3150  174.0320  136.4180 O   0  0  0  0  0  0  0  0  0  0  0  0
  192.3450  175.2470  137.1250 C   0  0  1  0  0  0  0  0  0  0  0  0
  193.1340  176.2000  136.5080 F   0  0  0  0  0  0  0  0  0  0  0  0
  188.8730  179.0580  141.8460 O   0  0  0  0  0  0  0  0  0  0  0  0
  187.9740  178.1950  141.6540 C   0  0  0  0  0  0  0  0  0  0  0  0
  187.7740  177.1590  142.5740 O   0  0  0  0  0  0  0  0  0  0  0  0
  190.1180  176.5670  144.1410 O   0  0  0  0  0  1  0  0  0  0  0  0
  186.6330  177.7280  144.6120 C   0  0  0  0  0  3  0  0  0  0  0  0
  188.9570  177.0490  144.7340 C   0  0  0  0  0  0  0  0  0  0  0  0
  186.6100  177.9020  145.9980 C   0  0  0  0  0  0  0  0  0  0  0  0
  187.7610  177.6600  146.7510 C   0  0  0  0  0  3  0  0  0  0  0  0
  185.3620  178.3480  146.6700 C   0  0  0  0  0  1  0  0  0  0  0  0
  187.8050  177.3200  143.9650 C   0  0  0  0  0  0  0  0  0  0  0  0
  188.9300  177.2310  146.1200 C   0  0  0  0  0  3  0  0  0  0  0  0
  192.1950  177.0200  139.2360 O   0  0  0  0  0  0  0  0  0  0  0  0
  192.3460  177.4950  140.5670 C   0  0  0  0  0  1  0  0  0  0  0  0
  1 15  2  0  0  0  0
  1 13  1  0  0  0  0
  3  6  2  0  0  0  0
  4 13  1  0  0  0  0
  4 12  2  0  0  0  0
  5 10  1  0  0  0  0
  5 22  1  0  0  0  0
  6 32  1  0  0  0  0
  6 12  1  0  0  0  0
  7  2  1  6  0  0  0
  7  8  1  0  0  0  0
  7  1  1  0  0  0  0
  8  4  1  0  0  0  0
  9 10  2  0  0  0  0
 10 16  1  0  0  0  0
 11 14  1  0  0  0  0
 11  8  2  0  0  0  0
 13  5  2  0  0  0  0
 14  3  1  0  0  0  0
 15  9  1  0  0  0  0
 18 19  1  0  0  0  0
 18 17  1  0  0  0  0
 19 20  1  6  0  0  0
 19 17  1  0  0  0  0
 19  3  1  0  0  0  0
 22 21  2  0  0  0  0
 22 23  1  0  0  0  0
 23 30  1  0  0  0  0
 24 26  1  0  0  0  0
 25 27  1  0  0  0  0
 26 31  2  0  0  0  0
 27 29  1  0  0  0  0
 27 28  2  0  0  0  0
 30 25  2  0  0  0  0
 30 26  1  0  0  0  0
 31 28  1  0  0  0  0
 32 33  1  0  0  0  0
M  END
>  <MODEL>
1

>  <REMARK>
 VINA RESULT:      -8.9      0.000      0.000
  Name = 
  5 active torsions:
  status: ('A' for Active; 'I' for Inactive)
    1  A    between atoms: C_5  and  C_18
    2  A    between atoms: C_9  and  C_14
    3  A    between atoms: C_10  and  O_20
    4  A    between atoms: O_11  and  C_14
    5  A    between atoms: O_11  and  C_27
                            x       y       z     vdW  Elec       q    Type
                         _______ _______ _______ _____ _____    ______ ____

>  <TORSDO>
F 5

$$$$
=
 OpenBabel11062414483D

 33 37  0  0  1  0  0  0  0  0999 V2000
  189.0180  177.3600  146.7360 C   0  0  0  0  0  0  0  0  0  0  0  0
  188.1610  179.3270  147.9650 C   0  0  0  0  0  1  0  0  0  0  0  0
  184.5700  178.6160  144.4180 C   0  0  0  0  0  0  0  0  0  0  0  0
  187.4210  177.6620  145.0990 C   0  0  0  0  0  0  0  0  0  0  0  0
  189.7820  176.6900  144.5290 C   0  0  0  0  0  0  0  0  0  0  0  0
  185.6450  178.6680  143.6040 C   0  0  0  0  0  0  0  0  0  0  0  0
  187.8480  177.9200  147.4820 C   0  0  1  0  0  3  0  0  0  0  0  0
  186.8160  177.9700  146.3990 C   0  0  0  0  0  0  0  0  0  0  0  0
  191.1770  176.4140  146.4770 N   0  0  0  0  0  0  0  0  0  0  0  0
  190.9920  176.2730  145.1320 C   0  0  0  0  0  0  0  0  0  0  0  0
  185.5110  178.0050  146.6510 C   0  0  0  0  0  3  0  0  0  0  0  0
  186.9330  177.9850  143.8960 C   0  0  0  0  0  3  0  0  0  0  0  0
  188.7900  177.2280  145.3770 C   0  0  0  0  0  0  0  0  0  0  0  0
  184.4970  177.6980  145.6020 C   0  0  0  0  0  2  0  0  0  0  0  0
  190.2240  176.9440  147.2910 C   0  0  0  0  0  3  0  0  0  0  0  0
  192.0460  175.7250  144.3450 N   0  0  0  0  0  1  0  0  0  0  0  0
  182.3530  178.8500  143.1720 C   0  0  0  0  0  2  0  0  0  0  0  0
  182.1500  178.8610  144.5690 O   0  0  0  0  0  0  0  0  0  0  0  0
  183.3470  179.4270  144.0980 C   0  0  1  0  0  0  0  0  0  0  0  0
  183.3690  180.8030  144.2230 F   0  0  0  0  0  0  0  0  0  0  0  0
  189.0250  175.5110  142.6170 O   0  0  0  0  0  0  0  0  0  0  0  0
  189.5880  176.5420  143.0740 C   0  0  0  0  0  0  0  0  0  0  0  0
  189.9350  177.5990  142.2240 O   0  0  0  0  0  0  0  0  0  0  0  0
  192.3740  177.2170  140.7390 O   0  0  0  0  0  1  0  0  0  0  0  0
  188.7500  177.6840  140.1360 C   0  0  0  0  0  3  0  0  0  0  0  0
  191.1450  177.3100  140.0970 C   0  0  0  0  0  0  0  0  0  0  0  0
  188.7140  177.6110  138.7410 C   0  0  0  0  0  0  0  0  0  0  0  0
  189.8900  177.3790  138.0240 C   0  0  0  0  0  3  0  0  0  0  0  0
  187.4250  177.7790  138.0200 C   0  0  0  0  0  1  0  0  0  0  0  0
  189.9550  177.5160  140.8260 C   0  0  0  0  0  0  0  0  0  0  0  0
  191.1030  177.2330  138.7010 C   0  0  0  0  0  3  0  0  0  0  0  0
  185.5410  179.4130  142.4210 O   0  0  0  0  0  0  0  0  0  0  0  0
  185.4460  178.8150  141.1340 C   0  0  0  0  0  1  0  0  0  0  0  0
  1 15  1  0  0  0  0
  1  7  1  0  0  0  0
  3 14  1  0  0  0  0
  4 13  1  0  0  0  0
  4  8  1  0  0  0  0
  5 10  2  0  0  0  0
  5 13  1  0  0  0  0
  6 12  1  0  0  0  0
  6  3  2  0  0  0  0
  7  2  1  6  0  0  0
  8 11  2  0  0  0  0
  8  7  1  0  0  0  0
  9 15  2  0  0  0  0
 10  9  1  0  0  0  0
 12  4  2  0  0  0  0
 13  1  2  0  0  0  0
 14 11  1  0  0  0  0
 16 10  1  0  0  0  0
 17 19  1  0  0  0  0
 17 18  1  0  0  0  0
 19 20  1  1  0  0  0
 19  3  1  0  0  0  0
 19 18  1  0  0  0  0
 21 22  2  0  0  0  0
 22  5  1  0  0  0  0
 23 22  1  0  0  0  0
 25 30  1  0  0  0  0
 26 24  1  0  0  0  0
 26 30  2  0  0  0  0
 27 25  2  0  0  0  0
 28 31  2  0  0  0  0
 28 27  1  0  0  0  0
 29 27  1  0  0  0  0
 30 23  1  0  0  0  0
 31 26  1  0  0  0  0
 32  6  1  0  0  0  0
 33 32  1  0  0  0  0
M  END
>  <MODEL>
2

>  <REMARK>
 VINA RESULT:      -8.6      3.639      8.590
  Name = 
  5 active torsions:
  status: ('A' for Active; 'I' for Inactive)
    1  A    between atoms: C_5  and  C_18
    2  A    between atoms: C_9  and  C_14
    3  A    between atoms: C_10  and  O_20
    4  A    between atoms: O_11  and  C_14
    5  A    between atoms: O_11  and  C_27
                            x       y       z     vdW  Elec       q    Type
                         _______ _______ _______ _____ _____    ______ ____

>  <TORSDO>
F 5

$$$$
=
 OpenBabel11062414483D

 33 37  0  0  1  0  0  0  0  0999 V2000
  182.0250  178.5050  140.0250 C   0  0  0  0  0  0  0  0  0  0  0  0
  181.3350  179.4520  137.8470 C   0  0  0  0  0  1  0  0  0  0  0  0
  185.8760  177.4130  136.7510 C   0  0  0  0  0  0  0  0  0  0  0  0
  184.1450  178.1120  139.2040 C   0  0  0  0  0  0  0  0  0  0  0  0
  183.7520  178.7130  141.7200 C   0  0  0  0  0  0  0  0  0  0  0  0
  186.2490  178.1750  137.8010 C   0  0  0  0  0  0  0  0  0  0  0  0
  181.7940  178.2000  138.5780 C   0  0  1  0  0  3  0  0  0  0  0  0
  183.1770  177.8320  138.1390 C   0  0  0  0  0  0  0  0  0  0  0  0
  181.4180  178.9680  142.2690 N   0  0  0  0  0  0  0  0  0  0  0  0
  182.7250  178.9530  142.6620 C   0  0  0  0  0  0  0  0  0  0  0  0
  183.4150  177.0980  137.0560 C   0  0  0  0  0  3  0  0  0  0  0  0
  185.4630  178.2870  139.0590 C   0  0  0  0  0  3  0  0  0  0  0  0
  183.3610  178.4750  140.3850 C   0  0  0  0  0  0  0  0  0  0  0  0
  184.7350  176.4430  136.8240 C   0  0  0  0  0  2  0  0  0  0  0  0
  181.0430  178.7500  140.9790 C   0  0  0  0  0  3  0  0  0  0  0  0
  183.0360  179.2090  144.0290 N   0  0  0  0  0  1  0  0  0  0  0  0
  187.7700  176.4700  135.3220 C   0  0  0  0  0  2  0  0  0  0  0  0
  186.5220  176.2980  134.6830 O   0  0  0  0  0  0  0  0  0  0  0  0
  186.6740  177.4460  135.4800 C   0  0  1  0  0  0  0  0  0  0  0  0
  186.7470  178.6050  134.7310 F   0  0  0  0  0  0  0  0  0  0  0  0
  185.8670  179.7430  142.0160 O   0  0  0  0  0  0  0  0  0  0  0  0
  185.1640  178.7050  142.1470 C   0  0  0  0  0  0  0  0  0  0  0  0
  185.6790  177.5740  142.7940 O   0  0  0  0  0  0  0  0  0  0  0  0
  188.4090  177.0740  142.0190 O   0  0  0  0  0  1  0  0  0  0  0  0
  186.4340  177.8240  145.0610 C   0  0  0  0  0  3  0  0  0  0  0  0
  188.0760  177.3760  143.3340 C   0  0  0  0  0  0  0  0  0  0  0  0
  187.4510  177.8600  146.0200 C   0  0  0  0  0  0  0  0  0  0  0  0
  188.7790  177.6640  145.6360 C   0  0  0  0  0  3  0  0  0  0  0  0
  187.1190  178.1090  147.4460 C   0  0  0  0  0  1  0  0  0  0  0  0
  186.7350  177.6020  143.7130 C   0  0  0  0  0  0  0  0  0  0  0  0
  189.0900  177.4190  144.2960 C   0  0  0  0  0  3  0  0  0  0  0  0
  187.4410  178.9050  137.6940 O   0  0  0  0  0  0  0  0  0  0  0  0
  188.6280  178.5590  138.3960 C   0  0  0  0  0  1  0  0  0  0  0  0
  1 13  2  0  0  0  0
  1 15  1  0  0  0  0
  3 14  1  0  0  0  0
  3  6  2  0  0  0  0
  4 13  1  0  0  0  0
  5 22  1  0  0  0  0
  5 10  2  0  0  0  0
  6 12  1  0  0  0  0
  7  2  1  6  0  0  0
  7  1  1  0  0  0  0
  8  7  1  0  0  0  0
  8  4  1  0  0  0  0
  9 10  1  0  0  0  0
 10 16  1  0  0  0  0
 11  8  2  0  0  0  0
 12  4  2  0  0  0  0
 13  5  1  0  0  0  0
 14 11  1  0  0  0  0
 15  9  2  0  0  0  0
 17 19  1  0  0  0  0
 18 17  1  0  0  0  0
 18 19  1  0  0  0  0
 19 20  1  6  0  0  0
 19  3  1  0  0  0  0
 21 22  2  0  0  0  0
 22 23  1  0  0  0  0
 23 30  1  0  0  0  0
 24 26  1  0  0  0  0
 25 27  1  0  0  0  0
 26 30  1  0  0  0  0
 26 31  2  0  0  0  0
 27 29  1  0  0  0  0
 28 27  2  0  0  0  0
 30 25  2  0  0  0  0
 31 28  1  0  0  0  0
 32  6  1  0  0  0  0
 32 33  1  0  0  0  0
M  END
>  <MODEL>
3

>  <REMARK>
 VINA RESULT:      -8.6      3.076      4.391
  Name = 
  5 active torsions:
  status: ('A' for Active; 'I' for Inactive)
    1  A    between atoms: C_5  and  C_18
    2  A    between atoms: C_9  and  C_14
    3  A    between atoms: C_10  and  O_20
    4  A    between atoms: O_11  and  C_14
    5  A    between atoms: O_11  and  C_27
                            x       y       z     vdW  Elec       q    Type
                         _______ _______ _______ _____ _____    ______ ____

>  <TORSDO>
F 5

$$$$
=
 OpenBabel11062414483D

 33 37  0  0  1  0  0  0  0  0999 V2000
  190.8300  177.5390  142.1560 C   0  0  0  0  0  0  0  0  0  0  0  0
  191.0860  178.9890  144.1420 C   0  0  0  0  0  1  0  0  0  0  0  0
  186.0850  178.0040  144.1590 C   0  0  0  0  0  0  0  0  0  0  0  0
  188.5340  177.7000  142.3110 C   0  0  0  0  0  0  0  0  0  0  0  0
  189.7250  177.4660  139.9930 C   0  0  0  0  0  0  0  0  0  0  0  0
  186.1920  178.4620  142.8940 C   0  0  0  0  0  0  0  0  0  0  0  0
  190.5810  177.6510  143.6270 C   0  0  1  0  0  3  0  0  0  0  0  0
  189.0850  177.6210  143.6670 C   0  0  0  0  0  0  0  0  0  0  0  0
  192.1160  177.2270  140.1890 N   0  0  0  0  0  0  0  0  0  0  0  0
  190.9980  177.2730  139.4080 C   0  0  0  0  0  0  0  0  0  0  0  0
  188.4020  177.2810  144.7570 C   0  0  0  0  0  3  0  0  0  0  0  0
  187.2980  178.0870  141.9730 C   0  0  0  0  0  3  0  0  0  0  0  0
  189.6720  177.5850  141.3980 C   0  0  0  0  0  0  0  0  0  0  0  0
  186.9590  176.9100  144.6980 C   0  0  0  0  0  2  0  0  0  0  0  0
  192.0640  177.3540  141.5430 C   0  0  0  0  0  3  0  0  0  0  0  0
  191.1380  177.1500  137.9950 N   0  0  0  0  0  1  0  0  0  0  0  0
  185.2680  178.6040  146.5020 C   0  0  0  0  0  2  0  0  0  0  0  0
  185.3020  179.7450  145.6730 O   0  0  0  0  0  0  0  0  0  0  0  0
  184.9960  178.5210  145.0540 C   0  0  1  0  0  0  0  0  0  0  0  0
  183.6730  178.4390  144.6630 F   0  0  0  0  0  0  0  0  0  0  0  0
  188.0900  178.6340  138.7350 O   0  0  0  0  0  0  0  0  0  0  0  0
  188.5180  177.5220  139.1460 C   0  0  0  0  0  0  0  0  0  0  0  0
  187.9240  176.3290  138.7170 O   0  0  0  0  0  0  0  0  0  0  0  0
  185.4650  177.0870  137.4220 O   0  0  0  0  0  1  0  0  0  0  0  0
  188.5960  175.2570  136.6740 C   0  0  0  0  0  3  0  0  0  0  0  0
  186.4600  176.4020  136.7360 C   0  0  0  0  0  0  0  0  0  0  0  0
  188.3760  174.9160  135.3370 C   0  0  0  0  0  0  0  0  0  0  0  0
  187.2050  175.3250  134.6960 C   0  0  0  0  0  3  0  0  0  0  0  0
  189.3900  174.1210  134.5960 C   0  0  0  0  0  1  0  0  0  0  0  0
  187.6550  176.0160  137.3790 C   0  0  0  0  0  0  0  0  0  0  0  0
  186.2480  176.0630  135.3960 C   0  0  0  0  0  3  0  0  0  0  0  0
  185.2090  179.3450  142.4280 O   0  0  0  0  0  0  0  0  0  0  0  0
  184.2920  179.0090  141.3950 C   0  0  0  0  0  1  0  0  0  0  0  0
  1  7  1  0  0  0  0
  3 14  1  0  0  0  0
  3 19  1  0  0  0  0
  4  8  1  0  0  0  0
  5 13  1  0  0  0  0
  6  3  2  0  0  0  0
  7  8  1  0  0  0  0
  7  2  1  6  0  0  0
  8 11  2  0  0  0  0
  9 15  2  0  0  0  0
 10  5  2  0  0  0  0
 10  9  1  0  0  0  0
 12  4  2  0  0  0  0
 12  6  1  0  0  0  0
 13  1  2  0  0  0  0
 13  4  1  0  0  0  0
 14 11  1  0  0  0  0
 15  1  1  0  0  0  0
 16 10  1  0  0  0  0
 18 17  1  0  0  0  0
 19 20  1  6  0  0  0
 19 18  1  0  0  0  0
 19 17  1  0  0  0  0
 21 22  2  0  0  0  0
 22  5  1  0  0  0  0
 23 22  1  0  0  0  0
 25 30  1  0  0  0  0
 26 30  2  0  0  0  0
 26 24  1  0  0  0  0
 27 25  2  0  0  0  0
 28 27  1  0  0  0  0
 28 31  2  0  0  0  0
 29 27  1  0  0  0  0
 30 23  1  0  0  0  0
 31 26  1  0  0  0  0
 32  6  1  0  0  0  0
 33 32  1  0  0  0  0
M  END
>  <MODEL>
4

>  <REMARK>
 VINA RESULT:      -8.3      3.670      8.404
  Name = 
  5 active torsions:
  status: ('A' for Active; 'I' for Inactive)
    1  A    between atoms: C_5  and  C_18
    2  A    between atoms: C_9  and  C_14
    3  A    between atoms: C_10  and  O_20
    4  A    between atoms: O_11  and  C_14
    5  A    between atoms: O_11  and  C_27
                            x       y       z     vdW  Elec       q    Type
                         _______ _______ _______ _____ _____    ______ ____

>  <TORSDO>
F 5

$$$$
=
 OpenBabel11062414483D

 33 37  0  0  1  0  0  0  0  0999 V2000
  190.7130  177.5130  142.3060 C   0  0  0  0  0  0  0  0  0  0  0  0
  190.5550  178.9440  144.3150 C   0  0  0  0  0  1  0  0  0  0  0  0
  185.6560  178.2460  143.0950 C   0  0  0  0  0  0  0  0  0  0  0  0
  188.4620  177.8040  141.8970 C   0  0  0  0  0  0  0  0  0  0  0  0
  190.1690  177.5030  139.9380 C   0  0  0  0  0  0  0  0  0  0  0  0
  186.0940  178.6980  141.9010 C   0  0  0  0  0  0  0  0  0  0  0  0
  190.1190  177.6380  143.6730 C   0  0  1  0  0  3  0  0  0  0  0  0
  188.6590  177.6930  143.3460 C   0  0  0  0  0  0  0  0  0  0  0  0
  192.4230  177.1280  140.7090 N   0  0  0  0  0  0  0  0  0  0  0  0
  191.5340  177.2380  139.6790 C   0  0  0  0  0  0  0  0  0  0  0  0
  187.7120  177.3930  144.2300 C   0  0  0  0  0  3  0  0  0  0  0  0
  187.3700  178.2610  141.2730 C   0  0  0  0  0  3  0  0  0  0  0  0
  189.7810  177.6240  141.2890 C   0  0  0  0  0  0  0  0  0  0  0  0
  186.3090  177.1050  143.8150 C   0  0  0  0  0  2  0  0  0  0  0  0
  192.0480  177.2570  142.0110 C   0  0  0  0  0  3  0  0  0  0  0  0
  192.0100  177.1070  138.3420 N   0  0  0  0  0  1  0  0  0  0  0  0
  184.4080  179.0960  145.1540 C   0  0  0  0  0  2  0  0  0  0  0  0
  184.5750  180.1270  144.2050 O   0  0  0  0  0  0  0  0  0  0  0  0
  184.4110  178.8250  143.7030 C   0  0  1  0  0  0  0  0  0  0  0  0
  183.1850  178.6420  143.0930 F   0  0  0  0  0  0  0  0  0  0  0  0
  189.0590  178.7390  138.2470 O   0  0  0  0  0  0  0  0  0  0  0  0
  189.2120  177.6280  138.8220 C   0  0  0  0  0  0  0  0  0  0  0  0
  188.5630  176.4830  138.3430 O   0  0  0  0  0  0  0  0  0  0  0  0
  189.5670  175.8930  135.7070 O   0  0  0  0  0  1  0  0  0  0  0  0
  186.3850  176.7920  137.3760 C   0  0  0  0  0  3  0  0  0  0  0  0
  188.2190  176.1520  135.9250 C   0  0  0  0  0  0  0  0  0  0  0  0
  185.5150  176.7840  136.2820 C   0  0  0  0  0  0  0  0  0  0  0  0
  185.9930  176.4520  135.0130 C   0  0  0  0  0  3  0  0  0  0  0  0
  184.0820  177.1270  136.4700 C   0  0  0  0  0  1  0  0  0  0  0  0
  187.7340  176.4590  137.2140 C   0  0  0  0  0  0  0  0  0  0  0  0
  187.3430  176.1400  134.8350 C   0  0  0  0  0  3  0  0  0  0  0  0
  185.3060  179.6360  141.2200 O   0  0  0  0  0  0  0  0  0  0  0  0
  184.5560  179.3180  140.0550 C   0  0  0  0  0  1  0  0  0  0  0  0
  1  7  1  0  0  0  0
  3 19  1  0  0  0  0
  3 14  1  0  0  0  0
  4  8  1  0  0  0  0
  5 13  1  0  0  0  0
  6  3  2  0  0  0  0
  7  2  1  6  0  0  0
  8  7  1  0  0  0  0
  8 11  2  0  0  0  0
  9 15  2  0  0  0  0
 10  5  2  0  0  0  0
 10  9  1  0  0  0  0
 12  4  2  0  0  0  0
 12  6  1  0  0  0  0
 13  4  1  0  0  0  0
 13  1  2  0  0  0  0
 14 11  1  0  0  0  0
 15  1  1  0  0  0  0
 16 10  1  0  0  0  0
 18 17  1  0  0  0  0
 19 20  1  6  0  0  0
 19 18  1  0  0  0  0
 19 17  1  0  0  0  0
 21 22  2  0  0  0  0
 22  5  1  0  0  0  0
 23 22  1  0  0  0  0
 24 26  1  0  0  0  0
 26 30  2  0  0  0  0
 27 29  1  0  0  0  0
 27 25  2  0  0  0  0
 28 27  1  0  0  0  0
 30 25  1  0  0  0  0
 30 23  1  0  0  0  0
 31 28  2  0  0  0  0
 31 26  1  0  0  0  0
 32  6  1  0  0  0  0
 33 32  1  0  0  0  0
M  END
>  <MODEL>
5

>  <REMARK>
 VINA RESULT:      -8.3      3.642      8.114
  Name = 
  5 active torsions:
  status: ('A' for Active; 'I' for Inactive)
    1  A    between atoms: C_5  and  C_18
    2  A    between atoms: C_9  and  C_14
    3  A    between atoms: C_10  and  O_20
    4  A    between atoms: O_11  and  C_14
    5  A    between atoms: O_11  and  C_27
                            x       y       z     vdW  Elec       q    Type
                         _______ _______ _______ _____ _____    ______ ____

>  <TORSDO>
F 5

$$$$
=
 OpenBabel11062414483D

 33 37  0  0  1  0  0  0  0  0999 V2000
  185.6830  178.4140  144.9800 C   0  0  0  0  0  0  0  0  0  0  0  0
  184.2770  180.4360  144.7680 C   0  0  0  0  0  1  0  0  0  0  0  0
  184.0420  178.4590  140.0760 C   0  0  0  0  0  0  0  0  0  0  0  0
  185.6370  178.1190  142.6920 C   0  0  0  0  0  0  0  0  0  0  0  0
  187.7240  177.4250  144.1090 C   0  0  0  0  0  0  0  0  0  0  0  0
  185.3850  178.5050  140.2040 C   0  0  0  0  0  0  0  0  0  0  0  0
  184.3350  178.9290  144.5830 C   0  0  1  0  0  3  0  0  0  0  0  0
  184.3180  178.5930  143.1250 C   0  0  0  0  0  0  0  0  0  0  0  0
  187.4110  177.7790  146.4740 N   0  0  0  0  0  0  0  0  0  0  0  0
  188.1870  177.3340  145.4430 C   0  0  0  0  0  0  0  0  0  0  0  0
  183.1920  178.4770  142.4270 C   0  0  0  0  0  3  0  0  0  0  0  0
  186.1090  178.1050  141.4410 C   0  0  0  0  0  3  0  0  0  0  0  0
  186.4370  177.9680  143.9080 C   0  0  0  0  0  0  0  0  0  0  0  0
  183.1560  177.8070  141.0960 C   0  0  0  0  0  2  0  0  0  0  0  0
  186.1750  178.3130  146.2770 C   0  0  0  0  0  3  0  0  0  0  0  0
  189.4780  176.8040  145.7310 N   0  0  0  0  0  1  0  0  0  0  0  0
  182.2040  179.8520  138.9820 C   0  0  0  0  0  2  0  0  0  0  0  0
  183.4790  180.3820  138.6890 O   0  0  0  0  0  0  0  0  0  0  0  0
  183.3890  178.9860  138.8310 C   0  0  1  0  0  0  0  0  0  0  0  0
  183.5360  178.3200  137.6300 F   0  0  0  0  0  0  0  0  0  0  0  0
  188.6350  175.7180  142.7400 O   0  0  0  0  0  0  0  0  0  0  0  0
  188.5680  176.9500  142.9960 C   0  0  0  0  0  0  0  0  0  0  0  0
  189.2020  177.8840  142.1680 O   0  0  0  0  0  0  0  0  0  0  0  0
  192.0080  177.7130  142.8000 O   0  0  0  0  0  1  0  0  0  0  0  0
  189.7490  177.3750  139.8840 C   0  0  0  0  0  3  0  0  0  0  0  0
  191.5400  177.4580  141.5160 C   0  0  0  0  0  0  0  0  0  0  0  0
  190.6720  177.0520  138.8860 C   0  0  0  0  0  0  0  0  0  0  0  0
  192.0260  176.9230  139.2030 C   0  0  0  0  0  3  0  0  0  0  0  0
  190.2130  176.8440  137.4880 C   0  0  0  0  0  1  0  0  0  0  0  0
  190.1680  177.5610  141.2060 C   0  0  0  0  0  0  0  0  0  0  0  0
  192.4590  177.1290  140.5140 C   0  0  0  0  0  3  0  0  0  0  0  0
  186.1360  178.9630  139.1130 O   0  0  0  0  0  0  0  0  0  0  0  0
  186.7370  178.0900  138.1660 C   0  0  0  0  0  1  0  0  0  0  0  0
  1 15  1  0  0  0  0
  3  6  2  0  0  0  0
  3 14  1  0  0  0  0
  4  8  1  0  0  0  0
  4 13  1  0  0  0  0
  5 10  2  0  0  0  0
  6 12  1  0  0  0  0
  7  2  1  6  0  0  0
  7  1  1  0  0  0  0
  8  7  1  0  0  0  0
 10 16  1  0  0  0  0
 10  9  1  0  0  0  0
 11  8  2  0  0  0  0
 12  4  2  0  0  0  0
 13  5  1  0  0  0  0
 13  1  2  0  0  0  0
 14 11  1  0  0  0  0
 15  9  2  0  0  0  0
 18 19  1  0  0  0  0
 18 17  1  0  0  0  0
 19 20  1  6  0  0  0
 19 17  1  0  0  0  0
 19  3  1  0  0  0  0
 21 22  2  0  0  0  0
 22  5  1  0  0  0  0
 23 22  1  0  0  0  0
 25 30  1  0  0  0  0
 26 24  1  0  0  0  0
 27 28  1  0  0  0  0
 27 25  2  0  0  0  0
 28 31  2  0  0  0  0
 29 27  1  0  0  0  0
 30 26  2  0  0  0  0
 30 23  1  0  0  0  0
 31 26  1  0  0  0  0
 32  6  1  0  0  0  0
 33 32  1  0  0  0  0
M  END
>  <MODEL>
6

>  <REMARK>
 VINA RESULT:      -8.1      3.101      7.177
  Name = 
  5 active torsions:
  status: ('A' for Active; 'I' for Inactive)
    1  A    between atoms: C_5  and  C_18
    2  A    between atoms: C_9  and  C_14
    3  A    between atoms: C_10  and  O_20
    4  A    between atoms: O_11  and  C_14
    5  A    between atoms: O_11  and  C_27
                            x       y       z     vdW  Elec       q    Type
                         _______ _______ _______ _____ _____    ______ ____

>  <TORSDO>
F 5

$$$$
=
 OpenBabel11062414483D

 33 37  0  0  1  0  0  0  0  0999 V2000
  181.5750  178.5580  142.0710 C   0  0  0  0  0  0  0  0  0  0  0  0
  179.9910  179.2950  140.3220 C   0  0  0  0  0  1  0  0  0  0  0  0
  183.4290  176.6680  137.6290 C   0  0  0  0  0  0  0  0  0  0  0  0
  183.0580  177.8450  140.4540 C   0  0  0  0  0  0  0  0  0  0  0  0
  183.8980  178.7920  142.7430 C   0  0  0  0  0  0  0  0  0  0  0  0
  184.2740  177.5110  138.2600 C   0  0  0  0  0  0  0  0  0  0  0  0
  180.6890  178.1020  140.9540 C   0  0  1  0  0  3  0  0  0  0  0  0
  181.6970  177.5390  140.0020 C   0  0  0  0  0  0  0  0  0  0  0  0
  182.0950  179.3580  144.2410 N   0  0  0  0  0  0  0  0  0  0  0  0
  183.4340  179.2540  143.9970 C   0  0  0  0  0  0  0  0  0  0  0  0
  181.3800  176.6540  139.0610 C   0  0  0  0  0  3  0  0  0  0  0  0
  184.1650  177.8610  139.7010 C   0  0  0  0  0  3  0  0  0  0  0  0
  182.9250  178.4320  141.7870 C   0  0  0  0  0  0  0  0  0  0  0  0
  182.4170  175.8400  138.3630 C   0  0  0  0  0  2  0  0  0  0  0  0
  181.1580  179.0220  143.3140 C   0  0  0  0  0  3  0  0  0  0  0  0
  184.3520  179.6430  145.0150 N   0  0  0  0  0  1  0  0  0  0  0  0
  184.3970  175.3500  135.6680 C   0  0  0  0  0  2  0  0  0  0  0  0
  182.9890  175.2490  135.6970 O   0  0  0  0  0  0  0  0  0  0  0  0
  183.5480  176.4580  136.1470 C   0  0  1  0  0  0  0  0  0  0  0  0
  183.3220  177.5050  135.2730 F   0  0  0  0  0  0  0  0  0  0  0  0
  185.9690  179.6690  141.9950 O   0  0  0  0  0  0  0  0  0  0  0  0
  185.3460  178.6870  142.4800 C   0  0  0  0  0  0  0  0  0  0  0  0
  186.0340  177.5330  142.8740 O   0  0  0  0  0  0  0  0  0  0  0  0
  188.6670  177.4020  141.7110 O   0  0  0  0  0  1  0  0  0  0  0  0
  187.0620  177.5370  145.0460 C   0  0  0  0  0  3  0  0  0  0  0  0
  188.4890  177.4880  143.0870 C   0  0  0  0  0  0  0  0  0  0  0  0
  188.1910  177.5370  145.8700 C   0  0  0  0  0  0  0  0  0  0  0  0
  189.4670  177.5210  145.3040 C   0  0  0  0  0  3  0  0  0  0  0  0
  188.0330  177.5550  147.3470 C   0  0  0  0  0  1  0  0  0  0  0  0
  187.1980  177.5330  143.6540 C   0  0  0  0  0  0  0  0  0  0  0  0
  189.6150  177.4930  143.9160 C   0  0  0  0  0  3  0  0  0  0  0  0
  185.3060  178.0920  137.5110 O   0  0  0  0  0  0  0  0  0  0  0  0
  186.6360  178.2220  137.9950 C   0  0  0  0  0  1  0  0  0  0  0  0
  1 15  1  0  0  0  0
  3  6  2  0  0  0  0
  3 14  1  0  0  0  0
  4 13  1  0  0  0  0
  5 10  2  0  0  0  0
  6 12  1  0  0  0  0
  7  2  1  6  0  0  0
  7  1  1  0  0  0  0
  8  4  1  0  0  0  0
  8  7  1  0  0  0  0
 10  9  1  0  0  0  0
 10 16  1  0  0  0  0
 11  8  2  0  0  0  0
 12  4  2  0  0  0  0
 13  1  2  0  0  0  0
 13  5  1  0  0  0  0
 14 11  1  0  0  0  0
 15  9  2  0  0  0  0
 17 18  1  0  0  0  0
 17 19  1  0  0  0  0
 18 19  1  0  0  0  0
 19 20  1  6  0  0  0
 19  3  1  0  0  0  0
 21 22  2  0  0  0  0
 22  5  1  0  0  0  0
 22 23  1  0  0  0  0
 23 30  1  0  0  0  0
 24 26  1  0  0  0  0
 25 27  1  0  0  0  0
 26 30  1  0  0  0  0
 26 31  2  0  0  0  0
 27 29  1  0  0  0  0
 28 27  2  0  0  0  0
 30 25  2  0  0  0  0
 31 28  1  0  0  0  0
 32 33  1  0  0  0  0
 32  6  1  0  0  0  0
M  END
>  <MODEL>
7

>  <REMARK>
 VINA RESULT:      -8.0      3.852      5.878
  Name = 
  5 active torsions:
  status: ('A' for Active; 'I' for Inactive)
    1  A    between atoms: C_5  and  C_18
    2  A    between atoms: C_9  and  C_14
    3  A    between atoms: C_10  and  O_20
    4  A    between atoms: O_11  and  C_14
    5  A    between atoms: O_11  and  C_27
                            x       y       z     vdW  Elec       q    Type
                         _______ _______ _______ _____ _____    ______ ____

>  <TORSDO>
F 5

$$$$
=
 OpenBabel11062414483D

 33 37  0  0  1  0  0  0  0  0999 V2000
  188.8230  177.8970  140.9430 C   0  0  0  0  0  0  0  0  0  0  0  0
  190.2250  178.8550  142.7400 C   0  0  0  0  0  1  0  0  0  0  0  0
  185.8140  178.0030  145.1480 C   0  0  0  0  0  0  0  0  0  0  0  0
  186.9530  178.0690  142.2840 C   0  0  0  0  0  0  0  0  0  0  0  0
  186.7900  178.3370  139.6870 C   0  0  0  0  0  0  0  0  0  0  0  0
  185.3390  178.7320  144.1160 C   0  0  0  0  0  0  0  0  0  0  0  0
  189.3560  177.6790  142.3250 C   0  0  1  0  0  3  0  0  0  0  0  0
  188.0890  177.6740  143.1220 C   0  0  0  0  0  0  0  0  0  0  0  0
  188.9050  178.0080  138.5770 N   0  0  0  0  0  0  0  0  0  0  0  0
  187.5650  178.2530  138.5060 C   0  0  0  0  0  0  0  0  0  0  0  0
  188.0000  177.1130  144.3250 C   0  0  0  0  0  3  0  0  0  0  0  0
  185.7780  178.5500  142.7070 C   0  0  0  0  0  3  0  0  0  0  0  0
  187.4600  178.1380  140.9130 C   0  0  0  0  0  0  0  0  0  0  0  0
  186.6840  176.7970  144.9510 C   0  0  0  0  0  2  0  0  0  0  0  0
  189.5510  177.8270  139.7610 C   0  0  0  0  0  3  0  0  0  0  0  0
  186.9670  178.4490  137.2280 N   0  0  0  0  0  1  0  0  0  0  0  0
  186.4500  178.6290  147.5400 C   0  0  0  0  0  2  0  0  0  0  0  0
  185.6810  179.6500  146.9390 O   0  0  0  0  0  0  0  0  0  0  0  0
  185.3950  178.3290  146.5520 C   0  0  1  0  0  0  0  0  0  0  0  0
  184.1810  177.8850  147.0400 F   0  0  0  0  0  0  0  0  0  0  0  0
  184.9300  179.7980  139.5210 O   0  0  0  0  0  0  0  0  0  0  0  0
  185.3430  178.6100  139.6070 C   0  0  0  0  0  0  0  0  0  0  0  0
  184.4460  177.5380  139.5200 O   0  0  0  0  0  0  0  0  0  0  0  0
  183.0630  177.5290  136.9930 O   0  0  0  0  0  1  0  0  0  0  0  0
  182.3300  177.8840  140.6050 C   0  0  0  0  0  3  0  0  0  0  0  0
  182.3730  177.6540  138.1920 C   0  0  0  0  0  0  0  0  0  0  0  0
  180.9410  178.0290  140.5680 C   0  0  0  0  0  0  0  0  0  0  0  0
  180.2660  177.9770  139.3460 C   0  0  0  0  0  3  0  0  0  0  0  0
  180.1810  178.2360  141.8280 C   0  0  0  0  0  1  0  0  0  0  0  0
  183.0550  177.6760  139.4270 C   0  0  0  0  0  0  0  0  0  0  0  0
  180.9820  177.7940  138.1610 C   0  0  0  0  0  3  0  0  0  0  0  0
  184.3830  179.7190  144.3920 O   0  0  0  0  0  0  0  0  0  0  0  0
  183.0150  179.5970  144.0260 C   0  0  0  0  0  1  0  0  0  0  0  0
  1  7  1  0  0  0  0
  3 19  1  0  0  0  0
  4 12  2  0  0  0  0
  4  8  1  0  0  0  0
  5 13  2  0  0  0  0
  6 32  1  0  0  0  0
  6  3  2  0  0  0  0
  7  2  1  1  0  0  0
  7  8  1  0  0  0  0
  8 11  2  0  0  0  0
  9 15  1  0  0  0  0
 10  9  2  0  0  0  0
 10  5  1  0  0  0  0
 11 14  1  0  0  0  0
 12  6  1  0  0  0  0
 13  1  1  0  0  0  0
 13  4  1  0  0  0  0
 14  3  1  0  0  0  0
 15  1  2  0  0  0  0
 16 10  1  0  0  0  0
 18 17  1  0  0  0  0
 19 18  1  0  0  0  0
 19 20  1  1  0  0  0
 19 17  1  0  0  0  0
 21 22  2  0  0  0  0
 22  5  1  0  0  0  0
 23 22  1  0  0  0  0
 24 26  1  0  0  0  0
 26 30  1  0  0  0  0
 27 25  1  0  0  0  0
 27 29  1  0  0  0  0
 28 27  2  0  0  0  0
 30 23  1  0  0  0  0
 30 25  2  0  0  0  0
 31 26  2  0  0  0  0
 31 28  1  0  0  0  0
 33 32  1  0  0  0  0
M  END
>  <MODEL>
8

>  <REMARK>
 VINA RESULT:      -8.0      4.232      7.988
  Name = 
  5 active torsions:
  status: ('A' for Active; 'I' for Inactive)
    1  A    between atoms: C_5  and  C_18
    2  A    between atoms: C_9  and  C_14
    3  A    between atoms: C_10  and  O_20
    4  A    between atoms: O_11  and  C_14
    5  A    between atoms: O_11  and  C_27
                            x       y       z     vdW  Elec       q    Type
                         _______ _______ _______ _____ _____    ______ ____

>  <TORSDO>
F 5

$$$$
=
 OpenBabel11062414483D

 33 37  0  0  1  0  0  0  0  0999 V2000
  186.2790  178.0870  138.7490 C   0  0  0  0  0  0  0  0  0  0  0  0
  185.0490  176.5830  137.2210 C   0  0  0  0  0  1  0  0  0  0  0  0
  181.2730  179.1570  139.4780 C   0  0  0  0  0  0  0  0  0  0  0  0
  184.3050  178.6870  139.7800 C   0  0  0  0  0  0  0  0  0  0  0  0
  186.5530  178.5770  141.1130 C   0  0  0  0  0  0  0  0  0  0  0  0
  181.9070  178.7220  140.5880 C   0  0  0  0  0  0  0  0  0  0  0  0
  185.2710  178.0250  137.6460 C   0  0  1  0  0  3  0  0  0  0  0  0
  184.0520  178.5440  138.3430 C   0  0  0  0  0  0  0  0  0  0  0  0
  188.4400  178.0100  139.7230 N   0  0  0  0  0  0  0  0  0  0  0  0
  187.9400  178.3550  140.9450 C   0  0  0  0  0  0  0  0  0  0  0  0
  183.0160  179.0610  137.6890 C   0  0  0  0  0  3  0  0  0  0  0  0
  183.3850  178.7360  140.7510 C   0  0  0  0  0  3  0  0  0  0  0  0
  185.7350  178.4450  139.9710 C   0  0  0  0  0  0  0  0  0  0  0  0
  181.9830  179.8870  138.3770 C   0  0  0  0  0  2  0  0  0  0  0  0
  187.6480  177.8720  138.6250 C   0  0  0  0  0  3  0  0  0  0  0  0
  188.8340  178.4620  142.0500 N   0  0  0  0  0  1  0  0  0  0  0  0
  178.9330  180.1380  139.7630 C   0  0  0  0  0  2  0  0  0  0  0  0
  179.2000  179.8570  138.4050 O   0  0  0  0  0  0  0  0  0  0  0  0
  179.7840  179.0030  139.3570 C   0  0  1  0  0  0  0  0  0  0  0  0
  179.2090  177.7470  139.3650 F   0  0  0  0  0  0  0  0  0  0  0  0
  185.6850  180.1360  142.6730 O   0  0  0  0  0  0  0  0  0  0  0  0
  186.0150  178.9430  142.4370 C   0  0  0  0  0  0  0  0  0  0  0  0
  185.7760  177.9380  143.3830 O   0  0  0  0  0  0  0  0  0  0  0  0
  184.0600  179.1050  145.3810 O   0  0  0  0  0  1  0  0  0  0  0  0
  187.4170  177.5660  145.0990 C   0  0  0  0  0  3  0  0  0  0  0  0
  185.2990  178.5730  145.7170 C   0  0  0  0  0  0  0  0  0  0  0  0
  187.8340  177.6250  146.4310 C   0  0  0  0  0  0  0  0  0  0  0  0
  186.9830  178.1480  147.4070 C   0  0  0  0  0  3  0  0  0  0  0  0
  189.1830  177.1290  146.8100 C   0  0  0  0  0  1  0  0  0  0  0  0
  186.1450  178.0190  144.7320 C   0  0  0  0  0  0  0  0  0  0  0  0
  185.7200  178.6240  147.0490 C   0  0  0  0  0  3  0  0  0  0  0  0
  181.1270  178.2240  141.6400 O   0  0  0  0  0  0  0  0  0  0  0  0
  180.8750  178.9560  142.8320 C   0  0  0  0  0  1  0  0  0  0  0  0
  1 13  1  0  0  0  0
  3  6  2  0  0  0  0
  4 13  1  0  0  0  0
  4 12  2  0  0  0  0
  5 22  1  0  0  0  0
  6 12  1  0  0  0  0
  6 32  1  0  0  0  0
  7  2  1  1  0  0  0
  7  8  1  0  0  0  0
  7  1  1  0  0  0  0
  8  4  1  0  0  0  0
  9 10  2  0  0  0  0
 10  5  1  0  0  0  0
 10 16  1  0  0  0  0
 11  8  2  0  0  0  0
 11 14  1  0  0  0  0
 13  5  2  0  0  0  0
 14  3  1  0  0  0  0
 15  1  2  0  0  0  0
 15  9  1  0  0  0  0
 18 19  1  0  0  0  0
 18 17  1  0  0  0  0
 19 20  1  1  0  0  0
 19  3  1  0  0  0  0
 19 17  1  0  0  0  0
 22 21  2  0  0  0  0
 22 23  1  0  0  0  0
 23 30  1  0  0  0  0
 24 26  1  0  0  0  0
 25 27  1  0  0  0  0
 26 31  2  0  0  0  0
 27 29  1  0  0  0  0
 27 28  2  0  0  0  0
 30 25  2  0  0  0  0
 30 26  1  0  0  0  0
 31 28  1  0  0  0  0
 32 33  1  0  0  0  0
M  END
>  <MODEL>
9

>  <REMARK>
 VINA RESULT:      -7.9      4.328      7.175
  Name = 
  5 active torsions:
  status: ('A' for Active; 'I' for Inactive)
    1  A    between atoms: C_5  and  C_18
    2  A    between atoms: C_9  and  C_14
    3  A    between atoms: C_10  and  O_20
    4  A    between atoms: O_11  and  C_14
    5  A    between atoms: O_11  and  C_27
                            x       y       z     vdW  Elec       q    Type
                         _______ _______ _______ _____ _____    ______ ____

>  <TORSDO>
F 5

$$$$
