=
 OpenBabel11062416333D

 29 33  0  0  1  0  0  0  0  0999 V2000
  188.8730  177.6500  140.5100 N   0  0  0  0  0  0  0  0  0  0  0  0
  190.0870  176.9040  140.7480 C   0  0  0  0  0  0  0  0  0  0  0  0
  188.2890  178.4290  141.6100 C   0  0  0  0  0  2  0  0  0  0  0  0
  186.3400  178.2000  137.8260 C   0  0  0  0  0  0  0  0  0  0  0  0
  185.1080  178.5620  137.6780 N   0  0  0  0  0  1  0  0  0  0  0  0
  190.5990  176.2070  139.8290 O   0  0  0  0  0  0  0  0  0  0  0  0
  186.1740  178.4660  140.3230 C   0  0  0  0  0  3  0  0  0  0  0  0
  188.2620  177.7320  139.2040 C   0  0  0  0  0  0  0  0  0  0  0  0
  188.9560  177.4150  138.0770 N   0  0  0  0  0  0  0  0  0  0  0  0
  188.3740  177.4860  136.8510 C   0  0  0  0  0  0  0  0  0  0  0  0
  186.7850  178.5380  141.5070 C   0  0  0  0  0  0  0  0  0  0  0  0
  186.9260  178.1430  139.0980 C   0  0  0  0  0  0  0  0  0  0  0  0
  187.0780  177.8740  136.7330 N   0  0  0  0  0  0  0  0  0  0  0  0
  189.1240  177.1490  135.6900 N   0  0  0  0  0  1  0  0  0  0  0  0
  190.0760  177.7570  144.7480 C   0  0  0  0  0  0  0  0  0  0  0  0
  191.1720  178.3370  142.5810 C   0  0  2  0  0  3  0  0  0  0  0  0
  191.2680  178.4060  144.1070 C   0  0  0  0  0  2  0  0  0  0  0  0
  189.5530  178.2790  145.7200 O   0  0  0  0  0  0  0  0  0  0  0  0
  190.4380  175.8840  143.1310 C   0  0  0  0  0  2  0  0  0  0  0  0
  190.7750  176.9450  142.0800 C   0  0  1  0  0  0  0  0  0  0  0  0
  189.5330  176.4600  144.2180 C   0  0  0  0  0  2  0  0  0  0  0  0
  192.2250  177.3760  142.0460 C   0  0  0  0  0  2  0  0  0  0  0  0
  183.6400  178.6320  143.6950 C   0  0  0  0  0  2  0  0  0  0  0  0
  185.9760  178.8780  142.7140 C   0  0  0  0  0  3  0  0  0  0  0  0
  184.3650  179.1630  144.8460 N   0  0  0  0  0  0  0  0  0  0  0  0
  184.4750  178.7690  142.4180 C   0  0  0  0  0  2  0  0  0  0  0  0
  185.4930  178.2750  145.1410 C   0  0  0  0  0  2  0  0  0  0  0  0
  186.3850  178.0210  143.9140 C   0  0  0  0  0  2  0  0  0  0  0  0
  183.5250  179.0890  145.9050 O   0  0  0  0  0  1  0  0  0  0  0  0
  1  2  1  0  0  0  0
  1  3  1  0  0  0  0
  4 12  1  0  0  0  0
  5  4  1  0  0  0  0
  6  2  2  0  0  0  0
  7 11  2  0  0  0  0
  8  1  1  0  0  0  0
  9  8  1  0  0  0  0
 10  9  2  0  0  0  0
 11  3  1  0  0  0  0
 11 24  1  0  0  0  0
 12  8  2  0  0  0  0
 12  7  1  0  0  0  0
 13 10  1  0  0  0  0
 13  4  2  0  0  0  0
 14 10  1  0  0  0  0
 15 18  2  0  0  0  0
 16 22  1  6  0  0  0
 16 17  1  0  0  0  0
 17 15  1  0  0  0  0
 19 21  1  0  0  0  0
 20  2  1  6  0  0  0
 20 16  1  0  0  0  0
 20 19  1  0  0  0  0
 21 15  1  0  0  0  0
 22 20  1  0  0  0  0
 23 25  1  0  0  0  0
 24 28  1  0  0  0  0
 25 27  1  0  0  0  0
 25 29  1  0  0  0  0
 26 24  1  0  0  0  0
 26 23  1  0  0  0  0
 28 27  1  0  0  0  0
M  END
>  <MODEL>
1

>  <REMARK>
 VINA RESULT:      -9.0      0.000      0.000
  Name = 
  2 active torsions:
  status: ('A' for Active; 'I' for Inactive)
    1  A    between atoms: C_2  and  C_18
    2  A    between atoms: C_5  and  C_23
                            x       y       z     vdW  Elec       q    Type
                         _______ _______ _______ _____ _____    ______ ____

>  <TORSDO>
F 2

$$$$
=
 OpenBabel11062416333D

 29 33  0  0  1  0  0  0  0  0999 V2000
  186.7950  178.5110  141.7530 N   0  0  0  0  0  0  0  0  0  0  0  0
  185.5390  179.2230  141.7200 C   0  0  0  0  0  0  0  0  0  0  0  0
  187.2790  177.9780  143.0330 C   0  0  0  0  0  2  0  0  0  0  0  0
  189.6260  177.6120  139.4950 C   0  0  0  0  0  0  0  0  0  0  0  0
  190.8780  177.2950  139.5450 N   0  0  0  0  0  1  0  0  0  0  0  0
  185.1090  179.7120  140.6390 O   0  0  0  0  0  0  0  0  0  0  0  0
  189.5230  177.8180  142.0020 C   0  0  0  0  0  3  0  0  0  0  0  0
  187.5500  178.2230  140.5550 C   0  0  0  0  0  0  0  0  0  0  0  0
  186.9750  178.2920  139.3230 N   0  0  0  0  0  0  0  0  0  0  0  0
  187.6910  178.0290  138.1990 C   0  0  0  0  0  0  0  0  0  0  0  0
  188.7870  177.9320  143.1090 C   0  0  0  0  0  0  0  0  0  0  0  0
  188.9020  177.8700  140.6670 C   0  0  0  0  0  0  0  0  0  0  0  0
  189.0040  177.6950  138.2900 N   0  0  0  0  0  0  0  0  0  0  0  0
  187.0640  178.1070  136.9250 N   0  0  0  0  0  1  0  0  0  0  0  0
  184.9110  178.5860  145.7120 C   0  0  0  0  0  0  0  0  0  0  0  0
  183.9750  178.1350  143.4420 C   0  0  2  0  0  3  0  0  0  0  0  0
  183.6910  178.1640  144.9460 C   0  0  0  0  0  2  0  0  0  0  0  0
  185.1980  178.0180  146.7530 O   0  0  0  0  0  0  0  0  0  0  0  0
  185.1360  180.4110  144.0160 C   0  0  0  0  0  2  0  0  0  0  0  0
  184.7080  179.3900  142.9590 C   0  0  1  0  0  0  0  0  0  0  0  0
  185.7700  179.7180  145.2200 C   0  0  0  0  0  2  0  0  0  0  0  0
  183.2140  179.2630  142.7570 C   0  0  0  0  0  2  0  0  0  0  0  0
  189.2630  176.7990  146.7390 C   0  0  0  0  0  2  0  0  0  0  0  0
  189.4680  177.8610  144.4350 C   0  0  0  0  0  3  0  0  0  0  0  0
  190.5990  177.3810  146.8250 N   0  0  0  0  0  0  0  0  0  0  0  0
  188.5140  177.3370  145.5150 C   0  0  0  0  0  2  0  0  0  0  0  0
  191.4150  176.8490  145.7290 C   0  0  0  0  0  2  0  0  0  0  0  0
  190.7500  177.0300  144.3530 C   0  0  0  0  0  2  0  0  0  0  0  0
  191.1500  176.9270  147.9750 O   0  0  0  0  0  1  0  0  0  0  0  0
  1  3  1  0  0  0  0
  2  1  1  0  0  0  0
  3 11  1  0  0  0  0
  4  5  1  0  0  0  0
  4 12  1  0  0  0  0
  6  2  2  0  0  0  0
  7 11  2  0  0  0  0
  8 12  2  0  0  0  0
  8  1  1  0  0  0  0
  9  8  1  0  0  0  0
 10 13  1  0  0  0  0
 10  9  2  0  0  0  0
 11 24  1  0  0  0  0
 12  7  1  0  0  0  0
 13  4  2  0  0  0  0
 14 10  1  0  0  0  0
 15 18  2  0  0  0  0
 16 22  1  6  0  0  0
 16 17  1  0  0  0  0
 17 15  1  0  0  0  0
 19 21  1  0  0  0  0
 20  2  1  6  0  0  0
 20 16  1  0  0  0  0
 20 19  1  0  0  0  0
 21 15  1  0  0  0  0
 22 20  1  0  0  0  0
 23 25  1  0  0  0  0
 24 26  1  0  0  0  0
 25 29  1  0  0  0  0
 26 23  1  0  0  0  0
 27 25  1  0  0  0  0
 28 24  1  0  0  0  0
 28 27  1  0  0  0  0
M  END
>  <MODEL>
2

>  <REMARK>
 VINA RESULT:      -8.7      2.238      5.274
  Name = 
  2 active torsions:
  status: ('A' for Active; 'I' for Inactive)
    1  A    between atoms: C_2  and  C_18
    2  A    between atoms: C_5  and  C_23
                            x       y       z     vdW  Elec       q    Type
                         _______ _______ _______ _____ _____    ______ ____

>  <TORSDO>
F 2

$$$$
=
 OpenBabel11062416333D

 29 33  0  0  1  0  0  0  0  0999 V2000
  188.4530  177.9910  140.9990 N   0  0  0  0  0  0  0  0  0  0  0  0
  189.4920  177.4890  141.8680 C   0  0  0  0  0  0  0  0  0  0  0  0
  187.3810  178.8150  141.5720 C   0  0  0  0  0  2  0  0  0  0  0  0
  187.3370  177.7450  137.4470 C   0  0  0  0  0  0  0  0  0  0  0  0
  186.2730  177.8810  136.7260 N   0  0  0  0  0  2  0  0  0  0  0  0
  190.4130  176.7590  141.4080 O   0  0  0  0  0  0  0  0  0  0  0  0
  186.0600  178.3320  139.5350 C   0  0  0  0  0  3  0  0  0  0  0  0
  188.4800  177.7880  139.5690 C   0  0  0  0  0  0  0  0  0  0  0  0
  189.6240  177.4290  138.9260 N   0  0  0  0  0  0  0  0  0  0  0  0
  189.6420  177.2310  137.5820 C   0  0  0  0  0  0  0  0  0  0  0  0
  186.0760  178.6680  140.8270 C   0  0  0  0  0  0  0  0  0  0  0  0
  187.3000  177.9630  138.8310 C   0  0  0  0  0  0  0  0  0  0  0  0
  188.5060  177.3870  136.8550 N   0  0  0  0  0  2  0  0  0  0  0  0
  190.8530  176.8560  136.9370 N   0  0  0  0  0  1  0  0  0  0  0  0
  191.2160  177.2340  145.5690 C   0  0  0  0  0  0  0  0  0  0  0  0
  189.1480  176.6850  144.2820 C   0  0  2  0  0  3  0  0  0  0  0  0
  189.7660  176.8600  145.6710 C   0  0  0  0  0  2  0  0  0  0  0  0
  192.0260  176.7290  146.3280 O   0  0  0  0  0  0  0  0  0  0  0  0
  190.4920  178.8890  143.8380 C   0  0  0  0  0  2  0  0  0  0  0  0
  189.5130  177.8280  143.3290 C   0  0  1  0  0  0  0  0  0  0  0  0
  191.6760  178.2420  144.5530 C   0  0  0  0  0  2  0  0  0  0  0  0
  188.1650  177.8170  144.0150 C   0  0  0  0  0  2  0  0  0  0  0  0
  182.3000  178.5160  141.4700 C   0  0  0  0  0  2  0  0  0  0  0  0
  184.7910  179.0430  141.4870 C   0  0  0  0  0  3  0  0  0  0  0  0
  182.3920  179.3660  142.6540 N   0  0  0  0  0  0  0  0  0  0  0  0
  183.5900  178.5950  140.6450 C   0  0  0  0  0  2  0  0  0  0  0  0
  183.3640  178.7770  143.5800 C   0  0  0  0  0  2  0  0  0  0  0  0
  184.7230  178.4980  142.9140 C   0  0  0  0  0  2  0  0  0  0  0  0
  181.1870  179.3100  143.2690 O   0  0  0  0  0  1  0  0  0  0  0  0
  1  3  1  0  0  0  0
  1  2  1  0  0  0  0
  4 12  1  0  0  0  0
  5  4  2  0  0  0  0
  6  2  2  0  0  0  0
  7 11  2  0  0  0  0
  8  1  1  0  0  0  0
  9  8  1  0  0  0  0
 10  9  2  0  0  0  0
 11 24  1  0  0  0  0
 11  3  1  0  0  0  0
 12  7  1  0  0  0  0
 12  8  2  0  0  0  0
 13  4  1  0  0  0  0
 13 10  1  0  0  0  0
 14 10  1  0  0  0  0
 15 17  1  0  0  0  0
 15 18  2  0  0  0  0
 16 22  1  1  0  0  0
 16 17  1  0  0  0  0
 19 21  1  0  0  0  0
 20  2  1  6  0  0  0
 20 19  1  0  0  0  0
 20 22  1  0  0  0  0
 20 16  1  0  0  0  0
 21 15  1  0  0  0  0
 23 25  1  0  0  0  0
 24 28  1  0  0  0  0
 25 29  1  0  0  0  0
 25 27  1  0  0  0  0
 26 23  1  0  0  0  0
 26 24  1  0  0  0  0
 28 27  1  0  0  0  0
M  END
>  <MODEL>
3

>  <REMARK>
 VINA RESULT:      -8.7      1.613      2.186
  Name = 
  2 active torsions:
  status: ('A' for Active; 'I' for Inactive)
    1  A    between atoms: C_2  and  C_18
    2  A    between atoms: C_5  and  C_23
                            x       y       z     vdW  Elec       q    Type
                         _______ _______ _______ _____ _____    ______ ____

>  <TORSDO>
F 2

$$$$
=
 OpenBabel11062416333D

 29 33  0  0  1  0  0  0  0  0999 V2000
  188.1300  177.7910  143.1460 N   0  0  0  0  0  0  0  0  0  0  0  0
  188.7560  177.0500  144.2160 C   0  0  0  0  0  0  0  0  0  0  0  0
  186.9280  178.5840  143.4370 C   0  0  0  0  0  2  0  0  0  0  0  0
  188.4430  178.3030  139.4630 C   0  0  0  0  0  0  0  0  0  0  0  0
  187.7340  178.6610  138.4440 N   0  0  0  0  0  2  0  0  0  0  0  0
  189.7760  176.3420  143.9910 O   0  0  0  0  0  0  0  0  0  0  0  0
  186.4750  178.6020  141.0040 C   0  0  0  0  0  3  0  0  0  0  0  0
  188.6950  177.8550  141.8180 C   0  0  0  0  0  0  0  0  0  0  0  0
  189.9950  177.5240  141.5860 N   0  0  0  0  0  0  0  0  0  0  0  0
  190.5190  177.5770  140.3340 C   0  0  0  0  0  0  0  0  0  0  0  0
  186.0020  178.6900  142.2490 C   0  0  0  0  0  0  0  0  0  0  0  0
  187.8860  178.2640  140.7490 C   0  0  0  0  0  0  0  0  0  0  0  0
  189.7460  177.9620  139.2860 N   0  0  0  0  0  2  0  0  0  0  0  0
  191.8810  177.2260  140.1210 N   0  0  0  0  0  1  0  0  0  0  0  0
  186.4370  178.8200  147.0830 C   0  0  0  0  0  0  0  0  0  0  0  0
  188.7910  178.2290  146.4960 C   0  0  2  0  0  3  0  0  0  0  0  0
  187.8290  178.6400  147.6140 C   0  0  0  0  0  2  0  0  0  0  0  0
  185.7600  179.7600  147.4680 O   0  0  0  0  0  0  0  0  0  0  0  0
  186.7920  176.6470  145.8950 C   0  0  0  0  0  2  0  0  0  0  0  0
  188.2240  177.1100  145.6180 C   0  0  1  0  0  0  0  0  0  0  0  0
  185.8620  177.8420  146.0980 C   0  0  0  0  0  2  0  0  0  0  0  0
  189.2260  176.7840  146.7030 C   0  0  0  0  0  2  0  0  0  0  0  0
  182.2250  178.4610  141.6380 C   0  0  0  0  0  2  0  0  0  0  0  0
  184.5660  179.0460  142.4480 C   0  0  0  0  0  3  0  0  0  0  0  0
  181.9130  179.3310  142.7690 N   0  0  0  0  0  0  0  0  0  0  0  0
  183.7110  178.5560  141.2740 C   0  0  0  0  0  2  0  0  0  0  0  0
  182.5430  178.7810  143.9730 C   0  0  0  0  0  2  0  0  0  0  0  0
  184.0490  178.5230  143.7890 C   0  0  0  0  0  2  0  0  0  0  0  0
  180.5760  179.2570  142.9610 O   0  0  0  0  0  1  0  0  0  0  0  0
  1  3  1  0  0  0  0
  1  2  1  0  0  0  0
  4 12  1  0  0  0  0
  5  4  2  0  0  0  0
  6  2  2  0  0  0  0
  7 11  2  0  0  0  0
  8  1  1  0  0  0  0
  9  8  1  0  0  0  0
 10  9  2  0  0  0  0
 11 24  1  0  0  0  0
 11  3  1  0  0  0  0
 12  7  1  0  0  0  0
 12  8  2  0  0  0  0
 13  4  1  0  0  0  0
 13 10  1  0  0  0  0
 14 10  1  0  0  0  0
 15 18  2  0  0  0  0
 15 17  1  0  0  0  0
 16 22  1  1  0  0  0
 16 17  1  0  0  0  0
 19 21  1  0  0  0  0
 20  2  1  6  0  0  0
 20 19  1  0  0  0  0
 20 16  1  0  0  0  0
 20 22  1  0  0  0  0
 21 15  1  0  0  0  0
 23 25  1  0  0  0  0
 24 28  1  0  0  0  0
 25 29  1  0  0  0  0
 25 27  1  0  0  0  0
 26 23  1  0  0  0  0
 26 24  1  0  0  0  0
 28 27  1  0  0  0  0
M  END
>  <MODEL>
4

>  <REMARK>
 VINA RESULT:      -8.6      2.083      3.581
  Name = 
  2 active torsions:
  status: ('A' for Active; 'I' for Inactive)
    1  A    between atoms: C_2  and  C_18
    2  A    between atoms: C_5  and  C_23
                            x       y       z     vdW  Elec       q    Type
                         _______ _______ _______ _____ _____    ______ ____

>  <TORSDO>
F 2

$$$$
=
 OpenBabel11062416333D

 29 33  0  0  1  0  0  0  0  0999 V2000
  189.3530  177.4040  142.7150 N   0  0  0  0  0  0  0  0  0  0  0  0
  190.4930  177.6560  141.8650 C   0  0  0  0  0  0  0  0  0  0  0  0
  188.0430  177.1590  142.0980 C   0  0  0  0  0  2  0  0  0  0  0  0
  188.4560  177.3270  146.3370 C   0  0  0  0  0  0  0  0  0  0  0  0
  187.4280  177.4470  147.1110 N   0  0  0  0  0  1  0  0  0  0  0  0
  191.6260  177.8930  142.3670 O   0  0  0  0  0  0  0  0  0  0  0  0
  187.0250  177.6740  144.2950 C   0  0  0  0  0  3  0  0  0  0  0  0
  189.4720  177.2940  144.1510 C   0  0  0  0  0  0  0  0  0  0  0  0
  190.6760  177.0760  144.7470 N   0  0  0  0  0  0  0  0  0  0  0  0
  190.7840  176.9820  146.0970 C   0  0  0  0  0  0  0  0  0  0  0  0
  186.8970  177.6200  142.9670 C   0  0  0  0  0  0  0  0  0  0  0  0
  188.3220  177.4180  144.9440 C   0  0  0  0  0  0  0  0  0  0  0  0
  189.6820  177.1080  146.8800 N   0  0  0  0  0  0  0  0  0  0  0  0
  192.0560  176.7530  146.6920 N   0  0  0  0  0  1  0  0  0  0  0  0
  188.4280  176.6800  138.4710 C   0  0  0  0  0  0  0  0  0  0  0  0
  190.5560  176.2620  139.7090 C   0  0  2  0  0  3  0  0  0  0  0  0
  189.8300  176.1550  138.3660 C   0  0  0  0  0  2  0  0  0  0  0  0
  187.5160  176.0870  137.9180 O   0  0  0  0  0  0  0  0  0  0  0  0
  189.4310  178.6270  139.6800 C   0  0  0  0  0  2  0  0  0  0  0  0
  190.3670  177.6310  140.3700 C   0  0  1  0  0  0  0  0  0  0  0  0
  188.1400  177.9440  139.2320 C   0  0  0  0  0  2  0  0  0  0  0  0
  191.6430  177.3240  139.6180 C   0  0  0  0  0  2  0  0  0  0  0  0
  183.3150  178.9780  142.8580 C   0  0  0  0  0  2  0  0  0  0  0  0
  185.5570  177.8780  142.3640 C   0  0  0  0  0  3  0  0  0  0  0  0
  183.1610  178.6690  141.4390 N   0  0  0  0  0  0  0  0  0  0  0  0
  184.5330  178.2530  143.4420 C   0  0  0  0  0  2  0  0  0  0  0  0
  184.2560  179.3010  140.6990 C   0  0  0  0  0  2  0  0  0  0  0  0
  185.6410  178.9370  141.2630 C   0  0  0  0  0  2  0  0  0  0  0  0
  182.0180  179.2690  141.0310 O   0  0  0  0  0  1  0  0  0  0  0  0
  1  8  1  0  0  0  0
  2  6  2  0  0  0  0
  2  1  1  0  0  0  0
  3  1  1  0  0  0  0
  3 11  1  0  0  0  0
  4 13  2  0  0  0  0
  4  5  1  0  0  0  0
  7 12  1  0  0  0  0
  8  9  1  0  0  0  0
  8 12  2  0  0  0  0
  9 10  2  0  0  0  0
 10 14  1  0  0  0  0
 10 13  1  0  0  0  0
 11  7  2  0  0  0  0
 12  4  1  0  0  0  0
 15 21  1  0  0  0  0
 16 17  1  6  0  0  0
 16 20  1  0  0  0  0
 17 15  1  0  0  0  0
 18 15  2  0  0  0  0
 19 20  1  0  0  0  0
 20  2  1  1  0  0  0
 21 19  1  0  0  0  0
 22 16  1  0  0  0  0
 22 20  1  0  0  0  0
 23 26  1  0  0  0  0
 24 11  1  0  0  0  0
 24 26  1  0  0  0  0
 25 23  1  0  0  0  0
 27 28  1  0  0  0  0
 27 25  1  0  0  0  0
 28 24  1  0  0  0  0
 29 25  1  0  0  0  0
M  END
>  <MODEL>
5

>  <REMARK>
 VINA RESULT:      -8.6      2.855      5.735
  Name = 
  2 active torsions:
  status: ('A' for Active; 'I' for Inactive)
    1  A    between atoms: C_2  and  C_18
    2  A    between atoms: C_5  and  C_23
                            x       y       z     vdW  Elec       q    Type
                         _______ _______ _______ _____ _____    ______ ____

>  <TORSDO>
F 2

$$$$
=
 OpenBabel11062416333D

 29 33  0  0  1  0  0  0  0  0999 V2000
  185.8710  178.6410  140.9290 N   0  0  0  0  0  0  0  0  0  0  0  0
  186.7490  178.4200  139.8040 C   0  0  0  0  0  0  0  0  0  0  0  0
  186.4520  178.7530  142.2740 C   0  0  0  0  0  2  0  0  0  0  0  0
  182.2300  178.8770  141.7070 C   0  0  0  0  0  0  0  0  0  0  0  0
  181.4110  178.7320  142.6970 N   0  0  0  0  0  1  0  0  0  0  0  0
  186.2770  178.2960  138.6400 O   0  0  0  0  0  0  0  0  0  0  0  0
  184.1920  178.3040  143.1770 C   0  0  0  0  0  3  0  0  0  0  0  0
  184.4510  178.8480  140.7710 C   0  0  0  0  0  0  0  0  0  0  0  0
  183.9150  179.1880  139.5670 N   0  0  0  0  0  0  0  0  0  0  0  0
  182.5780  179.3730  139.4210 C   0  0  0  0  0  0  0  0  0  0  0  0
  185.5140  178.2660  143.3530 C   0  0  0  0  0  0  0  0  0  0  0  0
  183.6080  178.6910  141.8810 C   0  0  0  0  0  0  0  0  0  0  0  0
  181.7470  179.2160  140.4830 N   0  0  0  0  0  0  0  0  0  0  0  0
  182.0460  179.7280  138.1500 N   0  0  0  0  0  1  0  0  0  0  0  0
  190.3330  176.5610  139.1480 C   0  0  0  0  0  0  0  0  0  0  0  0
  188.7360  177.2560  140.9380 C   0  0  2  0  0  3  0  0  0  0  0  0
  190.1650  176.8070  140.6190 C   0  0  0  0  0  2  0  0  0  0  0  0
  190.9720  175.5940  138.7660 O   0  0  0  0  0  0  0  0  0  0  0  0
  189.1520  178.7410  138.8210 C   0  0  0  0  0  2  0  0  0  0  0  0
  188.2370  178.3430  139.9820 C   0  0  1  0  0  0  0  0  0  0  0  0
  189.7410  177.5070  138.1410 C   0  0  0  0  0  2  0  0  0  0  0  0
  188.7430  178.7200  141.3560 C   0  0  0  0  0  2  0  0  0  0  0  0
  188.2220  177.6970  146.0050 C   0  0  0  0  0  2  0  0  0  0  0  0
  186.0490  177.8760  144.6900 C   0  0  0  0  0  3  0  0  0  0  0  0
  187.2430  177.4550  147.0610 N   0  0  0  0  0  0  0  0  0  0  0  0
  187.5600  177.6230  144.6250 C   0  0  0  0  0  2  0  0  0  0  0  0
  186.3230  178.5950  147.1190 C   0  0  0  0  0  2  0  0  0  0  0  0
  185.6900  178.9160  145.7540 C   0  0  0  0  0  2  0  0  0  0  0  0
  187.9240  177.4460  148.2310 O   0  0  0  0  0  1  0  0  0  0  0  0
  1  3  1  0  0  0  0
  2  1  1  0  0  0  0
  3 11  1  0  0  0  0
  4 12  1  0  0  0  0
  4  5  1  0  0  0  0
  6  2  2  0  0  0  0
  7 11  2  0  0  0  0
  8  1  1  0  0  0  0
  8 12  2  0  0  0  0
  9  8  1  0  0  0  0
 10  9  2  0  0  0  0
 10 13  1  0  0  0  0
 11 24  1  0  0  0  0
 12  7  1  0  0  0  0
 13  4  2  0  0  0  0
 14 10  1  0  0  0  0
 15 17  1  0  0  0  0
 16 17  1  6  0  0  0
 16 22  1  0  0  0  0
 18 15  2  0  0  0  0
 19 20  1  0  0  0  0
 20  2  1  6  0  0  0
 20 16  1  0  0  0  0
 20 22  1  0  0  0  0
 21 19  1  0  0  0  0
 21 15  1  0  0  0  0
 23 25  1  0  0  0  0
 24 28  1  0  0  0  0
 25 27  1  0  0  0  0
 25 29  1  0  0  0  0
 26 24  1  0  0  0  0
 26 23  1  0  0  0  0
 28 27  1  0  0  0  0
M  END
>  <MODEL>
6

>  <REMARK>
 VINA RESULT:      -8.5      2.682      4.810
  Name = 
  2 active torsions:
  status: ('A' for Active; 'I' for Inactive)
    1  A    between atoms: C_2  and  C_18
    2  A    between atoms: C_5  and  C_23
                            x       y       z     vdW  Elec       q    Type
                         _______ _______ _______ _____ _____    ______ ____

>  <TORSDO>
F 2

$$$$
=
 OpenBabel11062416333D

 29 33  0  0  1  0  0  0  0  0999 V2000
  187.1940  178.0200  141.5550 N   0  0  0  0  0  0  0  0  0  0  0  0
  185.9120  178.6860  141.5340 C   0  0  0  0  0  0  0  0  0  0  0  0
  187.5480  177.1920  142.7170 C   0  0  0  0  0  2  0  0  0  0  0  0
  190.3260  177.7920  139.5400 C   0  0  0  0  0  0  0  0  0  0  0  0
  191.5780  177.5030  139.6760 N   0  0  0  0  0  1  0  0  0  0  0  0
  185.5900  179.4210  140.5610 O   0  0  0  0  0  0  0  0  0  0  0  0
  189.9060  177.3530  141.9840 C   0  0  0  0  0  3  0  0  0  0  0  0
  188.1040  178.0630  140.4350 C   0  0  0  0  0  0  0  0  0  0  0  0
  187.6810  178.4260  139.1930 N   0  0  0  0  0  0  0  0  0  0  0  0
  188.5420  178.4740  138.1440 C   0  0  0  0  0  0  0  0  0  0  0  0
  189.0350  177.1660  142.9770 C   0  0  0  0  0  0  0  0  0  0  0  0
  189.4510  177.7270  140.6330 C   0  0  0  0  0  0  0  0  0  0  0  0
  189.8510  178.1600  138.3220 N   0  0  0  0  0  0  0  0  0  0  0  0
  188.0720  178.8570  136.8580 N   0  0  0  0  0  1  0  0  0  0  0  0
  182.2900  179.4810  143.2600 C   0  0  0  0  0  0  0  0  0  0  0  0
  184.7540  179.7240  143.5770 C   0  0  2  0  0  3  0  0  0  0  0  0
  183.3810  179.7520  144.2540 C   0  0  0  0  0  2  0  0  0  0  0  0
  181.2560  180.1280  143.3050 O   0  0  0  0  0  0  0  0  0  0  0  0
  183.7220  177.5930  142.4570 C   0  0  0  0  0  2  0  0  0  0  0  0
  184.9290  178.5140  142.6540 C   0  0  1  0  0  0  0  0  0  0  0  0
  182.4490  178.4040  142.2230 C   0  0  0  0  0  2  0  0  0  0  0  0
  185.5280  178.4980  144.0430 C   0  0  0  0  0  2  0  0  0  0  0  0
  191.6800  176.7530  145.7200 C   0  0  0  0  0  2  0  0  0  0  0  0
  189.5530  176.7780  144.3220 C   0  0  0  0  0  3  0  0  0  0  0  0
  190.6880  176.3830  146.7260 N   0  0  0  0  0  0  0  0  0  0  0  0
  191.0820  176.6680  144.3110 C   0  0  0  0  0  2  0  0  0  0  0  0
  189.6640  177.4300  146.7820 C   0  0  0  0  0  2  0  0  0  0  0  0
  189.0580  177.7420  145.4030 C   0  0  0  0  0  2  0  0  0  0  0  0
  191.3220  176.3950  147.9220 O   0  0  0  0  0  1  0  0  0  0  0  0
  1  3  1  0  0  0  0
  2  1  1  0  0  0  0
  3 11  1  0  0  0  0
  4  5  1  0  0  0  0
  4 12  1  0  0  0  0
  6  2  2  0  0  0  0
  7 11  2  0  0  0  0
  8 12  2  0  0  0  0
  8  1  1  0  0  0  0
  9  8  1  0  0  0  0
 10 13  1  0  0  0  0
 10  9  2  0  0  0  0
 11 24  1  0  0  0  0
 12  7  1  0  0  0  0
 13  4  2  0  0  0  0
 14 10  1  0  0  0  0
 15 18  2  0  0  0  0
 15 17  1  0  0  0  0
 16 22  1  1  0  0  0
 16 17  1  0  0  0  0
 19 20  1  0  0  0  0
 20  2  1  6  0  0  0
 20 16  1  0  0  0  0
 20 22  1  0  0  0  0
 21 19  1  0  0  0  0
 21 15  1  0  0  0  0
 23 25  1  0  0  0  0
 24 28  1  0  0  0  0
 25 27  1  0  0  0  0
 25 29  1  0  0  0  0
 26 24  1  0  0  0  0
 26 23  1  0  0  0  0
 28 27  1  0  0  0  0
M  END
>  <MODEL>
7

>  <REMARK>
 VINA RESULT:      -8.4      2.354      5.673
  Name = 
  2 active torsions:
  status: ('A' for Active; 'I' for Inactive)
    1  A    between atoms: C_2  and  C_18
    2  A    between atoms: C_5  and  C_23
                            x       y       z     vdW  Elec       q    Type
                         _______ _______ _______ _____ _____    ______ ____

>  <TORSDO>
F 2

$$$$
=
 OpenBabel11062416333D

 29 33  0  0  1  0  0  0  0  0999 V2000
  188.5230  177.3920  144.8410 N   0  0  0  0  0  0  0  0  0  0  0  0
  189.2670  177.6090  146.0590 C   0  0  0  0  0  0  0  0  0  0  0  0
  189.1690  176.6850  143.7270 C   0  0  0  0  0  2  0  0  0  0  0  0
  185.2280  178.2580  143.3170 C   0  0  0  0  0  0  0  0  0  0  0  0
  184.6700  178.3850  142.1580 N   0  0  0  0  0  2  0  0  0  0  0  0
  188.7470  178.2330  147.0240 O   0  0  0  0  0  0  0  0  0  0  0  0
  187.4190  177.6240  142.2500 C   0  0  0  0  0  3  0  0  0  0  0  0
  187.1340  177.7660  144.7090 C   0  0  0  0  0  0  0  0  0  0  0  0
  186.3620  178.0150  145.8020 N   0  0  0  0  0  0  0  0  0  0  0  0
  185.0580  178.3740  145.6740 C   0  0  0  0  0  0  0  0  0  0  0  0
  188.6520  177.1310  142.3800 C   0  0  0  0  0  0  0  0  0  0  0  0
  186.5730  177.8760  143.4290 C   0  0  0  0  0  0  0  0  0  0  0  0
  184.5020  178.4940  144.4410 N   0  0  0  0  0  2  0  0  0  0  0  0
  184.2750  178.6280  146.8340 N   0  0  0  0  0  1  0  0  0  0  0  0
  192.1780  174.8660  145.1980 C   0  0  0  0  0  0  0  0  0  0  0  0
  190.8140  175.8190  147.0600 C   0  0  2  0  0  3  0  0  0  0  0  0
  192.0590  175.0100  146.6870 C   0  0  0  0  0  2  0  0  0  0  0  0
  192.5180  173.7960  144.7190 O   0  0  0  0  0  0  0  0  0  0  0  0
  191.6800  177.3150  145.0910 C   0  0  0  0  0  2  0  0  0  0  0  0
  190.6670  177.0900  146.2170 C   0  0  1  0  0  0  0  0  0  0  0  0
  191.9020  176.0330  144.2920 C   0  0  0  0  0  2  0  0  0  0  0  0
  191.2330  177.1730  147.6170 C   0  0  0  0  0  2  0  0  0  0  0  0
  189.7560  177.6900  138.7520 C   0  0  0  0  0  2  0  0  0  0  0  0
  189.4610  176.8870  141.1490 C   0  0  0  0  0  3  0  0  0  0  0  0
  190.9110  176.8070  138.8880 N   0  0  0  0  0  0  0  0  0  0  0  0
  188.7780  177.4880  139.9150 C   0  0  0  0  0  2  0  0  0  0  0  0
  191.7160  177.2600  140.0260 C   0  0  0  0  0  2  0  0  0  0  0  0
  190.8920  177.4010  141.3180 C   0  0  0  0  0  2  0  0  0  0  0  0
  191.6690  176.9830  137.7810 O   0  0  0  0  0  1  0  0  0  0  0  0
  1  2  1  0  0  0  0
  2  6  2  0  0  0  0
  3  1  1  0  0  0  0
  4 12  1  0  0  0  0
  4 13  1  0  0  0  0
  5  4  2  0  0  0  0
  7 11  2  0  0  0  0
  7 12  1  0  0  0  0
  8  1  1  0  0  0  0
  8  9  1  0  0  0  0
 10  9  2  0  0  0  0
 10 14  1  0  0  0  0
 11  3  1  0  0  0  0
 12  8  2  0  0  0  0
 13 10  1  0  0  0  0
 15 17  1  0  0  0  0
 16 17  1  6  0  0  0
 16 22  1  0  0  0  0
 18 15  2  0  0  0  0
 19 20  1  0  0  0  0
 20  2  1  6  0  0  0
 20 16  1  0  0  0  0
 20 22  1  0  0  0  0
 21 19  1  0  0  0  0
 21 15  1  0  0  0  0
 23 25  1  0  0  0  0
 23 26  1  0  0  0  0
 24 28  1  0  0  0  0
 24 11  1  0  0  0  0
 25 27  1  0  0  0  0
 26 24  1  0  0  0  0
 27 28  1  0  0  0  0
 29 25  1  0  0  0  0
M  END
>  <MODEL>
8

>  <REMARK>
 VINA RESULT:      -8.4      2.324      6.366
  Name = 
  2 active torsions:
  status: ('A' for Active; 'I' for Inactive)
    1  A    between atoms: C_2  and  C_18
    2  A    between atoms: C_5  and  C_23
                            x       y       z     vdW  Elec       q    Type
                         _______ _______ _______ _____ _____    ______ ____

>  <TORSDO>
F 2

$$$$
=
 OpenBabel11062416333D

 29 33  0  0  1  0  0  0  0  0999 V2000
  187.0590  178.2800  140.4550 N   0  0  0  0  0  0  0  0  0  0  0  0
  187.3080  178.0770  139.0460 C   0  0  0  0  0  0  0  0  0  0  0  0
  188.2010  178.3580  141.3760 C   0  0  0  0  0  2  0  0  0  0  0  0
  184.2020  178.5230  142.8430 C   0  0  0  0  0  0  0  0  0  0  0  0
  183.9360  178.3620  144.0970 N   0  0  0  0  0  1  0  0  0  0  0  0
  186.3470  177.9830  138.2350 O   0  0  0  0  0  0  0  0  0  0  0  0
  186.6130  177.9040  143.2200 C   0  0  0  0  0  3  0  0  0  0  0  0
  185.7310  178.5000  140.9790 C   0  0  0  0  0  0  0  0  0  0  0  0
  184.7030  178.8700  140.1690 N   0  0  0  0  0  0  0  0  0  0  0  0
  183.4540  179.0680  140.6650 C   0  0  0  0  0  0  0  0  0  0  0  0
  187.8640  177.8530  142.7590 C   0  0  0  0  0  0  0  0  0  0  0  0
  185.5000  178.3240  142.3510 C   0  0  0  0  0  0  0  0  0  0  0  0
  183.2110  178.8930  141.9900 N   0  0  0  0  0  0  0  0  0  0  0  0
  182.3980  179.4550  139.7950 N   0  0  0  0  0  1  0  0  0  0  0  0
  189.9570  176.8950  136.1620 C   0  0  0  0  0  0  0  0  0  0  0  0
  189.3510  176.5980  138.5660 C   0  0  2  0  0  3  0  0  0  0  0  0
  190.4340  176.4110  137.5010 C   0  0  0  0  0  2  0  0  0  0  0  0
  190.2140  176.2490  135.1590 O   0  0  0  0  0  0  0  0  0  0  0  0
  189.1360  178.9220  137.3770 C   0  0  0  0  0  2  0  0  0  0  0  0
  188.7060  177.9870  138.5100 C   0  0  1  0  0  0  0  0  0  0  0  0
  189.1840  178.1790  136.0430 C   0  0  0  0  0  2  0  0  0  0  0  0
  189.7750  177.6910  139.5390 C   0  0  0  0  0  2  0  0  0  0  0  0
  191.2630  178.1140  144.5110 C   0  0  0  0  0  2  0  0  0  0  0  0
  188.9540  177.4300  143.6870 C   0  0  0  0  0  3  0  0  0  0  0  0
  190.9580  177.0220  145.4310 N   0  0  0  0  0  0  0  0  0  0  0  0
  190.2730  178.1310  143.3420 C   0  0  0  0  0  2  0  0  0  0  0  0
  189.7000  177.3270  146.1210 C   0  0  0  0  0  2  0  0  0  0  0  0
  188.5540  177.6520  145.1470 C   0  0  0  0  0  2  0  0  0  0  0  0
  191.9280  177.0230  146.3750 O   0  0  0  0  0  1  0  0  0  0  0  0
  1  8  1  0  0  0  0
  1  3  1  0  0  0  0
  2  1  1  0  0  0  0
  3 11  1  0  0  0  0
  4  5  1  0  0  0  0
  6  2  2  0  0  0  0
  8 12  2  0  0  0  0
  9 10  2  0  0  0  0
  9  8  1  0  0  0  0
 10 13  1  0  0  0  0
 11  7  2  0  0  0  0
 11 24  1  0  0  0  0
 12  4  1  0  0  0  0
 12  7  1  0  0  0  0
 13  4  2  0  0  0  0
 14 10  1  0  0  0  0
 15 17  1  0  0  0  0
 16 17  1  6  0  0  0
 16 22  1  0  0  0  0
 18 15  2  0  0  0  0
 19 20  1  0  0  0  0
 20 16  1  0  0  0  0
 20  2  1  1  0  0  0
 20 22  1  0  0  0  0
 21 15  1  0  0  0  0
 21 19  1  0  0  0  0
 23 25  1  0  0  0  0
 24 28  1  0  0  0  0
 25 27  1  0  0  0  0
 25 29  1  0  0  0  0
 26 24  1  0  0  0  0
 26 23  1  0  0  0  0
 28 27  1  0  0  0  0
M  END
>  <MODEL>
9

>  <REMARK>
 VINA RESULT:      -8.3      2.610      5.827
  Name = 
  2 active torsions:
  status: ('A' for Active; 'I' for Inactive)
    1  A    between atoms: C_2  and  C_18
    2  A    between atoms: C_5  and  C_23
                            x       y       z     vdW  Elec       q    Type
                         _______ _______ _______ _____ _____    ______ ____

>  <TORSDO>
F 2

$$$$
