=
 OpenBabel11062412513D

 50 55  0  0  1  0  0  0  0  0999 V2000
  181.8880  178.2350  140.7020 C   0  0  1  0  0  3  0  0  0  0  0  0
  182.0180  175.2870  138.3420 C   0  0  0  0  0  3  0  0  0  0  0  0
  182.2800  176.1890  139.2940 C   0  0  0  0  0  3  0  0  0  0  0  0
  181.4830  178.3940  138.1760 C   0  0  0  0  0  2  0  0  0  0  0  0
  181.3520  176.6440  136.3040 C   0  0  1  0  0  3  0  0  0  0  0  0
  181.5060  177.4800  139.4210 C   0  0  2  0  0  3  0  0  0  0  0  0
  180.9530  175.5390  137.3120 C   0  0  1  0  0  3  0  0  0  0  0  0
  182.1360  177.8160  136.9190 C   0  0  0  0  0  2  0  0  0  0  0  0
  182.0760  176.1100  135.0640 C   0  0  0  0  0  2  0  0  0  0  0  0
  183.5310  176.5520  135.0110 C   0  0  0  0  0  2  0  0  0  0  0  0
  184.4340  175.3480  135.1860 C   0  0  0  0  0  2  0  0  0  0  0  0
  185.0670  175.3690  136.5700 C   0  0  2  0  0  3  0  0  0  0  0  0
  187.4310  175.4110  137.1690 C   0  0  0  0  0  2  0  0  0  0  0  0
  185.5380  176.7450  136.9030 C   0  0  0  0  0  3  0  0  0  0  0  0
  186.3410  174.5270  136.5710 C   0  0  1  0  0  3  0  0  0  0  0  0
  186.8210  176.7660  137.2270 C   0  0  0  0  0  3  0  0  0  0  0  0
  184.9020  173.1410  137.9280 O   0  0  0  0  0  1  0  0  0  0  0  0
  186.4100  172.1310  136.5420 O   0  0  0  0  0  1  0  0  0  0  0  0
  186.1790  173.2330  137.3690 C   0  0  0  0  0  3  0  0  0  0  0  0
  180.6120  174.3470  136.6660 O   0  0  0  0  0  0  0  0  0  0  0  0
  180.8470  173.3450  137.6080 C   0  0  1  0  0  3  0  0  0  0  0  0
  179.6180  172.7820  137.9940 O   0  0  0  0  0  0  0  0  0  0  0  0
  180.3860  172.0450  137.0760 C   0  0  0  0  0  2  0  0  0  0  0  0
  179.6930  177.7270  141.1520 C   0  0  0  0  0  1  0  0  0  0  0  0
  180.8810  178.2380  141.6960 O   0  0  0  0  0  0  0  0  0  0  0  0
  183.1410  177.8470  141.2050 O   0  0  0  0  0  0  0  0  0  0  0  0
  185.0340  179.0840  140.8930 O   0  0  0  0  0  1  0  0  0  0  0  0
  183.7880  179.0430  141.5220 C   0  0  2  0  0  3  0  0  0  0  0  0
  183.9670  179.1440  143.0250 C   0  0  0  0  0  2  0  0  0  0  0  0
  185.4490  179.1470  143.3750 C   0  0  0  0  0  2  0  0  0  0  0  0
  186.6770  177.4580  146.5050 C   0  0  1  0  0  3  0  0  0  0  0  0
  185.6780  178.5010  144.7090 C   0  0  0  0  0  0  0  0  0  0  0  0
  188.0440  177.6760  144.3170 C   0  0  2  0  0  3  0  0  0  0  0  0
  189.0480  177.1690  145.1810 O   0  0  0  0  0  0  0  0  0  0  0  0
  187.9560  177.9200  147.2290 C   0  0  0  0  0  2  0  0  0  0  0  0
  184.7750  178.6710  145.8750 C   0  0  0  0  0  3  0  0  0  0  0  0
  185.4950  178.1390  147.0380 N   0  0  0  0  0  0  0  0  0  0  0  0
  186.7420  177.8070  145.0680 C   0  0  0  0  0  0  0  0  0  0  0  0
  189.1620  178.0620  146.2720 C   0  0  0  0  0  2  0  0  0  0  0  0
  187.9850  175.4190  143.4480 O   0  0  0  0  0  1  0  0  0  0  0  0
  187.8680  176.7670  143.0980 C   0  0  2  0  0  3  0  0  0  0  0  0
  190.1710  176.5050  141.7860 C   0  0  1  0  0  3  0  0  0  0  0  0
  191.8230  177.7050  140.4520 O   0  0  0  0  0  1  0  0  0  0  0  0
  188.4360  177.8980  140.9920 C   0  0  0  0  0  3  0  0  0  0  0  0
  188.8070  177.1070  141.9850 C   0  0  0  0  0  0  0  0  0  0  0  0
  190.6040  177.0200  140.3990 C   0  0  2  0  0  3  0  0  0  0  0  0
  189.5100  177.9570  140.0250 C   0  0  0  0  0  0  0  0  0  0  0  0
  189.3530  178.4470  138.8000 C   0  0  0  0  0  2  0  0  0  0  0  0
  191.0400  176.9430  142.7910 O   0  0  0  0  0  0  0  0  0  0  0  0
  191.4700  175.7770  143.4270 C   0  0  0  0  0  1  0  0  0  0  0  0
  1 26  1  1  0  0  0
  1 25  1  0  0  0  0
  2  3  2  0  0  0  0
  3  6  1  0  0  0  0
  4  6  1  0  0  0  0
  5  9  1  6  0  0  0
  5  8  1  0  0  0  0
  5  7  1  0  0  0  0
  6  1  1  1  0  0  0
  7 20  1  6  0  0  0
  7  2  1  0  0  0  0
  8  4  1  0  0  0  0
 10  9  1  0  0  0  0
 10 11  1  0  0  0  0
 12 11  1  6  0  0  0
 12 15  1  0  0  0  0
 12 14  1  0  0  0  0
 13 16  1  0  0  0  0
 14 16  2  0  0  0  0
 15 13  1  0  0  0  0
 15 19  1  1  0  0  0
 18 19  1  0  0  0  0
 19 17  1  0  0  0  0
 21 20  1  6  0  0  0
 21 22  1  0  0  0  0
 23 21  1  0  0  0  0
 23 22  1  0  0  0  0
 24 25  1  0  0  0  0
 26 28  1  0  0  0  0
 28 27  1  6  0  0  0
 28 29  1  0  0  0  0
 29 30  1  0  0  0  0
 30 32  1  0  0  0  0
 31 37  1  0  0  0  0
 31 35  1  1  0  0  0
 32 38  2  0  0  0  0
 32 36  1  0  0  0  0
 33 41  1  6  0  0  0
 33 38  1  0  0  0  0
 33 34  1  0  0  0  0
 34 39  1  0  0  0  0
 36 37  2  0  0  0  0
 38 31  1  0  0  0  0
 39 35  1  0  0  0  0
 41 40  1  1  0  0  0
 42 45  1  0  0  0  0
 42 49  1  1  0  0  0
 44 45  2  0  0  0  0
 45 41  1  0  0  0  0
 46 43  1  1  0  0  0
 46 42  1  0  0  0  0
 47 46  1  0  0  0  0
 47 44  1  0  0  0  0
 48 47  2  0  0  0  0
 49 50  1  0  0  0  0
M  END
>  <MODEL>
1

>  <REMARK>
 VINA RESULT:      -7.3      0.000      0.000
  Name = 
  17 active torsions:
  status: ('A' for Active; 'I' for Inactive)
    1  A    between atoms: C_2  and  C_12
    2  A    between atoms: C_2  and  C_42
    3  A    between atoms: C_3  and  C_12
    4  A    between atoms: C_4  and  C_35
    5  A    between atoms: C_7  and  C_32
    6  A    between atoms: C_7  and  O_39
    7  A    between atoms: C_7  and  O_45
    8  A    between atoms: C_8  and  O_49
    9  A    between atoms: C_9  and  O_31
   10  A    between atoms: C_11  and  C_21
   11  A    between atoms: C_11  and  C_48
   12  A    between atoms: C_16  and  C_30
   13  A    between atoms: C_16  and  C_48
   14  A    between atoms: C_33  and  C_35
   15  A    between atoms: O_39  and  C_42
   16  A    between atoms: C_40  and  O_49
   17  A    between atoms: C_43  and  C_44
                            x       y       z     vdW  Elec       q    Type
                         _______ _______ _______ _____ _____    ______ ____

>  <TORSDO>
F 17

$$$$
=
 OpenBabel11062412513D

 50 55  0  0  1  0  0  0  0  0999 V2000
  186.1290  177.6480  144.8170 C   0  0  1  0  0  3  0  0  0  0  0  0
  189.8640  177.9290  145.3130 C   0  0  0  0  0  3  0  0  0  0  0  0
  188.5580  178.1860  145.1800 C   0  0  0  0  0  3  0  0  0  0  0  0
  187.8700  176.5090  143.3200 C   0  0  0  0  0  2  0  0  0  0  0  0
  190.4300  176.3490  143.4100 C   0  0  1  0  0  3  0  0  0  0  0  0
  187.5750  177.1470  144.6960 C   0  0  2  0  0  3  0  0  0  0  0  0
  190.4300  176.5890  144.9390 C   0  0  1  0  0  3  0  0  0  0  0  0
  189.1990  176.9090  142.6770 C   0  0  0  0  0  2  0  0  0  0  0  0
  191.7170  176.8080  142.7180 C   0  0  0  0  0  2  0  0  0  0  0  0
  191.4390  177.6580  141.4870 C   0  0  0  0  0  2  0  0  0  0  0  0
  192.2650  177.1500  140.3220 C   0  0  0  0  0  2  0  0  0  0  0  0
  191.4700  177.2730  139.0300 C   0  0  2  0  0  3  0  0  0  0  0  0
  189.8730  175.7030  138.0630 C   0  0  0  0  0  2  0  0  0  0  0  0
  190.0580  177.6550  139.3240 C   0  0  0  0  0  3  0  0  0  0  0  0
  191.3550  175.9050  138.3600 C   0  0  1  0  0  3  0  0  0  0  0  0
  189.1930  176.8020  138.8000 C   0  0  0  0  0  3  0  0  0  0  0  0
  191.4490  176.2040  135.9650 O   0  0  0  0  0  1  0  0  0  0  0  0
  193.3260  176.6190  137.1970 O   0  0  0  0  0  1  0  0  0  0  0  0
  192.1910  175.8130  137.0820 C   0  0  0  0  0  3  0  0  0  0  0  0
  191.7060  176.4300  145.4880 O   0  0  0  0  0  0  0  0  0  0  0  0
  191.5390  176.6380  146.8580 C   0  0  1  0  0  3  0  0  0  0  0  0
  191.1910  175.4190  147.4660 O   0  0  0  0  0  0  0  0  0  0  0  0
  192.5260  175.8320  147.6060 C   0  0  0  0  0  2  0  0  0  0  0  0
  185.4210  178.9280  146.5880 C   0  0  0  0  0  1  0  0  0  0  0  0
  185.6110  177.6140  146.1320 O   0  0  0  0  0  0  0  0  0  0  0  0
  185.9360  178.8920  144.1930 O   0  0  0  0  0  0  0  0  0  0  0  0
  185.9830  179.7020  142.0580 O   0  0  0  0  0  1  0  0  0  0  0  0
  185.6970  178.5880  142.8510 C   0  0  2  0  0  3  0  0  0  0  0  0
  184.2450  178.1870  142.6690 C   0  0  0  0  0  2  0  0  0  0  0  0
  183.9320  178.0230  141.1870 C   0  0  0  0  0  2  0  0  0  0  0  0
  180.3210  177.7030  140.1790 C   0  0  1  0  0  3  0  0  0  0  0  0
  182.4540  178.1160  140.9460 C   0  0  0  0  0  0  0  0  0  0  0  0
  182.2700  176.3730  139.1140 C   0  0  2  0  0  3  0  0  0  0  0  0
  181.1680  175.7090  138.5160 O   0  0  0  0  0  0  0  0  0  0  0  0
  179.5750  176.3560  140.2460 C   0  0  0  0  0  2  0  0  0  0  0  0
  181.5180  178.8520  141.8320 C   0  0  0  0  0  3  0  0  0  0  0  0
  180.1640  178.4540  141.4260 N   0  0  0  0  0  0  0  0  0  0  0  0
  181.7750  177.4800  140.0100 C   0  0  0  0  0  0  0  0  0  0  0  0
  180.3540  175.2110  139.5600 C   0  0  0  0  0  2  0  0  0  0  0  0
  182.4980  177.4330  136.9510 O   0  0  0  0  0  1  0  0  0  0  0  0
  183.2110  176.9330  138.0430 C   0  0  2  0  0  3  0  0  0  0  0  0
  185.6600  176.2590  137.2420 C   0  0  1  0  0  3  0  0  0  0  0  0
  186.9120  174.7250  135.8180 O   0  0  0  0  0  1  0  0  0  0  0  0
  183.9760  174.6400  137.6010 C   0  0  0  0  0  3  0  0  0  0  0  0
  184.2330  175.9380  137.5960 C   0  0  0  0  0  0  0  0  0  0  0  0
  186.3200  174.8760  137.0770 C   0  0  2  0  0  3  0  0  0  0  0  0
  185.1780  173.9320  137.2190 C   0  0  0  0  0  0  0  0  0  0  0  0
  185.3270  172.6220  137.3840 C   0  0  0  0  0  2  0  0  0  0  0  0
  185.7060  176.9950  136.0540 O   0  0  0  0  0  0  0  0  0  0  0  0
  186.5660  178.0600  136.3240 C   0  0  0  0  0  1  0  0  0  0  0  0
  1 26  1  1  0  0  0
  1 25  1  0  0  0  0
  3  2  2  0  0  0  0
  4  6  1  0  0  0  0
  5  9  1  6  0  0  0
  5  7  1  0  0  0  0
  6  1  1  6  0  0  0
  6  3  1  0  0  0  0
  7  2  1  0  0  0  0
  7 20  1  6  0  0  0
  8  4  1  0  0  0  0
  8  5  1  0  0  0  0
 10  9  1  0  0  0  0
 11 10  1  0  0  0  0
 12 14  1  0  0  0  0
 12 11  1  1  0  0  0
 13 15  1  0  0  0  0
 13 16  1  0  0  0  0
 15 19  1  6  0  0  0
 15 12  1  0  0  0  0
 16 14  2  0  0  0  0
 17 19  1  0  0  0  0
 19 18  1  0  0  0  0
 21 20  1  6  0  0  0
 21 22  1  0  0  0  0
 21 23  1  0  0  0  0
 22 23  1  0  0  0  0
 25 24  1  0  0  0  0
 28 27  1  6  0  0  0
 28 26  1  0  0  0  0
 29 28  1  0  0  0  0
 30 29  1  0  0  0  0
 31 35  1  1  0  0  0
 31 37  1  0  0  0  0
 32 30  1  0  0  0  0
 32 36  1  0  0  0  0
 33 41  1  6  0  0  0
 33 38  1  0  0  0  0
 34 33  1  0  0  0  0
 34 39  1  0  0  0  0
 37 36  2  0  0  0  0
 38 31  1  0  0  0  0
 38 32  2  0  0  0  0
 39 35  1  0  0  0  0
 41 40  1  6  0  0  0
 42 49  1  6  0  0  0
 42 45  1  0  0  0  0
 45 44  2  0  0  0  0
 45 41  1  0  0  0  0
 46 43  1  6  0  0  0
 46 47  1  0  0  0  0
 46 42  1  0  0  0  0
 47 48  2  0  0  0  0
 47 44  1  0  0  0  0
 49 50  1  0  0  0  0
M  END
>  <MODEL>
2

>  <REMARK>
 VINA RESULT:      -7.1      2.430      8.582
  Name = 
  17 active torsions:
  status: ('A' for Active; 'I' for Inactive)
    1  A    between atoms: C_2  and  C_12
    2  A    between atoms: C_2  and  C_42
    3  A    between atoms: C_3  and  C_12
    4  A    between atoms: C_4  and  C_35
    5  A    between atoms: C_7  and  C_32
    6  A    between atoms: C_7  and  O_39
    7  A    between atoms: C_7  and  O_45
    8  A    between atoms: C_8  and  O_49
    9  A    between atoms: C_9  and  O_31
   10  A    between atoms: C_11  and  C_21
   11  A    between atoms: C_11  and  C_48
   12  A    between atoms: C_16  and  C_30
   13  A    between atoms: C_16  and  C_48
   14  A    between atoms: C_33  and  C_35
   15  A    between atoms: O_39  and  C_42
   16  A    between atoms: C_40  and  O_49
   17  A    between atoms: C_43  and  C_44
                            x       y       z     vdW  Elec       q    Type
                         _______ _______ _______ _____ _____    ______ ____

>  <TORSDO>
F 17

$$$$
=
 OpenBabel11062412513D

 50 55  0  0  1  0  0  0  0  0999 V2000
  186.0490  177.8030  145.4640 C   0  0  1  0  0  3  0  0  0  0  0  0
  189.8220  177.9870  145.5470 C   0  0  0  0  0  3  0  0  0  0  0  0
  188.5170  178.2800  145.5190 C   0  0  0  0  0  3  0  0  0  0  0  0
  187.5910  176.4410  143.9360 C   0  0  0  0  0  2  0  0  0  0  0  0
  190.1400  176.1900  143.7840 C   0  0  1  0  0  3  0  0  0  0  0  0
  187.4600  177.2350  145.2550 C   0  0  2  0  0  3  0  0  0  0  0  0
  190.3070  176.5920  145.2690 C   0  0  1  0  0  3  0  0  0  0  0  0
  188.8560  176.7170  143.1210 C   0  0  0  0  0  2  0  0  0  0  0  0
  191.3610  176.5200  142.9200 C   0  0  0  0  0  2  0  0  0  0  0  0
  191.0740  177.6260  141.9150 C   0  0  0  0  0  2  0  0  0  0  0  0
  191.5650  177.2060  140.5440 C   0  0  0  0  0  2  0  0  0  0  0  0
  190.3860  176.7840  139.6780 C   0  0  2  0  0  3  0  0  0  0  0  0
  189.5380  177.8230  137.6400 C   0  0  0  0  0  2  0  0  0  0  0  0
  190.8690  176.0880  138.4500 C   0  0  0  0  0  3  0  0  0  0  0  0
  189.6630  178.0210  139.1480 C   0  0  1  0  0  3  0  0  0  0  0  0
  190.4090  176.6530  137.3450 C   0  0  0  0  0  3  0  0  0  0  0  0
  188.3530  179.1360  140.8420 O   0  0  0  0  0  1  0  0  0  0  0  0
  187.3710  178.6490  138.8390 O   0  0  0  0  0  1  0  0  0  0  0  0
  188.2920  178.2130  139.7950 C   0  0  0  0  0  3  0  0  0  0  0  0
  191.6280  176.4430  145.7020 O   0  0  0  0  0  0  0  0  0  0  0  0
  191.5550  176.4370  147.0950 C   0  0  1  0  0  3  0  0  0  0  0  0
  191.6310  175.1090  147.5520 O   0  0  0  0  0  0  0  0  0  0  0  0
  192.8020  175.8770  147.6560 C   0  0  0  0  0  2  0  0  0  0  0  0
  185.9830  178.7410  147.5600 C   0  0  0  0  0  1  0  0  0  0  0  0
  186.0140  179.0200  146.1850 O   0  0  0  0  0  0  0  0  0  0  0  0
  185.3090  177.8620  144.2710 O   0  0  0  0  0  0  0  0  0  0  0  0
  183.4540  178.9860  144.9850 O   0  0  0  0  0  1  0  0  0  0  0  0
  184.6680  179.1030  144.3060 C   0  0  2  0  0  3  0  0  0  0  0  0
  184.4210  179.5890  142.8900 C   0  0  0  0  0  2  0  0  0  0  0  0
  184.1170  178.4080  141.9780 C   0  0  0  0  0  2  0  0  0  0  0  0
  180.6850  177.9350  140.5100 C   0  0  1  0  0  3  0  0  0  0  0  0
  182.6700  178.4030  141.5830 C   0  0  0  0  0  0  0  0  0  0  0  0
  182.8690  177.0030  139.4780 C   0  0  2  0  0  3  0  0  0  0  0  0
  181.9150  176.3550  138.6520 O   0  0  0  0  0  0  0  0  0  0  0  0
  180.0930  176.5340  140.2640 C   0  0  0  0  0  2  0  0  0  0  0  0
  181.5730  178.8800  142.4610 C   0  0  0  0  0  3  0  0  0  0  0  0
  180.3200  178.4360  141.8370 N   0  0  0  0  0  0  0  0  0  0  0  0
  182.1650  177.8830  140.4800 C   0  0  0  0  0  0  0  0  0  0  0  0
  181.0610  175.6060  139.4950 C   0  0  0  0  0  2  0  0  0  0  0  0
  183.2300  178.9790  138.1290 O   0  0  0  0  0  1  0  0  0  0  0  0
  183.8430  177.8290  138.6340 C   0  0  2  0  0  3  0  0  0  0  0  0
  184.0840  177.1180  136.0790 C   0  0  1  0  0  3  0  0  0  0  0  0
  184.6130  175.2550  134.5960 O   0  0  0  0  0  1  0  0  0  0  0  0
  185.5240  176.2700  137.7500 C   0  0  0  0  0  3  0  0  0  0  0  0
  184.4680  177.0350  137.5310 C   0  0  0  0  0  0  0  0  0  0  0  0
  185.1670  176.2860  135.3630 C   0  0  2  0  0  3  0  0  0  0  0  0
  185.9590  175.7150  136.4860 C   0  0  0  0  0  0  0  0  0  0  0  0
  187.1380  175.1250  136.3250 C   0  0  0  0  0  2  0  0  0  0  0  0
  182.8090  176.5760  135.8870 O   0  0  0  0  0  0  0  0  0  0  0  0
  182.0780  177.5890  135.2650 C   0  0  0  0  0  1  0  0  0  0  0  0
  1 26  1  6  0  0  0
  1 25  1  0  0  0  0
  3  2  2  0  0  0  0
  4  6  1  0  0  0  0
  5  9  1  6  0  0  0
  5  7  1  0  0  0  0
  6  1  1  6  0  0  0
  6  3  1  0  0  0  0
  7  2  1  0  0  0  0
  7 20  1  6  0  0  0
  8  5  1  0  0  0  0
  8  4  1  0  0  0  0
 10  9  1  0  0  0  0
 11 10  1  0  0  0  0
 12 11  1  1  0  0  0
 13 15  1  0  0  0  0
 14 12  1  0  0  0  0
 15 12  1  0  0  0  0
 15 19  1  1  0  0  0
 16 13  1  0  0  0  0
 16 14  2  0  0  0  0
 18 19  1  0  0  0  0
 19 17  1  0  0  0  0
 21 20  1  6  0  0  0
 21 22  1  0  0  0  0
 21 23  1  0  0  0  0
 22 23  1  0  0  0  0
 25 24  1  0  0  0  0
 26 28  1  0  0  0  0
 28 27  1  6  0  0  0
 29 28  1  0  0  0  0
 30 29  1  0  0  0  0
 31 35  1  1  0  0  0
 31 37  1  0  0  0  0
 32 30  1  0  0  0  0
 32 36  1  0  0  0  0
 33 41  1  6  0  0  0
 33 38  1  0  0  0  0
 34 33  1  0  0  0  0
 34 39  1  0  0  0  0
 37 36  2  0  0  0  0
 38 31  1  0  0  0  0
 38 32  2  0  0  0  0
 39 35  1  0  0  0  0
 41 40  1  6  0  0  0
 42 49  1  1  0  0  0
 42 45  1  0  0  0  0
 45 44  2  0  0  0  0
 45 41  1  0  0  0  0
 46 43  1  1  0  0  0
 46 42  1  0  0  0  0
 46 47  1  0  0  0  0
 47 44  1  0  0  0  0
 48 47  2  0  0  0  0
 50 49  1  0  0  0  0
M  END
>  <MODEL>
3

>  <REMARK>
 VINA RESULT:      -7.0      2.380      8.677
  Name = 
  17 active torsions:
  status: ('A' for Active; 'I' for Inactive)
    1  A    between atoms: C_2  and  C_12
    2  A    between atoms: C_2  and  C_42
    3  A    between atoms: C_3  and  C_12
    4  A    between atoms: C_4  and  C_35
    5  A    between atoms: C_7  and  C_32
    6  A    between atoms: C_7  and  O_39
    7  A    between atoms: C_7  and  O_45
    8  A    between atoms: C_8  and  O_49
    9  A    between atoms: C_9  and  O_31
   10  A    between atoms: C_11  and  C_21
   11  A    between atoms: C_11  and  C_48
   12  A    between atoms: C_16  and  C_30
   13  A    between atoms: C_16  and  C_48
   14  A    between atoms: C_33  and  C_35
   15  A    between atoms: O_39  and  C_42
   16  A    between atoms: C_40  and  O_49
   17  A    between atoms: C_43  and  C_44
                            x       y       z     vdW  Elec       q    Type
                         _______ _______ _______ _____ _____    ______ ____

>  <TORSDO>
F 17

$$$$
=
 OpenBabel11062412513D

 50 55  0  0  1  0  0  0  0  0999 V2000
  186.1210  177.6310  145.0600 C   0  0  1  0  0  3  0  0  0  0  0  0
  189.8790  177.8580  145.3880 C   0  0  0  0  0  3  0  0  0  0  0  0
  188.5710  178.1320  145.3210 C   0  0  0  0  0  3  0  0  0  0  0  0
  187.7770  176.5030  143.4610 C   0  0  0  0  0  2  0  0  0  0  0  0
  190.3360  176.3110  143.4290 C   0  0  1  0  0  3  0  0  0  0  0  0
  187.5540  177.1150  144.8620 C   0  0  2  0  0  3  0  0  0  0  0  0
  190.4090  176.5180  144.9600 C   0  0  1  0  0  3  0  0  0  0  0  0
  189.0790  176.9010  142.7650 C   0  0  0  0  0  2  0  0  0  0  0  0
  191.5960  176.7700  142.6870 C   0  0  0  0  0  2  0  0  0  0  0  0
  191.2760  177.7080  141.5340 C   0  0  0  0  0  2  0  0  0  0  0  0
  191.9380  177.2010  140.2680 C   0  0  0  0  0  2  0  0  0  0  0  0
  190.9120  176.4960  139.3930 C   0  0  2  0  0  3  0  0  0  0  0  0
  190.0590  177.1550  137.2050 C   0  0  0  0  0  2  0  0  0  0  0  0
  191.5900  175.7670  138.2830 C   0  0  0  0  0  3  0  0  0  0  0  0
  190.0380  177.5290  138.6830 C   0  0  1  0  0  3  0  0  0  0  0  0
  191.1280  176.1260  137.0960 C   0  0  0  0  0  3  0  0  0  0  0  0
  188.3070  178.7920  139.7960 O   0  0  0  0  0  1  0  0  0  0  0  0
  187.7050  177.2750  138.1990 O   0  0  0  0  0  1  0  0  0  0  0  0
  188.6090  177.5520  139.2270 C   0  0  0  0  0  3  0  0  0  0  0  0
  191.7070  176.3340  145.4470 O   0  0  0  0  0  0  0  0  0  0  0  0
  191.6050  176.5080  146.8270 C   0  0  1  0  0  3  0  0  0  0  0  0
  191.3610  175.2600  147.4290 O   0  0  0  0  0  0  0  0  0  0  0  0
  192.6760  175.7480  147.5050 C   0  0  0  0  0  2  0  0  0  0  0  0
  184.6130  178.5750  146.5130 C   0  0  0  0  0  1  0  0  0  0  0  0
  185.7150  177.7120  146.4120 O   0  0  0  0  0  0  0  0  0  0  0  0
  185.8730  178.8180  144.3500 O   0  0  0  0  0  0  0  0  0  0  0  0
  186.0390  179.2110  142.1070 O   0  0  0  0  0  1  0  0  0  0  0  0
  185.4580  178.4000  143.0840 C   0  0  2  0  0  3  0  0  0  0  0  0
  183.9460  178.4840  142.9890 C   0  0  0  0  0  2  0  0  0  0  0  0
  183.5160  178.5200  141.5280 C   0  0  0  0  0  2  0  0  0  0  0  0
  179.9470  177.5930  140.7800 C   0  0  1  0  0  3  0  0  0  0  0  0
  182.0310  178.3500  141.4090 C   0  0  0  0  0  0  0  0  0  0  0  0
  182.0010  176.7110  139.4740 C   0  0  2  0  0  3  0  0  0  0  0  0
  180.9880  175.8890  138.9170 O   0  0  0  0  0  0  0  0  0  0  0  0
  179.4650  176.1290  140.8070 C   0  0  0  0  0  2  0  0  0  0  0  0
  181.0600  178.8470  142.4160 C   0  0  0  0  0  3  0  0  0  0  0  0
  179.7690  178.2290  142.0870 N   0  0  0  0  0  0  0  0  0  0  0  0
  181.3970  177.6540  140.4840 C   0  0  0  0  0  0  0  0  0  0  0  0
  180.3740  175.1900  139.9810 C   0  0  0  0  0  2  0  0  0  0  0  0
  184.0210  177.8430  138.7720 O   0  0  0  0  0  1  0  0  0  0  0  0
  182.7260  177.4970  138.3780 C   0  0  2  0  0  3  0  0  0  0  0  0
  180.6570  178.6870  137.1970 C   0  0  1  0  0  3  0  0  0  0  0  0
  179.9880  180.6410  135.8990 O   0  0  0  0  0  1  0  0  0  0  0  0
  182.3460  179.9230  138.2930 C   0  0  0  0  0  3  0  0  0  0  0  0
  181.9660  178.7070  137.9380 C   0  0  0  0  0  0  0  0  0  0  0  0
  180.2110  180.1630  137.1960 C   0  0  2  0  0  3  0  0  0  0  0  0
  181.3670  180.8710  137.8080 C   0  0  0  0  0  0  0  0  0  0  0  0
  181.3170  182.1330  138.2210 C   0  0  0  0  0  2  0  0  0  0  0  0
  180.8470  178.2070  135.8970 O   0  0  0  0  0  0  0  0  0  0  0  0
  179.9790  177.1190  135.7860 C   0  0  0  0  0  1  0  0  0  0  0  0
  1 26  1  1  0  0  0
  1 25  1  0  0  0  0
  3  2  2  0  0  0  0
  4  6  1  0  0  0  0
  5  9  1  6  0  0  0
  5  7  1  0  0  0  0
  6  1  1  6  0  0  0
  6  3  1  0  0  0  0
  7  2  1  0  0  0  0
  7 20  1  6  0  0  0
  8  5  1  0  0  0  0
  8  4  1  0  0  0  0
 10  9  1  0  0  0  0
 11 10  1  0  0  0  0
 12 11  1  1  0  0  0
 13 15  1  0  0  0  0
 14 12  1  0  0  0  0
 15 19  1  1  0  0  0
 15 12  1  0  0  0  0
 16 13  1  0  0  0  0
 16 14  2  0  0  0  0
 18 19  1  0  0  0  0
 19 17  1  0  0  0  0
 21 20  1  6  0  0  0
 21 22  1  0  0  0  0
 21 23  1  0  0  0  0
 22 23  1  0  0  0  0
 25 24  1  0  0  0  0
 28 27  1  6  0  0  0
 28 26  1  0  0  0  0
 29 28  1  0  0  0  0
 30 29  1  0  0  0  0
 31 35  1  1  0  0  0
 31 37  1  0  0  0  0
 32 30  1  0  0  0  0
 32 36  1  0  0  0  0
 33 41  1  6  0  0  0
 33 38  1  0  0  0  0
 34 33  1  0  0  0  0
 34 39  1  0  0  0  0
 37 36  2  0  0  0  0
 38 31  1  0  0  0  0
 38 32  2  0  0  0  0
 39 35  1  0  0  0  0
 41 40  1  1  0  0  0
 42 49  1  6  0  0  0
 42 45  1  0  0  0  0
 45 44  2  0  0  0  0
 45 41  1  0  0  0  0
 46 43  1  6  0  0  0
 46 42  1  0  0  0  0
 46 47  1  0  0  0  0
 47 48  2  0  0  0  0
 47 44  1  0  0  0  0
 50 49  1  0  0  0  0
M  END
>  <MODEL>
4

>  <REMARK>
 VINA RESULT:      -6.9      2.813      9.102
  Name = 
  17 active torsions:
  status: ('A' for Active; 'I' for Inactive)
    1  A    between atoms: C_2  and  C_12
    2  A    between atoms: C_2  and  C_42
    3  A    between atoms: C_3  and  C_12
    4  A    between atoms: C_4  and  C_35
    5  A    between atoms: C_7  and  C_32
    6  A    between atoms: C_7  and  O_39
    7  A    between atoms: C_7  and  O_45
    8  A    between atoms: C_8  and  O_49
    9  A    between atoms: C_9  and  O_31
   10  A    between atoms: C_11  and  C_21
   11  A    between atoms: C_11  and  C_48
   12  A    between atoms: C_16  and  C_30
   13  A    between atoms: C_16  and  C_48
   14  A    between atoms: C_33  and  C_35
   15  A    between atoms: O_39  and  C_42
   16  A    between atoms: C_40  and  O_49
   17  A    between atoms: C_43  and  C_44
                            x       y       z     vdW  Elec       q    Type
                         _______ _______ _______ _____ _____    ______ ____

>  <TORSDO>
F 17

$$$$
=
 OpenBabel11062412513D

 50 55  0  0  1  0  0  0  0  0999 V2000
  186.0950  178.0150  145.1120 C   0  0  1  0  0  3  0  0  0  0  0  0
  189.8720  178.0140  145.0010 C   0  0  0  0  0  3  0  0  0  0  0  0
  188.5830  178.3700  145.0250 C   0  0  0  0  0  3  0  0  0  0  0  0
  187.4900  176.5190  143.5670 C   0  0  0  0  0  2  0  0  0  0  0  0
  190.0130  176.1360  143.3000 C   0  0  1  0  0  3  0  0  0  0  0  0
  187.4640  177.3690  144.8570 C   0  0  2  0  0  3  0  0  0  0  0  0
  190.2750  176.5870  144.7570 C   0  0  1  0  0  3  0  0  0  0  0  0
  188.7230  176.6990  142.6800 C   0  0  0  0  0  2  0  0  0  0  0  0
  191.2020  176.3710  142.3630 C   0  0  0  0  0  2  0  0  0  0  0  0
  190.8440  177.2740  141.1930 C   0  0  0  0  0  2  0  0  0  0  0  0
  190.4930  176.4270  139.9870 C   0  0  0  0  0  2  0  0  0  0  0  0
  191.1470  177.0040  138.7390 C   0  0  2  0  0  3  0  0  0  0  0  0
  191.4360  175.9710  136.5480 C   0  0  0  0  0  2  0  0  0  0  0  0
  190.1060  177.4480  137.7670 C   0  0  0  0  0  3  0  0  0  0  0  0
  191.9080  175.9060  137.9980 C   0  0  1  0  0  3  0  0  0  0  0  0
  190.2640  176.8860  136.5790 C   0  0  0  0  0  3  0  0  0  0  0  0
  193.9460  176.6010  136.9050 O   0  0  0  0  0  1  0  0  0  0  0  0
  193.7360  176.9390  139.1530 O   0  0  0  0  0  1  0  0  0  0  0  0
  193.4230  176.0840  138.0930 C   0  0  0  0  0  3  0  0  0  0  0  0
  191.6080  176.3900  145.1290 O   0  0  0  0  0  0  0  0  0  0  0  0
  191.6720  176.7780  146.4680 C   0  0  1  0  0  3  0  0  0  0  0  0
  190.9610  175.8490  147.2480 O   0  0  0  0  0  0  0  0  0  0  0  0
  192.3610  175.7340  147.2560 C   0  0  0  0  0  2  0  0  0  0  0  0
  184.5170  178.2740  146.7610 C   0  0  0  0  0  1  0  0  0  0  0  0
  185.8800  178.4080  146.4540 O   0  0  0  0  0  0  0  0  0  0  0  0
  185.8030  179.0400  144.1960 O   0  0  0  0  0  0  0  0  0  0  0  0
  185.7020  178.8590  141.9220 O   0  0  0  0  0  1  0  0  0  0  0  0
  185.1710  178.3990  143.1290 C   0  0  2  0  0  3  0  0  0  0  0  0
  183.6800  178.6800  143.1750 C   0  0  0  0  0  2  0  0  0  0  0  0
  183.1170  178.7380  141.7610 C   0  0  0  0  0  2  0  0  0  0  0  0
  179.5400  177.7000  141.2280 C   0  0  1  0  0  3  0  0  0  0  0  0
  181.6390  178.4800  141.7700 C   0  0  0  0  0  0  0  0  0  0  0  0
  181.4680  177.2520  139.5580 C   0  0  2  0  0  3  0  0  0  0  0  0
  180.4420  176.4780  138.9570 O   0  0  0  0  0  0  0  0  0  0  0  0
  179.1460  176.2260  141.0080 C   0  0  0  0  0  2  0  0  0  0  0  0
  180.7710  178.6940  142.9540 C   0  0  0  0  0  3  0  0  0  0  0  0
  179.4860  178.0530  142.6480 N   0  0  0  0  0  0  0  0  0  0  0  0
  180.9380  177.9300  140.7970 C   0  0  0  0  0  0  0  0  0  0  0  0
  179.9990  175.5390  139.9180 C   0  0  0  0  0  2  0  0  0  0  0  0
  181.0450  178.6510  137.6300 O   0  0  0  0  0  1  0  0  0  0  0  0
  182.0110  178.2900  138.5720 C   0  0  2  0  0  3  0  0  0  0  0  0
  183.3290  177.0910  136.5930 C   0  0  1  0  0  3  0  0  0  0  0  0
  185.3170  175.7820  136.0610 O   0  0  0  0  0  1  0  0  0  0  0  0
  184.4560  178.1940  138.3510 C   0  0  0  0  0  3  0  0  0  0  0  0
  183.2670  177.8400  137.8960 C   0  0  0  0  0  0  0  0  0  0  0  0
  184.8300  177.0820  136.2430 C   0  0  2  0  0  3  0  0  0  0  0  0
  185.4650  177.7000  137.4390 C   0  0  0  0  0  0  0  0  0  0  0  0
  186.7280  178.1090  137.4690 C   0  0  0  0  0  2  0  0  0  0  0  0
  182.8330  175.7940  136.7600 O   0  0  0  0  0  0  0  0  0  0  0  0
  181.8070  175.6780  135.8200 C   0  0  0  0  0  1  0  0  0  0  0  0
  1 26  1  6  0  0  0
  1 25  1  0  0  0  0
  2  3  2  0  0  0  0
  4  6  1  0  0  0  0
  5  9  1  6  0  0  0
  5  7  1  0  0  0  0
  6  3  1  0  0  0  0
  6  1  1  6  0  0  0
  7  2  1  0  0  0  0
  7 20  1  6  0  0  0
  8  5  1  0  0  0  0
  8  4  1  0  0  0  0
 10  9  1  0  0  0  0
 11 10  1  0  0  0  0
 12 11  1  1  0  0  0
 13 16  1  0  0  0  0
 13 15  1  0  0  0  0
 14 12  1  0  0  0  0
 15 19  1  6  0  0  0
 15 12  1  0  0  0  0
 16 14  2  0  0  0  0
 17 19  1  0  0  0  0
 19 18  1  0  0  0  0
 21 20  1  6  0  0  0
 21 22  1  0  0  0  0
 21 23  1  0  0  0  0
 22 23  1  0  0  0  0
 25 24  1  0  0  0  0
 28 27  1  6  0  0  0
 28 29  1  0  0  0  0
 28 26  1  0  0  0  0
 30 32  1  0  0  0  0
 30 29  1  0  0  0  0
 31 35  1  1  0  0  0
 31 37  1  0  0  0  0
 32 36  1  0  0  0  0
 33 41  1  6  0  0  0
 33 38  1  0  0  0  0
 34 33  1  0  0  0  0
 34 39  1  0  0  0  0
 37 36  2  0  0  0  0
 38 31  1  0  0  0  0
 38 32  2  0  0  0  0
 39 35  1  0  0  0  0
 41 40  1  6  0  0  0
 42 49  1  1  0  0  0
 42 45  1  0  0  0  0
 45 44  2  0  0  0  0
 45 41  1  0  0  0  0
 46 43  1  1  0  0  0
 46 42  1  0  0  0  0
 46 47  1  0  0  0  0
 47 48  2  0  0  0  0
 47 44  1  0  0  0  0
 50 49  1  0  0  0  0
M  END
>  <MODEL>
5

>  <REMARK>
 VINA RESULT:      -6.9      2.409      8.665
  Name = 
  17 active torsions:
  status: ('A' for Active; 'I' for Inactive)
    1  A    between atoms: C_2  and  C_12
    2  A    between atoms: C_2  and  C_42
    3  A    between atoms: C_3  and  C_12
    4  A    between atoms: C_4  and  C_35
    5  A    between atoms: C_7  and  C_32
    6  A    between atoms: C_7  and  O_39
    7  A    between atoms: C_7  and  O_45
    8  A    between atoms: C_8  and  O_49
    9  A    between atoms: C_9  and  O_31
   10  A    between atoms: C_11  and  C_21
   11  A    between atoms: C_11  and  C_48
   12  A    between atoms: C_16  and  C_30
   13  A    between atoms: C_16  and  C_48
   14  A    between atoms: C_33  and  C_35
   15  A    between atoms: O_39  and  C_42
   16  A    between atoms: C_40  and  O_49
   17  A    between atoms: C_43  and  C_44
                            x       y       z     vdW  Elec       q    Type
                         _______ _______ _______ _____ _____    ______ ____

>  <TORSDO>
F 17

$$$$
=
 OpenBabel11062412513D

 50 55  0  0  1  0  0  0  0  0999 V2000
  190.1080  177.2820  139.9220 C   0  0  1  0  0  3  0  0  0  0  0  0
  190.9110  176.3910  143.5060 C   0  0  0  0  0  3  0  0  0  0  0  0
  190.6430  176.3500  142.1960 C   0  0  0  0  0  3  0  0  0  0  0  0
  188.8680  178.2310  141.9550 C   0  0  0  0  0  2  0  0  0  0  0  0
  189.1970  177.9840  144.4880 C   0  0  1  0  0  3  0  0  0  0  0  0
  190.1570  177.5590  141.4320 C   0  0  2  0  0  3  0  0  0  0  0  0
  190.6960  177.6490  144.2990 C   0  0  1  0  0  3  0  0  0  0  0  0
  188.3160  177.6710  143.2670 C   0  0  0  0  0  2  0  0  0  0  0  0
  188.5890  177.3750  145.7550 C   0  0  0  0  0  2  0  0  0  0  0  0
  187.2690  178.0310  146.1330 C   0  0  0  0  0  2  0  0  0  0  0  0
  186.1680  177.5100  145.2320 C   0  0  0  0  0  2  0  0  0  0  0  0
  185.3490  178.6730  144.6890 C   0  0  2  0  0  3  0  0  0  0  0  0
  183.1700  178.6280  143.5940 C   0  0  0  0  0  2  0  0  0  0  0  0
  184.2400  179.0100  145.6290 C   0  0  0  0  0  3  0  0  0  0  0  0
  184.6360  178.2510  143.4060 C   0  0  1  0  0  3  0  0  0  0  0  0
  183.0590  178.9840  145.0340 C   0  0  0  0  0  3  0  0  0  0  0  0
  184.2360  179.1740  141.2100 O   0  0  0  0  0  1  0  0  0  0  0  0
  185.8410  180.1270  142.5250 O   0  0  0  0  0  1  0  0  0  0  0  0
  185.2240  178.9260  142.1660 C   0  0  0  0  0  3  0  0  0  0  0  0
  191.3680  177.5710  145.5230 O   0  0  0  0  0  0  0  0  0  0  0  0
  191.1780  176.2580  145.9570 C   0  0  1  0  0  3  0  0  0  0  0  0
  192.4310  175.6820  146.2330 O   0  0  0  0  0  0  0  0  0  0  0  0
  191.6810  176.1150  147.3390 C   0  0  0  0  0  2  0  0  0  0  0  0
  191.2550  176.5750  138.0610 C   0  0  0  0  0  1  0  0  0  0  0  0
  191.1410  176.4370  139.4530 O   0  0  0  0  0  0  0  0  0  0  0  0
  188.8360  176.8700  139.4910 O   0  0  0  0  0  0  0  0  0  0  0  0
  189.0660  179.0470  138.8410 O   0  0  0  0  0  1  0  0  0  0  0  0
  188.4450  177.8290  138.5540 C   0  0  2  0  0  3  0  0  0  0  0  0
  186.9380  177.9980  138.5930 C   0  0  0  0  0  2  0  0  0  0  0  0
  186.3510  177.7670  137.2070 C   0  0  0  0  0  2  0  0  0  0  0  0
  184.8640  174.3540  136.6690 C   0  0  1  0  0  3  0  0  0  0  0  0
  186.0190  176.3180  137.0080 C   0  0  0  0  0  0  0  0  0  0  0  0
  183.4930  176.4990  137.1390 C   0  0  2  0  0  3  0  0  0  0  0  0
  182.4400  175.6040  136.8170 O   0  0  0  0  0  0  0  0  0  0  0  0
  183.8510  174.0780  135.5410 C   0  0  0  0  0  2  0  0  0  0  0  0
  187.0060  175.2960  136.5800 C   0  0  0  0  0  3  0  0  0  0  0  0
  186.2340  174.1000  136.2200 N   0  0  0  0  0  0  0  0  0  0  0  0
  184.8160  175.7790  137.0680 C   0  0  0  0  0  0  0  0  0  0  0  0
  182.6910  175.1000  135.5200 C   0  0  0  0  0  2  0  0  0  0  0  0
  182.9450  176.1180  139.4650 O   0  0  0  0  0  1  0  0  0  0  0  0
  183.2860  177.1010  138.5320 C   0  0  2  0  0  3  0  0  0  0  0  0
  180.8780  178.1010  139.0720 C   0  0  1  0  0  3  0  0  0  0  0  0
  179.1840  179.6790  138.3020 O   0  0  0  0  0  1  0  0  0  0  0  0
  182.6090  179.4360  138.1760 C   0  0  0  0  0  3  0  0  0  0  0  0
  182.2800  178.2070  138.5380 C   0  0  0  0  0  0  0  0  0  0  0  0
  180.3620  179.5540  139.0480 C   0  0  2  0  0  3  0  0  0  0  0  0
  181.4660  180.2980  138.3830 C   0  0  0  0  0  0  0  0  0  0  0  0
  181.5500  181.6240  138.3680 C   0  0  0  0  0  2  0  0  0  0  0  0
  180.1110  177.2710  138.2470 O   0  0  0  0  0  0  0  0  0  0  0  0
  179.5490  176.3280  139.1100 C   0  0  0  0  0  1  0  0  0  0  0  0
  1 25  1  1  0  0  0
  2  7  1  0  0  0  0
  3  2  2  0  0  0  0
  4  8  1  0  0  0  0
  5  9  1  1  0  0  0
  6  1  1  6  0  0  0
  6  4  1  0  0  0  0
  6  3  1  0  0  0  0
  7  5  1  0  0  0  0
  7 20  1  1  0  0  0
  8  5  1  0  0  0  0
  9 10  1  0  0  0  0
 11 10  1  0  0  0  0
 12 11  1  1  0  0  0
 12 14  1  0  0  0  0
 13 16  1  0  0  0  0
 15 19  1  6  0  0  0
 15 13  1  0  0  0  0
 15 12  1  0  0  0  0
 16 14  2  0  0  0  0
 17 19  1  0  0  0  0
 19 18  1  0  0  0  0
 21 20  1  6  0  0  0
 21 22  1  0  0  0  0
 21 23  1  0  0  0  0
 22 23  1  0  0  0  0
 24 25  1  0  0  0  0
 26  1  1  0  0  0  0
 28 29  1  0  0  0  0
 28 27  1  1  0  0  0
 28 26  1  0  0  0  0
 30 29  1  0  0  0  0
 31 35  1  6  0  0  0
 31 38  1  0  0  0  0
 32 38  2  0  0  0  0
 32 30  1  0  0  0  0
 33 41  1  1  0  0  0
 34 33  1  0  0  0  0
 36 32  1  0  0  0  0
 37 36  2  0  0  0  0
 37 31  1  0  0  0  0
 38 33  1  0  0  0  0
 39 35  1  0  0  0  0
 39 34  1  0  0  0  0
 41 45  1  0  0  0  0
 41 40  1  1  0  0  0
 42 49  1  6  0  0  0
 44 47  1  0  0  0  0
 44 45  2  0  0  0  0
 45 42  1  0  0  0  0
 46 43  1  6  0  0  0
 46 42  1  0  0  0  0
 47 46  1  0  0  0  0
 48 47  2  0  0  0  0
 49 50  1  0  0  0  0
M  END
>  <MODEL>
6

>  <REMARK>
 VINA RESULT:      -6.6      2.610     10.053
  Name = 
  17 active torsions:
  status: ('A' for Active; 'I' for Inactive)
    1  A    between atoms: C_2  and  C_12
    2  A    between atoms: C_2  and  C_42
    3  A    between atoms: C_3  and  C_12
    4  A    between atoms: C_4  and  C_35
    5  A    between atoms: C_7  and  C_32
    6  A    between atoms: C_7  and  O_39
    7  A    between atoms: C_7  and  O_45
    8  A    between atoms: C_8  and  O_49
    9  A    between atoms: C_9  and  O_31
   10  A    between atoms: C_11  and  C_21
   11  A    between atoms: C_11  and  C_48
   12  A    between atoms: C_16  and  C_30
   13  A    between atoms: C_16  and  C_48
   14  A    between atoms: C_33  and  C_35
   15  A    between atoms: O_39  and  C_42
   16  A    between atoms: C_40  and  O_49
   17  A    between atoms: C_43  and  C_44
                            x       y       z     vdW  Elec       q    Type
                         _______ _______ _______ _____ _____    ______ ____

>  <TORSDO>
F 17

$$$$
=
 OpenBabel11062412513D

 50 55  0  0  1  0  0  0  0  0999 V2000
  181.7300  178.7870  143.3130 C   0  0  1  0  0  3  0  0  0  0  0  0
  180.1010  178.9760  139.9090 C   0  0  0  0  0  3  0  0  0  0  0  0
  180.3840  178.7160  141.1900 C   0  0  0  0  0  3  0  0  0  0  0  0
  182.9540  178.3500  141.1040 C   0  0  0  0  0  2  0  0  0  0  0  0
  182.2490  178.5100  138.6420 C   0  0  1  0  0  3  0  0  0  0  0  0
  181.7380  179.0070  141.7940 C   0  0  2  0  0  3  0  0  0  0  0  0
  181.1450  179.5380  138.9860 C   0  0  1  0  0  3  0  0  0  0  0  0
  182.6520  177.5930  139.8100 C   0  0  0  0  0  2  0  0  0  0  0  0
  181.9460  177.6800  137.3920 C   0  0  0  0  0  2  0  0  0  0  0  0
  182.3770  176.2290  137.5440 C   0  0  0  0  0  2  0  0  0  0  0  0
  182.2800  175.5260  136.2050 C   0  0  0  0  0  2  0  0  0  0  0  0
  183.5110  174.6590  135.9830 C   0  0  2  0  0  3  0  0  0  0  0  0
  185.0140  173.6860  137.6390 C   0  0  0  0  0  2  0  0  0  0  0  0
  183.1930  173.2280  136.2570 C   0  0  0  0  0  3  0  0  0  0  0  0
  184.5840  175.0090  137.0120 C   0  0  1  0  0  3  0  0  0  0  0  0
  184.0090  172.7020  137.1570 C   0  0  0  0  0  3  0  0  0  0  0  0
  185.4710  177.0750  136.1320 O   0  0  0  0  0  1  0  0  0  0  0  0
  186.8810  175.6570  137.2340 O   0  0  0  0  0  1  0  0  0  0  0  0
  185.7740  175.7350  136.3850 C   0  0  0  0  0  3  0  0  0  0  0  0
  180.5440  180.0580  137.8350 O   0  0  0  0  0  0  0  0  0  0  0  0
  180.3390  181.4100  138.1130 C   0  0  1  0  0  3  0  0  0  0  0  0
  181.5510  182.1020  137.9420 O   0  0  0  0  0  0  0  0  0  0  0  0
  180.6120  182.2130  136.9020 C   0  0  0  0  0  2  0  0  0  0  0  0
  179.6880  179.0200  144.3390 C   0  0  0  0  0  1  0  0  0  0  0  0
  180.5930  178.0960  143.7940 O   0  0  0  0  0  0  0  0  0  0  0  0
  182.9340  178.2370  143.7850 O   0  0  0  0  0  0  0  0  0  0  0  0
  184.0480  180.2240  143.9300 O   0  0  0  0  0  1  0  0  0  0  0  0
  183.4500  179.1960  144.6600 C   0  0  2  0  0  3  0  0  0  0  0  0
  184.4730  178.5520  145.5770 C   0  0  0  0  0  2  0  0  0  0  0  0
  185.8810  178.8590  145.0830 C   0  0  0  0  0  2  0  0  0  0  0  0
  188.8440  177.0460  146.5290 C   0  0  1  0  0  3  0  0  0  0  0  0
  186.8970  178.0930  145.8760 C   0  0  0  0  0  0  0  0  0  0  0  0
  188.6770  177.8790  144.0830 C   0  0  2  0  0  3  0  0  0  0  0  0
  190.0400  177.4860  144.1130 O   0  0  0  0  0  0  0  0  0  0  0  0
  190.2530  177.6700  146.5360 C   0  0  0  0  0  2  0  0  0  0  0  0
  186.8150  177.8870  147.3440 C   0  0  0  0  0  3  0  0  0  0  0  0
  188.1220  177.3640  147.7630 N   0  0  0  0  0  0  0  0  0  0  0  0
  188.0370  177.6070  145.4210 C   0  0  0  0  0  0  0  0  0  0  0  0
  190.6700  178.2140  145.1500 C   0  0  0  0  0  2  0  0  0  0  0  0
  187.9280  175.7600  143.1870 O   0  0  0  0  0  1  0  0  0  0  0  0
  187.9260  177.1400  142.9720 C   0  0  2  0  0  3  0  0  0  0  0  0
  188.0540  178.6620  140.7900 C   0  0  1  0  0  3  0  0  0  0  0  0
  188.3680  178.6120  138.3710 O   0  0  0  0  0  1  0  0  0  0  0  0
  189.4250  176.7570  141.0630 C   0  0  0  0  0  3  0  0  0  0  0  0
  188.4490  177.4630  141.6090 C   0  0  0  0  0  0  0  0  0  0  0  0
  189.0360  178.6360  139.6010 C   0  0  2  0  0  3  0  0  0  0  0  0
  189.7830  177.3640  139.8000 C   0  0  0  0  0  0  0  0  0  0  0  0
  190.8930  177.0560  139.1390 C   0  0  0  0  0  2  0  0  0  0  0  0
  186.7280  178.5370  140.3630 O   0  0  0  0  0  0  0  0  0  0  0  0
  185.9630  179.0250  141.4240 C   0  0  0  0  0  1  0  0  0  0  0  0
  1 26  1  6  0  0  0
  1 25  1  0  0  0  0
  2  3  2  0  0  0  0
  3  6  1  0  0  0  0
  4  6  1  0  0  0  0
  5  9  1  6  0  0  0
  5  7  1  0  0  0  0
  5  8  1  0  0  0  0
  6  1  1  1  0  0  0
  7 20  1  6  0  0  0
  7  2  1  0  0  0  0
  8  4  1  0  0  0  0
  9 10  1  0  0  0  0
 11 10  1  0  0  0  0
 12 11  1  1  0  0  0
 12 14  1  0  0  0  0
 12 15  1  0  0  0  0
 14 16  2  0  0  0  0
 15 19  1  6  0  0  0
 15 13  1  0  0  0  0
 16 13  1  0  0  0  0
 17 19  1  0  0  0  0
 19 18  1  0  0  0  0
 21 20  1  6  0  0  0
 22 21  1  0  0  0  0
 23 22  1  0  0  0  0
 23 21  1  0  0  0  0
 25 24  1  0  0  0  0
 26 28  1  0  0  0  0
 28 27  1  6  0  0  0
 28 29  1  0  0  0  0
 30 29  1  0  0  0  0
 30 32  1  0  0  0  0
 31 35  1  1  0  0  0
 31 37  1  0  0  0  0
 32 36  1  0  0  0  0
 33 41  1  6  0  0  0
 33 34  1  0  0  0  0
 33 38  1  0  0  0  0
 34 39  1  0  0  0  0
 36 37  2  0  0  0  0
 38 32  2  0  0  0  0
 38 31  1  0  0  0  0
 39 35  1  0  0  0  0
 41 40  1  1  0  0  0
 42 49  1  6  0  0  0
 42 45  1  0  0  0  0
 44 45  2  0  0  0  0
 45 41  1  0  0  0  0
 46 43  1  6  0  0  0
 46 47  1  0  0  0  0
 46 42  1  0  0  0  0
 47 44  1  0  0  0  0
 48 47  2  0  0  0  0
 49 50  1  0  0  0  0
M  END
>  <MODEL>
7

>  <REMARK>
 VINA RESULT:      -6.6      2.152      3.779
  Name = 
  17 active torsions:
  status: ('A' for Active; 'I' for Inactive)
    1  A    between atoms: C_2  and  C_12
    2  A    between atoms: C_2  and  C_42
    3  A    between atoms: C_3  and  C_12
    4  A    between atoms: C_4  and  C_35
    5  A    between atoms: C_7  and  C_32
    6  A    between atoms: C_7  and  O_39
    7  A    between atoms: C_7  and  O_45
    8  A    between atoms: C_8  and  O_49
    9  A    between atoms: C_9  and  O_31
   10  A    between atoms: C_11  and  C_21
   11  A    between atoms: C_11  and  C_48
   12  A    between atoms: C_16  and  C_30
   13  A    between atoms: C_16  and  C_48
   14  A    between atoms: C_33  and  C_35
   15  A    between atoms: O_39  and  C_42
   16  A    between atoms: C_40  and  O_49
   17  A    between atoms: C_43  and  C_44
                            x       y       z     vdW  Elec       q    Type
                         _______ _______ _______ _____ _____    ______ ____

>  <TORSDO>
F 17

$$$$
=
 OpenBabel11062412513D

 50 55  0  0  1  0  0  0  0  0999 V2000
  187.3830  176.7140  136.1820 C   0  0  1  0  0  3  0  0  0  0  0  0
  190.5420  175.6830  137.9800 C   0  0  0  0  0  3  0  0  0  0  0  0
  189.3640  175.6930  137.3460 C   0  0  0  0  0  3  0  0  0  0  0  0
  188.2550  177.8320  138.3170 C   0  0  0  0  0  2  0  0  0  0  0  0
  190.3780  177.5190  139.7240 C   0  0  1  0  0  3  0  0  0  0  0  0
  188.6000  176.9690  137.0830 C   0  0  2  0  0  3  0  0  0  0  0  0
  191.1480  176.9530  138.5070 C   0  0  1  0  0  3  0  0  0  0  0  0
  188.8500  177.3570  139.6430 C   0  0  0  0  0  2  0  0  0  0  0  0
  190.8980  177.0050  141.0700 C   0  0  0  0  0  2  0  0  0  0  0  0
  189.7720  176.7170  142.0510 C   0  0  0  0  0  2  0  0  0  0  0  0
  190.1370  177.2630  143.4170 C   0  0  0  0  0  2  0  0  0  0  0  0
  189.1620  176.7390  144.4630 C   0  0  2  0  0  3  0  0  0  0  0  0
  187.4000  177.9400  145.6470 C   0  0  0  0  0  2  0  0  0  0  0  0
  187.8200  176.5130  143.8520 C   0  0  0  0  0  3  0  0  0  0  0  0
  188.9150  177.8100  145.5240 C   0  0  1  0  0  3  0  0  0  0  0  0
  186.8650  177.1660  144.4950 C   0  0  0  0  0  3  0  0  0  0  0  0
  188.6870  176.6660  147.6380 O   0  0  0  0  0  1  0  0  0  0  0  0
  190.7480  176.7660  146.6610 O   0  0  0  0  0  1  0  0  0  0  0  0
  189.5490  177.4510  146.8680 C   0  0  0  0  0  3  0  0  0  0  0  0
  192.5030  176.7610  138.7940 O   0  0  0  0  0  0  0  0  0  0  0  0
  192.9470  175.8380  137.8460 C   0  0  1  0  0  3  0  0  0  0  0  0
  194.1320  176.3170  137.2600 O   0  0  0  0  0  0  0  0  0  0  0  0
  194.2740  175.3210  138.2410 C   0  0  0  0  0  2  0  0  0  0  0  0
  188.7830  177.7920  134.7150 C   0  0  0  0  0  1  0  0  0  0  0  0
  187.5670  177.1030  134.8340 O   0  0  0  0  0  0  0  0  0  0  0  0
  186.8880  175.4040  136.3020 O   0  0  0  0  0  0  0  0  0  0  0  0
  185.3680  174.2280  137.5350 O   0  0  0  0  0  1  0  0  0  0  0  0
  185.8140  175.5050  137.1880 C   0  0  2  0  0  3  0  0  0  0  0  0
  184.6870  176.2850  136.5380 C   0  0  0  0  0  2  0  0  0  0  0  0
  183.9740  177.1380  137.5780 C   0  0  0  0  0  2  0  0  0  0  0  0
  180.9050  179.1260  136.6930 C   0  0  1  0  0  3  0  0  0  0  0  0
  182.7680  177.8010  136.9830 C   0  0  0  0  0  0  0  0  0  0  0  0
  181.9260  178.9740  139.0680 C   0  0  2  0  0  3  0  0  0  0  0  0
  180.9600  179.9900  139.2840 O   0  0  0  0  0  0  0  0  0  0  0  0
  180.8230  180.6450  136.9390 C   0  0  0  0  0  2  0  0  0  0  0  0
  182.4980  177.8680  135.5250 C   0  0  0  0  0  3  0  0  0  0  0  0
  181.4090  178.8360  135.3490 N   0  0  0  0  0  0  0  0  0  0  0  0
  181.8610  178.5020  137.6370 C   0  0  0  0  0  0  0  0  0  0  0  0
  181.2350  181.0380  138.3760 C   0  0  0  0  0  2  0  0  0  0  0  0
  180.5720  177.0610  139.6720 O   0  0  0  0  0  1  0  0  0  0  0  0
  181.7030  177.8010  140.0270 C   0  0  2  0  0  3  0  0  0  0  0  0
  182.6930  178.9960  142.1910 C   0  0  1  0  0  3  0  0  0  0  0  0
  182.7550  178.9150  144.6290 O   0  0  0  0  0  1  0  0  0  0  0  0
  180.5170  178.0760  142.1610 C   0  0  0  0  0  3  0  0  0  0  0  0
  181.6250  178.2330  141.4560 C   0  0  0  0  0  0  0  0  0  0  0  0
  182.0230  179.3740  143.5280 C   0  0  2  0  0  3  0  0  0  0  0  0
  180.7100  178.6760  143.4630 C   0  0  0  0  0  0  0  0  0  0  0  0
  179.7090  178.9200  144.3010 C   0  0  0  0  0  2  0  0  0  0  0  0
  183.8130  178.1820  142.3910 O   0  0  0  0  0  0  0  0  0  0  0  0
  184.9010  179.0570  142.3620 C   0  0  0  0  0  1  0  0  0  0  0  0
  1 25  1  6  0  0  0
  1 26  1  0  0  0  0
  2  7  1  0  0  0  0
  3  2  2  0  0  0  0
  4  8  1  0  0  0  0
  5  9  1  1  0  0  0
  6  1  1  1  0  0  0
  6  3  1  0  0  0  0
  6  4  1  0  0  0  0
  7 20  1  1  0  0  0
  7  5  1  0  0  0  0
  8  5  1  0  0  0  0
  9 10  1  0  0  0  0
 10 11  1  0  0  0  0
 12 11  1  6  0  0  0
 12 15  1  0  0  0  0
 14 12  1  0  0  0  0
 14 16  2  0  0  0  0
 15 13  1  0  0  0  0
 15 19  1  1  0  0  0
 16 13  1  0  0  0  0
 18 19  1  0  0  0  0
 19 17  1  0  0  0  0
 21 23  1  0  0  0  0
 21 20  1  1  0  0  0
 22 21  1  0  0  0  0
 22 23  1  0  0  0  0
 24 25  1  0  0  0  0
 26 28  1  0  0  0  0
 28 27  1  6  0  0  0
 29 28  1  0  0  0  0
 29 30  1  0  0  0  0
 31 35  1  1  0  0  0
 31 38  1  0  0  0  0
 32 30  1  0  0  0  0
 32 38  2  0  0  0  0
 33 34  1  0  0  0  0
 33 41  1  1  0  0  0
 35 39  1  0  0  0  0
 36 32  1  0  0  0  0
 37 36  2  0  0  0  0
 37 31  1  0  0  0  0
 38 33  1  0  0  0  0
 39 34  1  0  0  0  0
 41 40  1  6  0  0  0
 41 45  1  0  0  0  0
 42 49  1  1  0  0  0
 42 46  1  0  0  0  0
 44 47  1  0  0  0  0
 45 44  2  0  0  0  0
 45 42  1  0  0  0  0
 46 43  1  1  0  0  0
 47 46  1  0  0  0  0
 47 48  2  0  0  0  0
 50 49  1  0  0  0  0
M  END
>  <MODEL>
8

>  <REMARK>
 VINA RESULT:      -6.6      2.830      9.569
  Name = 
  17 active torsions:
  status: ('A' for Active; 'I' for Inactive)
    1  A    between atoms: C_2  and  C_12
    2  A    between atoms: C_2  and  C_42
    3  A    between atoms: C_3  and  C_12
    4  A    between atoms: C_4  and  C_35
    5  A    between atoms: C_7  and  C_32
    6  A    between atoms: C_7  and  O_39
    7  A    between atoms: C_7  and  O_45
    8  A    between atoms: C_8  and  O_49
    9  A    between atoms: C_9  and  O_31
   10  A    between atoms: C_11  and  C_21
   11  A    between atoms: C_11  and  C_48
   12  A    between atoms: C_16  and  C_30
   13  A    between atoms: C_16  and  C_48
   14  A    between atoms: C_33  and  C_35
   15  A    between atoms: O_39  and  C_42
   16  A    between atoms: C_40  and  O_49
   17  A    between atoms: C_43  and  C_44
                            x       y       z     vdW  Elec       q    Type
                         _______ _______ _______ _____ _____    ______ ____

>  <TORSDO>
F 17

$$$$
=
 OpenBabel11062412513D

 50 55  0  0  1  0  0  0  0  0999 V2000
  182.6810  178.8230  141.9970 C   0  0  1  0  0  3  0  0  0  0  0  0
  180.8550  178.8820  138.6890 C   0  0  0  0  0  3  0  0  0  0  0  0
  181.1740  178.7800  139.9840 C   0  0  0  0  0  3  0  0  0  0  0  0
  183.5140  177.6590  139.8700 C   0  0  0  0  0  2  0  0  0  0  0  0
  182.6510  177.5830  137.4550 C   0  0  1  0  0  3  0  0  0  0  0  0
  182.6060  178.7580  140.4640 C   0  0  2  0  0  3  0  0  0  0  0  0
  181.9210  178.9360  137.6320 C   0  0  1  0  0  3  0  0  0  0  0  0
  182.8870  176.8090  138.7640 C   0  0  0  0  0  2  0  0  0  0  0  0
  182.0060  176.6720  136.4060 C   0  0  0  0  0  2  0  0  0  0  0  0
  182.8780  175.4720  136.0700 C   0  0  0  0  0  2  0  0  0  0  0  0
  184.1140  175.9350  135.3250 C   0  0  0  0  0  2  0  0  0  0  0  0
  185.2070  174.8800  135.4270 C   0  0  2  0  0  3  0  0  0  0  0  0
  186.8350  174.5340  137.2100 C   0  0  0  0  0  2  0  0  0  0  0  0
  184.7930  173.7940  136.3620 C   0  0  0  0  0  3  0  0  0  0  0  0
  186.4500  175.4820  136.0790 C   0  0  1  0  0  3  0  0  0  0  0  0
  185.6770  173.6080  137.3290 C   0  0  0  0  0  3  0  0  0  0  0  0
  187.9770  176.9950  134.9790 O   0  0  0  0  0  1  0  0  0  0  0  0
  188.6970  174.8900  135.4920 O   0  0  0  0  0  1  0  0  0  0  0  0
  187.6000  175.6540  135.0860 C   0  0  0  0  0  3  0  0  0  0  0  0
  181.3860  179.3980  136.4260 O   0  0  0  0  0  0  0  0  0  0  0  0
  180.7770  180.6130  136.7430 C   0  0  1  0  0  3  0  0  0  0  0  0
  180.8070  181.4480  135.6120 O   0  0  0  0  0  0  0  0  0  0  0  0
  179.5870  180.8090  135.8880 C   0  0  0  0  0  2  0  0  0  0  0  0
  181.0720  179.4700  143.5030 C   0  0  0  0  0  1  0  0  0  0  0  0
  181.4900  178.4340  142.6530 O   0  0  0  0  0  0  0  0  0  0  0  0
  183.8160  178.1720  142.5090 O   0  0  0  0  0  0  0  0  0  0  0  0
  185.4330  179.7420  142.1420 O   0  0  0  0  0  1  0  0  0  0  0  0
  184.5780  179.1850  143.0950 C   0  0  2  0  0  3  0  0  0  0  0  0
  185.3900  178.6140  144.2430 C   0  0  0  0  0  2  0  0  0  0  0  0
  186.4090  177.6140  143.7130 C   0  0  0  0  0  2  0  0  0  0  0  0
  189.7130  177.5320  145.5110 C   0  0  1  0  0  3  0  0  0  0  0  0
  187.5760  177.5040  144.6490 C   0  0  0  0  0  0  0  0  0  0  0  0
  189.4360  177.8180  142.9530 C   0  0  2  0  0  3  0  0  0  0  0  0
  190.8260  178.0730  143.0770 O   0  0  0  0  0  0  0  0  0  0  0  0
  190.7110  178.7030  145.4300 C   0  0  0  0  0  2  0  0  0  0  0  0
  187.4530  177.5120  146.1270 C   0  0  0  0  0  3  0  0  0  0  0  0
  188.8120  177.6870  146.6560 N   0  0  0  0  0  0  0  0  0  0  0  0
  188.8520  177.5030  144.3080 C   0  0  0  0  0  0  0  0  0  0  0  0
  190.9830  179.1530  143.9760 C   0  0  0  0  0  2  0  0  0  0  0  0
  190.2150  175.7240  142.0240 O   0  0  0  0  0  1  0  0  0  0  0  0
  189.1810  176.6630  141.9810 C   0  0  2  0  0  3  0  0  0  0  0  0
  189.8740  176.8800  139.4180 C   0  0  1  0  0  3  0  0  0  0  0  0
  189.7590  178.3360  137.4650 O   0  0  0  0  0  1  0  0  0  0  0  0
  187.8140  177.7090  140.2270 C   0  0  0  0  0  3  0  0  0  0  0  0
  188.9500  177.1300  140.5790 C   0  0  0  0  0  0  0  0  0  0  0  0
  189.0690  177.3620  138.1950 C   0  0  2  0  0  3  0  0  0  0  0  0
  187.8450  177.9530  138.8010 C   0  0  0  0  0  0  0  0  0  0  0  0
  186.7630  178.2750  138.1010 C   0  0  0  0  0  2  0  0  0  0  0  0
  191.0550  177.6120  139.5770 O   0  0  0  0  0  0  0  0  0  0  0  0
  192.0720  176.7460  139.1710 C   0  0  0  0  0  1  0  0  0  0  0  0
  1 26  1  1  0  0  0
  1 25  1  0  0  0  0
  2  3  2  0  0  0  0
  3  6  1  0  0  0  0
  4  6  1  0  0  0  0
  5  9  1  6  0  0  0
  5  7  1  0  0  0  0
  5  8  1  0  0  0  0
  6  1  1  1  0  0  0
  7 20  1  6  0  0  0
  7  2  1  0  0  0  0
  8  4  1  0  0  0  0
 10  9  1  0  0  0  0
 11 10  1  0  0  0  0
 12 11  1  1  0  0  0
 12 15  1  0  0  0  0
 12 14  1  0  0  0  0
 13 16  1  0  0  0  0
 14 16  2  0  0  0  0
 15 19  1  6  0  0  0
 15 13  1  0  0  0  0
 17 19  1  0  0  0  0
 19 18  1  0  0  0  0
 21 20  1  6  0  0  0
 22 23  1  0  0  0  0
 22 21  1  0  0  0  0
 23 21  1  0  0  0  0
 25 24  1  0  0  0  0
 26 28  1  0  0  0  0
 28 27  1  6  0  0  0
 28 29  1  0  0  0  0
 30 29  1  0  0  0  0
 30 32  1  0  0  0  0
 31 35  1  6  0  0  0
 31 37  1  0  0  0  0
 32 36  1  0  0  0  0
 33 41  1  6  0  0  0
 33 34  1  0  0  0  0
 33 38  1  0  0  0  0
 34 39  1  0  0  0  0
 36 37  2  0  0  0  0
 38 32  2  0  0  0  0
 38 31  1  0  0  0  0
 39 35  1  0  0  0  0
 41 40  1  6  0  0  0
 42 49  1  1  0  0  0
 42 45  1  0  0  0  0
 44 45  2  0  0  0  0
 45 41  1  0  0  0  0
 46 43  1  1  0  0  0
 46 47  1  0  0  0  0
 46 42  1  0  0  0  0
 47 44  1  0  0  0  0
 48 47  2  0  0  0  0
 50 49  1  0  0  0  0
M  END
>  <MODEL>
9

>  <REMARK>
 VINA RESULT:      -6.6      2.202      3.378
  Name = 
  17 active torsions:
  status: ('A' for Active; 'I' for Inactive)
    1  A    between atoms: C_2  and  C_12
    2  A    between atoms: C_2  and  C_42
    3  A    between atoms: C_3  and  C_12
    4  A    between atoms: C_4  and  C_35
    5  A    between atoms: C_7  and  C_32
    6  A    between atoms: C_7  and  O_39
    7  A    between atoms: C_7  and  O_45
    8  A    between atoms: C_8  and  O_49
    9  A    between atoms: C_9  and  O_31
   10  A    between atoms: C_11  and  C_21
   11  A    between atoms: C_11  and  C_48
   12  A    between atoms: C_16  and  C_30
   13  A    between atoms: C_16  and  C_48
   14  A    between atoms: C_33  and  C_35
   15  A    between atoms: O_39  and  C_42
   16  A    between atoms: C_40  and  O_49
   17  A    between atoms: C_43  and  C_44
                            x       y       z     vdW  Elec       q    Type
                         _______ _______ _______ _____ _____    ______ ____

>  <TORSDO>
F 17

$$$$
