=
 OpenBabel11062418103D

 25 25  0  0  1  0  0  0  0  0999 V2000
  188.5020  177.5990  141.8350 N   0  0  0  0  0  0  0  0  0  0  0  0
  189.5650  177.1270  140.9560 C   0  0  0  0  0  2  0  0  0  0  0  0
  189.5230  178.0040  142.7950 C   0  0  2  0  0  3  0  0  0  0  0  0
  190.6570  177.4980  141.9330 C   0  0  0  0  0  2  0  0  0  0  0  0
  189.3980  177.1710  144.0640 C   0  0  0  0  0  2  0  0  0  0  0  0
  189.7330  178.0050  145.2940 C   0  0  0  0  0  2  0  0  0  0  0  0
  190.4960  177.2310  146.2630 N   0  0  0  0  0  0  0  0  0  0  0  0
  192.3510  175.8530  146.6560 O   0  0  0  0  0  0  0  0  0  0  0  0
  191.6540  176.5040  145.8350 C   0  0  0  0  0  3  0  0  0  0  0  0
  190.0580  177.2210  147.6530 C   0  0  0  0  0  2  0  0  0  0  0  0
  188.3060  178.4290  148.7350 O   0  0  0  0  0  1  0  0  0  0  0  0
  188.5620  177.4780  147.7480 C   0  0  2  0  0  3  0  0  0  0  0  0
  187.9140  176.3010  148.0680 F   0  0  0  0  0  0  0  0  0  0  0  0
  187.9560  178.8140  141.2390 C   0  0  0  0  0  2  0  0  0  0  0  0
  186.4370  178.8760  141.4060 C   0  0  1  0  0  3  0  0  0  0  0  0
  185.7850  178.6550  140.1270 N   0  0  0  0  0  0  0  0  0  0  0  0
  183.7150  179.9380  139.5280 O   0  0  0  0  0  0  0  0  0  0  0  0
  184.7360  179.3050  139.8230 C   0  0  0  0  0  0  0  0  0  0  0  0
  185.9340  177.8580  142.4230 C   0  0  0  0  0  2  0  0  0  0  0  0
  184.9890  179.8910  143.2510 O   0  0  0  0  0  1  0  0  0  0  0  0
  185.1150  178.5250  143.5150 C   0  0  2  0  0  3  0  0  0  0  0  0
  185.8130  178.3270  144.8490 C   0  0  0  0  0  2  0  0  0  0  0  0
  185.0030  178.9070  145.9570 C   0  0  0  0  0  0  0  0  0  0  0  0
  185.6320  179.4160  147.0850 O   0  0  0  0  0  1  0  0  0  0  0  0
  183.7460  178.9100  145.8840 O   0  0  0  0  0  0  0  0  0  0  0  0
  1  3  1  0  0  0  0
  2  1  1  0  0  0  0
  2  4  1  0  0  0  0
  3  5  1  1  0  0  0
  4  3  1  0  0  0  0
  5  6  1  0  0  0  0
  6  7  1  0  0  0  0
  7 10  1  0  0  0  0
  9  7  1  0  0  0  0
  9  8  2  0  0  0  0
 10 12  1  0  0  0  0
 12 13  1  1  0  0  0
 12 11  1  0  0  0  0
 14  1  1  0  0  0  0
 15 14  1  6  0  0  0
 15 19  1  0  0  0  0
 16 15  1  0  0  0  0
 17 18  2  0  0  0  0
 18 16  2  0  0  0  0
 19 21  1  0  0  0  0
 21 20  1  6  0  0  0
 21 22  1  0  0  0  0
 22 23  1  0  0  0  0
 23 24  1  0  0  0  0
 25 23  2  0  0  0  0
M  END
>  <MODEL>
1

>  <REMARK>
 VINA RESULT:      -6.6      0.000      0.000
  Name = 
  12 active torsions:
  status: ('A' for Active; 'I' for Inactive)
    1  A    between atoms: N_1  and  C_18
    2  A    between atoms: C_2  and  N_13
    3  A    between atoms: C_2  and  C_18
    4  A    between atoms: C_2  and  C_23
    5  A    between atoms: N_4  and  C_15
    6  A    between atoms: N_4  and  C_20
    7  A    between atoms: C_5  and  C_8
    8  A    between atoms: C_5  and  C_9
    9  A    between atoms: C_6  and  C_15
   10  A    between atoms: C_9  and  C_23
   11  A    between atoms: C_11  and  C_12
   12  A    between atoms: C_11  and  C_20
                            x       y       z     vdW  Elec       q    Type
                         _______ _______ _______ _____ _____    ______ ____

>  <TORSDO>
F 12

$$$$
=
 OpenBabel11062418103D

 25 25  0  0  1  0  0  0  0  0999 V2000
  189.1010  176.8900  146.0320 N   0  0  0  0  0  0  0  0  0  0  0  0
  188.5370  176.9160  147.3760 C   0  0  0  0  0  2  0  0  0  0  0  0
  188.0570  177.8180  145.6120 C   0  0  2  0  0  3  0  0  0  0  0  0
  187.4170  177.8500  146.9810 C   0  0  0  0  0  2  0  0  0  0  0  0
  187.1380  177.1410  144.6040 C   0  0  0  0  0  2  0  0  0  0  0  0
  187.2730  177.7860  143.2310 C   0  0  0  0  0  2  0  0  0  0  0  0
  186.0020  178.3360  142.7800 N   0  0  0  0  0  0  0  0  0  0  0  0
  184.8360  179.4580  141.0840 O   0  0  0  0  0  0  0  0  0  0  0  0
  185.9280  179.0010  141.5140 C   0  0  0  0  0  3  0  0  0  0  0  0
  184.8310  178.1900  143.6380 C   0  0  0  0  0  2  0  0  0  0  0  0
  184.3440  179.0800  145.7980 O   0  0  0  0  0  1  0  0  0  0  0  0
  184.6220  179.4390  144.4790 C   0  0  2  0  0  3  0  0  0  0  0  0
  183.5610  180.1620  143.9690 F   0  0  0  0  0  0  0  0  0  0  0  0
  190.3550  177.6340  146.0750 C   0  0  0  0  0  2  0  0  0  0  0  0
  191.4600  176.9000  145.3140 C   0  0  1  0  0  3  0  0  0  0  0  0
  191.9250  175.7610  146.0850 N   0  0  0  0  0  0  0  0  0  0  0  0
  192.8090  176.0870  148.4090 O   0  0  0  0  0  0  0  0  0  0  0  0
  192.3730  175.9260  147.2630 C   0  0  0  0  0  0  0  0  0  0  0  0
  190.9910  176.4360  143.9390 C   0  0  0  0  0  2  0  0  0  0  0  0
  191.5980  178.6550  143.2910 O   0  0  0  0  0  1  0  0  0  0  0  0
  191.5280  177.3350  142.8390 C   0  0  2  0  0  3  0  0  0  0  0  0
  190.6010  177.2570  141.6390 C   0  0  0  0  0  2  0  0  0  0  0  0
  191.3790  177.3010  140.3690 C   0  0  0  0  0  0  0  0  0  0  0  0
  190.7430  177.0780  139.1550 O   0  0  0  0  0  0  0  0  0  0  0  0
  192.6200  177.5130  140.3980 O   0  0  0  0  0  1  0  0  0  0  0  0
  1 14  1  0  0  0  0
  1  2  1  0  0  0  0
  3  5  1  6  0  0  0
  3  1  1  0  0  0  0
  3  4  1  0  0  0  0
  4  2  1  0  0  0  0
  6  5  1  0  0  0  0
  7  6  1  0  0  0  0
  7 10  1  0  0  0  0
  8  9  2  0  0  0  0
  9  7  1  0  0  0  0
 10 12  1  0  0  0  0
 12 13  1  6  0  0  0
 12 11  1  0  0  0  0
 15 19  1  6  0  0  0
 15 14  1  0  0  0  0
 15 16  1  0  0  0  0
 16 18  2  0  0  0  0
 18 17  2  0  0  0  0
 21 20  1  1  0  0  0
 21 19  1  0  0  0  0
 22 21  1  0  0  0  0
 23 25  1  0  0  0  0
 23 22  1  0  0  0  0
 24 23  2  0  0  0  0
M  END
>  <MODEL>
2

>  <REMARK>
 VINA RESULT:      -6.5      2.948      7.361
  Name = 
  12 active torsions:
  status: ('A' for Active; 'I' for Inactive)
    1  A    between atoms: N_1  and  C_18
    2  A    between atoms: C_2  and  N_13
    3  A    between atoms: C_2  and  C_18
    4  A    between atoms: C_2  and  C_23
    5  A    between atoms: N_4  and  C_15
    6  A    between atoms: N_4  and  C_20
    7  A    between atoms: C_5  and  C_8
    8  A    between atoms: C_5  and  C_9
    9  A    between atoms: C_6  and  C_15
   10  A    between atoms: C_9  and  C_23
   11  A    between atoms: C_11  and  C_12
   12  A    between atoms: C_11  and  C_20
                            x       y       z     vdW  Elec       q    Type
                         _______ _______ _______ _____ _____    ______ ____

>  <TORSDO>
F 12

$$$$
=
 OpenBabel11062418103D

 25 25  0  0  1  0  0  0  0  0999 V2000
  186.6260  177.7170  145.2000 N   0  0  0  0  0  0  0  0  0  0  0  0
  186.9190  177.5940  146.6230 C   0  0  0  0  0  2  0  0  0  0  0  0
  185.7540  178.8450  145.5110 C   0  0  2  0  0  3  0  0  0  0  0  0
  186.0020  178.7350  146.9990 C   0  0  0  0  0  2  0  0  0  0  0  0
  184.3110  178.4900  145.1780 C   0  0  0  0  0  2  0  0  0  0  0  0
  183.7170  179.5000  144.2050 C   0  0  0  0  0  2  0  0  0  0  0  0
  183.3510  178.8670  142.9460 N   0  0  0  0  0  0  0  0  0  0  0  0
  181.6460  178.3800  141.4130 O   0  0  0  0  0  0  0  0  0  0  0  0
  181.9860  178.8920  142.5120 C   0  0  0  0  0  3  0  0  0  0  0  0
  184.3930  178.2210  142.1570 C   0  0  0  0  0  2  0  0  0  0  0  0
  184.9510  179.6090  140.2970 O   0  0  0  0  0  1  0  0  0  0  0  0
  185.3520  179.2530  141.5850 C   0  0  2  0  0  3  0  0  0  0  0  0
  186.6250  178.7170  141.5360 F   0  0  0  0  0  0  0  0  0  0  0  0
  187.8210  178.2530  144.5560 C   0  0  0  0  0  2  0  0  0  0  0  0
  188.9350  177.2070  144.5010 C   0  0  1  0  0  3  0  0  0  0  0  0
  188.7110  176.2970  143.3920 N   0  0  0  0  0  0  0  0  0  0  0  0
  189.2970  176.9910  141.0540 O   0  0  0  0  0  0  0  0  0  0  0  0
  189.0080  176.6480  142.2070 C   0  0  0  0  0  0  0  0  0  0  0  0
  190.3110  177.8500  144.3710 C   0  0  0  0  0  2  0  0  0  0  0  0
  191.7460  175.9380  144.3620 O   0  0  0  0  0  1  0  0  0  0  0  0
  191.3680  177.0510  145.1170 C   0  0  2  0  0  3  0  0  0  0  0  0
  190.7960  176.5940  146.4470 C   0  0  0  0  0  2  0  0  0  0  0  0
  191.8860  176.3540  147.4330 C   0  0  0  0  0  0  0  0  0  0  0  0
  192.1270  177.2770  148.4420 O   0  0  0  0  0  1  0  0  0  0  0  0
  192.6080  175.3270  147.3370 O   0  0  0  0  0  0  0  0  0  0  0  0
  1  3  1  0  0  0  0
  1  2  1  0  0  0  0
  2  4  1  0  0  0  0
  3  5  1  1  0  0  0
  3  4  1  0  0  0  0
  6  5  1  0  0  0  0
  7  6  1  0  0  0  0
  8  9  2  0  0  0  0
  9  7  1  0  0  0  0
 10  7  1  0  0  0  0
 12 11  1  6  0  0  0
 12 10  1  0  0  0  0
 13 12  1  0  0  0  0
 14  1  1  0  0  0  0
 15 19  1  6  0  0  0
 15 14  1  0  0  0  0
 16 15  1  0  0  0  0
 17 18  2  0  0  0  0
 18 16  2  0  0  0  0
 19 21  1  0  0  0  0
 21 20  1  6  0  0  0
 21 22  1  0  0  0  0
 22 23  1  0  0  0  0
 23 24  1  0  0  0  0
 25 23  2  0  0  0  0
M  END
>  <MODEL>
3

>  <REMARK>
 VINA RESULT:      -6.4      2.931      7.076
  Name = 
  12 active torsions:
  status: ('A' for Active; 'I' for Inactive)
    1  A    between atoms: N_1  and  C_18
    2  A    between atoms: C_2  and  N_13
    3  A    between atoms: C_2  and  C_18
    4  A    between atoms: C_2  and  C_23
    5  A    between atoms: N_4  and  C_15
    6  A    between atoms: N_4  and  C_20
    7  A    between atoms: C_5  and  C_8
    8  A    between atoms: C_5  and  C_9
    9  A    between atoms: C_6  and  C_15
   10  A    between atoms: C_9  and  C_23
   11  A    between atoms: C_11  and  C_12
   12  A    between atoms: C_11  and  C_20
                            x       y       z     vdW  Elec       q    Type
                         _______ _______ _______ _____ _____    ______ ____

>  <TORSDO>
F 12

$$$$
=
 OpenBabel11062418103D

 25 25  0  0  1  0  0  0  0  0999 V2000
  188.5830  177.1630  145.9300 N   0  0  0  0  0  0  0  0  0  0  0  0
  188.5160  176.8360  147.3500 C   0  0  0  0  0  2  0  0  0  0  0  0
  187.5360  178.1560  146.1440 C   0  0  2  0  0  3  0  0  0  0  0  0
  187.4080  177.8280  147.6140 C   0  0  0  0  0  2  0  0  0  0  0  0
  186.2770  177.7510  145.3890 C   0  0  0  0  0  2  0  0  0  0  0  0
  185.3880  178.9600  145.1330 C   0  0  0  0  0  2  0  0  0  0  0  0
  184.4820  178.7210  144.0180 N   0  0  0  0  0  0  0  0  0  0  0  0
  182.2860  178.8480  143.2070 O   0  0  0  0  0  0  0  0  0  0  0  0
  183.0870  179.0150  144.1640 C   0  0  0  0  0  3  0  0  0  0  0  0
  185.0250  178.1850  142.7750 C   0  0  0  0  0  2  0  0  0  0  0  0
  184.7990  179.4460  140.7610 O   0  0  0  0  0  1  0  0  0  0  0  0
  185.5820  179.3020  141.9060 C   0  0  2  0  0  3  0  0  0  0  0  0
  186.8780  178.9930  141.5390 F   0  0  0  0  0  0  0  0  0  0  0  0
  189.8320  177.8850  145.7110 C   0  0  0  0  0  2  0  0  0  0  0  0
  190.6770  177.2130  144.6280 C   0  0  1  0  0  3  0  0  0  0  0  0
  191.5510  176.2180  145.2220 N   0  0  0  0  0  0  0  0  0  0  0  0
  192.3020  176.4590  147.6030 O   0  0  0  0  0  0  0  0  0  0  0  0
  191.9310  176.3400  146.4290 C   0  0  0  0  0  0  0  0  0  0  0  0
  189.8110  176.5640  143.5540 C   0  0  0  0  0  2  0  0  0  0  0  0
  191.4920  177.5910  142.2000 O   0  0  0  0  0  1  0  0  0  0  0  0
  190.4780  176.6300  142.1900 C   0  0  2  0  0  3  0  0  0  0  0  0
  189.4370  177.0000  141.1480 C   0  0  0  0  0  2  0  0  0  0  0  0
  190.0410  177.0180  139.7860 C   0  0  0  0  0  0  0  0  0  0  0  0
  190.7640  175.9230  139.3310 O   0  0  0  0  0  1  0  0  0  0  0  0
  189.9200  178.0370  139.0570 O   0  0  0  0  0  0  0  0  0  0  0  0
  1  3  1  0  0  0  0
  1  2  1  0  0  0  0
  2  4  1  0  0  0  0
  3  5  1  6  0  0  0
  3  4  1  0  0  0  0
  6  5  1  0  0  0  0
  7  9  1  0  0  0  0
  7  6  1  0  0  0  0
  8  9  2  0  0  0  0
 10  7  1  0  0  0  0
 12 11  1  6  0  0  0
 12 10  1  0  0  0  0
 13 12  1  0  0  0  0
 14  1  1  0  0  0  0
 15 19  1  6  0  0  0
 15 16  1  0  0  0  0
 15 14  1  0  0  0  0
 16 18  2  0  0  0  0
 18 17  2  0  0  0  0
 21 20  1  1  0  0  0
 21 19  1  0  0  0  0
 22 21  1  0  0  0  0
 23 22  1  0  0  0  0
 24 23  1  0  0  0  0
 25 23  2  0  0  0  0
M  END
>  <MODEL>
4

>  <REMARK>
 VINA RESULT:      -6.4      3.031      7.423
  Name = 
  12 active torsions:
  status: ('A' for Active; 'I' for Inactive)
    1  A    between atoms: N_1  and  C_18
    2  A    between atoms: C_2  and  N_13
    3  A    between atoms: C_2  and  C_18
    4  A    between atoms: C_2  and  C_23
    5  A    between atoms: N_4  and  C_15
    6  A    between atoms: N_4  and  C_20
    7  A    between atoms: C_5  and  C_8
    8  A    between atoms: C_5  and  C_9
    9  A    between atoms: C_6  and  C_15
   10  A    between atoms: C_9  and  C_23
   11  A    between atoms: C_11  and  C_12
   12  A    between atoms: C_11  and  C_20
                            x       y       z     vdW  Elec       q    Type
                         _______ _______ _______ _____ _____    ______ ____

>  <TORSDO>
F 12

$$$$
=
 OpenBabel11062418103D

 25 25  0  0  1  0  0  0  0  0999 V2000
  189.3020  177.6770  142.9740 N   0  0  0  0  0  0  0  0  0  0  0  0
  190.3840  177.6560  141.9960 C   0  0  0  0  0  2  0  0  0  0  0  0
  188.3670  177.3740  141.8960 C   0  0  2  0  0  3  0  0  0  0  0  0
  189.4500  177.3750  140.8420 C   0  0  0  0  0  2  0  0  0  0  0  0
  187.4150  178.5460  141.6930 C   0  0  0  0  0  2  0  0  0  0  0  0
  186.1190  178.3300  142.4630 C   0  0  0  0  0  2  0  0  0  0  0  0
  184.9600  178.6600  141.6470 N   0  0  0  0  0  0  0  0  0  0  0  0
  184.1560  179.2950  139.5380 O   0  0  0  0  0  0  0  0  0  0  0  0
  185.1430  179.0350  140.2760 C   0  0  0  0  0  3  0  0  0  0  0  0
  183.6350  178.5970  142.2530 C   0  0  0  0  0  2  0  0  0  0  0  0
  182.4630  178.6700  144.3300 O   0  0  0  0  0  1  0  0  0  0  0  0
  183.7120  178.8750  143.7450 C   0  0  2  0  0  3  0  0  0  0  0  0
  184.1030  180.1850  143.9480 F   0  0  0  0  0  0  0  0  0  0  0  0
  189.4330  176.4750  143.7900 C   0  0  0  0  0  2  0  0  0  0  0  0
  189.7510  176.8250  145.2440 C   0  0  1  0  0  3  0  0  0  0  0  0
  191.1890  176.8780  145.4430 N   0  0  0  0  0  0  0  0  0  0  0  0
  192.1630  176.4740  147.7180 O   0  0  0  0  0  0  0  0  0  0  0  0
  191.6830  176.6730  146.5960 C   0  0  0  0  0  0  0  0  0  0  0  0
  189.1250  178.1520  145.6590 C   0  0  0  0  0  2  0  0  0  0  0  0
  188.3370  176.7740  147.4460 O   0  0  0  0  0  1  0  0  0  0  0  0
  188.0820  177.9560  146.7470 C   0  0  2  0  0  3  0  0  0  0  0  0
  186.7070  177.8820  146.1070 C   0  0  0  0  0  2  0  0  0  0  0  0
  185.7210  178.6820  146.8870 C   0  0  0  0  0  0  0  0  0  0  0  0
  184.4200  178.2210  147.0430 O   0  0  0  0  0  0  0  0  0  0  0  0
  186.0590  179.7880  147.3830 O   0  0  0  0  0  1  0  0  0  0  0  0
  1 14  1  0  0  0  0
  2  1  1  0  0  0  0
  3  5  1  6  0  0  0
  3  1  1  0  0  0  0
  4  3  1  0  0  0  0
  4  2  1  0  0  0  0
  5  6  1  0  0  0  0
  7 10  1  0  0  0  0
  7  6  1  0  0  0  0
  8  9  2  0  0  0  0
  9  7  1  0  0  0  0
 10 12  1  0  0  0  0
 12 13  1  6  0  0  0
 12 11  1  0  0  0  0
 15 14  1  6  0  0  0
 15 16  1  0  0  0  0
 15 19  1  0  0  0  0
 16 18  2  0  0  0  0
 18 17  2  0  0  0  0
 19 21  1  0  0  0  0
 21 20  1  6  0  0  0
 22 21  1  0  0  0  0
 22 23  1  0  0  0  0
 23 24  2  0  0  0  0
 23 25  1  0  0  0  0
M  END
>  <MODEL>
5

>  <REMARK>
 VINA RESULT:      -6.3      1.882      6.227
  Name = 
  12 active torsions:
  status: ('A' for Active; 'I' for Inactive)
    1  A    between atoms: N_1  and  C_18
    2  A    between atoms: C_2  and  N_13
    3  A    between atoms: C_2  and  C_18
    4  A    between atoms: C_2  and  C_23
    5  A    between atoms: N_4  and  C_15
    6  A    between atoms: N_4  and  C_20
    7  A    between atoms: C_5  and  C_8
    8  A    between atoms: C_5  and  C_9
    9  A    between atoms: C_6  and  C_15
   10  A    between atoms: C_9  and  C_23
   11  A    between atoms: C_11  and  C_12
   12  A    between atoms: C_11  and  C_20
                            x       y       z     vdW  Elec       q    Type
                         _______ _______ _______ _____ _____    ______ ____

>  <TORSDO>
F 12

$$$$
=
 OpenBabel11062418103D

 25 25  0  0  1  0  0  0  0  0999 V2000
  189.8340  177.6310  142.7030 N   0  0  0  0  0  0  0  0  0  0  0  0
  190.9330  177.3700  141.7810 C   0  0  0  0  0  2  0  0  0  0  0  0
  188.9020  177.4000  141.6060 C   0  0  2  0  0  3  0  0  0  0  0  0
  190.0070  177.1550  140.6050 C   0  0  0  0  0  2  0  0  0  0  0  0
  188.1560  178.6880  141.2810 C   0  0  0  0  0  2  0  0  0  0  0  0
  186.9320  178.4020  140.4230 C   0  0  0  0  0  2  0  0  0  0  0  0
  185.7040  178.7540  141.1230 N   0  0  0  0  0  0  0  0  0  0  0  0
  184.7300  179.6180  143.0720 O   0  0  0  0  0  0  0  0  0  0  0  0
  185.7730  179.2760  142.4540 C   0  0  0  0  0  3  0  0  0  0  0  0
  184.4290  178.5640  140.4400 C   0  0  0  0  0  2  0  0  0  0  0  0
  184.2200  180.4460  138.9870 O   0  0  0  0  0  1  0  0  0  0  0  0
  184.5010  179.0800  139.0120 C   0  0  2  0  0  3  0  0  0  0  0  0
  183.5760  178.4080  138.2360 F   0  0  0  0  0  0  0  0  0  0  0  0
  189.7440  176.4860  143.6030 C   0  0  0  0  0  2  0  0  0  0  0  0
  189.7450  176.9310  145.0660 C   0  0  1  0  0  3  0  0  0  0  0  0
  191.0960  177.2570  145.4870 N   0  0  0  0  0  0  0  0  0  0  0  0
  192.3570  175.7010  146.9980 O   0  0  0  0  0  0  0  0  0  0  0  0
  191.7350  176.4690  146.2530 C   0  0  0  0  0  0  0  0  0  0  0  0
  188.8300  178.1270  145.2980 C   0  0  0  0  0  2  0  0  0  0  0  0
  188.2980  176.7600  147.1840 O   0  0  0  0  0  1  0  0  0  0  0  0
  187.8900  177.8880  146.4680 C   0  0  2  0  0  3  0  0  0  0  0  0
  186.4840  177.6730  145.9370 C   0  0  0  0  0  2  0  0  0  0  0  0
  185.5390  178.6530  146.5430 C   0  0  0  0  0  0  0  0  0  0  0  0
  184.1970  178.6360  146.1860 O   0  0  0  0  0  0  0  0  0  0  0  0
  185.9610  179.5140  147.3580 O   0  0  0  0  0  1  0  0  0  0  0  0
  1 14  1  0  0  0  0
  2  1  1  0  0  0  0
  3  5  1  6  0  0  0
  3  1  1  0  0  0  0
  4  3  1  0  0  0  0
  4  2  1  0  0  0  0
  6  7  1  0  0  0  0
  6  5  1  0  0  0  0
  7  9  1  0  0  0  0
  9  8  2  0  0  0  0
 10  7  1  0  0  0  0
 11 12  1  0  0  0  0
 12 13  1  6  0  0  0
 12 10  1  0  0  0  0
 15 14  1  6  0  0  0
 15 19  1  0  0  0  0
 15 16  1  0  0  0  0
 16 18  2  0  0  0  0
 18 17  2  0  0  0  0
 19 21  1  0  0  0  0
 21 20  1  6  0  0  0
 22 21  1  0  0  0  0
 22 23  1  0  0  0  0
 23 25  1  0  0  0  0
 24 23  2  0  0  0  0
M  END
>  <MODEL>
6

>  <REMARK>
 VINA RESULT:      -6.2      2.470      6.608
  Name = 
  12 active torsions:
  status: ('A' for Active; 'I' for Inactive)
    1  A    between atoms: N_1  and  C_18
    2  A    between atoms: C_2  and  N_13
    3  A    between atoms: C_2  and  C_18
    4  A    between atoms: C_2  and  C_23
    5  A    between atoms: N_4  and  C_15
    6  A    between atoms: N_4  and  C_20
    7  A    between atoms: C_5  and  C_8
    8  A    between atoms: C_5  and  C_9
    9  A    between atoms: C_6  and  C_15
   10  A    between atoms: C_9  and  C_23
   11  A    between atoms: C_11  and  C_12
   12  A    between atoms: C_11  and  C_20
                            x       y       z     vdW  Elec       q    Type
                         _______ _______ _______ _____ _____    ______ ____

>  <TORSDO>
F 12

$$$$
=
 OpenBabel11062418103D

 25 25  0  0  1  0  0  0  0  0999 V2000
  190.3470  177.8740  144.5090 N   0  0  0  0  0  0  0  0  0  0  0  0
  191.6840  178.3790  144.2210 C   0  0  0  0  0  2  0  0  0  0  0  0
  190.2520  177.4320  143.1220 C   0  0  2  0  0  3  0  0  0  0  0  0
  191.6200  177.9700  142.7680 C   0  0  0  0  0  2  0  0  0  0  0  0
  189.1620  178.2170  142.4030 C   0  0  0  0  0  2  0  0  0  0  0  0
  188.4890  177.3580  141.3400 C   0  0  0  0  0  2  0  0  0  0  0  0
  187.5150  178.1280  140.5800 N   0  0  0  0  0  0  0  0  0  0  0  0
  185.6190  179.5050  140.6390 O   0  0  0  0  0  0  0  0  0  0  0  0
  186.4570  178.8060  141.2670 C   0  0  0  0  0  3  0  0  0  0  0  0
  187.6470  178.1880  139.1290 C   0  0  0  0  0  2  0  0  0  0  0  0
  188.9530  179.5980  137.7140 O   0  0  0  0  0  1  0  0  0  0  0  0
  189.0410  178.6520  138.7340 C   0  0  2  0  0  3  0  0  0  0  0  0
  189.7750  177.5680  138.2930 F   0  0  0  0  0  0  0  0  0  0  0  0
  190.5030  176.6820  145.3370 C   0  0  0  0  0  2  0  0  0  0  0  0
  189.9460  176.9090  146.7430 C   0  0  1  0  0  3  0  0  0  0  0  0
  191.0260  176.9030  147.7140 N   0  0  0  0  0  0  0  0  0  0  0  0
  192.9720  175.3470  147.4280 O   0  0  0  0  0  0  0  0  0  0  0  0
  192.0120  176.1150  147.5690 C   0  0  0  0  0  0  0  0  0  0  0  0
  189.1700  178.2170  146.8420 C   0  0  0  0  0  2  0  0  0  0  0  0
  187.7220  177.0600  148.3520 O   0  0  0  0  0  1  0  0  0  0  0  0
  187.7410  177.9790  147.3000 C   0  0  2  0  0  3  0  0  0  0  0  0
  186.9310  177.4370  146.1350 C   0  0  0  0  0  2  0  0  0  0  0  0
  185.7320  178.2850  145.8890 C   0  0  0  0  0  0  0  0  0  0  0  0
  185.0130  178.8010  146.9590 O   0  0  0  0  0  1  0  0  0  0  0  0
  185.3520  178.5120  144.7100 O   0  0  0  0  0  0  0  0  0  0  0  0
  1 14  1  0  0  0  0
  2  1  1  0  0  0  0
  3  5  1  6  0  0  0
  3  1  1  0  0  0  0
  4  3  1  0  0  0  0
  4  2  1  0  0  0  0
  6  5  1  0  0  0  0
  7  9  1  0  0  0  0
  7  6  1  0  0  0  0
  8  9  2  0  0  0  0
 10  7  1  0  0  0  0
 12 11  1  6  0  0  0
 12 10  1  0  0  0  0
 13 12  1  0  0  0  0
 15 14  1  6  0  0  0
 15 19  1  0  0  0  0
 15 16  1  0  0  0  0
 17 18  2  0  0  0  0
 18 16  2  0  0  0  0
 19 21  1  0  0  0  0
 21 20  1  1  0  0  0
 22 21  1  0  0  0  0
 23 22  1  0  0  0  0
 23 24  1  0  0  0  0
 25 23  2  0  0  0  0
M  END
>  <MODEL>
7

>  <REMARK>
 VINA RESULT:      -6.2      2.751      6.880
  Name = 
  12 active torsions:
  status: ('A' for Active; 'I' for Inactive)
    1  A    between atoms: N_1  and  C_18
    2  A    between atoms: C_2  and  N_13
    3  A    between atoms: C_2  and  C_18
    4  A    between atoms: C_2  and  C_23
    5  A    between atoms: N_4  and  C_15
    6  A    between atoms: N_4  and  C_20
    7  A    between atoms: C_5  and  C_8
    8  A    between atoms: C_5  and  C_9
    9  A    between atoms: C_6  and  C_15
   10  A    between atoms: C_9  and  C_23
   11  A    between atoms: C_11  and  C_12
   12  A    between atoms: C_11  and  C_20
                            x       y       z     vdW  Elec       q    Type
                         _______ _______ _______ _____ _____    ______ ____

>  <TORSDO>
F 12

$$$$
=
 OpenBabel11062418103D

 25 25  0  0  1  0  0  0  0  0999 V2000
  190.4960  176.5970  142.8100 N   0  0  0  0  0  0  0  0  0  0  0  0
  191.5790  176.0230  143.5990 C   0  0  0  0  0  2  0  0  0  0  0  0
  190.0440  177.3010  144.0040 C   0  0  2  0  0  3  0  0  0  0  0  0
  191.1300  176.7060  144.8700 C   0  0  0  0  0  2  0  0  0  0  0  0
  188.6740  176.7820  144.4240 C   0  0  0  0  0  2  0  0  0  0  0  0
  187.6760  177.9250  144.5440 C   0  0  0  0  0  2  0  0  0  0  0  0
  187.0420  177.9360  145.8550 N   0  0  0  0  0  0  0  0  0  0  0  0
  185.2110  178.6220  147.1480 O   0  0  0  0  0  0  0  0  0  0  0  0
  185.7980  178.6230  146.0340 C   0  0  0  0  0  3  0  0  0  0  0  0
  187.6970  177.2380  146.9560 C   0  0  0  0  0  2  0  0  0  0  0  0
  189.7960  177.5060  148.0600 O   0  0  0  0  0  1  0  0  0  0  0  0
  188.6240  178.1770  147.7120 C   0  0  2  0  0  3  0  0  0  0  0  0
  187.9920  178.6190  148.8580 F   0  0  0  0  0  0  0  0  0  0  0  0
  191.0870  177.5860  141.9160 C   0  0  0  0  0  2  0  0  0  0  0  0
  190.4790  177.5000  140.5150 C   0  0  1  0  0  3  0  0  0  0  0  0
  191.2840  176.6310  139.6740 N   0  0  0  0  0  0  0  0  0  0  0  0
  193.6990  177.1630  139.2570 O   0  0  0  0  0  0  0  0  0  0  0  0
  192.5080  176.9000  139.4630 C   0  0  0  0  0  0  0  0  0  0  0  0
  189.0410  176.9970  140.5500 C   0  0  0  0  0  2  0  0  0  0  0  0
  188.7260  179.0080  139.2980 O   0  0  0  0  0  1  0  0  0  0  0  0
  188.0670  178.0720  140.0980 C   0  0  2  0  0  3  0  0  0  0  0  0
  187.4910  178.7640  141.3210 C   0  0  0  0  0  2  0  0  0  0  0  0
  186.0330  179.0140  141.1450 C   0  0  0  0  0  0  0  0  0  0  0  0
  185.4760  179.0150  139.8730 O   0  0  0  0  0  0  0  0  0  0  0  0
  185.3090  179.2510  142.1480 O   0  0  0  0  0  1  0  0  0  0  0  0
  1  2  1  0  0  0  0
  1  3  1  0  0  0  0
  2  4  1  0  0  0  0
  3  5  1  1  0  0  0
  3  4  1  0  0  0  0
  5  6  1  0  0  0  0
  6  7  1  0  0  0  0
  7  9  1  0  0  0  0
  7 10  1  0  0  0  0
  9  8  2  0  0  0  0
 10 12  1  0  0  0  0
 12 11  1  1  0  0  0
 12 13  1  0  0  0  0
 14  1  1  0  0  0  0
 15 19  1  1  0  0  0
 15 14  1  0  0  0  0
 16 15  1  0  0  0  0
 17 18  2  0  0  0  0
 18 16  2  0  0  0  0
 21 20  1  6  0  0  0
 21 19  1  0  0  0  0
 21 22  1  0  0  0  0
 23 22  1  0  0  0  0
 23 25  1  0  0  0  0
 24 23  2  0  0  0  0
M  END
>  <MODEL>
8

>  <REMARK>
 VINA RESULT:      -6.1      2.533      4.793
  Name = 
  12 active torsions:
  status: ('A' for Active; 'I' for Inactive)
    1  A    between atoms: N_1  and  C_18
    2  A    between atoms: C_2  and  N_13
    3  A    between atoms: C_2  and  C_18
    4  A    between atoms: C_2  and  C_23
    5  A    between atoms: N_4  and  C_15
    6  A    between atoms: N_4  and  C_20
    7  A    between atoms: C_5  and  C_8
    8  A    between atoms: C_5  and  C_9
    9  A    between atoms: C_6  and  C_15
   10  A    between atoms: C_9  and  C_23
   11  A    between atoms: C_11  and  C_12
   12  A    between atoms: C_11  and  C_20
                            x       y       z     vdW  Elec       q    Type
                         _______ _______ _______ _____ _____    ______ ____

>  <TORSDO>
F 12

$$$$
=
 OpenBabel11062418103D

 25 25  0  0  1  0  0  0  0  0999 V2000
  190.4960  176.5570  142.7890 N   0  0  0  0  0  0  0  0  0  0  0  0
  191.5790  176.0480  143.6220 C   0  0  0  0  0  2  0  0  0  0  0  0
  190.0040  177.3020  143.9430 C   0  0  2  0  0  3  0  0  0  0  0  0
  191.0890  176.7750  144.8530 C   0  0  0  0  0  2  0  0  0  0  0  0
  188.6410  176.7660  144.3610 C   0  0  0  0  0  2  0  0  0  0  0  0
  187.6190  177.8920  144.4420 C   0  0  0  0  0  2  0  0  0  0  0  0
  186.9750  177.9270  145.7480 N   0  0  0  0  0  0  0  0  0  0  0  0
  185.1270  178.6220  147.0110 O   0  0  0  0  0  0  0  0  0  0  0  0
  185.7220  178.6040  145.9010 C   0  0  0  0  0  3  0  0  0  0  0  0
  187.6290  177.2640  146.8700 C   0  0  0  0  0  2  0  0  0  0  0  0
  189.6460  177.5380  148.1180 O   0  0  0  0  0  1  0  0  0  0  0  0
  188.5480  178.2280  147.6030 C   0  0  2  0  0  3  0  0  0  0  0  0
  187.8540  178.8220  148.6400 F   0  0  0  0  0  0  0  0  0  0  0  0
  191.0790  177.5210  141.8620 C   0  0  0  0  0  2  0  0  0  0  0  0
  190.3960  177.4570  140.4960 C   0  0  1  0  0  3  0  0  0  0  0  0
  190.9290  176.3500  139.7220 N   0  0  0  0  0  0  0  0  0  0  0  0
  192.6890  176.7590  137.9820 O   0  0  0  0  0  0  0  0  0  0  0  0
  191.8210  176.5570  138.8400 C   0  0  0  0  0  0  0  0  0  0  0  0
  188.8830  177.3160  140.6230 C   0  0  0  0  0  2  0  0  0  0  0  0
  186.9160  178.6060  140.2000 O   0  0  0  0  0  1  0  0  0  0  0  0
  188.1580  178.2510  139.6690 C   0  0  2  0  0  3  0  0  0  0  0  0
  187.9610  177.5450  138.3390 C   0  0  0  0  0  2  0  0  0  0  0  0
  188.7230  178.2340  137.2600 C   0  0  0  0  0  0  0  0  0  0  0  0
  189.4100  177.4900  136.3100 O   0  0  0  0  0  0  0  0  0  0  0  0
  188.7670  179.4910  137.2250 O   0  0  0  0  0  1  0  0  0  0  0  0
  1  2  1  0  0  0  0
  1  3  1  0  0  0  0
  2  4  1  0  0  0  0
  3  5  1  1  0  0  0
  3  4  1  0  0  0  0
  5  6  1  0  0  0  0
  6  7  1  0  0  0  0
  7  9  1  0  0  0  0
  7 10  1  0  0  0  0
  9  8  2  0  0  0  0
 10 12  1  0  0  0  0
 12 11  1  1  0  0  0
 12 13  1  0  0  0  0
 14  1  1  0  0  0  0
 15 19  1  1  0  0  0
 15 14  1  0  0  0  0
 16 15  1  0  0  0  0
 17 18  2  0  0  0  0
 18 16  2  0  0  0  0
 21 20  1  1  0  0  0
 21 19  1  0  0  0  0
 22 21  1  0  0  0  0
 23 22  1  0  0  0  0
 24 23  2  0  0  0  0
 25 23  1  0  0  0  0
M  END
>  <MODEL>
9

>  <REMARK>
 VINA RESULT:      -6.0      3.249      5.665
  Name = 
  12 active torsions:
  status: ('A' for Active; 'I' for Inactive)
    1  A    between atoms: N_1  and  C_18
    2  A    between atoms: C_2  and  N_13
    3  A    between atoms: C_2  and  C_18
    4  A    between atoms: C_2  and  C_23
    5  A    between atoms: N_4  and  C_15
    6  A    between atoms: N_4  and  C_20
    7  A    between atoms: C_5  and  C_8
    8  A    between atoms: C_5  and  C_9
    9  A    between atoms: C_6  and  C_15
   10  A    between atoms: C_9  and  C_23
   11  A    between atoms: C_11  and  C_12
   12  A    between atoms: C_11  and  C_20
                            x       y       z     vdW  Elec       q    Type
                         _______ _______ _______ _____ _____    ______ ____

>  <TORSDO>
F 12

$$$$
