=
 OpenBabel11062415203D

 41 47  0  0  1  0  0  0  0  0999 V2000
  192.0450  176.6800  136.3090 C   0  0  0  0  0  3  0  0  0  0  0  0
  193.3710  176.0140  138.9440 C   0  0  0  0  0  2  0  0  0  0  0  0
  191.3940  176.7380  137.6240 C   0  0  0  0  0  0  0  0  0  0  0  0
  187.8420  178.1380  139.1520 C   0  0  0  0  0  0  0  0  0  0  0  0
  191.1790  176.6890  139.8150 N   0  0  0  0  0  0  0  0  0  0  0  0
  190.1480  177.2380  137.9100 C   0  0  0  0  0  0  0  0  0  0  0  0
  187.3330  177.6110  141.8900 C   0  0  1  0  0  3  0  0  0  0  0  0
  186.6680  178.5820  139.7650 O   0  0  0  0  0  0  0  0  0  0  0  0
  190.0430  177.1770  139.2770 C   0  0  0  0  0  0  0  0  0  0  0  0
  191.9860  176.4210  138.7950 N   0  0  0  0  0  0  0  0  0  0  0  0
  193.6310  174.7820  138.1420 C   0  0  0  0  0  3  0  0  0  0  0  0
  192.9950  175.8000  135.9460 C   0  0  0  0  0  0  0  0  0  0  0  0
  189.1300  177.7390  137.1030 C   0  0  0  0  0  3  0  0  0  0  0  0
  186.5700  178.7320  141.1830 C   0  0  0  0  0  2  0  0  0  0  0  0
  193.4700  174.6700  136.8140 C   0  0  0  0  0  0  0  0  0  0  0  0
  187.9610  178.1900  137.7440 C   0  0  0  0  0  3  0  0  0  0  0  0
  188.7950  177.5910  141.4370 C   0  0  0  0  0  2  0  0  0  0  0  0
  188.8970  177.6140  139.9390 C   0  0  0  0  0  0  0  0  0  0  0  0
  189.5490  177.2360  144.0530 C   0  0  0  0  0  3  0  0  0  0  0  0
  184.7440  178.2350  143.4910 C   0  0  0  0  0  2  0  0  0  0  0  0
  186.3870  178.0840  145.3990 C   0  0  0  0  0  0  0  0  0  0  0  0
  184.1160  178.9530  145.8230 C   0  0  0  0  0  3  0  0  0  0  0  0
  183.8540  178.9340  144.4990 C   0  0  0  0  0  3  0  0  0  0  0  0
  187.2430  177.7580  143.3410 N   0  0  0  0  0  0  0  0  0  0  0  0
  190.3740  177.0870  145.1820 C   0  0  0  0  0  3  0  0  0  0  0  0
  187.7200  177.7720  145.5380 C   0  0  0  0  0  0  0  0  0  0  0  0
  185.3270  178.2790  146.4360 C   0  0  0  0  0  2  0  0  0  0  0  0
  189.8630  177.2800  146.4900 C   0  0  0  0  0  0  0  0  0  0  0  0
  186.1270  178.0630  144.0430 C   0  0  0  0  0  0  0  0  0  0  0  0
  188.2160  177.5850  144.2670 C   0  0  0  0  0  0  0  0  0  0  0  0
  188.5120  177.6240  146.6730 C   0  0  0  0  0  3  0  0  0  0  0  0
  190.7000  177.1310  147.6410 N   0  0  0  0  0  2  0  0  0  0  0  0
  192.7960  175.6600  147.6590 N   0  0  0  0  0  0  0  0  0  0  0  0
  191.8480  176.3250  147.6510 C   0  0  0  0  0  0  0  0  0  0  0  0
  192.7530  172.3910  135.7970 C   0  0  0  0  0  1  0  0  0  0  0  0
  195.0150  173.0110  136.0780 O   0  0  0  0  0  0  0  0  0  0  0  0
  193.8100  173.3560  136.2120 C   0  0  0  0  0  0  0  0  0  0  0  0
  193.6330  175.9860  134.5970 C   0  0  0  0  0  2  0  0  0  0  0  0
  194.9710  176.6500  134.6770 C   0  0  0  0  0  0  0  0  0  0  0  0
  195.0580  177.9050  134.6990 O   0  0  0  0  0  0  0  0  0  0  0  0
  196.1220  175.8770  134.7580 O   0  0  0  0  0  1  0  0  0  0  0  0
  1  3  1  0  0  0  0
  3  6  2  0  0  0  0
  3 10  1  0  0  0  0
  4  8  1  0  0  0  0
  4 18  2  0  0  0  0
  6  9  1  0  0  0  0
  7 14  1  6  0  0  0
  7 24  1  0  0  0  0
  8 14  1  0  0  0  0
  9  5  2  0  0  0  0
  9 18  1  0  0  0  0
 10  2  1  0  0  0  0
 10  5  1  0  0  0  0
 11  2  1  0  0  0  0
 12  1  2  0  0  0  0
 12 15  1  0  0  0  0
 13 16  2  0  0  0  0
 13  6  1  0  0  0  0
 15 11  2  0  0  0  0
 16  4  1  0  0  0  0
 17  7  1  0  0  0  0
 18 17  1  0  0  0  0
 19 30  2  0  0  0  0
 19 25  1  0  0  0  0
 20 29  1  0  0  0  0
 20 23  1  0  0  0  0
 21 26  1  0  0  0  0
 21 27  1  0  0  0  0
 22 27  1  0  0  0  0
 23 22  2  0  0  0  0
 24 29  1  0  0  0  0
 24 30  1  0  0  0  0
 25 28  2  0  0  0  0
 26 31  2  0  0  0  0
 28 31  1  0  0  0  0
 28 32  1  0  0  0  0
 29 21  2  0  0  0  0
 30 26  1  0  0  0  0
 32 34  1  0  0  0  0
 34 33  3  0  0  0  0
 35 37  1  0  0  0  0
 36 37  2  0  0  0  0
 37 15  1  0  0  0  0
 38 39  1  0  0  0  0
 38 12  1  0  0  0  0
 39 40  2  0  0  0  0
 39 41  1  0  0  0  0
M  END
>  <MODEL>
1

>  <REMARK>
 VINA RESULT:     -10.5      0.000      0.000
  Name = 
  6 active torsions:
  status: ('A' for Active; 'I' for Inactive)
    1  A    between atoms: N_11  and  C_19
    2  A    between atoms: N_15  and  C_23
    3  A    between atoms: N_15  and  C_41
    4  A    between atoms: C_20  and  C_25
    5  A    between atoms: C_20  and  C_30
    6  A    between atoms: C_22  and  C_34
                            x       y       z     vdW  Elec       q    Type
                         _______ _______ _______ _____ _____    ______ ____

>  <TORSDO>
F 6

$$$$
=
 OpenBabel11062415203D

 41 47  0  0  1  0  0  0  0  0999 V2000
  187.4970  177.3640  145.6750 C   0  0  0  0  0  3  0  0  0  0  0  0
  188.2390  176.5070  142.8710 C   0  0  0  0  0  2  0  0  0  0  0  0
  186.6950  177.6180  144.4720 C   0  0  0  0  0  0  0  0  0  0  0  0
  182.9260  179.0240  143.6220 C   0  0  0  0  0  0  0  0  0  0  0  0
  186.0590  177.5130  142.3660 N   0  0  0  0  0  0  0  0  0  0  0  0
  185.4270  178.1390  144.4170 C   0  0  0  0  0  0  0  0  0  0  0  0
  182.2830  179.3830  140.8840 C   0  0  1  0  0  3  0  0  0  0  0  0
  181.6660  179.4870  143.2320 O   0  0  0  0  0  0  0  0  0  0  0  0
  185.0700  178.0730  143.0930 C   0  0  0  0  0  0  0  0  0  0  0  0
  187.0410  177.2490  143.2200 N   0  0  0  0  0  0  0  0  0  0  0  0
  189.4510  177.2640  143.2990 C   0  0  0  0  0  3  0  0  0  0  0  0
  188.8400  177.3260  145.7250 C   0  0  0  0  0  0  0  0  0  0  0  0
  184.5750  178.6410  145.3960 C   0  0  0  0  0  3  0  0  0  0  0  0
  181.1590  179.2670  141.9150 C   0  0  0  0  0  2  0  0  0  0  0  0
  189.7340  177.6340  144.5590 C   0  0  0  0  0  0  0  0  0  0  0  0
  183.3080  179.0920  144.9810 C   0  0  0  0  0  3  0  0  0  0  0  0
  183.4120  178.4030  141.2120 C   0  0  0  0  0  2  0  0  0  0  0  0
  183.8240  178.5140  142.6520 C   0  0  0  0  0  0  0  0  0  0  0  0
  181.5390  181.4580  138.6770 C   0  0  0  0  0  3  0  0  0  0  0  0
  181.5620  176.6170  139.6650 C   0  0  0  0  0  2  0  0  0  0  0  0
  180.9930  178.0990  137.7040 C   0  0  0  0  0  0  0  0  0  0  0  0
  181.0570  175.6510  137.3930 C   0  0  0  0  0  3  0  0  0  0  0  0
  181.5440  175.4990  138.6430 C   0  0  0  0  0  3  0  0  0  0  0  0
  181.7750  179.1540  139.5340 N   0  0  0  0  0  0  0  0  0  0  0  0
  181.1170  182.2100  137.5670 C   0  0  0  0  0  3  0  0  0  0  0  0
  180.9630  179.4530  137.4590 C   0  0  0  0  0  0  0  0  0  0  0  0
  180.4820  176.9580  136.8840 C   0  0  0  0  0  2  0  0  0  0  0  0
  180.6150  181.5760  136.4030 C   0  0  0  0  0  0  0  0  0  0  0  0
  181.4910  177.9510  138.9830 C   0  0  0  0  0  0  0  0  0  0  0  0
  181.4520  180.0690  138.5890 C   0  0  0  0  0  0  0  0  0  0  0  0
  180.5310  180.1720  136.3490 C   0  0  0  0  0  3  0  0  0  0  0  0
  180.1850  182.3370  135.2710 N   0  0  0  0  0  2  0  0  0  0  0  0
  180.7990  184.8000  134.9340 N   0  0  0  0  0  0  0  0  0  0  0  0
  180.5220  183.6870  135.0860 C   0  0  0  0  0  0  0  0  0  0  0  0
  191.2290  179.7290  144.2130 C   0  0  0  0  0  1  0  0  0  0  0  0
  191.9610  177.8150  145.3880 O   0  0  0  0  0  0  0  0  0  0  0  0
  191.0110  178.3630  144.7660 C   0  0  0  0  0  0  0  0  0  0  0  0
  189.4740  176.9190  147.0270 C   0  0  0  0  0  2  0  0  0  0  0  0
  188.9920  177.7350  148.1850 C   0  0  0  0  0  0  0  0  0  0  0  0
  189.6350  178.7490  148.5600 O   0  0  0  0  0  0  0  0  0  0  0  0
  187.8120  177.3890  148.8300 O   0  0  0  0  0  1  0  0  0  0  0  0
  1 12  2  0  0  0  0
  2 10  1  0  0  0  0
  2 11  1  0  0  0  0
  3  1  1  0  0  0  0
  4 16  1  0  0  0  0
  5  9  2  0  0  0  0
  5 10  1  0  0  0  0
  6  3  2  0  0  0  0
  6 13  1  0  0  0  0
  7 24  1  6  0  0  0
  7 17  1  0  0  0  0
  7 14  1  0  0  0  0
  8  4  1  0  0  0  0
  9  6  1  0  0  0  0
 10  3  1  0  0  0  0
 11 15  2  0  0  0  0
 12 38  1  0  0  0  0
 14  8  1  0  0  0  0
 15 37  1  0  0  0  0
 15 12  1  0  0  0  0
 16 13  2  0  0  0  0
 17 18  1  0  0  0  0
 18  9  1  0  0  0  0
 18  4  2  0  0  0  0
 21 29  2  0  0  0  0
 22 23  2  0  0  0  0
 23 20  1  0  0  0  0
 25 19  2  0  0  0  0
 26 21  1  0  0  0  0
 26 30  2  0  0  0  0
 27 22  1  0  0  0  0
 27 21  1  0  0  0  0
 28 25  1  0  0  0  0
 29 24  1  0  0  0  0
 29 20  1  0  0  0  0
 30 19  1  0  0  0  0
 30 24  1  0  0  0  0
 31 28  2  0  0  0  0
 31 26  1  0  0  0  0
 32 28  1  0  0  0  0
 33 34  3  0  0  0  0
 34 32  1  0  0  0  0
 35 37  1  0  0  0  0
 37 36  2  0  0  0  0
 38 39  1  0  0  0  0
 39 40  2  0  0  0  0
 39 41  1  0  0  0  0
M  END
>  <MODEL>
2

>  <REMARK>
 VINA RESULT:     -10.5      5.902     10.603
  Name = 
  6 active torsions:
  status: ('A' for Active; 'I' for Inactive)
    1  A    between atoms: N_11  and  C_19
    2  A    between atoms: N_15  and  C_23
    3  A    between atoms: N_15  and  C_41
    4  A    between atoms: C_20  and  C_25
    5  A    between atoms: C_20  and  C_30
    6  A    between atoms: C_22  and  C_34
                            x       y       z     vdW  Elec       q    Type
                         _______ _______ _______ _____ _____    ______ ____

>  <TORSDO>
F 6

$$$$
=
 OpenBabel11062415203D

 41 47  0  0  1  0  0  0  0  0999 V2000
  187.5490  177.4350  145.6760 C   0  0  0  0  0  3  0  0  0  0  0  0
  188.2420  176.4300  142.9100 C   0  0  0  0  0  2  0  0  0  0  0  0
  186.7300  177.6310  144.4730 C   0  0  0  0  0  0  0  0  0  0  0  0
  182.9560  179.0160  143.6100 C   0  0  0  0  0  0  0  0  0  0  0  0
  186.0600  177.4220  142.3870 N   0  0  0  0  0  0  0  0  0  0  0  0
  185.4630  178.1570  144.4110 C   0  0  0  0  0  0  0  0  0  0  0  0
  182.2720  179.2370  140.8680 C   0  0  1  0  0  3  0  0  0  0  0  0
  181.6920  179.4660  143.2150 O   0  0  0  0  0  0  0  0  0  0  0  0
  185.0860  178.0250  143.0980 C   0  0  0  0  0  0  0  0  0  0  0  0
  187.0540  177.1960  143.2370 N   0  0  0  0  0  0  0  0  0  0  0  0
  189.4650  177.2000  143.2790 C   0  0  0  0  0  3  0  0  0  0  0  0
  188.8930  177.3910  145.7080 C   0  0  0  0  0  0  0  0  0  0  0  0
  184.6300  178.7140  145.3760 C   0  0  0  0  0  3  0  0  0  0  0  0
  181.1640  179.1810  141.9190 C   0  0  0  0  0  2  0  0  0  0  0  0
  189.7700  177.6330  144.5130 C   0  0  0  0  0  0  0  0  0  0  0  0
  183.3590  179.1510  144.9580 C   0  0  0  0  0  3  0  0  0  0  0  0
  183.4010  178.2670  141.2290 C   0  0  0  0  0  2  0  0  0  0  0  0
  183.8350  178.4510  142.6540 C   0  0  0  0  0  0  0  0  0  0  0  0
  181.5160  176.4840  139.6110 C   0  0  0  0  0  3  0  0  0  0  0  0
  181.8070  181.3110  138.6010 C   0  0  0  0  0  2  0  0  0  0  0  0
  181.0400  179.2200  137.4160 C   0  0  0  0  0  0  0  0  0  0  0  0
  180.6120  181.4210  136.3850 C   0  0  0  0  0  3  0  0  0  0  0  0
  181.0650  182.0380  137.4980 C   0  0  0  0  0  3  0  0  0  0  0  0
  181.7420  178.9410  139.5390 N   0  0  0  0  0  0  0  0  0  0  0  0
  181.1500  175.3620  138.8460 C   0  0  0  0  0  3  0  0  0  0  0  0
  180.9960  177.8750  137.7050 C   0  0  0  0  0  0  0  0  0  0  0  0
  180.7980  179.9390  136.1280 C   0  0  0  0  0  2  0  0  0  0  0  0
  180.7100  175.5040  137.5060 C   0  0  0  0  0  0  0  0  0  0  0  0
  181.5040  179.8430  138.5580 C   0  0  0  0  0  0  0  0  0  0  0  0
  181.4230  177.7370  139.0070 C   0  0  0  0  0  0  0  0  0  0  0  0
  180.6360  176.7820  136.9220 C   0  0  0  0  0  3  0  0  0  0  0  0
  180.3360  174.3660  136.7250 N   0  0  0  0  0  2  0  0  0  0  0  0
  180.3270  171.9800  137.6540 N   0  0  0  0  0  0  0  0  0  0  0  0
  180.3310  173.0580  137.2340 C   0  0  0  0  0  0  0  0  0  0  0  0
  191.2540  179.7190  144.0790 C   0  0  0  0  0  1  0  0  0  0  0  0
  192.0250  177.8250  145.2610 O   0  0  0  0  0  0  0  0  0  0  0  0
  191.0540  178.3630  144.6630 C   0  0  0  0  0  0  0  0  0  0  0  0
  189.5440  177.0480  147.0190 C   0  0  0  0  0  2  0  0  0  0  0  0
  188.9080  177.7460  148.1800 C   0  0  0  0  0  0  0  0  0  0  0  0
  189.3060  178.8860  148.5330 O   0  0  0  0  0  0  0  0  0  0  0  0
  187.8540  177.1430  148.8550 O   0  0  0  0  0  1  0  0  0  0  0  0
  1 12  2  0  0  0  0
  2 10  1  0  0  0  0
  2 11  1  0  0  0  0
  3  1  1  0  0  0  0
  4 16  1  0  0  0  0
  5  9  2  0  0  0  0
  5 10  1  0  0  0  0
  6  3  2  0  0  0  0
  6 13  1  0  0  0  0
  7 24  1  6  0  0  0
  7 17  1  0  0  0  0
  7 14  1  0  0  0  0
  8  4  1  0  0  0  0
  9  6  1  0  0  0  0
 10  3  1  0  0  0  0
 11 15  2  0  0  0  0
 12 38  1  0  0  0  0
 14  8  1  0  0  0  0
 15 37  1  0  0  0  0
 15 12  1  0  0  0  0
 16 13  2  0  0  0  0
 17 18  1  0  0  0  0
 18  9  1  0  0  0  0
 18  4  2  0  0  0  0
 21 26  1  0  0  0  0
 21 29  2  0  0  0  0
 22 23  2  0  0  0  0
 23 20  1  0  0  0  0
 25 19  2  0  0  0  0
 26 30  2  0  0  0  0
 27 22  1  0  0  0  0
 27 21  1  0  0  0  0
 28 25  1  0  0  0  0
 29 20  1  0  0  0  0
 29 24  1  0  0  0  0
 30 24  1  0  0  0  0
 30 19  1  0  0  0  0
 31 28  2  0  0  0  0
 31 26  1  0  0  0  0
 32 34  1  0  0  0  0
 32 28  1  0  0  0  0
 34 33  3  0  0  0  0
 35 37  1  0  0  0  0
 37 36  2  0  0  0  0
 38 39  1  0  0  0  0
 39 40  2  0  0  0  0
 39 41  1  0  0  0  0
M  END
>  <MODEL>
3

>  <REMARK>
 VINA RESULT:     -10.3      5.875     10.197
  Name = 
  6 active torsions:
  status: ('A' for Active; 'I' for Inactive)
    1  A    between atoms: N_11  and  C_19
    2  A    between atoms: N_15  and  C_23
    3  A    between atoms: N_15  and  C_41
    4  A    between atoms: C_20  and  C_25
    5  A    between atoms: C_20  and  C_30
    6  A    between atoms: C_22  and  C_34
                            x       y       z     vdW  Elec       q    Type
                         _______ _______ _______ _____ _____    ______ ____

>  <TORSDO>
F 6

$$$$
=
 OpenBabel11062415203D

 41 47  0  0  1  0  0  0  0  0999 V2000
  180.8870  179.2870  140.6540 C   0  0  0  0  0  3  0  0  0  0  0  0
  183.1910  178.7130  138.7810 C   0  0  0  0  0  2  0  0  0  0  0  0
  182.2360  178.8840  141.0690 C   0  0  0  0  0  0  0  0  0  0  0  0
  184.3370  178.6270  144.5950 C   0  0  0  0  0  0  0  0  0  0  0  0
  184.3770  178.3930  140.9050 N   0  0  0  0  0  0  0  0  0  0  0  0
  182.7320  178.8440  142.3490 C   0  0  0  0  0  0  0  0  0  0  0  0
  186.9340  177.5000  144.4560 C   0  0  1  0  0  3  0  0  0  0  0  0
  185.1330  178.5070  145.7370 O   0  0  0  0  0  0  0  0  0  0  0  0
  184.0580  178.5210  142.2090 C   0  0  0  0  0  0  0  0  0  0  0  0
  183.2560  178.6110  140.2270 N   0  0  0  0  0  0  0  0  0  0  0  0
  182.1250  177.8120  138.2520 C   0  0  0  0  0  3  0  0  0  0  0  0
  180.2620  178.8840  139.5330 C   0  0  0  0  0  0  0  0  0  0  0  0
  182.1440  179.0710  143.5900 C   0  0  0  0  0  3  0  0  0  0  0  0
  186.5520  178.3700  145.6540 C   0  0  0  0  0  2  0  0  0  0  0  0
  180.8230  177.8740  138.5740 C   0  0  0  0  0  0  0  0  0  0  0  0
  182.9680  178.9540  144.7250 C   0  0  0  0  0  3  0  0  0  0  0  0
  186.3590  178.0860  143.1640 C   0  0  0  0  0  2  0  0  0  0  0  0
  184.8980  178.3950  143.3150 C   0  0  0  0  0  0  0  0  0  0  0  0
  188.7590  177.5650  141.9270 C   0  0  0  0  0  3  0  0  0  0  0  0
  188.8580  176.8960  146.8200 C   0  0  0  0  0  2  0  0  0  0  0  0
  190.5340  177.0110  144.9390 C   0  0  0  0  0  0  0  0  0  0  0  0
  191.3360  176.9420  147.2720 C   0  0  0  0  0  3  0  0  0  0  0  0
  190.0670  177.0570  147.7190 C   0  0  0  0  0  3  0  0  0  0  0  0
  188.3850  177.3580  144.3580 N   0  0  0  0  0  0  0  0  0  0  0  0
  189.7510  177.5270  140.9310 C   0  0  0  0  0  3  0  0  0  0  0  0
  190.4820  177.1670  143.5730 C   0  0  0  0  0  0  0  0  0  0  0  0
  191.6790  176.6430  145.8260 C   0  0  0  0  0  2  0  0  0  0  0  0
  191.1110  177.3050  141.2640 C   0  0  0  0  0  0  0  0  0  0  0  0
  189.2330  177.1290  145.3870 C   0  0  0  0  0  0  0  0  0  0  0  0
  189.1610  177.3840  143.2490 C   0  0  0  0  0  0  0  0  0  0  0  0
  191.4840  177.1160  142.6070 C   0  0  0  0  0  3  0  0  0  0  0  0
  192.1230  177.2650  140.2540 N   0  0  0  0  0  2  0  0  0  0  0  0
  191.7140  176.3300  137.9060 N   0  0  0  0  0  0  0  0  0  0  0  0
  191.8990  176.7530  138.9670 C   0  0  0  0  0  0  0  0  0  0  0  0
  179.4230  175.6880  138.6290 C   0  0  0  0  0  1  0  0  0  0  0  0
  179.6060  177.0420  136.7010 O   0  0  0  0  0  0  0  0  0  0  0  0
  179.9270  176.8930  137.9120 C   0  0  0  0  0  0  0  0  0  0  0  0
  178.9320  179.5130  139.2180 C   0  0  0  0  0  2  0  0  0  0  0  0
  179.0480  180.6690  138.2750 C   0  0  0  0  0  0  0  0  0  0  0  0
  179.2190  181.8340  138.7170 O   0  0  0  0  0  1  0  0  0  0  0  0
  178.9960  180.4510  136.9050 O   0  0  0  0  0  0  0  0  0  0  0  0
  1  3  1  0  0  0  0
  2 10  1  0  0  0  0
  3  6  2  0  0  0  0
  4 16  1  0  0  0  0
  4  8  1  0  0  0  0
  5  9  2  0  0  0  0
  6 13  1  0  0  0  0
  7 17  1  6  0  0  0
  7 14  1  0  0  0  0
  9  6  1  0  0  0  0
  9 18  1  0  0  0  0
 10  5  1  0  0  0  0
 10  3  1  0  0  0  0
 11 15  2  0  0  0  0
 11  2  1  0  0  0  0
 12  1  2  0  0  0  0
 13 16  2  0  0  0  0
 14  8  1  0  0  0  0
 15 12  1  0  0  0  0
 17 18  1  0  0  0  0
 18  4  2  0  0  0  0
 19 30  1  0  0  0  0
 20 23  1  0  0  0  0
 21 29  2  0  0  0  0
 21 27  1  0  0  0  0
 22 23  2  0  0  0  0
 24  7  1  0  0  0  0
 24 29  1  0  0  0  0
 25 28  1  0  0  0  0
 25 19  2  0  0  0  0
 26 21  1  0  0  0  0
 27 22  1  0  0  0  0
 28 31  2  0  0  0  0
 29 20  1  0  0  0  0
 30 26  2  0  0  0  0
 30 24  1  0  0  0  0
 31 26  1  0  0  0  0
 32 28  1  0  0  0  0
 33 34  3  0  0  0  0
 34 32  1  0  0  0  0
 36 37  2  0  0  0  0
 37 15  1  0  0  0  0
 37 35  1  0  0  0  0
 38 12  1  0  0  0  0
 39 40  1  0  0  0  0
 39 38  1  0  0  0  0
 41 39  2  0  0  0  0
M  END
>  <MODEL>
4

>  <REMARK>
 VINA RESULT:     -10.1      4.911      9.576
  Name = 
  6 active torsions:
  status: ('A' for Active; 'I' for Inactive)
    1  A    between atoms: N_11  and  C_19
    2  A    between atoms: N_15  and  C_23
    3  A    between atoms: N_15  and  C_41
    4  A    between atoms: C_20  and  C_25
    5  A    between atoms: C_20  and  C_30
    6  A    between atoms: C_22  and  C_34
                            x       y       z     vdW  Elec       q    Type
                         _______ _______ _______ _____ _____    ______ ____

>  <TORSDO>
F 6

$$$$
=
 OpenBabel11062415203D

 41 47  0  0  1  0  0  0  0  0999 V2000
  180.5980  179.0700  139.6370 C   0  0  0  0  0  3  0  0  0  0  0  0
  183.2390  178.3780  138.3360 C   0  0  0  0  0  2  0  0  0  0  0  0
  181.8420  178.7640  140.3550 C   0  0  0  0  0  0  0  0  0  0  0  0
  183.1930  178.9690  144.2330 C   0  0  0  0  0  0  0  0  0  0  0  0
  183.9780  178.3350  140.6760 N   0  0  0  0  0  0  0  0  0  0  0  0
  182.0700  178.8810  141.7030 C   0  0  0  0  0  0  0  0  0  0  0  0
  185.7790  177.9270  144.7420 C   0  0  1  0  0  3  0  0  0  0  0  0
  183.7440  179.0030  145.5170 O   0  0  0  0  0  0  0  0  0  0  0  0
  183.4020  178.5930  141.8670 C   0  0  0  0  0  0  0  0  0  0  0  0
  183.0140  178.4370  139.7690 N   0  0  0  0  0  0  0  0  0  0  0  0
  182.3140  177.3870  137.7130 C   0  0  0  0  0  3  0  0  0  0  0  0
  180.2170  178.5260  138.4680 C   0  0  0  0  0  0  0  0  0  0  0  0
  181.2420  179.2210  142.7690 C   0  0  0  0  0  3  0  0  0  0  0  0
  185.1530  178.9090  145.7330 C   0  0  0  0  0  2  0  0  0  0  0  0
  180.9730  177.4370  137.7610 C   0  0  0  0  0  0  0  0  0  0  0  0
  181.8210  179.2590  144.0510 C   0  0  0  0  0  3  0  0  0  0  0  0
  185.4680  178.3480  143.3030 C   0  0  0  0  0  2  0  0  0  0  0  0
  184.0030  178.6190  143.1250 C   0  0  0  0  0  0  0  0  0  0  0  0
  188.0730  177.7500  142.6350 C   0  0  0  0  0  3  0  0  0  0  0  0
  187.1970  177.6870  147.4970 C   0  0  0  0  0  2  0  0  0  0  0  0
  189.2150  177.6320  145.9830 C   0  0  0  0  0  0  0  0  0  0  0  0
  189.5350  177.8780  148.4180 C   0  0  0  0  0  3  0  0  0  0  0  0
  188.2010  178.0000  148.5880 C   0  0  0  0  0  3  0  0  0  0  0  0
  187.2220  177.8270  144.9510 N   0  0  0  0  0  0  0  0  0  0  0  0
  189.2450  177.6260  141.8680 C   0  0  0  0  0  3  0  0  0  0  0  0
  189.4360  177.6190  144.6250 C   0  0  0  0  0  0  0  0  0  0  0  0
  190.1640  177.4170  147.1190 C   0  0  0  0  0  2  0  0  0  0  0  0
  190.5130  177.4960  142.4870 C   0  0  0  0  0  0  0  0  0  0  0  0
  187.8490  177.7570  146.1480 C   0  0  0  0  0  0  0  0  0  0  0  0
  188.2040  177.7460  144.0230 C   0  0  0  0  0  0  0  0  0  0  0  0
  190.6110  177.4870  143.8910 C   0  0  0  0  0  3  0  0  0  0  0  0
  191.7070  177.3710  141.7110 N   0  0  0  0  0  2  0  0  0  0  0  0
  191.6890  176.9270  139.1890 N   0  0  0  0  0  0  0  0  0  0  0  0
  191.6980  177.1280  140.3290 C   0  0  0  0  0  0  0  0  0  0  0  0
  179.5980  175.2360  137.7870 C   0  0  0  0  0  1  0  0  0  0  0  0
  180.1880  176.3510  135.7900 O   0  0  0  0  0  0  0  0  0  0  0  0
  180.2420  176.3580  137.0500 C   0  0  0  0  0  0  0  0  0  0  0  0
  178.9700  179.0680  137.8250 C   0  0  0  0  0  2  0  0  0  0  0  0
  179.2580  180.1190  136.8010 C   0  0  0  0  0  0  0  0  0  0  0  0
  179.4130  179.8050  135.5920 O   0  0  0  0  0  0  0  0  0  0  0  0
  179.3250  181.4540  137.1800 O   0  0  0  0  0  1  0  0  0  0  0  0
  1  3  1  0  0  0  0
  2 10  1  0  0  0  0
  3  6  2  0  0  0  0
  4  8  1  0  0  0  0
  5  9  2  0  0  0  0
  6  9  1  0  0  0  0
  6 13  1  0  0  0  0
  7 17  1  6  0  0  0
  7 24  1  0  0  0  0
  7 14  1  0  0  0  0
  8 14  1  0  0  0  0
  9 18  1  0  0  0  0
 10  3  1  0  0  0  0
 10  5  1  0  0  0  0
 11 15  2  0  0  0  0
 11  2  1  0  0  0  0
 12  1  2  0  0  0  0
 13 16  2  0  0  0  0
 15 12  1  0  0  0  0
 16  4  1  0  0  0  0
 18 17  1  0  0  0  0
 18  4  2  0  0  0  0
 19 30  1  0  0  0  0
 20 23  1  0  0  0  0
 21 29  2  0  0  0  0
 21 27  1  0  0  0  0
 22 23  2  0  0  0  0
 24 29  1  0  0  0  0
 25 28  1  0  0  0  0
 25 19  2  0  0  0  0
 26 21  1  0  0  0  0
 27 22  1  0  0  0  0
 28 31  2  0  0  0  0
 29 20  1  0  0  0  0
 30 26  2  0  0  0  0
 30 24  1  0  0  0  0
 31 26  1  0  0  0  0
 32 28  1  0  0  0  0
 33 34  3  0  0  0  0
 34 32  1  0  0  0  0
 36 37  2  0  0  0  0
 37 15  1  0  0  0  0
 37 35  1  0  0  0  0
 38 12  1  0  0  0  0
 39 41  1  0  0  0  0
 39 38  1  0  0  0  0
 40 39  2  0  0  0  0
M  END
>  <MODEL>
5

>  <REMARK>
 VINA RESULT:     -10.0      5.287      9.228
  Name = 
  6 active torsions:
  status: ('A' for Active; 'I' for Inactive)
    1  A    between atoms: N_11  and  C_19
    2  A    between atoms: N_15  and  C_23
    3  A    between atoms: N_15  and  C_41
    4  A    between atoms: C_20  and  C_25
    5  A    between atoms: C_20  and  C_30
    6  A    between atoms: C_22  and  C_34
                            x       y       z     vdW  Elec       q    Type
                         _______ _______ _______ _____ _____    ______ ____

>  <TORSDO>
F 6

$$$$
=
 OpenBabel11062415203D

 41 47  0  0  1  0  0  0  0  0999 V2000
  181.0100  179.1600  141.0620 C   0  0  0  0  0  3  0  0  0  0  0  0
  183.2090  178.3710  139.1410 C   0  0  0  0  0  2  0  0  0  0  0  0
  182.3590  178.7290  141.4490 C   0  0  0  0  0  0  0  0  0  0  0  0
  184.5940  178.6110  144.8990 C   0  0  0  0  0  0  0  0  0  0  0  0
  184.4700  178.1390  141.2340 N   0  0  0  0  0  0  0  0  0  0  0  0
  182.9060  178.7500  142.7080 C   0  0  0  0  0  0  0  0  0  0  0  0
  187.1360  177.3690  144.7320 C   0  0  1  0  0  3  0  0  0  0  0  0
  185.4320  178.5310  146.0150 O   0  0  0  0  0  0  0  0  0  0  0  0
  184.2120  178.3630  142.5380 C   0  0  0  0  0  0  0  0  0  0  0  0
  183.3310  178.3600  140.5880 N   0  0  0  0  0  0  0  0  0  0  0  0
  182.0880  177.4840  138.7160 C   0  0  0  0  0  3  0  0  0  0  0  0
  180.3230  178.7140  139.9960 C   0  0  0  0  0  0  0  0  0  0  0  0
  182.3800  179.0810  143.9540 C   0  0  0  0  0  3  0  0  0  0  0  0
  186.8400  178.3300  145.8850 C   0  0  0  0  0  2  0  0  0  0  0  0
  180.8040  177.6210  139.0840 C   0  0  0  0  0  0  0  0  0  0  0  0
  183.2450  179.0030  145.0610 C   0  0  0  0  0  3  0  0  0  0  0  0
  186.5310  177.8950  143.4290 C   0  0  0  0  0  2  0  0  0  0  0  0
  185.0910  178.2740  143.6160 C   0  0  0  0  0  0  0  0  0  0  0  0
  189.2540  176.6460  146.9050 C   0  0  0  0  0  3  0  0  0  0  0  0
  188.7650  177.7270  142.1100 C   0  0  0  0  0  2  0  0  0  0  0  0
  190.6290  177.0510  143.6690 C   0  0  0  0  0  0  0  0  0  0  0  0
  191.0580  177.1480  141.2400 C   0  0  0  0  0  3  0  0  0  0  0  0
  189.7460  177.3730  141.0110 C   0  0  0  0  0  3  0  0  0  0  0  0
  188.5750  177.1600  144.5880 N   0  0  0  0  0  0  0  0  0  0  0  0
  190.3660  176.3600  147.7180 C   0  0  0  0  0  3  0  0  0  0  0  0
  190.7500  176.7850  145.0130 C   0  0  0  0  0  0  0  0  0  0  0  0
  191.6800  177.2240  142.6200 C   0  0  0  0  0  2  0  0  0  0  0  0
  191.6720  176.2910  147.1700 C   0  0  0  0  0  0  0  0  0  0  0  0
  189.2860  177.2800  143.4430 C   0  0  0  0  0  0  0  0  0  0  0  0
  189.4820  176.8510  145.5450 C   0  0  0  0  0  0  0  0  0  0  0  0
  191.8690  176.5110  145.7950 C   0  0  0  0  0  3  0  0  0  0  0  0
  192.8050  176.0000  147.9930 N   0  0  0  0  0  2  0  0  0  0  0  0
  193.5080  177.4680  149.9690 N   0  0  0  0  0  0  0  0  0  0  0  0
  193.1900  176.8050  149.0760 C   0  0  0  0  0  0  0  0  0  0  0  0
  179.3610  176.7320  137.1160 C   0  0  0  0  0  1  0  0  0  0  0  0
  179.3810  175.7160  139.2490 O   0  0  0  0  0  0  0  0  0  0  0  0
  179.8430  176.6380  138.5230 C   0  0  0  0  0  0  0  0  0  0  0  0
  179.0080  179.3760  139.6920 C   0  0  0  0  0  2  0  0  0  0  0  0
  179.1600  180.6110  138.8620 C   0  0  0  0  0  0  0  0  0  0  0  0
  179.3140  180.5260  137.6160 O   0  0  0  0  0  0  0  0  0  0  0  0
  179.1010  181.8610  139.4660 O   0  0  0  0  0  1  0  0  0  0  0  0
  1  3  1  0  0  0  0
  2 10  1  0  0  0  0
  3  6  2  0  0  0  0
  4 16  1  0  0  0  0
  4  8  1  0  0  0  0
  5  9  2  0  0  0  0
  6 13  1  0  0  0  0
  7 17  1  6  0  0  0
  7 14  1  0  0  0  0
  9  6  1  0  0  0  0
  9 18  1  0  0  0  0
 10  5  1  0  0  0  0
 10  3  1  0  0  0  0
 11 15  2  0  0  0  0
 11  2  1  0  0  0  0
 12  1  2  0  0  0  0
 13 16  2  0  0  0  0
 14  8  1  0  0  0  0
 15 12  1  0  0  0  0
 17 18  1  0  0  0  0
 18  4  2  0  0  0  0
 19 25  1  0  0  0  0
 20 29  1  0  0  0  0
 21 26  1  0  0  0  0
 22 27  1  0  0  0  0
 23 22  2  0  0  0  0
 23 20  1  0  0  0  0
 24  7  1  0  0  0  0
 24 30  1  0  0  0  0
 26 30  1  0  0  0  0
 26 31  2  0  0  0  0
 27 21  1  0  0  0  0
 28 25  2  0  0  0  0
 28 32  1  0  0  0  0
 29 21  2  0  0  0  0
 29 24  1  0  0  0  0
 30 19  2  0  0  0  0
 31 28  1  0  0  0  0
 32 34  1  0  0  0  0
 34 33  3  0  0  0  0
 35 37  1  0  0  0  0
 37 15  1  0  0  0  0
 37 36  2  0  0  0  0
 38 12  1  0  0  0  0
 39 41  1  0  0  0  0
 39 38  1  0  0  0  0
 40 39  2  0  0  0  0
M  END
>  <MODEL>
6

>  <REMARK>
 VINA RESULT:      -9.7      5.499      9.313
  Name = 
  6 active torsions:
  status: ('A' for Active; 'I' for Inactive)
    1  A    between atoms: N_11  and  C_19
    2  A    between atoms: N_15  and  C_23
    3  A    between atoms: N_15  and  C_41
    4  A    between atoms: C_20  and  C_25
    5  A    between atoms: C_20  and  C_30
    6  A    between atoms: C_22  and  C_34
                            x       y       z     vdW  Elec       q    Type
                         _______ _______ _______ _____ _____    ______ ____

>  <TORSDO>
F 6

$$$$
=
 OpenBabel11062415203D

 41 47  0  0  1  0  0  0  0  0999 V2000
  182.6080  179.0290  137.8210 C   0  0  0  0  0  3  0  0  0  0  0  0
  181.5070  179.0380  140.6380 C   0  0  0  0  0  2  0  0  0  0  0  0
  183.4110  178.9160  139.0450 C   0  0  0  0  0  0  0  0  0  0  0  0
  187.3160  178.0520  140.0010 C   0  0  0  0  0  0  0  0  0  0  0  0
  183.8740  178.6980  141.1870 N   0  0  0  0  0  0  0  0  0  0  0  0
  184.7530  178.6400  139.1330 C   0  0  0  0  0  0  0  0  0  0  0  0
  188.0440  178.2790  142.7310 C   0  0  1  0  0  3  0  0  0  0  0  0
  188.6170  177.7690  140.4270 O   0  0  0  0  0  0  0  0  0  0  0  0
  185.0080  178.5270  140.4770 C   0  0  0  0  0  0  0  0  0  0  0  0
  182.9150  178.9400  140.3010 N   0  0  0  0  0  0  0  0  0  0  0  0
  180.9320  180.2940  140.0720 C   0  0  0  0  0  3  0  0  0  0  0  0
  181.4770  179.7430  137.6920 C   0  0  0  0  0  0  0  0  0  0  0  0
  185.7410  178.4710  138.1680 C   0  0  0  0  0  3  0  0  0  0  0  0
  188.9090  177.4440  141.7870 C   0  0  0  0  0  2  0  0  0  0  0  0
  180.9100  180.6220  138.7700 C   0  0  0  0  0  0  0  0  0  0  0  0
  187.0420  178.1760  138.6200 C   0  0  0  0  0  3  0  0  0  0  0  0
  186.5590  178.0710  142.4210 C   0  0  0  0  0  2  0  0  0  0  0  0
  186.2850  178.2390  140.9550 C   0  0  0  0  0  0  0  0  0  0  0  0
  190.5840  176.9530  143.9620 C   0  0  0  0  0  3  0  0  0  0  0  0
  186.0900  178.6470  145.1200 C   0  0  0  0  0  2  0  0  0  0  0  0
  188.0720  177.6830  146.3470 C   0  0  0  0  0  0  0  0  0  0  0  0
  186.1930  178.6280  147.6380 C   0  0  0  0  0  3  0  0  0  0  0  0
  185.6260  179.0760  146.4970 C   0  0  0  0  0  3  0  0  0  0  0  0
  188.3320  177.9510  144.1260 N   0  0  0  0  0  0  0  0  0  0  0  0
  191.6050  176.3450  144.7140 C   0  0  0  0  0  3  0  0  0  0  0  0
  189.3080  177.1860  146.0010 C   0  0  0  0  0  0  0  0  0  0  0  0
  187.3510  177.6510  147.6560 C   0  0  0  0  0  2  0  0  0  0  0  0
  191.4690  176.1570  146.1120 C   0  0  0  0  0  0  0  0  0  0  0  0
  187.5000  178.1390  145.1760 C   0  0  0  0  0  0  0  0  0  0  0  0
  189.4400  177.3690  144.6420 C   0  0  0  0  0  0  0  0  0  0  0  0
  190.2990  176.5800  146.7680 C   0  0  0  0  0  3  0  0  0  0  0  0
  192.5060  175.5390  146.8810 N   0  0  0  0  0  2  0  0  0  0  0  0
  193.2340  176.3950  149.1810 N   0  0  0  0  0  0  0  0  0  0  0  0
  192.9050  176.0080  148.1410 C   0  0  0  0  0  0  0  0  0  0  0  0
  180.9660  182.9380  137.5970 C   0  0  0  0  0  1  0  0  0  0  0  0
  179.1140  182.1860  138.8560 O   0  0  0  0  0  0  0  0  0  0  0  0
  180.2650  181.9130  138.4210 C   0  0  0  0  0  0  0  0  0  0  0  0
  180.7270  179.6250  136.3930 C   0  0  0  0  0  2  0  0  0  0  0  0
  180.0660  178.2930  136.2270 C   0  0  0  0  0  0  0  0  0  0  0  0
  179.6060  177.6820  137.2250 O   0  0  0  0  0  1  0  0  0  0  0  0
  179.9320  177.7430  134.9580 O   0  0  0  0  0  0  0  0  0  0  0  0
  1  3  1  0  0  0  0
  3  6  2  0  0  0  0
  3 10  1  0  0  0  0
  4  8  1  0  0  0  0
  4 18  2  0  0  0  0
  6  9  1  0  0  0  0
  7 14  1  6  0  0  0
  7 24  1  0  0  0  0
  8 14  1  0  0  0  0
  9 18  1  0  0  0  0
  9  5  2  0  0  0  0
 10  2  1  0  0  0  0
 10  5  1  0  0  0  0
 11  2  1  0  0  0  0
 12  1  2  0  0  0  0
 12 15  1  0  0  0  0
 13 16  2  0  0  0  0
 13  6  1  0  0  0  0
 15 11  2  0  0  0  0
 16  4  1  0  0  0  0
 17  7  1  0  0  0  0
 18 17  1  0  0  0  0
 19 30  2  0  0  0  0
 19 25  1  0  0  0  0
 20 29  1  0  0  0  0
 20 23  1  0  0  0  0
 21 27  1  0  0  0  0
 22 27  1  0  0  0  0
 23 22  2  0  0  0  0
 24 30  1  0  0  0  0
 24 29  1  0  0  0  0
 25 28  2  0  0  0  0
 26 21  1  0  0  0  0
 26 31  2  0  0  0  0
 28 31  1  0  0  0  0
 28 32  1  0  0  0  0
 29 21  2  0  0  0  0
 30 26  1  0  0  0  0
 32 34  1  0  0  0  0
 34 33  3  0  0  0  0
 35 37  1  0  0  0  0
 37 15  1  0  0  0  0
 37 36  2  0  0  0  0
 38 12  1  0  0  0  0
 39 38  1  0  0  0  0
 39 40  1  0  0  0  0
 41 39  2  0  0  0  0
M  END
>  <MODEL>
7

>  <REMARK>
 VINA RESULT:      -8.8      4.707      8.500
  Name = 
  6 active torsions:
  status: ('A' for Active; 'I' for Inactive)
    1  A    between atoms: N_11  and  C_19
    2  A    between atoms: N_15  and  C_23
    3  A    between atoms: N_15  and  C_41
    4  A    between atoms: C_20  and  C_25
    5  A    between atoms: C_20  and  C_30
    6  A    between atoms: C_22  and  C_34
                            x       y       z     vdW  Elec       q    Type
                         _______ _______ _______ _____ _____    ______ ____

>  <TORSDO>
F 6

$$$$
=
 OpenBabel11062415203D

 41 47  0  0  1  0  0  0  0  0999 V2000
  188.4440  176.3070  136.3260 C   0  0  0  0  0  3  0  0  0  0  0  0
  188.5140  179.0180  137.6650 C   0  0  0  0  0  2  0  0  0  0  0  0
  187.3000  176.9630  136.9730 C   0  0  0  0  0  0  0  0  0  0  0  0
  183.2440  176.3400  137.2400 C   0  0  0  0  0  0  0  0  0  0  0  0
  186.1260  178.5390  137.9660 N   0  0  0  0  0  0  0  0  0  0  0  0
  185.9900  176.5500  136.9570 C   0  0  0  0  0  0  0  0  0  0  0  0
  181.7940  178.0750  138.9490 C   0  0  1  0  0  3  0  0  0  0  0  0
  181.8600  176.2150  137.3880 O   0  0  0  0  0  0  0  0  0  0  0  0
  185.2940  177.5450  137.5950 C   0  0  0  0  0  0  0  0  0  0  0  0
  187.3420  178.1650  137.5850 N   0  0  0  0  0  0  0  0  0  0  0  0
  189.6240  178.2990  138.3550 C   0  0  0  0  0  3  0  0  0  0  0  0
  189.7260  176.4080  136.7180 C   0  0  0  0  0  0  0  0  0  0  0  0
  185.3700  175.4190  136.4360 C   0  0  0  0  0  3  0  0  0  0  0  0
  181.0540  177.2950  137.8620 C   0  0  0  0  0  2  0  0  0  0  0  0
  190.1730  177.1420  137.9490 C   0  0  0  0  0  0  0  0  0  0  0  0
  183.9740  175.3190  136.5880 C   0  0  0  0  0  3  0  0  0  0  0  0
  183.1400  178.5800  138.4220 C   0  0  0  0  0  2  0  0  0  0  0  0
  183.9120  177.4740  137.7640 C   0  0  0  0  0  0  0  0  0  0  0  0
  180.9280  180.6830  137.4730 C   0  0  0  0  0  3  0  0  0  0  0  0
  180.6730  178.3720  141.8320 C   0  0  0  0  0  2  0  0  0  0  0  0
  179.7740  180.4980  140.8150 C   0  0  0  0  0  0  0  0  0  0  0  0
  178.9770  179.7900  143.0410 C   0  0  0  0  0  3  0  0  0  0  0  0
  179.6460  178.6230  142.9160 C   0  0  0  0  0  3  0  0  0  0  0  0
  180.9800  179.1860  139.4360 N   0  0  0  0  0  0  0  0  0  0  0  0
  180.4580  181.9280  137.0170 C   0  0  0  0  0  3  0  0  0  0  0  0
  179.8830  181.1410  139.6030 C   0  0  0  0  0  0  0  0  0  0  0  0
  179.1870  180.9650  142.1070 C   0  0  0  0  0  2  0  0  0  0  0  0
  179.7020  182.7780  137.8620 C   0  0  0  0  0  0  0  0  0  0  0  0
  180.4590  179.3060  140.6790 C   0  0  0  0  0  0  0  0  0  0  0  0
  180.6170  180.3150  138.7820 C   0  0  0  0  0  0  0  0  0  0  0  0
  179.4130  182.3810  139.1800 C   0  0  0  0  0  3  0  0  0  0  0  0
  179.2220  184.0440  137.4010 N   0  0  0  0  0  2  0  0  0  0  0  0
  179.0920  186.1150  138.9010 N   0  0  0  0  0  0  0  0  0  0  0  0
  179.1500  185.1790  138.2220 C   0  0  0  0  0  0  0  0  0  0  0  0
  192.7080  176.7480  138.3500 C   0  0  0  0  0  1  0  0  0  0  0  0
  191.0440  175.9880  139.8440 O   0  0  0  0  0  0  0  0  0  0  0  0
  191.2870  176.6100  138.7750 C   0  0  0  0  0  0  0  0  0  0  0  0
  190.7700  175.7670  135.8450 C   0  0  0  0  0  2  0  0  0  0  0  0
  190.7620  174.2740  135.9360 C   0  0  0  0  0  0  0  0  0  0  0  0
  190.8430  173.5730  134.8950 O   0  0  0  0  0  0  0  0  0  0  0  0
  190.6950  173.6580  137.1790 O   0  0  0  0  0  1  0  0  0  0  0  0
  1 12  2  0  0  0  0
  1  3  1  0  0  0  0
  2 11  1  0  0  0  0
  3 10  1  0  0  0  0
  4  8  1  0  0  0  0
  4 18  2  0  0  0  0
  6  3  2  0  0  0  0
  6  9  1  0  0  0  0
  7 14  1  6  0  0  0
  7 24  1  0  0  0  0
  8 14  1  0  0  0  0
  9 18  1  0  0  0  0
  9  5  2  0  0  0  0
 10  2  1  0  0  0  0
 10  5  1  0  0  0  0
 12 15  1  0  0  0  0
 13 16  2  0  0  0  0
 13  6  1  0  0  0  0
 15 11  2  0  0  0  0
 15 37  1  0  0  0  0
 16  4  1  0  0  0  0
 17  7  1  0  0  0  0
 18 17  1  0  0  0  0
 19 30  1  0  0  0  0
 20 23  1  0  0  0  0
 21 27  1  0  0  0  0
 23 22  2  0  0  0  0
 24 29  1  0  0  0  0
 25 19  2  0  0  0  0
 25 28  1  0  0  0  0
 26 21  1  0  0  0  0
 27 22  1  0  0  0  0
 28 31  2  0  0  0  0
 29 21  2  0  0  0  0
 29 20  1  0  0  0  0
 30 24  1  0  0  0  0
 30 26  2  0  0  0  0
 31 26  1  0  0  0  0
 32 28  1  0  0  0  0
 32 34  1  0  0  0  0
 34 33  3  0  0  0  0
 35 37  1  0  0  0  0
 37 36  2  0  0  0  0
 38 39  1  0  0  0  0
 38 12  1  0  0  0  0
 39 41  1  0  0  0  0
 40 39  2  0  0  0  0
M  END
>  <MODEL>
8

>  <REMARK>
 VINA RESULT:      -7.5      5.653      8.374
  Name = 
  6 active torsions:
  status: ('A' for Active; 'I' for Inactive)
    1  A    between atoms: N_11  and  C_19
    2  A    between atoms: N_15  and  C_23
    3  A    between atoms: N_15  and  C_41
    4  A    between atoms: C_20  and  C_25
    5  A    between atoms: C_20  and  C_30
    6  A    between atoms: C_22  and  C_34
                            x       y       z     vdW  Elec       q    Type
                         _______ _______ _______ _____ _____    ______ ____

>  <TORSDO>
F 6

$$$$
