=
 OpenBabel11062417563D

 39 43  0  0  1  0  0  0  0  0999 V2000
  187.0770  178.1440  142.9720 C   0  0  0  0  0  0  0  0  0  0  0  0
  189.4550  177.7290  142.5180 N   0  0  0  0  0  0  0  0  0  0  0  0
  190.1000  178.2890  143.6790 C   0  0  0  0  0  0  0  0  0  0  0  0
  185.6250  178.7060  140.9270 C   0  0  1  0  0  3  0  0  0  0  0  0
  189.6760  178.0640  138.8580 C   0  0  2  0  0  3  0  0  0  0  0  0
  192.2940  177.2370  139.9560 C   0  0  0  0  0  2  0  0  0  0  0  0
  187.1710  177.7690  144.3960 C   0  0  0  0  0  3  0  0  0  0  0  0
  185.6730  178.3470  142.4230 C   0  0  2  0  0  3  0  0  0  0  0  0
  188.2290  177.8190  145.2010 C   0  0  0  0  0  3  0  0  0  0  0  0
  191.4450  177.2480  141.2000 C   0  0  0  0  0  3  0  0  0  0  0  0
  191.4110  178.8370  143.5720 N   0  0  0  0  0  1  0  0  0  0  0  0
  190.5410  177.0330  138.1930 C   0  0  0  0  0  3  0  0  0  0  0  0
  189.5350  178.2810  144.8480 N   0  0  0  0  0  0  0  0  0  0  0  0
  189.1360  177.4120  140.1380 C   0  0  2  0  0  3  0  0  0  0  0  0
  187.9460  178.0320  140.7120 N   0  0  0  0  0  0  0  0  0  0  0  0
  191.6960  176.6210  138.7250 C   0  0  0  0  0  3  0  0  0  0  0  0
  188.1240  178.0490  142.1300 C   0  0  0  0  0  0  0  0  0  0  0  0
  186.6210  177.8720  140.1320 C   0  0  0  0  0  2  0  0  0  0  0  0
  190.1170  177.4280  141.2830 C   0  0  0  0  0  0  0  0  0  0  0  0
  183.8370  179.4070  139.3180 C   0  0  0  0  0  0  0  0  0  0  0  0
  183.4090  177.4960  140.9120 C   0  0  0  0  0  1  0  0  0  0  0  0
  184.2770  178.5460  140.3840 N   0  0  0  0  0  0  0  0  0  0  0  0
  184.5190  180.4260  139.0170 O   0  0  0  0  0  0  0  0  0  0  0  0
  181.3390  179.7240  139.1860 C   0  0  0  0  0  2  0  0  0  0  0  0
  181.8860  180.3020  137.8900 C   0  0  0  0  0  2  0  0  0  0  0  0
  182.5760  179.1280  138.5510 C   0  0  0  0  0  0  0  0  0  0  0  0
  182.3240  177.7430  137.9700 C   0  0  0  0  0  2  0  0  0  0  0  0
  183.4650  177.6600  135.8800 O   0  0  0  0  0  0  0  0  0  0  0  0
  184.4630  176.5120  137.5980 O   0  0  0  0  0  1  0  0  0  0  0  0
  183.4490  177.3140  137.0900 C   0  0  0  0  0  0  0  0  0  0  0  0
  188.4730  179.7030  137.5850 O   0  0  0  0  0  0  0  0  0  0  0  0
  188.6030  178.4870  137.9020 C   0  0  0  0  0  0  0  0  0  0  0  0
  187.7490  177.5160  137.3750 O   0  0  0  0  0  0  0  0  0  0  0  0
  187.0540  175.6440  135.4300 O   0  0  0  0  0  1  0  0  0  0  0  0
  187.6140  177.2220  135.6880 P   0  0  0  0  0  0  0  0  0  0  0  0
  186.6490  178.2090  135.0740 O   0  0  0  0  0  1  0  0  0  0  0  0
  189.1360  177.3960  134.9670 O   0  0  0  0  0  0  0  0  0  0  0  0
  184.8940  179.3760  143.2410 C   0  0  0  0  0  2  0  0  0  0  0  0
  183.9080  178.7530  144.0080 O   0  0  0  0  0  1  0  0  0  0  0  0
  1  7  1  0  0  0  0
  2  3  1  0  0  0  0
  3 13  2  0  0  0  0
  4 22  1  6  0  0  0
  4  8  1  0  0  0  0
  5 32  1  6  0  0  0
  5 14  1  0  0  0  0
  6 10  1  0  0  0  0
  7  9  2  0  0  0  0
  8  1  1  0  0  0  0
  8 38  1  1  0  0  0
 10 19  2  0  0  0  0
 11  3  1  0  0  0  0
 12 16  2  0  0  0  0
 12  5  1  0  0  0  0
 13  9  1  0  0  0  0
 14 15  1  0  0  0  0
 14 19  1  1  0  0  0
 15 17  1  0  0  0  0
 16  6  1  0  0  0  0
 17  2  1  0  0  0  0
 17  1  2  0  0  0  0
 18 15  1  0  0  0  0
 18  4  1  0  0  0  0
 19  2  1  0  0  0  0
 20 22  1  0  0  0  0
 22 21  1  0  0  0  0
 23 20  2  0  0  0  0
 25 26  1  0  0  0  0
 25 24  1  0  0  0  0
 26 24  1  0  0  0  0
 26 20  1  0  0  0  0
 27 26  1  0  0  0  0
 28 30  2  0  0  0  0
 30 29  1  0  0  0  0
 30 27  1  0  0  0  0
 31 32  2  0  0  0  0
 33 32  1  0  0  0  0
 34 35  1  0  0  0  0
 35 33  1  0  0  0  0
 36 35  1  0  0  0  0
 37 35  2  0  0  0  0
 38 39  1  0  0  0  0
M  END
>  <MODEL>
1

>  <REMARK>
 VINA RESULT:      -7.8      0.000      0.000
  Name = 
  8 active torsions:
  status: ('A' for Active; 'I' for Inactive)
    1  A    between atoms: C_6  and  C_39
    2  A    between atoms: C_8  and  N_27
    3  A    between atoms: C_9  and  C_22
    4  A    between atoms: C_13  and  C_15
    5  A    between atoms: C_20  and  C_37
    6  A    between atoms: P_21  and  O_23
    7  A    between atoms: C_22  and  O_23
    8  A    between atoms: C_37  and  C_39
                            x       y       z     vdW  Elec       q    Type
                         _______ _______ _______ _____ _____    ______ ____

>  <TORSDO>
F 8

$$$$
=
 OpenBabel11062417563D

 39 43  0  0  1  0  0  0  0  0999 V2000
  189.0640  177.7570  142.3630 C   0  0  0  0  0  0  0  0  0  0  0  0
  187.4400  178.0840  144.1770 N   0  0  0  0  0  0  0  0  0  0  0  0
  188.0160  177.3220  145.2560 C   0  0  0  0  0  0  0  0  0  0  0  0
  188.0810  177.5900  139.9940 C   0  0  1  0  0  3  0  0  0  0  0  0
  184.2240  178.2720  142.3940 C   0  0  2  0  0  3  0  0  0  0  0  0
  183.8090  178.7660  145.2790 C   0  0  0  0  0  2  0  0  0  0  0  0
  190.2400  177.9140  143.2390 C   0  0  0  0  0  3  0  0  0  0  0  0
  189.3410  177.7240  140.8670 C   0  0  2  0  0  3  0  0  0  0  0  0
  190.3410  177.6820  144.5460 C   0  0  0  0  0  3  0  0  0  0  0  0
  185.3080  178.6270  145.2180 C   0  0  0  0  0  3  0  0  0  0  0  0
  187.1710  176.7150  146.2300 N   0  0  0  0  0  1  0  0  0  0  0  0
  183.2940  179.3330  142.9050 C   0  0  0  0  0  3  0  0  0  0  0  0
  189.3000  177.1950  145.3970 N   0  0  0  0  0  0  0  0  0  0  0  0
  185.6460  178.7630  142.6980 C   0  0  2  0  0  3  0  0  0  0  0  0
  186.7120  178.1410  141.9190 N   0  0  0  0  0  0  0  0  0  0  0  0
  183.1550  179.5900  144.2100 C   0  0  0  0  0  3  0  0  0  0  0  0
  187.8030  177.9070  142.8110 C   0  0  0  0  0  0  0  0  0  0  0  0
  186.9540  178.4660  140.5210 C   0  0  0  0  0  2  0  0  0  0  0  0
  186.0760  178.5200  144.1220 C   0  0  0  0  0  0  0  0  0  0  0  0
  187.9640  176.9920  137.5630 C   0  0  0  0  0  0  0  0  0  0  0  0
  189.0280  179.1710  138.2680 C   0  0  0  0  0  1  0  0  0  0  0  0
  188.3660  177.9110  138.5960 N   0  0  0  0  0  0  0  0  0  0  0  0
  187.5790  175.8310  137.8750 O   0  0  0  0  0  0  0  0  0  0  0  0
  186.8670  176.7730  135.3030 C   0  0  0  0  0  2  0  0  0  0  0  0
  186.8770  178.2640  135.6020 C   0  0  0  0  0  2  0  0  0  0  0  0
  187.9940  177.3790  136.1110 C   0  0  0  0  0  0  0  0  0  0  0  0
  189.3130  177.4000  135.3510 C   0  0  0  0  0  2  0  0  0  0  0  0
  190.0470  175.1330  135.3280 O   0  0  0  0  0  0  0  0  0  0  0  0
  191.1990  176.5320  136.7370 O   0  0  0  0  0  1  0  0  0  0  0  0
  190.2080  176.2920  135.7930 C   0  0  0  0  0  0  0  0  0  0  0  0
  183.6600  176.9130  140.4990 O   0  0  0  0  0  0  0  0  0  0  0  0
  183.9630  178.0600  140.9340 C   0  0  0  0  0  0  0  0  0  0  0  0
  184.0660  179.1490  140.0660 O   0  0  0  0  0  0  0  0  0  0  0  0
  181.3070  179.5280  139.9380 O   0  0  0  0  0  1  0  0  0  0  0  0
  182.7610  179.6730  139.0810 P   0  0  0  0  0  0  0  0  0  0  0  0
  182.9710  181.1150  138.6800 O   0  0  0  0  0  1  0  0  0  0  0  0
  182.6860  178.7050  137.6930 O   0  0  0  0  0  0  0  0  0  0  0  0
  190.3540  176.6370  140.5090 C   0  0  0  0  0  2  0  0  0  0  0  0
  191.5270  177.2020  140.0040 O   0  0  0  0  0  1  0  0  0  0  0  0
  1 17  2  0  0  0  0
  1  7  1  0  0  0  0
  2  3  1  0  0  0  0
  3 13  2  0  0  0  0
  3 11  1  0  0  0  0
  4 22  1  6  0  0  0
  4 18  1  0  0  0  0
  4  8  1  0  0  0  0
  5 32  1  6  0  0  0
  5 14  1  0  0  0  0
  5 12  1  0  0  0  0
  7  9  2  0  0  0  0
  8 38  1  1  0  0  0
  8  1  1  0  0  0  0
  9 13  1  0  0  0  0
 10  6  1  0  0  0  0
 12 16  2  0  0  0  0
 14 19  1  1  0  0  0
 15 14  1  0  0  0  0
 15 17  1  0  0  0  0
 16  6  1  0  0  0  0
 17  2  1  0  0  0  0
 18 15  1  0  0  0  0
 19  2  1  0  0  0  0
 19 10  2  0  0  0  0
 20 23  2  0  0  0  0
 20 22  1  0  0  0  0
 21 22  1  0  0  0  0
 24 25  1  0  0  0  0
 24 26  1  0  0  0  0
 25 26  1  0  0  0  0
 26 20  1  0  0  0  0
 27 30  1  0  0  0  0
 27 26  1  0  0  0  0
 28 30  2  0  0  0  0
 30 29  1  0  0  0  0
 31 32  2  0  0  0  0
 33 32  1  0  0  0  0
 35 34  1  0  0  0  0
 35 33  1  0  0  0  0
 36 35  1  0  0  0  0
 37 35  2  0  0  0  0
 39 38  1  0  0  0  0
M  END
>  <MODEL>
2

>  <REMARK>
 VINA RESULT:      -7.4      2.528      5.971
  Name = 
  8 active torsions:
  status: ('A' for Active; 'I' for Inactive)
    1  A    between atoms: C_6  and  C_39
    2  A    between atoms: C_8  and  N_27
    3  A    between atoms: C_9  and  C_22
    4  A    between atoms: C_13  and  C_15
    5  A    between atoms: C_20  and  C_37
    6  A    between atoms: P_21  and  O_23
    7  A    between atoms: C_22  and  O_23
    8  A    between atoms: C_37  and  C_39
                            x       y       z     vdW  Elec       q    Type
                         _______ _______ _______ _____ _____    ______ ____

>  <TORSDO>
F 8

$$$$
=
 OpenBabel11062417563D

 39 43  0  0  1  0  0  0  0  0999 V2000
  185.8840  178.2600  145.4510 C   0  0  0  0  0  0  0  0  0  0  0  0
  188.1040  177.5440  146.2220 N   0  0  0  0  0  0  0  0  0  0  0  0
  188.2330  178.2230  147.4870 C   0  0  0  0  0  0  0  0  0  0  0  0
  185.6370  178.6160  142.9170 C   0  0  1  0  0  3  0  0  0  0  0  0
  190.0180  177.2480  143.0900 C   0  0  2  0  0  3  0  0  0  0  0  0
  191.6740  176.3610  145.3730 C   0  0  0  0  0  2  0  0  0  0  0  0
  185.2570  178.1180  146.7780 C   0  0  0  0  0  3  0  0  0  0  0  0
  184.9390  178.5060  144.2850 C   0  0  2  0  0  3  0  0  0  0  0  0
  185.8250  178.1960  147.9800 C   0  0  0  0  0  3  0  0  0  0  0  0
  190.3660  176.6610  146.0590 C   0  0  0  0  0  3  0  0  0  0  0  0
  189.5180  178.6150  147.9590 N   0  0  0  0  0  1  0  0  0  0  0  0
  190.9090  176.0420  143.0210 C   0  0  0  0  0  3  0  0  0  0  0  0
  187.2050  178.4640  148.2430 N   0  0  0  0  0  0  0  0  0  0  0  0
  188.8560  176.8730  144.0190 C   0  0  2  0  0  3  0  0  0  0  0  0
  187.6550  177.6920  143.8960 N   0  0  0  0  0  0  0  0  0  0  0  0
  191.6100  175.6120  144.0740 C   0  0  0  0  0  3  0  0  0  0  0  0
  187.1680  177.9260  145.2190 C   0  0  0  0  0  0  0  0  0  0  0  0
  186.7330  177.5690  142.7770 C   0  0  0  0  0  2  0  0  0  0  0  0
  189.1960  176.9810  145.4840 C   0  0  0  0  0  0  0  0  0  0  0  0
  185.0600  178.9270  140.4990 C   0  0  0  0  0  0  0  0  0  0  0  0
  183.3570  177.9310  142.0750 C   0  0  0  0  0  1  0  0  0  0  0  0
  184.6770  178.5010  141.8200 N   0  0  0  0  0  0  0  0  0  0  0  0
  186.1190  179.5940  140.3400 O   0  0  0  0  0  0  0  0  0  0  0  0
  185.0310  178.0770  138.1250 C   0  0  0  0  0  2  0  0  0  0  0  0
  184.1140  177.1420  138.8980 C   0  0  0  0  0  2  0  0  0  0  0  0
  184.2240  178.5980  139.2940 C   0  0  0  0  0  0  0  0  0  0  0  0
  183.1040  179.5340  138.8610 C   0  0  0  0  0  2  0  0  0  0  0  0
  181.6300  178.5950  137.2410 O   0  0  0  0  0  0  0  0  0  0  0  0
  181.0240  178.2800  139.4320 O   0  0  0  0  0  1  0  0  0  0  0  0
  181.8870  178.7710  138.4610 C   0  0  0  0  0  0  0  0  0  0  0  0
  189.1990  178.7850  141.4410 O   0  0  0  0  0  0  0  0  0  0  0  0
  189.5830  177.6100  141.7030 C   0  0  0  0  0  0  0  0  0  0  0  0
  189.6050  176.6280  140.7120 O   0  0  0  0  0  0  0  0  0  0  0  0
  192.1220  177.3010  139.7200 O   0  0  0  0  0  1  0  0  0  0  0  0
  190.5730  176.7610  139.2990 P   0  0  0  0  0  0  0  0  0  0  0  0
  190.6720  175.4140  138.6200 O   0  0  0  0  0  1  0  0  0  0  0  0
  189.8640  177.8760  138.2410 O   0  0  0  0  0  0  0  0  0  0  0  0
  184.0530  179.7270  144.5290 C   0  0  0  0  0  2  0  0  0  0  0  0
  182.8130  179.3430  145.0430 O   0  0  0  0  0  1  0  0  0  0  0  0
  1  7  1  0  0  0  0
  2  3  1  0  0  0  0
  3 11  1  0  0  0  0
  3 13  2  0  0  0  0
  4 22  1  6  0  0  0
  4  8  1  0  0  0  0
  5 32  1  6  0  0  0
  5 14  1  0  0  0  0
  6 10  1  0  0  0  0
  7  9  2  0  0  0  0
  8 38  1  1  0  0  0
  8  1  1  0  0  0  0
  9 13  1  0  0  0  0
 12  5  1  0  0  0  0
 12 16  2  0  0  0  0
 14 19  1  1  0  0  0
 15 14  1  0  0  0  0
 15 17  1  0  0  0  0
 16  6  1  0  0  0  0
 17  1  2  0  0  0  0
 17  2  1  0  0  0  0
 18  4  1  0  0  0  0
 18 15  1  0  0  0  0
 19 10  2  0  0  0  0
 19  2  1  0  0  0  0
 20 22  1  0  0  0  0
 22 21  1  0  0  0  0
 23 20  2  0  0  0  0
 24 25  1  0  0  0  0
 24 26  1  0  0  0  0
 25 26  1  0  0  0  0
 26 20  1  0  0  0  0
 27 26  1  0  0  0  0
 28 30  2  0  0  0  0
 30 27  1  0  0  0  0
 30 29  1  0  0  0  0
 31 32  2  0  0  0  0
 33 32  1  0  0  0  0
 35 34  1  0  0  0  0
 35 33  1  0  0  0  0
 36 35  1  0  0  0  0
 37 35  2  0  0  0  0
 38 39  1  0  0  0  0
M  END
>  <MODEL>
3

>  <REMARK>
 VINA RESULT:      -7.1      2.542      3.778
  Name = 
  8 active torsions:
  status: ('A' for Active; 'I' for Inactive)
    1  A    between atoms: C_6  and  C_39
    2  A    between atoms: C_8  and  N_27
    3  A    between atoms: C_9  and  C_22
    4  A    between atoms: C_13  and  C_15
    5  A    between atoms: C_20  and  C_37
    6  A    between atoms: P_21  and  O_23
    7  A    between atoms: C_22  and  O_23
    8  A    between atoms: C_37  and  C_39
                            x       y       z     vdW  Elec       q    Type
                         _______ _______ _______ _____ _____    ______ ____

>  <TORSDO>
F 8

$$$$
=
 OpenBabel11062417563D

 39 43  0  0  1  0  0  0  0  0999 V2000
  186.9260  178.1110  142.7980 C   0  0  0  0  0  0  0  0  0  0  0  0
  189.2910  177.7120  142.2690 N   0  0  0  0  0  0  0  0  0  0  0  0
  189.9690  178.2880  143.4030 C   0  0  0  0  0  0  0  0  0  0  0  0
  185.4020  178.6410  140.7970 C   0  0  1  0  0  3  0  0  0  0  0  0
  189.3880  178.0160  138.6000 C   0  0  2  0  0  3  0  0  0  0  0  0
  192.0480  177.2210  139.6180 C   0  0  0  0  0  2  0  0  0  0  0  0
  187.0700  177.7490  144.2210 C   0  0  0  0  0  3  0  0  0  0  0  0
  185.5030  178.2960  142.2940 C   0  0  2  0  0  3  0  0  0  0  0  0
  188.1540  177.8150  144.9900 C   0  0  0  0  0  3  0  0  0  0  0  0
  191.2400  177.2360  140.8900 C   0  0  0  0  0  3  0  0  0  0  0  0
  191.2710  178.8460  143.2470 N   0  0  0  0  0  1  0  0  0  0  0  0
  190.2390  176.9860  137.9160 C   0  0  0  0  0  3  0  0  0  0  0  0
  189.4430  178.2860  144.5890 N   0  0  0  0  0  0  0  0  0  0  0  0
  188.8960  177.3710  139.9040 C   0  0  2  0  0  3  0  0  0  0  0  0
  187.7200  177.9860  140.5110 N   0  0  0  0  0  0  0  0  0  0  0  0
  191.4150  176.5890  138.4130 C   0  0  0  0  0  3  0  0  0  0  0  0
  187.9440  178.0170  141.9220 C   0  0  0  0  0  0  0  0  0  0  0  0
  186.3780  177.8090  139.9770 C   0  0  0  0  0  2  0  0  0  0  0  0
  189.9140  177.4050  141.0150 C   0  0  0  0  0  0  0  0  0  0  0  0
  183.4980  179.4140  139.3630 C   0  0  0  0  0  0  0  0  0  0  0  0
  183.2560  177.3130  140.7410 C   0  0  0  0  0  1  0  0  0  0  0  0
  184.0380  178.4650  140.3010 N   0  0  0  0  0  0  0  0  0  0  0  0
  184.1080  180.4990  139.1510 O   0  0  0  0  0  0  0  0  0  0  0  0
  182.0610  179.9780  137.3690 C   0  0  0  0  0  2  0  0  0  0  0  0
  182.3150  178.4820  137.2710 C   0  0  0  0  0  2  0  0  0  0  0  0
  182.2160  179.1500  138.6260 C   0  0  0  0  0  0  0  0  0  0  0  0
  180.9090  179.0010  139.3920 C   0  0  0  0  0  2  0  0  0  0  0  0
  180.3190  181.2760  139.7790 O   0  0  0  0  0  0  0  0  0  0  0  0
  180.8500  180.0600  141.6510 O   0  0  0  0  0  1  0  0  0  0  0  0
  180.6660  180.1740  140.2790 C   0  0  0  0  0  0  0  0  0  0  0  0
  188.1110  179.6370  137.3770 O   0  0  0  0  0  0  0  0  0  0  0  0
  188.2800  178.4210  137.6770 C   0  0  0  0  0  0  0  0  0  0  0  0
  187.4380  177.4340  137.1610 O   0  0  0  0  0  0  0  0  0  0  0  0
  185.9630  177.7530  134.8170 O   0  0  0  0  0  1  0  0  0  0  0  0
  187.3610  177.0680  135.4840 P   0  0  0  0  0  0  0  0  0  0  0  0
  188.5810  177.6230  134.7850 O   0  0  0  0  0  0  0  0  0  0  0  0
  187.3090  175.3880  135.2820 O   0  0  0  0  0  1  0  0  0  0  0  0
  184.7420  179.3260  143.1280 C   0  0  0  0  0  2  0  0  0  0  0  0
  183.7570  178.7060  143.9000 O   0  0  0  0  0  1  0  0  0  0  0  0
  1  7  1  0  0  0  0
  2  3  1  0  0  0  0
  3 13  2  0  0  0  0
  4 22  1  6  0  0  0
  4  8  1  0  0  0  0
  5 32  1  6  0  0  0
  5 14  1  0  0  0  0
  6 10  1  0  0  0  0
  7  9  2  0  0  0  0
  8  1  1  0  0  0  0
  8 38  1  1  0  0  0
 10 19  2  0  0  0  0
 11  3  1  0  0  0  0
 12 16  2  0  0  0  0
 12  5  1  0  0  0  0
 13  9  1  0  0  0  0
 14 15  1  0  0  0  0
 14 19  1  1  0  0  0
 15 17  1  0  0  0  0
 16  6  1  0  0  0  0
 17  2  1  0  0  0  0
 17  1  2  0  0  0  0
 18 15  1  0  0  0  0
 18  4  1  0  0  0  0
 19  2  1  0  0  0  0
 20 22  1  0  0  0  0
 22 21  1  0  0  0  0
 23 20  2  0  0  0  0
 24 26  1  0  0  0  0
 25 24  1  0  0  0  0
 25 26  1  0  0  0  0
 26 20  1  0  0  0  0
 26 27  1  0  0  0  0
 27 30  1  0  0  0  0
 28 30  2  0  0  0  0
 30 29  1  0  0  0  0
 31 32  2  0  0  0  0
 33 32  1  0  0  0  0
 34 35  1  0  0  0  0
 35 33  1  0  0  0  0
 36 35  2  0  0  0  0
 37 35  1  0  0  0  0
 38 39  1  0  0  0  0
M  END
>  <MODEL>
4

>  <REMARK>
 VINA RESULT:      -6.9      1.064      1.899
  Name = 
  8 active torsions:
  status: ('A' for Active; 'I' for Inactive)
    1  A    between atoms: C_6  and  C_39
    2  A    between atoms: C_8  and  N_27
    3  A    between atoms: C_9  and  C_22
    4  A    between atoms: C_13  and  C_15
    5  A    between atoms: C_20  and  C_37
    6  A    between atoms: P_21  and  O_23
    7  A    between atoms: C_22  and  O_23
    8  A    between atoms: C_37  and  C_39
                            x       y       z     vdW  Elec       q    Type
                         _______ _______ _______ _____ _____    ______ ____

>  <TORSDO>
F 8

$$$$
=
 OpenBabel11062417563D

 39 43  0  0  1  0  0  0  0  0999 V2000
  185.8810  178.2390  145.4880 C   0  0  0  0  0  0  0  0  0  0  0  0
  188.0830  177.5500  146.3330 N   0  0  0  0  0  0  0  0  0  0  0  0
  188.1720  178.2530  147.5890 C   0  0  0  0  0  0  0  0  0  0  0  0
  185.7020  178.5450  142.9420 C   0  0  1  0  0  3  0  0  0  0  0  0
  190.0840  177.2060  143.2620 C   0  0  2  0  0  3  0  0  0  0  0  0
  191.6800  176.3710  145.6070 C   0  0  0  0  0  2  0  0  0  0  0  0
  185.2180  178.1180  146.8000 C   0  0  0  0  0  3  0  0  0  0  0  0
  184.9670  178.4570  144.2920 C   0  0  2  0  0  3  0  0  0  0  0  0
  185.7520  178.2220  148.0150 C   0  0  0  0  0  3  0  0  0  0  0  0
  190.3530  176.6760  146.2500 C   0  0  0  0  0  3  0  0  0  0  0  0
  189.4420  178.6610  148.0890 N   0  0  0  0  0  1  0  0  0  0  0  0
  190.9820  176.0030  143.2400 C   0  0  0  0  0  3  0  0  0  0  0  0
  187.1230  178.5020  148.3110 N   0  0  0  0  0  0  0  0  0  0  0  0
  188.8980  176.8410  144.1660 C   0  0  2  0  0  3  0  0  0  0  0  0
  187.6970  177.6520  143.9940 N   0  0  0  0  0  0  0  0  0  0  0  0
  191.6560  175.5970  144.3210 C   0  0  0  0  0  3  0  0  0  0  0  0
  187.1720  177.9070  145.2980 C   0  0  0  0  0  0  0  0  0  0  0  0
  186.8070  177.5020  142.8520 C   0  0  0  0  0  2  0  0  0  0  0  0
  189.1970  176.9790  145.6370 C   0  0  0  0  0  0  0  0  0  0  0  0
  185.1100  178.9880  140.5480 C   0  0  0  0  0  0  0  0  0  0  0  0
  183.5360  177.6510  142.0020 C   0  0  0  0  0  1  0  0  0  0  0  0
  184.7740  178.4050  141.8210 N   0  0  0  0  0  0  0  0  0  0  0  0
  186.0750  179.7960  140.4670 O   0  0  0  0  0  0  0  0  0  0  0  0
  182.8330  178.6870  139.5060 C   0  0  0  0  0  2  0  0  0  0  0  0
  183.5120  179.7710  138.6830 C   0  0  0  0  0  2  0  0  0  0  0  0
  184.3320  178.6610  139.3040 C   0  0  0  0  0  0  0  0  0  0  0  0
  184.7800  177.5220  138.3990 C   0  0  0  0  0  2  0  0  0  0  0  0
  187.0120  176.8360  137.9210 O   0  0  0  0  0  1  0  0  0  0  0  0
  186.4990  179.0010  137.3590 O   0  0  0  0  0  0  0  0  0  0  0  0
  186.1550  177.7580  137.8740 C   0  0  0  0  0  0  0  0  0  0  0  0
  189.2590  178.6930  141.5720 O   0  0  0  0  0  0  0  0  0  0  0  0
  189.6860  177.5390  141.8570 C   0  0  0  0  0  0  0  0  0  0  0  0
  189.7900  176.5530  140.8750 O   0  0  0  0  0  0  0  0  0  0  0  0
  190.0040  177.8640  138.4240 O   0  0  0  0  0  0  0  0  0  0  0  0
  190.7470  176.7510  139.4630 P   0  0  0  0  0  0  0  0  0  0  0  0
  192.1210  177.2530  139.8440 O   0  0  0  0  0  1  0  0  0  0  0  0
  190.8890  175.2610  138.6710 O   0  0  0  0  0  1  0  0  0  0  0  0
  184.0690  179.6780  144.4880 C   0  0  0  0  0  2  0  0  0  0  0  0
  182.7740  179.2880  144.8360 O   0  0  0  0  0  1  0  0  0  0  0  0
  1  7  1  0  0  0  0
  2  3  1  0  0  0  0
  3 11  1  0  0  0  0
  3 13  2  0  0  0  0
  4 22  1  6  0  0  0
  4  8  1  0  0  0  0
  5 32  1  6  0  0  0
  5 14  1  0  0  0  0
  6 10  1  0  0  0  0
  7  9  2  0  0  0  0
  8 38  1  1  0  0  0
  8  1  1  0  0  0  0
  9 13  1  0  0  0  0
 12  5  1  0  0  0  0
 12 16  2  0  0  0  0
 14 19  1  1  0  0  0
 15 14  1  0  0  0  0
 15 17  1  0  0  0  0
 16  6  1  0  0  0  0
 17  1  2  0  0  0  0
 17  2  1  0  0  0  0
 18  4  1  0  0  0  0
 18 15  1  0  0  0  0
 19 10  2  0  0  0  0
 19  2  1  0  0  0  0
 20 22  1  0  0  0  0
 22 21  1  0  0  0  0
 23 20  2  0  0  0  0
 25 26  1  0  0  0  0
 25 24  1  0  0  0  0
 26 24  1  0  0  0  0
 26 20  1  0  0  0  0
 27 26  1  0  0  0  0
 29 30  2  0  0  0  0
 30 28  1  0  0  0  0
 30 27  1  0  0  0  0
 31 32  2  0  0  0  0
 33 32  1  0  0  0  0
 34 35  2  0  0  0  0
 35 36  1  0  0  0  0
 35 33  1  0  0  0  0
 37 35  1  0  0  0  0
 38 39  1  0  0  0  0
M  END
>  <MODEL>
5

>  <REMARK>
 VINA RESULT:      -6.8      2.532      3.813
  Name = 
  8 active torsions:
  status: ('A' for Active; 'I' for Inactive)
    1  A    between atoms: C_6  and  C_39
    2  A    between atoms: C_8  and  N_27
    3  A    between atoms: C_9  and  C_22
    4  A    between atoms: C_13  and  C_15
    5  A    between atoms: C_20  and  C_37
    6  A    between atoms: P_21  and  O_23
    7  A    between atoms: C_22  and  O_23
    8  A    between atoms: C_37  and  C_39
                            x       y       z     vdW  Elec       q    Type
                         _______ _______ _______ _____ _____    ______ ____

>  <TORSDO>
F 8

$$$$
=
 OpenBabel11062417563D

 39 43  0  0  1  0  0  0  0  0999 V2000
  188.9420  177.8820  142.2470 C   0  0  0  0  0  0  0  0  0  0  0  0
  187.3020  178.2270  144.0430 N   0  0  0  0  0  0  0  0  0  0  0  0
  187.8870  177.5060  145.1460 C   0  0  0  0  0  0  0  0  0  0  0  0
  187.9760  177.6300  139.8780 C   0  0  1  0  0  3  0  0  0  0  0  0
  184.0930  178.2990  142.2390 C   0  0  2  0  0  3  0  0  0  0  0  0
  183.6520  178.8650  145.1080 C   0  0  0  0  0  2  0  0  0  0  0  0
  190.1100  178.0880  143.1240 C   0  0  0  0  0  3  0  0  0  0  0  0
  189.2280  177.8130  140.7540 C   0  0  2  0  0  3  0  0  0  0  0  0
  190.2080  177.8940  144.4370 C   0  0  0  0  0  3  0  0  0  0  0  0
  185.1540  178.7550  145.0580 C   0  0  0  0  0  3  0  0  0  0  0  0
  187.0490  176.9100  146.1320 N   0  0  0  0  0  1  0  0  0  0  0  0
  183.1380  179.3550  142.7160 C   0  0  0  0  0  3  0  0  0  0  0  0
  189.1730  177.4100  145.2970 N   0  0  0  0  0  0  0  0  0  0  0  0
  185.5030  178.8280  142.5370 C   0  0  2  0  0  3  0  0  0  0  0  0
  186.5860  178.2070  141.7800 N   0  0  0  0  0  0  0  0  0  0  0  0
  182.9870  179.6460  144.0120 C   0  0  0  0  0  3  0  0  0  0  0  0
  187.6760  178.0200  142.6850 C   0  0  0  0  0  0  0  0  0  0  0  0
  186.8280  178.4970  140.3760 C   0  0  0  0  0  2  0  0  0  0  0  0
  185.9300  178.6330  143.9690 C   0  0  0  0  0  0  0  0  0  0  0  0
  188.0950  176.8790  137.4910 C   0  0  0  0  0  0  0  0  0  0  0  0
  188.6850  179.2610  138.0860 C   0  0  0  0  0  1  0  0  0  0  0  0
  188.2630  177.9180  138.4730 N   0  0  0  0  0  0  0  0  0  0  0  0
  187.9250  175.6860  137.8660 O   0  0  0  0  0  0  0  0  0  0  0  0
  189.4410  177.7450  135.5420 C   0  0  0  0  0  2  0  0  0  0  0  0
  189.0300  176.3340  135.1510 C   0  0  0  0  0  2  0  0  0  0  0  0
  188.1210  177.1780  136.0180 C   0  0  0  0  0  0  0  0  0  0  0  0
  186.9250  177.8420  135.3510 C   0  0  0  0  0  2  0  0  0  0  0  0
  185.2160  176.2340  134.9410 O   0  0  0  0  0  0  0  0  0  0  0  0
  184.9460  177.5060  136.8320 O   0  0  0  0  0  1  0  0  0  0  0  0
  185.6560  177.1410  135.6960 C   0  0  0  0  0  0  0  0  0  0  0  0
  183.6130  176.8700  140.3740 O   0  0  0  0  0  0  0  0  0  0  0  0
  183.8440  178.0430  140.7850 C   0  0  0  0  0  0  0  0  0  0  0  0
  183.8780  179.1170  139.8950 O   0  0  0  0  0  0  0  0  0  0  0  0
  182.2620  178.8230  137.6420 O   0  0  0  0  0  0  0  0  0  0  0  0
  182.4770  179.6890  139.0820 P   0  0  0  0  0  0  0  0  0  0  0  0
  181.2650  179.5100  139.9670 O   0  0  0  0  0  1  0  0  0  0  0  0
  182.6740  181.3310  138.7190 O   0  0  0  0  0  1  0  0  0  0  0  0
  190.2650  176.7380  140.4310 C   0  0  0  0  0  2  0  0  0  0  0  0
  191.4260  177.3120  139.9110 O   0  0  0  0  0  1  0  0  0  0  0  0
  1 17  2  0  0  0  0
  1  7  1  0  0  0  0
  2  3  1  0  0  0  0
  3 13  2  0  0  0  0
  3 11  1  0  0  0  0
  4 22  1  6  0  0  0
  4 18  1  0  0  0  0
  4  8  1  0  0  0  0
  5 32  1  6  0  0  0
  5 14  1  0  0  0  0
  5 12  1  0  0  0  0
  7  9  2  0  0  0  0
  8 38  1  1  0  0  0
  8  1  1  0  0  0  0
  9 13  1  0  0  0  0
 10  6  1  0  0  0  0
 12 16  2  0  0  0  0
 14 19  1  1  0  0  0
 15 14  1  0  0  0  0
 15 17  1  0  0  0  0
 16  6  1  0  0  0  0
 17  2  1  0  0  0  0
 18 15  1  0  0  0  0
 19  2  1  0  0  0  0
 19 10  2  0  0  0  0
 20 23  2  0  0  0  0
 20 22  1  0  0  0  0
 21 22  1  0  0  0  0
 24 26  1  0  0  0  0
 25 24  1  0  0  0  0
 25 26  1  0  0  0  0
 26 20  1  0  0  0  0
 27 30  1  0  0  0  0
 27 26  1  0  0  0  0
 28 30  2  0  0  0  0
 30 29  1  0  0  0  0
 31 32  2  0  0  0  0
 33 32  1  0  0  0  0
 34 35  2  0  0  0  0
 35 33  1  0  0  0  0
 35 36  1  0  0  0  0
 37 35  1  0  0  0  0
 39 38  1  0  0  0  0
M  END
>  <MODEL>
6

>  <REMARK>
 VINA RESULT:      -6.8      2.415      5.818
  Name = 
  8 active torsions:
  status: ('A' for Active; 'I' for Inactive)
    1  A    between atoms: C_6  and  C_39
    2  A    between atoms: C_8  and  N_27
    3  A    between atoms: C_9  and  C_22
    4  A    between atoms: C_13  and  C_15
    5  A    between atoms: C_20  and  C_37
    6  A    between atoms: P_21  and  O_23
    7  A    between atoms: C_22  and  O_23
    8  A    between atoms: C_37  and  C_39
                            x       y       z     vdW  Elec       q    Type
                         _______ _______ _______ _____ _____    ______ ____

>  <TORSDO>
F 8

$$$$
=
 OpenBabel11062417563D

 39 43  0  0  1  0  0  0  0  0999 V2000
  185.8750  178.5860  140.2450 C   0  0  0  0  0  0  0  0  0  0  0  0
  185.8350  178.2120  137.8170 N   0  0  0  0  0  0  0  0  0  0  0  0
  184.4630  177.8370  137.5790 C   0  0  0  0  0  0  0  0  0  0  0  0
  188.0380  177.8980  141.4510 C   0  0  1  0  0  3  0  0  0  0  0  0
  189.1850  176.8460  137.1290 C   0  0  2  0  0  3  0  0  0  0  0  0
  187.7030  177.2110  134.5960 C   0  0  0  0  0  2  0  0  0  0  0  0
  184.5820  179.2950  140.2670 C   0  0  0  0  0  3  0  0  0  0  0  0
  186.6830  178.6240  141.5330 C   0  0  2  0  0  3  0  0  0  0  0  0
  183.5580  179.1860  139.4230 C   0  0  0  0  0  3  0  0  0  0  0  0
  186.7190  177.7660  135.5940 C   0  0  0  0  0  3  0  0  0  0  0  0
  184.1420  176.9510  136.5100 N   0  0  0  0  0  1  0  0  0  0  0  0
  189.8300  177.3880  135.8860 C   0  0  0  0  0  3  0  0  0  0  0  0
  183.4890  178.3130  138.2920 N   0  0  0  0  0  0  0  0  0  0  0  0
  188.2350  177.9420  137.6330 C   0  0  2  0  0  3  0  0  0  0  0  0
  187.8390  177.8420  139.0340 N   0  0  0  0  0  0  0  0  0  0  0  0
  189.1410  177.6050  134.7620 C   0  0  0  0  0  3  0  0  0  0  0  0
  186.4490  178.1650  139.1010 C   0  0  0  0  0  0  0  0  0  0  0  0
  188.7340  178.1860  140.1280 C   0  0  0  0  0  2  0  0  0  0  0  0
  186.9150  177.9770  136.9050 C   0  0  0  0  0  0  0  0  0  0  0  0
  189.1640  177.2880  143.6050 C   0  0  0  0  0  0  0  0  0  0  0  0
  189.5140  179.5840  142.6140 C   0  0  0  0  0  1  0  0  0  0  0  0
  188.9040  178.2580  142.5730 N   0  0  0  0  0  0  0  0  0  0  0  0
  188.4770  176.2310  143.6550 O   0  0  0  0  0  0  0  0  0  0  0  0
  191.1710  176.3230  144.7880 C   0  0  0  0  0  2  0  0  0  0  0  0
  191.6640  177.6090  144.1420 C   0  0  0  0  0  2  0  0  0  0  0  0
  190.2370  177.5040  144.6340 C   0  0  0  0  0  0  0  0  0  0  0  0
  189.8990  178.1590  145.9660 C   0  0  0  0  0  2  0  0  0  0  0  0
  187.5950  177.8430  146.4840 O   0  0  0  0  0  0  0  0  0  0  0  0
  189.0460  176.3740  147.4870 O   0  0  0  0  0  1  0  0  0  0  0  0
  188.7800  177.4490  146.6490 C   0  0  0  0  0  0  0  0  0  0  0  0
  190.0320  175.6180  139.0060 O   0  0  0  0  0  0  0  0  0  0  0  0
  190.2540  176.4820  138.1120 C   0  0  0  0  0  0  0  0  0  0  0  0
  191.4940  177.1170  138.0250 O   0  0  0  0  0  0  0  0  0  0  0  0
  192.6640  174.5970  137.7890 O   0  0  0  0  0  1  0  0  0  0  0  0
  192.9770  176.2500  137.9870 P   0  0  0  0  0  0  0  0  0  0  0  0
  193.8280  176.7460  136.8410 O   0  0  0  0  0  0  0  0  0  0  0  0
  193.8000  176.4890  139.4470 O   0  0  0  0  0  1  0  0  0  0  0  0
  185.8730  178.1030  142.7190 C   0  0  0  0  0  2  0  0  0  0  0  0
  185.4860  179.1540  143.5530 O   0  0  0  0  0  1  0  0  0  0  0  0
  1  7  1  0  0  0  0
  1  8  1  0  0  0  0
  2 17  1  0  0  0  0
  3  2  1  0  0  0  0
  3 13  2  0  0  0  0
  4  8  1  0  0  0  0
  4 22  1  1  0  0  0
  5 14  1  0  0  0  0
  5 32  1  1  0  0  0
  6 16  1  0  0  0  0
  6 10  1  0  0  0  0
  8 38  1  1  0  0  0
  9  7  2  0  0  0  0
 10 19  2  0  0  0  0
 11  3  1  0  0  0  0
 12  5  1  0  0  0  0
 13  9  1  0  0  0  0
 14 19  1  6  0  0  0
 14 15  1  0  0  0  0
 15 17  1  0  0  0  0
 15 18  1  0  0  0  0
 16 12  2  0  0  0  0
 17  1  2  0  0  0  0
 18  4  1  0  0  0  0
 19  2  1  0  0  0  0
 20 23  2  0  0  0  0
 20 26  1  0  0  0  0
 22 21  1  0  0  0  0
 22 20  1  0  0  0  0
 25 26  1  0  0  0  0
 25 24  1  0  0  0  0
 26 24  1  0  0  0  0
 26 27  1  0  0  0  0
 27 30  1  0  0  0  0
 28 30  2  0  0  0  0
 30 29  1  0  0  0  0
 32 31  2  0  0  0  0
 33 32  1  0  0  0  0
 34 35  1  0  0  0  0
 35 33  1  0  0  0  0
 35 37  1  0  0  0  0
 36 35  2  0  0  0  0
 38 39  1  0  0  0  0
M  END
>  <MODEL>
7

>  <REMARK>
 VINA RESULT:      -6.5      3.058      6.892
  Name = 
  8 active torsions:
  status: ('A' for Active; 'I' for Inactive)
    1  A    between atoms: C_6  and  C_39
    2  A    between atoms: C_8  and  N_27
    3  A    between atoms: C_9  and  C_22
    4  A    between atoms: C_13  and  C_15
    5  A    between atoms: C_20  and  C_37
    6  A    between atoms: P_21  and  O_23
    7  A    between atoms: C_22  and  O_23
    8  A    between atoms: C_37  and  C_39
                            x       y       z     vdW  Elec       q    Type
                         _______ _______ _______ _____ _____    ______ ____

>  <TORSDO>
F 8

$$$$
=
 OpenBabel11062417563D

 39 43  0  0  1  0  0  0  0  0999 V2000
  184.1060  178.3450  141.0000 C   0  0  0  0  0  0  0  0  0  0  0  0
  184.4040  178.3030  143.4390 N   0  0  0  0  0  0  0  0  0  0  0  0
  183.3140  179.1250  143.9030 C   0  0  0  0  0  0  0  0  0  0  0  0
  186.2640  178.3500  139.6060 C   0  0  1  0  0  3  0  0  0  0  0  0
  188.0630  178.1650  143.8280 C   0  0  2  0  0  3  0  0  0  0  0  0
  186.7570  177.9790  146.4750 C   0  0  0  0  0  2  0  0  0  0  0  0
  182.6400  178.1920  141.0670 C   0  0  0  0  0  3  0  0  0  0  0  0
  184.7310  178.2150  139.6200 C   0  0  2  0  0  3  0  0  0  0  0  0
  181.8110  178.5410  142.0490 C   0  0  0  0  0  3  0  0  0  0  0  0
  185.5610  178.0090  145.5600 C   0  0  0  0  0  3  0  0  0  0  0  0
  183.4520  179.8780  145.1040 N   0  0  0  0  0  1  0  0  0  0  0  0
  188.5360  177.2240  144.8970 C   0  0  0  0  0  3  0  0  0  0  0  0
  182.1790  179.1770  143.2750 N   0  0  0  0  0  0  0  0  0  0  0  0
  186.7220  177.6100  143.3280 C   0  0  2  0  0  3  0  0  0  0  0  0
  186.2900  178.0800  142.0160 N   0  0  0  0  0  0  0  0  0  0  0  0
  187.9060  177.1030  146.0700 C   0  0  0  0  0  3  0  0  0  0  0  0
  184.8850  178.3240  142.0980 C   0  0  0  0  0  0  0  0  0  0  0  0
  186.8900  177.6070  140.7770 C   0  0  0  0  0  2  0  0  0  0  0  0
  185.5560  177.9580  144.2180 C   0  0  0  0  0  0  0  0  0  0  0  0
  188.2000  178.1760  138.0240 C   0  0  0  0  0  0  0  0  0  0  0  0
  186.0000  177.0870  137.4350 C   0  0  0  0  0  1  0  0  0  0  0  0
  186.8280  177.8780  138.3410 N   0  0  0  0  0  0  0  0  0  0  0  0
  188.8320  179.0200  138.7170 O   0  0  0  0  0  0  0  0  0  0  0  0
  188.1490  177.5980  135.5700 C   0  0  0  0  0  2  0  0  0  0  0  0
  189.4300  178.3940  135.7690 C   0  0  0  0  0  2  0  0  0  0  0  0
  188.9050  177.5070  136.8780 C   0  0  0  0  0  0  0  0  0  0  0  0
  189.5720  176.1530  137.0740 C   0  0  0  0  0  2  0  0  0  0  0  0
  190.5560  175.9040  139.2300 O   0  0  0  0  0  1  0  0  0  0  0  0
  191.9400  176.7380  137.6010 O   0  0  0  0  0  0  0  0  0  0  0  0
  190.7140  176.2470  138.0290 C   0  0  0  0  0  0  0  0  0  0  0  0
  189.2580  179.3190  142.0980 O   0  0  0  0  0  0  0  0  0  0  0  0
  189.1100  178.2530  142.7610 C   0  0  0  0  0  0  0  0  0  0  0  0
  189.9110  177.1380  142.5090 O   0  0  0  0  0  0  0  0  0  0  0  0
  191.8820  175.6280  143.7780 O   0  0  0  0  0  1  0  0  0  0  0  0
  191.5700  177.0730  142.9500 P   0  0  0  0  0  0  0  0  0  0  0  0
  192.4300  177.1430  141.7100 O   0  0  0  0  0  0  0  0  0  0  0  0
  191.9300  178.3820  143.9630 O   0  0  0  0  0  1  0  0  0  0  0  0
  184.1020  179.1910  138.6260 C   0  0  0  0  0  2  0  0  0  0  0  0
  184.1980  180.5030  139.0930 O   0  0  0  0  0  1  0  0  0  0  0  0
  1  7  1  0  0  0  0
  1 17  2  0  0  0  0
  2  3  1  0  0  0  0
  2 19  1  0  0  0  0
  3 11  1  0  0  0  0
  4 22  1  6  0  0  0
  4  8  1  0  0  0  0
  4 18  1  0  0  0  0
  5 32  1  6  0  0  0
  5 12  1  0  0  0  0
  7  9  2  0  0  0  0
  8 38  1  6  0  0  0
  8  1  1  0  0  0  0
  9 13  1  0  0  0  0
 10  6  1  0  0  0  0
 12 16  2  0  0  0  0
 13  3  2  0  0  0  0
 14  5  1  0  0  0  0
 14 19  1  1  0  0  0
 15 17  1  0  0  0  0
 15 14  1  0  0  0  0
 16  6  1  0  0  0  0
 17  2  1  0  0  0  0
 18 15  1  0  0  0  0
 19 10  2  0  0  0  0
 20 22  1  0  0  0  0
 20 23  2  0  0  0  0
 21 22  1  0  0  0  0
 24 25  1  0  0  0  0
 24 26  1  0  0  0  0
 25 26  1  0  0  0  0
 26 27  1  0  0  0  0
 26 20  1  0  0  0  0
 27 30  1  0  0  0  0
 29 30  2  0  0  0  0
 30 28  1  0  0  0  0
 31 32  2  0  0  0  0
 33 32  1  0  0  0  0
 33 35  1  0  0  0  0
 35 34  1  0  0  0  0
 35 37  1  0  0  0  0
 36 35  2  0  0  0  0
 38 39  1  0  0  0  0
M  END
>  <MODEL>
8

>  <REMARK>
 VINA RESULT:      -6.2      3.285      6.351
  Name = 
  8 active torsions:
  status: ('A' for Active; 'I' for Inactive)
    1  A    between atoms: C_6  and  C_39
    2  A    between atoms: C_8  and  N_27
    3  A    between atoms: C_9  and  C_22
    4  A    between atoms: C_13  and  C_15
    5  A    between atoms: C_20  and  C_37
    6  A    between atoms: P_21  and  O_23
    7  A    between atoms: C_22  and  O_23
    8  A    between atoms: C_37  and  C_39
                            x       y       z     vdW  Elec       q    Type
                         _______ _______ _______ _____ _____    ______ ____

>  <TORSDO>
F 8

$$$$
=
 OpenBabel11062417563D

 39 43  0  0  1  0  0  0  0  0999 V2000
  183.6860  178.7420  142.9940 C   0  0  0  0  0  0  0  0  0  0  0  0
  181.7850  178.7710  141.4370 N   0  0  0  0  0  0  0  0  0  0  0  0
  180.6930  178.3240  142.2650 C   0  0  0  0  0  0  0  0  0  0  0  0
  185.9490  178.0530  141.9890 C   0  0  1  0  0  3  0  0  0  0  0  0
  183.3240  177.8330  138.2260 C   0  0  2  0  0  3  0  0  0  0  0  0
  180.4670  178.4820  137.8250 C   0  0  0  0  0  2  0  0  0  0  0  0
  182.9190  179.3230  144.1120 C   0  0  0  0  0  3  0  0  0  0  0  0
  185.1890  178.6360  143.1950 C   0  0  2  0  0  3  0  0  0  0  0  0
  181.6090  179.2670  144.3410 C   0  0  0  0  0  3  0  0  0  0  0  0
  180.6320  178.7780  139.2940 C   0  0  0  0  0  3  0  0  0  0  0  0
  179.6090  177.6030  141.6860 N   0  0  0  0  0  1  0  0  0  0  0  0
  182.8340  178.6260  137.0500 C   0  0  0  0  0  3  0  0  0  0  0  0
  180.6420  178.5900  143.5340 N   0  0  0  0  0  0  0  0  0  0  0  0
  183.1730  178.7440  139.4530 C   0  0  2  0  0  3  0  0  0  0  0  0
  183.9770  178.3800  140.6150 N   0  0  0  0  0  0  0  0  0  0  0  0
  181.5490  178.9660  136.9050 C   0  0  0  0  0  3  0  0  0  0  0  0
  183.1550  178.5660  141.7690 C   0  0  0  0  0  0  0  0  0  0  0  0
  185.4120  178.6150  140.6810 C   0  0  0  0  0  2  0  0  0  0  0  0
  181.7710  178.7850  140.0040 C   0  0  0  0  0  0  0  0  0  0  0  0
  188.2380  177.2690  142.6390 C   0  0  0  0  0  0  0  0  0  0  0  0
  187.9390  179.5640  141.6300 C   0  0  0  0  0  1  0  0  0  0  0  0
  187.3870  178.2960  142.0980 N   0  0  0  0  0  0  0  0  0  0  0  0
  187.7240  176.2710  143.2160 O   0  0  0  0  0  0  0  0  0  0  0  0
  190.4150  176.0030  142.4980 C   0  0  0  0  0  2  0  0  0  0  0  0
  190.3750  176.8750  141.2520 C   0  0  0  0  0  2  0  0  0  0  0  0
  189.7350  177.3540  142.5370 C   0  0  0  0  0  0  0  0  0  0  0  0
  190.5020  178.3700  143.3720 C   0  0  0  0  0  2  0  0  0  0  0  0
  189.5110  178.1640  145.5290 O   0  0  0  0  0  1  0  0  0  0  0  0
  191.6800  177.4340  145.3630 O   0  0  0  0  0  0  0  0  0  0  0  0
  190.5280  177.9780  144.8100 C   0  0  0  0  0  0  0  0  0  0  0  0
  185.0410  176.1780  137.9680 O   0  0  0  0  0  0  0  0  0  0  0  0
  184.7360  177.4050  137.9680 C   0  0  0  0  0  0  0  0  0  0  0  0
  185.7050  178.3820  137.7340 O   0  0  0  0  0  0  0  0  0  0  0  0
  187.9910  177.1230  138.7130 O   0  0  0  0  0  1  0  0  0  0  0  0
  187.3480  177.9980  137.4130 P   0  0  0  0  0  0  0  0  0  0  0  0
  187.4410  177.1730  136.1510 O   0  0  0  0  0  0  0  0  0  0  0  0
  188.2280  179.4310  137.2190 O   0  0  0  0  0  1  0  0  0  0  0  0
  185.5320  177.8580  144.4650 C   0  0  0  0  0  2  0  0  0  0  0  0
  186.1290  178.6950  145.4100 O   0  0  0  0  0  1  0  0  0  0  0  0
  1  8  1  0  0  0  0
  1  7  1  0  0  0  0
  2 17  1  0  0  0  0
  2  3  1  0  0  0  0
  3 13  2  0  0  0  0
  4 22  1  1  0  0  0
  4  8  1  0  0  0  0
  5 32  1  6  0  0  0
  5 14  1  0  0  0  0
  6 10  1  0  0  0  0
  7  9  2  0  0  0  0
  8 38  1  1  0  0  0
 10 19  2  0  0  0  0
 11  3  1  0  0  0  0
 12  5  1  0  0  0  0
 13  9  1  0  0  0  0
 14 19  1  1  0  0  0
 14 15  1  0  0  0  0
 15 18  1  0  0  0  0
 15 17  1  0  0  0  0
 16 12  2  0  0  0  0
 16  6  1  0  0  0  0
 17  1  2  0  0  0  0
 18  4  1  0  0  0  0
 19  2  1  0  0  0  0
 20 23  2  0  0  0  0
 21 22  1  0  0  0  0
 22 20  1  0  0  0  0
 24 26  1  0  0  0  0
 25 24  1  0  0  0  0
 25 26  1  0  0  0  0
 26 20  1  0  0  0  0
 26 27  1  0  0  0  0
 27 30  1  0  0  0  0
 30 29  2  0  0  0  0
 30 28  1  0  0  0  0
 31 32  2  0  0  0  0
 33 32  1  0  0  0  0
 35 33  1  0  0  0  0
 35 34  1  0  0  0  0
 36 35  2  0  0  0  0
 37 35  1  0  0  0  0
 38 39  1  0  0  0  0
M  END
>  <MODEL>
9

>  <REMARK>
 VINA RESULT:      -6.2      2.574      7.206
  Name = 
  8 active torsions:
  status: ('A' for Active; 'I' for Inactive)
    1  A    between atoms: C_6  and  C_39
    2  A    between atoms: C_8  and  N_27
    3  A    between atoms: C_9  and  C_22
    4  A    between atoms: C_13  and  C_15
    5  A    between atoms: C_20  and  C_37
    6  A    between atoms: P_21  and  O_23
    7  A    between atoms: C_22  and  O_23
    8  A    between atoms: C_37  and  C_39
                            x       y       z     vdW  Elec       q    Type
                         _______ _______ _______ _____ _____    ______ ____

>  <TORSDO>
F 8

$$$$
