=
 OpenBabel11062413403D

 42 46  0  0  1  0  0  0  0  0999 V2000
  186.1970  178.9580  137.2280 C   0  0  0  0  0  2  0  0  0  0  0  0
  189.4580  177.6150  141.1150 C   0  0  0  0  0  0  0  0  0  0  0  0
  185.8400  178.5840  138.5930 N   0  0  0  0  0  0  0  0  0  0  0  0
  188.3180  178.2250  141.4440 C   0  0  0  0  0  3  0  0  0  0  0  0
  189.5590  176.7460  139.8990 C   0  0  0  0  0  2  0  0  0  0  0  0
  188.0980  178.0500  138.3800 C   0  0  0  0  0  0  0  0  0  0  0  0
  189.2650  177.4580  138.6190 C   0  0  0  0  0  3  0  0  0  0  0  0
  183.9110  179.8540  138.9150 O   0  0  0  0  0  0  0  0  0  0  0  0
  187.6740  178.5590  137.0370 C   0  0  1  0  0  3  0  0  0  0  0  0
  187.0830  178.2990  140.6400 C   0  0  0  0  0  3  0  0  0  0  0  0
  184.5320  178.7810  139.1450 C   0  0  0  0  0  0  0  0  0  0  0  0
  186.9910  178.1710  139.3100 C   0  0  0  0  0  0  0  0  0  0  0  0
  191.8800  177.0250  141.6740 C   0  0  0  0  0  2  0  0  0  0  0  0
  190.6160  177.7670  142.0670 C   0  0  1  0  0  0  0  0  0  0  0  0
  190.8220  179.0160  142.7070 O   0  0  0  0  0  0  0  0  0  0  0  0
  191.5940  177.3890  144.3000 C   0  0  1  0  0  3  0  0  0  0  0  0
  191.6690  179.7950  144.7170 O   0  0  0  0  0  0  0  0  0  0  0  0
  191.1650  176.6790  142.9890 C   0  0  2  0  0  0  0  0  0  0  0  0
  191.3660  178.8300  143.9620 C   0  0  0  0  0  0  0  0  0  0  0  0
  191.1640  174.5390  143.6710 C   0  0  0  0  0  1  0  0  0  0  0  0
  190.3840  175.5110  143.0280 O   0  0  0  0  0  0  0  0  0  0  0  0
  190.7480  176.9630  145.5170 C   0  0  2  0  0  3  0  0  0  0  0  0
  189.7020  177.8670  145.7350 O   0  0  0  0  0  1  0  0  0  0  0  0
  192.2870  175.6580  146.8190 O   0  0  0  0  0  1  0  0  0  0  0  0
  191.5810  176.8630  146.7860 C   0  0  0  0  0  2  0  0  0  0  0  0
  187.7590  177.4840  136.0590 N   0  0  0  0  0  2  0  0  0  0  0  0
  186.5710  177.4280  135.4150 O   0  0  0  0  0  1  0  0  0  0  0  0
  183.8860  177.6970  139.9590 C   0  0  1  0  0  3  0  0  0  0  0  0
  181.6530  179.0060  142.6710 C   0  0  0  0  0  3  0  0  0  0  0  0
  182.5300  179.1150  143.7540 C   0  0  0  0  0  3  0  0  0  0  0  0
  182.1070  178.5570  141.4700 N   0  0  0  0  0  0  0  0  0  0  0  0
  183.4130  178.2040  141.2820 C   0  0  0  0  0  0  0  0  0  0  0  0
  183.8710  178.7500  143.5860 C   0  0  0  0  0  3  0  0  0  0  0  0
  184.3170  178.2880  142.3470 C   0  0  0  0  0  3  0  0  0  0  0  0
  181.9450  175.7070  137.5680 O   0  0  0  0  0  0  0  0  0  0  0  0
  182.9470  176.1050  138.2140 C   0  0  0  0  0  0  0  0  0  0  0  0
  182.7750  177.0930  139.2290 N   0  0  0  0  0  2  0  0  0  0  0  0
  184.2960  175.5520  137.8920 C   0  0  0  0  0  2  0  0  0  0  0  0
  184.2000  174.5040  136.7990 C   0  0  0  0  0  2  0  0  0  0  0  0
  185.6400  172.9520  138.1160 O   0  0  0  0  0  1  0  0  0  0  0  0
  184.4790  173.1670  137.3830 C   0  0  0  0  0  0  0  0  0  0  0  0
  183.6510  172.2360  137.2450 O   0  0  0  0  0  0  0  0  0  0  0  0
  1  3  1  0  0  0  0
  2  4  2  0  0  0  0
  3 11  1  0  0  0  0
  3 12  1  0  0  0  0
  5  2  1  0  0  0  0
  6  7  2  0  0  0  0
  6 12  1  0  0  0  0
  7  5  1  0  0  0  0
  8 11  2  0  0  0  0
  9 26  1  6  0  0  0
  9  1  1  0  0  0  0
  9  6  1  0  0  0  0
 10  4  1  0  0  0  0
 12 10  2  0  0  0  0
 13 14  1  0  0  0  0
 13 18  1  0  0  0  0
 14  2  1  6  0  0  0
 14 15  1  0  0  0  0
 14 18  1  0  0  0  0
 15 19  1  0  0  0  0
 16 22  1  1  0  0  0
 18 21  1  1  0  0  0
 18 16  1  0  0  0  0
 19 16  1  0  0  0  0
 19 17  2  0  0  0  0
 21 20  1  0  0  0  0
 22 23  1  1  0  0  0
 22 25  1  0  0  0  0
 25 24  1  0  0  0  0
 27 26  1  0  0  0  0
 28 11  1  6  0  0  0
 28 32  1  0  0  0  0
 29 30  1  0  0  0  0
 31 29  2  0  0  0  0
 32 31  1  0  0  0  0
 32 34  2  0  0  0  0
 33 30  2  0  0  0  0
 34 33  1  0  0  0  0
 35 36  2  0  0  0  0
 36 37  1  0  0  0  0
 37 28  1  0  0  0  0
 38 36  1  0  0  0  0
 39 41  1  0  0  0  0
 39 38  1  0  0  0  0
 41 40  1  0  0  0  0
 42 41  2  0  0  0  0
M  END
>  <MODEL>
1

>  <REMARK>
 VINA RESULT:      -6.3      0.000      0.000
  Name = 
  11 active torsions:
  status: ('A' for Active; 'I' for Inactive)
    1  A    between atoms: C_2  and  C_12
    2  A    between atoms: C_2  and  C_34
    3  A    between atoms: C_5  and  C_13
    4  A    between atoms: C_9  and  C_24
    5  A    between atoms: C_9  and  C_35
    6  A    between atoms: C_11  and  C_16
    7  A    between atoms: C_11  and  N_33
    8  A    between atoms: C_11  and  C_36
    9  A    between atoms: N_20  and  C_30
   10  A    between atoms: C_29  and  C_34
   11  A    between atoms: O_37  and  C_41
                            x       y       z     vdW  Elec       q    Type
                         _______ _______ _______ _____ _____    ______ ____

>  <TORSDO>
F 11

$$$$
=
 OpenBabel11062413403D

 42 46  0  0  1  0  0  0  0  0999 V2000
  187.2410  178.5050  138.6050 C   0  0  0  0  0  2  0  0  0  0  0  0
  191.8200  175.9570  138.3150 C   0  0  0  0  0  0  0  0  0  0  0  0
  188.0670  178.0400  139.7140 N   0  0  0  0  0  0  0  0  0  0  0  0
  191.6200  176.7560  139.3640 C   0  0  0  0  0  3  0  0  0  0  0  0
  190.6830  175.2590  137.6330 C   0  0  0  0  0  2  0  0  0  0  0  0
  188.9780  177.0480  137.8140 C   0  0  0  0  0  0  0  0  0  0  0  0
  189.6580  176.1830  137.0640 C   0  0  0  0  0  3  0  0  0  0  0  0
  187.5950  179.6540  141.3300 O   0  0  0  0  0  0  0  0  0  0  0  0
  187.7830  177.8150  137.3370 C   0  0  1  0  0  3  0  0  0  0  0  0
  190.3240  177.2120  139.9010 C   0  0  0  0  0  3  0  0  0  0  0  0
  187.8590  178.4490  141.0720 C   0  0  0  0  0  0  0  0  0  0  0  0
  189.1670  177.2880  139.2320 C   0  0  0  0  0  0  0  0  0  0  0  0
  193.6180  176.2350  136.5200 C   0  0  0  0  0  2  0  0  0  0  0  0
  193.2490  175.7170  137.8980 C   0  0  1  0  0  0  0  0  0  0  0  0
  194.2740  175.8060  138.8730 O   0  0  0  0  0  0  0  0  0  0  0  0
  195.0580  174.1400  137.3270 C   0  0  1  0  0  3  0  0  0  0  0  0
  196.3410  174.8460  139.2830 O   0  0  0  0  0  0  0  0  0  0  0  0
  193.7140  174.7330  136.8260 C   0  0  2  0  0  0  0  0  0  0  0  0
  195.2990  174.9290  138.5770 C   0  0  0  0  0  0  0  0  0  0  0  0
  192.8590  173.8540  134.9450 C   0  0  0  0  0  1  0  0  0  0  0  0
  192.6990  173.8930  136.3360 O   0  0  0  0  0  0  0  0  0  0  0  0
  194.9720  172.6310  137.6310 C   0  0  2  0  0  3  0  0  0  0  0  0
  195.0440  172.3970  139.0080 O   0  0  0  0  0  1  0  0  0  0  0  0
  197.3250  172.1730  137.4790 O   0  0  0  0  0  1  0  0  0  0  0  0
  196.0780  171.8460  136.9420 C   0  0  0  0  0  2  0  0  0  0  0  0
  186.7830  176.8900  136.8260 N   0  0  0  0  0  2  0  0  0  0  0  0
  185.6080  177.1940  137.4250 O   0  0  0  0  0  1  0  0  0  0  0  0
  187.9150  177.4370  142.1810 C   0  0  1  0  0  3  0  0  0  0  0  0
  191.1970  178.4040  143.7150 C   0  0  0  0  0  3  0  0  0  0  0  0
  191.8090  177.1640  143.9180 C   0  0  0  0  0  3  0  0  0  0  0  0
  189.9580  178.4690  143.1550 N   0  0  0  0  0  0  0  0  0  0  0  0
  189.2820  177.3440  142.7780 C   0  0  0  0  0  0  0  0  0  0  0  0
  191.1300  175.9990  143.5460 C   0  0  0  0  0  3  0  0  0  0  0  0
  189.8580  176.0840  142.9770 C   0  0  0  0  0  3  0  0  0  0  0  0
  184.8000  178.3450  143.8880 O   0  0  0  0  0  0  0  0  0  0  0  0
  185.5560  177.9880  142.9500 C   0  0  0  0  0  0  0  0  0  0  0  0
  186.9370  177.7500  143.2180 N   0  0  0  0  0  2  0  0  0  0  0  0
  184.9980  177.8410  141.5720 C   0  0  0  0  0  2  0  0  0  0  0  0
  183.7980  178.7480  141.3790 C   0  0  0  0  0  2  0  0  0  0  0  0
  184.3610  180.0880  139.3530 O   0  0  0  0  0  1  0  0  0  0  0  0
  183.6430  179.0480  139.9320 C   0  0  0  0  0  0  0  0  0  0  0  0
  182.8900  178.3430  139.2220 O   0  0  0  0  0  0  0  0  0  0  0  0
  1  3  1  0  0  0  0
  2  4  2  0  0  0  0
  3 11  1  0  0  0  0
  4 10  1  0  0  0  0
  5  2  1  0  0  0  0
  6 12  1  0  0  0  0
  7  5  1  0  0  0  0
  7  6  2  0  0  0  0
  9 26  1  1  0  0  0
  9  6  1  0  0  0  0
  9  1  1  0  0  0  0
 11  8  2  0  0  0  0
 12  3  1  0  0  0  0
 12 10  2  0  0  0  0
 13 18  1  0  0  0  0
 13 14  1  0  0  0  0
 14  2  1  1  0  0  0
 14 15  1  0  0  0  0
 16 22  1  1  0  0  0
 16 19  1  0  0  0  0
 18 21  1  6  0  0  0
 18 16  1  0  0  0  0
 18 14  1  0  0  0  0
 19 15  1  0  0  0  0
 19 17  2  0  0  0  0
 20 21  1  0  0  0  0
 22 23  1  1  0  0  0
 25 24  1  0  0  0  0
 25 22  1  0  0  0  0
 26 27  1  0  0  0  0
 28 11  1  6  0  0  0
 28 32  1  0  0  0  0
 28 37  1  0  0  0  0
 29 30  1  0  0  0  0
 31 29  2  0  0  0  0
 32 34  2  0  0  0  0
 32 31  1  0  0  0  0
 33 30  2  0  0  0  0
 34 33  1  0  0  0  0
 36 37  1  0  0  0  0
 36 35  2  0  0  0  0
 38 36  1  0  0  0  0
 39 38  1  0  0  0  0
 40 41  1  0  0  0  0
 41 39  1  0  0  0  0
 42 41  2  0  0  0  0
M  END
>  <MODEL>
2

>  <REMARK>
 VINA RESULT:      -6.0      4.136      6.528
  Name = 
  11 active torsions:
  status: ('A' for Active; 'I' for Inactive)
    1  A    between atoms: C_2  and  C_12
    2  A    between atoms: C_2  and  C_34
    3  A    between atoms: C_5  and  C_13
    4  A    between atoms: C_9  and  C_24
    5  A    between atoms: C_9  and  C_35
    6  A    between atoms: C_11  and  C_16
    7  A    between atoms: C_11  and  N_33
    8  A    between atoms: C_11  and  C_36
    9  A    between atoms: N_20  and  C_30
   10  A    between atoms: C_29  and  C_34
   11  A    between atoms: O_37  and  C_41
                            x       y       z     vdW  Elec       q    Type
                         _______ _______ _______ _____ _____    ______ ____

>  <TORSDO>
F 11

$$$$
=
 OpenBabel11062413403D

 42 46  0  0  1  0  0  0  0  0999 V2000
  187.3270  177.8660  138.7360 C   0  0  0  0  0  2  0  0  0  0  0  0
  192.1650  175.8450  138.5170 C   0  0  0  0  0  0  0  0  0  0  0  0
  188.3280  177.8510  139.7970 N   0  0  0  0  0  0  0  0  0  0  0  0
  191.9690  176.9000  139.3090 C   0  0  0  0  0  3  0  0  0  0  0  0
  191.0720  174.8560  138.2430 C   0  0  0  0  0  2  0  0  0  0  0  0
  189.1580  176.4270  138.1510 C   0  0  0  0  0  0  0  0  0  0  0  0
  189.8680  175.4510  137.5910 C   0  0  0  0  0  3  0  0  0  0  0  0
  187.8100  179.8220  140.9300 O   0  0  0  0  0  0  0  0  0  0  0  0
  187.8190  176.8830  137.6560 C   0  0  1  0  0  3  0  0  0  0  0  0
  190.6880  177.3610  139.8780 C   0  0  0  0  0  3  0  0  0  0  0  0
  188.2150  178.6310  140.9950 C   0  0  0  0  0  0  0  0  0  0  0  0
  189.4660  177.1070  139.3950 C   0  0  0  0  0  0  0  0  0  0  0  0
  193.7970  176.1660  136.5770 C   0  0  0  0  0  2  0  0  0  0  0  0
  193.5590  175.6400  137.9810 C   0  0  1  0  0  0  0  0  0  0  0  0
  194.6610  175.7540  138.8650 O   0  0  0  0  0  0  0  0  0  0  0  0
  195.3500  174.1080  137.2540 C   0  0  1  0  0  3  0  0  0  0  0  0
  196.7780  174.8440  139.0960 O   0  0  0  0  0  0  0  0  0  0  0  0
  193.9550  174.6670  136.8700 C   0  0  2  0  0  0  0  0  0  0  0  0
  195.6770  174.9020  138.4810 C   0  0  0  0  0  0  0  0  0  0  0  0
  193.1990  173.4550  135.1380 C   0  0  0  0  0  1  0  0  0  0  0  0
  192.9220  173.8020  136.4670 O   0  0  0  0  0  0  0  0  0  0  0  0
  195.3270  172.5960  137.5610 C   0  0  2  0  0  3  0  0  0  0  0  0
  195.0430  172.3680  138.9110 O   0  0  0  0  0  1  0  0  0  0  0  0
  196.6540  170.5960  137.6500 O   0  0  0  0  0  1  0  0  0  0  0  0
  196.6480  171.9240  137.2180 C   0  0  0  0  0  2  0  0  0  0  0  0
  186.9120  175.7460  137.5890 N   0  0  0  0  0  2  0  0  0  0  0  0
  186.3810  175.7260  136.3450 O   0  0  0  0  0  1  0  0  0  0  0  0
  188.5390  178.0180  142.3270 C   0  0  1  0  0  3  0  0  0  0  0  0
  186.4730  177.9560  145.4560 C   0  0  0  0  0  3  0  0  0  0  0  0
  185.1760  178.1210  144.9620 C   0  0  0  0  0  3  0  0  0  0  0  0
  187.5290  177.9210  144.5990 N   0  0  0  0  0  0  0  0  0  0  0  0
  187.3620  178.0420  143.2490 C   0  0  0  0  0  0  0  0  0  0  0  0
  184.9840  178.2560  143.5820 C   0  0  0  0  0  3  0  0  0  0  0  0
  186.0800  178.2210  142.7180 C   0  0  0  0  0  3  0  0  0  0  0  0
  190.5350  174.9570  142.6170 O   0  0  0  0  0  0  0  0  0  0  0  0
  190.1280  176.1140  142.8860 C   0  0  0  0  0  0  0  0  0  0  0  0
  189.0190  176.6490  142.1650 N   0  0  0  0  0  2  0  0  0  0  0  0
  190.8240  176.9130  143.9380 C   0  0  0  0  0  2  0  0  0  0  0  0
  191.7050  176.0210  144.7930 C   0  0  0  0  0  2  0  0  0  0  0  0
  190.4880  177.1790  146.6350 O   0  0  0  0  0  0  0  0  0  0  0  0
  191.5860  176.4380  146.2140 C   0  0  0  0  0  0  0  0  0  0  0  0
  192.4590  176.0950  147.0440 O   0  0  0  0  0  1  0  0  0  0  0  0
  1  3  1  0  0  0  0
  2  4  2  0  0  0  0
  3 11  1  0  0  0  0
  4 10  1  0  0  0  0
  5  2  1  0  0  0  0
  6 12  1  0  0  0  0
  7  6  2  0  0  0  0
  7  5  1  0  0  0  0
  8 11  2  0  0  0  0
  9 26  1  1  0  0  0
  9  6  1  0  0  0  0
  9  1  1  0  0  0  0
 12  3  1  0  0  0  0
 12 10  2  0  0  0  0
 13 18  1  0  0  0  0
 13 14  1  0  0  0  0
 14  2  1  1  0  0  0
 14 15  1  0  0  0  0
 16 22  1  1  0  0  0
 16 19  1  0  0  0  0
 18 21  1  6  0  0  0
 18 16  1  0  0  0  0
 18 14  1  0  0  0  0
 19 15  1  0  0  0  0
 19 17  2  0  0  0  0
 20 21  1  0  0  0  0
 22 23  1  1  0  0  0
 25 22  1  0  0  0  0
 25 24  1  0  0  0  0
 27 26  1  0  0  0  0
 28 11  1  6  0  0  0
 28 32  1  0  0  0  0
 30 29  1  0  0  0  0
 31 29  2  0  0  0  0
 32 31  1  0  0  0  0
 33 30  2  0  0  0  0
 34 32  2  0  0  0  0
 34 33  1  0  0  0  0
 35 36  2  0  0  0  0
 36 38  1  0  0  0  0
 37 28  1  0  0  0  0
 37 36  1  0  0  0  0
 38 39  1  0  0  0  0
 39 41  1  0  0  0  0
 41 40  2  0  0  0  0
 41 42  1  0  0  0  0
M  END
>  <MODEL>
3

>  <REMARK>
 VINA RESULT:      -5.9      4.248      7.101
  Name = 
  11 active torsions:
  status: ('A' for Active; 'I' for Inactive)
    1  A    between atoms: C_2  and  C_12
    2  A    between atoms: C_2  and  C_34
    3  A    between atoms: C_5  and  C_13
    4  A    between atoms: C_9  and  C_24
    5  A    between atoms: C_9  and  C_35
    6  A    between atoms: C_11  and  C_16
    7  A    between atoms: C_11  and  N_33
    8  A    between atoms: C_11  and  C_36
    9  A    between atoms: N_20  and  C_30
   10  A    between atoms: C_29  and  C_34
   11  A    between atoms: O_37  and  C_41
                            x       y       z     vdW  Elec       q    Type
                         _______ _______ _______ _____ _____    ______ ____

>  <TORSDO>
F 11

$$$$
=
 OpenBabel11062413403D

 42 46  0  0  1  0  0  0  0  0999 V2000
  189.5190  177.9950  137.4390 C   0  0  0  0  0  2  0  0  0  0  0  0
  189.0110  177.3170  142.6190 C   0  0  0  0  0  0  0  0  0  0  0  0
  188.2780  177.8820  138.1990 N   0  0  0  0  0  0  0  0  0  0  0  0
  188.0550  177.9980  141.9850 C   0  0  0  0  0  3  0  0  0  0  0  0
  189.7920  176.2390  141.9310 C   0  0  0  0  0  2  0  0  0  0  0  0
  189.9660  177.2730  139.6850 C   0  0  0  0  0  0  0  0  0  0  0  0
  190.5560  176.7110  140.7380 C   0  0  0  0  0  3  0  0  0  0  0  0
  186.8550  179.2270  136.9340 O   0  0  0  0  0  0  0  0  0  0  0  0
  190.6520  177.5380  138.3800 C   0  0  1  0  0  3  0  0  0  0  0  0
  187.7310  177.9500  140.5470 C   0  0  0  0  0  3  0  0  0  0  0  0
  186.9910  178.2020  137.6540 C   0  0  0  0  0  0  0  0  0  0  0  0
  188.5540  177.5840  139.5570 C   0  0  0  0  0  0  0  0  0  0  0  0
  189.2920  179.0900  144.4370 C   0  0  0  0  0  2  0  0  0  0  0  0
  189.2120  177.6170  144.0820 C   0  0  1  0  0  0  0  0  0  0  0  0
  188.5760  176.7950  145.0470 O   0  0  0  0  0  0  0  0  0  0  0  0
  190.6220  177.4880  146.1020 C   0  0  1  0  0  3  0  0  0  0  0  0
  188.9800  176.0520  147.2020 O   0  0  0  0  0  0  0  0  0  0  0  0
  190.4890  178.1690  144.7140 C   0  0  2  0  0  0  0  0  0  0  0  0
  189.3480  176.7040  146.1870 C   0  0  0  0  0  0  0  0  0  0  0  0
  192.2170  179.4560  144.0810 C   0  0  0  0  0  1  0  0  0  0  0  0
  191.5860  178.2290  143.8370 O   0  0  0  0  0  0  0  0  0  0  0  0
  191.8520  176.5610  146.2000 C   0  0  2  0  0  3  0  0  0  0  0  0
  191.7550  175.5110  145.2810 O   0  0  0  0  0  1  0  0  0  0  0  0
  192.4700  176.9540  148.4870 O   0  0  0  0  0  1  0  0  0  0  0  0
  192.0180  175.9790  147.5960 C   0  0  0  0  0  2  0  0  0  0  0  0
  191.2290  176.3010  137.8740 N   0  0  0  0  0  2  0  0  0  0  0  0
  191.3610  176.4350  136.5340 O   0  0  0  0  0  1  0  0  0  0  0  0
  185.8200  177.2970  137.9060 C   0  0  1  0  0  3  0  0  0  0  0  0
  183.7080  179.4020  140.1780 C   0  0  0  0  0  3  0  0  0  0  0  0
  182.4920  179.4590  139.4900 C   0  0  0  0  0  3  0  0  0  0  0  0
  184.7530  178.7040  139.6580 N   0  0  0  0  0  0  0  0  0  0  0  0
  184.6530  178.0430  138.4670 C   0  0  0  0  0  0  0  0  0  0  0  0
  182.3720  178.7960  138.2630 C   0  0  0  0  0  3  0  0  0  0  0  0
  183.4560  178.0880  137.7430 C   0  0  0  0  0  3  0  0  0  0  0  0
  185.6740  174.8810  135.1530 O   0  0  0  0  0  0  0  0  0  0  0  0
  185.9990  175.3630  136.2660 C   0  0  0  0  0  0  0  0  0  0  0  0
  185.4290  176.6030  136.6830 N   0  0  0  0  0  2  0  0  0  0  0  0
  186.9880  174.6400  137.1200 C   0  0  0  0  0  2  0  0  0  0  0  0
  188.3610  174.6470  136.4750 C   0  0  0  0  0  2  0  0  0  0  0  0
  190.2780  173.3220  137.3610 O   0  0  0  0  0  1  0  0  0  0  0  0
  189.0320  173.3500  136.7450 C   0  0  0  0  0  0  0  0  0  0  0  0
  188.4610  172.2750  136.4480 O   0  0  0  0  0  0  0  0  0  0  0  0
  1  3  1  0  0  0  0
  1  9  1  0  0  0  0
  3 12  1  0  0  0  0
  4  2  2  0  0  0  0
  5  2  1  0  0  0  0
  6  7  2  0  0  0  0
  7  5  1  0  0  0  0
  8 11  2  0  0  0  0
  9 26  1  6  0  0  0
  9  6  1  0  0  0  0
 10  4  1  0  0  0  0
 11 28  1  0  0  0  0
 11  3  1  0  0  0  0
 12  6  1  0  0  0  0
 12 10  2  0  0  0  0
 13 18  1  0  0  0  0
 14  2  1  6  0  0  0
 14 13  1  0  0  0  0
 14 18  1  0  0  0  0
 14 15  1  0  0  0  0
 15 19  1  0  0  0  0
 16 19  1  0  0  0  0
 16 22  1  6  0  0  0
 18 21  1  6  0  0  0
 18 16  1  0  0  0  0
 19 17  2  0  0  0  0
 21 20  1  0  0  0  0
 22 23  1  6  0  0  0
 22 25  1  0  0  0  0
 25 24  1  0  0  0  0
 27 26  1  0  0  0  0
 28 37  1  6  0  0  0
 28 32  1  0  0  0  0
 30 29  2  0  0  0  0
 31 29  1  0  0  0  0
 32 31  2  0  0  0  0
 33 30  1  0  0  0  0
 34 33  2  0  0  0  0
 34 32  1  0  0  0  0
 35 36  2  0  0  0  0
 36 37  1  0  0  0  0
 36 38  1  0  0  0  0
 39 41  1  0  0  0  0
 39 38  1  0  0  0  0
 41 40  1  0  0  0  0
 42 41  2  0  0  0  0
M  END
>  <MODEL>
4

>  <REMARK>
 VINA RESULT:      -5.8      2.284      3.490
  Name = 
  11 active torsions:
  status: ('A' for Active; 'I' for Inactive)
    1  A    between atoms: C_2  and  C_12
    2  A    between atoms: C_2  and  C_34
    3  A    between atoms: C_5  and  C_13
    4  A    between atoms: C_9  and  C_24
    5  A    between atoms: C_9  and  C_35
    6  A    between atoms: C_11  and  C_16
    7  A    between atoms: C_11  and  N_33
    8  A    between atoms: C_11  and  C_36
    9  A    between atoms: N_20  and  C_30
   10  A    between atoms: C_29  and  C_34
   11  A    between atoms: O_37  and  C_41
                            x       y       z     vdW  Elec       q    Type
                         _______ _______ _______ _____ _____    ______ ____

>  <TORSDO>
F 11

$$$$
=
 OpenBabel11062413403D

 42 46  0  0  1  0  0  0  0  0999 V2000
  180.4750  178.8730  141.7900 C   0  0  0  0  0  2  0  0  0  0  0  0
  185.4490  177.9600  143.1940 C   0  0  0  0  0  0  0  0  0  0  0  0
  181.6350  178.7550  140.9120 N   0  0  0  0  0  0  0  0  0  0  0  0
  185.0460  177.5040  142.0080 C   0  0  0  0  0  3  0  0  0  0  0  0
  184.8540  179.1940  143.8040 C   0  0  0  0  0  2  0  0  0  0  0  0
  182.5080  178.8830  143.0680 C   0  0  0  0  0  0  0  0  0  0  0  0
  183.3840  179.1000  144.0470 C   0  0  0  0  0  3  0  0  0  0  0  0
  180.6560  177.8580  138.9960 O   0  0  0  0  0  0  0  0  0  0  0  0
  181.0240  179.0220  143.2230 C   0  0  1  0  0  3  0  0  0  0  0  0
  183.9010  177.9850  141.2110 C   0  0  0  0  0  3  0  0  0  0  0  0
  181.5320  178.6180  139.4890 C   0  0  0  0  0  0  0  0  0  0  0  0
  182.8230  178.6300  141.6750 C   0  0  0  0  0  0  0  0  0  0  0  0
  186.2750  176.6260  145.2120 C   0  0  0  0  0  2  0  0  0  0  0  0
  186.5910  177.2330  143.8570 C   0  0  1  0  0  0  0  0  0  0  0  0
  187.4900  176.4860  143.0540 O   0  0  0  0  0  0  0  0  0  0  0  0
  188.8360  177.2870  144.8770 C   0  0  1  0  0  3  0  0  0  0  0  0
  189.7250  175.8830  143.0860 O   0  0  0  0  0  0  0  0  0  0  0  0
  187.3580  177.7080  145.0900 C   0  0  2  0  0  0  0  0  0  0  0  0
  188.7560  176.5040  143.6030 C   0  0  0  0  0  0  0  0  0  0  0  0
  186.7870  178.9420  146.8780 C   0  0  0  0  0  1  0  0  0  0  0  0
  187.0370  179.0140  145.5000 O   0  0  0  0  0  0  0  0  0  0  0  0
  189.7880  178.4910  144.7300 C   0  0  2  0  0  3  0  0  0  0  0  0
  189.7490  178.9980  143.4260 O   0  0  0  0  0  1  0  0  0  0  0  0
  191.2650  177.1060  146.0210 O   0  0  0  0  0  1  0  0  0  0  0  0
  191.2260  178.1290  145.0720 C   0  0  0  0  0  2  0  0  0  0  0  0
  180.7100  180.3520  143.7240 N   0  0  0  0  0  2  0  0  0  0  0  0
  179.9140  180.9510  142.8080 O   0  0  0  0  0  1  0  0  0  0  0  0
  182.4370  179.4080  138.5880 C   0  0  1  0  0  3  0  0  0  0  0  0
  186.0560  178.4770  138.2820 C   0  0  0  0  0  3  0  0  0  0  0  0
  185.9920  177.2300  137.6540 C   0  0  0  0  0  3  0  0  0  0  0  0
  184.9110  179.1560  138.5660 N   0  0  0  0  0  0  0  0  0  0  0  0
  183.6810  178.6530  138.2510 C   0  0  0  0  0  0  0  0  0  0  0  0
  184.7410  176.6920  137.3310 C   0  0  0  0  0  3  0  0  0  0  0  0
  183.5780  177.4020  137.6330 C   0  0  0  0  0  3  0  0  0  0  0  0
  180.4800  181.2960  136.1290 O   0  0  0  0  0  0  0  0  0  0  0  0
  181.1420  181.0770  137.1740 C   0  0  0  0  0  0  0  0  0  0  0  0
  181.7400  179.7960  137.3650 N   0  0  0  0  0  2  0  0  0  0  0  0
  181.2720  182.1530  138.2010 C   0  0  0  0  0  2  0  0  0  0  0  0
  180.5500  183.4110  137.7550 C   0  0  0  0  0  2  0  0  0  0  0  0
  181.2890  184.9340  135.9250 O   0  0  0  0  0  0  0  0  0  0  0  0
  181.5340  184.3530  137.1640 C   0  0  0  0  0  0  0  0  0  0  0  0
  182.5740  184.6520  137.7950 O   0  0  0  0  0  1  0  0  0  0  0  0
  1  9  1  0  0  0  0
  2  5  1  0  0  0  0
  3 12  1  0  0  0  0
  3  1  1  0  0  0  0
  4  2  2  0  0  0  0
  5  7  1  0  0  0  0
  6  9  1  0  0  0  0
  6  7  2  0  0  0  0
  8 11  2  0  0  0  0
  9 26  1  6  0  0  0
 10 12  2  0  0  0  0
 10  4  1  0  0  0  0
 11  3  1  0  0  0  0
 12  6  1  0  0  0  0
 14  2  1  6  0  0  0
 14 18  1  0  0  0  0
 14 13  1  0  0  0  0
 15 19  1  0  0  0  0
 15 14  1  0  0  0  0
 16 22  1  6  0  0  0
 16 18  1  0  0  0  0
 17 19  2  0  0  0  0
 18 13  1  0  0  0  0
 18 21  1  1  0  0  0
 19 16  1  0  0  0  0
 21 20  1  0  0  0  0
 22 23  1  6  0  0  0
 22 25  1  0  0  0  0
 25 24  1  0  0  0  0
 27 26  1  0  0  0  0
 28 37  1  6  0  0  0
 28 11  1  0  0  0  0
 29 31  1  0  0  0  0
 30 29  2  0  0  0  0
 32 31  2  0  0  0  0
 32 28  1  0  0  0  0
 33 34  2  0  0  0  0
 33 30  1  0  0  0  0
 34 32  1  0  0  0  0
 35 36  2  0  0  0  0
 36 37  1  0  0  0  0
 36 38  1  0  0  0  0
 39 38  1  0  0  0  0
 40 41  2  0  0  0  0
 41 39  1  0  0  0  0
 41 42  1  0  0  0  0
M  END
>  <MODEL>
5

>  <REMARK>
 VINA RESULT:      -5.7      3.098      6.462
  Name = 
  11 active torsions:
  status: ('A' for Active; 'I' for Inactive)
    1  A    between atoms: C_2  and  C_12
    2  A    between atoms: C_2  and  C_34
    3  A    between atoms: C_5  and  C_13
    4  A    between atoms: C_9  and  C_24
    5  A    between atoms: C_9  and  C_35
    6  A    between atoms: C_11  and  C_16
    7  A    between atoms: C_11  and  N_33
    8  A    between atoms: C_11  and  C_36
    9  A    between atoms: N_20  and  C_30
   10  A    between atoms: C_29  and  C_34
   11  A    between atoms: O_37  and  C_41
                            x       y       z     vdW  Elec       q    Type
                         _______ _______ _______ _____ _____    ______ ____

>  <TORSDO>
F 11

$$$$
=
 OpenBabel11062413403D

 42 46  0  0  1  0  0  0  0  0999 V2000
  183.4110  178.4420  141.4640 C   0  0  0  0  0  2  0  0  0  0  0  0
  186.1830  177.3800  137.1350 C   0  0  0  0  0  0  0  0  0  0  0  0
  182.9390  178.4650  140.0830 N   0  0  0  0  0  0  0  0  0  0  0  0
  184.8790  177.0990  137.1220 C   0  0  0  0  0  3  0  0  0  0  0  0
  186.7340  178.5050  137.9580 C   0  0  0  0  0  2  0  0  0  0  0  0
  185.2570  178.2830  139.9370 C   0  0  0  0  0  0  0  0  0  0  0  0
  186.4830  178.3620  139.4240 C   0  0  0  0  0  3  0  0  0  0  0  0
  180.7080  177.8490  140.3630 O   0  0  0  0  0  0  0  0  0  0  0  0
  184.9510  178.3840  141.3990 C   0  0  1  0  0  3  0  0  0  0  0  0
  183.8330  177.6800  137.9850 C   0  0  0  0  0  3  0  0  0  0  0  0
  181.5520  178.5370  139.7290 C   0  0  0  0  0  0  0  0  0  0  0  0
  184.0150  178.2400  139.1880 C   0  0  0  0  0  0  0  0  0  0  0  0
  186.3370  175.6760  135.2370 C   0  0  0  0  0  2  0  0  0  0  0  0
  187.0670  176.5740  136.2190 C   0  0  1  0  0  0  0  0  0  0  0  0
  188.2660  177.1550  135.7330 O   0  0  0  0  0  0  0  0  0  0  0  0
  188.7660  174.8110  135.9170 C   0  0  1  0  0  3  0  0  0  0  0  0
  190.3810  176.4540  135.1040 O   0  0  0  0  0  0  0  0  0  0  0  0
  187.2790  175.0620  136.2830 C   0  0  2  0  0  0  0  0  0  0  0  0
  189.2350  176.1880  135.5580 C   0  0  0  0  0  0  0  0  0  0  0  0
  186.2100  173.2110  136.9720 C   0  0  0  0  0  1  0  0  0  0  0  0
  186.7050  174.4470  137.4090 O   0  0  0  0  0  0  0  0  0  0  0  0
  189.5830  174.2340  137.0900 C   0  0  2  0  0  3  0  0  0  0  0  0
  189.9210  175.2400  138.0020 O   0  0  0  0  0  1  0  0  0  0  0  0
  191.9840  174.1820  137.1550 O   0  0  0  0  0  1  0  0  0  0  0  0
  190.8590  173.5530  136.6170 C   0  0  0  0  0  2  0  0  0  0  0  0
  185.5020  179.6230  141.9280 N   0  0  0  0  0  2  0  0  0  0  0  0
  185.0100  179.7830  143.1780 O   0  0  0  0  0  1  0  0  0  0  0  0
  181.1010  179.4600  138.6330 C   0  0  1  0  0  3  0  0  0  0  0  0
  179.3850  176.9220  136.4720 C   0  0  0  0  0  3  0  0  0  0  0  0
  179.7520  177.3260  135.1860 C   0  0  0  0  0  3  0  0  0  0  0  0
  179.8300  177.6130  137.5560 N   0  0  0  0  0  0  0  0  0  0  0  0
  180.6380  178.7060  137.4290 C   0  0  0  0  0  0  0  0  0  0  0  0
  180.5730  178.4490  135.0320 C   0  0  0  0  0  3  0  0  0  0  0  0
  181.0170  179.1480  136.1560 C   0  0  0  0  0  3  0  0  0  0  0  0
  179.1250  182.4560  139.3790 O   0  0  0  0  0  0  0  0  0  0  0  0
  180.0240  181.7510  138.8550 C   0  0  0  0  0  0  0  0  0  0  0  0
  180.0420  180.3460  139.1050 N   0  0  0  0  0  2  0  0  0  0  0  0
  181.0630  182.3990  138.0000 C   0  0  0  0  0  2  0  0  0  0  0  0
  180.4380  182.9920  136.7520 C   0  0  0  0  0  2  0  0  0  0  0  0
  180.9630  184.8140  135.1340 O   0  0  0  0  0  0  0  0  0  0  0  0
  181.1840  184.2180  136.3700 C   0  0  0  0  0  0  0  0  0  0  0  0
  181.9920  184.7370  137.1740 O   0  0  0  0  0  1  0  0  0  0  0  0
  2  5  1  0  0  0  0
  3  1  1  0  0  0  0
  4  2  2  0  0  0  0
  4 10  1  0  0  0  0
  5  7  1  0  0  0  0
  6  9  1  0  0  0  0
  7  6  2  0  0  0  0
  9  1  1  0  0  0  0
  9 26  1  6  0  0  0
 10 12  2  0  0  0  0
 11  3  1  0  0  0  0
 11  8  2  0  0  0  0
 12  6  1  0  0  0  0
 12  3  1  0  0  0  0
 13 14  1  0  0  0  0
 13 18  1  0  0  0  0
 14 18  1  0  0  0  0
 14  2  1  1  0  0  0
 15 14  1  0  0  0  0
 16 18  1  0  0  0  0
 16 22  1  1  0  0  0
 17 19  2  0  0  0  0
 18 21  1  1  0  0  0
 19 15  1  0  0  0  0
 19 16  1  0  0  0  0
 20 21  1  0  0  0  0
 22 23  1  1  0  0  0
 25 22  1  0  0  0  0
 25 24  1  0  0  0  0
 26 27  1  0  0  0  0
 28 37  1  1  0  0  0
 28 11  1  0  0  0  0
 29 31  1  0  0  0  0
 30 29  2  0  0  0  0
 32 31  2  0  0  0  0
 32 28  1  0  0  0  0
 33 30  1  0  0  0  0
 33 34  2  0  0  0  0
 34 32  1  0  0  0  0
 36 37  1  0  0  0  0
 36 35  2  0  0  0  0
 38 36  1  0  0  0  0
 39 38  1  0  0  0  0
 40 41  2  0  0  0  0
 41 39  1  0  0  0  0
 41 42  1  0  0  0  0
M  END
>  <MODEL>
6

>  <REMARK>
 VINA RESULT:      -5.5      4.301      7.493
  Name = 
  11 active torsions:
  status: ('A' for Active; 'I' for Inactive)
    1  A    between atoms: C_2  and  C_12
    2  A    between atoms: C_2  and  C_34
    3  A    between atoms: C_5  and  C_13
    4  A    between atoms: C_9  and  C_24
    5  A    between atoms: C_9  and  C_35
    6  A    between atoms: C_11  and  C_16
    7  A    between atoms: C_11  and  N_33
    8  A    between atoms: C_11  and  C_36
    9  A    between atoms: N_20  and  C_30
   10  A    between atoms: C_29  and  C_34
   11  A    between atoms: O_37  and  C_41
                            x       y       z     vdW  Elec       q    Type
                         _______ _______ _______ _____ _____    ______ ____

>  <TORSDO>
F 11

$$$$
=
 OpenBabel11062413403D

 42 46  0  0  1  0  0  0  0  0999 V2000
  185.9490  179.4250  143.2340 C   0  0  0  0  0  2  0  0  0  0  0  0
  182.4560  178.7810  139.3700 C   0  0  0  0  0  0  0  0  0  0  0  0
  186.2080  178.9560  141.8770 N   0  0  0  0  0  0  0  0  0  0  0  0
  183.7030  179.1120  139.0310 C   0  0  0  0  0  3  0  0  0  0  0  0
  182.1660  177.9780  140.6020 C   0  0  0  0  0  2  0  0  0  0  0  0
  183.8880  178.9470  142.0980 C   0  0  0  0  0  0  0  0  0  0  0  0
  182.6170  178.6280  141.8690 C   0  0  0  0  0  3  0  0  0  0  0  0
  188.3710  179.7540  141.5330 O   0  0  0  0  0  0  0  0  0  0  0  0
  184.4210  179.3710  143.4320 C   0  0  1  0  0  3  0  0  0  0  0  0
  184.9250  178.9220  139.8350 C   0  0  0  0  0  3  0  0  0  0  0  0
  187.5250  178.8440  141.3220 C   0  0  0  0  0  0  0  0  0  0  0  0
  184.9910  178.8000  141.1660 C   0  0  0  0  0  0  0  0  0  0  0  0
  179.9540  178.7900  138.8490 C   0  0  0  0  0  2  0  0  0  0  0  0
  181.3580  179.1730  138.4150 C   0  0  1  0  0  0  0  0  0  0  0  0
  181.4610  180.4010  137.7140 O   0  0  0  0  0  0  0  0  0  0  0  0
  180.2830  178.9450  136.2070 C   0  0  1  0  0  3  0  0  0  0  0  0
  180.8060  181.2700  135.6700 O   0  0  0  0  0  0  0  0  0  0  0  0
  180.5400  178.2140  137.5510 C   0  0  2  0  0  0  0  0  0  0  0  0
  180.8690  180.2980  136.4710 C   0  0  0  0  0  0  0  0  0  0  0  0
  179.8790  176.0810  137.7920 C   0  0  0  0  0  1  0  0  0  0  0  0
  181.0040  176.8860  137.5680 O   0  0  0  0  0  0  0  0  0  0  0  0
  180.9770  178.2630  135.0100 C   0  0  2  0  0  3  0  0  0  0  0  0
  180.2800  177.1140  134.6200 O   0  0  0  0  0  1  0  0  0  0  0  0
  182.7510  176.6710  134.7130 O   0  0  0  0  0  1  0  0  0  0  0  0
  182.4150  177.8790  135.3280 C   0  0  0  0  0  2  0  0  0  0  0  0
  184.0990  178.3600  144.4290 N   0  0  0  0  0  2  0  0  0  0  0  0
  183.8740  179.0030  145.5980 O   0  0  0  0  0  1  0  0  0  0  0  0
  187.9080  177.6280  140.5280 C   0  0  1  0  0  3  0  0  0  0  0  0
  188.8060  179.1410  137.2180 C   0  0  0  0  0  3  0  0  0  0  0  0
  188.0130  178.4100  136.3290 C   0  0  0  0  0  3  0  0  0  0  0  0
  188.7530  178.8790  138.5520 N   0  0  0  0  0  0  0  0  0  0  0  0
  187.9370  177.9100  139.0610 C   0  0  0  0  0  0  0  0  0  0  0  0
  187.1760  177.4060  136.8300 C   0  0  0  0  0  3  0  0  0  0  0  0
  187.1380  177.1490  138.2010 C   0  0  0  0  0  3  0  0  0  0  0  0
  190.6490  176.3830  142.6190 O   0  0  0  0  0  0  0  0  0  0  0  0
  189.4820  176.7270  142.3090 C   0  0  0  0  0  0  0  0  0  0  0  0
  189.2010  177.1110  140.9640 N   0  0  0  0  0  2  0  0  0  0  0  0
  188.4180  176.7470  143.3580 C   0  0  0  0  0  2  0  0  0  0  0  0
  188.7870  177.7020  144.4770 C   0  0  0  0  0  2  0  0  0  0  0  0
  188.9890  176.7530  146.7740 O   0  0  0  0  0  1  0  0  0  0  0  0
  188.1800  177.2210  145.7450 C   0  0  0  0  0  0  0  0  0  0  0  0
  186.9380  177.2680  145.9040 O   0  0  0  0  0  0  0  0  0  0  0  0
  1  9  1  0  0  0  0
  2  5  1  0  0  0  0
  3  1  1  0  0  0  0
  4  2  2  0  0  0  0
  4 10  1  0  0  0  0
  5  7  1  0  0  0  0
  6  9  1  0  0  0  0
  7  6  2  0  0  0  0
  9 26  1  1  0  0  0
 10 12  2  0  0  0  0
 11  8  2  0  0  0  0
 11  3  1  0  0  0  0
 12  3  1  0  0  0  0
 12  6  1  0  0  0  0
 14 13  1  0  0  0  0
 14  2  1  1  0  0  0
 15 14  1  0  0  0  0
 16 22  1  6  0  0  0
 16 19  1  0  0  0  0
 16 18  1  0  0  0  0
 17 19  2  0  0  0  0
 18 21  1  6  0  0  0
 18 14  1  0  0  0  0
 18 13  1  0  0  0  0
 19 15  1  0  0  0  0
 21 20  1  0  0  0  0
 22 23  1  1  0  0  0
 22 25  1  0  0  0  0
 24 25  1  0  0  0  0
 26 27  1  0  0  0  0
 28 37  1  1  0  0  0
 28 11  1  0  0  0  0
 29 31  1  0  0  0  0
 30 33  1  0  0  0  0
 30 29  2  0  0  0  0
 31 32  2  0  0  0  0
 32 28  1  0  0  0  0
 33 34  2  0  0  0  0
 34 32  1  0  0  0  0
 36 35  2  0  0  0  0
 36 38  1  0  0  0  0
 37 36  1  0  0  0  0
 38 39  1  0  0  0  0
 39 41  1  0  0  0  0
 41 42  2  0  0  0  0
 41 40  1  0  0  0  0
M  END
>  <MODEL>
7

>  <REMARK>
 VINA RESULT:      -5.4      2.791      9.536
  Name = 
  11 active torsions:
  status: ('A' for Active; 'I' for Inactive)
    1  A    between atoms: C_2  and  C_12
    2  A    between atoms: C_2  and  C_34
    3  A    between atoms: C_5  and  C_13
    4  A    between atoms: C_9  and  C_24
    5  A    between atoms: C_9  and  C_35
    6  A    between atoms: C_11  and  C_16
    7  A    between atoms: C_11  and  N_33
    8  A    between atoms: C_11  and  C_36
    9  A    between atoms: N_20  and  C_30
   10  A    between atoms: C_29  and  C_34
   11  A    between atoms: O_37  and  C_41
                            x       y       z     vdW  Elec       q    Type
                         _______ _______ _______ _____ _____    ______ ____

>  <TORSDO>
F 11

$$$$
=
 OpenBabel11062413403D

 42 46  0  0  1  0  0  0  0  0999 V2000
  184.2050  179.7600  140.0100 C   0  0  0  0  0  2  0  0  0  0  0  0
  187.6920  176.7860  137.4530 C   0  0  0  0  0  0  0  0  0  0  0  0
  185.3060  178.9950  140.5860 N   0  0  0  0  0  0  0  0  0  0  0  0
  188.0930  177.3860  138.5750 C   0  0  0  0  0  3  0  0  0  0  0  0
  186.2660  176.3730  137.2510 C   0  0  0  0  0  2  0  0  0  0  0  0
  185.1570  178.2850  138.3720 C   0  0  0  0  0  0  0  0  0  0  0  0
  185.2940  177.5060  137.3010 C   0  0  0  0  0  3  0  0  0  0  0  0
  185.8490  180.3120  142.4310 O   0  0  0  0  0  0  0  0  0  0  0  0
  184.0410  179.2670  138.5580 C   0  0  1  0  0  3  0  0  0  0  0  0
  187.2410  177.8820  139.6730 C   0  0  0  0  0  3  0  0  0  0  0  0
  185.7510  179.1560  141.9390 C   0  0  0  0  0  0  0  0  0  0  0  0
  185.9490  178.2230  139.5860 C   0  0  0  0  0  0  0  0  0  0  0  0
  188.2740  176.4070  134.9940 C   0  0  0  0  0  2  0  0  0  0  0  0
  188.7530  176.4610  136.4330 C   0  0  1  0  0  0  0  0  0  0  0  0
  190.0630  176.9710  136.6160 O   0  0  0  0  0  0  0  0  0  0  0  0
  190.3880  174.8640  135.5040 C   0  0  1  0  0  3  0  0  0  0  0  0
  192.2360  176.3380  136.1230 O   0  0  0  0  0  0  0  0  0  0  0  0
  188.8710  175.1540  135.6500 C   0  0  2  0  0  0  0  0  0  0  0  0
  190.9990  176.0930  136.1070 C   0  0  0  0  0  0  0  0  0  0  0  0
  188.0030  173.1630  135.0780 C   0  0  0  0  0  1  0  0  0  0  0  0
  187.9870  174.1470  136.0760 O   0  0  0  0  0  0  0  0  0  0  0  0
  190.8330  173.5950  136.2590 C   0  0  2  0  0  3  0  0  0  0  0  0
  191.0920  173.8830  137.6030 O   0  0  0  0  0  1  0  0  0  0  0  0
  193.1330  172.9710  136.5550 O   0  0  0  0  0  1  0  0  0  0  0  0
  192.0750  172.9700  135.6430 C   0  0  0  0  0  2  0  0  0  0  0  0
  182.7640  178.5840  138.4220 N   0  0  0  0  0  2  0  0  0  0  0  0
  182.1340  178.6620  139.6170 O   0  0  0  0  0  1  0  0  0  0  0  0
  186.0600  177.9500  142.7800 C   0  0  1  0  0  3  0  0  0  0  0  0
  189.7630  178.2470  142.2770 C   0  0  0  0  0  3  0  0  0  0  0  0
  190.2310  177.0260  142.7720 C   0  0  0  0  0  3  0  0  0  0  0  0
  188.4310  178.5180  142.2840 N   0  0  0  0  0  0  0  0  0  0  0  0
  187.5180  177.6230  142.7660 C   0  0  0  0  0  0  0  0  0  0  0  0
  189.3140  176.0990  143.2790 C   0  0  0  0  0  3  0  0  0  0  0  0
  187.9510  176.3970  143.2810 C   0  0  0  0  0  3  0  0  0  0  0  0
  183.9800  178.7460  145.6920 O   0  0  0  0  0  0  0  0  0  0  0  0
  184.2660  178.5040  144.4920 C   0  0  0  0  0  0  0  0  0  0  0  0
  185.6040  178.1450  144.1520 N   0  0  0  0  0  2  0  0  0  0  0  0
  183.2050  178.6170  143.4470 C   0  0  0  0  0  2  0  0  0  0  0  0
  181.8280  178.6520  144.0820 C   0  0  0  0  0  2  0  0  0  0  0  0
  180.6060  180.4540  142.8670 O   0  0  0  0  0  1  0  0  0  0  0  0
  180.8370  179.0980  143.0690 C   0  0  0  0  0  0  0  0  0  0  0  0
  180.2310  178.2540  142.3690 O   0  0  0  0  0  0  0  0  0  0  0  0
  1  3  1  0  0  0  0
  2  4  2  0  0  0  0
  3 11  1  0  0  0  0
  4 10  1  0  0  0  0
  5  7  1  0  0  0  0
  5  2  1  0  0  0  0
  6  9  1  0  0  0  0
  6 12  1  0  0  0  0
  7  6  2  0  0  0  0
  9 26  1  1  0  0  0
  9  1  1  0  0  0  0
 11  8  2  0  0  0  0
 12 10  2  0  0  0  0
 12  3  1  0  0  0  0
 13 18  1  0  0  0  0
 13 14  1  0  0  0  0
 14 15  1  0  0  0  0
 14  2  1  1  0  0  0
 16 18  1  0  0  0  0
 16 19  1  0  0  0  0
 16 22  1  1  0  0  0
 18 21  1  1  0  0  0
 18 14  1  0  0  0  0
 19 17  2  0  0  0  0
 19 15  1  0  0  0  0
 20 21  1  0  0  0  0
 22 23  1  1  0  0  0
 25 22  1  0  0  0  0
 25 24  1  0  0  0  0
 26 27  1  0  0  0  0
 28 11  1  6  0  0  0
 28 37  1  0  0  0  0
 29 31  2  0  0  0  0
 29 30  1  0  0  0  0
 30 33  2  0  0  0  0
 31 32  1  0  0  0  0
 32 28  1  0  0  0  0
 32 34  2  0  0  0  0
 33 34  1  0  0  0  0
 36 35  2  0  0  0  0
 37 36  1  0  0  0  0
 38 39  1  0  0  0  0
 38 36  1  0  0  0  0
 40 41  1  0  0  0  0
 41 39  1  0  0  0  0
 42 41  2  0  0  0  0
M  END
>  <MODEL>
8

>  <REMARK>
 VINA RESULT:      -5.3      3.379      6.919
  Name = 
  11 active torsions:
  status: ('A' for Active; 'I' for Inactive)
    1  A    between atoms: C_2  and  C_12
    2  A    between atoms: C_2  and  C_34
    3  A    between atoms: C_5  and  C_13
    4  A    between atoms: C_9  and  C_24
    5  A    between atoms: C_9  and  C_35
    6  A    between atoms: C_11  and  C_16
    7  A    between atoms: C_11  and  N_33
    8  A    between atoms: C_11  and  C_36
    9  A    between atoms: N_20  and  C_30
   10  A    between atoms: C_29  and  C_34
   11  A    between atoms: O_37  and  C_41
                            x       y       z     vdW  Elec       q    Type
                         _______ _______ _______ _____ _____    ______ ____

>  <TORSDO>
F 11

$$$$
=
 OpenBabel11062413403D

 42 46  0  0  1  0  0  0  0  0999 V2000
  190.1430  177.4560  137.2750 C   0  0  0  0  0  2  0  0  0  0  0  0
  188.8530  177.5420  142.3620 C   0  0  0  0  0  0  0  0  0  0  0  0
  188.8010  177.4730  137.8470 N   0  0  0  0  0  0  0  0  0  0  0  0
  188.0270  178.1390  141.5020 C   0  0  0  0  0  3  0  0  0  0  0  0
  189.6870  176.3640  141.9590 C   0  0  0  0  0  2  0  0  0  0  0  0
  190.2280  177.0600  139.6420 C   0  0  0  0  0  0  0  0  0  0  0  0
  190.6360  176.6480  140.8400 C   0  0  0  0  0  3  0  0  0  0  0  0
  187.6290  178.6420  136.2050 O   0  0  0  0  0  0  0  0  0  0  0  0
  191.1070  177.1230  138.4310 C   0  0  1  0  0  3  0  0  0  0  0  0
  187.9160  177.8880  140.0520 C   0  0  0  0  0  3  0  0  0  0  0  0
  187.6210  177.7300  137.0750 C   0  0  0  0  0  0  0  0  0  0  0  0
  188.8630  177.3700  139.2600 C   0  0  0  0  0  0  0  0  0  0  0  0
  189.6340  179.3240  144.0190 C   0  0  0  0  0  2  0  0  0  0  0  0
  188.8480  178.0470  143.7820 C   0  0  1  0  0  0  0  0  0  0  0  0
  187.6680  177.9110  144.5570 O   0  0  0  0  0  0  0  0  0  0  0  0
  189.4590  177.7310  146.1510 C   0  0  1  0  0  3  0  0  0  0  0  0
  187.1010  177.6120  146.7820 O   0  0  0  0  0  0  0  0  0  0  0  0
  190.0360  178.0300  144.7420 C   0  0  2  0  0  0  0  0  0  0  0  0
  187.9840  177.7290  145.8880 C   0  0  0  0  0  0  0  0  0  0  0  0
  192.1050  178.2910  143.9090 C   0  0  0  0  0  1  0  0  0  0  0  0
  191.1540  177.3240  144.2620 O   0  0  0  0  0  0  0  0  0  0  0  0
  189.9250  176.3740  146.7160 C   0  0  2  0  0  3  0  0  0  0  0  0
  189.2290  176.0590  147.8880 O   0  0  0  0  0  1  0  0  0  0  0  0
  191.7150  177.1990  148.0870 O   0  0  0  0  0  1  0  0  0  0  0  0
  191.4170  176.3610  147.0120 C   0  0  0  0  0  2  0  0  0  0  0  0
  191.7080  175.8180  138.1980 N   0  0  0  0  0  2  0  0  0  0  0  0
  192.9790  176.0260  137.7850 O   0  0  0  0  0  1  0  0  0  0  0  0
  186.3930  176.8890  137.2720 C   0  0  1  0  0  3  0  0  0  0  0  0
  184.3960  179.4220  139.1820 C   0  0  0  0  0  3  0  0  0  0  0  0
  183.1050  179.2230  138.6850 C   0  0  0  0  0  3  0  0  0  0  0  0
  185.4270  178.6650  138.7220 N   0  0  0  0  0  0  0  0  0  0  0  0
  185.2420  177.6970  137.7750 C   0  0  0  0  0  0  0  0  0  0  0  0
  182.8940  178.2430  137.7080 C   0  0  0  0  0  3  0  0  0  0  0  0
  183.9650  177.4770  137.2460 C   0  0  0  0  0  3  0  0  0  0  0  0
  185.4650  174.3030  134.8440 O   0  0  0  0  0  0  0  0  0  0  0  0
  185.6770  174.8300  135.9650 C   0  0  0  0  0  0  0  0  0  0  0  0
  186.0240  176.2120  136.0320 N   0  0  0  0  0  2  0  0  0  0  0  0
  185.5810  173.9940  137.1990 C   0  0  0  0  0  2  0  0  0  0  0  0
  185.5320  172.5200  136.8470 C   0  0  0  0  0  2  0  0  0  0  0  0
  183.7970  170.7790  136.4290 O   0  0  0  0  0  0  0  0  0  0  0  0
  184.1160  172.0700  136.8320 C   0  0  0  0  0  0  0  0  0  0  0  0
  183.2080  172.8440  137.2140 O   0  0  0  0  0  1  0  0  0  0  0  0
  1  3  1  0  0  0  0
  1  9  1  0  0  0  0
  3 12  1  0  0  0  0
  4  2  2  0  0  0  0
  5  2  1  0  0  0  0
  6  7  2  0  0  0  0
  7  5  1  0  0  0  0
  8 11  2  0  0  0  0
  9 26  1  6  0  0  0
  9  6  1  0  0  0  0
 10  4  1  0  0  0  0
 11 28  1  0  0  0  0
 11  3  1  0  0  0  0
 12  6  1  0  0  0  0
 12 10  2  0  0  0  0
 13 18  1  0  0  0  0
 14  2  1  6  0  0  0
 14 13  1  0  0  0  0
 14 15  1  0  0  0  0
 14 18  1  0  0  0  0
 15 19  1  0  0  0  0
 16 22  1  6  0  0  0
 18 21  1  6  0  0  0
 18 16  1  0  0  0  0
 19 16  1  0  0  0  0
 19 17  2  0  0  0  0
 20 21  1  0  0  0  0
 22 25  1  0  0  0  0
 22 23  1  1  0  0  0
 25 24  1  0  0  0  0
 27 26  1  0  0  0  0
 28 37  1  6  0  0  0
 28 32  1  0  0  0  0
 30 29  2  0  0  0  0
 31 29  1  0  0  0  0
 32 31  2  0  0  0  0
 33 30  1  0  0  0  0
 34 33  2  0  0  0  0
 34 32  1  0  0  0  0
 35 36  2  0  0  0  0
 36 37  1  0  0  0  0
 36 38  1  0  0  0  0
 39 38  1  0  0  0  0
 40 41  2  0  0  0  0
 41 39  1  0  0  0  0
 41 42  1  0  0  0  0
M  END
>  <MODEL>
9

>  <REMARK>
 VINA RESULT:      -5.3      2.351      3.620
  Name = 
  11 active torsions:
  status: ('A' for Active; 'I' for Inactive)
    1  A    between atoms: C_2  and  C_12
    2  A    between atoms: C_2  and  C_34
    3  A    between atoms: C_5  and  C_13
    4  A    between atoms: C_9  and  C_24
    5  A    between atoms: C_9  and  C_35
    6  A    between atoms: C_11  and  C_16
    7  A    between atoms: C_11  and  N_33
    8  A    between atoms: C_11  and  C_36
    9  A    between atoms: N_20  and  C_30
   10  A    between atoms: C_29  and  C_34
   11  A    between atoms: O_37  and  C_41
                            x       y       z     vdW  Elec       q    Type
                         _______ _______ _______ _____ _____    ______ ____

>  <TORSDO>
F 11

$$$$
