=
 OpenBabel11062417323D

 47 51  0  0  1  0  0  0  0  0999 V2000
  185.8980  176.3890  137.4600 C   0  0  0  0  0  2  0  0  0  0  0  0
  184.6970  176.2390  136.5320 C   0  0  0  0  0  0  0  0  0  0  0  0
  184.6450  174.9520  135.7260 C   0  0  0  0  0  2  0  0  0  0  0  0
  185.0470  176.2510  135.0520 C   0  0  0  0  0  2  0  0  0  0  0  0
  182.7730  179.4730  139.0470 C   0  0  0  0  0  0  0  0  0  0  0  0
  183.3420  176.8300  136.9710 C   0  0  1  0  0  3  0  0  0  0  0  0
  182.6800  178.1940  139.8350 C   0  0  1  0  0  3  0  0  0  0  0  0
  183.6070  177.2560  139.3580 O   0  0  0  0  0  0  0  0  0  0  0  0
  183.0390  175.1320  138.6910 O   0  0  0  0  0  1  0  0  0  0  0  0
  182.9020  176.4950  138.4170 C   0  0  2  0  0  3  0  0  0  0  0  0
  181.9430  178.5570  136.6260 C   0  0  0  0  0  2  0  0  0  0  0  0
  183.7400  180.2130  139.1710 O   0  0  0  0  0  0  0  0  0  0  0  0
  181.5050  179.8650  137.8350 S   0  0  0  0  0  0  0  0  0  0  0  0
  183.2980  178.2110  136.7110 O   0  0  0  0  0  0  0  0  0  0  0  0
  182.8570  178.4280  141.3100 C   0  0  0  0  0  0  0  0  0  0  0  0
  183.4190  179.1280  145.3740 F   0  0  0  0  0  0  0  0  0  0  0  0
  184.1490  178.4510  141.8630 C   0  0  0  0  0  3  0  0  0  0  0  0
  181.9360  178.8880  143.5160 C   0  0  0  0  0  0  0  0  0  0  0  0
  180.8730  179.0840  144.3340 F   0  0  0  0  0  0  0  0  0  0  0  0
  184.3340  178.6830  143.2260 C   0  0  0  0  0  3  0  0  0  0  0  0
  183.2300  178.9000  144.0520 C   0  0  0  0  0  0  0  0  0  0  0  0
  181.7420  178.6480  142.1450 C   0  0  0  0  0  0  0  0  0  0  0  0
  179.8250  179.9620  141.7080 O   0  0  0  0  0  1  0  0  0  0  0  0
  180.3540  178.6740  141.5860 C   0  0  0  0  0  2  0  0  0  0  0  0
  187.6620  178.2300  137.8240 C   0  0  2  0  0  3  0  0  0  0  0  0
  186.9900  177.2630  136.8400 C   0  0  1  0  0  3  0  0  0  0  0  0
  188.3530  176.9420  137.4250 C   0  0  1  0  0  3  0  0  0  0  0  0
  189.4440  177.2700  136.4220 C   0  0  0  0  0  2  0  0  0  0  0  0
  192.4800  175.2620  137.5660 N   0  0  0  0  0  1  0  0  0  0  0  0
  191.4440  176.2360  137.5760 C   0  0  0  0  0  0  0  0  0  0  0  0
  191.3530  177.0430  138.5360 O   0  0  0  0  0  0  0  0  0  0  0  0
  190.5120  176.2830  136.4910 N   0  0  0  0  0  2  0  0  0  0  0  0
  187.2090  178.1200  139.2730 C   0  0  0  0  0  2  0  0  0  0  0  0
  188.4180  178.1800  140.1820 C   0  0  0  0  0  2  0  0  0  0  0  0
  187.9600  178.3490  141.6240 C   0  0  0  0  0  2  0  0  0  0  0  0
  188.9330  177.7050  142.6100 C   0  0  2  0  0  3  0  0  0  0  0  0
  190.0140  177.1210  141.9200 O   0  0  0  0  0  0  0  0  0  0  0  0
  191.6470  176.3670  143.4080 O   0  0  0  0  0  1  0  0  0  0  0  0
  191.1150  178.7180  143.4090 C   0  0  0  0  0  1  0  0  0  0  0  0
  191.2160  177.4280  142.6020 C   0  0  2  0  0  3  0  0  0  0  0  0
  188.2420  176.6540  143.4810 C   0  0  0  0  0  2  0  0  0  0  0  0
  188.0120  177.1430  144.8780 C   0  0  0  0  0  0  0  0  0  0  0  0
  188.8590  177.5150  147.1250 C   0  0  0  0  0  3  0  0  0  0  0  0
  187.5910  177.9430  147.5310 C   0  0  0  0  0  3  0  0  0  0  0  0
  186.7400  177.5640  145.2910 C   0  0  0  0  0  3  0  0  0  0  0  0
  186.5330  177.9700  146.6160 C   0  0  0  0  0  3  0  0  0  0  0  0
  189.0680  177.1150  145.8000 C   0  0  0  0  0  3  0  0  0  0  0  0
  2  1  1  0  0  0  0
  3  2  1  0  0  0  0
  4  3  1  0  0  0  0
  4  2  1  0  0  0  0
  5 12  2  0  0  0  0
  5  7  1  0  0  0  0
  6  2  1  1  0  0  0
  6 10  1  0  0  0  0
  7 15  1  1  0  0  0
  8  7  1  0  0  0  0
 10  9  1  1  0  0  0
 10  8  1  0  0  0  0
 11 14  1  0  0  0  0
 11 13  1  0  0  0  0
 13  5  1  0  0  0  0
 14  6  1  0  0  0  0
 15 17  2  0  0  0  0
 15 22  1  0  0  0  0
 17 20  1  0  0  0  0
 18 21  1  0  0  0  0
 18 19  1  0  0  0  0
 20 21  2  0  0  0  0
 21 16  1  0  0  0  0
 22 18  2  0  0  0  0
 24 23  1  0  0  0  0
 24 22  1  0  0  0  0
 25 33  1  1  0  0  0
 26 27  1  0  0  0  0
 26  1  1  1  0  0  0
 26 25  1  0  0  0  0
 27 28  1  6  0  0  0
 27 25  1  0  0  0  0
 28 32  1  0  0  0  0
 29 30  1  0  0  0  0
 30 31  2  0  0  0  0
 32 30  1  0  0  0  0
 33 34  1  0  0  0  0
 34 35  1  0  0  0  0
 36 35  1  6  0  0  0
 36 41  1  0  0  0  0
 37 40  1  0  0  0  0
 37 36  1  0  0  0  0
 40 38  1  0  0  0  0
 40 39  1  1  0  0  0
 41 42  1  0  0  0  0
 42 45  2  0  0  0  0
 42 47  1  0  0  0  0
 43 44  1  0  0  0  0
 45 46  1  0  0  0  0
 46 44  2  0  0  0  0
 47 43  2  0  0  0  0
M  END
>  <MODEL>
1

>  <REMARK>
 VINA RESULT:      -8.5      0.000      0.000
  Name = 
  15 active torsions:
  status: ('A' for Active; 'I' for Inactive)
    1  A    between atoms: C_2  and  C_22
    2  A    between atoms: C_3  and  N_20
    3  A    between atoms: C_3  and  C_45
    4  A    between atoms: C_4  and  C_9
    5  A    between atoms: C_6  and  C_19
    6  A    between atoms: C_6  and  C_25
    7  A    between atoms: C_9  and  C_12
    8  A    between atoms: C_10  and  C_44
    9  A    between atoms: C_12  and  C_38
   10  A    between atoms: C_19  and  C_32
   11  A    between atoms: C_21  and  O_36
   12  A    between atoms: C_25  and  O_36
   13  A    between atoms: C_25  and  C_44
   14  A    between atoms: C_32  and  C_35
   15  A    between atoms: C_46  and  C_47
                            x       y       z     vdW  Elec       q    Type
                         _______ _______ _______ _____ _____    ______ ____

>  <TORSDO>
F 15

$$$$
=
 OpenBabel11062417323D

 47 51  0  0  1  0  0  0  0  0999 V2000
  185.1370  177.3800  136.2750 C   0  0  0  0  0  2  0  0  0  0  0  0
  183.7910  176.7000  136.0510 C   0  0  0  0  0  0  0  0  0  0  0  0
  183.8520  175.2680  135.5450 C   0  0  0  0  0  2  0  0  0  0  0  0
  183.4820  176.3920  134.5940 C   0  0  0  0  0  2  0  0  0  0  0  0
  182.4250  179.5790  139.2660 C   0  0  0  0  0  0  0  0  0  0  0  0
  182.6190  177.0460  136.9920 C   0  0  1  0  0  3  0  0  0  0  0  0
  182.8540  178.3170  139.9640 C   0  0  1  0  0  3  0  0  0  0  0  0
  183.6820  177.5520  139.1290 O   0  0  0  0  0  0  0  0  0  0  0  0
  183.2800  175.3500  138.6110 O   0  0  0  0  0  1  0  0  0  0  0  0
  182.8180  176.6620  138.4790 C   0  0  2  0  0  3  0  0  0  0  0  0
  180.9180  178.4890  137.2820 C   0  0  0  0  0  2  0  0  0  0  0  0
  183.2240  180.4820  139.0600 O   0  0  0  0  0  0  0  0  0  0  0  0
  180.7470  179.7180  138.6340 S   0  0  0  0  0  0  0  0  0  0  0  0
  182.2440  178.3930  136.8400 O   0  0  0  0  0  0  0  0  0  0  0  0
  183.5290  178.6030  141.2780 C   0  0  0  0  0  0  0  0  0  0  0  0
  185.4500  179.4520  144.8710 F   0  0  0  0  0  0  0  0  0  0  0  0
  184.9270  178.7330  141.3310 C   0  0  0  0  0  3  0  0  0  0  0  0
  183.4250  179.0570  143.6670 C   0  0  0  0  0  0  0  0  0  0  0  0
  182.7120  179.2000  144.8120 F   0  0  0  0  0  0  0  0  0  0  0  0
  185.5690  179.0150  142.5380 C   0  0  0  0  0  3  0  0  0  0  0  0
  184.8190  179.1750  143.7040 C   0  0  0  0  0  0  0  0  0  0  0  0
  182.7720  178.7670  142.4570 C   0  0  0  0  0  0  0  0  0  0  0  0
  180.7340  179.9660  142.4640 O   0  0  0  0  0  1  0  0  0  0  0  0
  181.2780  178.6790  142.4320 C   0  0  0  0  0  2  0  0  0  0  0  0
  187.6660  176.9350  136.4790 C   0  0  2  0  0  3  0  0  0  0  0  0
  186.3070  176.4430  135.9640 C   0  0  1  0  0  3  0  0  0  0  0  0
  186.9040  175.8650  137.2340 C   0  0  1  0  0  3  0  0  0  0  0  0
  187.5450  174.5200  136.9450 C   0  0  0  0  0  2  0  0  0  0  0  0
  191.1290  174.5470  135.6340 N   0  0  0  0  0  1  0  0  0  0  0  0
  190.0310  174.3310  136.5120 C   0  0  0  0  0  0  0  0  0  0  0  0
  190.2280  173.8290  137.6480 O   0  0  0  0  0  0  0  0  0  0  0  0
  188.7120  174.6870  136.0890 N   0  0  0  0  0  2  0  0  0  0  0  0
  187.6410  178.2240  137.2870 C   0  0  0  0  0  2  0  0  0  0  0  0
  187.9100  177.9080  138.7430 C   0  0  0  0  0  2  0  0  0  0  0  0
  189.3240  178.3430  139.1030 C   0  0  0  0  0  2  0  0  0  0  0  0
  189.8790  177.5520  140.2870 C   0  0  2  0  0  3  0  0  0  0  0  0
  190.7190  176.5150  139.8330 O   0  0  0  0  0  0  0  0  0  0  0  0
  192.5230  176.2650  138.3740 O   0  0  0  0  0  1  0  0  0  0  0  0
  192.9050  177.4150  140.4580 C   0  0  0  0  0  1  0  0  0  0  0  0
  191.9220  177.0780  139.3430 C   0  0  2  0  0  3  0  0  0  0  0  0
  188.7600  176.9740  141.1550 C   0  0  0  0  0  2  0  0  0  0  0  0
  188.9540  177.2870  142.6060 C   0  0  0  0  0  0  0  0  0  0  0  0
  188.0720  177.3180  144.8700 C   0  0  0  0  0  3  0  0  0  0  0  0
  189.2330  177.9620  145.3130 C   0  0  0  0  0  3  0  0  0  0  0  0
  190.1120  177.9410  143.0510 C   0  0  0  0  0  3  0  0  0  0  0  0
  190.2520  178.2710  144.4060 C   0  0  0  0  0  3  0  0  0  0  0  0
  187.9340  176.9820  143.5190 C   0  0  0  0  0  3  0  0  0  0  0  0
  2  1  1  0  0  0  0
  3  2  1  0  0  0  0
  4  3  1  0  0  0  0
  4  2  1  0  0  0  0
  5  7  1  0  0  0  0
  6  2  1  6  0  0  0
  6 10  1  0  0  0  0
  7 15  1  1  0  0  0
  8  7  1  0  0  0  0
 10  9  1  6  0  0  0
 10  8  1  0  0  0  0
 11 13  1  0  0  0  0
 12  5  2  0  0  0  0
 13  5  1  0  0  0  0
 14  6  1  0  0  0  0
 14 11  1  0  0  0  0
 15 17  2  0  0  0  0
 15 22  1  0  0  0  0
 17 20  1  0  0  0  0
 18 21  1  0  0  0  0
 18 19  1  0  0  0  0
 20 21  2  0  0  0  0
 21 16  1  0  0  0  0
 22 18  2  0  0  0  0
 24 22  1  0  0  0  0
 24 23  1  0  0  0  0
 25 27  1  0  0  0  0
 25 33  1  1  0  0  0
 26  1  1  1  0  0  0
 26 25  1  0  0  0  0
 26 27  1  0  0  0  0
 27 28  1  6  0  0  0
 29 30  1  0  0  0  0
 30 31  2  0  0  0  0
 32 30  1  0  0  0  0
 32 28  1  0  0  0  0
 33 34  1  0  0  0  0
 34 35  1  0  0  0  0
 36 35  1  6  0  0  0
 36 41  1  0  0  0  0
 37 36  1  0  0  0  0
 38 40  1  0  0  0  0
 40 37  1  0  0  0  0
 40 39  1  1  0  0  0
 41 42  1  0  0  0  0
 42 45  2  0  0  0  0
 42 47  1  0  0  0  0
 43 44  1  0  0  0  0
 45 46  1  0  0  0  0
 46 44  2  0  0  0  0
 47 43  2  0  0  0  0
M  END
>  <MODEL>
2

>  <REMARK>
 VINA RESULT:      -8.0      1.406      2.209
  Name = 
  15 active torsions:
  status: ('A' for Active; 'I' for Inactive)
    1  A    between atoms: C_2  and  C_22
    2  A    between atoms: C_3  and  N_20
    3  A    between atoms: C_3  and  C_45
    4  A    between atoms: C_4  and  C_9
    5  A    between atoms: C_6  and  C_19
    6  A    between atoms: C_6  and  C_25
    7  A    between atoms: C_9  and  C_12
    8  A    between atoms: C_10  and  C_44
    9  A    between atoms: C_12  and  C_38
   10  A    between atoms: C_19  and  C_32
   11  A    between atoms: C_21  and  O_36
   12  A    between atoms: C_25  and  O_36
   13  A    between atoms: C_25  and  C_44
   14  A    between atoms: C_32  and  C_35
   15  A    between atoms: C_46  and  C_47
                            x       y       z     vdW  Elec       q    Type
                         _______ _______ _______ _____ _____    ______ ____

>  <TORSDO>
F 15

$$$$
=
 OpenBabel11062417323D

 47 51  0  0  1  0  0  0  0  0999 V2000
  183.4750  178.7900  140.2200 C   0  0  0  0  0  2  0  0  0  0  0  0
  183.0910  177.7590  139.1640 C   0  0  0  0  0  0  0  0  0  0  0  0
  181.6620  177.2470  139.2320 C   0  0  0  0  0  2  0  0  0  0  0  0
  182.8030  176.3730  139.7200 C   0  0  0  0  0  2  0  0  0  0  0  0
  185.6030  175.5610  136.1060 C   0  0  0  0  0  0  0  0  0  0  0  0
  183.7150  177.8700  137.7570 C   0  0  1  0  0  3  0  0  0  0  0  0
  186.5100  176.5490  136.7880 C   0  0  1  0  0  3  0  0  0  0  0  0
  185.9620  176.9550  138.0130 O   0  0  0  0  0  0  0  0  0  0  0  0
  185.6130  179.1520  138.5850 O   0  0  0  0  0  1  0  0  0  0  0  0
  185.2420  178.1200  137.7200 C   0  0  2  0  0  3  0  0  0  0  0  0
  183.4730  177.1830  135.6300 C   0  0  0  0  0  2  0  0  0  0  0  0
  185.4760  174.4250  136.5420 O   0  0  0  0  0  0  0  0  0  0  0  0
  184.6140  176.0870  134.6990 S   0  0  0  0  0  0  0  0  0  0  0  0
  183.3390  176.7720  136.9630 O   0  0  0  0  0  0  0  0  0  0  0  0
  187.9000  176.0010  136.9730 C   0  0  0  0  0  0  0  0  0  0  0  0
  191.7260  174.4260  137.4200 F   0  0  0  0  0  0  0  0  0  0  0  0
  188.1130  174.6130  136.9360 C   0  0  0  0  0  3  0  0  0  0  0  0
  190.2880  176.3310  137.3070 C   0  0  0  0  0  0  0  0  0  0  0  0
  191.3510  177.1500  137.5040 F   0  0  0  0  0  0  0  0  0  0  0  0
  189.3970  174.0880  137.0890 C   0  0  0  0  0  3  0  0  0  0  0  0
  190.4830  174.9450  137.2760 C   0  0  0  0  0  0  0  0  0  0  0  0
  188.9980  176.8670  137.1600 C   0  0  0  0  0  0  0  0  0  0  0  0
  188.8830  178.8300  138.4740 O   0  0  0  0  0  1  0  0  0  0  0  0
  188.8160  178.3530  137.1610 C   0  0  0  0  0  2  0  0  0  0  0  0
  184.5140  178.2790  142.5210 C   0  0  2  0  0  3  0  0  0  0  0  0
  183.2580  178.2590  141.6390 C   0  0  1  0  0  3  0  0  0  0  0  0
  183.4540  179.3520  142.6730 C   0  0  1  0  0  3  0  0  0  0  0  0
  182.6360  179.0490  143.9150 C   0  0  0  0  0  2  0  0  0  0  0  0
  179.0050  178.6390  142.8140 N   0  0  0  0  0  1  0  0  0  0  0  0
  180.2410  179.2690  143.1300 C   0  0  0  0  0  0  0  0  0  0  0  0
  180.3480  180.5180  143.0360 O   0  0  0  0  0  0  0  0  0  0  0  0
  181.3510  178.4700  143.5490 N   0  0  0  0  0  2  0  0  0  0  0  0
  185.7550  178.8960  141.8920 C   0  0  0  0  0  2  0  0  0  0  0  0
  186.8790  177.8830  141.9030 C   0  0  0  0  0  2  0  0  0  0  0  0
  188.2100  178.6050  142.0640 C   0  0  0  0  0  2  0  0  0  0  0  0
  189.1220  177.9020  143.0690 C   0  0  2  0  0  3  0  0  0  0  0  0
  190.2030  177.2890  142.4040 O   0  0  0  0  0  0  0  0  0  0  0  0
  191.7150  176.5280  144.0110 O   0  0  0  0  0  1  0  0  0  0  0  0
  191.3570  178.9060  143.8310 C   0  0  0  0  0  1  0  0  0  0  0  0
  191.3960  177.5580  143.1170 C   0  0  2  0  0  3  0  0  0  0  0  0
  188.3610  176.8630  143.8930 C   0  0  0  0  0  2  0  0  0  0  0  0
  188.0480  177.3550  145.2720 C   0  0  0  0  0  0  0  0  0  0  0  0
  188.7240  177.6430  147.5880 C   0  0  0  0  0  3  0  0  0  0  0  0
  187.4600  178.1620  147.8910 C   0  0  0  0  0  3  0  0  0  0  0  0
  186.7800  177.8670  145.5810 C   0  0  0  0  0  3  0  0  0  0  0  0
  186.4900  178.2760  146.8900 C   0  0  0  0  0  3  0  0  0  0  0  0
  189.0160  177.2410  146.2800 C   0  0  0  0  0  3  0  0  0  0  0  0
  2  3  1  0  0  0  0
  2  4  1  0  0  0  0
  2  1  1  0  0  0  0
  3  4  1  0  0  0  0
  5 12  2  0  0  0  0
  5  7  1  0  0  0  0
  6  2  1  1  0  0  0
  7 15  1  1  0  0  0
  7  8  1  0  0  0  0
 10  6  1  0  0  0  0
 10  8  1  0  0  0  0
 10  9  1  1  0  0  0
 11 14  1  0  0  0  0
 13 11  1  0  0  0  0
 13  5  1  0  0  0  0
 14  6  1  0  0  0  0
 15 22  1  0  0  0  0
 17 15  2  0  0  0  0
 17 20  1  0  0  0  0
 18 19  1  0  0  0  0
 20 21  2  0  0  0  0
 21 18  1  0  0  0  0
 21 16  1  0  0  0  0
 22 24  1  0  0  0  0
 22 18  2  0  0  0  0
 24 23  1  0  0  0  0
 25 33  1  6  0  0  0
 25 27  1  0  0  0  0
 26  1  1  6  0  0  0
 26 25  1  0  0  0  0
 26 27  1  0  0  0  0
 27 28  1  1  0  0  0
 29 30  1  0  0  0  0
 30 32  1  0  0  0  0
 31 30  2  0  0  0  0
 32 28  1  0  0  0  0
 33 34  1  0  0  0  0
 34 35  1  0  0  0  0
 36 35  1  6  0  0  0
 36 41  1  0  0  0  0
 37 36  1  0  0  0  0
 37 40  1  0  0  0  0
 40 39  1  1  0  0  0
 40 38  1  0  0  0  0
 41 42  1  0  0  0  0
 42 45  2  0  0  0  0
 42 47  1  0  0  0  0
 43 44  1  0  0  0  0
 45 46  1  0  0  0  0
 46 44  2  0  0  0  0
 47 43  2  0  0  0  0
M  END
>  <MODEL>
3

>  <REMARK>
 VINA RESULT:      -7.6      3.918      6.836
  Name = 
  15 active torsions:
  status: ('A' for Active; 'I' for Inactive)
    1  A    between atoms: C_2  and  C_22
    2  A    between atoms: C_3  and  N_20
    3  A    between atoms: C_3  and  C_45
    4  A    between atoms: C_4  and  C_9
    5  A    between atoms: C_6  and  C_19
    6  A    between atoms: C_6  and  C_25
    7  A    between atoms: C_9  and  C_12
    8  A    between atoms: C_10  and  C_44
    9  A    between atoms: C_12  and  C_38
   10  A    between atoms: C_19  and  C_32
   11  A    between atoms: C_21  and  O_36
   12  A    between atoms: C_25  and  O_36
   13  A    between atoms: C_25  and  C_44
   14  A    between atoms: C_32  and  C_35
   15  A    between atoms: C_46  and  C_47
                            x       y       z     vdW  Elec       q    Type
                         _______ _______ _______ _____ _____    ______ ____

>  <TORSDO>
F 15

$$$$
=
 OpenBabel11062417323D

 47 51  0  0  1  0  0  0  0  0999 V2000
  183.1070  179.0680  140.7530 C   0  0  0  0  0  2  0  0  0  0  0  0
  182.3460  178.2610  139.7070 C   0  0  0  0  0  0  0  0  0  0  0  0
  180.8650  178.0610  139.9800 C   0  0  0  0  0  2  0  0  0  0  0  0
  181.8380  176.9170  140.2040 C   0  0  0  0  0  2  0  0  0  0  0  0
  184.2170  176.0260  136.2430 C   0  0  0  0  0  0  0  0  0  0  0  0
  182.7610  178.3860  138.2260 C   0  0  1  0  0  3  0  0  0  0  0  0
  185.2820  176.9250  136.8090 C   0  0  1  0  0  3  0  0  0  0  0  0
  184.9510  177.3170  138.1140 O   0  0  0  0  0  0  0  0  0  0  0  0
  184.8470  179.5080  138.7960 O   0  0  0  0  0  1  0  0  0  0  0  0
  184.2800  178.5370  137.9670 C   0  0  2  0  0  3  0  0  0  0  0  0
  182.1590  177.8010  136.1400 C   0  0  0  0  0  2  0  0  0  0  0  0
  184.0760  174.8840  136.6600 O   0  0  0  0  0  0  0  0  0  0  0  0
  183.0700  176.6700  135.0170 S   0  0  0  0  0  0  0  0  0  0  0  0
  182.1960  177.3480  137.4650 O   0  0  0  0  0  0  0  0  0  0  0  0
  186.6410  176.2800  136.7670 C   0  0  0  0  0  0  0  0  0  0  0  0
  190.3670  174.4320  136.6000 F   0  0  0  0  0  0  0  0  0  0  0  0
  186.7550  174.8840  136.8720 C   0  0  0  0  0  3  0  0  0  0  0  0
  189.0600  176.4320  136.5410 C   0  0  0  0  0  0  0  0  0  0  0  0
  190.1890  177.1690  136.3980 F   0  0  0  0  0  0  0  0  0  0  0  0
  188.0060  174.2670  136.8190 C   0  0  0  0  0  3  0  0  0  0  0  0
  189.1570  175.0390  136.6550 C   0  0  0  0  0  0  0  0  0  0  0  0
  187.8050  177.0600  136.6000 C   0  0  0  0  0  0  0  0  0  0  0  0
  188.2490  179.1680  137.5770 O   0  0  0  0  0  1  0  0  0  0  0  0
  187.7210  178.5460  136.4420 C   0  0  0  0  0  2  0  0  0  0  0  0
  184.8480  178.3290  142.5010 C   0  0  2  0  0  3  0  0  0  0  0  0
  183.3970  178.2430  142.0080 C   0  0  1  0  0  3  0  0  0  0  0  0
  183.7590  179.1330  143.1830 C   0  0  1  0  0  3  0  0  0  0  0  0
  183.3980  178.4490  144.4880 C   0  0  0  0  0  2  0  0  0  0  0  0
  185.7350  179.4150  147.3460 N   0  0  0  0  0  1  0  0  0  0  0  0
  185.2130  178.7000  146.2330 C   0  0  0  0  0  0  0  0  0  0  0  0
  185.8190  177.6850  145.8020 O   0  0  0  0  0  0  0  0  0  0  0  0
  184.0040  179.1480  145.6130 N   0  0  0  0  0  2  0  0  0  0  0  0
  185.7540  179.2780  141.7310 C   0  0  0  0  0  2  0  0  0  0  0  0
  187.0690  178.5880  141.4380 C   0  0  0  0  0  2  0  0  0  0  0  0
  187.4450  177.6950  142.6120 C   0  0  0  0  0  2  0  0  0  0  0  0
  188.9190  177.8370  142.9880 C   0  0  2  0  0  3  0  0  0  0  0  0
  189.6660  178.2820  141.8790 O   0  0  0  0  0  0  0  0  0  0  0  0
  191.8310  177.5030  141.4890 O   0  0  0  0  0  1  0  0  0  0  0  0
  190.0850  176.7900  139.9870 C   0  0  0  0  0  1  0  0  0  0  0  0
  190.4640  177.2140  141.4020 C   0  0  2  0  0  3  0  0  0  0  0  0
  189.4980  176.5230  143.5130 C   0  0  0  0  0  2  0  0  0  0  0  0
  190.0540  176.6650  144.8970 C   0  0  0  0  0  0  0  0  0  0  0  0
  191.9130  176.3900  146.4370 C   0  0  0  0  0  3  0  0  0  0  0  0
  191.0990  176.8100  147.4940 C   0  0  0  0  0  3  0  0  0  0  0  0
  189.2380  177.0780  145.9600 C   0  0  0  0  0  3  0  0  0  0  0  0
  189.7640  177.1560  147.2570 C   0  0  0  0  0  3  0  0  0  0  0  0
  191.3910  176.3180  145.1410 C   0  0  0  0  0  3  0  0  0  0  0  0
  2  3  1  0  0  0  0
  2  4  1  0  0  0  0
  2  1  1  0  0  0  0
  3  4  1  0  0  0  0
  5 12  2  0  0  0  0
  5  7  1  0  0  0  0
  6  2  1  1  0  0  0
  7 15  1  1  0  0  0
  7  8  1  0  0  0  0
 10  8  1  0  0  0  0
 10  6  1  0  0  0  0
 10  9  1  1  0  0  0
 11 14  1  0  0  0  0
 13 11  1  0  0  0  0
 13  5  1  0  0  0  0
 14  6  1  0  0  0  0
 15 17  1  0  0  0  0
 16 21  1  0  0  0  0
 18 22  1  0  0  0  0
 18 21  2  0  0  0  0
 19 18  1  0  0  0  0
 20 17  2  0  0  0  0
 21 20  1  0  0  0  0
 22 15  2  0  0  0  0
 24 22  1  0  0  0  0
 24 23  1  0  0  0  0
 25 33  1  6  0  0  0
 25 27  1  0  0  0  0
 26  1  1  6  0  0  0
 26 25  1  0  0  0  0
 26 27  1  0  0  0  0
 27 28  1  1  0  0  0
 28 32  1  0  0  0  0
 30 29  1  0  0  0  0
 31 30  2  0  0  0  0
 32 30  1  0  0  0  0
 34 33  1  0  0  0  0
 34 35  1  0  0  0  0
 36 35  1  6  0  0  0
 36 41  1  0  0  0  0
 37 36  1  0  0  0  0
 40 39  1  6  0  0  0
 40 38  1  0  0  0  0
 40 37  1  0  0  0  0
 41 42  1  0  0  0  0
 42 47  2  0  0  0  0
 42 45  1  0  0  0  0
 43 44  2  0  0  0  0
 45 46  2  0  0  0  0
 46 44  1  0  0  0  0
 47 43  1  0  0  0  0
M  END
>  <MODEL>
4

>  <REMARK>
 VINA RESULT:      -7.4      3.934      6.510
  Name = 
  15 active torsions:
  status: ('A' for Active; 'I' for Inactive)
    1  A    between atoms: C_2  and  C_22
    2  A    between atoms: C_3  and  N_20
    3  A    between atoms: C_3  and  C_45
    4  A    between atoms: C_4  and  C_9
    5  A    between atoms: C_6  and  C_19
    6  A    between atoms: C_6  and  C_25
    7  A    between atoms: C_9  and  C_12
    8  A    between atoms: C_10  and  C_44
    9  A    between atoms: C_12  and  C_38
   10  A    between atoms: C_19  and  C_32
   11  A    between atoms: C_21  and  O_36
   12  A    between atoms: C_25  and  O_36
   13  A    between atoms: C_25  and  C_44
   14  A    between atoms: C_32  and  C_35
   15  A    between atoms: C_46  and  C_47
                            x       y       z     vdW  Elec       q    Type
                         _______ _______ _______ _____ _____    ______ ____

>  <TORSDO>
F 15

$$$$
=
 OpenBabel11062417323D

 47 51  0  0  1  0  0  0  0  0999 V2000
  183.8610  178.5420  140.2210 C   0  0  0  0  0  2  0  0  0  0  0  0
  183.2940  177.5840  139.1790 C   0  0  0  0  0  0  0  0  0  0  0  0
  181.7870  177.3910  139.2130 C   0  0  0  0  0  2  0  0  0  0  0  0
  182.7010  176.3100  139.7590 C   0  0  0  0  0  2  0  0  0  0  0  0
  186.1830  175.2000  136.6380 C   0  0  0  0  0  0  0  0  0  0  0  0
  183.9640  177.5170  137.7910 C   0  0  1  0  0  3  0  0  0  0  0  0
  186.9360  176.3990  137.1480 C   0  0  1  0  0  3  0  0  0  0  0  0
  186.2880  176.9470  138.2640 O   0  0  0  0  0  0  0  0  0  0  0  0
  185.6590  179.1510  138.4130 O   0  0  0  0  0  1  0  0  0  0  0  0
  185.4520  177.9430  137.7450 C   0  0  2  0  0  3  0  0  0  0  0  0
  183.9020  176.4340  135.8210 C   0  0  0  0  0  2  0  0  0  0  0  0
  186.1700  174.1540  137.2730 O   0  0  0  0  0  0  0  0  0  0  0  0
  185.2050  175.3380  135.1350 S   0  0  0  0  0  0  0  0  0  0  0  0
  183.7560  176.2560  137.2030 O   0  0  0  0  0  0  0  0  0  0  0  0
  188.3700  176.0690  137.4630 C   0  0  0  0  0  0  0  0  0  0  0  0
  192.3480  175.1320  138.2510 F   0  0  0  0  0  0  0  0  0  0  0  0
  188.9570  174.9160  136.9170 C   0  0  0  0  0  3  0  0  0  0  0  0
  190.4850  176.6000  138.5440 C   0  0  0  0  0  0  0  0  0  0  0  0
  191.2350  177.3970  139.3460 F   0  0  0  0  0  0  0  0  0  0  0  0
  190.2910  174.6020  137.1850 C   0  0  0  0  0  3  0  0  0  0  0  0
  191.0530  175.4420  137.9990 C   0  0  0  0  0  0  0  0  0  0  0  0
  189.1420  176.9180  138.2840 C   0  0  0  0  0  0  0  0  0  0  0  0
  189.0350  179.2750  138.1220 O   0  0  0  0  0  1  0  0  0  0  0  0
  188.5640  178.1780  138.8490 C   0  0  0  0  0  2  0  0  0  0  0  0
  184.8470  178.0720  142.5540 C   0  0  2  0  0  3  0  0  0  0  0  0
  183.6090  178.0440  141.6470 C   0  0  1  0  0  3  0  0  0  0  0  0
  183.7950  179.1580  142.6600 C   0  0  1  0  0  3  0  0  0  0  0  0
  182.9490  178.8910  143.8920 C   0  0  0  0  0  2  0  0  0  0  0  0
  179.3130  178.5160  142.7970 N   0  0  0  0  0  1  0  0  0  0  0  0
  180.5490  179.1350  143.1290 C   0  0  0  0  0  0  0  0  0  0  0  0
  180.6530  180.3880  143.0810 O   0  0  0  0  0  0  0  0  0  0  0  0
  181.6630  178.3230  143.5110 N   0  0  0  0  0  2  0  0  0  0  0  0
  186.1070  178.6620  141.9380 C   0  0  0  0  0  2  0  0  0  0  0  0
  187.3170  177.9240  142.4680 C   0  0  0  0  0  2  0  0  0  0  0  0
  186.9140  177.0920  143.6780 C   0  0  0  0  0  2  0  0  0  0  0  0
  187.5450  177.6180  144.9670 C   0  0  2  0  0  3  0  0  0  0  0  0
  186.7290  178.6150  145.5400 O   0  0  0  0  0  0  0  0  0  0  0  0
  184.9110  178.6230  147.0030 O   0  0  0  0  0  1  0  0  0  0  0  0
  187.1200  178.4080  147.9450 C   0  0  0  0  0  1  0  0  0  0  0  0
  186.2000  178.1320  146.7610 C   0  0  2  0  0  3  0  0  0  0  0  0
  188.9500  178.1710  144.7230 C   0  0  0  0  0  2  0  0  0  0  0  0
  190.0080  177.3140  145.3470 C   0  0  0  0  0  0  0  0  0  0  0  0
  191.0630  176.4250  147.3470 C   0  0  0  0  0  3  0  0  0  0  0  0
  192.0410  175.8100  146.5570 C   0  0  0  0  0  3  0  0  0  0  0  0
  190.9950  176.7050  144.5580 C   0  0  0  0  0  3  0  0  0  0  0  0
  192.0070  175.9480  145.1650 C   0  0  0  0  0  3  0  0  0  0  0  0
  190.0490  177.1750  146.7410 C   0  0  0  0  0  3  0  0  0  0  0  0
  2  3  1  0  0  0  0
  2  4  1  0  0  0  0
  2  1  1  0  0  0  0
  3  4  1  0  0  0  0
  5  7  1  0  0  0  0
  5 12  2  0  0  0  0
  6  2  1  1  0  0  0
  7 15  1  1  0  0  0
  7  8  1  0  0  0  0
 10  6  1  0  0  0  0
 10  8  1  0  0  0  0
 10  9  1  1  0  0  0
 11 14  1  0  0  0  0
 13 11  1  0  0  0  0
 13  5  1  0  0  0  0
 14  6  1  0  0  0  0
 15 22  1  0  0  0  0
 17 20  1  0  0  0  0
 17 15  2  0  0  0  0
 18 19  1  0  0  0  0
 20 21  2  0  0  0  0
 21 16  1  0  0  0  0
 21 18  1  0  0  0  0
 22 18  2  0  0  0  0
 22 24  1  0  0  0  0
 23 24  1  0  0  0  0
 25 33  1  6  0  0  0
 25 27  1  0  0  0  0
 26  1  1  6  0  0  0
 26 25  1  0  0  0  0
 26 27  1  0  0  0  0
 27 28  1  1  0  0  0
 29 30  1  0  0  0  0
 30 32  1  0  0  0  0
 31 30  2  0  0  0  0
 32 28  1  0  0  0  0
 33 34  1  0  0  0  0
 34 35  1  0  0  0  0
 36 35  1  6  0  0  0
 36 37  1  0  0  0  0
 37 40  1  0  0  0  0
 40 38  1  0  0  0  0
 40 39  1  1  0  0  0
 41 36  1  0  0  0  0
 41 42  1  0  0  0  0
 42 47  1  0  0  0  0
 44 43  1  0  0  0  0
 45 46  1  0  0  0  0
 45 42  2  0  0  0  0
 46 44  2  0  0  0  0
 47 43  2  0  0  0  0
M  END
>  <MODEL>
5

>  <REMARK>
 VINA RESULT:      -7.2      4.109      7.132
  Name = 
  15 active torsions:
  status: ('A' for Active; 'I' for Inactive)
    1  A    between atoms: C_2  and  C_22
    2  A    between atoms: C_3  and  N_20
    3  A    between atoms: C_3  and  C_45
    4  A    between atoms: C_4  and  C_9
    5  A    between atoms: C_6  and  C_19
    6  A    between atoms: C_6  and  C_25
    7  A    between atoms: C_9  and  C_12
    8  A    between atoms: C_10  and  C_44
    9  A    between atoms: C_12  and  C_38
   10  A    between atoms: C_19  and  C_32
   11  A    between atoms: C_21  and  O_36
   12  A    between atoms: C_25  and  O_36
   13  A    between atoms: C_25  and  C_44
   14  A    between atoms: C_32  and  C_35
   15  A    between atoms: C_46  and  C_47
                            x       y       z     vdW  Elec       q    Type
                         _______ _______ _______ _____ _____    ______ ____

>  <TORSDO>
F 15

$$$$
=
 OpenBabel11062417323D

 47 51  0  0  1  0  0  0  0  0999 V2000
  184.9490  177.6690  138.7110 C   0  0  0  0  0  2  0  0  0  0  0  0
  184.5080  177.1350  137.3520 C   0  0  0  0  0  0  0  0  0  0  0  0
  183.1240  177.5650  136.8940 C   0  0  0  0  0  2  0  0  0  0  0  0
  183.3460  176.1560  137.4140 C   0  0  0  0  0  2  0  0  0  0  0  0
  188.3980  175.0480  136.3540 C   0  0  0  0  0  0  0  0  0  0  0  0
  185.5690  176.9470  136.2490 C   0  0  1  0  0  3  0  0  0  0  0  0
  188.7430  176.4710  136.6990 C   0  0  1  0  0  3  0  0  0  0  0  0
  187.7020  177.0650  137.4270 O   0  0  0  0  0  0  0  0  0  0  0  0
  186.6870  179.0340  136.8210 O   0  0  0  0  0  1  0  0  0  0  0  0
  186.9040  177.7000  136.4680 C   0  0  2  0  0  3  0  0  0  0  0  0
  186.2960  175.4990  134.6890 C   0  0  0  0  0  2  0  0  0  0  0  0
  188.3740  174.1830  137.2200 O   0  0  0  0  0  0  0  0  0  0  0  0
  187.9140  174.6330  134.6720 S   0  0  0  0  0  0  0  0  0  0  0  0
  185.7710  175.5800  135.9850 O   0  0  0  0  0  0  0  0  0  0  0  0
  190.0470  176.5690  137.4430 C   0  0  0  0  0  0  0  0  0  0  0  0
  193.6180  176.7970  139.5690 F   0  0  0  0  0  0  0  0  0  0  0  0
  190.0480  176.8760  138.8140 C   0  0  0  0  0  3  0  0  0  0  0  0
  192.4750  176.4070  137.5070 C   0  0  0  0  0  0  0  0  0  0  0  0
  193.6620  176.2000  136.8840 F   0  0  0  0  0  0  0  0  0  0  0  0
  191.2470  176.9550  139.5240 C   0  0  0  0  0  3  0  0  0  0  0  0
  192.4590  176.7230  138.8710 C   0  0  0  0  0  0  0  0  0  0  0  0
  191.2730  176.3330  136.7840 C   0  0  0  0  0  0  0  0  0  0  0  0
  191.7130  174.6290  135.2050 O   0  0  0  0  0  1  0  0  0  0  0  0
  191.3100  175.9620  135.3350 C   0  0  0  0  0  2  0  0  0  0  0  0
  184.1020  178.5250  140.9880 C   0  0  2  0  0  3  0  0  0  0  0  0
  183.7770  177.7740  139.6890 C   0  0  1  0  0  3  0  0  0  0  0  0
  183.3410  179.2160  139.8740 C   0  0  1  0  0  3  0  0  0  0  0  0
  181.8730  179.2730  140.2560 C   0  0  0  0  0  2  0  0  0  0  0  0
  179.6080  176.3660  141.2470 N   0  0  0  0  0  1  0  0  0  0  0  0
  180.0340  177.6990  140.9910 C   0  0  0  0  0  0  0  0  0  0  0  0
  179.2410  178.6560  141.1820 O   0  0  0  0  0  0  0  0  0  0  0  0
  181.3610  177.9340  140.5130 N   0  0  0  0  0  2  0  0  0  0  0  0
  185.4990  179.1210  141.0760 C   0  0  0  0  0  2  0  0  0  0  0  0
  186.1930  178.5910  142.3130 C   0  0  0  0  0  2  0  0  0  0  0  0
  187.5880  178.1060  141.9410 C   0  0  0  0  0  2  0  0  0  0  0  0
  188.3420  177.5590  143.1530 C   0  0  2  0  0  3  0  0  0  0  0  0
  189.3740  176.6930  142.7370 O   0  0  0  0  0  0  0  0  0  0  0  0
  191.6300  176.5350  143.3140 O   0  0  0  0  0  1  0  0  0  0  0  0
  190.5160  178.6430  143.6730 C   0  0  0  0  0  1  0  0  0  0  0  0
  190.6130  177.3710  142.8370 C   0  0  2  0  0  3  0  0  0  0  0  0
  187.4080  176.8300  144.1190 C   0  0  0  0  0  2  0  0  0  0  0  0
  187.5290  177.3480  145.5190 C   0  0  0  0  0  0  0  0  0  0  0  0
  186.5930  178.6330  147.3570 C   0  0  0  0  0  3  0  0  0  0  0  0
  187.7640  178.4290  148.0940 C   0  0  0  0  0  3  0  0  0  0  0  0
  188.7050  177.1530  146.2570 C   0  0  0  0  0  3  0  0  0  0  0  0
  188.8180  177.6890  147.5470 C   0  0  0  0  0  3  0  0  0  0  0  0
  186.4770  178.0920  146.0710 C   0  0  0  0  0  3  0  0  0  0  0  0
  2  4  1  0  0  0  0
  2  1  1  0  0  0  0
  3  2  1  0  0  0  0
  3  4  1  0  0  0  0
  5  7  1  0  0  0  0
  5 12  2  0  0  0  0
  6 10  1  0  0  0  0
  6  2  1  1  0  0  0
  7  8  1  0  0  0  0
  7 15  1  1  0  0  0
 10  9  1  1  0  0  0
 10  8  1  0  0  0  0
 11 14  1  0  0  0  0
 13 11  1  0  0  0  0
 13  5  1  0  0  0  0
 14  6  1  0  0  0  0
 15 17  1  0  0  0  0
 17 20  2  0  0  0  0
 18 21  2  0  0  0  0
 19 18  1  0  0  0  0
 21 20  1  0  0  0  0
 21 16  1  0  0  0  0
 22 15  2  0  0  0  0
 22 18  1  0  0  0  0
 23 24  1  0  0  0  0
 24 22  1  0  0  0  0
 25 33  1  6  0  0  0
 26  1  1  6  0  0  0
 26 27  1  0  0  0  0
 26 25  1  0  0  0  0
 27 28  1  1  0  0  0
 27 25  1  0  0  0  0
 28 32  1  0  0  0  0
 30 31  2  0  0  0  0
 30 29  1  0  0  0  0
 32 30  1  0  0  0  0
 33 34  1  0  0  0  0
 35 34  1  0  0  0  0
 36 35  1  6  0  0  0
 36 41  1  0  0  0  0
 37 40  1  0  0  0  0
 37 36  1  0  0  0  0
 40 38  1  0  0  0  0
 40 39  1  1  0  0  0
 41 42  1  0  0  0  0
 42 47  2  0  0  0  0
 42 45  1  0  0  0  0
 43 44  2  0  0  0  0
 45 46  2  0  0  0  0
 46 44  1  0  0  0  0
 47 43  1  0  0  0  0
M  END
>  <MODEL>
6

>  <REMARK>
 VINA RESULT:      -7.0      4.137      7.305
  Name = 
  15 active torsions:
  status: ('A' for Active; 'I' for Inactive)
    1  A    between atoms: C_2  and  C_22
    2  A    between atoms: C_3  and  N_20
    3  A    between atoms: C_3  and  C_45
    4  A    between atoms: C_4  and  C_9
    5  A    between atoms: C_6  and  C_19
    6  A    between atoms: C_6  and  C_25
    7  A    between atoms: C_9  and  C_12
    8  A    between atoms: C_10  and  C_44
    9  A    between atoms: C_12  and  C_38
   10  A    between atoms: C_19  and  C_32
   11  A    between atoms: C_21  and  O_36
   12  A    between atoms: C_25  and  O_36
   13  A    between atoms: C_25  and  C_44
   14  A    between atoms: C_32  and  C_35
   15  A    between atoms: C_46  and  C_47
                            x       y       z     vdW  Elec       q    Type
                         _______ _______ _______ _____ _____    ______ ____

>  <TORSDO>
F 15

$$$$
=
 OpenBabel11062417323D

 47 51  0  0  1  0  0  0  0  0999 V2000
  182.9300  176.5870  139.7040 C   0  0  0  0  0  2  0  0  0  0  0  0
  182.0600  175.9360  138.6340 C   0  0  0  0  0  0  0  0  0  0  0  0
  180.6100  176.3880  138.6000 C   0  0  0  0  0  2  0  0  0  0  0  0
  180.9670  175.0330  139.1820 C   0  0  0  0  0  2  0  0  0  0  0  0
  185.6220  173.9180  136.7030 C   0  0  0  0  0  0  0  0  0  0  0  0
  182.6990  175.5750  137.2770 C   0  0  1  0  0  3  0  0  0  0  0  0
  185.8700  175.4000  136.6340 C   0  0  1  0  0  3  0  0  0  0  0  0
  185.0690  176.0750  137.5670 O   0  0  0  0  0  0  0  0  0  0  0  0
  183.6560  177.8000  137.0160 O   0  0  0  0  0  1  0  0  0  0  0  0
  183.9160  176.4370  136.8600 C   0  0  2  0  0  3  0  0  0  0  0  0
  183.0390  173.8680  135.8540 C   0  0  0  0  0  2  0  0  0  0  0  0
  186.0080  173.2630  137.6630 O   0  0  0  0  0  0  0  0  0  0  0  0
  184.6560  173.1180  135.4150 S   0  0  0  0  0  0  0  0  0  0  0  0
  182.9790  174.1990  137.2140 O   0  0  0  0  0  0  0  0  0  0  0  0
  187.3240  175.7360  136.8280 C   0  0  0  0  0  0  0  0  0  0  0  0
  191.3670  176.5930  137.3150 F   0  0  0  0  0  0  0  0  0  0  0  0
  188.2470  174.7120  137.0970 C   0  0  0  0  0  3  0  0  0  0  0  0
  189.1440  177.3510  136.8790 C   0  0  0  0  0  0  0  0  0  0  0  0
  189.5930  178.6280  136.7940 F   0  0  0  0  0  0  0  0  0  0  0  0
  189.6020  175.0020  137.2630 C   0  0  0  0  0  3  0  0  0  0  0  0
  190.0500  176.3200  137.1560 C   0  0  0  0  0  0  0  0  0  0  0  0
  187.7780  177.0670  136.7180 C   0  0  0  0  0  0  0  0  0  0  0  0
  186.6470  178.9850  137.5170 O   0  0  0  0  0  1  0  0  0  0  0  0
  186.8320  178.1790  136.3890 C   0  0  0  0  0  2  0  0  0  0  0  0
  183.0040  178.6850  141.1950 C   0  0  2  0  0  3  0  0  0  0  0  0
  182.1420  177.5970  140.5420 C   0  0  1  0  0  3  0  0  0  0  0  0
  182.2120  178.9870  139.9390 C   0  0  1  0  0  3  0  0  0  0  0  0
  180.9810  179.7870  140.3240 C   0  0  0  0  0  2  0  0  0  0  0  0
  178.9300  178.7820  143.3810 N   0  0  0  0  0  1  0  0  0  0  0  0
  179.7100  179.5830  142.5020 C   0  0  0  0  0  0  0  0  0  0  0  0
  179.9950  180.7660  142.8220 O   0  0  0  0  0  0  0  0  0  0  0  0
  180.1570  179.0340  141.2590 N   0  0  0  0  0  2  0  0  0  0  0  0
  184.4850  178.6530  140.8510 C   0  0  0  0  0  2  0  0  0  0  0  0
  185.2960  178.5990  142.1290 C   0  0  0  0  0  2  0  0  0  0  0  0
  186.7780  178.5430  141.7860 C   0  0  0  0  0  2  0  0  0  0  0  0
  187.5800  177.7900  142.8470 C   0  0  2  0  0  3  0  0  0  0  0  0
  188.3290  176.7540  142.2520 O   0  0  0  0  0  0  0  0  0  0  0  0
  189.9260  178.3660  142.7990 O   0  0  0  0  0  1  0  0  0  0  0  0
  190.0510  177.3440  140.6190 C   0  0  0  0  0  1  0  0  0  0  0  0
  189.6660  177.1890  142.0860 C   0  0  2  0  0  3  0  0  0  0  0  0
  186.6760  177.2180  143.9390 C   0  0  0  0  0  2  0  0  0  0  0  0
  187.1610  177.5660  145.3120 C   0  0  0  0  0  0  0  0  0  0  0  0
  188.9300  177.5120  146.9770 C   0  0  0  0  0  3  0  0  0  0  0  0
  188.0690  178.1010  147.9100 C   0  0  0  0  0  3  0  0  0  0  0  0
  186.2970  178.1480  146.2520 C   0  0  0  0  0  3  0  0  0  0  0  0
  186.7560  178.4200  147.5480 C   0  0  0  0  0  3  0  0  0  0  0  0
  188.4750  177.2460  145.6810 C   0  0  0  0  0  3  0  0  0  0  0  0
  2  4  1  0  0  0  0
  2  1  1  0  0  0  0
  3  2  1  0  0  0  0
  3  4  1  0  0  0  0
  5 12  2  0  0  0  0
  6  2  1  1  0  0  0
  7  5  1  0  0  0  0
  7 15  1  1  0  0  0
  7  8  1  0  0  0  0
 10  9  1  1  0  0  0
 10  6  1  0  0  0  0
 10  8  1  0  0  0  0
 11 14  1  0  0  0  0
 13 11  1  0  0  0  0
 13  5  1  0  0  0  0
 14  6  1  0  0  0  0
 15 17  1  0  0  0  0
 17 20  2  0  0  0  0
 18 21  2  0  0  0  0
 19 18  1  0  0  0  0
 21 20  1  0  0  0  0
 21 16  1  0  0  0  0
 22 15  2  0  0  0  0
 22 18  1  0  0  0  0
 24 22  1  0  0  0  0
 24 23  1  0  0  0  0
 25 33  1  6  0  0  0
 26  1  1  6  0  0  0
 26 25  1  0  0  0  0
 27 28  1  1  0  0  0
 27 26  1  0  0  0  0
 27 25  1  0  0  0  0
 28 32  1  0  0  0  0
 30 31  2  0  0  0  0
 30 29  1  0  0  0  0
 32 30  1  0  0  0  0
 33 34  1  0  0  0  0
 35 34  1  0  0  0  0
 36 35  1  6  0  0  0
 36 41  1  0  0  0  0
 37 36  1  0  0  0  0
 40 39  1  6  0  0  0
 40 37  1  0  0  0  0
 40 38  1  0  0  0  0
 41 42  1  0  0  0  0
 42 47  2  0  0  0  0
 42 45  1  0  0  0  0
 43 44  2  0  0  0  0
 45 46  2  0  0  0  0
 46 44  1  0  0  0  0
 47 43  1  0  0  0  0
M  END
>  <MODEL>
7

>  <REMARK>
 VINA RESULT:      -7.0      4.002      6.778
  Name = 
  15 active torsions:
  status: ('A' for Active; 'I' for Inactive)
    1  A    between atoms: C_2  and  C_22
    2  A    between atoms: C_3  and  N_20
    3  A    between atoms: C_3  and  C_45
    4  A    between atoms: C_4  and  C_9
    5  A    between atoms: C_6  and  C_19
    6  A    between atoms: C_6  and  C_25
    7  A    between atoms: C_9  and  C_12
    8  A    between atoms: C_10  and  C_44
    9  A    between atoms: C_12  and  C_38
   10  A    between atoms: C_19  and  C_32
   11  A    between atoms: C_21  and  O_36
   12  A    between atoms: C_25  and  O_36
   13  A    between atoms: C_25  and  C_44
   14  A    between atoms: C_32  and  C_35
   15  A    between atoms: C_46  and  C_47
                            x       y       z     vdW  Elec       q    Type
                         _______ _______ _______ _____ _____    ______ ____

>  <TORSDO>
F 15

$$$$
=
 OpenBabel11062417323D

 47 51  0  0  1  0  0  0  0  0999 V2000
  185.9260  177.1170  137.1600 C   0  0  0  0  0  2  0  0  0  0  0  0
  184.7210  176.6710  136.3390 C   0  0  0  0  0  0  0  0  0  0  0  0
  184.8810  175.3560  135.5950 C   0  0  0  0  0  2  0  0  0  0  0  0
  184.9560  176.6680  134.8360 C   0  0  0  0  0  2  0  0  0  0  0  0
  182.3750  179.4860  138.9960 C   0  0  0  0  0  0  0  0  0  0  0  0
  183.3060  176.9980  136.8600 C   0  0  1  0  0  3  0  0  0  0  0  0
  182.5660  178.2110  139.7720 C   0  0  1  0  0  3  0  0  0  0  0  0
  183.6230  177.4630  139.2330 O   0  0  0  0  0  0  0  0  0  0  0  0
  183.4240  175.2720  138.5750 O   0  0  0  0  0  1  0  0  0  0  0  0
  183.0200  176.5850  138.3240 C   0  0  2  0  0  3  0  0  0  0  0  0
  181.5930  178.4340  136.6140 C   0  0  0  0  0  2  0  0  0  0  0  0
  183.1920  180.3940  139.0740 O   0  0  0  0  0  0  0  0  0  0  0  0
  180.9880  179.6360  137.8620 S   0  0  0  0  0  0  0  0  0  0  0  0
  182.9910  178.3470  136.6200 O   0  0  0  0  0  0  0  0  0  0  0  0
  182.7810  178.4730  141.2380 C   0  0  0  0  0  0  0  0  0  0  0  0
  183.4410  179.2540  145.2720 F   0  0  0  0  0  0  0  0  0  0  0  0
  184.0870  178.6020  141.7400 C   0  0  0  0  0  3  0  0  0  0  0  0
  181.9120  178.8800  143.4750 C   0  0  0  0  0  0  0  0  0  0  0  0
  180.8690  179.0010  144.3330 F   0  0  0  0  0  0  0  0  0  0  0  0
  184.3060  178.8620  143.0940 C   0  0  0  0  0  3  0  0  0  0  0  0
  183.2200  178.9990  143.9610 C   0  0  0  0  0  0  0  0  0  0  0  0
  181.6850  178.6130  142.1150 C   0  0  0  0  0  0  0  0  0  0  0  0
  179.7710  179.8120  141.4120 O   0  0  0  0  0  1  0  0  0  0  0  0
  180.2790  178.5240  141.6100 C   0  0  0  0  0  2  0  0  0  0  0  0
  188.4630  177.4840  136.9080 C   0  0  2  0  0  3  0  0  0  0  0  0
  187.2420  176.6250  136.5510 C   0  0  1  0  0  3  0  0  0  0  0  0
  188.2120  176.1740  137.6270 C   0  0  1  0  0  3  0  0  0  0  0  0
  189.1600  175.1280  137.0700 C   0  0  0  0  0  2  0  0  0  0  0  0
  192.6600  176.5120  137.6990 N   0  0  0  0  0  1  0  0  0  0  0  0
  191.3900  175.9270  137.9580 C   0  0  0  0  0  0  0  0  0  0  0  0
  191.0750  175.6150  139.1350 O   0  0  0  0  0  0  0  0  0  0  0  0
  190.4860  175.6970  136.8740 N   0  0  0  0  0  2  0  0  0  0  0  0
  188.2060  178.6340  137.8700 C   0  0  0  0  0  2  0  0  0  0  0  0
  188.9320  178.3700  139.1720 C   0  0  0  0  0  2  0  0  0  0  0  0
  187.9170  178.2230  140.2970 C   0  0  0  0  0  2  0  0  0  0  0  0
  188.5720  177.7650  141.6000 C   0  0  2  0  0  3  0  0  0  0  0  0
  188.0150  178.4540  142.6970 O   0  0  0  0  0  0  0  0  0  0  0  0
  187.4090  177.8710  144.8740 O   0  0  0  0  0  1  0  0  0  0  0  0
  187.7760  176.0930  143.2870 C   0  0  0  0  0  1  0  0  0  0  0  0
  187.3240  177.5310  143.5180 C   0  0  2  0  0  3  0  0  0  0  0  0
  190.0870  177.9680  141.5720 C   0  0  0  0  0  2  0  0  0  0  0  0
  190.7460  177.4620  142.8180 C   0  0  0  0  0  0  0  0  0  0  0  0
  191.6720  175.6050  144.0830 C   0  0  0  0  0  3  0  0  0  0  0  0
  191.8780  176.4530  145.1760 C   0  0  0  0  0  3  0  0  0  0  0  0
  190.9450  178.3070  143.9190 C   0  0  0  0  0  3  0  0  0  0  0  0
  191.5180  177.8020  145.0950 C   0  0  0  0  0  3  0  0  0  0  0  0
  191.1070  176.1090  142.9060 C   0  0  0  0  0  3  0  0  0  0  0  0
  2  1  1  0  0  0  0
  3  2  1  0  0  0  0
  4  3  1  0  0  0  0
  4  2  1  0  0  0  0
  5 12  2  0  0  0  0
  5  7  1  0  0  0  0
  6  2  1  1  0  0  0
  6 10  1  0  0  0  0
  7 15  1  1  0  0  0
  8  7  1  0  0  0  0
 10  9  1  1  0  0  0
 10  8  1  0  0  0  0
 11 14  1  0  0  0  0
 11 13  1  0  0  0  0
 13  5  1  0  0  0  0
 14  6  1  0  0  0  0
 15 17  2  0  0  0  0
 15 22  1  0  0  0  0
 17 20  1  0  0  0  0
 18 21  1  0  0  0  0
 18 19  1  0  0  0  0
 20 21  2  0  0  0  0
 21 16  1  0  0  0  0
 22 18  2  0  0  0  0
 23 24  1  0  0  0  0
 24 22  1  0  0  0  0
 25 27  1  0  0  0  0
 25 33  1  1  0  0  0
 26 25  1  0  0  0  0
 26  1  1  1  0  0  0
 26 27  1  0  0  0  0
 27 28  1  6  0  0  0
 29 30  1  0  0  0  0
 30 31  2  0  0  0  0
 32 28  1  0  0  0  0
 32 30  1  0  0  0  0
 33 34  1  0  0  0  0
 34 35  1  0  0  0  0
 36 35  1  6  0  0  0
 36 37  1  0  0  0  0
 37 40  1  0  0  0  0
 40 39  1  1  0  0  0
 40 38  1  0  0  0  0
 41 36  1  0  0  0  0
 41 42  1  0  0  0  0
 42 47  2  0  0  0  0
 42 45  1  0  0  0  0
 43 44  2  0  0  0  0
 45 46  2  0  0  0  0
 46 44  1  0  0  0  0
 47 43  1  0  0  0  0
M  END
>  <MODEL>
8

>  <REMARK>
 VINA RESULT:      -7.0      1.392      2.138
  Name = 
  15 active torsions:
  status: ('A' for Active; 'I' for Inactive)
    1  A    between atoms: C_2  and  C_22
    2  A    between atoms: C_3  and  N_20
    3  A    between atoms: C_3  and  C_45
    4  A    between atoms: C_4  and  C_9
    5  A    between atoms: C_6  and  C_19
    6  A    between atoms: C_6  and  C_25
    7  A    between atoms: C_9  and  C_12
    8  A    between atoms: C_10  and  C_44
    9  A    between atoms: C_12  and  C_38
   10  A    between atoms: C_19  and  C_32
   11  A    between atoms: C_21  and  O_36
   12  A    between atoms: C_25  and  O_36
   13  A    between atoms: C_25  and  C_44
   14  A    between atoms: C_32  and  C_35
   15  A    between atoms: C_46  and  C_47
                            x       y       z     vdW  Elec       q    Type
                         _______ _______ _______ _____ _____    ______ ____

>  <TORSDO>
F 15

$$$$
=
 OpenBabel11062417323D

 47 51  0  0  1  0  0  0  0  0999 V2000
  188.2380  176.4210  138.0190 C   0  0  0  0  0  2  0  0  0  0  0  0
  187.2110  177.3370  137.3620 C   0  0  0  0  0  0  0  0  0  0  0  0
  187.6910  178.7440  137.0470 C   0  0  0  0  0  2  0  0  0  0  0  0
  186.7720  178.5050  138.2310 C   0  0  0  0  0  2  0  0  0  0  0  0
  182.8000  177.1070  136.3720 C   0  0  0  0  0  0  0  0  0  0  0  0
  186.1880  176.7250  136.3840 C   0  0  1  0  0  3  0  0  0  0  0  0
  183.1530  175.8330  137.0900 C   0  0  1  0  0  3  0  0  0  0  0  0
  184.3480  175.9900  137.8080 O   0  0  0  0  0  0  0  0  0  0  0  0
  186.1620  174.6000  137.5760 O   0  0  0  0  0  1  0  0  0  0  0  0
  185.3530  175.5450  136.9400 C   0  0  2  0  0  3  0  0  0  0  0  0
  184.8780  177.2120  134.6220 C   0  0  0  0  0  2  0  0  0  0  0  0
  182.4180  178.0900  136.9940 O   0  0  0  0  0  0  0  0  0  0  0  0
  183.0430  177.2220  134.5940 S   0  0  0  0  0  0  0  0  0  0  0  0
  185.3770  177.7280  135.8250 O   0  0  0  0  0  0  0  0  0  0  0  0
  182.0400  175.3680  137.9890 C   0  0  0  0  0  0  0  0  0  0  0  0
  178.9450  174.1660  140.4990 F   0  0  0  0  0  0  0  0  0  0  0  0
  181.8780  175.9490  139.2580 C   0  0  0  0  0  3  0  0  0  0  0  0
  180.0940  173.9680  138.4140 C   0  0  0  0  0  0  0  0  0  0  0  0
  179.2310  172.9970  138.0260 F   0  0  0  0  0  0  0  0  0  0  0  0
  180.8410  175.5420  140.0990 C   0  0  0  0  0  3  0  0  0  0  0  0
  179.9510  174.5520  139.6780 C   0  0  0  0  0  0  0  0  0  0  0  0
  181.1400  174.3680  137.5650 C   0  0  0  0  0  0  0  0  0  0  0  0
  181.7420  172.4510  136.3180 O   0  0  0  0  0  1  0  0  0  0  0  0
  181.2540  173.7560  136.2040 C   0  0  0  0  0  2  0  0  0  0  0  0
  190.7540  176.6690  138.5070 C   0  0  2  0  0  3  0  0  0  0  0  0
  189.6420  176.6390  137.4510 C   0  0  1  0  0  3  0  0  0  0  0  0
  190.5230  175.4250  137.6740 C   0  0  1  0  0  3  0  0  0  0  0  0
  191.5960  175.3530  136.6040 C   0  0  0  0  0  2  0  0  0  0  0  0
  195.1990  174.9800  137.8040 N   0  0  0  0  0  1  0  0  0  0  0  0
  194.0230  175.5850  137.2830 C   0  0  0  0  0  0  0  0  0  0  0  0
  194.0400  176.7960  136.9420 O   0  0  0  0  0  0  0  0  0  0  0  0
  192.8290  174.8070  137.1550 N   0  0  0  0  0  2  0  0  0  0  0  0
  190.3170  176.3950  139.9380 C   0  0  0  0  0  2  0  0  0  0  0  0
  189.9730  177.7030  140.6170 C   0  0  0  0  0  2  0  0  0  0  0  0
  188.7380  177.5140  141.4870 C   0  0  0  0  0  2  0  0  0  0  0  0
  189.0370  177.7630  142.9640 C   0  0  2  0  0  3  0  0  0  0  0  0
  190.4160  177.6130  143.2170 O   0  0  0  0  0  0  0  0  0  0  0  0
  191.7280  179.3420  144.0750 O   0  0  0  0  0  1  0  0  0  0  0  0
  191.1980  177.4940  145.5310 C   0  0  0  0  0  1  0  0  0  0  0  0
  190.7610  178.3700  144.3620 C   0  0  2  0  0  3  0  0  0  0  0  0
  188.2370  176.8260  143.8700 C   0  0  0  0  0  2  0  0  0  0  0  0
  187.1060  177.5310  144.5520 C   0  0  0  0  0  0  0  0  0  0  0  0
  186.0450  178.2690  146.6100 C   0  0  0  0  0  3  0  0  0  0  0  0
  184.9530  178.7440  145.8750 C   0  0  0  0  0  3  0  0  0  0  0  0
  186.0060  178.0000  143.8200 C   0  0  0  0  0  3  0  0  0  0  0  0
  184.9330  178.6120  144.4820 C   0  0  0  0  0  3  0  0  0  0  0  0
  187.1190  177.6630  145.9480 C   0  0  0  0  0  3  0  0  0  0  0  0
  2  1  1  0  0  0  0
  2  4  1  0  0  0  0
  3  2  1  0  0  0  0
  3  4  1  0  0  0  0
  5 12  2  0  0  0  0
  5  7  1  0  0  0  0
  6 10  1  0  0  0  0
  6  2  1  1  0  0  0
  7  8  1  0  0  0  0
  7 15  1  1  0  0  0
 10  9  1  1  0  0  0
 10  8  1  0  0  0  0
 11 14  1  0  0  0  0
 13 11  1  0  0  0  0
 13  5  1  0  0  0  0
 14  6  1  0  0  0  0
 15 17  1  0  0  0  0
 17 20  2  0  0  0  0
 18 21  2  0  0  0  0
 19 18  1  0  0  0  0
 21 20  1  0  0  0  0
 21 16  1  0  0  0  0
 22 15  2  0  0  0  0
 22 18  1  0  0  0  0
 24 23  1  0  0  0  0
 24 22  1  0  0  0  0
 25 33  1  1  0  0  0
 26 27  1  0  0  0  0
 26  1  1  1  0  0  0
 26 25  1  0  0  0  0
 27 28  1  6  0  0  0
 27 25  1  0  0  0  0
 28 32  1  0  0  0  0
 30 29  1  0  0  0  0
 31 30  2  0  0  0  0
 32 30  1  0  0  0  0
 33 34  1  0  0  0  0
 34 35  1  0  0  0  0
 36 35  1  6  0  0  0
 36 37  1  0  0  0  0
 36 41  1  0  0  0  0
 37 40  1  0  0  0  0
 38 40  1  0  0  0  0
 40 39  1  1  0  0  0
 41 42  1  0  0  0  0
 42 47  1  0  0  0  0
 44 43  1  0  0  0  0
 45 46  1  0  0  0  0
 45 42  2  0  0  0  0
 46 44  2  0  0  0  0
 47 43  2  0  0  0  0
M  END
>  <MODEL>
9

>  <REMARK>
 VINA RESULT:      -7.0      2.635      4.161
  Name = 
  15 active torsions:
  status: ('A' for Active; 'I' for Inactive)
    1  A    between atoms: C_2  and  C_22
    2  A    between atoms: C_3  and  N_20
    3  A    between atoms: C_3  and  C_45
    4  A    between atoms: C_4  and  C_9
    5  A    between atoms: C_6  and  C_19
    6  A    between atoms: C_6  and  C_25
    7  A    between atoms: C_9  and  C_12
    8  A    between atoms: C_10  and  C_44
    9  A    between atoms: C_12  and  C_38
   10  A    between atoms: C_19  and  C_32
   11  A    between atoms: C_21  and  O_36
   12  A    between atoms: C_25  and  O_36
   13  A    between atoms: C_25  and  C_44
   14  A    between atoms: C_32  and  C_35
   15  A    between atoms: C_46  and  C_47
                            x       y       z     vdW  Elec       q    Type
                         _______ _______ _______ _____ _____    ______ ____

>  <TORSDO>
F 15

$$$$
