=
 OpenBabel11062416473D

 28 33  0  0  1  0  0  0  0  0999 V2000
  180.1270  178.3820  139.1110 C   0  0  0  0  0  2  0  0  0  0  0  0
  182.8690  176.6470  138.0730 C   0  0  1  0  0  0  0  0  0  0  0  0
  182.5270  178.5480  139.8100 C   0  0  2  0  0  3  0  0  0  0  0  0
  183.8230  177.4310  137.2440 N   0  0  2  0  0  0  0  0  0  0  0  0
  183.0520  178.7540  142.2860 C   0  0  0  0  0  0  0  0  0  0  0  0
  181.4560  179.0980  138.8550 C   0  0  2  0  0  0  0  0  0  0  0  0
  182.3640  177.5190  137.0040 C   0  0  2  0  0  3  0  0  0  0  0  0
  181.2910  180.5990  139.0670 C   0  0  0  0  0  1  0  0  0  0  0  0
  184.8990  175.3930  136.6070 N   0  0  0  0  0  0  0  0  0  0  0  0
  184.3780  176.6540  136.1290 C   0  0  0  0  0  2  0  0  0  0  0  0
  182.8210  175.1390  137.7890 C   0  0  0  0  0  2  0  0  0  0  0  0
  185.8460  179.0170  145.3630 F   0  0  0  0  0  0  0  0  0  0  0  0
  182.6320  178.7630  143.6380 C   0  0  0  0  0  0  0  0  0  0  0  0
  180.3270  178.5940  142.9330 C   0  0  0  0  0  3  0  0  0  0  0  0
  181.8990  178.9210  137.4060 C   0  0  0  0  0  2  0  0  0  0  0  0
  185.3610  178.9230  143.0320 C   0  0  0  0  0  3  0  0  0  0  0  0
  181.2760  178.6800  143.9500 C   0  0  0  0  0  3  0  0  0  0  0  0
  184.1850  174.6510  137.3780 C   0  0  0  0  0  0  0  0  0  0  0  0
  182.8480  177.0750  139.5410 C   0  0  0  0  0  2  0  0  0  0  0  0
  184.9370  178.9310  144.3640 C   0  0  0  0  0  0  0  0  0  0  0  0
  183.5750  178.8510  144.6660 C   0  0  0  0  0  3  0  0  0  0  0  0
  179.6290  178.5840  140.5490 C   0  0  0  0  0  2  0  0  0  0  0  0
  182.0920  178.6610  141.2550 C   0  0  0  0  0  0  0  0  0  0  0  0
  180.7180  178.5730  141.5910 C   0  0  0  0  0  0  0  0  0  0  0  0
  184.4250  178.8340  141.9990 C   0  0  0  0  0  3  0  0  0  0  0  0
  184.7690  173.3660  137.8910 C   0  0  0  0  0  2  0  0  0  0  0  0
  183.4040  171.5310  137.2310 O   0  0  0  0  0  1  0  0  0  0  0  0
  184.5870  172.2030  136.9290 C   0  0  0  0  0  2  0  0  0  0  0  0
  1 22  1  0  0  0  0
  2 11  1  6  0  0  0
  2 19  1  0  0  0  0
  3 19  1  6  0  0  0
  3 23  1  0  0  0  0
  4 10  1  6  0  0  0
  4  2  1  0  0  0  0
  5 13  1  0  0  0  0
  6  8  1  1  0  0  0
  6  1  1  0  0  0  0
  6  3  1  0  0  0  0
  7  4  1  0  0  0  0
  7 15  1  1  0  0  0
  7  2  1  0  0  0  0
  9 18  2  0  0  0  0
 10  9  1  0  0  0  0
 13 17  2  0  0  0  0
 13 21  1  0  0  0  0
 14 17  1  0  0  0  0
 15  6  1  0  0  0  0
 16 20  1  0  0  0  0
 18 11  1  0  0  0  0
 18 26  1  0  0  0  0
 20 21  2  0  0  0  0
 20 12  1  0  0  0  0
 22 24  1  0  0  0  0
 23 24  1  0  0  0  0
 23  5  2  0  0  0  0
 24 14  2  0  0  0  0
 25  5  1  0  0  0  0
 25 16  2  0  0  0  0
 28 27  1  0  0  0  0
 28 26  1  0  0  0  0
M  END
>  <MODEL>
1

>  <REMARK>
 VINA RESULT:      -7.5      0.000      0.000
  Name = 
  2 active torsions:
  status: ('A' for Active; 'I' for Inactive)
    1  A    between atoms: C_5  and  C_16
    2  A    between atoms: C_5  and  C_21
                            x       y       z     vdW  Elec       q    Type
                         _______ _______ _______ _____ _____    ______ ____

>  <TORSDO>
F 2

$$$$
=
 OpenBabel11062416473D

 28 33  0  0  1  0  0  0  0  0999 V2000
  184.3180  178.2070  137.4590 C   0  0  0  0  0  2  0  0  0  0  0  0
  181.4570  180.0050  137.9020 C   0  0  1  0  0  0  0  0  0  0  0  0
  182.7930  178.3920  139.4390 C   0  0  2  0  0  3  0  0  0  0  0  0
  180.2130  179.1910  137.9500 N   0  0  2  0  0  0  0  0  0  0  0  0
  183.8310  178.6490  141.7430 C   0  0  0  0  0  0  0  0  0  0  0  0
  183.1060  177.5910  138.1660 C   0  0  2  0  0  0  0  0  0  0  0  0
  181.2530  178.9240  136.9280 C   0  0  2  0  0  3  0  0  0  0  0  0
  183.3930  176.1370  138.5230 C   0  0  0  0  0  1  0  0  0  0  0  0
  178.9310  181.1910  137.6830 N   0  0  0  0  0  0  0  0  0  0  0  0
  179.0940  179.8240  137.2430 C   0  0  0  0  0  2  0  0  0  0  0  0
  181.3000  181.4340  137.3630 C   0  0  0  0  0  2  0  0  0  0  0  0
  183.3910  179.1690  145.8510 F   0  0  0  0  0  0  0  0  0  0  0  0
  184.9670  178.8230  142.5700 C   0  0  0  0  0  0  0  0  0  0  0  0
  186.4110  178.6480  140.6400 C   0  0  0  0  0  3  0  0  0  0  0  0
  181.8920  177.5690  137.2430 C   0  0  0  0  0  2  0  0  0  0  0  0
  182.4090  178.8300  143.7070 C   0  0  0  0  0  3  0  0  0  0  0  0
  186.2450  178.8240  142.0130 C   0  0  0  0  0  3  0  0  0  0  0  0
  179.9470  181.9770  137.7380 C   0  0  0  0  0  0  0  0  0  0  0  0
  182.3470  179.8250  139.1320 C   0  0  0  0  0  2  0  0  0  0  0  0
  183.5350  179.0000  144.5160 C   0  0  0  0  0  0  0  0  0  0  0  0
  184.8130  178.9970  143.9480 C   0  0  0  0  0  3  0  0  0  0  0  0
  185.5710  178.1970  138.3460 C   0  0  0  0  0  2  0  0  0  0  0  0
  183.9980  178.4770  140.3500 C   0  0  0  0  0  0  0  0  0  0  0  0
  185.3040  178.4860  139.8010 C   0  0  0  0  0  0  0  0  0  0  0  0
  182.5550  178.6560  142.3290 C   0  0  0  0  0  3  0  0  0  0  0  0
  179.7530  183.3800  138.2380 C   0  0  0  0  0  2  0  0  0  0  0  0
  181.4500  184.8930  137.5350 O   0  0  0  0  0  1  0  0  0  0  0  0
  180.1700  184.4370  137.2270 C   0  0  0  0  0  2  0  0  0  0  0  0
  1  6  1  0  0  0  0
  1 22  1  0  0  0  0
  2 11  1  6  0  0  0
  2  4  1  0  0  0  0
  2 19  1  0  0  0  0
  3 19  1  6  0  0  0
  3 23  1  0  0  0  0
  4 10  1  6  0  0  0
  5 25  1  0  0  0  0
  5 13  1  0  0  0  0
  6  8  1  1  0  0  0
  6  3  1  0  0  0  0
  7 15  1  1  0  0  0
  7  2  1  0  0  0  0
  7  4  1  0  0  0  0
  9 18  2  0  0  0  0
 10  9  1  0  0  0  0
 11 18  1  0  0  0  0
 13 21  1  0  0  0  0
 14 17  1  0  0  0  0
 15  6  1  0  0  0  0
 16 20  1  0  0  0  0
 17 13  2  0  0  0  0
 18 26  1  0  0  0  0
 20 12  1  0  0  0  0
 21 20  2  0  0  0  0
 22 24  1  0  0  0  0
 23  5  2  0  0  0  0
 24 23  1  0  0  0  0
 24 14  2  0  0  0  0
 25 16  2  0  0  0  0
 28 27  1  0  0  0  0
 28 26  1  0  0  0  0
M  END
>  <MODEL>
2

>  <REMARK>
 VINA RESULT:      -6.8      3.410      5.870
  Name = 
  2 active torsions:
  status: ('A' for Active; 'I' for Inactive)
    1  A    between atoms: C_5  and  C_16
    2  A    between atoms: C_5  and  C_21
                            x       y       z     vdW  Elec       q    Type
                         _______ _______ _______ _____ _____    ______ ____

>  <TORSDO>
F 2

$$$$
=
 OpenBabel11062416473D

 28 33  0  0  1  0  0  0  0  0999 V2000
  179.1830  178.5520  141.9990 C   0  0  0  0  0  2  0  0  0  0  0  0
  180.0610  176.7250  139.2600 C   0  0  1  0  0  0  0  0  0  0  0  0
  181.2520  178.6150  140.5870 C   0  0  2  0  0  3  0  0  0  0  0  0
  180.0540  177.4820  137.9800 N   0  0  2  0  0  0  0  0  0  0  0  0
  183.5040  178.7690  141.7500 C   0  0  0  0  0  0  0  0  0  0  0  0
  179.8540  179.2190  140.7950 C   0  0  2  0  0  0  0  0  0  0  0  0
  178.9460  177.6290  138.9530 C   0  0  2  0  0  3  0  0  0  0  0  0
  179.9650  180.7210  141.0240 C   0  0  0  0  0  1  0  0  0  0  0  0
  180.1740  175.4120  136.7900 N   0  0  0  0  0  0  0  0  0  0  0  0
  179.5180  176.6980  136.8610 C   0  0  0  0  0  2  0  0  0  0  0  0
  179.7600  175.2240  139.1500 C   0  0  0  0  0  2  0  0  0  0  0  0
  187.6620  178.8830  141.5420 F   0  0  0  0  0  0  0  0  0  0  0  0
  184.2820  178.7760  142.9330 C   0  0  0  0  0  0  0  0  0  0  0  0
  182.2690  178.7070  144.2680 C   0  0  0  0  0  3  0  0  0  0  0  0
  179.0090  179.0430  139.5360 C   0  0  0  0  0  2  0  0  0  0  0  0
  185.5510  178.8380  140.4380 C   0  0  0  0  0  3  0  0  0  0  0  0
  183.6600  178.7420  144.1800 C   0  0  0  0  0  3  0  0  0  0  0  0
  180.2910  174.6880  137.8470 C   0  0  0  0  0  0  0  0  0  0  0  0
  181.1960  177.1340  140.2000 C   0  0  0  0  0  2  0  0  0  0  0  0
  186.3100  178.8450  141.6110 C   0  0  0  0  0  0  0  0  0  0  0  0
  185.6770  178.8150  142.8560 C   0  0  0  0  0  3  0  0  0  0  0  0
  179.9840  178.7550  143.2930 C   0  0  0  0  0  2  0  0  0  0  0  0
  182.0950  178.7270  141.8380 C   0  0  0  0  0  0  0  0  0  0  0  0
  181.4800  178.6870  143.1140 C   0  0  0  0  0  0  0  0  0  0  0  0
  184.1560  178.7990  140.5060 C   0  0  0  0  0  3  0  0  0  0  0  0
  181.0130  173.3750  137.7500 C   0  0  0  0  0  2  0  0  0  0  0  0
  183.3480  173.5990  137.3490 O   0  0  0  0  0  1  0  0  0  0  0  0
  182.1250  173.3800  136.7150 C   0  0  0  0  0  2  0  0  0  0  0  0
  1 22  1  0  0  0  0
  2 11  1  6  0  0  0
  2 19  1  0  0  0  0
  3 19  1  1  0  0  0
  3  6  1  0  0  0  0
  3 23  1  0  0  0  0
  4 10  1  6  0  0  0
  4  7  1  0  0  0  0
  4  2  1  0  0  0  0
  5 23  2  0  0  0  0
  5 13  1  0  0  0  0
  6  8  1  1  0  0  0
  6  1  1  0  0  0  0
  7  2  1  0  0  0  0
  7 15  1  1  0  0  0
  9 10  1  0  0  0  0
  9 18  2  0  0  0  0
 12 20  1  0  0  0  0
 13 17  2  0  0  0  0
 15  6  1  0  0  0  0
 16 25  2  0  0  0  0
 16 20  1  0  0  0  0
 17 14  1  0  0  0  0
 18 11  1  0  0  0  0
 20 21  2  0  0  0  0
 21 13  1  0  0  0  0
 23 24  1  0  0  0  0
 24 22  1  0  0  0  0
 24 14  2  0  0  0  0
 25  5  1  0  0  0  0
 26 18  1  0  0  0  0
 28 27  1  0  0  0  0
 28 26  1  0  0  0  0
M  END
>  <MODEL>
3

>  <REMARK>
 VINA RESULT:      -6.7      2.335      2.977
  Name = 
  2 active torsions:
  status: ('A' for Active; 'I' for Inactive)
    1  A    between atoms: C_5  and  C_16
    2  A    between atoms: C_5  and  C_21
                            x       y       z     vdW  Elec       q    Type
                         _______ _______ _______ _____ _____    ______ ____

>  <TORSDO>
F 2

$$$$
=
 OpenBabel11062416473D

 28 33  0  0  1  0  0  0  0  0999 V2000
  189.8280  177.1180  135.8790 C   0  0  0  0  0  2  0  0  0  0  0  0
  189.0720  177.2190  139.2000 C   0  0  1  0  0  0  0  0  0  0  0  0
  187.7770  176.3750  137.1110 C   0  0  2  0  0  3  0  0  0  0  0  0
  188.0350  178.2180  139.5710 N   0  0  2  0  0  0  0  0  0  0  0  0
  186.7420  174.1390  136.4950 C   0  0  0  0  0  0  0  0  0  0  0  0
  188.4340  177.5390  136.3530 C   0  0  2  0  0  0  0  0  0  0  0  0
  189.1250  178.5730  138.6320 C   0  0  2  0  0  3  0  0  0  0  0  0
  187.5730  177.9330  135.1580 C   0  0  0  0  0  1  0  0  0  0  0  0
  188.6370  177.9460  141.8680 N   0  0  0  0  0  0  0  0  0  0  0  0
  188.3360  178.9070  140.8310 C   0  0  0  0  0  2  0  0  0  0  0  0
  190.1120  176.9030  140.2830 C   0  0  0  0  0  2  0  0  0  0  0  0
  183.8440  171.2170  137.1310 F   0  0  0  0  0  0  0  0  0  0  0  0
  186.7740  172.9270  135.7640 C   0  0  0  0  0  0  0  0  0  0  0  0
  188.7550  173.6680  134.5990 C   0  0  0  0  0  3  0  0  0  0  0  0
  188.5120  178.7740  137.2450 C   0  0  0  0  0  2  0  0  0  0  0  0
  184.7490  173.3590  137.6500 C   0  0  0  0  0  3  0  0  0  0  0  0
  187.7790  172.7000  134.8260 C   0  0  0  0  0  3  0  0  0  0  0  0
  189.4790  177.0000  141.6460 C   0  0  0  0  0  0  0  0  0  0  0  0
  188.5160  176.0340  138.4090 C   0  0  0  0  0  2  0  0  0  0  0  0
  184.7870  172.1660  136.9240 C   0  0  0  0  0  0  0  0  0  0  0  0
  185.7980  171.9500  135.9830 C   0  0  0  0  0  3  0  0  0  0  0  0
  189.7780  175.9070  134.9380 C   0  0  0  0  0  2  0  0  0  0  0  0
  187.7350  175.1190  136.2690 C   0  0  0  0  0  0  0  0  0  0  0  0
  188.7530  174.8690  135.3150 C   0  0  0  0  0  0  0  0  0  0  0  0
  185.7210  174.3400  137.4380 C   0  0  0  0  0  3  0  0  0  0  0  0
  189.7410  175.9930  142.7290 C   0  0  0  0  0  2  0  0  0  0  0  0
  191.7750  175.6060  143.9040 O   0  0  0  0  0  1  0  0  0  0  0  0
  190.7080  176.4960  143.7890 C   0  0  0  0  0  2  0  0  0  0  0  0
  1  6  1  0  0  0  0
  2 19  1  6  0  0  0
  2  4  1  0  0  0  0
  2 11  1  0  0  0  0
  3 19  1  1  0  0  0
  4 10  1  1  0  0  0
  5 25  1  0  0  0  0
  6  8  1  6  0  0  0
  6  3  1  0  0  0  0
  6 15  1  0  0  0  0
  7 15  1  6  0  0  0
  7  2  1  0  0  0  0
  7  4  1  0  0  0  0
 10  9  1  0  0  0  0
 11 18  1  0  0  0  0
 13 21  1  0  0  0  0
 13  5  2  0  0  0  0
 14 17  2  0  0  0  0
 14 24  1  0  0  0  0
 17 13  1  0  0  0  0
 18  9  2  0  0  0  0
 18 26  1  0  0  0  0
 20 12  1  0  0  0  0
 20 16  1  0  0  0  0
 21 20  2  0  0  0  0
 22 24  1  0  0  0  0
 22  1  1  0  0  0  0
 23  5  1  0  0  0  0
 23  3  1  0  0  0  0
 24 23  2  0  0  0  0
 25 16  2  0  0  0  0
 26 28  1  0  0  0  0
 28 27  1  0  0  0  0
M  END
>  <MODEL>
4

>  <REMARK>
 VINA RESULT:      -6.5      6.137      8.968
  Name = 
  2 active torsions:
  status: ('A' for Active; 'I' for Inactive)
    1  A    between atoms: C_5  and  C_16
    2  A    between atoms: C_5  and  C_21
                            x       y       z     vdW  Elec       q    Type
                         _______ _______ _______ _____ _____    ______ ____

>  <TORSDO>
F 2

$$$$
=
 OpenBabel11062416473D

 28 33  0  0  1  0  0  0  0  0999 V2000
  181.3290  178.5620  140.0460 C   0  0  0  0  0  2  0  0  0  0  0  0
  182.1150  176.2190  137.7010 C   0  0  1  0  0  0  0  0  0  0  0  0
  183.4130  178.2390  138.6940 C   0  0  2  0  0  3  0  0  0  0  0  0
  182.1730  176.7320  136.3060 N   0  0  2  0  0  0  0  0  0  0  0  0
  185.6570  178.4560  139.8630 C   0  0  0  0  0  0  0  0  0  0  0  0
  182.0560  178.9570  138.7570 C   0  0  2  0  0  0  0  0  0  0  0  0
  181.0660  177.1220  137.2100 C   0  0  2  0  0  3  0  0  0  0  0  0
  182.2640  180.4660  138.7160 C   0  0  0  0  0  1  0  0  0  0  0  0
  182.1680  174.4770  135.5090 N   0  0  0  0  0  0  0  0  0  0  0  0
  181.5990  175.7940  135.3330 C   0  0  0  0  0  2  0  0  0  0  0  0
  181.7150  174.7450  137.8550 C   0  0  0  0  0  2  0  0  0  0  0  0
  189.8150  178.2670  139.7350 F   0  0  0  0  0  0  0  0  0  0  0  0
  186.4190  178.6280  141.0440 C   0  0  0  0  0  0  0  0  0  0  0  0
  184.3910  178.9290  142.3220 C   0  0  0  0  0  3  0  0  0  0  0  0
  181.2170  178.6110  137.5310 C   0  0  0  0  0  2  0  0  0  0  0  0
  187.7190  178.1570  138.6090 C   0  0  0  0  0  3  0  0  0  0  0  0
  185.7820  178.8600  142.2610 C   0  0  0  0  0  3  0  0  0  0  0  0
  182.2250  173.9500  136.6820 C   0  0  0  0  0  0  0  0  0  0  0  0
  183.2630  176.7180  138.5780 C   0  0  0  0  0  2  0  0  0  0  0  0
  188.4640  178.3290  139.7780 C   0  0  0  0  0  0  0  0  0  0  0  0
  187.8150  178.5640  140.9940 C   0  0  0  0  0  3  0  0  0  0  0  0
  182.1260  178.9440  141.3000 C   0  0  0  0  0  2  0  0  0  0  0  0
  184.2470  178.5200  139.9240 C   0  0  0  0  0  0  0  0  0  0  0  0
  183.6160  178.7510  141.1720 C   0  0  0  0  0  0  0  0  0  0  0  0
  186.3240  178.2200  138.6500 C   0  0  0  0  0  3  0  0  0  0  0  0
  182.8580  172.5980  136.8390 C   0  0  0  0  0  2  0  0  0  0  0  0
  184.8680  173.1890  137.9680 O   0  0  0  0  0  1  0  0  0  0  0  0
  184.3770  172.6410  136.7850 C   0  0  0  0  0  2  0  0  0  0  0  0
  1 22  1  0  0  0  0
  2 11  1  1  0  0  0
  2 19  1  0  0  0  0
  3 19  1  1  0  0  0
  3  6  1  0  0  0  0
  3 23  1  0  0  0  0
  4 10  1  6  0  0  0
  4  7  1  0  0  0  0
  4  2  1  0  0  0  0
  5 23  2  0  0  0  0
  5 13  1  0  0  0  0
  6  8  1  1  0  0  0
  6  1  1  0  0  0  0
  7 15  1  1  0  0  0
  7  2  1  0  0  0  0
  9 18  2  0  0  0  0
 10  9  1  0  0  0  0
 12 20  1  0  0  0  0
 13 17  2  0  0  0  0
 15  6  1  0  0  0  0
 16 25  2  0  0  0  0
 16 20  1  0  0  0  0
 17 14  1  0  0  0  0
 18 26  1  0  0  0  0
 18 11  1  0  0  0  0
 20 21  2  0  0  0  0
 21 13  1  0  0  0  0
 23 24  1  0  0  0  0
 24 22  1  0  0  0  0
 24 14  2  0  0  0  0
 25  5  1  0  0  0  0
 28 26  1  0  0  0  0
 28 27  1  0  0  0  0
M  END
>  <MODEL>
5

>  <REMARK>
 VINA RESULT:      -6.2      2.460      3.277
  Name = 
  2 active torsions:
  status: ('A' for Active; 'I' for Inactive)
    1  A    between atoms: C_5  and  C_16
    2  A    between atoms: C_5  and  C_21
                            x       y       z     vdW  Elec       q    Type
                         _______ _______ _______ _____ _____    ______ ____

>  <TORSDO>
F 2

$$$$
=
 OpenBabel11062416473D

 28 33  0  0  1  0  0  0  0  0999 V2000
  179.8180  179.0550  139.8120 C   0  0  0  0  0  2  0  0  0  0  0  0
  181.5840  177.0000  137.7470 C   0  0  1  0  0  0  0  0  0  0  0  0
  182.2890  178.8140  139.4680 C   0  0  2  0  0  3  0  0  0  0  0  0
  182.2370  177.6840  136.5990 N   0  0  2  0  0  0  0  0  0  0  0  0
  183.7940  178.7780  141.5130 C   0  0  0  0  0  0  0  0  0  0  0  0
  181.0290  179.5790  139.0330 C   0  0  2  0  0  0  0  0  0  0  0  0
  180.8410  178.0040  136.9760 C   0  0  2  0  0  3  0  0  0  0  0  0
  181.2110  181.0700  139.2900 C   0  0  0  0  0  1  0  0  0  0  0  0
  182.6150  175.5530  135.5830 N   0  0  0  0  0  0  0  0  0  0  0  0
  182.1600  176.9060  135.3570 C   0  0  0  0  0  2  0  0  0  0  0  0
  181.1800  175.5370  137.5120 C   0  0  0  0  0  2  0  0  0  0  0  0
  187.5950  178.4190  143.1780 F   0  0  0  0  0  0  0  0  0  0  0  0
  183.9630  178.7620  142.9190 C   0  0  0  0  0  0  0  0  0  0  0  0
  181.5760  178.9870  143.2180 C   0  0  0  0  0  3  0  0  0  0  0  0
  180.8130  179.4310  137.5300 C   0  0  0  0  0  2  0  0  0  0  0  0
  186.2010  178.5490  141.2500 C   0  0  0  0  0  3  0  0  0  0  0  0
  182.8550  178.8640  143.7580 C   0  0  0  0  0  3  0  0  0  0  0  0
  182.1630  174.8780  136.5800 C   0  0  0  0  0  0  0  0  0  0  0  0
  182.2280  177.3290  139.0950 C   0  0  0  0  0  2  0  0  0  0  0  0
  186.3590  178.5350  142.6380 C   0  0  0  0  0  0  0  0  0  0  0  0
  185.2410  178.6410  143.4710 C   0  0  0  0  0  3  0  0  0  0  0  0
  179.9830  179.2370  141.3270 C   0  0  0  0  0  2  0  0  0  0  0  0
  182.4980  178.8970  140.9640 C   0  0  0  0  0  0  0  0  0  0  0  0
  181.3830  178.9940  141.8330 C   0  0  0  0  0  0  0  0  0  0  0  0
  184.9270  178.6690  140.6900 C   0  0  0  0  0  3  0  0  0  0  0  0
  182.6850  173.4890  136.8130 C   0  0  0  0  0  2  0  0  0  0  0  0
  180.7970  172.4040  135.8510 O   0  0  0  0  0  1  0  0  0  0  0  0
  181.5810  172.4610  137.0020 C   0  0  0  0  0  2  0  0  0  0  0  0
  1 22  1  0  0  0  0
  2 11  1  6  0  0  0
  2 19  1  0  0  0  0
  3 19  1  1  0  0  0
  3 23  1  0  0  0  0
  4 10  1  6  0  0  0
  4  7  1  0  0  0  0
  4  2  1  0  0  0  0
  5 13  1  0  0  0  0
  6  8  1  1  0  0  0
  6  3  1  0  0  0  0
  6  1  1  0  0  0  0
  7 15  1  1  0  0  0
  7  2  1  0  0  0  0
  9 18  2  0  0  0  0
 10  9  1  0  0  0  0
 13 21  1  0  0  0  0
 13 17  2  0  0  0  0
 14 17  1  0  0  0  0
 15  6  1  0  0  0  0
 16 20  1  0  0  0  0
 18 26  1  0  0  0  0
 18 11  1  0  0  0  0
 20 12  1  0  0  0  0
 20 21  2  0  0  0  0
 22 24  1  0  0  0  0
 23  5  2  0  0  0  0
 23 24  1  0  0  0  0
 24 14  2  0  0  0  0
 25 16  2  0  0  0  0
 25  5  1  0  0  0  0
 26 28  1  0  0  0  0
 27 28  1  0  0  0  0
M  END
>  <MODEL>
6

>  <REMARK>
 VINA RESULT:      -5.9      1.548      1.780
  Name = 
  2 active torsions:
  status: ('A' for Active; 'I' for Inactive)
    1  A    between atoms: C_5  and  C_16
    2  A    between atoms: C_5  and  C_21
                            x       y       z     vdW  Elec       q    Type
                         _______ _______ _______ _____ _____    ______ ____

>  <TORSDO>
F 2

$$$$
=
 OpenBabel11062416473D

 28 33  0  0  1  0  0  0  0  0999 V2000
  184.9200  175.3380  135.6610 C   0  0  0  0  0  2  0  0  0  0  0  0
  186.9920  177.3720  137.4440 C   0  0  1  0  0  0  0  0  0  0  0  0
  184.4350  177.4130  136.9800 C   0  0  2  0  0  3  0  0  0  0  0  0
  187.2320  178.7060  136.8310 N   0  0  2  0  0  0  0  0  0  0  0  0
  182.3960  177.4330  138.4920 C   0  0  0  0  0  0  0  0  0  0  0  0
  184.7770  176.8610  135.5870 C   0  0  2  0  0  0  0  0  0  0  0  0
  187.2650  177.4760  136.0050 C   0  0  2  0  0  3  0  0  0  0  0  0
  183.6810  177.2360  134.5960 C   0  0  0  0  0  1  0  0  0  0  0  0
  189.0550  179.0380  138.3410 N   0  0  0  0  0  0  0  0  0  0  0  0
  188.6240  179.1490  136.9660 C   0  0  0  0  0  2  0  0  0  0  0  0
  188.1340  176.8180  138.3080 C   0  0  0  0  0  2  0  0  0  0  0  0
  180.0060  179.3900  141.2850 F   0  0  0  0  0  0  0  0  0  0  0  0
  181.2950  176.7690  139.0860 C   0  0  0  0  0  0  0  0  0  0  0  0
  181.7920  174.7810  137.8060 C   0  0  0  0  0  3  0  0  0  0  0  0
  186.0590  177.5030  135.0640 C   0  0  0  0  0  2  0  0  0  0  0  0
  181.8660  179.4160  139.7970 C   0  0  0  0  0  3  0  0  0  0  0  0
  181.0050  175.4500  138.7410 C   0  0  0  0  0  3  0  0  0  0  0  0
  188.8520  177.9490  138.9960 C   0  0  0  0  0  0  0  0  0  0  0  0
  185.5720  177.2010  137.9860 C   0  0  0  0  0  2  0  0  0  0  0  0
  180.7820  178.7530  140.3780 C   0  0  0  0  0  0  0  0  0  0  0  0
  180.4970  177.4310  140.0230 C   0  0  0  0  0  3  0  0  0  0  0  0
  183.6290  174.6590  136.1360 C   0  0  0  0  0  2  0  0  0  0  0  0
  183.1980  176.7540  137.5480 C   0  0  0  0  0  0  0  0  0  0  0  0
  182.8900  175.4120  137.2140 C   0  0  0  0  0  0  0  0  0  0  0  0
  182.6690  178.7610  138.8610 C   0  0  0  0  0  3  0  0  0  0  0  0
  189.2750  177.8780  140.4350 C   0  0  0  0  0  2  0  0  0  0  0  0
  187.1480  178.8150  140.9480 O   0  0  0  0  0  1  0  0  0  0  0  0
  188.1030  177.9070  141.4030 C   0  0  0  0  0  2  0  0  0  0  0  0
  1 22  1  0  0  0  0
  2 19  1  1  0  0  0
  2 11  1  0  0  0  0
  3 23  1  0  0  0  0
  3 19  1  1  0  0  0
  4 10  1  1  0  0  0
  4  2  1  0  0  0  0
  5 25  1  0  0  0  0
  5 13  1  0  0  0  0
  6  8  1  6  0  0  0
  6  1  1  0  0  0  0
  6  3  1  0  0  0  0
  7 15  1  6  0  0  0
  7  4  1  0  0  0  0
  7  2  1  0  0  0  0
  9 18  2  0  0  0  0
 10  9  1  0  0  0  0
 11 18  1  0  0  0  0
 13 21  1  0  0  0  0
 14 17  1  0  0  0  0
 15  6  1  0  0  0  0
 16 20  1  0  0  0  0
 17 13  2  0  0  0  0
 18 26  1  0  0  0  0
 20 12  1  0  0  0  0
 21 20  2  0  0  0  0
 22 24  1  0  0  0  0
 23  5  2  0  0  0  0
 24 23  1  0  0  0  0
 24 14  2  0  0  0  0
 25 16  2  0  0  0  0
 26 28  1  0  0  0  0
 27 28  1  0  0  0  0
M  END
>  <MODEL>
7

>  <REMARK>
 VINA RESULT:      -5.9      3.466      5.700
  Name = 
  2 active torsions:
  status: ('A' for Active; 'I' for Inactive)
    1  A    between atoms: C_5  and  C_16
    2  A    between atoms: C_5  and  C_21
                            x       y       z     vdW  Elec       q    Type
                         _______ _______ _______ _____ _____    ______ ____

>  <TORSDO>
F 2

$$$$
=
 OpenBabel11062416473D

 28 33  0  0  1  0  0  0  0  0999 V2000
  181.7760  179.7780  139.4530 C   0  0  0  0  0  2  0  0  0  0  0  0
  184.5450  178.5870  141.0410 C   0  0  1  0  0  0  0  0  0  0  0  0
  182.7350  177.4660  139.5520 C   0  0  2  0  0  3  0  0  0  0  0  0
  184.2630  177.7240  142.2190 N   0  0  2  0  0  0  0  0  0  0  0  0
  182.8450  176.1110  137.4070 C   0  0  0  0  0  0  0  0  0  0  0  0
  181.7370  178.4400  140.1970 C   0  0  2  0  0  0  0  0  0  0  0  0
  183.5160  178.9860  142.0090 C   0  0  2  0  0  3  0  0  0  0  0  0
  180.3310  177.8540  140.1470 C   0  0  0  0  0  1  0  0  0  0  0  0
  186.5520  177.9250  142.8760 N   0  0  0  0  0  0  0  0  0  0  0  0
  185.1830  177.9700  143.3350 C   0  0  0  0  0  2  0  0  0  0  0  0
  185.8590  179.3780  141.0920 C   0  0  0  0  0  2  0  0  0  0  0  0
  183.9490  172.6350  135.3980 F   0  0  0  0  0  0  0  0  0  0  0  0
  182.6750  176.0080  136.0040 C   0  0  0  0  0  0  0  0  0  0  0  0
  181.7610  178.2440  135.9410 C   0  0  0  0  0  3  0  0  0  0  0  0
  182.0650  178.6310  141.6750 C   0  0  0  0  0  2  0  0  0  0  0  0
  183.7610  173.8590  137.4330 C   0  0  0  0  0  3  0  0  0  0  0  0
  182.1390  177.0740  135.2840 C   0  0  0  0  0  3  0  0  0  0  0  0
  186.9050  178.5870  141.8320 C   0  0  0  0  0  0  0  0  0  0  0  0
  184.1870  177.9290  139.7070 C   0  0  0  0  0  2  0  0  0  0  0  0
  183.5900  173.7650  136.0490 C   0  0  0  0  0  0  0  0  0  0  0  0
  183.0480  174.8380  135.3360 C   0  0  0  0  0  3  0  0  0  0  0  0
  181.4000  179.6270  137.9730 C   0  0  0  0  0  2  0  0  0  0  0  0
  182.4680  177.2990  138.0720 C   0  0  0  0  0  0  0  0  0  0  0  0
  181.9290  178.3740  137.3220 C   0  0  0  0  0  0  0  0  0  0  0  0
  183.3920  175.0250  138.1080 C   0  0  0  0  0  3  0  0  0  0  0  0
  188.3260  178.4880  141.3560 C   0  0  0  0  0  2  0  0  0  0  0  0
  188.7460  179.0040  139.0710 O   0  0  0  0  0  1  0  0  0  0  0  0
  188.4440  177.9550  139.9370 C   0  0  0  0  0  2  0  0  0  0  0  0
  1  6  1  0  0  0  0
  2 19  1  6  0  0  0
  2 11  1  0  0  0  0
  2  7  1  0  0  0  0
  2  4  1  0  0  0  0
  3 19  1  6  0  0  0
  3  6  1  0  0  0  0
  4 10  1  1  0  0  0
  5 23  1  0  0  0  0
  5 25  1  0  0  0  0
  6  8  1  6  0  0  0
  6 15  1  0  0  0  0
  7 15  1  6  0  0  0
  7  4  1  0  0  0  0
  9 10  1  0  0  0  0
 11 18  1  0  0  0  0
 12 20  1  0  0  0  0
 13  5  2  0  0  0  0
 14 24  1  0  0  0  0
 16 25  2  0  0  0  0
 17 14  2  0  0  0  0
 17 13  1  0  0  0  0
 18  9  2  0  0  0  0
 20 16  1  0  0  0  0
 21 13  1  0  0  0  0
 21 20  2  0  0  0  0
 22  1  1  0  0  0  0
 23  3  1  0  0  0  0
 24 22  1  0  0  0  0
 24 23  2  0  0  0  0
 26 18  1  0  0  0  0
 27 28  1  0  0  0  0
 28 26  1  0  0  0  0
M  END
>  <MODEL>
8

>  <REMARK>
 VINA RESULT:      -5.8      3.605      6.522
  Name = 
  2 active torsions:
  status: ('A' for Active; 'I' for Inactive)
    1  A    between atoms: C_5  and  C_16
    2  A    between atoms: C_5  and  C_21
                            x       y       z     vdW  Elec       q    Type
                         _______ _______ _______ _____ _____    ______ ____

>  <TORSDO>
F 2

$$$$
=
 OpenBabel11062416473D

 28 33  0  0  1  0  0  0  0  0999 V2000
  181.7780  177.1220  140.2170 C   0  0  0  0  0  2  0  0  0  0  0  0
  184.1660  177.4900  137.8140 C   0  0  1  0  0  0  0  0  0  0  0  0
  181.6890  178.2580  137.9860 C   0  0  2  0  0  3  0  0  0  0  0  0
  183.9410  176.6810  136.5860 N   0  0  2  0  0  0  0  0  0  0  0  0
  180.5600  180.5270  137.8290 C   0  0  0  0  0  0  0  0  0  0  0  0
  181.4340  176.9420  138.7360 C   0  0  2  0  0  0  0  0  0  0  0  0
  183.7490  176.0860  137.9300 C   0  0  2  0  0  3  0  0  0  0  0  0
  179.9730  176.5330  138.5850 C   0  0  0  0  0  1  0  0  0  0  0  0
  186.1930  177.1260  135.9180 N   0  0  0  0  0  0  0  0  0  0  0  0
  185.1800  176.1030  136.0530 C   0  0  0  0  0  2  0  0  0  0  0  0
  185.6320  177.7870  138.1590 C   0  0  0  0  0  2  0  0  0  0  0  0
  179.4600  183.8530  135.5770 F   0  0  0  0  0  0  0  0  0  0  0  0
  179.9330  181.6360  138.4470 C   0  0  0  0  0  0  0  0  0  0  0  0
  180.0400  180.5190  140.5860 C   0  0  0  0  0  3  0  0  0  0  0  0
  182.2550  175.8130  138.1200 C   0  0  0  0  0  2  0  0  0  0  0  0
  180.4360  181.6820  135.6930 C   0  0  0  0  0  3  0  0  0  0  0  0
  179.6810  181.6250  139.8180 C   0  0  0  0  0  3  0  0  0  0  0  0
  186.4380  177.9250  136.8950 C   0  0  0  0  0  0  0  0  0  0  0  0
  183.1730  178.6420  137.9710 C   0  0  0  0  0  2  0  0  0  0  0  0
  179.8180  182.7720  136.3100 C   0  0  0  0  0  0  0  0  0  0  0  0
  179.5670  182.7500  137.6850 C   0  0  0  0  0  3  0  0  0  0  0  0
  180.9310  178.2180  140.8790 C   0  0  0  0  0  2  0  0  0  0  0  0
  180.9290  179.4080  138.6080 C   0  0  0  0  0  0  0  0  0  0  0  0
  180.6700  179.4160  140.0020 C   0  0  0  0  0  0  0  0  0  0  0  0
  180.8060  180.5660  136.4470 C   0  0  0  0  0  3  0  0  0  0  0  0
  187.4680  179.0030  136.7110 C   0  0  0  0  0  2  0  0  0  0  0  0
  188.8610  179.0030  138.6400 O   0  0  0  0  0  1  0  0  0  0  0  0
  188.8230  178.6390  137.2950 C   0  0  0  0  0  2  0  0  0  0  0  0
  1 22  1  0  0  0  0
  2  7  1  0  0  0  0
  2 19  1  1  0  0  0
  2 11  1  0  0  0  0
  3 19  1  1  0  0  0
  3 23  1  0  0  0  0
  3  6  1  0  0  0  0
  4 10  1  1  0  0  0
  4  2  1  0  0  0  0
  4  7  1  0  0  0  0
  5 13  1  0  0  0  0
  5 23  1  0  0  0  0
  6  8  1  6  0  0  0
  6  1  1  0  0  0  0
  7 15  1  6  0  0  0
  9 10  1  0  0  0  0
  9 18  2  0  0  0  0
 12 20  1  0  0  0  0
 13 17  1  0  0  0  0
 15  6  1  0  0  0  0
 16 20  2  0  0  0  0
 16 25  1  0  0  0  0
 17 14  2  0  0  0  0
 18 11  1  0  0  0  0
 20 21  1  0  0  0  0
 21 13  2  0  0  0  0
 23 24  2  0  0  0  0
 24 14  1  0  0  0  0
 24 22  1  0  0  0  0
 25  5  2  0  0  0  0
 26 18  1  0  0  0  0
 26 28  1  0  0  0  0
 28 27  1  0  0  0  0
M  END
>  <MODEL>
9

>  <REMARK>
 VINA RESULT:      -5.6      3.857      5.615
  Name = 
  2 active torsions:
  status: ('A' for Active; 'I' for Inactive)
    1  A    between atoms: C_5  and  C_16
    2  A    between atoms: C_5  and  C_21
                            x       y       z     vdW  Elec       q    Type
                         _______ _______ _______ _____ _____    ______ ____

>  <TORSDO>
F 2

$$$$
