=
 OpenBabel11062413543D

 25 28  0  0  1  0  0  0  0  0999 V2000
  188.4520  177.8710  142.6310 C   0  0  2  0  0  3  0  0  0  0  0  0
  189.9210  177.4500  142.5100 C   0  0  2  0  0  3  0  0  0  0  0  0
  187.8970  177.6910  144.0530 C   0  0  2  0  0  0  0  0  0  0  0  0
  188.7190  176.9740  145.1580 C   0  0  2  0  0  3  0  0  0  0  0  0
  191.8570  178.8180  142.7950 O   0  0  0  0  0  0  0  0  0  0  0  0
  187.9240  176.8000  146.4490 C   0  0  0  0  0  1  0  0  0  0  0  0
  190.4640  178.7730  144.6880 C   0  0  0  0  0  2  0  0  0  0  0  0
  190.8220  178.3910  143.2820 C   0  0  0  0  0  0  0  0  0  0  0  0
  190.0380  177.5840  145.4260 N   0  0  0  0  0  0  0  0  0  0  0  0
  187.5560  176.6930  142.9620 C   0  0  0  0  0  2  0  0  0  0  0  0
  186.6750  178.5440  144.4230 C   0  0  2  0  0  3  0  0  0  0  0  0
  185.6040  177.7230  145.1400 C   0  0  1  0  0  3  0  0  0  0  0  0
  184.8360  178.6430  146.0930 C   0  0  0  0  0  2  0  0  0  0  0  0
  183.9550  179.9690  144.5520 C   0  0  0  0  0  2  0  0  0  0  0  0
  183.6130  179.0350  145.5340 O   0  0  0  0  0  0  0  0  0  0  0  0
  184.5010  179.2430  143.3240 C   0  0  0  0  0  2  0  0  0  0  0  0
  185.4510  178.0730  143.6540 C   0  0  1  0  0  3  0  0  0  0  0  0
  191.8690  176.0200  145.6740 C   0  0  0  0  0  2  0  0  0  0  0  0
  191.1550  177.1560  147.6840 C   0  0  0  0  0  1  0  0  0  0  0  0
  191.0240  176.8880  146.2220 C   0  0  0  0  0  0  0  0  0  0  0  0
  190.3550  177.2360  141.0500 C   0  0  1  0  0  3  0  0  0  0  0  0
  190.7490  175.9100  140.8490 O   0  0  0  0  0  1  0  0  0  0  0  0
  189.0860  178.9970  139.7300 N   0  0  0  0  0  1  0  0  0  0  0  0
  189.3120  177.6270  140.0470 C   0  0  0  0  0  0  0  0  0  0  0  0
  188.6340  176.7360  139.4710 O   0  0  0  0  0  0  0  0  0  0  0  0
  1 10  1  6  0  0  0
  1  3  1  0  0  0  0
  2 21  1  6  0  0  0
  2  1  1  0  0  0  0
  2  8  1  0  0  0  0
  3 10  1  6  0  0  0
  3  4  1  0  0  0  0
  4  9  1  0  0  0  0
  4  6  1  1  0  0  0
  5  8  2  0  0  0  0
  7  9  1  0  0  0  0
  8  7  1  0  0  0  0
  9 20  1  0  0  0  0
 11  3  1  6  0  0  0
 11 12  1  0  0  0  0
 12 13  1  1  0  0  0
 14 15  1  0  0  0  0
 15 13  1  0  0  0  0
 16 14  1  0  0  0  0
 17 16  1  1  0  0  0
 17 11  1  0  0  0  0
 17 12  1  0  0  0  0
 18 20  2  0  0  0  0
 20 19  1  0  0  0  0
 21 22  1  1  0  0  0
 23 24  1  0  0  0  0
 24 21  1  0  0  0  0
 25 24  2  0  0  0  0
M  END
>  <MODEL>
1

>  <REMARK>
 VINA RESULT:      -6.8      0.000      0.000
  Name = 
  4 active torsions:
  status: ('A' for Active; 'I' for Inactive)
    1  A    between atoms: C_1  and  C_5
    2  A    between atoms: C_3  and  C_22
    3  A    between atoms: N_15  and  C_20
    4  A    between atoms: C_19  and  C_22
                            x       y       z     vdW  Elec       q    Type
                         _______ _______ _______ _____ _____    ______ ____

>  <TORSDO>
F 4

$$$$
=
 OpenBabel11062413543D

 25 28  0  0  1  0  0  0  0  0999 V2000
  188.5400  177.4270  143.4610 C   0  0  2  0  0  3  0  0  0  0  0  0
  189.9900  177.0190  143.7500 C   0  0  2  0  0  3  0  0  0  0  0  0
  187.7150  177.6370  144.7410 C   0  0  2  0  0  0  0  0  0  0  0  0
  188.2830  177.2730  146.1390 C   0  0  2  0  0  3  0  0  0  0  0  0
  191.8800  178.4530  144.0180 O   0  0  0  0  0  0  0  0  0  0  0  0
  187.2480  177.4480  147.2470 C   0  0  0  0  0  1  0  0  0  0  0  0
  190.1480  178.9060  145.5400 C   0  0  0  0  0  2  0  0  0  0  0  0
  190.7560  178.1560  144.3920 C   0  0  0  0  0  0  0  0  0  0  0  0
  189.5460  177.9600  146.4800 N   0  0  0  0  0  0  0  0  0  0  0  0
  187.5570  176.3690  143.9230 C   0  0  0  0  0  2  0  0  0  0  0  0
  186.4750  178.5350  144.6150 C   0  0  2  0  0  3  0  0  0  0  0  0
  185.2060  177.8180  145.0750 C   0  0  1  0  0  3  0  0  0  0  0  0
  184.2280  178.8590  145.6280 C   0  0  0  0  0  2  0  0  0  0  0  0
  183.9020  179.9690  143.7380 C   0  0  0  0  0  2  0  0  0  0  0  0
  183.2440  179.1750  144.6820 O   0  0  0  0  0  0  0  0  0  0  0  0
  184.7580  179.0840  142.8340 C   0  0  0  0  0  2  0  0  0  0  0  0
  185.5170  177.9670  143.5800 C   0  0  1  0  0  3  0  0  0  0  0  0
  190.2280  178.1310  148.7960 C   0  0  0  0  0  2  0  0  0  0  0  0
  191.2690  176.3740  147.5020 C   0  0  0  0  0  1  0  0  0  0  0  0
  190.3350  177.5330  147.6130 C   0  0  0  0  0  0  0  0  0  0  0  0
  190.6900  176.4170  142.5190 C   0  0  1  0  0  3  0  0  0  0  0  0
  190.3470  175.0710  142.3760 O   0  0  0  0  0  1  0  0  0  0  0  0
  189.1330  177.1100  140.6350 N   0  0  0  0  0  1  0  0  0  0  0  0
  190.4180  177.1620  141.2470 C   0  0  0  0  0  0  0  0  0  0  0  0
  191.3310  177.8490  140.7180 O   0  0  0  0  0  0  0  0  0  0  0  0
  1  2  1  0  0  0  0
  1 10  1  6  0  0  0
  1  3  1  0  0  0  0
  2 21  1  6  0  0  0
  2  8  1  0  0  0  0
  3 10  1  6  0  0  0
  3  4  1  0  0  0  0
  4  9  1  0  0  0  0
  4  6  1  1  0  0  0
  5  8  2  0  0  0  0
  7  9  1  0  0  0  0
  8  7  1  0  0  0  0
  9 20  1  0  0  0  0
 11  3  1  1  0  0  0
 11 12  1  0  0  0  0
 12 13  1  6  0  0  0
 14 15  1  0  0  0  0
 15 13  1  0  0  0  0
 16 14  1  0  0  0  0
 17 16  1  6  0  0  0
 17 11  1  0  0  0  0
 17 12  1  0  0  0  0
 19 20  1  0  0  0  0
 20 18  2  0  0  0  0
 21 22  1  6  0  0  0
 23 24  1  0  0  0  0
 24 21  1  0  0  0  0
 25 24  2  0  0  0  0
M  END
>  <MODEL>
2

>  <REMARK>
 VINA RESULT:      -6.3      1.274      1.534
  Name = 
  4 active torsions:
  status: ('A' for Active; 'I' for Inactive)
    1  A    between atoms: C_1  and  C_5
    2  A    between atoms: C_3  and  C_22
    3  A    between atoms: N_15  and  C_20
    4  A    between atoms: C_19  and  C_22
                            x       y       z     vdW  Elec       q    Type
                         _______ _______ _______ _____ _____    ______ ____

>  <TORSDO>
F 4

$$$$
=
 OpenBabel11062413543D

 25 28  0  0  1  0  0  0  0  0999 V2000
  187.5480  177.7310  140.6650 C   0  0  2  0  0  3  0  0  0  0  0  0
  187.2970  178.1890  142.1060 C   0  0  2  0  0  3  0  0  0  0  0  0
  189.0300  177.4380  140.3840 C   0  0  2  0  0  0  0  0  0  0  0  0
  190.1330  177.7730  141.4230 C   0  0  2  0  0  3  0  0  0  0  0  0
  186.7700  176.8290  143.9960 O   0  0  0  0  0  0  0  0  0  0  0  0
  191.5360  177.5120  140.8820 C   0  0  0  0  0  1  0  0  0  0  0  0
  188.8010  176.2450  142.9690 C   0  0  0  0  0  2  0  0  0  0  0  0
  187.5490  177.0630  143.0860 C   0  0  0  0  0  0  0  0  0  0  0  0
  189.9450  177.1280  142.7390 N   0  0  0  0  0  0  0  0  0  0  0  0
  188.3960  178.7280  139.8990 C   0  0  0  0  0  2  0  0  0  0  0  0
  189.3290  176.4940  139.2090 C   0  0  2  0  0  3  0  0  0  0  0  0
  189.9540  177.2360  138.0280 C   0  0  1  0  0  3  0  0  0  0  0  0
  190.8670  176.2690  137.2680 C   0  0  0  0  0  2  0  0  0  0  0  0
  189.2930  174.8570  136.6080 C   0  0  0  0  0  2  0  0  0  0  0  0
  190.2310  175.7730  136.1240 O   0  0  0  0  0  0  0  0  0  0  0  0
  188.0930  175.6090  137.1820 C   0  0  0  0  0  2  0  0  0  0  0  0
  188.4670  176.8550  138.0100 C   0  0  1  0  0  3  0  0  0  0  0  0
  191.3050  176.6580  144.6850 C   0  0  0  0  0  2  0  0  0  0  0  0
  190.9350  178.9920  144.1780 C   0  0  0  0  0  1  0  0  0  0  0  0
  190.7230  177.5450  143.8830 C   0  0  0  0  0  0  0  0  0  0  0  0
  185.9270  178.8670  142.2800 C   0  0  1  0  0  3  0  0  0  0  0  0
  186.0860  180.2400  142.4780 O   0  0  0  0  0  1  0  0  0  0  0  0
  184.9370  179.4830  140.0230 N   0  0  0  0  0  1  0  0  0  0  0  0
  184.9790  178.6090  141.1480 C   0  0  0  0  0  0  0  0  0  0  0  0
  184.2200  177.6060  141.1850 O   0  0  0  0  0  0  0  0  0  0  0  0
  1 10  1  6  0  0  0
  1  2  1  0  0  0  0
  2 21  1  6  0  0  0
  2  8  1  0  0  0  0
  3 10  1  6  0  0  0
  3  1  1  0  0  0  0
  3  4  1  0  0  0  0
  4  6  1  6  0  0  0
  4  9  1  0  0  0  0
  7  8  1  0  0  0  0
  8  5  2  0  0  0  0
  9  7  1  0  0  0  0
  9 20  1  0  0  0  0
 11  3  1  1  0  0  0
 12 13  1  6  0  0  0
 12 11  1  0  0  0  0
 14 16  1  0  0  0  0
 15 14  1  0  0  0  0
 15 13  1  0  0  0  0
 17 16  1  6  0  0  0
 17 12  1  0  0  0  0
 17 11  1  0  0  0  0
 20 19  1  0  0  0  0
 20 18  2  0  0  0  0
 21 22  1  6  0  0  0
 23 24  1  0  0  0  0
 24 25  2  0  0  0  0
 24 21  1  0  0  0  0
M  END
>  <MODEL>
3

>  <REMARK>
 VINA RESULT:      -6.1      2.747      6.043
  Name = 
  4 active torsions:
  status: ('A' for Active; 'I' for Inactive)
    1  A    between atoms: C_1  and  C_5
    2  A    between atoms: C_3  and  C_22
    3  A    between atoms: N_15  and  C_20
    4  A    between atoms: C_19  and  C_22
                            x       y       z     vdW  Elec       q    Type
                         _______ _______ _______ _____ _____    ______ ____

>  <TORSDO>
F 4

$$$$
=
 OpenBabel11062413543D

 25 28  0  0  1  0  0  0  0  0999 V2000
  186.1350  177.9170  143.9130 C   0  0  2  0  0  3  0  0  0  0  0  0
  185.6340  177.9290  142.4640 C   0  0  2  0  0  3  0  0  0  0  0  0
  187.6030  177.4770  144.0310 C   0  0  2  0  0  0  0  0  0  0  0  0
  188.3850  176.9290  142.8070 C   0  0  2  0  0  3  0  0  0  0  0  0
  185.6810  179.7520  140.9230 O   0  0  0  0  0  0  0  0  0  0  0  0
  189.7800  176.4400  143.1840 C   0  0  0  0  0  1  0  0  0  0  0  0
  187.8060  179.1720  141.7410 C   0  0  0  0  0  2  0  0  0  0  0  0
  186.3160  179.0180  141.6630 C   0  0  0  0  0  0  0  0  0  0  0  0
  188.4410  177.8560  141.6580 N   0  0  0  0  0  0  0  0  0  0  0  0
  186.4810  176.5140  144.3750 C   0  0  0  0  0  2  0  0  0  0  0  0
  188.3520  177.9260  145.2950 C   0  0  2  0  0  3  0  0  0  0  0  0
  189.0270  176.7520  146.0040 C   0  0  1  0  0  3  0  0  0  0  0  0
  190.2760  177.2670  146.7240 C   0  0  0  0  0  2  0  0  0  0  0  0
  189.2440  178.6050  148.1570 C   0  0  0  0  0  2  0  0  0  0  0  0
  190.0290  177.4490  148.0900 O   0  0  0  0  0  0  0  0  0  0  0  0
  187.8100  178.2720  147.7460 C   0  0  0  0  0  2  0  0  0  0  0  0
  187.7050  177.3260  146.5320 C   0  0  1  0  0  3  0  0  0  0  0  0
  188.1200  177.5050  139.2840 C   0  0  0  0  0  2  0  0  0  0  0  0
  190.2590  176.8300  140.1860 C   0  0  0  0  0  1  0  0  0  0  0  0
  188.8910  177.3990  140.3630 C   0  0  0  0  0  0  0  0  0  0  0  0
  184.0990  177.9610  142.3710 C   0  0  1  0  0  3  0  0  0  0  0  0
  183.5900  179.0390  143.1010 O   0  0  0  0  0  1  0  0  0  0  0  0
  182.6650  179.0050  140.5510 N   0  0  0  0  0  1  0  0  0  0  0  0
  183.5810  177.9940  140.9640 C   0  0  0  0  0  0  0  0  0  0  0  0
  183.9660  177.1290  140.1370 O   0  0  0  0  0  0  0  0  0  0  0  0
  1  3  1  0  0  0  0
  1 10  1  1  0  0  0
  2 21  1  1  0  0  0
  2  1  1  0  0  0  0
  3 10  1  1  0  0  0
  4  6  1  1  0  0  0
  4  3  1  0  0  0  0
  5  8  2  0  0  0  0
  8  7  1  0  0  0  0
  8  2  1  0  0  0  0
  9  7  1  0  0  0  0
  9  4  1  0  0  0  0
 11  3  1  6  0  0  0
 11 12  1  0  0  0  0
 11 17  1  0  0  0  0
 12 17  1  0  0  0  0
 12 13  1  1  0  0  0
 13 15  1  0  0  0  0
 15 14  1  0  0  0  0
 16 14  1  0  0  0  0
 17 16  1  1  0  0  0
 18 20  2  0  0  0  0
 19 20  1  0  0  0  0
 20  9  1  0  0  0  0
 21 22  1  1  0  0  0
 23 24  1  0  0  0  0
 24 21  1  0  0  0  0
 25 24  2  0  0  0  0
M  END
>  <MODEL>
4

>  <REMARK>
 VINA RESULT:      -5.6      2.620      5.269
  Name = 
  4 active torsions:
  status: ('A' for Active; 'I' for Inactive)
    1  A    between atoms: C_1  and  C_5
    2  A    between atoms: C_3  and  C_22
    3  A    between atoms: N_15  and  C_20
    4  A    between atoms: C_19  and  C_22
                            x       y       z     vdW  Elec       q    Type
                         _______ _______ _______ _____ _____    ______ ____

>  <TORSDO>
F 4

$$$$
=
 OpenBabel11062413543D

 25 28  0  0  1  0  0  0  0  0999 V2000
  187.0690  178.1490  141.8990 C   0  0  2  0  0  3  0  0  0  0  0  0
  186.7140  178.3700  143.3740 C   0  0  2  0  0  3  0  0  0  0  0  0
  188.5680  177.8920  141.6800 C   0  0  2  0  0  0  0  0  0  0  0  0
  189.5930  178.0430  142.8360 C   0  0  2  0  0  3  0  0  0  0  0  0
  186.0550  176.7250  144.9760 O   0  0  0  0  0  0  0  0  0  0  0  0
  191.0310  177.8610  142.3600 C   0  0  0  0  0  1  0  0  0  0  0  0
  188.1570  176.2970  144.0150 C   0  0  0  0  0  2  0  0  0  0  0  0
  186.8980  177.0970  144.1740 C   0  0  0  0  0  0  0  0  0  0  0  0
  189.3120  177.1950  144.0130 N   0  0  0  0  0  0  0  0  0  0  0  0
  187.9670  179.2490  141.3680 C   0  0  0  0  0  2  0  0  0  0  0  0
  188.9530  177.1480  140.3920 C   0  0  2  0  0  3  0  0  0  0  0  0
  189.8060  178.0160  139.4680 C   0  0  1  0  0  3  0  0  0  0  0  0
  190.7330  177.1060  138.6570 C   0  0  0  0  0  2  0  0  0  0  0  0
  189.1560  176.0230  137.5390 C   0  0  0  0  0  2  0  0  0  0  0  0
  190.2310  176.9000  137.3660 O   0  0  0  0  0  0  0  0  0  0  0  0
  187.9550  176.7900  138.0900 C   0  0  0  0  0  2  0  0  0  0  0  0
  188.3110  177.8150  139.1860 C   0  0  1  0  0  3  0  0  0  0  0  0
  189.3720  177.8850  146.3320 C   0  0  0  0  0  2  0  0  0  0  0  0
  191.4520  177.0750  145.4030 C   0  0  0  0  0  1  0  0  0  0  0  0
  190.0050  177.4140  145.2620 C   0  0  0  0  0  0  0  0  0  0  0  0
  185.3330  179.0220  143.5580 C   0  0  1  0  0  3  0  0  0  0  0  0
  184.3460  178.2540  142.9370 O   0  0  0  0  0  1  0  0  0  0  0  0
  183.6570  179.0030  145.4680 N   0  0  0  0  0  1  0  0  0  0  0  0
  184.9720  179.2750  144.9910 C   0  0  0  0  0  0  0  0  0  0  0  0
  185.8400  179.7220  145.7850 O   0  0  0  0  0  0  0  0  0  0  0  0
  1 10  1  6  0  0  0
  1  2  1  0  0  0  0
  2 21  1  6  0  0  0
  2  8  1  0  0  0  0
  3 10  1  6  0  0  0
  3  1  1  0  0  0  0
  3  4  1  0  0  0  0
  4  6  1  6  0  0  0
  4  9  1  0  0  0  0
  7  8  1  0  0  0  0
  8  5  2  0  0  0  0
  9  7  1  0  0  0  0
  9 20  1  0  0  0  0
 11  3  1  1  0  0  0
 12 13  1  6  0  0  0
 12 11  1  0  0  0  0
 14 16  1  0  0  0  0
 15 14  1  0  0  0  0
 15 13  1  0  0  0  0
 17 16  1  6  0  0  0
 17 12  1  0  0  0  0
 17 11  1  0  0  0  0
 20 19  1  0  0  0  0
 20 18  2  0  0  0  0
 21 22  1  1  0  0  0
 21 24  1  0  0  0  0
 24 23  1  0  0  0  0
 24 25  2  0  0  0  0
M  END
>  <MODEL>
5

>  <REMARK>
 VINA RESULT:      -5.6      2.198      5.845
  Name = 
  4 active torsions:
  status: ('A' for Active; 'I' for Inactive)
    1  A    between atoms: C_1  and  C_5
    2  A    between atoms: C_3  and  C_22
    3  A    between atoms: N_15  and  C_20
    4  A    between atoms: C_19  and  C_22
                            x       y       z     vdW  Elec       q    Type
                         _______ _______ _______ _____ _____    ______ ____

>  <TORSDO>
F 4

$$$$
=
 OpenBabel11062413543D

 25 28  0  0  1  0  0  0  0  0999 V2000
  191.9010  176.0380  138.7680 C   0  0  2  0  0  3  0  0  0  0  0  0
  192.1200  175.8310  137.2640 C   0  0  2  0  0  3  0  0  0  0  0  0
  190.5800  176.7580  139.0820 C   0  0  2  0  0  0  0  0  0  0  0  0
  189.6970  177.3600  137.9560 C   0  0  2  0  0  3  0  0  0  0  0  0
  191.4730  173.9490  135.9440 O   0  0  0  0  0  0  0  0  0  0  0  0
  188.5020  178.1320  138.5070 C   0  0  0  0  0  1  0  0  0  0  0  0
  189.6680  174.9800  137.0400 C   0  0  0  0  0  2  0  0  0  0  0  0
  191.1220  174.8410  136.7010 C   0  0  0  0  0  0  0  0  0  0  0  0
  189.2710  176.3840  136.9310 N   0  0  0  0  0  0  0  0  0  0  0  0
  191.8970  177.5090  139.1360 C   0  0  0  0  0  2  0  0  0  0  0  0
  190.0050  176.5480  140.4920 C   0  0  2  0  0  3  0  0  0  0  0  0
  189.6500  177.8730  141.1640 C   0  0  1  0  0  3  0  0  0  0  0  0
  188.4830  177.6370  142.1270 C   0  0  0  0  0  2  0  0  0  0  0  0
  189.5390  176.2710  143.5170 C   0  0  0  0  0  2  0  0  0  0  0  0
  188.9370  177.5310  143.4480 O   0  0  0  0  0  0  0  0  0  0  0  0
  190.9110  176.3240  142.8470 C   0  0  0  0  0  2  0  0  0  0  0  0
  190.9420  177.1340  141.5350 C   0  0  1  0  0  3  0  0  0  0  0  0
  189.3890  177.5020  134.7880 C   0  0  0  0  0  2  0  0  0  0  0  0
  187.2610  176.5080  135.3590 C   0  0  0  0  0  1  0  0  0  0  0  0
  188.6800  176.8290  135.6890 C   0  0  0  0  0  0  0  0  0  0  0  0
  193.5820  175.4990  136.9220 C   0  0  1  0  0  3  0  0  0  0  0  0
  194.3060  176.6720  136.6940 O   0  0  0  0  0  1  0  0  0  0  0  0
  195.1170  175.2530  138.9320 N   0  0  0  0  0  1  0  0  0  0  0  0
  194.2680  174.6570  137.9550 C   0  0  0  0  0  0  0  0  0  0  0  0
  194.0840  173.4120  137.9670 O   0  0  0  0  0  0  0  0  0  0  0  0
  1  3  1  0  0  0  0
  1 10  1  6  0  0  0
  2 21  1  1  0  0  0
  2  1  1  0  0  0  0
  3 10  1  1  0  0  0
  4  6  1  1  0  0  0
  4  3  1  0  0  0  0
  5  8  2  0  0  0  0
  8  7  1  0  0  0  0
  8  2  1  0  0  0  0
  9  7  1  0  0  0  0
  9  4  1  0  0  0  0
 11  3  1  6  0  0  0
 11 12  1  0  0  0  0
 11 17  1  0  0  0  0
 12 17  1  0  0  0  0
 12 13  1  1  0  0  0
 13 15  1  0  0  0  0
 15 14  1  0  0  0  0
 16 14  1  0  0  0  0
 17 16  1  1  0  0  0
 18 20  2  0  0  0  0
 19 20  1  0  0  0  0
 20  9  1  0  0  0  0
 21 22  1  1  0  0  0
 21 24  1  0  0  0  0
 24 25  2  0  0  0  0
 24 23  1  0  0  0  0
M  END
>  <MODEL>
6

>  <REMARK>
 VINA RESULT:      -5.5      3.945      7.449
  Name = 
  4 active torsions:
  status: ('A' for Active; 'I' for Inactive)
    1  A    between atoms: C_1  and  C_5
    2  A    between atoms: C_3  and  C_22
    3  A    between atoms: N_15  and  C_20
    4  A    between atoms: C_19  and  C_22
                            x       y       z     vdW  Elec       q    Type
                         _______ _______ _______ _____ _____    ______ ____

>  <TORSDO>
F 4

$$$$
=
 OpenBabel11062413543D

 25 28  0  0  1  0  0  0  0  0999 V2000
  186.8060  177.6370  143.8180 C   0  0  2  0  0  3  0  0  0  0  0  0
  186.4490  178.1060  142.4030 C   0  0  2  0  0  3  0  0  0  0  0  0
  188.1020  176.8120  143.8620 C   0  0  2  0  0  0  0  0  0  0  0  0
  188.8240  176.3690  142.5620 C   0  0  2  0  0  3  0  0  0  0  0  0
  187.0800  180.1510  141.3440 O   0  0  0  0  0  0  0  0  0  0  0  0
  190.0160  175.4580  142.8430 C   0  0  0  0  0  1  0  0  0  0  0  0
  188.9160  178.8650  142.0490 C   0  0  0  0  0  2  0  0  0  0  0  0
  187.4470  179.1290  141.9010 C   0  0  0  0  0  0  0  0  0  0  0  0
  189.2070  177.4820  141.6690 N   0  0  0  0  0  0  0  0  0  0  0  0
  186.7510  176.1270  143.9390 C   0  0  0  0  0  2  0  0  0  0  0  0
  188.8300  176.7540  145.2140 C   0  0  2  0  0  3  0  0  0  0  0  0
  188.5280  177.9800  146.0750 C   0  0  1  0  0  3  0  0  0  0  0  0
  188.6110  177.5750  147.5500 C   0  0  0  0  0  2  0  0  0  0  0  0
  190.7670  177.0650  147.5800 C   0  0  0  0  0  2  0  0  0  0  0  0
  189.8350  177.9630  148.1080 O   0  0  0  0  0  0  0  0  0  0  0  0
  191.0850  177.4500  146.1360 C   0  0  0  0  0  2  0  0  0  0  0  0
  189.8530  177.8740  145.3100 C   0  0  1  0  0  3  0  0  0  0  0  0
  188.7620  177.1090  139.3190 C   0  0  0  0  0  2  0  0  0  0  0  0
  191.0880  177.1280  139.9770 C   0  0  0  0  0  1  0  0  0  0  0  0
  189.6370  177.2260  140.3130 C   0  0  0  0  0  0  0  0  0  0  0  0
  184.9840  178.5600  142.2840 C   0  0  1  0  0  3  0  0  0  0  0  0
  184.1820  177.5030  141.8480 O   0  0  0  0  0  1  0  0  0  0  0  0
  183.3480  178.5180  144.2270 N   0  0  0  0  0  1  0  0  0  0  0  0
  184.4300  179.1470  143.5470 C   0  0  0  0  0  0  0  0  0  0  0  0
  184.9310  180.2010  144.0180 O   0  0  0  0  0  0  0  0  0  0  0  0
  1  3  1  0  0  0  0
  1 10  1  6  0  0  0
  2 21  1  1  0  0  0
  2  1  1  0  0  0  0
  3 10  1  1  0  0  0
  4  6  1  1  0  0  0
  4  3  1  0  0  0  0
  5  8  2  0  0  0  0
  8  7  1  0  0  0  0
  8  2  1  0  0  0  0
  9  7  1  0  0  0  0
  9  4  1  0  0  0  0
 11  3  1  6  0  0  0
 11 17  1  0  0  0  0
 11 12  1  0  0  0  0
 12 13  1  1  0  0  0
 13 15  1  0  0  0  0
 14 15  1  0  0  0  0
 16 14  1  0  0  0  0
 17 12  1  0  0  0  0
 17 16  1  1  0  0  0
 18 20  2  0  0  0  0
 19 20  1  0  0  0  0
 20  9  1  0  0  0  0
 21 22  1  1  0  0  0
 21 24  1  0  0  0  0
 24 25  2  0  0  0  0
 24 23  1  0  0  0  0
M  END
>  <MODEL>
7

>  <REMARK>
 VINA RESULT:      -5.3      2.481      5.283
  Name = 
  4 active torsions:
  status: ('A' for Active; 'I' for Inactive)
    1  A    between atoms: C_1  and  C_5
    2  A    between atoms: C_3  and  C_22
    3  A    between atoms: N_15  and  C_20
    4  A    between atoms: C_19  and  C_22
                            x       y       z     vdW  Elec       q    Type
                         _______ _______ _______ _____ _____    ______ ____

>  <TORSDO>
F 4

$$$$
=
 OpenBabel11062413543D

 25 28  0  0  1  0  0  0  0  0999 V2000
  184.6530  177.6540  139.7220 C   0  0  2  0  0  3  0  0  0  0  0  0
  183.9340  177.2580  138.4270 C   0  0  2  0  0  3  0  0  0  0  0  0
  183.6890  178.1540  140.8100 C   0  0  2  0  0  0  0  0  0  0  0  0
  182.1850  178.3950  140.5100 C   0  0  2  0  0  3  0  0  0  0  0  0
  183.0920  175.1050  137.8290 O   0  0  0  0  0  0  0  0  0  0  0  0
  181.4500  179.0060  141.6990 C   0  0  0  0  0  1  0  0  0  0  0  0
  182.1760  175.9380  139.8270 C   0  0  0  0  0  2  0  0  0  0  0  0
  183.0830  176.0230  138.6350 C   0  0  0  0  0  0  0  0  0  0  0  0
  181.4700  177.2080  139.9970 N   0  0  0  0  0  0  0  0  0  0  0  0
  184.5200  179.1370  140.0070 C   0  0  0  0  0  2  0  0  0  0  0  0
  184.1880  178.0630  142.2600 C   0  0  2  0  0  3  0  0  0  0  0  0
  184.4020  179.4460  142.8750 C   0  0  1  0  0  3  0  0  0  0  0  0
  184.1620  179.3530  144.3840 C   0  0  0  0  0  2  0  0  0  0  0  0
  185.8380  177.9810  144.8520 C   0  0  0  0  0  2  0  0  0  0  0  0
  185.3740  179.2800  145.0810 O   0  0  0  0  0  0  0  0  0  0  0  0
  186.4220  177.8890  143.4430 C   0  0  0  0  0  2  0  0  0  0  0  0
  185.5960  178.6260  142.3680 C   0  0  1  0  0  3  0  0  0  0  0  0
  179.9300  178.0940  138.3530 C   0  0  0  0  0  2  0  0  0  0  0  0
  178.9940  176.5780  139.9860 C   0  0  0  0  0  1  0  0  0  0  0  0
  180.1500  177.3340  139.4220 C   0  0  0  0  0  0  0  0  0  0  0  0
  184.8900  177.1570  137.2270 C   0  0  1  0  0  3  0  0  0  0  0  0
  184.3240  177.7610  136.1020 O   0  0  0  0  0  1  0  0  0  0  0  0
  187.3280  176.8780  137.8890 N   0  0  0  0  0  1  0  0  0  0  0  0
  186.2520  177.7250  137.4930 C   0  0  0  0  0  0  0  0  0  0  0  0
  186.4520  178.9590  137.3540 O   0  0  0  0  0  0  0  0  0  0  0  0
  1 10  1  6  0  0  0
  1  3  1  0  0  0  0
  2 21  1  6  0  0  0
  2  8  1  0  0  0  0
  2  1  1  0  0  0  0
  3 10  1  6  0  0  0
  4  3  1  0  0  0  0
  4  6  1  1  0  0  0
  5  8  2  0  0  0  0
  7  9  1  0  0  0  0
  8  7  1  0  0  0  0
  9  4  1  0  0  0  0
 11  3  1  6  0  0  0
 11 17  1  0  0  0  0
 11 12  1  0  0  0  0
 12 13  1  1  0  0  0
 13 15  1  0  0  0  0
 14 15  1  0  0  0  0
 16 14  1  0  0  0  0
 17 12  1  0  0  0  0
 17 16  1  1  0  0  0
 18 20  2  0  0  0  0
 20 19  1  0  0  0  0
 20  9  1  0  0  0  0
 21 22  1  6  0  0  0
 21 24  1  0  0  0  0
 24 23  1  0  0  0  0
 25 24  2  0  0  0  0
M  END
>  <MODEL>
8

>  <REMARK>
 VINA RESULT:      -5.2      4.437      7.583
  Name = 
  4 active torsions:
  status: ('A' for Active; 'I' for Inactive)
    1  A    between atoms: C_1  and  C_5
    2  A    between atoms: C_3  and  C_22
    3  A    between atoms: N_15  and  C_20
    4  A    between atoms: C_19  and  C_22
                            x       y       z     vdW  Elec       q    Type
                         _______ _______ _______ _____ _____    ______ ____

>  <TORSDO>
F 4

$$$$
=
 OpenBabel11062413543D

 25 28  0  0  1  0  0  0  0  0999 V2000
  189.7610  176.1900  137.5940 C   0  0  2  0  0  3  0  0  0  0  0  0
  189.4420  175.7490  136.1610 C   0  0  2  0  0  3  0  0  0  0  0  0
  188.5940  176.9350  138.2610 C   0  0  2  0  0  0  0  0  0  0  0  0
  187.3270  177.3390  137.4600 C   0  0  2  0  0  3  0  0  0  0  0  0
  188.4970  173.6740  135.4520 O   0  0  0  0  0  0  0  0  0  0  0  0
  186.3590  178.1740  138.2920 C   0  0  0  0  0  1  0  0  0  0  0  0
  187.1370  174.8440  136.9700 C   0  0  0  0  0  2  0  0  0  0  0  0
  188.3790  174.6700  136.1490 C   0  0  0  0  0  0  0  0  0  0  0  0
  186.6310  176.2080  136.8130 N   0  0  0  0  0  0  0  0  0  0  0  0
  189.7870  177.7010  137.7230 C   0  0  0  0  0  2  0  0  0  0  0  0
  188.5780  176.9440  139.7980 C   0  0  2  0  0  3  0  0  0  0  0  0
  188.8140  178.3450  140.3600 C   0  0  1  0  0  3  0  0  0  0  0  0
  188.0900  178.4620  141.7040 C   0  0  0  0  0  2  0  0  0  0  0  0
  189.2690  176.9340  142.7920 C   0  0  0  0  0  2  0  0  0  0  0  0
  188.9830  178.3030  142.7710 O   0  0  0  0  0  0  0  0  0  0  0  0
  190.2510  176.6000  141.6700 C   0  0  0  0  0  2  0  0  0  0  0  0
  189.9500  177.3150  140.3360 C   0  0  1  0  0  3  0  0  0  0  0  0
  185.8940  176.9840  134.6420 C   0  0  0  0  0  2  0  0  0  0  0  0
  184.1910  176.0420  136.0750 C   0  0  0  0  0  1  0  0  0  0  0  0
  185.6060  176.4420  135.8220 C   0  0  0  0  0  0  0  0  0  0  0  0
  190.7030  175.3850  135.3600 C   0  0  1  0  0  3  0  0  0  0  0  0
  191.1230  176.4750  134.5940 O   0  0  0  0  0  1  0  0  0  0  0  0
  191.8230  173.5460  136.7080 N   0  0  0  0  0  1  0  0  0  0  0  0
  191.8310  174.8800  136.2090 C   0  0  0  0  0  0  0  0  0  0  0  0
  192.8000  175.6380  136.4740 O   0  0  0  0  0  0  0  0  0  0  0  0
  1 10  1  6  0  0  0
  1  3  1  0  0  0  0
  2 21  1  1  0  0  0
  2  1  1  0  0  0  0
  3 10  1  6  0  0  0
  4  3  1  0  0  0  0
  4  6  1  1  0  0  0
  5  8  2  0  0  0  0
  8  2  1  0  0  0  0
  8  7  1  0  0  0  0
  9  7  1  0  0  0  0
  9  4  1  0  0  0  0
 11  3  1  6  0  0  0
 11 17  1  0  0  0  0
 11 12  1  0  0  0  0
 12 13  1  1  0  0  0
 13 15  1  0  0  0  0
 15 14  1  0  0  0  0
 16 14  1  0  0  0  0
 17 12  1  0  0  0  0
 17 16  1  1  0  0  0
 18 20  2  0  0  0  0
 20 19  1  0  0  0  0
 20  9  1  0  0  0  0
 21 22  1  1  0  0  0
 21 24  1  0  0  0  0
 24 25  2  0  0  0  0
 24 23  1  0  0  0  0
M  END
>  <MODEL>
9

>  <REMARK>
 VINA RESULT:      -5.2      4.216      7.775
  Name = 
  4 active torsions:
  status: ('A' for Active; 'I' for Inactive)
    1  A    between atoms: C_1  and  C_5
    2  A    between atoms: C_3  and  C_22
    3  A    between atoms: N_15  and  C_20
    4  A    between atoms: C_19  and  C_22
                            x       y       z     vdW  Elec       q    Type
                         _______ _______ _______ _____ _____    ______ ____

>  <TORSDO>
F 4

$$$$
