=
 OpenBabel11062415293D

 37 38  0  0  1  0  0  0  0  0999 V2000
  183.8340  178.2630  140.6390 N   0  0  0  0  0  0  0  0  0  0  0  0
  186.0570  178.5740  139.1310 O   0  0  0  0  0  0  0  0  0  0  0  0
  184.5960  178.9120  139.2180 S   0  0  0  0  0  0  0  0  0  0  0  0
  184.2960  180.3670  138.9970 O   0  0  0  0  0  0  0  0  0  0  0  0
  183.0690  177.3820  139.7090 C   0  0  2  0  0  3  0  0  0  0  0  0
  183.5740  177.8410  138.3540 C   0  0  0  0  0  2  0  0  0  0  0  0
  183.9410  178.4890  142.0480 C   0  0  0  0  0  0  0  0  0  0  0  0
  185.2570  178.6300  144.0950 C   0  0  0  0  0  0  0  0  0  0  0  0
  186.3350  178.0950  142.0020 O   0  0  0  0  0  1  0  0  0  0  0  0
  182.7910  178.8130  142.7730 C   0  0  0  0  0  3  0  0  0  0  0  0
  185.1780  178.3960  142.7120 C   0  0  0  0  0  0  0  0  0  0  0  0
  184.1060  179.0640  146.1990 O   0  0  0  0  0  1  0  0  0  0  0  0
  182.8590  179.0170  144.1500 C   0  0  0  0  0  3  0  0  0  0  0  0
  184.0810  178.9140  144.8180 C   0  0  0  0  0  0  0  0  0  0  0  0
  186.5330  178.5150  144.7430 N   0  0  0  0  0  2  0  0  0  0  0  0
  188.3040  177.3560  146.0330 N   0  0  0  0  0  2  0  0  0  0  0  0
  186.9450  177.4420  145.6010 C   0  0  0  0  0  0  0  0  0  0  0  0
  186.0710  176.6370  146.1090 N   0  0  0  0  0  2  0  0  0  0  0  0
  189.3370  178.2770  145.5800 C   0  0  0  0  0  2  0  0  0  0  0  0
  190.1670  177.6510  144.4640 C   0  0  2  0  0  3  0  0  0  0  0  0
  191.6200  177.4700  144.9000 C   0  0  0  0  0  2  0  0  0  0  0  0
  191.7740  176.3640  145.9330 C   0  0  0  0  0  1  0  0  0  0  0  0
  190.5140  177.5730  142.2790 C   0  0  0  0  0  1  0  0  0  0  0  0
  190.0930  178.4250  143.3010 O   0  0  0  0  0  0  0  0  0  0  0  0
  181.5450  177.5580  139.8870 C   0  0  2  0  0  3  0  0  0  0  0  0
  180.7470  176.2530  140.0430 C   0  0  2  0  0  3  0  0  0  0  0  0
  180.5980  175.6380  138.7990 O   0  0  0  0  0  1  0  0  0  0  0  0
  179.5080  177.1550  141.8720 O   0  0  0  0  0  1  0  0  0  0  0  0
  179.3740  176.5380  140.6280 C   0  0  0  0  0  2  0  0  0  0  0  0
  180.9550  178.5220  139.0360 O   0  0  0  0  0  0  0  0  0  0  0  0
  180.8040  179.7310  139.7360 C   0  0  0  0  0  2  0  0  0  0  0  0
  180.0280  180.7410  138.8970 C   0  0  2  0  0  3  0  0  0  0  0  0
  180.8500  181.1890  136.6900 O   0  0  0  0  0  0  0  0  0  0  0  0
  181.8280  182.3870  138.3800 O   0  0  0  0  0  1  0  0  0  0  0  0
  180.9230  181.4410  137.9220 C   0  0  0  0  0  0  0  0  0  0  0  0
  179.3810  181.6670  139.7200 O   0  0  0  0  0  0  0  0  0  0  0  0
  179.3840  181.0820  140.9880 C   0  0  0  0  0  1  0  0  0  0  0  0
  1  7  1  0  0  0  0
  2  3  2  0  0  0  0
  3  1  1  0  0  0  0
  4  3  2  0  0  0  0
  5 25  1  6  0  0  0
  5  1  1  0  0  0  0
  6  3  1  0  0  0  0
  6  5  1  0  0  0  0
  7 11  2  0  0  0  0
  7 10  1  0  0  0  0
  8 15  1  0  0  0  0
  8 14  2  0  0  0  0
  9 11  1  0  0  0  0
 10 13  2  0  0  0  0
 11  8  1  0  0  0  0
 13 14  1  0  0  0  0
 14 12  1  0  0  0  0
 15 17  1  0  0  0  0
 17 16  1  0  0  0  0
 17 18  2  0  0  0  0
 19 16  1  0  0  0  0
 20 21  1  1  0  0  0
 20 19  1  0  0  0  0
 21 22  1  0  0  0  0
 23 24  1  0  0  0  0
 24 20  1  0  0  0  0
 25 30  1  6  0  0  0
 25 26  1  0  0  0  0
 26 27  1  6  0  0  0
 26 29  1  0  0  0  0
 29 28  1  0  0  0  0
 30 31  1  0  0  0  0
 32 36  1  0  0  0  0
 32 31  1  1  0  0  0
 33 35  2  0  0  0  0
 35 34  1  0  0  0  0
 35 32  1  0  0  0  0
 36 37  1  0  0  0  0
M  END
>  <MODEL>
1

>  <REMARK>
 VINA RESULT:      -6.4      0.000      0.000
  Name = 
  14 active torsions:
  status: ('A' for Active; 'I' for Inactive)
    1  A    between atoms: C_1  and  C_14
    2  A    between atoms: C_1  and  C_24
    3  A    between atoms: C_1  and  O_33
    4  A    between atoms: C_2  and  N_6
    5  A    between atoms: N_4  and  C_10
    6  A    between atoms: C_5  and  C_34
    7  A    between atoms: C_5  and  C_35
    8  A    between atoms: C_5  and  O_36
    9  A    between atoms: C_7  and  C_20
   10  A    between atoms: C_14  and  C_17
   11  A    between atoms: N_15  and  C_30
   12  A    between atoms: C_20  and  O_29
   13  A    between atoms: C_20  and  C_30
   14  A    between atoms: O_33  and  C_35
                            x       y       z     vdW  Elec       q    Type
                         _______ _______ _______ _____ _____    ______ ____

>  <TORSDO>
F 14

$$$$
=
 OpenBabel11062415293D

 37 38  0  0  1  0  0  0  0  0999 V2000
  189.5950  177.6900  138.2050 N   0  0  0  0  0  0  0  0  0  0  0  0
  189.0810  180.1450  137.1960 O   0  0  0  0  0  0  0  0  0  0  0  0
  188.5200  178.7610  137.3570 S   0  0  0  0  0  0  0  0  0  0  0  0
  187.1160  178.7350  137.8890 O   0  0  0  0  0  0  0  0  0  0  0  0
  189.7220  176.9530  136.9130 C   0  0  2  0  0  3  0  0  0  0  0  0
  188.7850  177.7340  136.0110 C   0  0  0  0  0  2  0  0  0  0  0  0
  190.1110  177.6050  139.5360 C   0  0  0  0  0  0  0  0  0  0  0  0
  189.7940  177.5940  141.9530 C   0  0  0  0  0  0  0  0  0  0  0  0
  187.8900  177.8370  140.4880 O   0  0  0  0  0  1  0  0  0  0  0  0
  191.4850  177.4340  139.7230 C   0  0  0  0  0  3  0  0  0  0  0  0
  189.2630  177.6870  140.6550 C   0  0  0  0  0  0  0  0  0  0  0  0
  191.7570  177.4570  143.3910 O   0  0  0  0  0  1  0  0  0  0  0  0
  192.0210  177.3700  141.0080 C   0  0  0  0  0  3  0  0  0  0  0  0
  191.1860  177.4630  142.1240 C   0  0  0  0  0  0  0  0  0  0  0  0
  188.9010  177.6930  143.0730 N   0  0  0  0  0  2  0  0  0  0  0  0
  187.5690  176.8180  144.9720 N   0  0  0  0  0  2  0  0  0  0  0  0
  188.2910  176.5920  143.7590 C   0  0  0  0  0  0  0  0  0  0  0  0
  188.2570  175.4190  143.2180 N   0  0  0  0  0  2  0  0  0  0  0  0
  187.4800  178.1260  145.6050 C   0  0  0  0  0  2  0  0  0  0  0  0
  186.7660  178.0280  146.9500 C   0  0  2  0  0  3  0  0  0  0  0  0
  185.3320  178.5440  146.8460 C   0  0  0  0  0  2  0  0  0  0  0  0
  184.9800  178.9770  145.4310 C   0  0  0  0  0  1  0  0  0  0  0  0
  188.0480  177.7320  148.7300 C   0  0  0  0  0  1  0  0  0  0  0  0
  187.4720  178.7250  147.9350 O   0  0  0  0  0  0  0  0  0  0  0  0
  189.3290  175.4670  137.0670 C   0  0  2  0  0  3  0  0  0  0  0  0
  190.4760  174.4610  136.8790 C   0  0  2  0  0  3  0  0  0  0  0  0
  191.2700  174.4290  138.0270 O   0  0  0  0  0  1  0  0  0  0  0  0
  192.5090  174.0990  135.6830 O   0  0  0  0  0  1  0  0  0  0  0  0
  191.3340  174.8520  135.6880 C   0  0  0  0  0  2  0  0  0  0  0  0
  188.1100  175.1080  136.4450 O   0  0  0  0  0  0  0  0  0  0  0  0
  187.6810  173.8660  136.9420 C   0  0  0  0  0  2  0  0  0  0  0  0
  186.4500  173.3820  136.1820 C   0  0  2  0  0  3  0  0  0  0  0  0
  185.1530  172.7910  138.1090 O   0  0  0  0  0  1  0  0  0  0  0  0
  184.1590  174.2480  136.6470 O   0  0  0  0  0  0  0  0  0  0  0  0
  185.2230  173.4460  137.0350 C   0  0  0  0  0  0  0  0  0  0  0  0
  186.6490  172.0830  135.7050 O   0  0  0  0  0  0  0  0  0  0  0  0
  187.9020  171.7110  136.1940 C   0  0  0  0  0  1  0  0  0  0  0  0
  1  7  1  0  0  0  0
  2  3  2  0  0  0  0
  3  4  2  0  0  0  0
  3  1  1  0  0  0  0
  5 25  1  1  0  0  0
  5  1  1  0  0  0  0
  6  5  1  0  0  0  0
  6  3  1  0  0  0  0
  7 10  2  0  0  0  0
  7 11  1  0  0  0  0
  8 14  1  0  0  0  0
  8 15  1  0  0  0  0
  9 11  1  0  0  0  0
 10 13  1  0  0  0  0
 11  8  2  0  0  0  0
 13 14  2  0  0  0  0
 14 12  1  0  0  0  0
 15 17  1  0  0  0  0
 16 19  1  0  0  0  0
 17 16  1  0  0  0  0
 18 17  2  0  0  0  0
 20 19  1  6  0  0  0
 20 24  1  0  0  0  0
 21 20  1  0  0  0  0
 22 21  1  0  0  0  0
 24 23  1  0  0  0  0
 25 30  1  6  0  0  0
 26 25  1  0  0  0  0
 26 27  1  1  0  0  0
 28 29  1  0  0  0  0
 29 26  1  0  0  0  0
 30 31  1  0  0  0  0
 32 31  1  1  0  0  0
 32 35  1  0  0  0  0
 34 35  2  0  0  0  0
 35 33  1  0  0  0  0
 36 32  1  0  0  0  0
 36 37  1  0  0  0  0
M  END
>  <MODEL>
2

>  <REMARK>
 VINA RESULT:      -6.4      4.884      7.962
  Name = 
  14 active torsions:
  status: ('A' for Active; 'I' for Inactive)
    1  A    between atoms: C_1  and  C_14
    2  A    between atoms: C_1  and  C_24
    3  A    between atoms: C_1  and  O_33
    4  A    between atoms: C_2  and  N_6
    5  A    between atoms: N_4  and  C_10
    6  A    between atoms: C_5  and  C_34
    7  A    between atoms: C_5  and  C_35
    8  A    between atoms: C_5  and  O_36
    9  A    between atoms: C_7  and  C_20
   10  A    between atoms: C_14  and  C_17
   11  A    between atoms: N_15  and  C_30
   12  A    between atoms: C_20  and  O_29
   13  A    between atoms: C_20  and  C_30
   14  A    between atoms: O_33  and  C_35
                            x       y       z     vdW  Elec       q    Type
                         _______ _______ _______ _____ _____    ______ ____

>  <TORSDO>
F 14

$$$$
=
 OpenBabel11062415293D

 37 38  0  0  1  0  0  0  0  0999 V2000
  189.7500  177.5470  138.1360 N   0  0  0  0  0  0  0  0  0  0  0  0
  187.6460  179.1440  137.5600 O   0  0  0  0  0  0  0  0  0  0  0  0
  188.1990  177.7600  137.3800 S   0  0  0  0  0  0  0  0  0  0  0  0
  187.2220  176.6690  137.7140 O   0  0  0  0  0  0  0  0  0  0  0  0
  190.2960  177.4100  136.7530 C   0  0  2  0  0  3  0  0  0  0  0  0
  189.0430  177.5260  135.9070 C   0  0  0  0  0  2  0  0  0  0  0  0
  190.2370  177.5350  139.4800 C   0  0  0  0  0  0  0  0  0  0  0  0
  189.8640  177.6120  141.8880 C   0  0  0  0  0  0  0  0  0  0  0  0
  187.9880  177.7270  140.3720 O   0  0  0  0  0  1  0  0  0  0  0  0
  191.6120  177.4200  139.7050 C   0  0  0  0  0  3  0  0  0  0  0  0
  189.3610  177.6330  140.5760 C   0  0  0  0  0  0  0  0  0  0  0  0
  191.7960  177.6040  143.3740 O   0  0  0  0  0  1  0  0  0  0  0  0
  192.1190  177.4280  141.0030 C   0  0  0  0  0  3  0  0  0  0  0  0
  191.2560  177.5380  142.0960 C   0  0  0  0  0  0  0  0  0  0  0  0
  188.9420  177.7260  142.9830 N   0  0  0  0  0  2  0  0  0  0  0  0
  187.5630  176.8760  144.8590 N   0  0  0  0  0  2  0  0  0  0  0  0
  188.3160  176.6340  143.6690 C   0  0  0  0  0  0  0  0  0  0  0  0
  188.2980  175.4540  143.1440 N   0  0  0  0  0  2  0  0  0  0  0  0
  187.4550  178.1930  145.4710 C   0  0  0  0  0  2  0  0  0  0  0  0
  186.7750  178.1020  146.8330 C   0  0  2  0  0  3  0  0  0  0  0  0
  185.4730  178.9010  146.8490 C   0  0  0  0  0  2  0  0  0  0  0  0
  184.7110  178.7800  145.5380 C   0  0  0  0  0  1  0  0  0  0  0  0
  188.1500  177.3710  148.4080 C   0  0  0  0  0  1  0  0  0  0  0  0
  187.6360  178.5410  147.8450 O   0  0  0  0  0  0  0  0  0  0  0  0
  191.0410  176.0700  136.5680 C   0  0  2  0  0  3  0  0  0  0  0  0
  190.4250  174.8690  137.3060 C   0  0  2  0  0  3  0  0  0  0  0  0
  191.4280  174.1520  137.9610 O   0  0  0  0  0  1  0  0  0  0  0  0
  188.9350  173.0270  137.0210 O   0  0  0  0  0  1  0  0  0  0  0  0
  189.7150  173.9510  136.3240 C   0  0  0  0  0  2  0  0  0  0  0  0
  192.4500  176.1590  136.6410 O   0  0  0  0  0  0  0  0  0  0  0  0
  192.9990  175.9310  135.3670 C   0  0  0  0  0  2  0  0  0  0  0  0
  194.5210  176.0110  135.4180 C   0  0  2  0  0  3  0  0  0  0  0  0
  195.6140  175.1660  137.3770 O   0  0  0  0  0  1  0  0  0  0  0  0
  195.0440  173.6030  135.8020 O   0  0  0  0  0  0  0  0  0  0  0  0
  195.0960  174.9130  136.2570 C   0  0  0  0  0  0  0  0  0  0  0  0
  194.9300  177.2590  135.8970 O   0  0  0  0  0  0  0  0  0  0  0  0
  195.7020  177.8010  134.8690 C   0  0  0  0  0  1  0  0  0  0  0  0
  1  7  1  0  0  0  0
  3  2  2  0  0  0  0
  3  4  2  0  0  0  0
  3  1  1  0  0  0  0
  5 25  1  1  0  0  0
  5  1  1  0  0  0  0
  6  5  1  0  0  0  0
  6  3  1  0  0  0  0
  7 10  2  0  0  0  0
  7 11  1  0  0  0  0
  8 14  1  0  0  0  0
  8 15  1  0  0  0  0
  9 11  1  0  0  0  0
 10 13  1  0  0  0  0
 11  8  2  0  0  0  0
 13 14  2  0  0  0  0
 14 12  1  0  0  0  0
 15 17  1  0  0  0  0
 16 19  1  0  0  0  0
 17 16  1  0  0  0  0
 18 17  2  0  0  0  0
 20 19  1  6  0  0  0
 20 21  1  0  0  0  0
 20 24  1  0  0  0  0
 22 21  1  0  0  0  0
 24 23  1  0  0  0  0
 25 30  1  1  0  0  0
 25 26  1  0  0  0  0
 26 27  1  6  0  0  0
 29 28  1  0  0  0  0
 29 26  1  0  0  0  0
 31 30  1  0  0  0  0
 32 31  1  1  0  0  0
 32 36  1  0  0  0  0
 32 35  1  0  0  0  0
 34 35  2  0  0  0  0
 35 33  1  0  0  0  0
 37 36  1  0  0  0  0
M  END
>  <MODEL>
3

>  <REMARK>
 VINA RESULT:      -6.3      5.265      9.497
  Name = 
  14 active torsions:
  status: ('A' for Active; 'I' for Inactive)
    1  A    between atoms: C_1  and  C_14
    2  A    between atoms: C_1  and  C_24
    3  A    between atoms: C_1  and  O_33
    4  A    between atoms: C_2  and  N_6
    5  A    between atoms: N_4  and  C_10
    6  A    between atoms: C_5  and  C_34
    7  A    between atoms: C_5  and  C_35
    8  A    between atoms: C_5  and  O_36
    9  A    between atoms: C_7  and  C_20
   10  A    between atoms: C_14  and  C_17
   11  A    between atoms: N_15  and  C_30
   12  A    between atoms: C_20  and  O_29
   13  A    between atoms: C_20  and  C_30
   14  A    between atoms: O_33  and  C_35
                            x       y       z     vdW  Elec       q    Type
                         _______ _______ _______ _____ _____    ______ ____

>  <TORSDO>
F 14

$$$$
=
 OpenBabel11062415293D

 37 38  0  0  1  0  0  0  0  0999 V2000
  189.5430  177.6200  138.1090 N   0  0  0  0  0  0  0  0  0  0  0  0
  188.7430  180.0690  137.2910 O   0  0  0  0  0  0  0  0  0  0  0  0
  188.3110  178.6370  137.4230 S   0  0  0  0  0  0  0  0  0  0  0  0
  186.9690  178.4660  138.0770 O   0  0  0  0  0  0  0  0  0  0  0  0
  189.6060  176.9600  136.7720 C   0  0  2  0  0  3  0  0  0  0  0  0
  188.5300  177.7020  136.0030 C   0  0  0  0  0  2  0  0  0  0  0  0
  190.1860  177.5140  139.3830 C   0  0  0  0  0  0  0  0  0  0  0  0
  190.1140  177.5120  141.8190 C   0  0  0  0  0  0  0  0  0  0  0  0
  188.0830  177.8280  140.5520 O   0  0  0  0  0  1  0  0  0  0  0  0
  191.5650  177.2900  139.4310 C   0  0  0  0  0  3  0  0  0  0  0  0
  189.4590  177.6270  140.5810 C   0  0  0  0  0  0  0  0  0  0  0  0
  192.2050  177.2990  143.0530 O   0  0  0  0  0  1  0  0  0  0  0  0
  192.2240  177.2050  140.6560 C   0  0  0  0  0  3  0  0  0  0  0  0
  191.5110  177.3280  141.8500 C   0  0  0  0  0  0  0  0  0  0  0  0
  189.3430  177.6430  143.0230 N   0  0  0  0  0  2  0  0  0  0  0  0
  187.9930  176.8170  144.9310 N   0  0  0  0  0  2  0  0  0  0  0  0
  188.5640  176.6080  143.6380 C   0  0  0  0  0  0  0  0  0  0  0  0
  188.2460  175.5460  142.9750 N   0  0  0  0  0  2  0  0  0  0  0  0
  188.2260  178.0240  145.7110 C   0  0  0  0  0  2  0  0  0  0  0  0
  189.1020  177.7240  146.9230 C   0  0  2  0  0  3  0  0  0  0  0  0
  190.3260  176.9030  146.5230 C   0  0  0  0  0  2  0  0  0  0  0  0
  191.3670  176.8510  147.6310 C   0  0  0  0  0  1  0  0  0  0  0  0
  188.0040  178.0620  148.8170 C   0  0  0  0  0  1  0  0  0  0  0  0
  188.3650  177.0620  147.9120 O   0  0  0  0  0  0  0  0  0  0  0  0
  189.3490  175.4410  136.8770 C   0  0  2  0  0  3  0  0  0  0  0  0
  190.5930  174.5510  136.7140 C   0  0  2  0  0  3  0  0  0  0  0  0
  191.1390  174.2690  137.9670 O   0  0  0  0  0  1  0  0  0  0  0  0
  192.7980  175.4560  136.6050 O   0  0  0  0  0  1  0  0  0  0  0  0
  191.6360  175.2500  135.8590 C   0  0  0  0  0  2  0  0  0  0  0  0
  188.1950  174.9870  136.1970 O   0  0  0  0  0  0  0  0  0  0  0  0
  187.5630  173.9930  136.9630 C   0  0  0  0  0  2  0  0  0  0  0  0
  186.0710  174.2820  137.0880 C   0  0  2  0  0  3  0  0  0  0  0  0
  184.6260  172.4420  137.6110 O   0  0  0  0  0  1  0  0  0  0  0  0
  185.1680  172.6860  135.3990 O   0  0  0  0  0  0  0  0  0  0  0  0
  185.2510  173.0830  136.7250 C   0  0  0  0  0  0  0  0  0  0  0  0
  185.7160  175.3770  136.2940 O   0  0  0  0  0  0  0  0  0  0  0  0
  184.6920  176.0120  136.9980 C   0  0  0  0  0  1  0  0  0  0  0  0
  1  7  1  0  0  0  0
  2  3  2  0  0  0  0
  3  4  2  0  0  0  0
  3  1  1  0  0  0  0
  5 25  1  1  0  0  0
  5  1  1  0  0  0  0
  6  5  1  0  0  0  0
  6  3  1  0  0  0  0
  7 10  2  0  0  0  0
  7 11  1  0  0  0  0
  8 14  1  0  0  0  0
  8 15  1  0  0  0  0
  9 11  1  0  0  0  0
 10 13  1  0  0  0  0
 11  8  2  0  0  0  0
 13 14  2  0  0  0  0
 14 12  1  0  0  0  0
 15 17  1  0  0  0  0
 16 19  1  0  0  0  0
 17 16  1  0  0  0  0
 18 17  2  0  0  0  0
 20 19  1  6  0  0  0
 20 24  1  0  0  0  0
 21 20  1  0  0  0  0
 21 22  1  0  0  0  0
 24 23  1  0  0  0  0
 25 30  1  6  0  0  0
 26 25  1  0  0  0  0
 26 27  1  1  0  0  0
 29 28  1  0  0  0  0
 29 26  1  0  0  0  0
 30 31  1  0  0  0  0
 32 31  1  6  0  0  0
 34 35  2  0  0  0  0
 35 32  1  0  0  0  0
 35 33  1  0  0  0  0
 36 37  1  0  0  0  0
 36 32  1  0  0  0  0
M  END
>  <MODEL>
4

>  <REMARK>
 VINA RESULT:      -6.1      4.837      7.559
  Name = 
  14 active torsions:
  status: ('A' for Active; 'I' for Inactive)
    1  A    between atoms: C_1  and  C_14
    2  A    between atoms: C_1  and  C_24
    3  A    between atoms: C_1  and  O_33
    4  A    between atoms: C_2  and  N_6
    5  A    between atoms: N_4  and  C_10
    6  A    between atoms: C_5  and  C_34
    7  A    between atoms: C_5  and  C_35
    8  A    between atoms: C_5  and  O_36
    9  A    between atoms: C_7  and  C_20
   10  A    between atoms: C_14  and  C_17
   11  A    between atoms: N_15  and  C_30
   12  A    between atoms: C_20  and  O_29
   13  A    between atoms: C_20  and  C_30
   14  A    between atoms: O_33  and  C_35
                            x       y       z     vdW  Elec       q    Type
                         _______ _______ _______ _____ _____    ______ ____

>  <TORSDO>
F 14

$$$$
=
 OpenBabel11062415293D

 37 38  0  0  1  0  0  0  0  0999 V2000
  187.9920  178.3520  141.2220 N   0  0  0  0  0  0  0  0  0  0  0  0
  188.7520  179.1610  138.7560 O   0  0  0  0  0  0  0  0  0  0  0  0
  188.9000  178.0620  139.7690 S   0  0  0  0  0  0  0  0  0  0  0  0
  188.6910  176.6860  139.2030 O   0  0  0  0  0  0  0  0  0  0  0  0
  189.3110  178.4860  141.9050 C   0  0  2  0  0  3  0  0  0  0  0  0
  190.2820  178.2110  140.7710 C   0  0  0  0  0  2  0  0  0  0  0  0
  186.6040  178.4350  141.5580 C   0  0  0  0  0  0  0  0  0  0  0  0
  184.2640  178.6920  140.9230 C   0  0  0  0  0  0  0  0  0  0  0  0
  185.9820  178.7110  139.2280 O   0  0  0  0  0  1  0  0  0  0  0  0
  186.2210  178.3250  142.8970 C   0  0  0  0  0  3  0  0  0  0  0  0
  185.6210  178.6210  140.5680 C   0  0  0  0  0  0  0  0  0  0  0  0
  182.5770  178.7760  142.6810 O   0  0  0  0  0  1  0  0  0  0  0  0
  184.8780  178.4240  143.2590 C   0  0  0  0  0  3  0  0  0  0  0  0
  183.8990  178.6210  142.2830 C   0  0  0  0  0  0  0  0  0  0  0  0
  183.2890  178.8930  139.8890 N   0  0  0  0  0  2  0  0  0  0  0  0
  181.3610  178.2650  138.4630 N   0  0  0  0  0  2  0  0  0  0  0  0
  182.4100  177.8920  139.3590 C   0  0  0  0  0  0  0  0  0  0  0  0
  182.6450  176.6380  139.5620 N   0  0  0  0  0  2  0  0  0  0  0  0
  181.0820  179.6490  138.1070 C   0  0  0  0  0  2  0  0  0  0  0  0
  179.8230  180.1450  138.8110 C   0  0  2  0  0  3  0  0  0  0  0  0
  179.8810  181.6530  139.0390 C   0  0  0  0  0  2  0  0  0  0  0  0
  180.7350  182.3570  137.9960 C   0  0  0  0  0  1  0  0  0  0  0  0
  179.7680  180.4540  141.0030 C   0  0  0  0  0  1  0  0  0  0  0  0
  179.6370  179.4690  140.0220 O   0  0  0  0  0  0  0  0  0  0  0  0
  189.4450  177.4940  143.0810 C   0  0  2  0  0  3  0  0  0  0  0  0
  189.3590  176.0070  142.6990 C   0  0  2  0  0  3  0  0  0  0  0  0
  188.2000  175.4460  143.2380 O   0  0  0  0  0  1  0  0  0  0  0  0
  191.6810  176.0990  143.2420 O   0  0  0  0  0  1  0  0  0  0  0  0
  190.5700  175.2540  143.2240 C   0  0  0  0  0  2  0  0  0  0  0  0
  188.7270  177.8550  144.2450 O   0  0  0  0  0  0  0  0  0  0  0  0
  189.6120  177.9250  145.3350 C   0  0  0  0  0  2  0  0  0  0  0  0
  189.1040  177.0740  146.4930 C   0  0  2  0  0  3  0  0  0  0  0  0
  187.1260  178.0660  147.4150 O   0  0  0  0  0  0  0  0  0  0  0  0
  189.0730  178.4870  148.5460 O   0  0  0  0  0  1  0  0  0  0  0  0
  188.3720  177.9040  147.5000 C   0  0  0  0  0  0  0  0  0  0  0  0
  190.1620  176.3890  147.0980 O   0  0  0  0  0  0  0  0  0  0  0  0
  191.3110  176.9050  146.4980 C   0  0  0  0  0  1  0  0  0  0  0  0
  1  7  1  0  0  0  0
  1  5  1  0  0  0  0
  2  3  2  0  0  0  0
  3  6  1  0  0  0  0
  3  1  1  0  0  0  0
  4  3  2  0  0  0  0
  5 25  1  1  0  0  0
  6  5  1  0  0  0  0
  7 10  1  0  0  0  0
  8 14  2  0  0  0  0
  9 11  1  0  0  0  0
 10 13  2  0  0  0  0
 11  8  1  0  0  0  0
 11  7  2  0  0  0  0
 14 12  1  0  0  0  0
 14 13  1  0  0  0  0
 15  8  1  0  0  0  0
 16 17  1  0  0  0  0
 17 18  2  0  0  0  0
 17 15  1  0  0  0  0
 19 16  1  0  0  0  0
 20 19  1  1  0  0  0
 20 21  1  0  0  0  0
 20 24  1  0  0  0  0
 22 21  1  0  0  0  0
 24 23  1  0  0  0  0
 25 30  1  1  0  0  0
 26 25  1  0  0  0  0
 26 29  1  0  0  0  0
 26 27  1  1  0  0  0
 29 28  1  0  0  0  0
 30 31  1  0  0  0  0
 32 31  1  6  0  0  0
 32 36  1  0  0  0  0
 32 35  1  0  0  0  0
 33 35  2  0  0  0  0
 35 34  1  0  0  0  0
 37 36  1  0  0  0  0
M  END
>  <MODEL>
5

>  <REMARK>
 VINA RESULT:      -5.9      2.520      9.271
  Name = 
  14 active torsions:
  status: ('A' for Active; 'I' for Inactive)
    1  A    between atoms: C_1  and  C_14
    2  A    between atoms: C_1  and  C_24
    3  A    between atoms: C_1  and  O_33
    4  A    between atoms: C_2  and  N_6
    5  A    between atoms: N_4  and  C_10
    6  A    between atoms: C_5  and  C_34
    7  A    between atoms: C_5  and  C_35
    8  A    between atoms: C_5  and  O_36
    9  A    between atoms: C_7  and  C_20
   10  A    between atoms: C_14  and  C_17
   11  A    between atoms: N_15  and  C_30
   12  A    between atoms: C_20  and  O_29
   13  A    between atoms: C_20  and  C_30
   14  A    between atoms: O_33  and  C_35
                            x       y       z     vdW  Elec       q    Type
                         _______ _______ _______ _____ _____    ______ ____

>  <TORSDO>
F 14

$$$$
=
 OpenBabel11062415293D

 37 38  0  0  1  0  0  0  0  0999 V2000
  180.7150  178.2010  140.9650 N   0  0  0  0  0  0  0  0  0  0  0  0
  179.0240  176.1350  141.3880 O   0  0  0  0  0  0  0  0  0  0  0  0
  179.9160  176.7790  140.3660 S   0  0  0  0  0  0  0  0  0  0  0  0
  180.8470  175.8180  139.6840 O   0  0  0  0  0  0  0  0  0  0  0  0
  179.8790  178.9630  139.9910 C   0  0  2  0  0  3  0  0  0  0  0  0
  179.1060  177.8530  139.3040 C   0  0  0  0  0  2  0  0  0  0  0  0
  181.7070  178.4720  141.9590 C   0  0  0  0  0  0  0  0  0  0  0  0
  184.0050  178.3750  142.7660 C   0  0  0  0  0  0  0  0  0  0  0  0
  183.4440  177.4530  140.6060 O   0  0  0  0  0  1  0  0  0  0  0  0
  181.3310  179.1310  143.1330 C   0  0  0  0  0  3  0  0  0  0  0  0
  183.0490  178.0910  141.7760 C   0  0  0  0  0  0  0  0  0  0  0  0
  184.5000  179.2200  144.9970 O   0  0  0  0  0  1  0  0  0  0  0  0
  182.2700  179.3900  144.1300 C   0  0  0  0  0  3  0  0  0  0  0  0
  183.6010  179.0030  143.9610 C   0  0  0  0  0  0  0  0  0  0  0  0
  185.3630  177.9620  142.5510 N   0  0  0  0  0  2  0  0  0  0  0  0
  187.7090  178.2470  141.8010 N   0  0  0  0  0  2  0  0  0  0  0  0
  186.3450  178.6720  141.7840 C   0  0  0  0  0  0  0  0  0  0  0  0
  185.9870  179.5990  140.9590 N   0  0  0  0  0  2  0  0  0  0  0  0
  188.1840  177.1510  142.6350 C   0  0  0  0  0  2  0  0  0  0  0  0
  188.9040  177.6840  143.8690 C   0  0  2  0  0  3  0  0  0  0  0  0
  190.1110  176.8150  144.2150 C   0  0  0  0  0  2  0  0  0  0  0  0
  190.5250  175.9210  143.0560 C   0  0  0  0  0  1  0  0  0  0  0  0
  188.8210  177.5130  146.0750 C   0  0  0  0  0  1  0  0  0  0  0  0
  188.0260  177.7650  144.9550 O   0  0  0  0  0  0  0  0  0  0  0  0
  180.7500  179.7940  139.0240 C   0  0  2  0  0  3  0  0  0  0  0  0
  180.4410  181.3010  138.9910 C   0  0  2  0  0  3  0  0  0  0  0  0
  179.2490  181.5240  138.3010 O   0  0  0  0  0  1  0  0  0  0  0  0
  181.0520  182.8190  137.2550 O   0  0  0  0  0  1  0  0  0  0  0  0
  181.5660  182.0570  138.3050 C   0  0  0  0  0  2  0  0  0  0  0  0
  180.9650  179.2000  137.7590 O   0  0  0  0  0  0  0  0  0  0  0  0
  182.3060  178.7930  137.6570 C   0  0  0  0  0  2  0  0  0  0  0  0
  182.3940  177.3700  137.1160 C   0  0  2  0  0  3  0  0  0  0  0  0
  184.7650  177.5990  137.3830 O   0  0  0  0  0  1  0  0  0  0  0  0
  183.9840  175.4520  137.2110 O   0  0  0  0  0  0  0  0  0  0  0  0
  183.7820  176.8240  137.2390 C   0  0  0  0  0  0  0  0  0  0  0  0
  181.9660  177.3250  135.7850 O   0  0  0  0  0  0  0  0  0  0  0  0
  180.9520  176.3670  135.7680 C   0  0  0  0  0  1  0  0  0  0  0  0
  1  7  1  0  0  0  0
  3  1  1  0  0  0  0
  3  2  2  0  0  0  0
  4  3  2  0  0  0  0
  5 25  1  6  0  0  0
  5  1  1  0  0  0  0
  6  5  1  0  0  0  0
  6  3  1  0  0  0  0
  7 10  1  0  0  0  0
  8 14  2  0  0  0  0
  9 11  1  0  0  0  0
 10 13  2  0  0  0  0
 11  7  2  0  0  0  0
 11  8  1  0  0  0  0
 14 13  1  0  0  0  0
 14 12  1  0  0  0  0
 15  8  1  0  0  0  0
 16 19  1  0  0  0  0
 17 16  1  0  0  0  0
 17 15  1  0  0  0  0
 18 17  2  0  0  0  0
 20 19  1  6  0  0  0
 20 21  1  0  0  0  0
 20 24  1  0  0  0  0
 22 21  1  0  0  0  0
 24 23  1  0  0  0  0
 25 30  1  6  0  0  0
 26 27  1  6  0  0  0
 26 25  1  0  0  0  0
 28 29  1  0  0  0  0
 29 26  1  0  0  0  0
 31 30  1  0  0  0  0
 32 35  1  0  0  0  0
 32 31  1  6  0  0  0
 34 35  2  0  0  0  0
 35 33  1  0  0  0  0
 36 32  1  0  0  0  0
 37 36  1  0  0  0  0
M  END
>  <MODEL>
6

>  <REMARK>
 VINA RESULT:      -5.8      2.181      4.426
  Name = 
  14 active torsions:
  status: ('A' for Active; 'I' for Inactive)
    1  A    between atoms: C_1  and  C_14
    2  A    between atoms: C_1  and  C_24
    3  A    between atoms: C_1  and  O_33
    4  A    between atoms: C_2  and  N_6
    5  A    between atoms: N_4  and  C_10
    6  A    between atoms: C_5  and  C_34
    7  A    between atoms: C_5  and  C_35
    8  A    between atoms: C_5  and  O_36
    9  A    between atoms: C_7  and  C_20
   10  A    between atoms: C_14  and  C_17
   11  A    between atoms: N_15  and  C_30
   12  A    between atoms: C_20  and  O_29
   13  A    between atoms: C_20  and  C_30
   14  A    between atoms: O_33  and  C_35
                            x       y       z     vdW  Elec       q    Type
                         _______ _______ _______ _____ _____    ______ ____

>  <TORSDO>
F 14

$$$$
=
 OpenBabel11062415293D

 37 38  0  0  1  0  0  0  0  0999 V2000
  186.1180  178.1040  138.5970 N   0  0  0  0  0  0  0  0  0  0  0  0
  184.5360  180.1190  139.4630 O   0  0  0  0  0  0  0  0  0  0  0  0
  184.5740  178.6430  139.1860 S   0  0  0  0  0  0  0  0  0  0  0  0
  184.0420  177.8020  140.3110 O   0  0  0  0  0  0  0  0  0  0  0  0
  185.4200  177.8270  137.3070 C   0  0  2  0  0  3  0  0  0  0  0  0
  183.9880  178.2040  137.6370 C   0  0  0  0  0  2  0  0  0  0  0  0
  187.4390  178.0070  139.1370 C   0  0  0  0  0  0  0  0  0  0  0  0
  188.9670  177.8510  141.0300 C   0  0  0  0  0  0  0  0  0  0  0  0
  186.5860  177.9750  141.4080 O   0  0  0  0  0  1  0  0  0  0  0  0
  188.5290  177.9630  138.2630 C   0  0  0  0  0  3  0  0  0  0  0  0
  187.6590  177.9530  140.5250 C   0  0  0  0  0  0  0  0  0  0  0  0
  191.3660  177.8390  140.6010 O   0  0  0  0  0  1  0  0  0  0  0  0
  189.8300  177.8910  138.7590 C   0  0  0  0  0  3  0  0  0  0  0  0
  190.0570  177.8500  140.1370 C   0  0  0  0  0  0  0  0  0  0  0  0
  189.1560  177.8090  142.4520 N   0  0  0  0  0  2  0  0  0  0  0  0
  190.0250  176.8770  144.5790 N   0  0  0  0  0  2  0  0  0  0  0  0
  189.7240  176.7190  143.1910 C   0  0  0  0  0  0  0  0  0  0  0  0
  189.8270  175.5480  142.6560 N   0  0  0  0  0  2  0  0  0  0  0  0
  189.8530  178.1390  145.2850 C   0  0  0  0  0  2  0  0  0  0  0  0
  188.6520  178.0740  146.2230 C   0  0  2  0  0  3  0  0  0  0  0  0
  189.0490  177.4980  147.5810 C   0  0  0  0  0  2  0  0  0  0  0  0
  188.3040  178.1660  148.7260 C   0  0  0  0  0  1  0  0  0  0  0  0
  186.4950  178.1480  145.7280 C   0  0  0  0  0  1  0  0  0  0  0  0
  187.6200  177.3240  145.6510 O   0  0  0  0  0  0  0  0  0  0  0  0
  185.5840  176.3520  136.8800 C   0  0  2  0  0  3  0  0  0  0  0  0
  186.3330  176.1310  135.5550 C   0  0  2  0  0  3  0  0  0  0  0  0
  187.5580  175.5100  135.8020 O   0  0  0  0  0  1  0  0  0  0  0  0
  187.9440  177.7360  134.8320 O   0  0  0  0  0  1  0  0  0  0  0  0
  186.5770  177.4580  134.8560 C   0  0  0  0  0  2  0  0  0  0  0  0
  184.4310  175.5520  137.0560 O   0  0  0  0  0  0  0  0  0  0  0  0
  184.8190  174.2360  137.3610 C   0  0  0  0  0  2  0  0  0  0  0  0
  183.9450  173.2340  136.6130 C   0  0  2  0  0  3  0  0  0  0  0  0
  181.8020  173.8080  137.5200 O   0  0  0  0  0  1  0  0  0  0  0  0
  182.0360  174.0900  135.2590 O   0  0  0  0  0  0  0  0  0  0  0  0
  182.5350  173.7190  136.4990 C   0  0  0  0  0  0  0  0  0  0  0  0
  183.9850  171.9860  137.2420 O   0  0  0  0  0  0  0  0  0  0  0  0
  183.7980  171.0610  136.2140 C   0  0  0  0  0  1  0  0  0  0  0  0
  1  7  1  0  0  0  0
  1  3  1  0  0  0  0
  3  2  2  0  0  0  0
  3  4  2  0  0  0  0
  5 25  1  1  0  0  0
  5  6  1  0  0  0  0
  5  1  1  0  0  0  0
  6  3  1  0  0  0  0
  7 11  1  0  0  0  0
  8 15  1  0  0  0  0
 10 13  1  0  0  0  0
 10  7  2  0  0  0  0
 11  8  2  0  0  0  0
 11  9  1  0  0  0  0
 13 14  2  0  0  0  0
 14 12  1  0  0  0  0
 14  8  1  0  0  0  0
 15 17  1  0  0  0  0
 16 19  1  0  0  0  0
 17 16  1  0  0  0  0
 18 17  2  0  0  0  0
 20 19  1  6  0  0  0
 20 21  1  0  0  0  0
 21 22  1  0  0  0  0
 24 23  1  0  0  0  0
 24 20  1  0  0  0  0
 25 30  1  6  0  0  0
 26 27  1  1  0  0  0
 26 25  1  0  0  0  0
 28 29  1  0  0  0  0
 29 26  1  0  0  0  0
 30 31  1  0  0  0  0
 32 36  1  0  0  0  0
 32 31  1  1  0  0  0
 34 35  2  0  0  0  0
 35 32  1  0  0  0  0
 35 33  1  0  0  0  0
 37 36  1  0  0  0  0
M  END
>  <MODEL>
7

>  <REMARK>
 VINA RESULT:      -5.6      3.482      6.305
  Name = 
  14 active torsions:
  status: ('A' for Active; 'I' for Inactive)
    1  A    between atoms: C_1  and  C_14
    2  A    between atoms: C_1  and  C_24
    3  A    between atoms: C_1  and  O_33
    4  A    between atoms: C_2  and  N_6
    5  A    between atoms: N_4  and  C_10
    6  A    between atoms: C_5  and  C_34
    7  A    between atoms: C_5  and  C_35
    8  A    between atoms: C_5  and  O_36
    9  A    between atoms: C_7  and  C_20
   10  A    between atoms: C_14  and  C_17
   11  A    between atoms: N_15  and  C_30
   12  A    between atoms: C_20  and  O_29
   13  A    between atoms: C_20  and  C_30
   14  A    between atoms: O_33  and  C_35
                            x       y       z     vdW  Elec       q    Type
                         _______ _______ _______ _____ _____    ______ ____

>  <TORSDO>
F 14

$$$$
=
 OpenBabel11062415293D

 37 38  0  0  1  0  0  0  0  0999 V2000
  186.5660  178.4170  140.3170 N   0  0  0  0  0  0  0  0  0  0  0  0
  185.5010  180.1120  142.1340 O   0  0  0  0  0  0  0  0  0  0  0  0
  185.2760  178.8150  141.4120 S   0  0  0  0  0  0  0  0  0  0  0  0
  184.8940  177.6770  142.3150 O   0  0  0  0  0  0  0  0  0  0  0  0
  185.5720  178.6280  139.2230 C   0  0  2  0  0  3  0  0  0  0  0  0
  184.3110  178.9530  140.0020 C   0  0  0  0  0  2  0  0  0  0  0  0
  187.9470  178.0710  140.4500 C   0  0  0  0  0  0  0  0  0  0  0  0
  189.8770  177.4700  141.8130 C   0  0  0  0  0  0  0  0  0  0  0  0
  187.7410  177.8790  142.8600 O   0  0  0  0  0  1  0  0  0  0  0  0
  188.7400  177.9830  139.3020 C   0  0  0  0  0  3  0  0  0  0  0  0
  188.5190  177.8160  141.7100 C   0  0  0  0  0  0  0  0  0  0  0  0
  192.0360  177.1760  140.7210 O   0  0  0  0  0  1  0  0  0  0  0  0
  190.0940  177.6690  139.4010 C   0  0  0  0  0  3  0  0  0  0  0  0
  190.6720  177.4260  140.6500 C   0  0  0  0  0  0  0  0  0  0  0  0
  190.4310  177.2270  143.1150 N   0  0  0  0  0  2  0  0  0  0  0  0
  191.2770  177.8690  145.3540 N   0  0  0  0  0  2  0  0  0  0  0  0
  190.9220  178.2270  144.0170 C   0  0  0  0  0  0  0  0  0  0  0  0
  191.1900  179.4180  143.5940 N   0  0  0  0  0  2  0  0  0  0  0  0
  191.0920  176.5270  145.8880 C   0  0  0  0  0  2  0  0  0  0  0  0
  190.8200  176.5750  147.3890 C   0  0  2  0  0  3  0  0  0  0  0  0
  189.7660  177.6290  147.7200 C   0  0  0  0  0  2  0  0  0  0  0  0
  188.3720  177.0310  147.8230 C   0  0  0  0  0  1  0  0  0  0  0  0
  192.7210  175.6240  148.0130 C   0  0  0  0  0  1  0  0  0  0  0  0
  192.0020  176.8190  148.0960 O   0  0  0  0  0  0  0  0  0  0  0  0
  185.4370  177.3740  138.3320 C   0  0  2  0  0  3  0  0  0  0  0  0
  186.0880  177.4820  136.9430 C   0  0  2  0  0  3  0  0  0  0  0  0
  187.1180  176.5460  136.8290 O   0  0  0  0  0  1  0  0  0  0  0  0
  187.8900  178.7930  136.0890 O   0  0  0  0  0  1  0  0  0  0  0  0
  186.6530  178.8760  136.7290 C   0  0  0  0  0  2  0  0  0  0  0  0
  184.1580  176.7700  138.3480 O   0  0  0  0  0  0  0  0  0  0  0  0
  183.9660  176.0520  137.1550 C   0  0  0  0  0  2  0  0  0  0  0  0
  183.3390  174.6920  137.4450 C   0  0  2  0  0  3  0  0  0  0  0  0
  185.5260  173.8300  136.9770 O   0  0  0  0  0  0  0  0  0  0  0  0
  183.8780  172.2650  137.2580 O   0  0  0  0  0  1  0  0  0  0  0  0
  184.3130  173.5810  137.2070 C   0  0  0  0  0  0  0  0  0  0  0  0
  182.1890  174.5090  136.6710 O   0  0  0  0  0  0  0  0  0  0  0  0
  182.3620  175.3480  135.5690 C   0  0  0  0  0  1  0  0  0  0  0  0
  1  7  1  0  0  0  0
  1  3  1  0  0  0  0
  3  2  2  0  0  0  0
  3  4  2  0  0  0  0
  5 25  1  1  0  0  0
  5  6  1  0  0  0  0
  5  1  1  0  0  0  0
  6  3  1  0  0  0  0
  7 11  1  0  0  0  0
  8 15  1  0  0  0  0
 10 13  1  0  0  0  0
 10  7  2  0  0  0  0
 11  8  2  0  0  0  0
 11  9  1  0  0  0  0
 13 14  2  0  0  0  0
 14 12  1  0  0  0  0
 14  8  1  0  0  0  0
 15 17  1  0  0  0  0
 16 19  1  0  0  0  0
 17 16  1  0  0  0  0
 18 17  2  0  0  0  0
 20 19  1  6  0  0  0
 20 21  1  0  0  0  0
 20 24  1  0  0  0  0
 21 22  1  0  0  0  0
 23 24  1  0  0  0  0
 25 30  1  6  0  0  0
 26 27  1  1  0  0  0
 26 25  1  0  0  0  0
 28 29  1  0  0  0  0
 29 26  1  0  0  0  0
 31 30  1  0  0  0  0
 32 31  1  6  0  0  0
 33 35  2  0  0  0  0
 35 34  1  0  0  0  0
 35 32  1  0  0  0  0
 36 32  1  0  0  0  0
 37 36  1  0  0  0  0
M  END
>  <MODEL>
8

>  <REMARK>
 VINA RESULT:      -5.5      3.775      6.107
  Name = 
  14 active torsions:
  status: ('A' for Active; 'I' for Inactive)
    1  A    between atoms: C_1  and  C_14
    2  A    between atoms: C_1  and  C_24
    3  A    between atoms: C_1  and  O_33
    4  A    between atoms: C_2  and  N_6
    5  A    between atoms: N_4  and  C_10
    6  A    between atoms: C_5  and  C_34
    7  A    between atoms: C_5  and  C_35
    8  A    between atoms: C_5  and  O_36
    9  A    between atoms: C_7  and  C_20
   10  A    between atoms: C_14  and  C_17
   11  A    between atoms: N_15  and  C_30
   12  A    between atoms: C_20  and  O_29
   13  A    between atoms: C_20  and  C_30
   14  A    between atoms: O_33  and  C_35
                            x       y       z     vdW  Elec       q    Type
                         _______ _______ _______ _____ _____    ______ ____

>  <TORSDO>
F 14

$$$$
=
 OpenBabel11062415293D

 37 38  0  0  1  0  0  0  0  0999 V2000
  189.7860  177.7500  143.0540 N   0  0  0  0  0  0  0  0  0  0  0  0
  192.3250  177.2980  142.2420 O   0  0  0  0  0  0  0  0  0  0  0  0
  191.2390  176.8020  143.1530 S   0  0  0  0  0  0  0  0  0  0  0  0
  190.9910  175.3240  143.0520 O   0  0  0  0  0  0  0  0  0  0  0  0
  190.0840  178.1770  144.4530 C   0  0  2  0  0  3  0  0  0  0  0  0
  191.3460  177.3920  144.7590 C   0  0  0  0  0  2  0  0  0  0  0  0
  188.7940  177.9950  142.0530 C   0  0  0  0  0  0  0  0  0  0  0  0
  188.0000  177.8550  139.7530 C   0  0  0  0  0  0  0  0  0  0  0  0
  190.1640  176.9590  140.3390 O   0  0  0  0  0  1  0  0  0  0  0  0
  187.6030  178.6290  142.4180 C   0  0  0  0  0  3  0  0  0  0  0  0
  188.9940  177.6090  140.7160 C   0  0  0  0  0  0  0  0  0  0  0  0
  185.8580  178.8710  139.1890 O   0  0  0  0  0  1  0  0  0  0  0  0
  186.6260  178.9010  141.4610 C   0  0  0  0  0  3  0  0  0  0  0  0
  186.8230  178.5320  140.1290 C   0  0  0  0  0  0  0  0  0  0  0  0
  188.2410  177.4570  138.3950 N   0  0  0  0  0  2  0  0  0  0  0  0
  189.2380  177.6630  136.1340 N   0  0  0  0  0  2  0  0  0  0  0  0
  188.8980  178.2470  137.3930 C   0  0  0  0  0  0  0  0  0  0  0  0
  189.0510  179.5190  137.5580 N   0  0  0  0  0  2  0  0  0  0  0  0
  189.0170  176.2570  135.8300 C   0  0  0  0  0  2  0  0  0  0  0  0
  190.1710  175.4040  136.3480 C   0  0  2  0  0  3  0  0  0  0  0  0
  191.5170  176.0040  135.9460 C   0  0  0  0  0  2  0  0  0  0  0  0
  192.5670  175.8320  137.0330 C   0  0  0  0  0  1  0  0  0  0  0  0
  189.2810  173.4380  136.8450 C   0  0  0  0  0  1  0  0  0  0  0  0
  190.0590  174.0890  135.8850 O   0  0  0  0  0  0  0  0  0  0  0  0
  188.9130  177.8520  145.4060 C   0  0  2  0  0  3  0  0  0  0  0  0
  189.3180  177.4950  146.8460 C   0  0  2  0  0  3  0  0  0  0  0  0
  188.6600  176.3310  147.2470 O   0  0  0  0  0  1  0  0  0  0  0  0
  188.1840  178.1330  148.8470 O   0  0  0  0  0  1  0  0  0  0  0  0
  188.9560  178.6260  147.7940 C   0  0  0  0  0  2  0  0  0  0  0  0
  187.9030  177.0350  144.8480 O   0  0  0  0  0  0  0  0  0  0  0  0
  186.7610  177.0800  145.6660 C   0  0  0  0  0  2  0  0  0  0  0  0
  186.0180  178.3980  145.4750 C   0  0  2  0  0  3  0  0  0  0  0  0
  184.5250  178.2530  147.3440 O   0  0  0  0  0  1  0  0  0  0  0  0
  185.9400  180.0550  147.3360 O   0  0  0  0  0  0  0  0  0  0  0  0
  185.4440  178.8920  146.7650 C   0  0  0  0  0  0  0  0  0  0  0  0
  185.0140  178.2590  144.5120 O   0  0  0  0  0  0  0  0  0  0  0  0
  184.5240  179.5510  144.3170 C   0  0  0  0  0  1  0  0  0  0  0  0
  1  3  1  0  0  0  0
  1  5  1  0  0  0  0
  2  3  2  0  0  0  0
  3  6  1  0  0  0  0
  4  3  2  0  0  0  0
  5  6  1  0  0  0  0
  5 25  1  1  0  0  0
  7 10  1  0  0  0  0
  7  1  1  0  0  0  0
  8 14  2  0  0  0  0
  8 11  1  0  0  0  0
  9 11  1  0  0  0  0
 11  7  2  0  0  0  0
 12 14  1  0  0  0  0
 13 10  2  0  0  0  0
 14 13  1  0  0  0  0
 15  8  1  0  0  0  0
 16 17  1  0  0  0  0
 17 18  2  0  0  0  0
 17 15  1  0  0  0  0
 19 16  1  0  0  0  0
 20 19  1  6  0  0  0
 21 20  1  0  0  0  0
 21 22  1  0  0  0  0
 24 20  1  0  0  0  0
 24 23  1  0  0  0  0
 25 30  1  6  0  0  0
 25 26  1  0  0  0  0
 26 27  1  1  0  0  0
 26 29  1  0  0  0  0
 29 28  1  0  0  0  0
 30 31  1  0  0  0  0
 32 31  1  1  0  0  0
 32 35  1  0  0  0  0
 35 34  2  0  0  0  0
 35 33  1  0  0  0  0
 36 32  1  0  0  0  0
 37 36  1  0  0  0  0
M  END
>  <MODEL>
9

>  <REMARK>
 VINA RESULT:      -5.4      4.444      8.548
  Name = 
  14 active torsions:
  status: ('A' for Active; 'I' for Inactive)
    1  A    between atoms: C_1  and  C_14
    2  A    between atoms: C_1  and  C_24
    3  A    between atoms: C_1  and  O_33
    4  A    between atoms: C_2  and  N_6
    5  A    between atoms: N_4  and  C_10
    6  A    between atoms: C_5  and  C_34
    7  A    between atoms: C_5  and  C_35
    8  A    between atoms: C_5  and  O_36
    9  A    between atoms: C_7  and  C_20
   10  A    between atoms: C_14  and  C_17
   11  A    between atoms: N_15  and  C_30
   12  A    between atoms: C_20  and  O_29
   13  A    between atoms: C_20  and  C_30
   14  A    between atoms: O_33  and  C_35
                            x       y       z     vdW  Elec       q    Type
                         _______ _______ _______ _____ _____    ______ ____

>  <TORSDO>
F 14

$$$$
