=
 OpenBabel11062413503D

 52 54  0  0  1  0  0  0  0  0999 V2000
  185.7990  179.1530  145.8330 C   0  0  0  0  0  2  0  0  0  0  0  0
  183.4800  178.8920  144.1620 C   0  0  0  0  0  0  0  0  0  0  0  0
  182.2350  178.8710  144.4450 O   0  0  0  0  0  0  0  0  0  0  0  0
  184.3970  178.7730  145.3100 N   0  0  0  0  0  2  0  0  0  0  0  0
  183.7310  178.6670  142.6480 C   0  0  1  0  0  3  0  0  0  0  0  0
  185.1680  178.0790  142.2640 C   0  0  0  0  0  2  0  0  0  0  0  0
  186.1650  178.9450  141.5550 C   0  0  0  0  0  0  0  0  0  0  0  0
  186.4340  180.0760  142.2620 O   0  0  0  0  0  1  0  0  0  0  0  0
  186.8520  178.6270  140.4340 O   0  0  0  0  0  0  0  0  0  0  0  0
  182.7990  178.7660  141.3230 C   0  0  1  0  0  3  0  0  0  0  0  0
  183.6640  178.9760  138.8260 C   0  0  0  0  0  0  0  0  0  0  0  0
  183.4340  177.0820  137.3570 C   0  0  0  0  0  3  0  0  0  0  0  0
  184.2260  180.2640  138.9220 O   0  0  0  0  0  1  0  0  0  0  0  0
  183.1000  178.2550  139.9040 C   0  0  0  0  0  0  0  0  0  0  0  0
  183.7830  178.4130  137.5740 C   0  0  0  0  0  3  0  0  0  0  0  0
  182.9040  176.3310  138.3930 C   0  0  0  0  0  0  0  0  0  0  0  0
  182.5340  174.9120  138.1260 C   0  0  0  0  0  1  0  0  0  0  0  0
  182.7070  176.8740  139.6270 C   0  0  0  0  0  3  0  0  0  0  0  0
  181.4340  178.0620  141.6330 C   0  0  0  0  0  2  0  0  0  0  0  0
  180.1970  178.6940  140.9530 C   0  0  1  0  0  3  0  0  0  0  0  0
  178.9440  177.9650  141.1000 C   0  0  0  0  0  2  0  0  0  0  0  0
  179.1360  176.7810  141.8780 O   0  0  0  0  0  1  0  0  0  0  0  0
  180.0840  180.2780  140.8680 C   0  0  0  0  0  2  0  0  0  0  0  0
  180.1260  179.2290  137.8690 C   0  0  0  0  0  1  0  0  0  0  0  0
  181.0230  181.5720  139.0210 O   0  0  0  0  0  0  0  0  0  0  0  0
  179.9080  180.6050  139.1170 S   0  0  2  0  0  0  0  0  0  0  0  0
  186.0020  176.8460  145.5550 C   0  0  0  0  0  1  0  0  0  0  0  0
  186.7570  178.0070  146.2400 C   0  0  1  0  0  3  0  0  0  0  0  0
  188.2890  178.1260  145.8060 C   0  0  0  0  0  2  0  0  0  0  0  0
  188.9860  177.7430  143.3770 C   0  0  0  0  0  2  0  0  0  0  0  0
  188.7210  177.3040  144.6120 C   0  0  0  0  0  2  0  0  0  0  0  0
  189.6480  176.7300  142.5330 C   0  0  0  0  0  2  0  0  0  0  0  0
  190.1610  177.3940  141.3490 N   0  0  0  0  0  0  0  0  0  0  0  0
  191.6340  177.5030  141.4440 C   0  0  0  0  0  1  0  0  0  0  0  0
  189.7610  176.7260  140.1150 C   0  0  0  0  0  2  0  0  0  0  0  0
  190.3150  177.0880  138.7860 C   0  0  2  0  0  3  0  0  0  0  0  0
  188.9730  176.2050  136.9610 C   0  0  0  0  0  3  0  0  0  0  0  0
  188.5870  178.5140  137.4420 C   0  0  0  0  0  0  0  0  0  0  0  0
  187.0670  177.3750  135.8340 C   0  0  0  0  0  0  0  0  0  0  0  0
  187.4460  178.5450  136.4840 C   0  0  0  0  0  3  0  0  0  0  0  0
  186.0040  177.3980  134.9980 O   0  0  0  0  0  1  0  0  0  0  0  0
  189.0330  179.5980  137.9650 O   0  0  0  0  0  1  0  0  0  0  0  0
  189.1850  177.2260  137.7430 C   0  0  0  0  0  0  0  0  0  0  0  0
  187.7990  176.0940  135.9700 C   0  0  0  0  0  3  0  0  0  0  0  0
  191.2340  175.9620  138.3510 N   0  0  0  0  0  2  0  0  0  0  0  0
  193.2940  176.9390  138.3060 O   0  0  0  0  0  0  0  0  0  0  0  0
  192.5600  175.9900  137.9910 C   0  0  0  0  0  0  0  0  0  0  0  0
  193.0810  175.0280  137.0320 C   0  0  0  0  0  3  0  0  0  0  0  0
  194.2620  174.3560  137.0650 C   0  0  0  0  0  3  0  0  0  0  0  0
  195.3720  174.3860  138.1130 C   0  0  0  0  0  3  0  0  0  0  0  0
  196.3220  173.1230  138.3030 C   0  0  0  0  0  2  0  0  0  0  0  0
  196.6250  173.9490  137.1900 C   0  0  0  0  0  2  0  0  0  0  0  0
  1 28  1  0  0  0  0
  2  3  2  0  0  0  0
  2  4  1  0  0  0  0
  4  1  1  0  0  0  0
  5  6  1  1  0  0  0
  5  2  1  0  0  0  0
  7  8  1  0  0  0  0
  7  6  1  0  0  0  0
  9  7  2  0  0  0  0
 10 19  1  1  0  0  0
 10  5  1  0  0  0  0
 11 13  1  0  0  0  0
 11 14  1  0  0  0  0
 12 15  1  0  0  0  0
 12 16  2  0  0  0  0
 14 10  1  0  0  0  0
 15 11  2  0  0  0  0
 16 18  1  0  0  0  0
 17 16  1  0  0  0  0
 18 14  2  0  0  0  0
 20 23  1  1  0  0  0
 20 21  1  0  0  0  0
 20 19  1  0  0  0  0
 21 22  1  0  0  0  0
 25 26  2  0  0  0  0
 26 24  1  6  0  0  0
 26 23  1  0  0  0  0
 28 27  1  6  0  0  0
 29 28  1  0  0  0  0
 30 31  1  0  0  0  0
 31 29  1  0  0  0  0
 32 30  1  0  0  0  0
 33 34  1  0  0  0  0
 33 32  1  0  0  0  0
 35 33  1  0  0  0  0
 36 35  1  1  0  0  0
 37 43  1  0  0  0  0
 38 43  2  0  0  0  0
 38 42  1  0  0  0  0
 39 44  1  0  0  0  0
 39 40  2  0  0  0  0
 40 38  1  0  0  0  0
 41 39  1  0  0  0  0
 43 36  1  0  0  0  0
 44 37  2  0  0  0  0
 45 36  1  0  0  0  0
 47 46  2  0  0  0  0
 47 45  1  0  0  0  0
 48 49  2  0  0  0  0
 48 47  1  0  0  0  0
 49 50  1  0  0  0  0
 50 51  1  0  0  0  0
 52 50  1  0  0  0  0
 52 51  1  0  0  0  0
M  END
>  <MODEL>
1

>  <REMARK>
 VINA RESULT:      -6.6      0.000      0.000
  Name = 
  22 active torsions:
  status: ('A' for Active; 'I' for Inactive)
    1  A    between atoms: N_3  and  C_33
    2  A    between atoms: N_3  and  C_46
    3  A    between atoms: C_4  and  C_33
    4  A    between atoms: C_5  and  C_48
    5  A    between atoms: C_6  and  C_21
    6  A    between atoms: C_7  and  C_41
    7  A    between atoms: C_7  and  C_51
    8  A    between atoms: C_8  and  C_23
    9  A    between atoms: S_12  and  C_40
   10  A    between atoms: C_13  and  C_18
   11  A    between atoms: C_13  and  C_25
   12  A    between atoms: N_17  and  C_37
   13  A    between atoms: C_18  and  C_24
   14  A    between atoms: C_18  and  C_40
   15  A    between atoms: C_21  and  C_23
   16  A    between atoms: C_23  and  C_25
   17  A    between atoms: C_25  and  C_31
   18  A    between atoms: C_29  and  C_36
   19  A    between atoms: C_35  and  C_37
   20  A    between atoms: C_37  and  C_46
   21  A    between atoms: C_39  and  N_49
   22  A    between atoms: C_39  and  C_51
                            x       y       z     vdW  Elec       q    Type
                         _______ _______ _______ _____ _____    ______ ____

>  <TORSDO>
F 22

$$$$
=
 OpenBabel11062413503D

 52 54  0  0  1  0  0  0  0  0999 V2000
  189.2360  177.6870  140.3560 C   0  0  0  0  0  3  0  0  0  0  0  0
  188.6520  176.4760  142.8920 C   0  0  0  0  0  0  0  0  0  0  0  0
  188.3070  175.2850  143.1970 O   0  0  0  0  0  0  0  0  0  0  0  0
  188.6080  176.8030  141.4550 N   0  0  0  0  0  0  0  0  0  0  0  0
  188.6810  177.4050  144.1330 C   0  0  1  0  0  3  0  0  0  0  0  0
  190.1300  177.9050  144.5910 C   0  0  0  0  0  2  0  0  0  0  0  0
  191.0020  178.6490  143.6260 C   0  0  0  0  0  0  0  0  0  0  0  0
  190.9380  179.9930  143.8320 O   0  0  0  0  0  1  0  0  0  0  0  0
  191.8740  178.1060  142.7460 O   0  0  0  0  0  0  0  0  0  0  0  0
  187.5350  178.1240  145.0310 C   0  0  1  0  0  3  0  0  0  0  0  0
  185.0340  178.8640  145.5030 C   0  0  0  0  0  0  0  0  0  0  0  0
  183.4380  178.7760  143.7020 C   0  0  0  0  0  3  0  0  0  0  0  0
  185.2060  179.2930  146.8330 O   0  0  0  0  0  1  0  0  0  0  0  0
  186.0730  178.4210  144.6540 C   0  0  0  0  0  0  0  0  0  0  0  0
  183.7410  178.9930  145.0440 C   0  0  0  0  0  3  0  0  0  0  0  0
  184.4330  178.3660  142.8290 C   0  0  0  0  0  0  0  0  0  0  0  0
  184.0750  178.1350  141.4000 C   0  0  0  0  0  1  0  0  0  0  0  0
  185.7090  178.1620  143.2620 C   0  0  0  0  0  3  0  0  0  0  0  0
  187.3630  177.3000  146.3530 C   0  0  0  0  0  2  0  0  0  0  0  0
  188.4830  177.4970  147.4020 C   0  0  1  0  0  3  0  0  0  0  0  0
  188.2320  178.5090  148.4220 C   0  0  0  0  0  2  0  0  0  0  0  0
  188.0420  177.9000  149.7010 O   0  0  0  0  0  1  0  0  0  0  0  0
  189.3530  176.2450  147.8520 C   0  0  0  0  0  2  0  0  0  0  0  0
  192.4380  175.5040  147.6860 C   0  0  0  0  0  1  0  0  0  0  0  0
  191.1330  177.8860  148.1810 O   0  0  0  0  0  0  0  0  0  0  0  0
  191.0160  176.6710  147.3460 S   0  0  2  0  0  0  0  0  0  0  0  0
  189.1660  178.9830  138.4180 C   0  0  0  0  0  1  0  0  0  0  0  0
  188.6120  177.6380  138.9400 C   0  0  1  0  0  3  0  0  0  0  0  0
  188.9680  176.3890  138.0110 C   0  0  0  0  0  3  0  0  0  0  0  0
  186.5360  176.1290  137.2700 C   0  0  0  0  0  2  0  0  0  0  0  0
  187.8220  175.7690  137.2430 C   0  0  0  0  0  3  0  0  0  0  0  0
  185.7370  175.5060  136.1980 C   0  0  0  0  0  2  0  0  0  0  0  0
  184.6470  176.4050  135.8650 N   0  0  0  0  0  0  0  0  0  0  0  0
  184.9520  177.0990  134.5940 C   0  0  0  0  0  1  0  0  0  0  0  0
  183.3590  175.7230  135.7980 C   0  0  0  0  0  2  0  0  0  0  0  0
  182.4140  175.6720  136.9410 C   0  0  2  0  0  3  0  0  0  0  0  0
  181.3420  173.8920  135.6760 C   0  0  0  0  0  3  0  0  0  0  0  0
  180.6970  173.9940  137.9750 C   0  0  0  0  0  0  0  0  0  0  0  0
  179.9530  172.0390  136.6280 C   0  0  0  0  0  0  0  0  0  0  0  0
  179.9360  172.7210  137.8400 C   0  0  0  0  0  3  0  0  0  0  0  0
  179.2950  170.8610  136.5230 O   0  0  0  0  0  1  0  0  0  0  0  0
  180.6040  174.7040  139.0410 O   0  0  0  0  0  1  0  0  0  0  0  0
  181.5250  174.4110  136.8570 C   0  0  0  0  0  0  0  0  0  0  0  0
  180.6220  172.5560  135.4120 C   0  0  0  0  0  3  0  0  0  0  0  0
  181.5200  176.8940  136.8520 N   0  0  0  0  0  2  0  0  0  0  0  0
  182.6150  178.4510  138.1070 O   0  0  0  0  0  0  0  0  0  0  0  0
  181.5770  178.0840  137.5350 C   0  0  0  0  0  0  0  0  0  0  0  0
  180.3600  178.8340  137.8090 C   0  0  0  0  0  3  0  0  0  0  0  0
  179.6890  178.9550  138.9850 C   0  0  0  0  0  3  0  0  0  0  0  0
  180.0150  178.3740  140.3590 C   0  0  0  0  0  3  0  0  0  0  0  0
  180.5360  179.3270  141.5230 C   0  0  0  0  0  2  0  0  0  0  0  0
  179.1370  179.3660  141.2850 C   0  0  0  0  0  2  0  0  0  0  0  0
  1  4  2  0  0  0  0
  2  3  2  0  0  0  0
  2  5  1  0  0  0  0
  4  2  1  0  0  0  0
  5  6  1  6  0  0  0
  5 10  1  0  0  0  0
  7  8  1  0  0  0  0
  7  6  1  0  0  0  0
  9  7  2  0  0  0  0
 10 19  1  1  0  0  0
 11 13  1  0  0  0  0
 12 15  2  0  0  0  0
 14 10  1  0  0  0  0
 14 11  2  0  0  0  0
 15 11  1  0  0  0  0
 16 18  2  0  0  0  0
 16 12  1  0  0  0  0
 17 16  1  0  0  0  0
 18 14  1  0  0  0  0
 20 19  1  1  0  0  0
 20 23  1  0  0  0  0
 20 21  1  0  0  0  0
 21 22  1  0  0  0  0
 26 24  1  1  0  0  0
 26 23  1  0  0  0  0
 26 25  2  0  0  0  0
 28 27  1  6  0  0  0
 28  1  1  0  0  0  0
 29 28  1  0  0  0  0
 31 30  1  0  0  0  0
 31 29  2  0  0  0  0
 32 30  1  0  0  0  0
 33 32  1  0  0  0  0
 34 33  1  0  0  0  0
 35 33  1  0  0  0  0
 36 35  1  6  0  0  0
 37 43  1  0  0  0  0
 38 42  1  0  0  0  0
 39 40  2  0  0  0  0
 40 38  1  0  0  0  0
 41 39  1  0  0  0  0
 43 36  1  0  0  0  0
 43 38  2  0  0  0  0
 44 37  2  0  0  0  0
 44 39  1  0  0  0  0
 45 36  1  0  0  0  0
 45 47  1  0  0  0  0
 47 48  1  0  0  0  0
 47 46  2  0  0  0  0
 48 49  2  0  0  0  0
 49 50  1  0  0  0  0
 50 52  1  0  0  0  0
 50 51  1  0  0  0  0
 52 51  1  0  0  0  0
M  END
>  <MODEL>
2

>  <REMARK>
 VINA RESULT:      -5.7      3.906      9.662
  Name = 
  22 active torsions:
  status: ('A' for Active; 'I' for Inactive)
    1  A    between atoms: N_3  and  C_33
    2  A    between atoms: N_3  and  C_46
    3  A    between atoms: C_4  and  C_33
    4  A    between atoms: C_5  and  C_48
    5  A    between atoms: C_6  and  C_21
    6  A    between atoms: C_7  and  C_41
    7  A    between atoms: C_7  and  C_51
    8  A    between atoms: C_8  and  C_23
    9  A    between atoms: S_12  and  C_40
   10  A    between atoms: C_13  and  C_18
   11  A    between atoms: C_13  and  C_25
   12  A    between atoms: N_17  and  C_37
   13  A    between atoms: C_18  and  C_24
   14  A    between atoms: C_18  and  C_40
   15  A    between atoms: C_21  and  C_23
   16  A    between atoms: C_23  and  C_25
   17  A    between atoms: C_25  and  C_31
   18  A    between atoms: C_29  and  C_36
   19  A    between atoms: C_35  and  C_37
   20  A    between atoms: C_37  and  C_46
   21  A    between atoms: C_39  and  N_49
   22  A    between atoms: C_39  and  C_51
                            x       y       z     vdW  Elec       q    Type
                         _______ _______ _______ _____ _____    ______ ____

>  <TORSDO>
F 22

$$$$
=
 OpenBabel11062413503D

 52 54  0  0  1  0  0  0  0  0999 V2000
  182.3080  178.5490  141.8900 C   0  0  0  0  0  2  0  0  0  0  0  0
  183.5740  179.3950  139.4570 C   0  0  0  0  0  0  0  0  0  0  0  0
  184.1040  180.5080  139.1260 O   0  0  0  0  0  0  0  0  0  0  0  0
  182.7820  179.4110  140.7000 N   0  0  0  0  0  2  0  0  0  0  0  0
  183.5810  178.3800  138.2840 C   0  0  1  0  0  3  0  0  0  0  0  0
  184.9670  177.6220  138.0330 C   0  0  0  0  0  2  0  0  0  0  0  0
  186.2520  178.3920  138.0440 C   0  0  0  0  0  0  0  0  0  0  0  0
  186.7730  178.4740  139.2990 O   0  0  0  0  0  1  0  0  0  0  0  0
  186.9310  178.8410  136.9630 O   0  0  0  0  0  0  0  0  0  0  0  0
  182.4360  177.7870  137.2990 C   0  0  1  0  0  3  0  0  0  0  0  0
  182.9890  176.0620  135.3640 C   0  0  0  0  0  0  0  0  0  0  0  0
  182.0590  173.8440  135.4850 C   0  0  0  0  0  3  0  0  0  0  0  0
  183.8900  176.8650  134.6390 O   0  0  0  0  0  1  0  0  0  0  0  0
  182.3960  176.4190  136.5960 C   0  0  0  0  0  0  0  0  0  0  0  0
  182.7850  174.8190  134.8050 C   0  0  0  0  0  3  0  0  0  0  0  0
  181.4830  174.1430  136.7100 C   0  0  0  0  0  0  0  0  0  0  0  0
  180.7070  173.0800  137.4100 C   0  0  0  0  0  1  0  0  0  0  0  0
  181.6060  175.3830  137.2620 C   0  0  0  0  0  3  0  0  0  0  0  0
  181.0760  177.7840  138.0790 C   0  0  0  0  0  2  0  0  0  0  0  0
  180.1860  179.0290  137.8530 C   0  0  1  0  0  3  0  0  0  0  0  0
  179.0630  178.8550  136.9390 C   0  0  0  0  0  2  0  0  0  0  0  0
  179.1610  177.6050  136.2510 O   0  0  0  0  0  1  0  0  0  0  0  0
  179.9650  180.0520  139.0500 C   0  0  0  0  0  2  0  0  0  0  0  0
  179.1770  182.7930  137.6490 C   0  0  0  0  0  1  0  0  0  0  0  0
  181.3130  181.0810  137.2910 O   0  0  0  0  0  0  0  0  0  0  0  0
  180.4560  181.6310  138.3640 S   0  0  2  0  0  0  0  0  0  0  0  0
  180.9510  178.5660  143.7870 C   0  0  0  0  0  1  0  0  0  0  0  0
  182.2680  179.2050  143.2920 C   0  0  1  0  0  3  0  0  0  0  0  0
  183.5100  178.9620  144.2660 C   0  0  0  0  0  2  0  0  0  0  0  0
  185.8970  178.2070  143.7510 C   0  0  0  0  0  2  0  0  0  0  0  0
  184.8870  179.0760  143.6500 C   0  0  0  0  0  2  0  0  0  0  0  0
  186.9950  178.4830  142.8050 C   0  0  0  0  0  2  0  0  0  0  0  0
  188.0390  177.5000  143.0270 N   0  0  0  0  0  0  0  0  0  0  0  0
  187.4560  176.2960  143.6610 C   0  0  0  0  0  1  0  0  0  0  0  0
  188.7530  177.1560  141.8010 C   0  0  0  0  0  2  0  0  0  0  0  0
  190.0770  177.7280  141.4530 C   0  0  2  0  0  3  0  0  0  0  0  0
  189.7160  176.4940  139.3890 C   0  0  0  0  0  3  0  0  0  0  0  0
  191.9830  177.1530  139.7590 C   0  0  0  0  0  0  0  0  0  0  0  0
  191.3850  176.1780  137.5490 C   0  0  0  0  0  0  0  0  0  0  0  0
  192.3650  176.6810  138.3990 C   0  0  0  0  0  3  0  0  0  0  0  0
  191.7300  175.7900  136.3000 O   0  0  0  0  0  1  0  0  0  0  0  0
  192.8800  177.5110  140.6050 O   0  0  0  0  0  1  0  0  0  0  0  0
  190.5710  177.1750  140.0980 C   0  0  0  0  0  0  0  0  0  0  0  0
  189.9710  175.9970  137.9530 C   0  0  0  0  0  3  0  0  0  0  0  0
  191.0590  177.3040  142.5290 N   0  0  0  0  0  2  0  0  0  0  0  0
  190.5170  175.1240  142.9180 O   0  0  0  0  0  0  0  0  0  0  0  0
  191.1100  176.1530  143.2770 C   0  0  0  0  0  0  0  0  0  0  0  0
  191.6590  176.1760  144.6240 C   0  0  0  0  0  3  0  0  0  0  0  0
  191.1540  176.7800  145.7330 C   0  0  0  0  0  3  0  0  0  0  0  0
  189.8670  177.5840  145.9050 C   0  0  0  0  0  3  0  0  0  0  0  0
  188.7270  177.0600  146.8850 C   0  0  0  0  0  2  0  0  0  0  0  0
  189.8300  177.6900  147.5170 C   0  0  0  0  0  2  0  0  0  0  0  0
  1 28  1  0  0  0  0
  2  4  1  0  0  0  0
  3  2  2  0  0  0  0
  4  1  1  0  0  0  0
  5  6  1  1  0  0  0
  5  2  1  0  0  0  0
  6  7  1  0  0  0  0
  7  8  1  0  0  0  0
  9  7  2  0  0  0  0
 10 19  1  1  0  0  0
 10  5  1  0  0  0  0
 11 14  1  0  0  0  0
 12 16  2  0  0  0  0
 13 11  1  0  0  0  0
 14 18  2  0  0  0  0
 14 10  1  0  0  0  0
 15 11  2  0  0  0  0
 15 12  1  0  0  0  0
 16 18  1  0  0  0  0
 16 17  1  0  0  0  0
 20 21  1  1  0  0  0
 20 19  1  0  0  0  0
 20 23  1  0  0  0  0
 22 21  1  0  0  0  0
 25 26  2  0  0  0  0
 26 24  1  6  0  0  0
 26 23  1  0  0  0  0
 28 27  1  1  0  0  0
 28 29  1  0  0  0  0
 31 30  1  0  0  0  0
 31 29  1  0  0  0  0
 32 33  1  0  0  0  0
 32 30  1  0  0  0  0
 33 34  1  0  0  0  0
 35 33  1  0  0  0  0
 36 35  1  1  0  0  0
 36 45  1  0  0  0  0
 37 43  1  0  0  0  0
 38 43  2  0  0  0  0
 38 42  1  0  0  0  0
 39 44  1  0  0  0  0
 39 40  2  0  0  0  0
 40 38  1  0  0  0  0
 41 39  1  0  0  0  0
 43 36  1  0  0  0  0
 44 37  2  0  0  0  0
 45 47  1  0  0  0  0
 46 47  2  0  0  0  0
 47 48  1  0  0  0  0
 48 49  2  0  0  0  0
 49 50  1  0  0  0  0
 50 51  1  0  0  0  0
 50 52  1  0  0  0  0
 51 52  1  0  0  0  0
M  END
>  <MODEL>
3

>  <REMARK>
 VINA RESULT:      -5.7      2.519      5.190
  Name = 
  22 active torsions:
  status: ('A' for Active; 'I' for Inactive)
    1  A    between atoms: N_3  and  C_33
    2  A    between atoms: N_3  and  C_46
    3  A    between atoms: C_4  and  C_33
    4  A    between atoms: C_5  and  C_48
    5  A    between atoms: C_6  and  C_21
    6  A    between atoms: C_7  and  C_41
    7  A    between atoms: C_7  and  C_51
    8  A    between atoms: C_8  and  C_23
    9  A    between atoms: S_12  and  C_40
   10  A    between atoms: C_13  and  C_18
   11  A    between atoms: C_13  and  C_25
   12  A    between atoms: N_17  and  C_37
   13  A    between atoms: C_18  and  C_24
   14  A    between atoms: C_18  and  C_40
   15  A    between atoms: C_21  and  C_23
   16  A    between atoms: C_23  and  C_25
   17  A    between atoms: C_25  and  C_31
   18  A    between atoms: C_29  and  C_36
   19  A    between atoms: C_35  and  C_37
   20  A    between atoms: C_37  and  C_46
   21  A    between atoms: C_39  and  N_49
   22  A    between atoms: C_39  and  C_51
                            x       y       z     vdW  Elec       q    Type
                         _______ _______ _______ _____ _____    ______ ____

>  <TORSDO>
F 22

$$$$
=
 OpenBabel11062413503D

 52 54  0  0  1  0  0  0  0  0999 V2000
  189.5930  177.5360  139.7860 C   0  0  0  0  0  2  0  0  0  0  0  0
  189.0350  176.6980  142.4740 C   0  0  0  0  0  0  0  0  0  0  0  0
  189.0870  175.5480  143.0260 O   0  0  0  0  0  0  0  0  0  0  0  0
  189.1350  176.7040  141.0030 N   0  0  0  0  0  2  0  0  0  0  0  0
  188.5100  177.7840  143.4490 C   0  0  0  0  0  0  0  0  0  0  0  0
  189.6320  178.6480  144.1930 C   0  0  0  0  0  3  0  0  0  0  0  0
  191.0750  178.2680  144.0620 C   0  0  0  0  0  0  0  0  0  0  0  0
  191.5330  178.4780  142.7980 O   0  0  0  0  0  0  0  0  0  0  0  0
  191.9050  177.9040  145.0660 O   0  0  0  0  0  1  0  0  0  0  0  0
  187.0350  178.3610  143.8060 C   0  0  1  0  0  3  0  0  0  0  0  0
  184.4490  178.5180  143.2430 C   0  0  0  0  0  0  0  0  0  0  0  0
  183.7720  178.6650  140.9370 C   0  0  0  0  0  3  0  0  0  0  0  0
  183.9660  178.5880  144.5640 O   0  0  0  0  0  1  0  0  0  0  0  0
  185.8160  178.5030  142.8790 C   0  0  0  0  0  0  0  0  0  0  0  0
  183.4560  178.5520  142.2890 C   0  0  0  0  0  3  0  0  0  0  0  0
  185.0990  178.6810  140.5390 C   0  0  0  0  0  0  0  0  0  0  0  0
  185.4040  178.7960  139.0840 C   0  0  0  0  0  1  0  0  0  0  0  0
  186.1080  178.5800  141.4480 C   0  0  0  0  0  3  0  0  0  0  0  0
  186.4470  177.5040  144.9780 C   0  0  0  0  0  2  0  0  0  0  0  0
  186.6630  178.0880  146.3940 C   0  0  1  0  0  3  0  0  0  0  0  0
  185.6490  179.0260  146.8610 C   0  0  0  0  0  2  0  0  0  0  0  0
  186.1900  179.9050  147.8510 O   0  0  0  0  0  1  0  0  0  0  0  0
  187.3530  177.1870  147.5080 C   0  0  0  0  0  2  0  0  0  0  0  0
  190.4580  176.5230  147.3830 C   0  0  0  0  0  1  0  0  0  0  0  0
  189.0140  178.3360  148.8830 O   0  0  0  0  0  0  0  0  0  0  0  0
  189.0520  177.7490  147.5260 S   0  0  2  0  0  0  0  0  0  0  0  0
  189.1580  178.8090  137.8810 C   0  0  0  0  0  1  0  0  0  0  0  0
  188.7540  177.4470  138.4880 C   0  0  1  0  0  3  0  0  0  0  0  0
  189.0120  176.2060  137.5170 C   0  0  0  0  0  3  0  0  0  0  0  0
  186.5070  175.8310  137.1770 C   0  0  0  0  0  2  0  0  0  0  0  0
  187.7870  175.5400  136.9290 C   0  0  0  0  0  3  0  0  0  0  0  0
  185.5740  175.1860  136.2330 C   0  0  0  0  0  2  0  0  0  0  0  0
  184.3550  175.9740  136.1940 N   0  0  0  0  0  0  0  0  0  0  0  0
  184.4370  176.9540  135.0890 C   0  0  0  0  0  1  0  0  0  0  0  0
  183.1590  175.1470  136.0770 C   0  0  0  0  0  2  0  0  0  0  0  0
  182.6670  174.2800  137.1770 C   0  0  2  0  0  3  0  0  0  0  0  0
  180.7230  172.9450  136.5830 C   0  0  0  0  0  3  0  0  0  0  0  0
  182.8060  171.7880  136.4020 C   0  0  0  0  0  0  0  0  0  0  0  0
  180.7600  170.6790  135.5190 C   0  0  0  0  0  0  0  0  0  0  0  0
  182.1270  170.6190  135.7760 C   0  0  0  0  0  3  0  0  0  0  0  0
  180.1560  169.6320  134.9110 O   0  0  0  0  0  1  0  0  0  0  0  0
  184.0370  171.7170  136.7580 O   0  0  0  0  0  1  0  0  0  0  0  0
  182.0250  172.9930  136.6130 C   0  0  0  0  0  0  0  0  0  0  0  0
  179.9060  171.8210  135.9190 C   0  0  0  0  0  3  0  0  0  0  0  0
  181.6030  175.0550  137.9320 N   0  0  0  0  0  2  0  0  0  0  0  0
  182.7010  175.8070  139.7830 O   0  0  0  0  0  0  0  0  0  0  0  0
  181.6300  175.5950  139.1940 C   0  0  0  0  0  0  0  0  0  0  0  0
  180.4040  175.7120  139.9690 C   0  0  0  0  0  3  0  0  0  0  0  0
  179.8000  176.8400  140.4310 C   0  0  0  0  0  3  0  0  0  0  0  0
  180.2040  178.3020  140.2600 C   0  0  0  0  0  3  0  0  0  0  0  0
  179.0900  179.4400  140.2540 C   0  0  0  0  0  2  0  0  0  0  0  0
  179.4440  178.9420  141.5350 C   0  0  0  0  0  2  0  0  0  0  0  0
  1  4  1  0  0  0  0
  2  3  2  0  0  0  0
  2  5  1  0  0  0  0
  4  2  1  0  0  0  0
  5 10  1  0  0  0  0
  5  6  2  0  0  0  0
  7  6  1  0  0  0  0
  7  9  1  0  0  0  0
  8  7  2  0  0  0  0
 10 19  1  1  0  0  0
 11 13  1  0  0  0  0
 12 15  1  0  0  0  0
 14 11  1  0  0  0  0
 14 10  1  0  0  0  0
 15 11  2  0  0  0  0
 16 12  2  0  0  0  0
 16 18  1  0  0  0  0
 17 16  1  0  0  0  0
 18 14  2  0  0  0  0
 20 19  1  6  0  0  0
 20 21  1  0  0  0  0
 20 23  1  0  0  0  0
 21 22  1  0  0  0  0
 23 26  1  0  0  0  0
 26 24  1  1  0  0  0
 26 25  2  0  0  0  0
 28 27  1  6  0  0  0
 28  1  1  0  0  0  0
 29 28  1  0  0  0  0
 31 30  1  0  0  0  0
 31 29  2  0  0  0  0
 32 30  1  0  0  0  0
 33 32  1  0  0  0  0
 34 33  1  0  0  0  0
 35 33  1  0  0  0  0
 36 35  1  6  0  0  0
 36 45  1  0  0  0  0
 37 43  1  0  0  0  0
 38 43  2  0  0  0  0
 38 42  1  0  0  0  0
 39 40  2  0  0  0  0
 39 44  1  0  0  0  0
 40 38  1  0  0  0  0
 41 39  1  0  0  0  0
 43 36  1  0  0  0  0
 44 37  2  0  0  0  0
 45 47  1  0  0  0  0
 47 46  2  0  0  0  0
 47 48  1  0  0  0  0
 48 49  2  0  0  0  0
 50 49  1  0  0  0  0
 50 52  1  0  0  0  0
 51 50  1  0  0  0  0
 51 52  1  0  0  0  0
M  END
>  <MODEL>
4

>  <REMARK>
 VINA RESULT:      -5.6      3.911      9.264
  Name = 
  22 active torsions:
  status: ('A' for Active; 'I' for Inactive)
    1  A    between atoms: N_3  and  C_33
    2  A    between atoms: N_3  and  C_46
    3  A    between atoms: C_4  and  C_33
    4  A    between atoms: C_5  and  C_48
    5  A    between atoms: C_6  and  C_21
    6  A    between atoms: C_7  and  C_41
    7  A    between atoms: C_7  and  C_51
    8  A    between atoms: C_8  and  C_23
    9  A    between atoms: S_12  and  C_40
   10  A    between atoms: C_13  and  C_18
   11  A    between atoms: C_13  and  C_25
   12  A    between atoms: N_17  and  C_37
   13  A    between atoms: C_18  and  C_24
   14  A    between atoms: C_18  and  C_40
   15  A    between atoms: C_21  and  C_23
   16  A    between atoms: C_23  and  C_25
   17  A    between atoms: C_25  and  C_31
   18  A    between atoms: C_29  and  C_36
   19  A    between atoms: C_35  and  C_37
   20  A    between atoms: C_37  and  C_46
   21  A    between atoms: C_39  and  N_49
   22  A    between atoms: C_39  and  C_51
                            x       y       z     vdW  Elec       q    Type
                         _______ _______ _______ _____ _____    ______ ____

>  <TORSDO>
F 22

$$$$
=
 OpenBabel11062413503D

 52 54  0  0  1  0  0  0  0  0999 V2000
  186.7170  176.9770  134.9440 C   0  0  0  0  0  2  0  0  0  0  0  0
  183.8690  177.0780  135.2920 C   0  0  0  0  0  0  0  0  0  0  0  0
  182.9630  177.7100  134.6510 O   0  0  0  0  0  0  0  0  0  0  0  0
  185.2570  177.4780  134.9950 N   0  0  0  0  0  2  0  0  0  0  0  0
  183.2860  176.2970  136.4990 C   0  0  1  0  0  3  0  0  0  0  0  0
  184.2410  175.1800  137.1290 C   0  0  0  0  0  2  0  0  0  0  0  0
  184.1360  173.7590  136.6640 C   0  0  0  0  0  0  0  0  0  0  0  0
  185.2790  173.3500  136.0490 O   0  0  0  0  0  0  0  0  0  0  0  0
  183.1230  172.9010  136.9240 O   0  0  0  0  0  1  0  0  0  0  0  0
  181.9370  176.4430  137.3900 C   0  0  1  0  0  3  0  0  0  0  0  0
  180.1720  174.5500  136.8150 C   0  0  0  0  0  0  0  0  0  0  0  0
  178.9310  173.5380  138.6130 C   0  0  0  0  0  3  0  0  0  0  0  0
  180.4300  174.4560  135.4340 O   0  0  0  0  0  1  0  0  0  0  0  0
  180.8900  175.3660  137.7200 C   0  0  0  0  0  0  0  0  0  0  0  0
  179.1860  173.6920  137.2530 C   0  0  0  0  0  3  0  0  0  0  0  0
  179.6300  174.2980  139.5360 C   0  0  0  0  0  0  0  0  0  0  0  0
  179.3280  174.1140  140.9850 C   0  0  0  0  0  1  0  0  0  0  0  0
  180.5640  175.2060  139.1370 C   0  0  0  0  0  3  0  0  0  0  0  0
  182.3470  176.9380  138.8190 C   0  0  0  0  0  2  0  0  0  0  0  0
  182.0210  178.4190  139.1220 C   0  0  1  0  0  3  0  0  0  0  0  0
  182.3530  178.8860  140.4630 C   0  0  0  0  0  2  0  0  0  0  0  0
  182.8090  177.8020  141.2770 O   0  0  0  0  0  1  0  0  0  0  0  0
  182.1350  179.4930  137.9550 C   0  0  0  0  0  2  0  0  0  0  0  0
  179.6400  179.0960  136.0280 C   0  0  0  0  0  1  0  0  0  0  0  0
  180.6250  181.3140  137.3430 O   0  0  0  0  0  0  0  0  0  0  0  0
  180.4330  179.8610  137.5400 S   0  0  2  0  0  0  0  0  0  0  0  0
  188.0320  175.4080  136.0590 C   0  0  0  0  0  1  0  0  0  0  0  0
  187.4830  176.8350  136.2810 C   0  0  1  0  0  3  0  0  0  0  0  0
  188.6100  177.9160  136.6140 C   0  0  0  0  0  2  0  0  0  0  0  0
  189.5850  176.7530  138.6710 C   0  0  0  0  0  2  0  0  0  0  0  0
  189.7100  177.4790  137.5560 C   0  0  0  0  0  2  0  0  0  0  0  0
  190.8760  176.2710  139.1960 C   0  0  0  0  0  2  0  0  0  0  0  0
  190.9930  176.7040  140.5760 N   0  0  0  0  0  0  0  0  0  0  0  0
  192.1040  177.6740  140.6960 C   0  0  0  0  0  1  0  0  0  0  0  0
  189.7480  177.2630  141.0940 C   0  0  0  0  0  2  0  0  0  0  0  0
  189.1630  176.8560  142.3960 C   0  0  2  0  0  3  0  0  0  0  0  0
  187.0790  177.1470  143.6170 C   0  0  0  0  0  3  0  0  0  0  0  0
  187.2920  178.5360  141.6840 C   0  0  0  0  0  0  0  0  0  0  0  0
  185.3800  178.9430  143.2240 C   0  0  0  0  0  0  0  0  0  0  0  0
  186.0430  179.2640  142.0440 C   0  0  0  0  0  3  0  0  0  0  0  0
  184.2700  179.6360  143.5690 O   0  0  0  0  0  1  0  0  0  0  0  0
  187.8580  178.7280  140.5480 O   0  0  0  0  0  1  0  0  0  0  0  0
  187.8280  177.5920  142.6480 C   0  0  0  0  0  0  0  0  0  0  0  0
  185.7970  177.8380  144.1180 C   0  0  0  0  0  3  0  0  0  0  0  0
  190.1420  177.2540  143.4840 N   0  0  0  0  0  2  0  0  0  0  0  0
  191.4720  175.4150  143.7060 O   0  0  0  0  0  0  0  0  0  0  0  0
  191.0730  176.5000  144.1560 C   0  0  0  0  0  0  0  0  0  0  0  0
  191.4380  176.8340  145.5250 C   0  0  0  0  0  3  0  0  0  0  0  0
  190.6200  177.0370  146.5930 C   0  0  0  0  0  3  0  0  0  0  0  0
  189.0990  176.9550  146.6850 C   0  0  0  0  0  3  0  0  0  0  0  0
  188.3900  176.9000  148.1100 C   0  0  0  0  0  2  0  0  0  0  0  0
  188.8240  178.1860  147.6950 C   0  0  0  0  0  2  0  0  0  0  0  0
  1  4  1  0  0  0  0
  1 28  1  0  0  0  0
  2  5  1  0  0  0  0
  3  2  2  0  0  0  0
  4  2  1  0  0  0  0
  5  6  1  1  0  0  0
  5 10  1  0  0  0  0
  7  9  1  0  0  0  0
  7  6  1  0  0  0  0
  8  7  2  0  0  0  0
 10 14  1  0  0  0  0
 10 19  1  1  0  0  0
 11 15  2  0  0  0  0
 11 14  1  0  0  0  0
 12 16  2  0  0  0  0
 13 11  1  0  0  0  0
 14 18  2  0  0  0  0
 15 12  1  0  0  0  0
 16 17  1  0  0  0  0
 18 16  1  0  0  0  0
 19 20  1  0  0  0  0
 20 23  1  6  0  0  0
 20 21  1  0  0  0  0
 21 22  1  0  0  0  0
 25 26  2  0  0  0  0
 26 24  1  6  0  0  0
 26 23  1  0  0  0  0
 28 27  1  6  0  0  0
 28 29  1  0  0  0  0
 29 31  1  0  0  0  0
 30 32  1  0  0  0  0
 31 30  1  0  0  0  0
 32 33  1  0  0  0  0
 33 34  1  0  0  0  0
 33 35  1  0  0  0  0
 36 35  1  6  0  0  0
 36 43  1  0  0  0  0
 36 45  1  0  0  0  0
 37 44  1  0  0  0  0
 38 40  2  0  0  0  0
 38 43  1  0  0  0  0
 39 41  1  0  0  0  0
 39 44  2  0  0  0  0
 40 39  1  0  0  0  0
 42 38  1  0  0  0  0
 43 37  2  0  0  0  0
 45 47  1  0  0  0  0
 46 47  2  0  0  0  0
 47 48  1  0  0  0  0
 48 49  2  0  0  0  0
 49 50  1  0  0  0  0
 50 52  1  0  0  0  0
 50 51  1  0  0  0  0
 52 51  1  0  0  0  0
M  END
>  <MODEL>
5

>  <REMARK>
 VINA RESULT:      -5.6      2.696      6.976
  Name = 
  22 active torsions:
  status: ('A' for Active; 'I' for Inactive)
    1  A    between atoms: N_3  and  C_33
    2  A    between atoms: N_3  and  C_46
    3  A    between atoms: C_4  and  C_33
    4  A    between atoms: C_5  and  C_48
    5  A    between atoms: C_6  and  C_21
    6  A    between atoms: C_7  and  C_41
    7  A    between atoms: C_7  and  C_51
    8  A    between atoms: C_8  and  C_23
    9  A    between atoms: S_12  and  C_40
   10  A    between atoms: C_13  and  C_18
   11  A    between atoms: C_13  and  C_25
   12  A    between atoms: N_17  and  C_37
   13  A    between atoms: C_18  and  C_24
   14  A    between atoms: C_18  and  C_40
   15  A    between atoms: C_21  and  C_23
   16  A    between atoms: C_23  and  C_25
   17  A    between atoms: C_25  and  C_31
   18  A    between atoms: C_29  and  C_36
   19  A    between atoms: C_35  and  C_37
   20  A    between atoms: C_37  and  C_46
   21  A    between atoms: C_39  and  N_49
   22  A    between atoms: C_39  and  C_51
                            x       y       z     vdW  Elec       q    Type
                         _______ _______ _______ _____ _____    ______ ____

>  <TORSDO>
F 22

$$$$
=
 OpenBabel11062413503D

 52 54  0  0  1  0  0  0  0  0999 V2000
  183.9920  178.7720  144.0880 C   0  0  0  0  0  2  0  0  0  0  0  0
  184.2220  178.9280  141.2310 C   0  0  0  0  0  0  0  0  0  0  0  0
  185.0780  179.5110  140.4840 O   0  0  0  0  0  0  0  0  0  0  0  0
  184.2700  179.2880  142.6590 N   0  0  0  0  0  2  0  0  0  0  0  0
  183.0950  178.2580  140.4020 C   0  0  1  0  0  3  0  0  0  0  0  0
  181.8620  177.6840  141.2450 C   0  0  0  0  0  2  0  0  0  0  0  0
  180.4960  177.6350  140.6310 C   0  0  0  0  0  0  0  0  0  0  0  0
  179.7520  178.7190  140.9840 O   0  0  0  0  0  1  0  0  0  0  0  0
  180.0560  176.7380  139.7190 O   0  0  0  0  0  0  0  0  0  0  0  0
  182.7970  178.1140  138.8130 C   0  0  1  0  0  3  0  0  0  0  0  0
  181.2580  178.6930  136.7340 C   0  0  0  0  0  0  0  0  0  0  0  0
  180.5950  180.9810  136.3830 C   0  0  0  0  0  3  0  0  0  0  0  0
  181.0480  177.3780  136.2750 O   0  0  0  0  0  1  0  0  0  0  0  0
  181.9610  179.0380  137.9110 C   0  0  0  0  0  0  0  0  0  0  0  0
  180.6300  179.6520  135.9690 C   0  0  0  0  0  3  0  0  0  0  0  0
  181.2490  181.3580  137.5460 C   0  0  0  0  0  0  0  0  0  0  0  0
  181.1980  182.7900  137.9590 C   0  0  0  0  0  1  0  0  0  0  0  0
  181.9370  180.4490  138.2920 C   0  0  0  0  0  3  0  0  0  0  0  0
  184.1710  178.0890  138.0600 C   0  0  0  0  0  2  0  0  0  0  0  0
  184.5190  176.7490  137.3690 C   0  0  1  0  0  3  0  0  0  0  0  0
  183.8090  175.5740  137.8590 C   0  0  0  0  0  2  0  0  0  0  0  0
  183.6890  174.5900  136.8290 O   0  0  0  0  0  1  0  0  0  0  0  0
  184.8990  176.7480  135.8250 C   0  0  0  0  0  2  0  0  0  0  0  0
  187.3350  175.1360  137.0760 C   0  0  0  0  0  1  0  0  0  0  0  0
  187.1410  177.6930  136.0530 O   0  0  0  0  0  0  0  0  0  0  0  0
  186.6380  176.3240  135.8100 S   0  0  2  0  0  0  0  0  0  0  0  0
  184.2890  178.5270  146.3880 C   0  0  0  0  0  1  0  0  0  0  0  0
  185.1180  178.9100  145.1410 C   0  0  1  0  0  3  0  0  0  0  0  0
  186.4350  178.0280  144.9460 C   0  0  0  0  0  2  0  0  0  0  0  0
  187.9840  177.7310  142.9350 C   0  0  0  0  0  2  0  0  0  0  0  0
  186.7880  177.6430  143.5270 C   0  0  0  0  0  2  0  0  0  0  0  0
  188.0450  177.0140  141.6470 C   0  0  0  0  0  2  0  0  0  0  0  0
  188.2140  177.9960  140.5910 N   0  0  0  0  0  0  0  0  0  0  0  0
  188.4680  179.3250  141.1910 C   0  0  0  0  0  1  0  0  0  0  0  0
  189.2690  177.6320  139.6510 C   0  0  0  0  0  2  0  0  0  0  0  0
  190.6850  177.4530  140.0590 C   0  0  2  0  0  3  0  0  0  0  0  0
  190.7700  175.5590  138.5370 C   0  0  0  0  0  3  0  0  0  0  0  0
  192.8770  176.6280  138.8990 C   0  0  0  0  0  0  0  0  0  0  0  0
  192.7260  174.8910  137.1240 C   0  0  0  0  0  0  0  0  0  0  0  0
  193.5090  175.7870  137.8450 C   0  0  0  0  0  3  0  0  0  0  0  0
  193.2960  174.1600  136.1380 O   0  0  0  0  0  1  0  0  0  0  0  0
  193.5930  177.3750  139.6590 O   0  0  0  0  0  1  0  0  0  0  0  0
  191.4340  176.5560  139.0500 C   0  0  0  0  0  0  0  0  0  0  0  0
  191.2910  174.6520  137.4060 C   0  0  0  0  0  3  0  0  0  0  0  0
  190.6900  176.7630  141.4100 N   0  0  0  0  0  2  0  0  0  0  0  0
  191.8110  178.2250  142.7540 O   0  0  0  0  0  0  0  0  0  0  0  0
  191.3580  177.0850  142.5670 C   0  0  0  0  0  0  0  0  0  0  0  0
  191.7600  176.0410  143.4970 C   0  0  0  0  0  3  0  0  0  0  0  0
  191.7630  176.0760  144.8570 C   0  0  0  0  0  3  0  0  0  0  0  0
  191.3300  177.1910  145.8050 C   0  0  0  0  0  3  0  0  0  0  0  0
  189.9790  177.0500  146.6350 C   0  0  0  0  0  2  0  0  0  0  0  0
  191.0860  176.3240  147.1460 C   0  0  0  0  0  2  0  0  0  0  0  0
  1 28  1  0  0  0  0
  2  4  1  0  0  0  0
  3  2  2  0  0  0  0
  4  1  1  0  0  0  0
  5  2  1  0  0  0  0
  5  6  1  1  0  0  0
  7  8  1  0  0  0  0
  7  6  1  0  0  0  0
  9  7  2  0  0  0  0
 10 19  1  6  0  0  0
 10  5  1  0  0  0  0
 11 14  1  0  0  0  0
 12 16  2  0  0  0  0
 13 11  1  0  0  0  0
 14 18  2  0  0  0  0
 14 10  1  0  0  0  0
 15 12  1  0  0  0  0
 15 11  2  0  0  0  0
 16 17  1  0  0  0  0
 16 18  1  0  0  0  0
 20 23  1  6  0  0  0
 20 21  1  0  0  0  0
 20 19  1  0  0  0  0
 22 21  1  0  0  0  0
 26 23  1  0  0  0  0
 26 25  2  0  0  0  0
 26 24  1  1  0  0  0
 28 27  1  1  0  0  0
 29 28  1  0  0  0  0
 30 31  1  0  0  0  0
 31 29  1  0  0  0  0
 32 30  1  0  0  0  0
 33 34  1  0  0  0  0
 33 32  1  0  0  0  0
 35 33  1  0  0  0  0
 36 35  1  6  0  0  0
 36 45  1  0  0  0  0
 37 43  1  0  0  0  0
 38 43  2  0  0  0  0
 38 42  1  0  0  0  0
 39 44  1  0  0  0  0
 39 40  2  0  0  0  0
 40 38  1  0  0  0  0
 41 39  1  0  0  0  0
 43 36  1  0  0  0  0
 44 37  2  0  0  0  0
 45 47  1  0  0  0  0
 47 46  2  0  0  0  0
 47 48  1  0  0  0  0
 48 49  2  0  0  0  0
 49 50  1  0  0  0  0
 50 51  1  0  0  0  0
 50 52  1  0  0  0  0
 51 52  1  0  0  0  0
M  END
>  <MODEL>
6

>  <REMARK>
 VINA RESULT:      -5.5      2.469      5.548
  Name = 
  22 active torsions:
  status: ('A' for Active; 'I' for Inactive)
    1  A    between atoms: N_3  and  C_33
    2  A    between atoms: N_3  and  C_46
    3  A    between atoms: C_4  and  C_33
    4  A    between atoms: C_5  and  C_48
    5  A    between atoms: C_6  and  C_21
    6  A    between atoms: C_7  and  C_41
    7  A    between atoms: C_7  and  C_51
    8  A    between atoms: C_8  and  C_23
    9  A    between atoms: S_12  and  C_40
   10  A    between atoms: C_13  and  C_18
   11  A    between atoms: C_13  and  C_25
   12  A    between atoms: N_17  and  C_37
   13  A    between atoms: C_18  and  C_24
   14  A    between atoms: C_18  and  C_40
   15  A    between atoms: C_21  and  C_23
   16  A    between atoms: C_23  and  C_25
   17  A    between atoms: C_25  and  C_31
   18  A    between atoms: C_29  and  C_36
   19  A    between atoms: C_35  and  C_37
   20  A    between atoms: C_37  and  C_46
   21  A    between atoms: C_39  and  N_49
   22  A    between atoms: C_39  and  C_51
                            x       y       z     vdW  Elec       q    Type
                         _______ _______ _______ _____ _____    ______ ____

>  <TORSDO>
F 22

$$$$
=
 OpenBabel11062413503D

 52 54  0  0  1  0  0  0  0  0999 V2000
  183.5560  178.4500  141.9350 C   0  0  0  0  0  2  0  0  0  0  0  0
  184.3960  179.3520  139.3420 C   0  0  0  0  0  0  0  0  0  0  0  0
  184.3710  180.5090  138.8030 O   0  0  0  0  0  0  0  0  0  0  0  0
  183.6330  179.2160  140.5960 N   0  0  0  0  0  2  0  0  0  0  0  0
  184.9180  178.2690  138.3620 C   0  0  1  0  0  3  0  0  0  0  0  0
  186.5030  178.0580  138.3420 C   0  0  0  0  0  2  0  0  0  0  0  0
  187.3340  178.7360  137.2950 C   0  0  0  0  0  0  0  0  0  0  0  0
  188.4250  179.3410  137.8390 O   0  0  0  0  0  1  0  0  0  0  0  0
  187.1550  178.6640  135.9560 O   0  0  0  0  0  0  0  0  0  0  0  0
  184.1980  177.1670  137.4120 C   0  0  1  0  0  3  0  0  0  0  0  0
  184.0640  174.5490  137.8110 C   0  0  0  0  0  0  0  0  0  0  0  0
  185.6080  173.1180  136.6430 C   0  0  0  0  0  3  0  0  0  0  0  0
  182.9280  174.5370  138.6430 O   0  0  0  0  0  1  0  0  0  0  0  0
  184.5960  175.6990  137.1830 C   0  0  0  0  0  0  0  0  0  0  0  0
  184.5910  173.2980  137.5780 C   0  0  0  0  0  3  0  0  0  0  0  0
  186.1400  174.2140  135.9830 C   0  0  0  0  0  0  0  0  0  0  0  0
  187.2320  173.9890  134.9940 C   0  0  0  0  0  1  0  0  0  0  0  0
  185.6910  175.4750  136.2390 C   0  0  0  0  0  3  0  0  0  0  0  0
  182.7070  177.0240  137.8740 C   0  0  0  0  0  2  0  0  0  0  0  0
  181.6960  177.9160  137.1160 C   0  0  1  0  0  3  0  0  0  0  0  0
  181.8610  177.9840  135.6700 C   0  0  0  0  0  2  0  0  0  0  0  0
  181.8120  176.6760  135.0940 O   0  0  0  0  0  1  0  0  0  0  0  0
  180.2060  178.0330  137.6600 C   0  0  0  0  0  2  0  0  0  0  0  0
  181.2900  181.0200  137.6550 C   0  0  0  0  0  1  0  0  0  0  0  0
  180.3660  179.3920  139.6840 O   0  0  0  0  0  0  0  0  0  0  0  0
  180.0980  179.7140  138.2660 S   0  0  2  0  0  0  0  0  0  0  0  0
  181.5850  178.6610  143.1640 C   0  0  0  0  0  1  0  0  0  0  0  0
  183.0300  179.2100  143.1760 C   0  0  1  0  0  3  0  0  0  0  0  0
  183.7910  178.9930  144.5630 C   0  0  0  0  0  2  0  0  0  0  0  0
  186.0560  178.1800  143.7040 C   0  0  0  0  0  2  0  0  0  0  0  0
  185.3010  178.9370  144.5050 C   0  0  0  0  0  2  0  0  0  0  0  0
  187.4780  178.5720  143.7080 C   0  0  0  0  0  2  0  0  0  0  0  0
  188.2740  177.3890  143.4330 N   0  0  0  0  0  0  0  0  0  0  0  0
  187.4780  176.1790  143.7390 C   0  0  0  0  0  1  0  0  0  0  0  0
  188.7750  177.3580  142.0630 C   0  0  0  0  0  2  0  0  0  0  0  0
  190.1340  177.8260  141.6920 C   0  0  2  0  0  3  0  0  0  0  0  0
  189.6330  176.6230  139.6380 C   0  0  0  0  0  3  0  0  0  0  0  0
  191.9350  177.2100  139.9010 C   0  0  0  0  0  0  0  0  0  0  0  0
  191.1990  176.2750  137.7160 C   0  0  0  0  0  0  0  0  0  0  0  0
  192.2350  176.7390  138.5200 C   0  0  0  0  0  3  0  0  0  0  0  0
  191.4700  175.8890  136.4470 O   0  0  0  0  0  1  0  0  0  0  0  0
  192.8840  177.5320  140.7050 O   0  0  0  0  0  1  0  0  0  0  0  0
  190.5430  177.2710  140.3100 C   0  0  0  0  0  0  0  0  0  0  0  0
  189.8020  176.1340  138.1880 C   0  0  0  0  0  3  0  0  0  0  0  0
  191.1030  177.2910  142.7290 N   0  0  0  0  0  2  0  0  0  0  0  0
  190.5270  175.0930  142.9160 O   0  0  0  0  0  0  0  0  0  0  0  0
  191.1340  176.0760  143.3690 C   0  0  0  0  0  0  0  0  0  0  0  0
  191.6770  175.9680  144.7140 C   0  0  0  0  0  3  0  0  0  0  0  0
  191.2450  176.5760  145.8520 C   0  0  0  0  0  3  0  0  0  0  0  0
  190.0640  177.5200  146.0640 C   0  0  0  0  0  3  0  0  0  0  0  0
  188.8590  177.0860  147.0100 C   0  0  0  0  0  2  0  0  0  0  0  0
  190.0250  177.5410  147.6800 C   0  0  0  0  0  2  0  0  0  0  0  0
  1 28  1  0  0  0  0
  2  4  1  0  0  0  0
  3  2  2  0  0  0  0
  4  1  1  0  0  0  0
  5  6  1  1  0  0  0
  5  2  1  0  0  0  0
  7  8  1  0  0  0  0
  7  6  1  0  0  0  0
  9  7  2  0  0  0  0
 10 19  1  1  0  0  0
 10  5  1  0  0  0  0
 11 13  1  0  0  0  0
 12 15  2  0  0  0  0
 14 10  1  0  0  0  0
 14 11  2  0  0  0  0
 15 11  1  0  0  0  0
 16 18  2  0  0  0  0
 16 12  1  0  0  0  0
 17 16  1  0  0  0  0
 18 14  1  0  0  0  0
 20 21  1  6  0  0  0
 20 23  1  0  0  0  0
 20 19  1  0  0  0  0
 22 21  1  0  0  0  0
 23 26  1  0  0  0  0
 26 24  1  6  0  0  0
 26 25  2  0  0  0  0
 28 27  1  1  0  0  0
 28 29  1  0  0  0  0
 30 32  1  0  0  0  0
 30 31  1  0  0  0  0
 31 29  1  0  0  0  0
 33 32  1  0  0  0  0
 33 34  1  0  0  0  0
 35 33  1  0  0  0  0
 36 35  1  1  0  0  0
 36 45  1  0  0  0  0
 37 43  1  0  0  0  0
 38 43  2  0  0  0  0
 38 42  1  0  0  0  0
 39 44  1  0  0  0  0
 39 40  2  0  0  0  0
 40 38  1  0  0  0  0
 41 39  1  0  0  0  0
 43 36  1  0  0  0  0
 44 37  2  0  0  0  0
 45 47  1  0  0  0  0
 46 47  2  0  0  0  0
 47 48  1  0  0  0  0
 48 49  2  0  0  0  0
 49 50  1  0  0  0  0
 50 51  1  0  0  0  0
 50 52  1  0  0  0  0
 51 52  1  0  0  0  0
M  END
>  <MODEL>
7

>  <REMARK>
 VINA RESULT:      -5.2      2.474      5.442
  Name = 
  22 active torsions:
  status: ('A' for Active; 'I' for Inactive)
    1  A    between atoms: N_3  and  C_33
    2  A    between atoms: N_3  and  C_46
    3  A    between atoms: C_4  and  C_33
    4  A    between atoms: C_5  and  C_48
    5  A    between atoms: C_6  and  C_21
    6  A    between atoms: C_7  and  C_41
    7  A    between atoms: C_7  and  C_51
    8  A    between atoms: C_8  and  C_23
    9  A    between atoms: S_12  and  C_40
   10  A    between atoms: C_13  and  C_18
   11  A    between atoms: C_13  and  C_25
   12  A    between atoms: N_17  and  C_37
   13  A    between atoms: C_18  and  C_24
   14  A    between atoms: C_18  and  C_40
   15  A    between atoms: C_21  and  C_23
   16  A    between atoms: C_23  and  C_25
   17  A    between atoms: C_25  and  C_31
   18  A    between atoms: C_29  and  C_36
   19  A    between atoms: C_35  and  C_37
   20  A    between atoms: C_37  and  C_46
   21  A    between atoms: C_39  and  N_49
   22  A    between atoms: C_39  and  C_51
                            x       y       z     vdW  Elec       q    Type
                         _______ _______ _______ _____ _____    ______ ____

>  <TORSDO>
F 22

$$$$
=
 OpenBabel11062413503D

 52 54  0  0  1  0  0  0  0  0999 V2000
  189.6400  176.3140  141.7540 C   0  0  0  0  0  3  0  0  0  0  0  0
  191.5480  176.6890  139.6430 C   0  0  0  0  0  0  0  0  0  0  0  0
  192.7660  177.0710  139.6650 O   0  0  0  0  0  0  0  0  0  0  0  0
  190.7990  176.8710  140.8990 N   0  0  0  0  0  0  0  0  0  0  0  0
  191.0400  176.4640  138.1950 C   0  0  1  0  0  3  0  0  0  0  0  0
  190.0820  177.6050  137.6120 C   0  0  0  0  0  2  0  0  0  0  0  0
  188.8110  177.9500  138.3260 C   0  0  0  0  0  0  0  0  0  0  0  0
  188.1260  176.8320  138.6930 O   0  0  0  0  0  0  0  0  0  0  0  0
  188.4170  179.1840  138.7170 O   0  0  0  0  0  1  0  0  0  0  0  0
  191.3690  175.3710  137.0410 C   0  0  1  0  0  3  0  0  0  0  0  0
  193.9760  175.3290  136.5620 C   0  0  0  0  0  0  0  0  0  0  0  0
  195.0160  173.2340  135.9920 C   0  0  0  0  0  3  0  0  0  0  0  0
  194.2520  176.6750  136.8700 O   0  0  0  0  0  1  0  0  0  0  0  0
  192.7160  174.7050  136.7130 C   0  0  0  0  0  0  0  0  0  0  0  0
  195.0860  174.6140  136.1660 C   0  0  0  0  0  3  0  0  0  0  0  0
  193.8070  172.5780  136.1570 C   0  0  0  0  0  0  0  0  0  0  0  0
  193.7650  171.1010  135.9560 C   0  0  0  0  0  1  0  0  0  0  0  0
  192.6740  173.2620  136.4800 C   0  0  0  0  0  3  0  0  0  0  0  0
  190.4450  174.1260  137.2700 C   0  0  0  0  0  2  0  0  0  0  0  0
  189.3510  173.9120  136.1980 C   0  0  1  0  0  3  0  0  0  0  0  0
  188.3530  172.8920  136.4980 C   0  0  0  0  0  2  0  0  0  0  0  0
  188.5830  171.7160  135.7190 O   0  0  0  0  0  1  0  0  0  0  0  0
  188.8500  175.1550  135.3420 C   0  0  0  0  0  2  0  0  0  0  0  0
  185.8080  174.5540  134.6510 C   0  0  0  0  0  1  0  0  0  0  0  0
  187.0590  176.7750  135.7120 O   0  0  0  0  0  0  0  0  0  0  0  0
  187.1160  175.2980  135.7620 S   0  0  2  0  0  0  0  0  0  0  0  0
  189.6940  178.5010  142.5640 C   0  0  0  0  0  1  0  0  0  0  0  0
  189.2330  177.1000  143.0240 C   0  0  1  0  0  3  0  0  0  0  0  0
  187.7040  177.0410  143.4800 C   0  0  0  0  0  2  0  0  0  0  0  0
  186.1400  178.2810  141.8830 C   0  0  0  0  0  2  0  0  0  0  0  0
  186.8180  178.1820  143.0310 C   0  0  0  0  0  2  0  0  0  0  0  0
  185.1600  179.3840  141.8840 C   0  0  0  0  0  2  0  0  0  0  0  0
  184.2520  179.1820  140.7690 N   0  0  0  0  0  0  0  0  0  0  0  0
  185.0070  178.6610  139.6070 C   0  0  0  0  0  1  0  0  0  0  0  0
  183.1370  178.3050  141.1090 C   0  0  0  0  0  2  0  0  0  0  0  0
  181.7850  178.4520  140.5120 C   0  0  2  0  0  3  0  0  0  0  0  0
  182.1650  176.3660  139.3220 C   0  0  0  0  0  3  0  0  0  0  0  0
  179.8730  176.8020  139.8400 C   0  0  0  0  0  0  0  0  0  0  0  0
  180.4700  174.5660  138.9250 C   0  0  0  0  0  0  0  0  0  0  0  0
  179.4840  175.4470  139.3590 C   0  0  0  0  0  3  0  0  0  0  0  0
  180.1160  173.3220  138.5290 O   0  0  0  0  0  1  0  0  0  0  0  0
  178.9790  177.6750  140.1350 O   0  0  0  0  0  1  0  0  0  0  0  0
  181.2900  177.1040  139.9440 C   0  0  0  0  0  0  0  0  0  0  0  0
  181.9020  174.9320  138.8260 C   0  0  0  0  0  3  0  0  0  0  0  0
  181.8940  179.4430  139.3690 N   0  0  0  0  0  2  0  0  0  0  0  0
  180.2370  180.9480  139.8060 O   0  0  0  0  0  0  0  0  0  0  0  0
  181.0590  180.4730  139.0070 C   0  0  0  0  0  0  0  0  0  0  0  0
  180.9490  180.8730  137.6130 C   0  0  0  0  0  3  0  0  0  0  0  0
  180.8300  182.1280  137.1000 C   0  0  0  0  0  3  0  0  0  0  0  0
  180.8020  183.4750  137.8170 C   0  0  0  0  0  3  0  0  0  0  0  0
  181.9940  184.5110  137.6120 C   0  0  0  0  0  2  0  0  0  0  0  0
  181.0470  184.4550  136.5560 C   0  0  0  0  0  2  0  0  0  0  0  0
  1 28  1  0  0  0  0
  2  3  2  0  0  0  0
  2  4  1  0  0  0  0
  4  1  2  0  0  0  0
  5  6  1  6  0  0  0
  5  2  1  0  0  0  0
  6  7  1  0  0  0  0
  7  8  2  0  0  0  0
  7  9  1  0  0  0  0
 10 19  1  1  0  0  0
 10  5  1  0  0  0  0
 11 14  1  0  0  0  0
 11 13  1  0  0  0  0
 12 16  2  0  0  0  0
 12 15  1  0  0  0  0
 14 10  1  0  0  0  0
 15 11  2  0  0  0  0
 16 18  1  0  0  0  0
 17 16  1  0  0  0  0
 18 14  2  0  0  0  0
 20 23  1  1  0  0  0
 20 21  1  0  0  0  0
 20 19  1  0  0  0  0
 22 21  1  0  0  0  0
 23 26  1  0  0  0  0
 25 26  2  0  0  0  0
 26 24  1  6  0  0  0
 28 27  1  6  0  0  0
 28 29  1  0  0  0  0
 30 32  1  0  0  0  0
 30 31  1  0  0  0  0
 31 29  1  0  0  0  0
 33 35  1  0  0  0  0
 33 32  1  0  0  0  0
 34 33  1  0  0  0  0
 36 35  1  6  0  0  0
 37 43  1  0  0  0  0
 38 43  2  0  0  0  0
 38 42  1  0  0  0  0
 39 40  2  0  0  0  0
 40 38  1  0  0  0  0
 41 39  1  0  0  0  0
 43 36  1  0  0  0  0
 44 39  1  0  0  0  0
 44 37  2  0  0  0  0
 45 36  1  0  0  0  0
 47 45  1  0  0  0  0
 47 46  2  0  0  0  0
 48 47  1  0  0  0  0
 49 48  2  0  0  0  0
 49 50  1  0  0  0  0
 51 50  1  0  0  0  0
 52 51  1  0  0  0  0
 52 50  1  0  0  0  0
M  END
>  <MODEL>
8

>  <REMARK>
 VINA RESULT:      -5.0      2.915     10.076
  Name = 
  22 active torsions:
  status: ('A' for Active; 'I' for Inactive)
    1  A    between atoms: N_3  and  C_33
    2  A    between atoms: N_3  and  C_46
    3  A    between atoms: C_4  and  C_33
    4  A    between atoms: C_5  and  C_48
    5  A    between atoms: C_6  and  C_21
    6  A    between atoms: C_7  and  C_41
    7  A    between atoms: C_7  and  C_51
    8  A    between atoms: C_8  and  C_23
    9  A    between atoms: S_12  and  C_40
   10  A    between atoms: C_13  and  C_18
   11  A    between atoms: C_13  and  C_25
   12  A    between atoms: N_17  and  C_37
   13  A    between atoms: C_18  and  C_24
   14  A    between atoms: C_18  and  C_40
   15  A    between atoms: C_21  and  C_23
   16  A    between atoms: C_23  and  C_25
   17  A    between atoms: C_25  and  C_31
   18  A    between atoms: C_29  and  C_36
   19  A    between atoms: C_35  and  C_37
   20  A    between atoms: C_37  and  C_46
   21  A    between atoms: C_39  and  N_49
   22  A    between atoms: C_39  and  C_51
                            x       y       z     vdW  Elec       q    Type
                         _______ _______ _______ _____ _____    ______ ____

>  <TORSDO>
F 22

$$$$
=
 OpenBabel11062413503D

 52 54  0  0  1  0  0  0  0  0999 V2000
  190.2910  176.9530  139.3310 C   0  0  0  0  0  2  0  0  0  0  0  0
  189.5540  176.3710  142.0430 C   0  0  0  0  0  0  0  0  0  0  0  0
  189.9340  175.4490  142.8400 O   0  0  0  0  0  0  0  0  0  0  0  0
  189.9500  176.1980  140.6330 N   0  0  0  0  0  2  0  0  0  0  0  0
  188.4540  177.2630  142.6750 C   0  0  1  0  0  3  0  0  0  0  0  0
  187.1350  177.4670  141.7920 C   0  0  0  0  0  2  0  0  0  0  0  0
  186.9430  178.7360  141.0200 C   0  0  0  0  0  0  0  0  0  0  0  0
  188.0120  178.9990  140.2200 O   0  0  0  0  0  0  0  0  0  0  0  0
  185.8160  179.4820  140.9680 O   0  0  0  0  0  1  0  0  0  0  0  0
  188.2630  177.9570  144.1300 C   0  0  1  0  0  3  0  0  0  0  0  0
  186.7540  177.8740  146.3080 C   0  0  0  0  0  0  0  0  0  0  0  0
  184.4280  178.4710  146.1300 C   0  0  0  0  0  3  0  0  0  0  0  0
  187.7650  177.5540  147.2330 O   0  0  0  0  0  1  0  0  0  0  0  0
  186.9660  178.1420  144.9360 C   0  0  0  0  0  0  0  0  0  0  0  0
  185.5040  177.9930  146.8750 C   0  0  0  0  0  3  0  0  0  0  0  0
  184.5980  178.7730  144.7890 C   0  0  0  0  0  0  0  0  0  0  0  0
  183.4260  179.2760  144.0180 C   0  0  0  0  0  1  0  0  0  0  0  0
  185.8040  178.6020  144.1760 C   0  0  0  0  0  3  0  0  0  0  0  0
  189.1710  177.1960  145.1560 C   0  0  0  0  0  2  0  0  0  0  0  0
  190.6920  177.4000  144.9660 C   0  0  1  0  0  3  0  0  0  0  0  0
  191.1430  178.7810  144.8470 C   0  0  0  0  0  2  0  0  0  0  0  0
  191.7930  178.9940  143.5910 O   0  0  0  0  0  1  0  0  0  0  0  0
  191.7030  176.3880  145.6620 C   0  0  0  0  0  2  0  0  0  0  0  0
  190.5470  177.9240  148.1920 C   0  0  0  0  0  1  0  0  0  0  0  0
  192.4900  175.9800  147.9390 O   0  0  0  0  0  0  0  0  0  0  0  0
  191.1790  176.3650  147.3740 S   0  0  2  0  0  0  0  0  0  0  0  0
  189.7110  177.9290  137.2930 C   0  0  0  0  0  1  0  0  0  0  0  0
  189.4840  176.6050  138.0570 C   0  0  1  0  0  3  0  0  0  0  0  0
  189.9110  175.3050  137.2350 C   0  0  0  0  0  2  0  0  0  0  0  0
  187.5030  174.5820  136.7750 C   0  0  0  0  0  2  0  0  0  0  0  0
  188.8090  174.3260  136.8950 C   0  0  0  0  0  2  0  0  0  0  0  0
  186.7490  173.4710  136.1630 C   0  0  0  0  0  2  0  0  0  0  0  0
  185.4710  173.9890  135.7090 N   0  0  0  0  0  0  0  0  0  0  0  0
  184.8410  173.0120  134.7940 C   0  0  0  0  0  1  0  0  0  0  0  0
  184.5800  174.3250  136.8150 C   0  0  0  0  0  2  0  0  0  0  0  0
  183.2130  174.8660  136.6120 C   0  0  2  0  0  3  0  0  0  0  0  0
  183.4060  176.2440  138.6070 C   0  0  0  0  0  3  0  0  0  0  0  0
  182.2480  177.2890  136.7950 C   0  0  0  0  0  0  0  0  0  0  0  0
  182.8220  178.6730  138.7830 C   0  0  0  0  0  0  0  0  0  0  0  0
  182.2040  178.5780  137.5390 C   0  0  0  0  0  3  0  0  0  0  0  0
  182.8170  179.8580  139.4350 O   0  0  0  0  0  1  0  0  0  0  0  0
  181.5890  177.1380  135.7040 O   0  0  0  0  0  1  0  0  0  0  0  0
  183.0410  176.2090  137.3560 C   0  0  0  0  0  0  0  0  0  0  0  0
  183.4570  177.5210  139.4660 C   0  0  0  0  0  3  0  0  0  0  0  0
  182.2320  173.8670  137.1960 N   0  0  0  0  0  2  0  0  0  0  0  0
  180.8220  173.4240  135.4600 O   0  0  0  0  0  0  0  0  0  0  0  0
  181.0650  173.3640  136.6750 C   0  0  0  0  0  0  0  0  0  0  0  0
  179.9790  172.9640  137.5580 C   0  0  0  0  0  3  0  0  0  0  0  0
  179.6430  173.4800  138.7710 C   0  0  0  0  0  3  0  0  0  0  0  0
  180.2730  174.6310  139.5500 C   0  0  0  0  0  3  0  0  0  0  0  0
  179.3520  175.7700  140.1720 C   0  0  0  0  0  2  0  0  0  0  0  0
  179.3920  174.5540  140.9030 C   0  0  0  0  0  2  0  0  0  0  0  0
  1  4  1  0  0  0  0
  2  5  1  0  0  0  0
  2  3  2  0  0  0  0
  4  2  1  0  0  0  0
  5  6  1  1  0  0  0
  5 10  1  0  0  0  0
  7  6  1  0  0  0  0
  8  7  2  0  0  0  0
  9  7  1  0  0  0  0
 10 14  1  0  0  0  0
 10 19  1  1  0  0  0
 11 15  1  0  0  0  0
 11 13  1  0  0  0  0
 12 15  2  0  0  0  0
 14 11  2  0  0  0  0
 16 12  1  0  0  0  0
 17 16  1  0  0  0  0
 18 16  2  0  0  0  0
 18 14  1  0  0  0  0
 20 21  1  1  0  0  0
 20 19  1  0  0  0  0
 20 23  1  0  0  0  0
 22 21  1  0  0  0  0
 23 26  1  0  0  0  0
 26 25  2  0  0  0  0
 26 24  1  1  0  0  0
 28 27  1  6  0  0  0
 28  1  1  0  0  0  0
 29 28  1  0  0  0  0
 30 31  1  0  0  0  0
 31 29  1  0  0  0  0
 32 30  1  0  0  0  0
 33 32  1  0  0  0  0
 33 35  1  0  0  0  0
 34 33  1  0  0  0  0
 36 35  1  1  0  0  0
 36 45  1  0  0  0  0
 36 43  1  0  0  0  0
 37 44  1  0  0  0  0
 38 43  1  0  0  0  0
 38 40  2  0  0  0  0
 39 41  1  0  0  0  0
 39 44  2  0  0  0  0
 40 39  1  0  0  0  0
 42 38  1  0  0  0  0
 43 37  2  0  0  0  0
 46 47  2  0  0  0  0
 47 45  1  0  0  0  0
 47 48  1  0  0  0  0
 48 49  2  0  0  0  0
 49 50  1  0  0  0  0
 50 51  1  0  0  0  0
 50 52  1  0  0  0  0
 51 52  1  0  0  0  0
M  END
>  <MODEL>
9

>  <REMARK>
 VINA RESULT:      -4.9      3.796      9.666
  Name = 
  22 active torsions:
  status: ('A' for Active; 'I' for Inactive)
    1  A    between atoms: N_3  and  C_33
    2  A    between atoms: N_3  and  C_46
    3  A    between atoms: C_4  and  C_33
    4  A    between atoms: C_5  and  C_48
    5  A    between atoms: C_6  and  C_21
    6  A    between atoms: C_7  and  C_41
    7  A    between atoms: C_7  and  C_51
    8  A    between atoms: C_8  and  C_23
    9  A    between atoms: S_12  and  C_40
   10  A    between atoms: C_13  and  C_18
   11  A    between atoms: C_13  and  C_25
   12  A    between atoms: N_17  and  C_37
   13  A    between atoms: C_18  and  C_24
   14  A    between atoms: C_18  and  C_40
   15  A    between atoms: C_21  and  C_23
   16  A    between atoms: C_23  and  C_25
   17  A    between atoms: C_25  and  C_31
   18  A    between atoms: C_29  and  C_36
   19  A    between atoms: C_35  and  C_37
   20  A    between atoms: C_37  and  C_46
   21  A    between atoms: C_39  and  N_49
   22  A    between atoms: C_39  and  C_51
                            x       y       z     vdW  Elec       q    Type
                         _______ _______ _______ _____ _____    ______ ____

>  <TORSDO>
F 22

$$$$
