=
 OpenBabel11062412463D

 54 61  0  0  1  0  0  0  0  0999 V2000
  182.5680  174.9580  138.0150 C   0  0  1  0  0  3  0  0  0  0  0  0
  183.1490  175.2810  136.6680 C   0  0  2  0  0  3  0  0  0  0  0  0
  183.7120  177.6390  137.4860 C   0  0  1  0  0  3  0  0  0  0  0  0
  182.3400  176.1320  138.9990 C   0  0  1  0  0  3  0  0  0  0  0  0
  183.3670  176.7520  136.2980 C   0  0  0  0  0  2  0  0  0  0  0  0
  181.7680  175.0820  136.8650 O   0  0  0  0  0  0  0  0  0  0  0  0
  182.5680  177.5740  138.4880 C   0  0  1  0  0  3  0  0  0  0  0  0
  181.6460  180.6080  138.3180 C   0  0  0  0  0  3  0  0  0  0  0  0
  182.4200  178.1130  141.0020 C   0  0  2  0  0  3  0  0  0  0  0  0
  179.9450  180.8830  140.5480 C   0  0  0  0  0  3  0  0  0  0  0  0
  180.6730  181.6170  138.3360 C   0  0  0  0  0  0  0  0  0  0  0  0
  182.7160  178.6460  139.5850 C   0  0  2  0  0  3  0  0  0  0  0  0
  180.9200  179.8860  140.5000 C   0  0  0  0  0  0  0  0  0  0  0  0
  181.2390  178.9190  141.5730 C   0  0  0  0  0  2  0  0  0  0  0  0
  179.8200  181.7510  139.4530 C   0  0  0  0  0  3  0  0  0  0  0  0
  181.7420  179.7450  139.4110 C   0  0  0  0  0  0  0  0  0  0  0  0
  179.9620  184.2390  135.0250 C   0  0  0  0  0  2  0  0  0  0  0  0
  178.9820  185.9460  136.5780 C   0  0  0  0  0  1  0  0  0  0  0  0
  179.9860  183.8970  137.5730 C   0  0  0  0  0  2  0  0  0  0  0  0
  179.7960  181.9080  136.0080 C   0  0  0  0  0  2  0  0  0  0  0  0
  180.0620  184.8940  136.4140 C   0  0  1  0  0  3  0  0  0  0  0  0
  180.5730  182.5460  137.1700 C   0  0  2  0  0  3  0  0  0  0  0  0
  179.1560  182.9420  135.0710 C   0  0  0  0  0  2  0  0  0  0  0  0
  183.6790  178.1540  141.8810 C   0  0  2  0  0  3  0  0  0  0  0  0
  183.4240  178.3840  143.3720 C   0  0  0  0  0  2  0  0  0  0  0  0
  183.9060  179.7430  143.8530 C   0  0  0  0  0  1  0  0  0  0  0  0
  184.9260  178.8410  141.3020 C   0  0  0  0  0  2  0  0  0  0  0  0
  186.2010  178.0230  141.4570 C   0  0  0  0  0  2  0  0  0  0  0  0
  187.6650  176.9540  142.9360 C   0  0  0  0  0  2  0  0  0  0  0  0
  187.9410  178.3840  142.9860 C   0  0  0  0  0  2  0  0  0  0  0  0
  186.5520  177.9140  142.8620 N   0  0  0  0  0  0  0  0  0  0  0  0
  181.1930  175.9720  139.8070 O   0  0  0  0  0  0  0  0  0  0  0  0
  180.5440  174.7850  139.4380 C   0  0  0  0  0  1  0  0  0  0  0  0
  185.0660  177.2730  138.1000 C   0  0  0  0  0  2  0  0  0  0  0  0
  189.3500  176.8950  137.3380 C   0  0  2  0  0  3  0  0  0  0  0  0
  189.4120  176.0440  134.5940 O   0  0  0  0  0  1  0  0  0  0  0  0
  185.6000  177.4770  135.6730 C   0  0  0  0  0  2  0  0  0  0  0  0
  186.1720  177.4840  137.0870 C   0  0  1  0  0  3  0  0  0  0  0  0
  188.1430  178.9670  136.5480 C   0  0  0  0  0  3  0  0  0  0  0  0
  188.5270  175.6820  136.8630 C   0  0  0  0  0  2  0  0  0  0  0  0
  188.4430  175.3860  135.3570 C   0  0  1  0  0  3  0  0  0  0  0  0
  186.9330  178.7670  137.4150 C   0  0  0  0  0  2  0  0  0  0  0  0
  187.0340  175.5940  134.7930 C   0  0  0  0  0  2  0  0  0  0  0  0
  186.6560  177.0660  134.6500 C   0  0  0  0  0  2  0  0  0  0  0  0
  189.2030  178.1480  136.5140 C   0  0  0  0  0  3  0  0  0  0  0  0
  190.8220  176.5400  137.5600 C   0  0  1  0  0  0  0  0  0  0  0  0
  191.7500  176.9330  136.5920 O   0  0  0  0  0  1  0  0  0  0  0  0
  191.3790  176.4650  138.9760 C   0  0  2  0  0  3  0  0  0  0  0  0
  191.0920  175.1850  138.1970 C   0  0  2  0  0  3  0  0  0  0  0  0
  190.3190  176.6330  140.0570 C   0  0  0  0  0  2  0  0  0  0  0  0
  191.1070  177.1210  141.6200 S   0  0  0  0  0  1  0  0  0  0  0  0
  192.2960  174.6440  137.7390 O   0  0  0  0  0  0  0  0  0  0  0  0
  192.3120  173.6470  135.6910 O   0  0  0  0  0  1  0  0  0  0  0  0
  191.9210  173.5090  137.0260 C   0  0  0  0  0  2  0  0  0  0  0  0
  1  6  1  6  0  0  0
  1  4  1  0  0  0  0
  2  5  1  1  0  0  0
  2  6  1  0  0  0  0
  2  1  1  0  0  0  0
  3 34  1  1  0  0  0
  3  7  1  0  0  0  0
  4 32  1  6  0  0  0
  5  3  1  0  0  0  0
  7  4  1  0  0  0  0
  7 12  1  1  0  0  0
  8 11  2  0  0  0  0
  8 16  1  0  0  0  0
  9 14  1  0  0  0  0
  9 24  1  1  0  0  0
 11 15  1  0  0  0  0
 12 16  1  6  0  0  0
 12  9  1  0  0  0  0
 13 10  1  0  0  0  0
 13 14  1  0  0  0  0
 15 10  2  0  0  0  0
 16 13  2  0  0  0  0
 17 23  1  0  0  0  0
 17 21  1  0  0  0  0
 20 22  1  0  0  0  0
 21 18  1  1  0  0  0
 21 19  1  0  0  0  0
 22 19  1  0  0  0  0
 22 11  1  1  0  0  0
 23 20  1  0  0  0  0
 24 27  1  6  0  0  0
 24 25  1  0  0  0  0
 25 26  1  0  0  0  0
 27 28  1  0  0  0  0
 28 31  1  0  0  0  0
 29 30  1  0  0  0  0
 31 29  1  0  0  0  0
 31 30  1  0  0  0  0
 33 32  1  0  0  0  0
 35 45  1  6  0  0  0
 35 46  1  0  0  0  0
 37 38  1  0  0  0  0
 38 42  1  0  0  0  0
 38 34  1  1  0  0  0
 39 42  1  0  0  0  0
 40 35  1  0  0  0  0
 41 36  1  6  0  0  0
 41 40  1  0  0  0  0
 43 41  1  0  0  0  0
 44 43  1  0  0  0  0
 44 37  1  0  0  0  0
 45 39  2  0  0  0  0
 46 47  1  6  0  0  0
 46 49  1  0  0  0  0
 46 48  1  0  0  0  0
 48 50  1  1  0  0  0
 49 52  1  6  0  0  0
 49 48  1  0  0  0  0
 50 51  1  0  0  0  0
 53 54  1  0  0  0  0
 54 52  1  0  0  0  0
M  END
>  <MODEL>
1

>  <REMARK>
 VINA RESULT:      -6.4      0.000      0.000
  Name = 
  14 active torsions:
  status: ('A' for Active; 'I' for Inactive)
    1  A    between atoms: C_2  and  C_29
    2  A    between atoms: O_3  and  C_20
    3  A    between atoms: C_4  and  C_46
    4  A    between atoms: O_5  and  C_31
    5  A    between atoms: O_5  and  C_49
    6  A    between atoms: C_10  and  C_17
    7  A    between atoms: C_10  and  C_24
    8  A    between atoms: C_11  and  C_36
    9  A    between atoms: C_12  and  C_13
   10  A    between atoms: C_23  and  C_42
   11  A    between atoms: C_25  and  N_43
   12  A    between atoms: C_25  and  C_44
   13  A    between atoms: C_44  and  C_46
   14  A    between atoms: C_46  and  C_47
                            x       y       z     vdW  Elec       q    Type
                         _______ _______ _______ _____ _____    ______ ____

>  <TORSDO>
F 14

$$$$
=
 OpenBabel11062412463D

 54 61  0  0  1  0  0  0  0  0999 V2000
  187.8530  172.5990  135.8710 C   0  0  1  0  0  3  0  0  0  0  0  0
  186.5000  172.7550  136.5050 C   0  0  2  0  0  3  0  0  0  0  0  0
  187.0950  175.1540  137.1660 C   0  0  1  0  0  3  0  0  0  0  0  0
  188.9100  173.6930  136.1570 C   0  0  1  0  0  3  0  0  0  0  0  0
  186.2800  173.9090  137.4880 C   0  0  0  0  0  2  0  0  0  0  0  0
  187.4910  171.9090  137.0420 O   0  0  0  0  0  0  0  0  0  0  0  0
  188.5720  174.7870  137.1970 C   0  0  1  0  0  3  0  0  0  0  0  0
  188.5290  177.2330  139.2230 C   0  0  0  0  0  3  0  0  0  0  0  0
  190.9290  175.7330  136.7700 C   0  0  2  0  0  3  0  0  0  0  0  0
  191.1930  177.3530  140.1330 C   0  0  0  0  0  3  0  0  0  0  0  0
  188.8210  177.8360  140.4540 C   0  0  0  0  0  0  0  0  0  0  0  0
  189.4660  176.0410  137.1490 C   0  0  2  0  0  3  0  0  0  0  0  0
  190.8720  176.7570  138.9130 C   0  0  0  0  0  0  0  0  0  0  0  0
  191.8250  176.1880  137.9360 C   0  0  0  0  0  2  0  0  0  0  0  0
  190.1570  177.8920  140.9090 C   0  0  0  0  0  3  0  0  0  0  0  0
  189.5740  176.6890  138.4740 C   0  0  0  0  0  0  0  0  0  0  0  0
  185.4280  179.1410  142.7170 C   0  0  0  0  0  2  0  0  0  0  0  0
  186.0890  177.6200  144.5990 C   0  0  0  0  0  1  0  0  0  0  0  0
  187.6270  177.8100  142.6510 C   0  0  0  0  0  2  0  0  0  0  0  0
  186.3650  178.3230  140.5090 C   0  0  0  0  0  2  0  0  0  0  0  0
  186.6030  178.5500  143.5160 C   0  0  1  0  0  3  0  0  0  0  0  0
  187.7050  178.4240  141.2540 C   0  0  2  0  0  3  0  0  0  0  0  0
  185.1500  178.3390  141.4470 C   0  0  0  0  0  2  0  0  0  0  0  0
  191.2970  176.3720  135.4220 C   0  0  2  0  0  3  0  0  0  0  0  0
  190.1180  176.9310  134.6230 C   0  0  0  0  0  2  0  0  0  0  0  0
  189.5470  178.2050  135.2230 C   0  0  0  0  0  1  0  0  0  0  0  0
  192.4060  175.7000  134.5970 C   0  0  0  0  0  2  0  0  0  0  0  0
  193.3320  174.8180  135.4210 C   0  0  0  0  0  2  0  0  0  0  0  0
  195.2030  174.7110  136.8230 C   0  0  0  0  0  2  0  0  0  0  0  0
  195.6690  175.0030  135.4740 C   0  0  0  0  0  2  0  0  0  0  0  0
  194.4220  175.6130  135.9620 N   0  0  0  0  0  0  0  0  0  0  0  0
  190.2280  173.1930  136.2430 O   0  0  0  0  0  0  0  0  0  0  0  0
  190.4470  172.3160  135.1710 C   0  0  0  0  0  1  0  0  0  0  0  0
  186.6660  175.7910  135.8410 C   0  0  0  0  0  2  0  0  0  0  0  0
  182.3710  175.0210  135.6340 C   0  0  2  0  0  3  0  0  0  0  0  0
  181.3570  176.6180  137.7980 O   0  0  0  0  0  1  0  0  0  0  0  0
  185.3400  177.6330  136.8740 C   0  0  0  0  0  2  0  0  0  0  0  0
  185.2850  176.4000  135.9790 C   0  0  1  0  0  3  0  0  0  0  0  0
  183.2830  177.1550  134.6400 C   0  0  0  0  0  3  0  0  0  0  0  0
  182.9550  174.8990  137.0550 C   0  0  0  0  0  2  0  0  0  0  0  0
  182.5140  175.9050  138.1300 C   0  0  1  0  0  3  0  0  0  0  0  0
  184.7110  176.6930  134.5940 C   0  0  0  0  0  2  0  0  0  0  0  0
  183.6500  176.8330  138.5700 C   0  0  0  0  0  2  0  0  0  0  0  0
  183.9890  177.9010  137.5330 C   0  0  0  0  0  2  0  0  0  0  0  0
  182.2570  176.4230  135.0940 C   0  0  0  0  0  3  0  0  0  0  0  0
  181.0560  174.2540  135.4840 C   0  0  1  0  0  0  0  0  0  0  0  0
  179.8890  174.9840  135.2390 O   0  0  0  0  0  1  0  0  0  0  0  0
  181.0590  172.8500  134.8920 C   0  0  2  0  0  3  0  0  0  0  0  0
  180.8800  173.0480  136.3950 C   0  0  2  0  0  3  0  0  0  0  0  0
  182.4570  172.3040  134.6300 C   0  0  0  0  0  2  0  0  0  0  0  0
  182.4090  170.4880  134.5940 S   0  0  0  0  0  1  0  0  0  0  0  0
  179.5370  172.8590  136.7270 O   0  0  0  0  0  0  0  0  0  0  0  0
  179.0670  174.1360  138.5550 O   0  0  0  0  0  1  0  0  0  0  0  0
  179.5140  172.8860  138.1190 C   0  0  0  0  0  2  0  0  0  0  0  0
  1  4  1  0  0  0  0
  1  2  1  0  0  0  0
  1  6  1  1  0  0  0
  2  6  1  0  0  0  0
  2  5  1  1  0  0  0
  3 34  1  6  0  0  0
  3  7  1  0  0  0  0
  3  5  1  0  0  0  0
  4 32  1  1  0  0  0
  4  7  1  0  0  0  0
  7 12  1  6  0  0  0
  8 11  1  0  0  0  0
  9 24  1  6  0  0  0
  9 12  1  0  0  0  0
  9 14  1  0  0  0  0
 10 15  1  0  0  0  0
 11 15  2  0  0  0  0
 12 16  1  1  0  0  0
 13 10  2  0  0  0  0
 14 13  1  0  0  0  0
 16 13  1  0  0  0  0
 16  8  2  0  0  0  0
 17 21  1  0  0  0  0
 19 21  1  0  0  0  0
 20 22  1  0  0  0  0
 20 23  1  0  0  0  0
 21 18  1  1  0  0  0
 22 11  1  6  0  0  0
 22 19  1  0  0  0  0
 23 17  1  0  0  0  0
 24 27  1  6  0  0  0
 25 26  1  0  0  0  0
 25 24  1  0  0  0  0
 27 28  1  0  0  0  0
 28 31  1  0  0  0  0
 30 31  1  0  0  0  0
 30 29  1  0  0  0  0
 31 29  1  0  0  0  0
 33 32  1  0  0  0  0
 35 45  1  1  0  0  0
 35 40  1  0  0  0  0
 37 44  1  0  0  0  0
 38 34  1  6  0  0  0
 38 37  1  0  0  0  0
 39 45  2  0  0  0  0
 40 41  1  0  0  0  0
 41 36  1  6  0  0  0
 41 43  1  0  0  0  0
 42 39  1  0  0  0  0
 42 38  1  0  0  0  0
 44 43  1  0  0  0  0
 46 47  1  6  0  0  0
 46 35  1  0  0  0  0
 46 49  1  0  0  0  0
 48 50  1  1  0  0  0
 48 46  1  0  0  0  0
 48 49  1  0  0  0  0
 49 52  1  6  0  0  0
 51 50  1  0  0  0  0
 52 54  1  0  0  0  0
 54 53  1  0  0  0  0
M  END
>  <MODEL>
2

>  <REMARK>
 VINA RESULT:      -6.3      4.203      9.315
  Name = 
  14 active torsions:
  status: ('A' for Active; 'I' for Inactive)
    1  A    between atoms: C_2  and  C_29
    2  A    between atoms: O_3  and  C_20
    3  A    between atoms: C_4  and  C_46
    4  A    between atoms: O_5  and  C_31
    5  A    between atoms: O_5  and  C_49
    6  A    between atoms: C_10  and  C_17
    7  A    between atoms: C_10  and  C_24
    8  A    between atoms: C_11  and  C_36
    9  A    between atoms: C_12  and  C_13
   10  A    between atoms: C_23  and  C_42
   11  A    between atoms: C_25  and  N_43
   12  A    between atoms: C_25  and  C_44
   13  A    between atoms: C_44  and  C_46
   14  A    between atoms: C_46  and  C_47
                            x       y       z     vdW  Elec       q    Type
                         _______ _______ _______ _____ _____    ______ ____

>  <TORSDO>
F 14

$$$$
=
 OpenBabel11062412463D

 54 61  0  0  1  0  0  0  0  0999 V2000
  186.5880  178.0280  135.4010 C   0  0  1  0  0  3  0  0  0  0  0  0
  185.3760  177.1410  135.3920 C   0  0  2  0  0  3  0  0  0  0  0  0
  185.9220  176.3830  137.7740 C   0  0  1  0  0  3  0  0  0  0  0  0
  187.6030  177.8440  136.5560 C   0  0  1  0  0  3  0  0  0  0  0  0
  185.2720  176.0310  136.4430 C   0  0  0  0  0  2  0  0  0  0  0  0
  186.5070  176.8790  134.5940 O   0  0  0  0  0  0  0  0  0  0  0  0
  187.3990  176.6620  137.5320 C   0  0  1  0  0  3  0  0  0  0  0  0
  190.2280  175.3690  138.1760 C   0  0  0  0  0  3  0  0  0  0  0  0
  188.1110  178.1610  139.5020 C   0  0  2  0  0  3  0  0  0  0  0  0
  191.7720  177.5860  138.9800 C   0  0  0  0  0  3  0  0  0  0  0  0
  191.6260  175.3210  138.0800 C   0  0  0  0  0  0  0  0  0  0  0  0
  188.1780  176.7600  138.8580 C   0  0  2  0  0  3  0  0  0  0  0  0
  190.3790  177.6070  139.0610 C   0  0  0  0  0  0  0  0  0  0  0  0
  189.5490  178.7010  139.6090 C   0  0  0  0  0  2  0  0  0  0  0  0
  192.3970  176.4330  138.4810 C   0  0  0  0  0  3  0  0  0  0  0  0
  189.6260  176.5330  138.6600 C   0  0  0  0  0  0  0  0  0  0  0  0
  193.4780  171.9340  136.2240 C   0  0  0  0  0  2  0  0  0  0  0  0
  195.5630  173.2740  135.8440 C   0  0  0  0  0  1  0  0  0  0  0  0
  193.7210  174.3210  137.1500 C   0  0  0  0  0  2  0  0  0  0  0  0
  191.4490  173.4400  136.4350 C   0  0  0  0  0  2  0  0  0  0  0  0
  194.4200  173.0040  136.8040 C   0  0  1  0  0  3  0  0  0  0  0  0
  192.2710  174.0750  137.5670 C   0  0  2  0  0  3  0  0  0  0  0  0
  192.2910  172.5630  135.4960 C   0  0  0  0  0  2  0  0  0  0  0  0
  187.3670  178.1150  140.8450 C   0  0  2  0  0  3  0  0  0  0  0  0
  186.1250  179.0050  140.9320 C   0  0  0  0  0  2  0  0  0  0  0  0
  185.6290  179.1910  142.3570 C   0  0  0  0  0  1  0  0  0  0  0  0
  188.2150  178.0240  142.1240 C   0  0  0  0  0  2  0  0  0  0  0  0
  188.5520  176.5980  142.5340 C   0  0  0  0  0  2  0  0  0  0  0  0
  190.8760  176.3760  142.6890 C   0  0  0  0  0  2  0  0  0  0  0  0
  190.5240  177.7270  143.1060 C   0  0  0  0  0  2  0  0  0  0  0  0
  189.6550  176.6010  143.4780 N   0  0  0  0  0  0  0  0  0  0  0  0
  188.9440  178.0520  136.1630 O   0  0  0  0  0  0  0  0  0  0  0  0
  189.2830  177.0960  135.1960 C   0  0  0  0  0  1  0  0  0  0  0  0
  185.2020  177.5380  138.4740 C   0  0  0  0  0  2  0  0  0  0  0  0
  181.2180  179.0420  137.5020 C   0  0  2  0  0  3  0  0  0  0  0  0
  179.8350  176.6490  136.7140 O   0  0  0  0  0  1  0  0  0  0  0  0
  183.4670  175.7580  138.6550 C   0  0  0  0  0  2  0  0  0  0  0  0
  183.7150  177.2590  138.5470 C   0  0  1  0  0  3  0  0  0  0  0  0
  181.6000  177.9450  139.7430 C   0  0  0  0  0  3  0  0  0  0  0  0
  181.8030  178.1010  136.4310 C   0  0  0  0  0  2  0  0  0  0  0  0
  181.1260  176.7440  136.1850 C   0  0  1  0  0  3  0  0  0  0  0  0
  183.0980  178.0490  139.7000 C   0  0  0  0  0  2  0  0  0  0  0  0
  182.0040  175.5620  136.6060 C   0  0  0  0  0  2  0  0  0  0  0  0
  182.0860  175.3840  138.1200 C   0  0  0  0  0  2  0  0  0  0  0  0
  180.7760  178.3810  138.7810 C   0  0  0  0  0  3  0  0  0  0  0  0
  180.1260  179.9510  136.9340 C   0  0  1  0  0  0  0  0  0  0  0  0
  179.1500  179.3780  136.1130 O   0  0  0  0  0  1  0  0  0  0  0  0
  179.6490  181.1560  137.7350 C   0  0  2  0  0  3  0  0  0  0  0  0
  180.5660  181.3500  136.5300 C   0  0  2  0  0  3  0  0  0  0  0  0
  180.4510  181.3970  139.0070 C   0  0  0  0  0  2  0  0  0  0  0  0
  179.3450  181.3470  140.4480 S   0  0  0  0  0  1  0  0  0  0  0  0
  179.8140  181.8220  135.4510 O   0  0  0  0  0  0  0  0  0  0  0  0
  181.1440  183.6410  135.1100 O   0  0  0  0  0  1  0  0  0  0  0  0
  180.7520  182.4010  134.5990 C   0  0  0  0  0  2  0  0  0  0  0  0
  1  6  1  6  0  0  0
  1  4  1  0  0  0  0
  2  1  1  0  0  0  0
  2  5  1  1  0  0  0
  3 34  1  6  0  0  0
  4 32  1  6  0  0  0
  4  7  1  0  0  0  0
  5  3  1  0  0  0  0
  6  2  1  0  0  0  0
  7  3  1  0  0  0  0
  7 12  1  1  0  0  0
  8 16  1  0  0  0  0
  9 14  1  0  0  0  0
  9 24  1  1  0  0  0
 10 13  1  0  0  0  0
 11  8  2  0  0  0  0
 11 15  1  0  0  0  0
 12 16  1  6  0  0  0
 12  9  1  0  0  0  0
 13 14  1  0  0  0  0
 15 10  2  0  0  0  0
 16 13  2  0  0  0  0
 17 21  1  0  0  0  0
 19 22  1  0  0  0  0
 20 22  1  0  0  0  0
 21 18  1  6  0  0  0
 21 19  1  0  0  0  0
 22 11  1  6  0  0  0
 23 17  1  0  0  0  0
 23 20  1  0  0  0  0
 24 25  1  1  0  0  0
 24 27  1  0  0  0  0
 25 26  1  0  0  0  0
 27 28  1  0  0  0  0
 28 31  1  0  0  0  0
 29 30  1  0  0  0  0
 29 31  1  0  0  0  0
 30 31  1  0  0  0  0
 33 32  1  0  0  0  0
 35 40  1  6  0  0  0
 35 45  1  0  0  0  0
 38 34  1  1  0  0  0
 38 37  1  0  0  0  0
 38 42  1  0  0  0  0
 41 40  1  0  0  0  0
 41 43  1  0  0  0  0
 41 36  1  1  0  0  0
 42 39  1  0  0  0  0
 43 44  1  0  0  0  0
 44 37  1  0  0  0  0
 45 39  2  0  0  0  0
 46 47  1  6  0  0  0
 46 35  1  0  0  0  0
 46 48  1  0  0  0  0
 48 50  1  1  0  0  0
 49 52  1  6  0  0  0
 49 46  1  0  0  0  0
 49 48  1  0  0  0  0
 50 51  1  0  0  0  0
 54 53  1  0  0  0  0
 54 52  1  0  0  0  0
M  END
>  <MODEL>
3

>  <REMARK>
 VINA RESULT:      -5.1      2.954     10.057
  Name = 
  14 active torsions:
  status: ('A' for Active; 'I' for Inactive)
    1  A    between atoms: C_2  and  C_29
    2  A    between atoms: O_3  and  C_20
    3  A    between atoms: C_4  and  C_46
    4  A    between atoms: O_5  and  C_31
    5  A    between atoms: O_5  and  C_49
    6  A    between atoms: C_10  and  C_17
    7  A    between atoms: C_10  and  C_24
    8  A    between atoms: C_11  and  C_36
    9  A    between atoms: C_12  and  C_13
   10  A    between atoms: C_23  and  C_42
   11  A    between atoms: C_25  and  N_43
   12  A    between atoms: C_25  and  C_44
   13  A    between atoms: C_44  and  C_46
   14  A    between atoms: C_46  and  C_47
                            x       y       z     vdW  Elec       q    Type
                         _______ _______ _______ _____ _____    ______ ____

>  <TORSDO>
F 14

$$$$
=
 OpenBabel11062412463D

 54 61  0  0  1  0  0  0  0  0999 V2000
  185.2920  179.4030  142.3350 C   0  0  1  0  0  3  0  0  0  0  0  0
  186.3750  178.5410  141.7520 C   0  0  2  0  0  3  0  0  0  0  0  0
  184.7710  177.7870  139.9070 C   0  0  1  0  0  3  0  0  0  0  0  0
  183.8520  179.2050  141.8020 C   0  0  1  0  0  3  0  0  0  0  0  0
  185.9820  177.4400  140.7610 C   0  0  0  0  0  2  0  0  0  0  0  0
  185.7660  178.2510  142.9890 O   0  0  0  0  0  0  0  0  0  0  0  0
  183.5840  178.0330  140.8280 C   0  0  1  0  0  3  0  0  0  0  0  0
  182.5690  176.0250  138.5870 C   0  0  0  0  0  3  0  0  0  0  0  0
  181.0630  178.5540  140.9030 C   0  0  2  0  0  3  0  0  0  0  0  0
  180.0480  175.2150  139.5530 C   0  0  0  0  0  3  0  0  0  0  0  0
  182.0140  174.8090  138.1630 C   0  0  0  0  0  0  0  0  0  0  0  0
  182.2650  178.1240  140.0370 C   0  0  2  0  0  3  0  0  0  0  0  0
  180.6260  176.4180  139.9600 C   0  0  0  0  0  0  0  0  0  0  0  0
  180.0170  177.4250  140.8550 C   0  0  0  0  0  2  0  0  0  0  0  0
  180.7530  174.4040  138.6500 C   0  0  0  0  0  3  0  0  0  0  0  0
  181.8580  176.8080  139.4990 C   0  0  0  0  0  0  0  0  0  0  0  0
  184.1680  172.0960  135.6450 C   0  0  0  0  0  2  0  0  0  0  0  0
  182.1060  170.6930  135.3810 C   0  0  0  0  0  1  0  0  0  0  0  0
  181.9110  172.8400  136.6250 C   0  0  0  0  0  2  0  0  0  0  0  0
  184.0840  173.4490  137.7870 C   0  0  0  0  0  2  0  0  0  0  0  0
  182.6370  172.1100  135.4930 C   0  0  1  0  0  3  0  0  0  0  0  0
  182.7710  173.9720  137.1840 C   0  0  2  0  0  3  0  0  0  0  0  0
  184.5890  172.1660  137.1120 C   0  0  0  0  0  2  0  0  0  0  0  0
  180.5200  179.9190  140.4530 C   0  0  2  0  0  3  0  0  0  0  0  0
  179.4500  180.5260  141.3630 C   0  0  0  0  0  2  0  0  0  0  0  0
  179.6920  180.2370  142.8360 C   0  0  0  0  0  1  0  0  0  0  0  0
  180.3200  180.1420  138.9460 C   0  0  0  0  0  2  0  0  0  0  0  0
  180.1150  181.6010  138.5650 C   0  0  0  0  0  2  0  0  0  0  0  0
  180.5040  182.5950  136.4830 C   0  0  0  0  0  2  0  0  0  0  0  0
  181.0240  183.4870  137.5110 C   0  0  0  0  0  2  0  0  0  0  0  0
  181.1720  182.0320  137.6660 N   0  0  0  0  0  0  0  0  0  0  0  0
  182.8580  179.3830  142.7900 O   0  0  0  0  0  0  0  0  0  0  0  0
  183.3580  178.9270  144.0180 C   0  0  0  0  0  1  0  0  0  0  0  0
  185.0510  178.9620  138.9670 C   0  0  0  0  0  2  0  0  0  0  0  0
  188.8960  177.3980  137.6040 C   0  0  2  0  0  3  0  0  0  0  0  0
  188.1080  175.4890  135.6060 O   0  0  0  0  0  1  0  0  0  0  0  0
  184.9070  178.0170  136.6640 C   0  0  0  0  0  2  0  0  0  0  0  0
  185.8480  178.4910  137.7670 C   0  0  1  0  0  3  0  0  0  0  0  0
  187.7280  179.1570  136.2200 C   0  0  0  0  0  3  0  0  0  0  0  0
  187.8570  176.3040  137.9160 C   0  0  0  0  0  2  0  0  0  0  0  0
  187.3280  175.4320  136.7660 C   0  0  1  0  0  3  0  0  0  0  0  0
  186.7930  179.6000  137.3090 C   0  0  0  0  0  2  0  0  0  0  0  0
  185.8470  175.6810  136.4710 C   0  0  0  0  0  2  0  0  0  0  0  0
  185.5910  177.0020  135.7510 C   0  0  0  0  0  2  0  0  0  0  0  0
  188.6500  178.1930  136.3480 C   0  0  0  0  0  3  0  0  0  0  0  0
  190.3280  176.8640  137.6580 C   0  0  1  0  0  0  0  0  0  0  0  0
  191.1630  177.0970  136.5610 O   0  0  0  0  0  1  0  0  0  0  0  0
  191.0540  176.7700  138.9950 C   0  0  2  0  0  3  0  0  0  0  0  0
  190.5100  175.5100  138.3270 C   0  0  2  0  0  3  0  0  0  0  0  0
  190.1740  177.1130  140.1900 C   0  0  0  0  0  2  0  0  0  0  0  0
  191.2150  177.4790  141.6330 S   0  0  0  0  0  1  0  0  0  0  0  0
  191.5670  174.8010  137.7510 O   0  0  0  0  0  0  0  0  0  0  0  0
  189.7830  173.3930  137.5930 O   0  0  0  0  0  1  0  0  0  0  0  0
  190.9510  173.8320  136.9640 C   0  0  0  0  0  2  0  0  0  0  0  0
  1  6  1  1  0  0  0
  2  5  1  6  0  0  0
  2  1  1  0  0  0  0
  2  6  1  0  0  0  0
  3 34  1  1  0  0  0
  3  5  1  0  0  0  0
  3  7  1  0  0  0  0
  4  1  1  0  0  0  0
  4 32  1  1  0  0  0
  7 12  1  6  0  0  0
  7  4  1  0  0  0  0
  8 16  1  0  0  0  0
  9 24  1  6  0  0  0
 10 13  1  0  0  0  0
 11  8  2  0  0  0  0
 11 15  1  0  0  0  0
 12 16  1  1  0  0  0
 12  9  1  0  0  0  0
 13 14  1  0  0  0  0
 14  9  1  0  0  0  0
 15 10  2  0  0  0  0
 16 13  2  0  0  0  0
 17 23  1  0  0  0  0
 19 22  1  0  0  0  0
 21 18  1  1  0  0  0
 21 17  1  0  0  0  0
 21 19  1  0  0  0  0
 22 20  1  0  0  0  0
 22 11  1  1  0  0  0
 23 20  1  0  0  0  0
 24 27  1  6  0  0  0
 24 25  1  0  0  0  0
 25 26  1  0  0  0  0
 28 27  1  0  0  0  0
 29 30  1  0  0  0  0
 29 31  1  0  0  0  0
 30 31  1  0  0  0  0
 31 28  1  0  0  0  0
 32 33  1  0  0  0  0
 35 45  1  6  0  0  0
 35 46  1  0  0  0  0
 35 40  1  0  0  0  0
 37 38  1  0  0  0  0
 38 34  1  1  0  0  0
 39 45  2  0  0  0  0
 39 42  1  0  0  0  0
 41 36  1  6  0  0  0
 41 40  1  0  0  0  0
 42 38  1  0  0  0  0
 43 41  1  0  0  0  0
 44 43  1  0  0  0  0
 44 37  1  0  0  0  0
 46 47  1  6  0  0  0
 46 49  1  0  0  0  0
 46 48  1  0  0  0  0
 48 50  1  1  0  0  0
 49 52  1  6  0  0  0
 49 48  1  0  0  0  0
 50 51  1  0  0  0  0
 54 53  1  0  0  0  0
 54 52  1  0  0  0  0
M  END
>  <MODEL>
4

>  <REMARK>
 VINA RESULT:      -4.9      2.224      6.063
  Name = 
  14 active torsions:
  status: ('A' for Active; 'I' for Inactive)
    1  A    between atoms: C_2  and  C_29
    2  A    between atoms: O_3  and  C_20
    3  A    between atoms: C_4  and  C_46
    4  A    between atoms: O_5  and  C_31
    5  A    between atoms: O_5  and  C_49
    6  A    between atoms: C_10  and  C_17
    7  A    between atoms: C_10  and  C_24
    8  A    between atoms: C_11  and  C_36
    9  A    between atoms: C_12  and  C_13
   10  A    between atoms: C_23  and  C_42
   11  A    between atoms: C_25  and  N_43
   12  A    between atoms: C_25  and  C_44
   13  A    between atoms: C_44  and  C_46
   14  A    between atoms: C_46  and  C_47
                            x       y       z     vdW  Elec       q    Type
                         _______ _______ _______ _____ _____    ______ ____

>  <TORSDO>
F 14

$$$$
=
 OpenBabel11062412463D

 54 61  0  0  1  0  0  0  0  0999 V2000
  182.9530  179.1440  141.4340 C   0  0  1  0  0  3  0  0  0  0  0  0
  184.0970  178.1710  141.4750 C   0  0  2  0  0  3  0  0  0  0  0  0
  183.6410  177.5460  139.0360 C   0  0  1  0  0  3  0  0  0  0  0  0
  181.9970  179.0780  140.2180 C   0  0  1  0  0  3  0  0  0  0  0  0
  184.1850  177.0980  140.3850 C   0  0  0  0  0  2  0  0  0  0  0  0
  182.9050  177.9620  142.1970 O   0  0  0  0  0  0  0  0  0  0  0  0
  182.1750  177.9220  139.2060 C   0  0  1  0  0  3  0  0  0  0  0  0
  181.7210  175.7280  136.9540 C   0  0  0  0  0  3  0  0  0  0  0  0
  180.2330  179.0260  137.9240 C   0  0  2  0  0  3  0  0  0  0  0  0
  178.9330  175.7960  136.5530 C   0  0  0  0  0  3  0  0  0  0  0  0
  181.0640  174.6120  136.4170 C   0  0  0  0  0  0  0  0  0  0  0  0
  181.4840  178.1270  137.8440 C   0  0  2  0  0  3  0  0  0  0  0  0
  179.6130  176.8900  137.0890 C   0  0  0  0  0  0  0  0  0  0  0  0
  179.0250  178.1990  137.4470 C   0  0  0  0  0  2  0  0  0  0  0  0
  179.6670  174.6480  136.2190 C   0  0  0  0  0  3  0  0  0  0  0  0
  180.9690  176.8540  137.2940 C   0  0  0  0  0  0  0  0  0  0  0  0
  183.1800  170.9620  135.6830 C   0  0  0  0  0  2  0  0  0  0  0  0
  181.0430  169.8580  134.9740 C   0  0  0  0  0  1  0  0  0  0  0  0
  180.9890  172.2930  135.4850 C   0  0  0  0  0  2  0  0  0  0  0  0
  182.7280  172.9230  137.2250 C   0  0  0  0  0  2  0  0  0  0  0  0
  181.8440  171.1460  134.9420 C   0  0  1  0  0  3  0  0  0  0  0  0
  181.8690  173.4090  136.0470 C   0  0  2  0  0  3  0  0  0  0  0  0
  183.0890  171.4330  137.1340 C   0  0  0  0  0  2  0  0  0  0  0  0
  180.4380  180.3290  137.1380 C   0  0  2  0  0  3  0  0  0  0  0  0
  181.0660  180.1620  135.7520 C   0  0  0  0  0  2  0  0  0  0  0  0
  180.0400  179.8760  134.6680 C   0  0  0  0  0  1  0  0  0  0  0  0
  180.8800  181.5720  137.9270 C   0  0  0  0  0  2  0  0  0  0  0  0
  180.3410  182.8780  137.3620 C   0  0  0  0  0  2  0  0  0  0  0  0
  180.9780  184.7480  136.1080 C   0  0  0  0  0  2  0  0  0  0  0  0
  180.9160  185.1460  137.5090 C   0  0  0  0  0  2  0  0  0  0  0  0
  181.4310  183.8150  137.1510 N   0  0  0  0  0  0  0  0  0  0  0  0
  180.6540  179.3680  140.5430 O   0  0  0  0  0  0  0  0  0  0  0  0
  180.5820  179.7030  141.9030 C   0  0  0  0  0  1  0  0  0  0  0  0
  184.4800  178.6720  138.4270 C   0  0  0  0  0  2  0  0  0  0  0  0
  188.4220  177.1980  137.2580 C   0  0  2  0  0  3  0  0  0  0  0  0
  187.7670  175.0770  135.4320 O   0  0  0  0  0  1  0  0  0  0  0  0
  184.4230  177.5170  136.2190 C   0  0  0  0  0  2  0  0  0  0  0  0
  185.3190  178.1380  137.2850 C   0  0  1  0  0  3  0  0  0  0  0  0
  187.1880  178.7590  135.7050 C   0  0  0  0  0  3  0  0  0  0  0  0
  187.4360  176.0820  137.6560 C   0  0  0  0  0  2  0  0  0  0  0  0
  186.9720  175.0830  136.5840 C   0  0  1  0  0  3  0  0  0  0  0  0
  186.2130  179.2490  136.7380 C   0  0  0  0  0  2  0  0  0  0  0  0
  185.4850  175.2260  136.2500 C   0  0  0  0  0  2  0  0  0  0  0  0
  185.1730  176.4610  135.4090 C   0  0  0  0  0  2  0  0  0  0  0  0
  188.1560  177.8620  135.9320 C   0  0  0  0  0  3  0  0  0  0  0  0
  189.8790  176.7470  137.3760 C   0  0  1  0  0  0  0  0  0  0  0  0
  190.6450  176.6710  136.2090 O   0  0  0  0  0  1  0  0  0  0  0  0
  190.6750  177.0750  138.6340 C   0  0  2  0  0  3  0  0  0  0  0  0
  190.1580  175.6580  138.4010 C   0  0  2  0  0  3  0  0  0  0  0  0
  189.8410  177.7300  139.7280 C   0  0  0  0  0  2  0  0  0  0  0  0
  190.7630  177.7160  141.2930 S   0  0  0  0  0  1  0  0  0  0  0  0
  191.2180  174.8430  137.9940 O   0  0  0  0  0  0  0  0  0  0  0  0
  191.2910  173.4390  136.2010 O   0  0  0  0  0  1  0  0  0  0  0  0
  190.6050  173.7560  137.3760 C   0  0  0  0  0  2  0  0  0  0  0  0
  1  2  1  0  0  0  0
  1  6  1  1  0  0  0
  2  5  1  6  0  0  0
  2  6  1  0  0  0  0
  3 34  1  1  0  0  0
  3  7  1  0  0  0  0
  3  5  1  0  0  0  0
  4 32  1  1  0  0  0
  4  1  1  0  0  0  0
  7 12  1  6  0  0  0
  7  4  1  0  0  0  0
  8 16  1  0  0  0  0
  9 24  1  6  0  0  0
 10 13  1  0  0  0  0
 11  8  2  0  0  0  0
 12 16  1  1  0  0  0
 12  9  1  0  0  0  0
 13 16  2  0  0  0  0
 13 14  1  0  0  0  0
 14  9  1  0  0  0  0
 15 11  1  0  0  0  0
 15 10  2  0  0  0  0
 17 23  1  0  0  0  0
 19 22  1  0  0  0  0
 21 18  1  1  0  0  0
 21 19  1  0  0  0  0
 21 17  1  0  0  0  0
 22 11  1  1  0  0  0
 22 20  1  0  0  0  0
 23 20  1  0  0  0  0
 24 25  1  6  0  0  0
 24 27  1  0  0  0  0
 26 25  1  0  0  0  0
 28 27  1  0  0  0  0
 29 31  1  0  0  0  0
 29 30  1  0  0  0  0
 31 28  1  0  0  0  0
 31 30  1  0  0  0  0
 32 33  1  0  0  0  0
 35 45  1  6  0  0  0
 35 46  1  0  0  0  0
 35 40  1  0  0  0  0
 37 38  1  0  0  0  0
 38 34  1  1  0  0  0
 39 45  2  0  0  0  0
 39 42  1  0  0  0  0
 41 36  1  6  0  0  0
 41 40  1  0  0  0  0
 42 38  1  0  0  0  0
 43 41  1  0  0  0  0
 44 37  1  0  0  0  0
 44 43  1  0  0  0  0
 46 47  1  6  0  0  0
 46 49  1  0  0  0  0
 46 48  1  0  0  0  0
 48 50  1  1  0  0  0
 49 52  1  6  0  0  0
 49 48  1  0  0  0  0
 50 51  1  0  0  0  0
 53 54  1  0  0  0  0
 54 52  1  0  0  0  0
M  END
>  <MODEL>
5

>  <REMARK>
 VINA RESULT:      -4.9      2.598      6.490
  Name = 
  14 active torsions:
  status: ('A' for Active; 'I' for Inactive)
    1  A    between atoms: C_2  and  C_29
    2  A    between atoms: O_3  and  C_20
    3  A    between atoms: C_4  and  C_46
    4  A    between atoms: O_5  and  C_31
    5  A    between atoms: O_5  and  C_49
    6  A    between atoms: C_10  and  C_17
    7  A    between atoms: C_10  and  C_24
    8  A    between atoms: C_11  and  C_36
    9  A    between atoms: C_12  and  C_13
   10  A    between atoms: C_23  and  C_42
   11  A    between atoms: C_25  and  N_43
   12  A    between atoms: C_25  and  C_44
   13  A    between atoms: C_44  and  C_46
   14  A    between atoms: C_46  and  C_47
                            x       y       z     vdW  Elec       q    Type
                         _______ _______ _______ _____ _____    ______ ____

>  <TORSDO>
F 14

$$$$
=
 OpenBabel11062412463D

 54 61  0  0  1  0  0  0  0  0999 V2000
  186.2460  178.0180  141.1910 C   0  0  1  0  0  3  0  0  0  0  0  0
  186.2630  178.4930  139.7670 C   0  0  2  0  0  3  0  0  0  0  0  0
  188.6550  177.6220  139.5120 C   0  0  1  0  0  3  0  0  0  0  0  0
  187.5930  177.5800  141.8180 C   0  0  1  0  0  3  0  0  0  0  0  0
  187.6130  178.6340  139.0570 C   0  0  0  0  0  2  0  0  0  0  0  0
  186.2490  179.3840  140.8580 O   0  0  0  0  0  0  0  0  0  0  0  0
  188.8890  177.8070  141.0050 C   0  0  1  0  0  3  0  0  0  0  0  0
  191.0530  176.3610  139.1840 C   0  0  0  0  0  3  0  0  0  0  0  0
  190.8310  177.6580  142.6910 C   0  0  2  0  0  3  0  0  0  0  0  0
  193.4800  177.5010  140.0510 C   0  0  0  0  0  3  0  0  0  0  0  0
  192.1680  176.3640  138.3340 C   0  0  0  0  0  0  0  0  0  0  0  0
  190.1170  177.0090  141.4870 C   0  0  2  0  0  3  0  0  0  0  0  0
  192.3520  177.4870  140.8740 C   0  0  0  0  0  0  0  0  0  0  0  0
  192.2770  177.9770  142.2670 C   0  0  0  0  0  2  0  0  0  0  0  0
  193.3810  176.9380  138.7700 C   0  0  0  0  0  3  0  0  0  0  0  0
  191.1680  176.9410  140.4490 C   0  0  0  0  0  0  0  0  0  0  0  0
  192.0770  174.2580  134.6070 C   0  0  0  0  0  2  0  0  0  0  0  0
  190.7600  172.4100  135.6750 C   0  0  0  0  0  1  0  0  0  0  0  0
  191.2440  174.4390  137.0320 C   0  0  0  0  0  2  0  0  0  0  0  0
  193.4250  175.5350  136.3320 C   0  0  0  0  0  2  0  0  0  0  0  0
  190.9740  173.9110  135.6210 C   0  0  1  0  0  3  0  0  0  0  0  0
  192.0480  175.7380  136.9830 C   0  0  2  0  0  3  0  0  0  0  0  0
  193.4380  174.4130  135.2850 C   0  0  0  0  0  2  0  0  0  0  0  0
  190.7360  176.7640  143.9360 C   0  0  2  0  0  3  0  0  0  0  0  0
  190.9040  175.2660  143.6760 C   0  0  0  0  0  2  0  0  0  0  0  0
  192.1310  174.6810  144.3560 C   0  0  0  0  0  1  0  0  0  0  0  0
  189.7010  177.1450  145.0060 C   0  0  0  0  0  2  0  0  0  0  0  0
  190.2530  177.1310  146.4240 C   0  0  0  0  0  2  0  0  0  0  0  0
  189.0660  177.9030  148.2860 C   0  0  0  0  0  2  0  0  0  0  0  0
  188.1240  177.7490  147.1850 C   0  0  0  0  0  2  0  0  0  0  0  0
  189.2050  176.7670  147.3610 N   0  0  0  0  0  0  0  0  0  0  0  0
  187.7020  177.8920  143.1910 O   0  0  0  0  0  0  0  0  0  0  0  0
  186.4290  177.8040  143.7740 C   0  0  0  0  0  1  0  0  0  0  0  0
  188.2610  176.1900  139.1420 C   0  0  0  0  0  2  0  0  0  0  0  0
  184.7900  175.3360  136.6320 C   0  0  2  0  0  3  0  0  0  0  0  0
  184.9720  177.3800  134.6190 O   0  0  0  0  0  1  0  0  0  0  0  0
  188.5460  177.0770  136.8300 C   0  0  0  0  0  2  0  0  0  0  0  0
  187.7340  176.1440  137.7230 C   0  0  1  0  0  3  0  0  0  0  0  0
  187.0690  174.5540  135.8790 C   0  0  0  0  0  3  0  0  0  0  0  0
  184.9260  176.8220  137.0170 C   0  0  0  0  0  2  0  0  0  0  0  0
  185.2120  177.8530  135.9130 C   0  0  1  0  0  3  0  0  0  0  0  0
  187.7230  174.7010  137.2230 C   0  0  0  0  0  2  0  0  0  0  0  0
  186.6020  178.4830  136.0420 C   0  0  0  0  0  2  0  0  0  0  0  0
  187.7290  177.5420  135.6260 C   0  0  0  0  0  2  0  0  0  0  0  0
  185.7840  174.8310  135.6190 C   0  0  0  0  0  3  0  0  0  0  0  0
  183.3560  174.9730  136.2400 C   0  0  1  0  0  0  0  0  0  0  0  0
  182.7750  175.6450  135.1620 O   0  0  0  0  0  1  0  0  0  0  0  0
  182.8520  173.5490  136.4430 C   0  0  2  0  0  3  0  0  0  0  0  0
  182.4100  174.6610  137.3900 C   0  0  2  0  0  3  0  0  0  0  0  0
  183.8440  172.6500  137.1700 C   0  0  0  0  0  2  0  0  0  0  0  0
  184.2800  171.2370  136.1140 S   0  0  0  0  0  1  0  0  0  0  0  0
  181.1000  175.0360  137.0800 O   0  0  0  0  0  0  0  0  0  0  0  0
  181.2500  176.5620  138.7650 O   0  0  0  0  0  1  0  0  0  0  0  0
  181.0410  176.3920  137.3940 C   0  0  0  0  0  2  0  0  0  0  0  0
  1  6  1  1  0  0  0
  1  4  1  0  0  0  0
  2  5  1  1  0  0  0
  2  6  1  0  0  0  0
  2  1  1  0  0  0  0
  3 34  1  1  0  0  0
  3  7  1  0  0  0  0
  4 32  1  1  0  0  0
  5  3  1  0  0  0  0
  7 12  1  1  0  0  0
  7  4  1  0  0  0  0
  8 16  1  0  0  0  0
  9 24  1  1  0  0  0
 10 13  1  0  0  0  0
 11 15  1  0  0  0  0
 11  8  2  0  0  0  0
 12 16  1  6  0  0  0
 12  9  1  0  0  0  0
 13 14  1  0  0  0  0
 14  9  1  0  0  0  0
 15 10  2  0  0  0  0
 16 13  2  0  0  0  0
 17 23  1  0  0  0  0
 17 21  1  0  0  0  0
 20 22  1  0  0  0  0
 21 18  1  1  0  0  0
 21 19  1  0  0  0  0
 22 19  1  0  0  0  0
 22 11  1  1  0  0  0
 23 20  1  0  0  0  0
 24 25  1  6  0  0  0
 24 27  1  0  0  0  0
 25 26  1  0  0  0  0
 27 28  1  0  0  0  0
 28 31  1  0  0  0  0
 30 31  1  0  0  0  0
 30 29  1  0  0  0  0
 31 29  1  0  0  0  0
 32 33  1  0  0  0  0
 35 45  1  6  0  0  0
 35 40  1  0  0  0  0
 37 38  1  0  0  0  0
 38 34  1  1  0  0  0
 39 42  1  0  0  0  0
 41 36  1  6  0  0  0
 41 43  1  0  0  0  0
 41 40  1  0  0  0  0
 42 38  1  0  0  0  0
 44 43  1  0  0  0  0
 44 37  1  0  0  0  0
 45 39  2  0  0  0  0
 46 47  1  6  0  0  0
 46 48  1  0  0  0  0
 46 35  1  0  0  0  0
 46 49  1  0  0  0  0
 48 50  1  1  0  0  0
 48 49  1  0  0  0  0
 49 52  1  6  0  0  0
 51 50  1  0  0  0  0
 52 54  1  0  0  0  0
 54 53  1  0  0  0  0
M  END
>  <MODEL>
6

>  <REMARK>
 VINA RESULT:      -4.6      4.407      9.309
  Name = 
  14 active torsions:
  status: ('A' for Active; 'I' for Inactive)
    1  A    between atoms: C_2  and  C_29
    2  A    between atoms: O_3  and  C_20
    3  A    between atoms: C_4  and  C_46
    4  A    between atoms: O_5  and  C_31
    5  A    between atoms: O_5  and  C_49
    6  A    between atoms: C_10  and  C_17
    7  A    between atoms: C_10  and  C_24
    8  A    between atoms: C_11  and  C_36
    9  A    between atoms: C_12  and  C_13
   10  A    between atoms: C_23  and  C_42
   11  A    between atoms: C_25  and  N_43
   12  A    between atoms: C_25  and  C_44
   13  A    between atoms: C_44  and  C_46
   14  A    between atoms: C_46  and  C_47
                            x       y       z     vdW  Elec       q    Type
                         _______ _______ _______ _____ _____    ______ ____

>  <TORSDO>
F 14

$$$$
=
 OpenBabel11062412463D

 54 61  0  0  1  0  0  0  0  0999 V2000
  187.1310  178.1500  135.3620 C   0  0  1  0  0  3  0  0  0  0  0  0
  185.7560  177.5480  135.3710 C   0  0  2  0  0  3  0  0  0  0  0  0
  186.1180  176.7760  137.7830 C   0  0  1  0  0  3  0  0  0  0  0  0
  188.0800  177.7920  136.5320 C   0  0  1  0  0  3  0  0  0  0  0  0
  185.4100  176.5260  136.4590 C   0  0  0  0  0  2  0  0  0  0  0  0
  186.8050  177.0180  134.5940 O   0  0  0  0  0  0  0  0  0  0  0  0
  187.6210  176.7190  137.5470 C   0  0  1  0  0  3  0  0  0  0  0  0
  190.4470  175.3660  138.0700 C   0  0  0  0  0  3  0  0  0  0  0  0
  188.3350  178.0280  139.6460 C   0  0  2  0  0  3  0  0  0  0  0  0
  191.9950  177.4960  139.0750 C   0  0  0  0  0  3  0  0  0  0  0  0
  191.8450  175.3240  137.9700 C   0  0  0  0  0  0  0  0  0  0  0  0
  188.4000  176.6930  138.8760 C   0  0  2  0  0  3  0  0  0  0  0  0
  190.6020  177.5130  139.1570 C   0  0  0  0  0  0  0  0  0  0  0  0
  189.7740  178.5540  139.8030 C   0  0  0  0  0  2  0  0  0  0  0  0
  192.6180  176.3930  138.4720 C   0  0  0  0  0  3  0  0  0  0  0  0
  189.8470  176.4810  138.6590 C   0  0  0  0  0  0  0  0  0  0  0  0
  193.5990  172.0760  135.8000 C   0  0  0  0  0  2  0  0  0  0  0  0
  195.4440  173.5840  135.0190 C   0  0  0  0  0  1  0  0  0  0  0  0
  193.8020  174.4920  136.6550 C   0  0  0  0  0  2  0  0  0  0  0  0
  191.5230  173.4030  136.3950 C   0  0  0  0  0  2  0  0  0  0  0  0
  194.5360  173.2340  136.1830 C   0  0  1  0  0  3  0  0  0  0  0  0
  192.4880  174.1290  137.3450 C   0  0  2  0  0  3  0  0  0  0  0  0
  192.2430  172.5850  135.3130 C   0  0  0  0  0  2  0  0  0  0  0  0
  187.5900  177.8610  140.9790 C   0  0  2  0  0  3  0  0  0  0  0  0
  186.9390  179.1340  141.5260 C   0  0  0  0  0  2  0  0  0  0  0  0
  185.9000  178.8530  142.5990 C   0  0  0  0  0  1  0  0  0  0  0  0
  188.2120  176.9250  142.0280 C   0  0  0  0  0  2  0  0  0  0  0  0
  189.5200  177.4430  142.6100 C   0  0  0  0  0  2  0  0  0  0  0  0
  191.7310  176.9620  143.2060 C   0  0  0  0  0  2  0  0  0  0  0  0
  190.8530  176.1970  144.0810 C   0  0  0  0  0  2  0  0  0  0  0  0
  190.4970  176.3700  142.6640 N   0  0  0  0  0  0  0  0  0  0  0  0
  189.4340  177.6900  136.1460 O   0  0  0  0  0  0  0  0  0  0  0  0
  189.5070  176.9630  134.9490 C   0  0  0  0  0  1  0  0  0  0  0  0
  185.6650  178.0850  138.4350 C   0  0  0  0  0  2  0  0  0  0  0  0
  181.9440  176.0570  137.3780 C   0  0  2  0  0  3  0  0  0  0  0  0
  180.3800  176.3580  139.7710 O   0  0  0  0  0  1  0  0  0  0  0  0
  183.7450  178.8940  139.8030 C   0  0  0  0  0  2  0  0  0  0  0  0
  184.1560  178.1110  138.5610 C   0  0  1  0  0  3  0  0  0  0  0  0
  182.0410  178.5770  137.2630 C   0  0  0  0  0  3  0  0  0  0  0  0
  182.5060  175.6440  138.7520 C   0  0  0  0  0  2  0  0  0  0  0  0
  181.7100  176.0020  140.0180 C   0  0  1  0  0  3  0  0  0  0  0  0
  183.5410  178.6640  137.2770 C   0  0  0  0  0  2  0  0  0  0  0  0
  182.4260  177.0360  140.8910 C   0  0  0  0  0  2  0  0  0  0  0  0
  182.3760  178.4480  140.3130 C   0  0  0  0  0  2  0  0  0  0  0  0
  181.3410  177.4360  137.3060 C   0  0  0  0  0  3  0  0  0  0  0  0
  180.9980  175.0010  136.8020 C   0  0  1  0  0  0  0  0  0  0  0  0
  179.6470  175.3320  136.6580 O   0  0  0  0  0  1  0  0  0  0  0  0
  181.5150  173.9950  135.7820 C   0  0  2  0  0  3  0  0  0  0  0  0
  181.2660  173.5650  137.2250 C   0  0  2  0  0  3  0  0  0  0  0  0
  183.0170  174.0840  135.5470 C   0  0  0  0  0  2  0  0  0  0  0  0
  183.5990  172.5760  134.7170 S   0  0  0  0  0  1  0  0  0  0  0  0
  180.0800  172.8290  137.2890 O   0  0  0  0  0  0  0  0  0  0  0  0
  179.5820  170.7560  136.4850 O   0  0  0  0  0  1  0  0  0  0  0  0
  180.4910  171.4990  137.2420 C   0  0  0  0  0  2  0  0  0  0  0  0
  1  6  1  6  0  0  0
  1  2  1  0  0  0  0
  1  4  1  0  0  0  0
  2  5  1  1  0  0  0
  3 34  1  6  0  0  0
  4 32  1  6  0  0  0
  4  7  1  0  0  0  0
  5  3  1  0  0  0  0
  6  2  1  0  0  0  0
  7  3  1  0  0  0  0
  7 12  1  1  0  0  0
  8 16  1  0  0  0  0
  9 14  1  0  0  0  0
  9 24  1  1  0  0  0
 10 13  1  0  0  0  0
 11  8  2  0  0  0  0
 11 15  1  0  0  0  0
 12 16  1  6  0  0  0
 12  9  1  0  0  0  0
 13 14  1  0  0  0  0
 15 10  2  0  0  0  0
 16 13  2  0  0  0  0
 17 21  1  0  0  0  0
 19 22  1  0  0  0  0
 20 22  1  0  0  0  0
 21 18  1  6  0  0  0
 21 19  1  0  0  0  0
 22 11  1  6  0  0  0
 23 17  1  0  0  0  0
 23 20  1  0  0  0  0
 24 25  1  1  0  0  0
 24 27  1  0  0  0  0
 25 26  1  0  0  0  0
 27 28  1  0  0  0  0
 28 31  1  0  0  0  0
 29 30  1  0  0  0  0
 31 29  1  0  0  0  0
 31 30  1  0  0  0  0
 33 32  1  0  0  0  0
 35 45  1  1  0  0  0
 35 40  1  0  0  0  0
 37 44  1  0  0  0  0
 38 34  1  6  0  0  0
 38 37  1  0  0  0  0
 39 42  1  0  0  0  0
 39 45  2  0  0  0  0
 40 41  1  0  0  0  0
 41 36  1  6  0  0  0
 41 43  1  0  0  0  0
 42 38  1  0  0  0  0
 44 43  1  0  0  0  0
 46 47  1  6  0  0  0
 46 49  1  0  0  0  0
 46 35  1  0  0  0  0
 48 50  1  1  0  0  0
 48 46  1  0  0  0  0
 48 49  1  0  0  0  0
 49 52  1  6  0  0  0
 51 50  1  0  0  0  0
 53 54  1  0  0  0  0
 54 52  1  0  0  0  0
M  END
>  <MODEL>
7

>  <REMARK>
 VINA RESULT:      -4.4      3.288      9.776
  Name = 
  14 active torsions:
  status: ('A' for Active; 'I' for Inactive)
    1  A    between atoms: C_2  and  C_29
    2  A    between atoms: O_3  and  C_20
    3  A    between atoms: C_4  and  C_46
    4  A    between atoms: O_5  and  C_31
    5  A    between atoms: O_5  and  C_49
    6  A    between atoms: C_10  and  C_17
    7  A    between atoms: C_10  and  C_24
    8  A    between atoms: C_11  and  C_36
    9  A    between atoms: C_12  and  C_13
   10  A    between atoms: C_23  and  C_42
   11  A    between atoms: C_25  and  N_43
   12  A    between atoms: C_25  and  C_44
   13  A    between atoms: C_44  and  C_46
   14  A    between atoms: C_46  and  C_47
                            x       y       z     vdW  Elec       q    Type
                         _______ _______ _______ _____ _____    ______ ____

>  <TORSDO>
F 14

$$$$
=
 OpenBabel11062412463D

 54 61  0  0  1  0  0  0  0  0999 V2000
  184.1790  175.7490  137.9510 C   0  0  1  0  0  3  0  0  0  0  0  0
  185.4550  176.3370  137.4200 C   0  0  2  0  0  3  0  0  0  0  0  0
  185.1270  178.3840  138.9200 C   0  0  1  0  0  3  0  0  0  0  0  0
  183.2580  176.6700  138.7890 C   0  0  1  0  0  3  0  0  0  0  0  0
  185.7170  177.8320  137.6290 C   0  0  0  0  0  2  0  0  0  0  0  0
  184.3000  176.2040  136.6250 O   0  0  0  0  0  0  0  0  0  0  0  0
  183.6200  178.1710  138.8950 C   0  0  1  0  0  3  0  0  0  0  0  0
  181.9630  180.8680  138.6370 C   0  0  0  0  0  3  0  0  0  0  0  0
  182.2170  178.0130  141.0480 C   0  0  2  0  0  3  0  0  0  0  0  0
  179.4630  180.1870  139.7470 C   0  0  0  0  0  3  0  0  0  0  0  0
  180.8180  181.5970  138.2850 C   0  0  0  0  0  0  0  0  0  0  0  0
  182.9220  178.9380  140.0340 C   0  0  2  0  0  3  0  0  0  0  0  0
  180.6180  179.4770  140.0750 C   0  0  0  0  0  0  0  0  0  0  0  0
  180.7180  178.3670  141.0470 C   0  0  0  0  0  2  0  0  0  0  0  0
  179.5670  181.2530  138.8400 C   0  0  0  0  0  3  0  0  0  0  0  0
  181.8330  179.8010  139.5280 C   0  0  0  0  0  0  0  0  0  0  0  0
  180.8040  184.8130  135.4570 C   0  0  0  0  0  2  0  0  0  0  0  0
  179.2250  186.1010  136.9180 C   0  0  0  0  0  1  0  0  0  0  0  0
  180.1250  183.9460  137.7800 C   0  0  0  0  0  2  0  0  0  0  0  0
  180.6300  182.3220  135.8940 C   0  0  0  0  0  2  0  0  0  0  0  0
  180.4200  185.1660  136.9040 C   0  0  1  0  0  3  0  0  0  0  0  0
  180.9560  182.7430  137.3360 C   0  0  2  0  0  3  0  0  0  0  0  0
  180.1750  183.4940  135.0120 C   0  0  0  0  0  2  0  0  0  0  0  0
  182.8740  178.1110  142.4340 C   0  0  2  0  0  3  0  0  0  0  0  0
  181.9010  178.1430  143.6150 C   0  0  0  0  0  2  0  0  0  0  0  0
  181.1650  179.4670  143.7400 C   0  0  0  0  0  1  0  0  0  0  0  0
  184.1180  179.0030  142.5680 C   0  0  0  0  0  2  0  0  0  0  0  0
  184.9530  178.7050  143.8050 C   0  0  0  0  0  2  0  0  0  0  0  0
  184.3220  178.6280  146.0570 C   0  0  0  0  0  2  0  0  0  0  0  0
  185.5400  179.4220  145.9580 C   0  0  0  0  0  2  0  0  0  0  0  0
  184.5110  179.5340  144.9130 N   0  0  0  0  0  0  0  0  0  0  0  0
  181.8830  176.4130  138.5980 O   0  0  0  0  0  0  0  0  0  0  0  0
  181.6410  175.0540  138.8470 C   0  0  0  0  0  1  0  0  0  0  0  0
  185.7950  177.7790  140.1580 C   0  0  0  0  0  2  0  0  0  0  0  0
  189.3590  177.8970  142.6810 C   0  0  2  0  0  3  0  0  0  0  0  0
  191.4770  177.5620  140.7670 O   0  0  0  0  0  1  0  0  0  0  0  0
  187.8210  178.4590  138.8740 C   0  0  0  0  0  2  0  0  0  0  0  0
  187.2280  178.2590  140.2650 C   0  0  1  0  0  3  0  0  0  0  0  0
  188.6910  179.9710  141.4060 C   0  0  0  0  0  3  0  0  0  0  0  0
  189.3470  176.7270  141.6800 C   0  0  0  0  0  2  0  0  0  0  0  0
  190.3960  176.7000  140.5560 C   0  0  1  0  0  3  0  0  0  0  0  0
  187.2860  179.5200  141.1250 C   0  0  0  0  0  2  0  0  0  0  0  0
  189.7770  176.8890  139.1680 C   0  0  0  0  0  2  0  0  0  0  0  0
  189.3420  178.3270  138.8960 C   0  0  0  0  0  2  0  0  0  0  0  0
  189.5990  179.2620  142.0880 C   0  0  0  0  0  3  0  0  0  0  0  0
  190.2870  177.6310  143.8680 C   0  0  1  0  0  0  0  0  0  0  0  0
  191.5130  178.3010  143.9120 O   0  0  0  0  0  1  0  0  0  0  0  0
  189.6970  177.3020  145.2340 C   0  0  2  0  0  3  0  0  0  0  0  0
  190.3180  176.1990  144.3810 C   0  0  2  0  0  3  0  0  0  0  0  0
  188.1830  177.1410  145.2200 C   0  0  0  0  0  2  0  0  0  0  0  0
  187.5520  177.1230  146.9230 S   0  0  0  0  0  1  0  0  0  0  0  0
  191.5770  175.8740  144.8930 O   0  0  0  0  0  0  0  0  0  0  0  0
  192.5290  173.8060  144.8040 O   0  0  0  0  0  1  0  0  0  0  0  0
  192.0530  174.8780  144.0440 C   0  0  0  0  0  2  0  0  0  0  0  0
  1  6  1  6  0  0  0
  1  4  1  0  0  0  0
  2  5  1  1  0  0  0
  2  1  1  0  0  0  0
  3 34  1  1  0  0  0
  4 32  1  6  0  0  0
  4  7  1  0  0  0  0
  5  3  1  0  0  0  0
  6  2  1  0  0  0  0
  7  3  1  0  0  0  0
  7 12  1  1  0  0  0
  8 16  1  0  0  0  0
  9 24  1  1  0  0  0
 10 13  1  0  0  0  0
 11  8  2  0  0  0  0
 11 15  1  0  0  0  0
 12 16  1  6  0  0  0
 12  9  1  0  0  0  0
 13 14  1  0  0  0  0
 14  9  1  0  0  0  0
 15 10  2  0  0  0  0
 16 13  2  0  0  0  0
 17 21  1  0  0  0  0
 20 22  1  0  0  0  0
 21 18  1  6  0  0  0
 21 19  1  0  0  0  0
 22 19  1  0  0  0  0
 22 11  1  1  0  0  0
 23 17  1  0  0  0  0
 23 20  1  0  0  0  0
 24 27  1  6  0  0  0
 24 25  1  0  0  0  0
 25 26  1  0  0  0  0
 27 28  1  0  0  0  0
 28 31  1  0  0  0  0
 30 29  1  0  0  0  0
 31 30  1  0  0  0  0
 31 29  1  0  0  0  0
 32 33  1  0  0  0  0
 35 40  1  6  0  0  0
 35 46  1  0  0  0  0
 37 44  1  0  0  0  0
 37 38  1  0  0  0  0
 38 34  1  6  0  0  0
 38 42  1  0  0  0  0
 39 45  2  0  0  0  0
 41 36  1  1  0  0  0
 41 40  1  0  0  0  0
 42 39  1  0  0  0  0
 43 41  1  0  0  0  0
 44 43  1  0  0  0  0
 45 35  1  0  0  0  0
 46 47  1  6  0  0  0
 46 49  1  0  0  0  0
 46 48  1  0  0  0  0
 48 50  1  6  0  0  0
 49 52  1  1  0  0  0
 49 48  1  0  0  0  0
 50 51  1  0  0  0  0
 54 53  1  0  0  0  0
 54 52  1  0  0  0  0
M  END
>  <MODEL>
8

>  <REMARK>
 VINA RESULT:      -4.3      2.603      3.963
  Name = 
  14 active torsions:
  status: ('A' for Active; 'I' for Inactive)
    1  A    between atoms: C_2  and  C_29
    2  A    between atoms: O_3  and  C_20
    3  A    between atoms: C_4  and  C_46
    4  A    between atoms: O_5  and  C_31
    5  A    between atoms: O_5  and  C_49
    6  A    between atoms: C_10  and  C_17
    7  A    between atoms: C_10  and  C_24
    8  A    between atoms: C_11  and  C_36
    9  A    between atoms: C_12  and  C_13
   10  A    between atoms: C_23  and  C_42
   11  A    between atoms: C_25  and  N_43
   12  A    between atoms: C_25  and  C_44
   13  A    between atoms: C_44  and  C_46
   14  A    between atoms: C_46  and  C_47
                            x       y       z     vdW  Elec       q    Type
                         _______ _______ _______ _____ _____    ______ ____

>  <TORSDO>
F 14

$$$$
=
 OpenBabel11062412463D

 54 61  0  0  1  0  0  0  0  0999 V2000
  188.7380  176.4110  135.9930 C   0  0  1  0  0  3  0  0  0  0  0  0
  188.7410  177.8880  136.2650 C   0  0  2  0  0  3  0  0  0  0  0  0
  186.3160  177.7360  137.0660 C   0  0  1  0  0  3  0  0  0  0  0  0
  187.3750  175.6770  136.0260 C   0  0  1  0  0  3  0  0  0  0  0  0
  187.3970  178.6040  136.4370 C   0  0  0  0  0  2  0  0  0  0  0  0
  188.7900  177.3630  134.9590 O   0  0  0  0  0  0  0  0  0  0  0  0
  186.0890  176.5230  136.1740 C   0  0  1  0  0  3  0  0  0  0  0  0
  183.1030  177.6040  136.2190 C   0  0  0  0  0  3  0  0  0  0  0  0
  184.8250  174.2810  136.0970 C   0  0  2  0  0  3  0  0  0  0  0  0
  181.7320  175.7550  134.5940 C   0  0  0  0  0  3  0  0  0  0  0  0
  181.9030  177.9750  135.5960 C   0  0  0  0  0  0  0  0  0  0  0  0
  184.8300  175.7410  136.5960 C   0  0  2  0  0  3  0  0  0  0  0  0
  182.9300  175.4150  135.2240 C   0  0  0  0  0  0  0  0  0  0  0  0
  183.5930  174.0940  135.1930 C   0  0  0  0  0  2  0  0  0  0  0  0
  181.2190  177.0470  134.7800 C   0  0  0  0  0  3  0  0  0  0  0  0
  183.6030  176.3180  136.0070 C   0  0  0  0  0  0  0  0  0  0  0  0
  180.0530  181.7300  136.5000 C   0  0  0  0  0  2  0  0  0  0  0  0
  180.7690  181.5150  138.8930 C   0  0  0  0  0  1  0  0  0  0  0  0
  181.5560  179.7940  137.2760 C   0  0  0  0  0  2  0  0  0  0  0  0
  179.8960  179.4590  135.3850 C   0  0  0  0  0  2  0  0  0  0  0  0
  181.1690  181.2650  137.4510 C   0  0  1  0  0  3  0  0  0  0  0  0
  181.3630  179.3480  135.8270 C   0  0  2  0  0  3  0  0  0  0  0  0
  179.1300  180.5770  136.1060 C   0  0  0  0  0  2  0  0  0  0  0  0
  184.8820  173.2950  137.2750 C   0  0  2  0  0  3  0  0  0  0  0  0
  186.0740  172.3360  137.2640 C   0  0  0  0  0  2  0  0  0  0  0  0
  185.9990  171.3110  136.1440 C   0  0  0  0  0  1  0  0  0  0  0  0
  183.5530  172.7050  137.7710 C   0  0  0  0  0  2  0  0  0  0  0  0
  183.1000  171.4780  136.9930 C   0  0  0  0  0  2  0  0  0  0  0  0
  181.6250  171.4540  135.1780 C   0  0  0  0  0  2  0  0  0  0  0  0
  181.2980  170.3240  136.0370 C   0  0  0  0  0  2  0  0  0  0  0  0
  181.6970  171.6050  136.6390 N   0  0  0  0  0  0  0  0  0  0  0  0
  187.2790  174.6280  135.0850 O   0  0  0  0  0  0  0  0  0  0  0  0
  188.5270  173.9960  134.9870 C   0  0  0  0  0  1  0  0  0  0  0  0
  186.6520  177.3610  138.5120 C   0  0  0  0  0  2  0  0  0  0  0  0
  182.7210  178.3070  140.1660 C   0  0  2  0  0  3  0  0  0  0  0  0
  183.3320  178.8580  142.9200 O   0  0  0  0  0  1  0  0  0  0  0  0
  186.8210  178.7730  140.5590 C   0  0  0  0  0  2  0  0  0  0  0  0
  185.8880  178.2480  139.4720 C   0  0  1  0  0  3  0  0  0  0  0  0
  184.2830  180.1960  139.5620 C   0  0  0  0  0  3  0  0  0  0  0  0
  183.5280  177.3070  141.0180 C   0  0  0  0  0  2  0  0  0  0  0  0
  183.9920  177.7300  142.4200 C   0  0  1  0  0  3  0  0  0  0  0  0
  185.1870  179.3640  138.6980 C   0  0  0  0  0  2  0  0  0  0  0  0
  185.5140  177.8680  142.5210 C   0  0  0  0  0  2  0  0  0  0  0  0
  186.0510  179.1200  141.8310 C   0  0  0  0  0  2  0  0  0  0  0  0
  183.2030  179.7340  140.2050 C   0  0  0  0  0  3  0  0  0  0  0  0
  181.2190  178.2140  140.4400 C   0  0  1  0  0  0  0  0  0  0  0  0
  180.5450  179.3760  140.8270 O   0  0  0  0  0  1  0  0  0  0  0  0
  180.3660  177.2180  139.6640 C   0  0  2  0  0  3  0  0  0  0  0  0
  180.7420  176.9380  141.1170 C   0  0  2  0  0  3  0  0  0  0  0  0
  181.1770  176.2980  138.7610 C   0  0  0  0  0  2  0  0  0  0  0  0
  180.1990  174.8220  138.3520 S   0  0  0  0  0  1  0  0  0  0  0  0
  179.6360  177.1850  141.9340 O   0  0  0  0  0  0  0  0  0  0  0  0
  179.3460  178.2860  143.9080 O   0  0  0  0  0  1  0  0  0  0  0  0
  180.1780  177.4190  143.1950 C   0  0  0  0  0  2  0  0  0  0  0  0
  1  6  1  6  0  0  0
  1  4  1  0  0  0  0
  1  2  1  0  0  0  0
  2  5  1  6  0  0  0
  3 34  1  1  0  0  0
  4 32  1  6  0  0  0
  4  7  1  0  0  0  0
  5  3  1  0  0  0  0
  6  2  1  0  0  0  0
  7 12  1  1  0  0  0
  7  3  1  0  0  0  0
  9 12  1  0  0  0  0
  9 24  1  1  0  0  0
 10 15  2  0  0  0  0
 10 13  1  0  0  0  0
 11  8  2  0  0  0  0
 12 16  1  6  0  0  0
 13 16  2  0  0  0  0
 14 13  1  0  0  0  0
 14  9  1  0  0  0  0
 15 11  1  0  0  0  0
 16  8  1  0  0  0  0
 17 21  1  0  0  0  0
 19 21  1  0  0  0  0
 20 22  1  0  0  0  0
 20 23  1  0  0  0  0
 21 18  1  1  0  0  0
 22 11  1  1  0  0  0
 22 19  1  0  0  0  0
 23 17  1  0  0  0  0
 24 25  1  6  0  0  0
 24 27  1  0  0  0  0
 26 25  1  0  0  0  0
 28 27  1  0  0  0  0
 29 30  1  0  0  0  0
 29 31  1  0  0  0  0
 30 31  1  0  0  0  0
 31 28  1  0  0  0  0
 33 32  1  0  0  0  0
 35 45  1  1  0  0  0
 35 46  1  0  0  0  0
 35 40  1  0  0  0  0
 37 44  1  0  0  0  0
 38 34  1  6  0  0  0
 38 37  1  0  0  0  0
 39 45  2  0  0  0  0
 40 41  1  0  0  0  0
 41 43  1  0  0  0  0
 41 36  1  6  0  0  0
 42 38  1  0  0  0  0
 42 39  1  0  0  0  0
 44 43  1  0  0  0  0
 46 47  1  1  0  0  0
 46 49  1  0  0  0  0
 48 50  1  6  0  0  0
 48 46  1  0  0  0  0
 48 49  1  0  0  0  0
 49 52  1  1  0  0  0
 51 50  1  0  0  0  0
 52 54  1  0  0  0  0
 54 53  1  0  0  0  0
M  END
>  <MODEL>
9

>  <REMARK>
 VINA RESULT:      -3.8      3.144      8.024
  Name = 
  14 active torsions:
  status: ('A' for Active; 'I' for Inactive)
    1  A    between atoms: C_2  and  C_29
    2  A    between atoms: O_3  and  C_20
    3  A    between atoms: C_4  and  C_46
    4  A    between atoms: O_5  and  C_31
    5  A    between atoms: O_5  and  C_49
    6  A    between atoms: C_10  and  C_17
    7  A    between atoms: C_10  and  C_24
    8  A    between atoms: C_11  and  C_36
    9  A    between atoms: C_12  and  C_13
   10  A    between atoms: C_23  and  C_42
   11  A    between atoms: C_25  and  N_43
   12  A    between atoms: C_25  and  C_44
   13  A    between atoms: C_44  and  C_46
   14  A    between atoms: C_46  and  C_47
                            x       y       z     vdW  Elec       q    Type
                         _______ _______ _______ _____ _____    ______ ____

>  <TORSDO>
F 14

$$$$
