=
 OpenBabel11062416193D

 29 32  0  0  1  0  0  0  0  0999 V2000
  189.7940  176.7870  141.4600 C   0  0  0  0  0  2  0  0  0  0  0  0
  187.2710  177.5340  143.4470 C   0  0  1  0  0  3  0  0  0  0  0  0
  188.7570  177.5980  139.3930 C   0  0  0  0  0  0  0  0  0  0  0  0
  189.3170  177.9450  142.2240 N   0  0  1  0  0  0  0  0  0  0  0  0
  187.8970  178.2890  140.1450 C   0  0  0  0  0  3  0  0  0  0  0  0
  187.0030  178.6930  142.5300 C   0  0  1  0  0  3  0  0  0  0  0  0
  188.2020  178.6890  141.5770 C   0  0  1  0  0  3  0  0  0  0  0  0
  188.7970  177.4200  143.4920 C   0  0  1  0  0  3  0  0  0  0  0  0
  190.0640  177.1670  140.0090 C   0  0  2  0  0  3  0  0  0  0  0  0
  187.6140  176.2910  136.0000 N   0  0  0  0  0  0  0  0  0  0  0  0
  188.4330  177.3240  137.9720 C   0  0  0  0  0  0  0  0  0  0  0  0
  188.7310  178.0850  136.9460 C   0  0  0  0  0  0  0  0  0  0  0  0
  188.2520  177.5170  135.7510 N   0  0  0  0  0  0  0  0  0  0  0  0
  189.3670  179.2800  137.0060 F   0  0  0  0  0  0  0  0  0  0  0  0
  187.7040  176.1240  137.4590 C   0  0  0  0  0  2  0  0  0  0  0  0
  186.5850  177.6590  144.7760 C   0  0  0  0  0  0  0  0  0  0  0  0
  186.0100  178.8610  145.1690 O   0  0  0  0  0  0  0  0  0  0  0  0
  186.5390  176.6660  145.5460 O   0  0  0  0  0  1  0  0  0  0  0  0
  184.5950  178.5060  141.3640 C   0  0  0  0  0  3  0  0  0  0  0  0
  185.6790  178.5870  141.8870 C   0  0  0  0  0  0  0  0  0  0  0  0
  189.4440  178.1450  144.6900 C   0  0  2  0  0  3  0  0  0  0  0  0
  190.4020  179.0740  144.2740 O   0  0  0  0  0  1  0  0  0  0  0  0
  190.0430  177.1910  145.7310 C   0  0  2  0  0  3  0  0  0  0  0  0
  189.6410  177.5270  147.0270 O   0  0  0  0  0  1  0  0  0  0  0  0
  191.9370  175.7170  146.0430 O   0  0  0  0  0  0  0  0  0  0  0  0
  191.9140  176.0420  144.7400 O   0  0  0  0  0  0  0  0  0  0  0  0
  191.5680  176.9940  145.6740 C   0  0  0  0  0  3  0  0  0  0  0  0
  191.7580  176.5220  138.7350 C   0  0  0  0  0  1  0  0  0  0  0  0
  190.5930  176.0550  139.3470 O   0  0  0  0  0  0  0  0  0  0  0  0
  2  8  1  0  0  0  0
  2 16  1  1  0  0  0
  3  9  1  0  0  0  0
  3  5  2  0  0  0  0
  4  1  1  6  0  0  0
  4  8  1  0  0  0  0
  6 20  1  6  0  0  0
  6  2  1  0  0  0  0
  7  5  1  6  0  0  0
  7  4  1  0  0  0  0
  7  6  1  0  0  0  0
  8 21  1  1  0  0  0
  9 29  1  6  0  0  0
  9  1  1  0  0  0  0
 10 15  1  0  0  0  0
 11  3  1  0  0  0  0
 12 14  1  0  0  0  0
 12 11  2  0  0  0  0
 13 10  2  0  0  0  0
 13 12  1  0  0  0  0
 15 11  1  0  0  0  0
 16 17  2  0  0  0  0
 16 18  1  0  0  0  0
 19 20  3  0  0  0  0
 21 22  1  6  0  0  0
 21 23  1  0  0  0  0
 23 24  1  1  0  0  0
 26 27  1  0  0  0  0
 26 25  1  0  0  0  0
 27 23  1  0  0  0  0
 27 25  1  0  0  0  0
 28 29  1  0  0  0  0
M  END
>  <MODEL>
1

>  <REMARK>
 VINA RESULT:      -7.3      0.000      0.000
  Name = 
  7 active torsions:
  status: ('A' for Active; 'I' for Inactive)
    1  A    between atoms: C_4  and  C_10
    2  A    between atoms: C_5  and  C_9
    3  A    between atoms: C_5  and  C_23
    4  A    between atoms: C_6  and  C_8
    5  A    between atoms: C_9  and  C_20
    6  A    between atoms: C_16  and  C_26
    7  A    between atoms: C_22  and  O_24
                            x       y       z     vdW  Elec       q    Type
                         _______ _______ _______ _____ _____    ______ ____

>  <TORSDO>
F 7

$$$$
=
 OpenBabel11062416193D

 29 32  0  0  1  0  0  0  0  0999 V2000
  191.1650  177.4280  142.3360 C   0  0  0  0  0  2  0  0  0  0  0  0
  189.2550  178.3450  139.8090 C   0  0  1  0  0  3  0  0  0  0  0  0
  189.3440  177.1020  143.9440 C   0  0  0  0  0  0  0  0  0  0  0  0
  190.4070  176.7860  141.2570 N   0  0  1  0  0  0  0  0  0  0  0  0
  188.4980  177.0550  142.9120 C   0  0  0  0  0  3  0  0  0  0  0  0
  188.2100  177.4260  140.3760 C   0  0  1  0  0  3  0  0  0  0  0  0
  188.9420  176.6950  141.5060 C   0  0  1  0  0  3  0  0  0  0  0  0
  190.5830  177.6270  140.0680 C   0  0  1  0  0  3  0  0  0  0  0  0
  190.8040  176.8240  143.6880 C   0  0  2  0  0  3  0  0  0  0  0  0
  188.6290  177.4880  147.6680 N   0  0  0  0  0  0  0  0  0  0  0  0
  188.8240  177.3680  145.3070 C   0  0  0  0  0  0  0  0  0  0  0  0
  187.6780  177.9340  145.6050 C   0  0  0  0  0  0  0  0  0  0  0  0
  187.5240  178.0390  146.9990 N   0  0  0  0  0  2  0  0  0  0  0  0
  186.7740  178.4070  144.7120 F   0  0  0  0  0  0  0  0  0  0  0  0
  189.5200  177.0360  146.5870 C   0  0  0  0  0  3  0  0  0  0  0  0
  188.9890  178.7350  138.3850 C   0  0  0  0  0  0  0  0  0  0  0  0
  188.4170  177.8340  137.4950 O   0  0  0  0  0  0  0  0  0  0  0  0
  189.2980  179.8880  137.9910 O   0  0  0  0  0  1  0  0  0  0  0  0
  186.0040  178.7640  141.1070 C   0  0  0  0  0  3  0  0  0  0  0  0
  186.9950  178.1610  140.7760 C   0  0  0  0  0  0  0  0  0  0  0  0
  191.0850  176.7890  138.8740 C   0  0  2  0  0  3  0  0  0  0  0  0
  190.4400  175.5510  138.8080 O   0  0  0  0  0  1  0  0  0  0  0  0
  192.6070  176.5990  138.8580 C   0  0  2  0  0  3  0  0  0  0  0  0
  193.2570  177.5970  139.5880 O   0  0  0  0  0  1  0  0  0  0  0  0
  194.3980  175.6640  137.5270 O   0  0  0  0  0  0  0  0  0  0  0  0
  193.2590  175.1170  137.0740 O   0  0  0  0  0  0  0  0  0  0  0  0
  193.2560  176.4350  137.4720 C   0  0  0  0  0  3  0  0  0  0  0  0
  191.8810  178.6940  144.1930 C   0  0  0  0  0  1  0  0  0  0  0  0
  191.6100  177.4100  144.6690 O   0  0  0  0  0  0  0  0  0  0  0  0
  1  9  1  0  0  0  0
  2 16  1  6  0  0  0
  2  8  1  0  0  0  0
  2  6  1  0  0  0  0
  3 11  1  0  0  0  0
  4  7  1  0  0  0  0
  4  1  1  1  0  0  0
  5  3  2  0  0  0  0
  6 20  1  1  0  0  0
  6  7  1  0  0  0  0
  7  5  1  1  0  0  0
  8 21  1  6  0  0  0
  8  4  1  0  0  0  0
  9  3  1  0  0  0  0
  9 29  1  1  0  0  0
 11 12  2  0  0  0  0
 11 15  1  0  0  0  0
 12 13  1  0  0  0  0
 13 10  1  0  0  0  0
 14 12  1  0  0  0  0
 15 10  2  0  0  0  0
 17 16  2  0  0  0  0
 18 16  1  0  0  0  0
 20 19  3  0  0  0  0
 21 22  1  1  0  0  0
 23 21  1  0  0  0  0
 23 24  1  6  0  0  0
 26 27  1  0  0  0  0
 26 25  1  0  0  0  0
 27 25  1  0  0  0  0
 27 23  1  0  0  0  0
 28 29  1  0  0  0  0
M  END
>  <MODEL>
2

>  <REMARK>
 VINA RESULT:      -6.6      3.001      6.747
  Name = 
  7 active torsions:
  status: ('A' for Active; 'I' for Inactive)
    1  A    between atoms: C_4  and  C_10
    2  A    between atoms: C_5  and  C_9
    3  A    between atoms: C_5  and  C_23
    4  A    between atoms: C_6  and  C_8
    5  A    between atoms: C_9  and  C_20
    6  A    between atoms: C_16  and  C_26
    7  A    between atoms: C_22  and  O_24
                            x       y       z     vdW  Elec       q    Type
                         _______ _______ _______ _____ _____    ______ ____

>  <TORSDO>
F 7

$$$$
=
 OpenBabel11062416193D

 29 32  0  0  1  0  0  0  0  0999 V2000
  184.2940  177.9900  141.3980 C   0  0  0  0  0  2  0  0  0  0  0  0
  186.5140  177.5990  143.8050 C   0  0  1  0  0  3  0  0  0  0  0  0
  182.5480  178.9840  142.8020 C   0  0  0  0  0  0  0  0  0  0  0  0
  185.3480  178.7800  142.0450 N   0  0  1  0  0  0  0  0  0  0  0  0
  183.4880  179.2430  143.7140 C   0  0  0  0  0  3  0  0  0  0  0  0
  185.9340  178.8390  144.4250 C   0  0  1  0  0  3  0  0  0  0  0  0
  184.9600  179.3570  143.3610 C   0  0  1  0  0  3  0  0  0  0  0  0
  186.4610  177.8590  142.2970 C   0  0  1  0  0  3  0  0  0  0  0  0
  182.9770  178.7560  141.3740 C   0  0  2  0  0  3  0  0  0  0  0  0
  179.0870  178.4880  144.3190 N   0  0  0  0  0  0  0  0  0  0  0  0
  181.1200  178.9810  143.2010 C   0  0  0  0  0  0  0  0  0  0  0  0
  180.1620  179.7020  142.6670 C   0  0  0  0  0  0  0  0  0  0  0  0
  178.9360  179.4520  143.3090 N   0  0  0  0  0  0  0  0  0  0  0  0
  180.3160  180.6060  141.6680 F   0  0  0  0  0  0  0  0  0  0  0  0
  180.5190  178.1510  144.2890 C   0  0  0  0  0  2  0  0  0  0  0  0
  187.8590  177.2340  144.3600 C   0  0  0  0  0  0  0  0  0  0  0  0
  188.4810  178.0380  145.3070 O   0  0  0  0  0  1  0  0  0  0  0  0
  188.4340  176.1920  143.9540 O   0  0  0  0  0  0  0  0  0  0  0  0
  184.8650  178.3350  146.8310 C   0  0  0  0  0  3  0  0  0  0  0  0
  185.3440  178.5640  145.7480 C   0  0  0  0  0  0  0  0  0  0  0  0
  187.7750  178.4170  141.7120 C   0  0  2  0  0  3  0  0  0  0  0  0
  187.6250  179.7370  141.2760 O   0  0  0  0  0  1  0  0  0  0  0  0
  188.3630  177.5490  140.5920 C   0  0  2  0  0  3  0  0  0  0  0  0
  189.6280  177.0600  140.9320 O   0  0  0  0  0  1  0  0  0  0  0  0
  187.9690  177.2900  138.2190 O   0  0  0  0  0  0  0  0  0  0  0  0
  187.1220  178.2410  138.6460 O   0  0  0  0  0  0  0  0  0  0  0  0
  188.3880  178.1780  139.1880 C   0  0  0  0  0  3  0  0  0  0  0  0
  181.9840  178.5670  139.4030 C   0  0  0  0  0  1  0  0  0  0  0  0
  182.0310  177.9990  140.6770 O   0  0  0  0  0  0  0  0  0  0  0  0
  2 16  1  1  0  0  0
  2  6  1  0  0  0  0
  3 11  1  0  0  0  0
  3  5  2  0  0  0  0
  4  1  1  1  0  0  0
  4  8  1  0  0  0  0
  4  7  1  0  0  0  0
  6 20  1  1  0  0  0
  7  5  1  1  0  0  0
  7  6  1  0  0  0  0
  8 21  1  1  0  0  0
  8  2  1  0  0  0  0
  9 29  1  6  0  0  0
  9  1  1  0  0  0  0
  9  3  1  0  0  0  0
 11 15  1  0  0  0  0
 12 11  2  0  0  0  0
 12 13  1  0  0  0  0
 13 10  2  0  0  0  0
 14 12  1  0  0  0  0
 15 10  1  0  0  0  0
 16 17  1  0  0  0  0
 18 16  2  0  0  0  0
 20 19  3  0  0  0  0
 21 22  1  6  0  0  0
 23 24  1  1  0  0  0
 23 21  1  0  0  0  0
 25 26  1  0  0  0  0
 25 27  1  0  0  0  0
 26 27  1  0  0  0  0
 27 23  1  0  0  0  0
 28 29  1  0  0  0  0
M  END
>  <MODEL>
3

>  <REMARK>
 VINA RESULT:      -6.6      4.359      7.051
  Name = 
  7 active torsions:
  status: ('A' for Active; 'I' for Inactive)
    1  A    between atoms: C_4  and  C_10
    2  A    between atoms: C_5  and  C_9
    3  A    between atoms: C_5  and  C_23
    4  A    between atoms: C_6  and  C_8
    5  A    between atoms: C_9  and  C_20
    6  A    between atoms: C_16  and  C_26
    7  A    between atoms: C_22  and  O_24
                            x       y       z     vdW  Elec       q    Type
                         _______ _______ _______ _____ _____    ______ ____

>  <TORSDO>
F 7

$$$$
=
 OpenBabel11062416193D

 29 32  0  0  1  0  0  0  0  0999 V2000
  187.3060  178.2360  145.8520 C   0  0  0  0  0  2  0  0  0  0  0  0
  189.8260  178.4420  143.7350 C   0  0  1  0  0  3  0  0  0  0  0  0
  185.5560  177.9530  144.1580 C   0  0  0  0  0  0  0  0  0  0  0  0
  188.2150  177.3230  145.1510 N   0  0  1  0  0  0  0  0  0  0  0  0
  186.5120  177.6170  143.2880 C   0  0  0  0  0  3  0  0  0  0  0  0
  189.0510  177.5050  142.8540 C   0  0  1  0  0  3  0  0  0  0  0  0
  187.8640  177.0830  143.7240 C   0  0  1  0  0  3  0  0  0  0  0  0
  189.5350  177.9630  145.1610 C   0  0  1  0  0  3  0  0  0  0  0  0
  185.8530  177.8320  145.6310 C   0  0  2  0  0  3  0  0  0  0  0  0
  181.9830  179.1430  143.5740 N   0  0  0  0  0  0  0  0  0  0  0  0
  184.2270  178.3790  143.6590 C   0  0  0  0  0  0  0  0  0  0  0  0
  183.8510  178.4380  142.4030 C   0  0  0  0  0  0  0  0  0  0  0  0
  182.5260  178.9010  142.3020 N   0  0  0  0  0  0  0  0  0  0  0  0
  184.6270  178.1470  141.3300 F   0  0  0  0  0  0  0  0  0  0  0  0
  183.0750  178.8170  144.5050 C   0  0  0  0  0  2  0  0  0  0  0  0
  191.2760  178.5430  143.3630 C   0  0  0  0  0  0  0  0  0  0  0  0
  191.8430  177.6490  142.4620 O   0  0  0  0  0  0  0  0  0  0  0  0
  191.9880  179.4410  143.8800 O   0  0  0  0  0  1  0  0  0  0  0  0
  188.4240  178.6440  140.5090 C   0  0  0  0  0  3  0  0  0  0  0  0
  188.7040  178.1290  141.5630 C   0  0  0  0  0  0  0  0  0  0  0  0
  190.6020  177.0060  145.7290 C   0  0  2  0  0  3  0  0  0  0  0  0
  190.5920  175.7730  145.0710 O   0  0  0  0  0  1  0  0  0  0  0  0
  190.4940  176.8010  147.2460 C   0  0  2  0  0  3  0  0  0  0  0  0
  189.7520  177.8200  147.8500 O   0  0  0  0  0  1  0  0  0  0  0  0
  192.1300  175.2420  148.1100 O   0  0  0  0  0  0  0  0  0  0  0  0
  192.7600  175.9870  147.1870 O   0  0  0  0  0  0  0  0  0  0  0  0
  191.8180  176.5810  147.9980 C   0  0  0  0  0  3  0  0  0  0  0  0
  185.9040  179.3530  147.2420 C   0  0  0  0  0  1  0  0  0  0  0  0
  185.0340  178.6790  146.3840 O   0  0  0  0  0  0  0  0  0  0  0  0
  2 16  1  6  0  0  0
  2  8  1  0  0  0  0
  3  9  1  0  0  0  0
  4  8  1  0  0  0  0
  4  1  1  6  0  0  0
  5  3  2  0  0  0  0
  6 20  1  6  0  0  0
  6  7  1  0  0  0  0
  6  2  1  0  0  0  0
  7  5  1  6  0  0  0
  7  4  1  0  0  0  0
  8 21  1  6  0  0  0
  9  1  1  0  0  0  0
  9 29  1  1  0  0  0
 10 15  1  0  0  0  0
 11  3  1  0  0  0  0
 11 15  1  0  0  0  0
 12 11  2  0  0  0  0
 13 12  1  0  0  0  0
 13 10  2  0  0  0  0
 14 12  1  0  0  0  0
 16 18  1  0  0  0  0
 17 16  2  0  0  0  0
 19 20  3  0  0  0  0
 21 22  1  6  0  0  0
 21 23  1  0  0  0  0
 23 24  1  1  0  0  0
 23 27  1  0  0  0  0
 26 27  1  0  0  0  0
 26 25  1  0  0  0  0
 27 25  1  0  0  0  0
 29 28  1  0  0  0  0
M  END
>  <MODEL>
4

>  <REMARK>
 VINA RESULT:      -6.6      3.283      5.656
  Name = 
  7 active torsions:
  status: ('A' for Active; 'I' for Inactive)
    1  A    between atoms: C_4  and  C_10
    2  A    between atoms: C_5  and  C_9
    3  A    between atoms: C_5  and  C_23
    4  A    between atoms: C_6  and  C_8
    5  A    between atoms: C_9  and  C_20
    6  A    between atoms: C_16  and  C_26
    7  A    between atoms: C_22  and  O_24
                            x       y       z     vdW  Elec       q    Type
                         _______ _______ _______ _____ _____    ______ ____

>  <TORSDO>
F 7

$$$$
=
 OpenBabel11062416193D

 29 32  0  0  1  0  0  0  0  0999 V2000
  186.3130  178.1820  139.7260 C   0  0  0  0  0  2  0  0  0  0  0  0
  189.2430  176.7000  139.4160 C   0  0  1  0  0  3  0  0  0  0  0  0
  186.4940  178.6350  142.1280 C   0  0  0  0  0  0  0  0  0  0  0  0
  187.7080  178.5690  139.4870 N   0  0  1  0  0  0  0  0  0  0  0  0
  187.8110  178.4380  142.0230 C   0  0  0  0  0  3  0  0  0  0  0  0
  189.7260  177.6180  140.5030 C   0  0  1  0  0  3  0  0  0  0  0  0
  188.5570  178.5860  140.7100 C   0  0  1  0  0  3  0  0  0  0  0  0
  188.2740  177.5530  138.5930 C   0  0  1  0  0  3  0  0  0  0  0  0
  185.7190  178.9780  140.8810 C   0  0  2  0  0  3  0  0  0  0  0  0
  184.4370  179.0160  145.3140 N   0  0  0  0  0  0  0  0  0  0  0  0
  185.8460  178.5650  143.4600 C   0  0  0  0  0  0  0  0  0  0  0  0
  186.1240  177.7090  144.4150 C   0  0  0  0  0  0  0  0  0  0  0  0
  185.3000  177.9300  145.5340 N   0  0  0  0  0  2  0  0  0  0  0  0
  187.0370  176.7100  144.3410 F   0  0  0  0  0  0  0  0  0  0  0  0
  184.7580  179.4650  143.9500 C   0  0  0  0  0  3  0  0  0  0  0  0
  190.3590  176.0520  138.6490 C   0  0  0  0  0  0  0  0  0  0  0  0
  191.6330  176.6060  138.6430 O   0  0  0  0  0  1  0  0  0  0  0  0
  190.1330  175.0020  137.9970 O   0  0  0  0  0  0  0  0  0  0  0  0
  190.5020  176.2540  142.6780 C   0  0  0  0  0  3  0  0  0  0  0  0
  190.1520  176.8690  141.7010 C   0  0  0  0  0  0  0  0  0  0  0  0
  188.9170  178.2120  137.3550 C   0  0  2  0  0  3  0  0  0  0  0  0
  188.7580  179.6000  137.3690 O   0  0  0  0  0  1  0  0  0  0  0  0
  188.4160  177.6320  136.0250 C   0  0  2  0  0  3  0  0  0  0  0  0
  189.4000  177.6980  135.0340 O   0  0  0  0  0  1  0  0  0  0  0  0
  186.3050  177.2080  134.9220 O   0  0  0  0  0  0  0  0  0  0  0  0
  186.0110  177.6330  136.1630 O   0  0  0  0  0  0  0  0  0  0  0  0
  187.0820  178.1900  135.4990 C   0  0  0  0  0  3  0  0  0  0  0  0
  183.7800  179.0190  139.8090 C   0  0  0  0  0  1  0  0  0  0  0  0
  184.3700  178.6340  141.0140 O   0  0  0  0  0  0  0  0  0  0  0  0
  1  9  1  0  0  0  0
  2 16  1  6  0  0  0
  2  6  1  0  0  0  0
  3 11  1  0  0  0  0
  4  1  1  1  0  0  0
  4  7  1  0  0  0  0
  5  3  2  0  0  0  0
  6  7  1  0  0  0  0
  6 20  1  1  0  0  0
  7  5  1  1  0  0  0
  8 21  1  6  0  0  0
  8  2  1  0  0  0  0
  8  4  1  0  0  0  0
  9 29  1  1  0  0  0
  9  3  1  0  0  0  0
 10 13  1  0  0  0  0
 11 15  1  0  0  0  0
 11 12  2  0  0  0  0
 12 13  1  0  0  0  0
 14 12  1  0  0  0  0
 15 10  2  0  0  0  0
 17 16  1  0  0  0  0
 18 16  2  0  0  0  0
 20 19  3  0  0  0  0
 21 22  1  6  0  0  0
 23 24  1  6  0  0  0
 23 21  1  0  0  0  0
 25 27  1  0  0  0  0
 25 26  1  0  0  0  0
 27 23  1  0  0  0  0
 27 26  1  0  0  0  0
 28 29  1  0  0  0  0
M  END
>  <MODEL>
5

>  <REMARK>
 VINA RESULT:      -6.5      3.744      7.642
  Name = 
  7 active torsions:
  status: ('A' for Active; 'I' for Inactive)
    1  A    between atoms: C_4  and  C_10
    2  A    between atoms: C_5  and  C_9
    3  A    between atoms: C_5  and  C_23
    4  A    between atoms: C_6  and  C_8
    5  A    between atoms: C_9  and  C_20
    6  A    between atoms: C_16  and  C_26
    7  A    between atoms: C_22  and  O_24
                            x       y       z     vdW  Elec       q    Type
                         _______ _______ _______ _____ _____    ______ ____

>  <TORSDO>
F 7

$$$$
=
 OpenBabel11062416193D

 29 32  0  0  1  0  0  0  0  0999 V2000
  187.7890  177.5030  140.6220 C   0  0  0  0  0  2  0  0  0  0  0  0
  189.1070  176.3900  137.8110 C   0  0  1  0  0  3  0  0  0  0  0  0
  189.8920  177.6290  141.8740 C   0  0  0  0  0  0  0  0  0  0  0  0
  188.4050  178.0610  139.4130 N   0  0  1  0  0  0  0  0  0  0  0  0
  190.5400  177.5860  140.7060 C   0  0  0  0  0  3  0  0  0  0  0  0
  190.3280  177.1900  138.1670 C   0  0  1  0  0  3  0  0  0  0  0  0
  189.8920  177.9940  139.3960 C   0  0  1  0  0  3  0  0  0  0  0  0
  187.9300  177.2460  138.2910 C   0  0  1  0  0  3  0  0  0  0  0  0
  188.4480  178.0620  141.8770 C   0  0  2  0  0  3  0  0  0  0  0  0
  191.6900  176.1130  144.8730 N   0  0  0  0  0  0  0  0  0  0  0  0
  190.6170  177.3060  143.1260 C   0  0  0  0  0  0  0  0  0  0  0  0
  191.0470  178.1660  144.0190 C   0  0  0  0  0  0  0  0  0  0  0  0
  191.7040  177.5030  145.0720 N   0  0  0  0  0  2  0  0  0  0  0  0
  190.9310  179.5150  143.9390 F   0  0  0  0  0  0  0  0  0  0  0  0
  190.9850  175.9350  143.5930 C   0  0  0  0  0  3  0  0  0  0  0  0
  189.0700  175.9750  136.3700 C   0  0  0  0  0  0  0  0  0  0  0  0
  189.7410  176.7110  135.4010 O   0  0  0  0  0  0  0  0  0  0  0  0
  188.4150  174.9550  136.0350 O   0  0  0  0  0  1  0  0  0  0  0  0
  192.4800  175.6280  138.5110 C   0  0  0  0  0  3  0  0  0  0  0  0
  191.5100  176.3280  138.3570 C   0  0  0  0  0  0  0  0  0  0  0  0
  187.3150  178.1350  137.1900 C   0  0  2  0  0  3  0  0  0  0  0  0
  187.8990  179.4040  137.1670 O   0  0  0  0  0  1  0  0  0  0  0  0
  185.7880  178.2530  137.2830 C   0  0  2  0  0  3  0  0  0  0  0  0
  185.3980  179.0030  138.3960 O   0  0  0  0  0  1  0  0  0  0  0  0
  184.1530  176.8910  136.1310 O   0  0  0  0  0  0  0  0  0  0  0  0
  185.3150  176.2170  136.0840 O   0  0  0  0  0  0  0  0  0  0  0  0
  185.0000  176.9330  137.2190 C   0  0  0  0  0  3  0  0  0  0  0  0
  186.4510  177.9790  142.8320 C   0  0  0  0  0  1  0  0  0  0  0  0
  187.7740  177.5660  142.9960 O   0  0  0  0  0  0  0  0  0  0  0  0
  1  9  1  0  0  0  0
  2 16  1  6  0  0  0
  2  6  1  0  0  0  0
  2  8  1  0  0  0  0
  3  9  1  0  0  0  0
  3 11  1  0  0  0  0
  4  1  1  1  0  0  0
  5  3  2  0  0  0  0
  6 20  1  1  0  0  0
  6  7  1  0  0  0  0
  7  4  1  0  0  0  0
  7  5  1  1  0  0  0
  8 21  1  6  0  0  0
  8  4  1  0  0  0  0
  9 29  1  1  0  0  0
 10 13  1  0  0  0  0
 11 15  1  0  0  0  0
 11 12  2  0  0  0  0
 12 13  1  0  0  0  0
 14 12  1  0  0  0  0
 15 10  2  0  0  0  0
 17 16  2  0  0  0  0
 18 16  1  0  0  0  0
 20 19  3  0  0  0  0
 21 22  1  1  0  0  0
 21 23  1  0  0  0  0
 23 24  1  1  0  0  0
 25 27  1  0  0  0  0
 26 25  1  0  0  0  0
 26 27  1  0  0  0  0
 27 23  1  0  0  0  0
 28 29  1  0  0  0  0
M  END
>  <MODEL>
6

>  <REMARK>
 VINA RESULT:      -6.0      3.361      7.675
  Name = 
  7 active torsions:
  status: ('A' for Active; 'I' for Inactive)
    1  A    between atoms: C_4  and  C_10
    2  A    between atoms: C_5  and  C_9
    3  A    between atoms: C_5  and  C_23
    4  A    between atoms: C_6  and  C_8
    5  A    between atoms: C_9  and  C_20
    6  A    between atoms: C_16  and  C_26
    7  A    between atoms: C_22  and  O_24
                            x       y       z     vdW  Elec       q    Type
                         _______ _______ _______ _____ _____    ______ ____

>  <TORSDO>
F 7

$$$$
=
 OpenBabel11062416193D

 29 32  0  0  1  0  0  0  0  0999 V2000
  187.7580  178.6070  142.0590 C   0  0  0  0  0  2  0  0  0  0  0  0
  185.0030  179.3230  143.7240 C   0  0  1  0  0  3  0  0  0  0  0  0
  188.7830  177.2360  143.8130 C   0  0  0  0  0  0  0  0  0  0  0  0
  186.4360  178.0110  142.2820 N   0  0  1  0  0  0  0  0  0  0  0  0
  187.5760  177.1270  144.3750 C   0  0  0  0  0  3  0  0  0  0  0  0
  185.1390  177.9700  144.3620 C   0  0  1  0  0  3  0  0  0  0  0  0
  186.2900  177.3160  143.5910 C   0  0  1  0  0  3  0  0  0  0  0  0
  185.4750  179.1200  142.2810 C   0  0  1  0  0  3  0  0  0  0  0  0
  188.8650  177.6010  142.3520 C   0  0  2  0  0  3  0  0  0  0  0  0
  192.0560  176.0260  145.3460 N   0  0  0  0  0  0  0  0  0  0  0  0
  189.9950  176.9450  144.6170 C   0  0  0  0  0  0  0  0  0  0  0  0
  190.3170  177.4950  145.7640 C   0  0  0  0  0  0  0  0  0  0  0  0
  191.5440  176.9890  146.2300 N   0  0  0  0  0  2  0  0  0  0  0  0
  189.6090  178.4570  146.4060 F   0  0  0  0  0  0  0  0  0  0  0  0
  191.0670  175.9670  144.2580 C   0  0  0  0  0  3  0  0  0  0  0  0
  183.6360  179.9200  143.8870 C   0  0  0  0  0  0  0  0  0  0  0  0
  182.5070  179.1100  143.9340 O   0  0  0  0  0  0  0  0  0  0  0  0
  183.5110  181.1680  143.9720 O   0  0  0  0  0  1  0  0  0  0  0  0
  185.4760  178.1550  147.0160 C   0  0  0  0  0  3  0  0  0  0  0  0
  185.3270  178.0700  145.8220 C   0  0  0  0  0  0  0  0  0  0  0  0
  184.3320  178.8510  141.2810 C   0  0  2  0  0  3  0  0  0  0  0  0
  183.9950  177.4960  141.2350 O   0  0  0  0  0  1  0  0  0  0  0  0
  184.6210  179.3770  139.8680 C   0  0  2  0  0  3  0  0  0  0  0  0
  183.5030  180.0100  139.3180 O   0  0  0  0  0  1  0  0  0  0  0  0
  186.0250  178.9680  137.9400 O   0  0  0  0  0  0  0  0  0  0  0  0
  186.5830  178.3070  138.9680 O   0  0  0  0  0  0  0  0  0  0  0  0
  185.2090  178.3610  138.8730 C   0  0  0  0  0  3  0  0  0  0  0  0
  190.5560  177.4950  140.9250 C   0  0  0  0  0  1  0  0  0  0  0  0
  190.0960  178.1880  142.0460 O   0  0  0  0  0  0  0  0  0  0  0  0
  1  9  1  0  0  0  0
  2 16  1  6  0  0  0
  2  6  1  0  0  0  0
  3  5  2  0  0  0  0
  3 11  1  0  0  0  0
  4  1  1  1  0  0  0
  4  7  1  0  0  0  0
  6 20  1  1  0  0  0
  7  6  1  0  0  0  0
  7  5  1  1  0  0  0
  8 21  1  6  0  0  0
  8  4  1  0  0  0  0
  8  2  1  0  0  0  0
  9 29  1  1  0  0  0
  9  3  1  0  0  0  0
 10 13  1  0  0  0  0
 11 12  2  0  0  0  0
 12 13  1  0  0  0  0
 12 14  1  0  0  0  0
 15 11  1  0  0  0  0
 15 10  2  0  0  0  0
 16 17  2  0  0  0  0
 16 18  1  0  0  0  0
 20 19  3  0  0  0  0
 21 22  1  6  0  0  0
 23 24  1  6  0  0  0
 23 21  1  0  0  0  0
 25 27  1  0  0  0  0
 25 26  1  0  0  0  0
 27 26  1  0  0  0  0
 27 23  1  0  0  0  0
 28 29  1  0  0  0  0
M  END
>  <MODEL>
7

>  <REMARK>
 VINA RESULT:      -5.9      3.612      6.599
  Name = 
  7 active torsions:
  status: ('A' for Active; 'I' for Inactive)
    1  A    between atoms: C_4  and  C_10
    2  A    between atoms: C_5  and  C_9
    3  A    between atoms: C_5  and  C_23
    4  A    between atoms: C_6  and  C_8
    5  A    between atoms: C_9  and  C_20
    6  A    between atoms: C_16  and  C_26
    7  A    between atoms: C_22  and  O_24
                            x       y       z     vdW  Elec       q    Type
                         _______ _______ _______ _____ _____    ______ ____

>  <TORSDO>
F 7

$$$$
=
 OpenBabel11062416193D

 29 32  0  0  1  0  0  0  0  0999 V2000
  189.6230  178.2700  142.8020 C   0  0  0  0  0  2  0  0  0  0  0  0
  186.7710  178.6840  141.1990 C   0  0  1  0  0  3  0  0  0  0  0  0
  188.6320  177.6320  144.9520 C   0  0  0  0  0  0  0  0  0  0  0  0
  188.6680  177.4480  142.0500 N   0  0  1  0  0  0  0  0  0  0  0  0
  187.4930  177.3760  144.3020 C   0  0  0  0  0  3  0  0  0  0  0  0
  186.2210  177.5910  142.0690 C   0  0  1  0  0  3  0  0  0  0  0  0
  187.4510  177.0660  142.8170 C   0  0  1  0  0  3  0  0  0  0  0  0
  188.2180  178.2650  140.9190 C   0  0  1  0  0  3  0  0  0  0  0  0
  189.9170  177.6520  144.1640 C   0  0  2  0  0  3  0  0  0  0  0  0
  189.2440  177.8810  148.7050 N   0  0  0  0  0  0  0  0  0  0  0  0
  188.6090  177.8330  146.4200 C   0  0  0  0  0  0  0  0  0  0  0  0
  187.6140  178.3240  147.1220 C   0  0  0  0  0  0  0  0  0  0  0  0
  187.9510  178.3840  148.4870 N   0  0  0  0  0  2  0  0  0  0  0  0
  186.4350  178.7660  146.6200 F   0  0  0  0  0  0  0  0  0  0  0  0
  189.7220  177.5100  147.3640 C   0  0  0  0  0  3  0  0  0  0  0  0
  185.9250  178.9610  139.9910 C   0  0  0  0  0  0  0  0  0  0  0  0
  184.9020  179.9000  140.0390 O   0  0  0  0  0  1  0  0  0  0  0  0
  186.1400  178.3290  138.9260 O   0  0  0  0  0  0  0  0  0  0  0  0
  184.2110  178.4620  143.6150 C   0  0  0  0  0  3  0  0  0  0  0  0
  185.1170  178.0730  142.9200 C   0  0  0  0  0  0  0  0  0  0  0  0
  188.4030  177.5070  139.5890 C   0  0  2  0  0  3  0  0  0  0  0  0
  188.9430  176.2340  139.7920 O   0  0  0  0  0  1  0  0  0  0  0  0
  189.2340  178.2800  138.5560 C   0  0  2  0  0  3  0  0  0  0  0  0
  189.0760  179.6610  138.6980 O   0  0  0  0  0  1  0  0  0  0  0  0
  190.1520  177.2010  136.5930 O   0  0  0  0  0  0  0  0  0  0  0  0
  189.0660  176.4940  136.9470 O   0  0  0  0  0  0  0  0  0  0  0  0
  189.0470  177.8640  137.0860 C   0  0  0  0  0  3  0  0  0  0  0  0
  191.0330  179.5600  144.0050 C   0  0  0  0  0  1  0  0  0  0  0  0
  190.8900  178.4250  144.8050 O   0  0  0  0  0  0  0  0  0  0  0  0
  1  9  1  0  0  0  0
  2 16  1  6  0  0  0
  2  6  1  0  0  0  0
  3 11  1  0  0  0  0
  4  1  1  1  0  0  0
  4  7  1  0  0  0  0
  5  3  2  0  0  0  0
  6  7  1  0  0  0  0
  6 20  1  1  0  0  0
  7  5  1  1  0  0  0
  8 21  1  6  0  0  0
  8  2  1  0  0  0  0
  8  4  1  0  0  0  0
  9 29  1  1  0  0  0
  9  3  1  0  0  0  0
 11 12  2  0  0  0  0
 11 15  1  0  0  0  0
 12 13  1  0  0  0  0
 13 10  1  0  0  0  0
 14 12  1  0  0  0  0
 15 10  2  0  0  0  0
 16 17  1  0  0  0  0
 18 16  2  0  0  0  0
 20 19  3  0  0  0  0
 21 22  1  1  0  0  0
 23 24  1  6  0  0  0
 23 21  1  0  0  0  0
 25 26  1  0  0  0  0
 25 27  1  0  0  0  0
 26 27  1  0  0  0  0
 27 23  1  0  0  0  0
 28 29  1  0  0  0  0
M  END
>  <MODEL>
8

>  <REMARK>
 VINA RESULT:      -5.7      3.295      6.984
  Name = 
  7 active torsions:
  status: ('A' for Active; 'I' for Inactive)
    1  A    between atoms: C_4  and  C_10
    2  A    between atoms: C_5  and  C_9
    3  A    between atoms: C_5  and  C_23
    4  A    between atoms: C_6  and  C_8
    5  A    between atoms: C_9  and  C_20
    6  A    between atoms: C_16  and  C_26
    7  A    between atoms: C_22  and  O_24
                            x       y       z     vdW  Elec       q    Type
                         _______ _______ _______ _____ _____    ______ ____

>  <TORSDO>
F 7

$$$$
=
 OpenBabel11062416193D

 29 32  0  0  1  0  0  0  0  0999 V2000
  187.4930  177.3580  142.7970 C   0  0  0  0  0  2  0  0  0  0  0  0
  184.5490  178.0550  141.4840 C   0  0  1  0  0  3  0  0  0  0  0  0
  188.7830  177.6470  140.7320 C   0  0  0  0  0  0  0  0  0  0  0  0
  186.6780  178.5470  142.5240 N   0  0  1  0  0  0  0  0  0  0  0  0
  187.7460  178.3230  140.2290 C   0  0  0  0  0  3  0  0  0  0  0  0
  185.2780  178.9900  140.5610 C   0  0  1  0  0  3  0  0  0  0  0  0
  186.7090  179.0000  141.1060 C   0  0  1  0  0  3  0  0  0  0  0  0
  185.2900  178.1740  142.8190 C   0  0  1  0  0  3  0  0  0  0  0  0
  188.8990  177.5220  142.2300 C   0  0  2  0  0  3  0  0  0  0  0  0
  191.8920  176.5250  138.8350 N   0  0  0  0  0  0  0  0  0  0  0  0
  189.8090  177.0920  139.8170 C   0  0  0  0  0  0  0  0  0  0  0  0
  189.5840  176.3830  138.7360 C   0  0  0  0  0  0  0  0  0  0  0  0
  190.7950  176.0120  138.1240 N   0  0  0  0  0  0  0  0  0  0  0  0
  188.3650  176.0050  138.2770 F   0  0  0  0  0  0  0  0  0  0  0  0
  191.2880  177.2430  139.9690 C   0  0  0  0  0  2  0  0  0  0  0  0
  183.0700  178.3020  141.5320 C   0  0  0  0  0  0  0  0  0  0  0  0
  182.2020  177.5820  140.7200 O   0  0  0  0  0  0  0  0  0  0  0  0
  182.6140  179.1790  142.3090 O   0  0  0  0  0  1  0  0  0  0  0  0
  185.0210  178.2480  137.9970 C   0  0  0  0  0  3  0  0  0  0  0  0
  185.1370  178.5850  139.1500 C   0  0  0  0  0  0  0  0  0  0  0  0
  184.6520  179.1790  143.8010 C   0  0  2  0  0  3  0  0  0  0  0  0
  185.3050  180.4130  143.7720 O   0  0  0  0  0  1  0  0  0  0  0  0
  184.5650  178.6550  145.2410 C   0  0  2  0  0  3  0  0  0  0  0  0
  183.3510  178.9990  145.8400 O   0  0  0  0  0  1  0  0  0  0  0  0
  186.0310  177.9930  147.0490 O   0  0  0  0  0  0  0  0  0  0  0  0
  186.8090  178.1620  145.9670 O   0  0  0  0  0  0  0  0  0  0  0  0
  185.7430  179.0120  146.1650 C   0  0  0  0  0  3  0  0  0  0  0  0
  190.4270  176.8220  143.6740 C   0  0  0  0  0  1  0  0  0  0  0  0
  189.6580  176.4030  142.5870 O   0  0  0  0  0  0  0  0  0  0  0  0
  2 16  1  1  0  0  0
  2  8  1  0  0  0  0
  3  9  1  0  0  0  0
  4  1  1  6  0  0  0
  4  8  1  0  0  0  0
  5  3  2  0  0  0  0
  6 20  1  6  0  0  0
  6  7  1  0  0  0  0
  6  2  1  0  0  0  0
  7  5  1  6  0  0  0
  7  4  1  0  0  0  0
  8 21  1  1  0  0  0
  9 29  1  6  0  0  0
  9  1  1  0  0  0  0
 10 15  1  0  0  0  0
 11 15  1  0  0  0  0
 11  3  1  0  0  0  0
 12 11  2  0  0  0  0
 13 12  1  0  0  0  0
 13 10  2  0  0  0  0
 14 12  1  0  0  0  0
 16 18  1  0  0  0  0
 17 16  2  0  0  0  0
 19 20  3  0  0  0  0
 21 22  1  1  0  0  0
 21 23  1  0  0  0  0
 23 24  1  1  0  0  0
 23 27  1  0  0  0  0
 26 27  1  0  0  0  0
 26 25  1  0  0  0  0
 27 25  1  0  0  0  0
 29 28  1  0  0  0  0
M  END
>  <MODEL>
9

>  <REMARK>
 VINA RESULT:      -5.7      2.551      4.285
  Name = 
  7 active torsions:
  status: ('A' for Active; 'I' for Inactive)
    1  A    between atoms: C_4  and  C_10
    2  A    between atoms: C_5  and  C_9
    3  A    between atoms: C_5  and  C_23
    4  A    between atoms: C_6  and  C_8
    5  A    between atoms: C_9  and  C_20
    6  A    between atoms: C_16  and  C_26
    7  A    between atoms: C_22  and  O_24
                            x       y       z     vdW  Elec       q    Type
                         _______ _______ _______ _____ _____    ______ ____

>  <TORSDO>
F 7

$$$$
