=
 OpenBabel11062412043D

 48 53  0  0  1  0  0  0  0  0999 V2000
  186.9310  175.4700  135.7870 C   0  0  2  0  0  3  0  0  0  0  0  0
  185.7410  177.5400  136.1350 O   0  0  0  0  0  0  0  0  0  0  0  0
  183.0950  175.2830  138.5460 O   0  0  0  0  0  0  0  0  0  0  0  0
  184.8780  175.5510  137.0670 N   0  0  0  0  0  0  0  0  0  0  0  0
  185.8370  176.3010  136.3410 C   0  0  0  0  0  0  0  0  0  0  0  0
  183.8130  176.0740  137.8740 C   0  0  0  0  0  0  0  0  0  0  0  0
  185.2100  174.1410  136.9900 C   0  0  0  0  0  3  0  0  0  0  0  0
  186.4250  174.0430  136.0570 C   0  0  0  0  0  3  0  0  0  0  0  0
  181.2290  177.8840  137.1090 C   0  0  0  0  0  2  0  0  0  0  0  0
  183.6320  179.4410  139.4610 C   0  0  2  0  0  3  0  0  0  0  0  0
  182.2050  179.2820  138.9450 C   0  0  1  0  0  3  0  0  0  0  0  0
  180.6970  180.8550  136.0580 C   0  0  0  0  0  1  0  0  0  0  0  0
  183.5680  177.5510  137.9560 C   0  0  2  0  0  3  0  0  0  0  0  0
  181.9660  180.2810  137.9710 O   0  0  0  0  0  0  0  0  0  0  0  0
  180.1300  178.8010  137.3780 N   0  0  0  0  0  0  0  0  0  0  0  0
  180.6450  180.2000  137.4380 C   0  0  0  0  0  0  0  0  0  0  0  0
  179.7120  181.0310  138.3050 C   0  0  0  0  0  1  0  0  0  0  0  0
  184.3960  178.1860  139.0520 C   0  0  0  0  0  2  0  0  0  0  0  0
  182.1420  177.8870  138.3240 C   0  0  2  0  0  3  0  0  0  0  0  0
  179.1010  178.5970  136.3630 C   0  0  0  0  0  1  0  0  0  0  0  0
  182.1800  178.8080  142.7860 C   0  0  0  0  0  2  0  0  0  0  0  0
  182.8970  178.4290  141.4680 C   0  0  2  0  0  3  0  0  0  0  0  0
  184.3790  178.4310  141.4440 C   0  0  1  0  0  3  0  0  0  0  0  0
  185.2870  179.1030  145.3860 Cl  0  0  0  0  0  0  0  0  0  0  0  0
  183.6220  179.5830  140.9110 N   0  0  1  0  0  0  0  0  0  0  0  0
  184.3440  178.5820  143.9720 C   0  0  2  0  0  3  0  0  0  0  0  0
  185.1260  178.8710  142.7080 C   0  0  0  0  0  2  0  0  0  0  0  0
  183.0640  179.3780  143.8950 C   0  0  0  0  0  2  0  0  0  0  0  0
  188.2790  175.7430  136.4920 C   0  0  0  0  0  0  0  0  0  0  0  0
  188.6480  177.0630  136.2810 F   0  0  0  0  0  0  0  0  0  0  0  0
  188.1620  175.5410  137.8600 F   0  0  0  0  0  0  0  0  0  0  0  0
  189.1080  174.4880  134.6010 O   0  0  0  0  0  1  0  0  0  0  0  0
  189.4010  174.8620  135.9180 C   0  0  1  0  0  3  0  0  0  0  0  0
  190.8070  175.4710  136.0140 C   0  0  2  0  0  3  0  0  0  0  0  0
  191.7140  175.0840  134.8440 C   0  0  0  0  0  1  0  0  0  0  0  0
  193.0980  176.2440  138.7060 O   0  0  0  0  0  0  0  0  0  0  0  0
  191.8770  176.4970  138.0520 C   0  0  1  0  0  3  0  0  0  0  0  0
  191.4270  175.2090  137.3920 C   0  0  2  0  0  3  0  0  0  0  0  0
  192.6610  174.3540  137.3480 C   0  0  0  0  0  2  0  0  0  0  0  0
  193.7260  175.2410  137.9530 C   0  0  0  0  0  2  0  0  0  0  0  0
  190.8220  176.9700  139.0530 C   0  0  1  0  0  3  0  0  0  0  0  0
  191.7560  177.4990  142.5550 O   0  0  0  0  0  0  0  0  0  0  0  0
  191.4600  177.5040  140.2500 N   0  0  0  0  0  2  0  0  0  0  0  0
  190.1810  175.9970  141.7470 N   0  0  0  0  0  1  0  0  0  0  0  0
  191.1590  177.0170  141.5580 C   0  0  0  0  0  0  0  0  0  0  0  0
  190.0230  177.9620  138.4760 O   0  0  0  0  0  0  0  0  0  0  0  0
  189.3980  178.5870  139.5570 C   0  0  0  0  0  2  0  0  0  0  0  0
  187.9220  178.2400  139.5610 C   0  0  0  0  0  1  0  0  0  0  0  0
  1  8  1  0  0  0  0
  1  5  1  0  0  0  0
  1 29  1  1  0  0  0
  2  5  2  0  0  0  0
  4  6  1  0  0  0  0
  5  4  1  0  0  0  0
  6  3  2  0  0  0  0
  7  4  1  0  0  0  0
  8  7  2  0  0  0  0
  9 15  1  0  0  0  0
 10 18  1  1  0  0  0
 11 14  1  6  0  0  0
 11 10  1  0  0  0  0
 12 16  1  0  0  0  0
 13  6  1  1  0  0  0
 13 19  1  0  0  0  0
 13 18  1  0  0  0  0
 15 16  1  0  0  0  0
 16 14  1  0  0  0  0
 16 17  1  0  0  0  0
 19  9  1  6  0  0  0
 19 11  1  0  0  0  0
 20 15  1  0  0  0  0
 21 28  1  0  0  0  0
 22 21  1  1  0  0  0
 23 22  1  0  0  0  0
 23 27  1  1  0  0  0
 25 10  1  6  0  0  0
 25 23  1  0  0  0  0
 25 22  1  0  0  0  0
 26 24  1  1  0  0  0
 27 26  1  0  0  0  0
 28 26  1  0  0  0  0
 29 31  1  0  0  0  0
 30 29  1  0  0  0  0
 33 32  1  6  0  0  0
 33 34  1  0  0  0  0
 33 29  1  0  0  0  0
 34 35  1  6  0  0  0
 37 36  1  0  0  0  0
 37 41  1  1  0  0  0
 38 34  1  6  0  0  0
 38 37  1  0  0  0  0
 39 38  1  0  0  0  0
 39 40  1  0  0  0  0
 40 36  1  0  0  0  0
 41 46  1  6  0  0  0
 41 43  1  0  0  0  0
 43 45  1  0  0  0  0
 45 44  1  0  0  0  0
 45 42  2  0  0  0  0
 46 47  1  0  0  0  0
 47 48  1  0  0  0  0
M  END
>  <MODEL>
1

>  <REMARK>
 VINA RESULT:      -7.2      0.000      0.000
  Name = 
  10 active torsions:
  status: ('A' for Active; 'I' for Inactive)
    1  A    between atoms: C_1  and  C_7
    2  A    between atoms: C_4  and  C_27
    3  A    between atoms: C_4  and  C_33
    4  A    between atoms: C_5  and  N_30
    5  A    between atoms: C_7  and  C_33
    6  A    between atoms: C_10  and  C_34
    7  A    between atoms: C_16  and  C_41
    8  A    between atoms: O_20  and  C_22
    9  A    between atoms: O_20  and  C_41
   10  A    between atoms: N_24  and  C_41
                            x       y       z     vdW  Elec       q    Type
                         _______ _______ _______ _____ _____    ______ ____

>  <TORSDO>
F 10

$$$$
=
 OpenBabel11062412043D

 48 53  0  0  1  0  0  0  0  0999 V2000
  185.0290  179.3450  142.4090 C   0  0  2  0  0  3  0  0  0  0  0  0
  182.9350  178.8660  141.3080 O   0  0  0  0  0  0  0  0  0  0  0  0
  185.2790  177.3130  138.1460 O   0  0  0  0  0  0  0  0  0  0  0  0
  184.9550  178.4200  140.1730 N   0  0  0  0  0  0  0  0  0  0  0  0
  184.1940  178.8490  141.2900 C   0  0  0  0  0  0  0  0  0  0  0  0
  184.4650  177.7220  139.0190 C   0  0  0  0  0  0  0  0  0  0  0  0
  186.3620  178.6670  140.4250 C   0  0  0  0  0  3  0  0  0  0  0  0
  186.4280  179.3940  141.7750 C   0  0  0  0  0  3  0  0  0  0  0  0
  182.0850  179.4170  137.6040 C   0  0  0  0  0  2  0  0  0  0  0  0
  181.4230  175.7990  138.0540 C   0  0  2  0  0  3  0  0  0  0  0  0
  181.2140  177.0910  137.2700 C   0  0  1  0  0  3  0  0  0  0  0  0
  178.9380  179.8020  138.0160 C   0  0  0  0  0  1  0  0  0  0  0  0
  183.0000  177.4440  138.8560 C   0  0  2  0  0  3  0  0  0  0  0  0
  180.0460  177.7270  137.7550 O   0  0  0  0  0  0  0  0  0  0  0  0
  181.0240  179.6510  136.6330 N   0  0  0  0  0  0  0  0  0  0  0  0
  179.7800  178.9500  137.0680 C   0  0  0  0  0  0  0  0  0  0  0  0
  178.9310  178.6510  135.8430 C   0  0  0  0  0  1  0  0  0  0  0  0
  182.7220  175.9570  138.8360 C   0  0  0  0  0  2  0  0  0  0  0  0
  182.4540  177.9440  137.5400 C   0  0  2  0  0  3  0  0  0  0  0  0
  180.8590  181.0920  136.4710 C   0  0  0  0  0  1  0  0  0  0  0  0
  182.0240  174.3520  134.7210 C   0  0  0  0  0  2  0  0  0  0  0  0
  182.4170  175.0580  136.0400 C   0  0  2  0  0  3  0  0  0  0  0  0
  182.9230  174.2300  137.1610 C   0  0  1  0  0  3  0  0  0  0  0  0
  183.2270  170.5340  135.4100 Cl  0  0  0  0  0  0  0  0  0  0  0  0
  181.5120  174.6710  137.1350 N   0  0  1  0  0  0  0  0  0  0  0  0
  183.1630  172.3070  135.5300 C   0  0  2  0  0  3  0  0  0  0  0  0
  182.9700  172.7090  136.9770 C   0  0  0  0  0  2  0  0  0  0  0  0
  181.9730  172.8250  134.7610 C   0  0  0  0  0  2  0  0  0  0  0  0
  184.9840  178.3950  143.6280 C   0  0  0  0  0  0  0  0  0  0  0  0
  183.6670  178.2100  144.0170 F   0  0  0  0  0  0  0  0  0  0  0  0
  185.5150  177.1560  143.2980 F   0  0  0  0  0  0  0  0  0  0  0  0
  185.0500  180.1100  145.3290 O   0  0  0  0  0  1  0  0  0  0  0  0
  185.7320  178.9920  144.8310 C   0  0  1  0  0  3  0  0  0  0  0  0
  186.0400  177.9930  145.9550 C   0  0  2  0  0  3  0  0  0  0  0  0
  184.9090  177.8680  146.9780 C   0  0  0  0  0  1  0  0  0  0  0  0
  189.0420  176.9800  147.7010 O   0  0  0  0  0  0  0  0  0  0  0  0
  188.3180  177.0620  146.4970 C   0  0  1  0  0  3  0  0  0  0  0  0
  187.4120  178.2740  146.5800 C   0  0  2  0  0  3  0  0  0  0  0  0
  187.3540  178.6040  148.0450 C   0  0  0  0  0  2  0  0  0  0  0  0
  188.2030  177.5280  148.6830 C   0  0  0  0  0  2  0  0  0  0  0  0
  189.2700  177.1980  145.3080 C   0  0  1  0  0  3  0  0  0  0  0  0
  188.3580  176.3030  141.8750 O   0  0  0  0  0  0  0  0  0  0  0  0
  188.5340  177.0930  144.0540 N   0  0  0  0  0  2  0  0  0  0  0  0
  190.3300  175.7650  142.9770 N   0  0  0  0  0  1  0  0  0  0  0  0
  189.0450  176.3800  142.9260 C   0  0  0  0  0  0  0  0  0  0  0  0
  189.9250  178.4320  145.3560 O   0  0  0  0  0  0  0  0  0  0  0  0
  191.2210  178.1630  144.9150 C   0  0  0  0  0  2  0  0  0  0  0  0
  191.6910  179.2780  144.0010 C   0  0  0  0  0  1  0  0  0  0  0  0
  1 29  1  1  0  0  0
  3  6  2  0  0  0  0
  4  7  1  0  0  0  0
  4  5  1  0  0  0  0
  5  2  2  0  0  0  0
  5  1  1  0  0  0  0
  6  4  1  0  0  0  0
  7  8  2  0  0  0  0
  8  1  1  0  0  0  0
 10 18  1  6  0  0  0
 11 19  1  0  0  0  0
 11 14  1  1  0  0  0
 11 10  1  0  0  0  0
 13  6  1  6  0  0  0
 15 16  1  0  0  0  0
 15  9  1  0  0  0  0
 16 14  1  0  0  0  0
 16 12  1  0  0  0  0
 17 16  1  0  0  0  0
 18 13  1  0  0  0  0
 19  9  1  1  0  0  0
 19 13  1  0  0  0  0
 20 15  1  0  0  0  0
 21 28  1  0  0  0  0
 22 21  1  6  0  0  0
 22 25  1  0  0  0  0
 22 23  1  0  0  0  0
 23 27  1  6  0  0  0
 25 23  1  0  0  0  0
 25 10  1  1  0  0  0
 26 24  1  1  0  0  0
 26 27  1  0  0  0  0
 28 26  1  0  0  0  0
 29 30  1  0  0  0  0
 29 33  1  0  0  0  0
 31 29  1  0  0  0  0
 33 32  1  1  0  0  0
 33 34  1  0  0  0  0
 34 35  1  1  0  0  0
 36 40  1  0  0  0  0
 37 41  1  6  0  0  0
 37 38  1  0  0  0  0
 37 36  1  0  0  0  0
 38 34  1  1  0  0  0
 38 39  1  0  0  0  0
 39 40  1  0  0  0  0
 41 43  1  6  0  0  0
 41 46  1  0  0  0  0
 42 45  2  0  0  0  0
 45 44  1  0  0  0  0
 45 43  1  0  0  0  0
 47 46  1  0  0  0  0
 48 47  1  0  0  0  0
M  END
>  <MODEL>
2

>  <REMARK>
 VINA RESULT:      -7.0      4.328      7.424
  Name = 
  10 active torsions:
  status: ('A' for Active; 'I' for Inactive)
    1  A    between atoms: C_1  and  C_7
    2  A    between atoms: C_4  and  C_27
    3  A    between atoms: C_4  and  C_33
    4  A    between atoms: C_5  and  N_30
    5  A    between atoms: C_7  and  C_33
    6  A    between atoms: C_10  and  C_34
    7  A    between atoms: C_16  and  C_41
    8  A    between atoms: O_20  and  C_22
    9  A    between atoms: O_20  and  C_41
   10  A    between atoms: N_24  and  C_41
                            x       y       z     vdW  Elec       q    Type
                         _______ _______ _______ _____ _____    ______ ____

>  <TORSDO>
F 10

$$$$
=
 OpenBabel11062412043D

 48 53  0  0  1  0  0  0  0  0999 V2000
  190.5490  176.5540  137.6590 C   0  0  2  0  0  3  0  0  0  0  0  0
  190.4190  176.0260  140.0100 O   0  0  0  0  0  0  0  0  0  0  0  0
  187.7260  179.2760  140.3010 O   0  0  0  0  0  0  0  0  0  0  0  0
  189.2540  177.9070  139.1920 N   0  0  0  0  0  0  0  0  0  0  0  0
  190.0760  176.7610  139.0470 C   0  0  0  0  0  0  0  0  0  0  0  0
  188.4940  178.2760  140.3520 C   0  0  0  0  0  0  0  0  0  0  0  0
  189.1740  178.6060  137.9230 C   0  0  0  0  0  3  0  0  0  0  0  0
  190.1090  177.8540  136.9670 C   0  0  0  0  0  3  0  0  0  0  0  0
  190.5410  178.3960  142.8680 C   0  0  0  0  0  2  0  0  0  0  0  0
  187.2960  176.7300  143.5240 C   0  0  2  0  0  3  0  0  0  0  0  0
  188.4880  177.5410  144.0240 C   0  0  1  0  0  3  0  0  0  0  0  0
  191.7590  176.3260  144.9790 C   0  0  0  0  0  1  0  0  0  0  0  0
  188.5770  177.4680  141.6120 C   0  0  2  0  0  3  0  0  0  0  0  0
  189.4560  176.6450  144.5390 O   0  0  0  0  0  0  0  0  0  0  0  0
  190.9100  178.5750  144.2670 N   0  0  0  0  0  0  0  0  0  0  0  0
  190.6080  177.3300  145.0310 C   0  0  0  0  0  0  0  0  0  0  0  0
  190.3800  177.6910  146.4900 C   0  0  0  0  0  1  0  0  0  0  0  0
  187.2190  176.9370  142.0150 C   0  0  0  0  0  2  0  0  0  0  0  0
  189.0270  178.2830  142.8010 C   0  0  2  0  0  3  0  0  0  0  0  0
  192.3140  178.9730  144.3250 C   0  0  0  0  0  1  0  0  0  0  0  0
  185.4810  178.9010  145.8810 C   0  0  0  0  0  2  0  0  0  0  0  0
  186.3050  178.5820  144.6110 C   0  0  2  0  0  3  0  0  0  0  0  0
  185.5790  178.3210  143.3450 C   0  0  1  0  0  3  0  0  0  0  0  0
  181.7090  179.1770  144.3970 Cl  0  0  0  0  0  0  0  0  0  0  0  0
  186.0750  177.1970  144.1670 N   0  0  1  0  0  0  0  0  0  0  0  0
  183.4860  179.2240  144.4480 C   0  0  2  0  0  3  0  0  0  0  0  0
  184.0470  178.3180  143.3730 C   0  0  0  0  0  2  0  0  0  0  0  0
  183.9700  178.6940  145.7750 C   0  0  0  0  0  2  0  0  0  0  0  0
  189.9000  175.3100  137.0070 C   0  0  0  0  0  0  0  0  0  0  0  0
  190.8000  174.7340  136.1240 F   0  0  0  0  0  0  0  0  0  0  0  0
  189.5780  174.3670  137.9720 F   0  0  0  0  0  0  0  0  0  0  0  0
  188.8980  175.5630  134.8230 O   0  0  0  0  0  1  0  0  0  0  0  0
  188.6500  175.6900  136.1950 C   0  0  1  0  0  3  0  0  0  0  0  0
  187.3740  174.9370  136.5930 C   0  0  2  0  0  3  0  0  0  0  0  0
  187.0270  173.7910  135.6420 C   0  0  0  0  0  1  0  0  0  0  0  0
  184.1070  176.2970  135.8400 O   0  0  0  0  0  0  0  0  0  0  0  0
  184.8830  175.2970  136.4550 C   0  0  1  0  0  3  0  0  0  0  0  0
  186.2150  175.9120  136.8380 C   0  0  2  0  0  3  0  0  0  0  0  0
  186.3000  177.1710  136.0220 C   0  0  0  0  0  2  0  0  0  0  0  0
  185.0250  177.1520  135.2100 C   0  0  0  0  0  2  0  0  0  0  0  0
  184.1750  174.7600  137.7000 C   0  0  1  0  0  3  0  0  0  0  0  0
  180.8300  176.0270  138.4880 O   0  0  0  0  0  0  0  0  0  0  0  0
  182.7450  175.0300  137.6260 N   0  0  0  0  0  2  0  0  0  0  0  0
  182.7620  176.3260  139.7400 N   0  0  0  0  0  1  0  0  0  0  0  0
  182.0630  175.8070  138.6110 C   0  0  0  0  0  0  0  0  0  0  0  0
  184.3790  173.3820  137.8110 O   0  0  0  0  0  0  0  0  0  0  0  0
  183.5870  172.8240  136.8050 C   0  0  0  0  0  2  0  0  0  0  0  0
  184.0720  171.4220  136.4940 C   0  0  0  0  0  1  0  0  0  0  0  0
  1 29  1  6  0  0  0
  1  5  1  0  0  0  0
  3  6  2  0  0  0  0
  4  6  1  0  0  0  0
  5  4  1  0  0  0  0
  5  2  2  0  0  0  0
  7  4  1  0  0  0  0
  8  1  1  0  0  0  0
  8  7  2  0  0  0  0
  9 15  1  0  0  0  0
 10 18  1  6  0  0  0
 10 11  1  0  0  0  0
 11 14  1  6  0  0  0
 12 16  1  0  0  0  0
 13  6  1  6  0  0  0
 13 18  1  0  0  0  0
 13 19  1  0  0  0  0
 14 16  1  0  0  0  0
 15 20  1  0  0  0  0
 15 16  1  0  0  0  0
 16 17  1  0  0  0  0
 19  9  1  1  0  0  0
 19 11  1  0  0  0  0
 22 21  1  1  0  0  0
 23 27  1  1  0  0  0
 23 25  1  0  0  0  0
 23 22  1  0  0  0  0
 25 10  1  6  0  0  0
 25 22  1  0  0  0  0
 26 24  1  1  0  0  0
 26 28  1  0  0  0  0
 27 26  1  0  0  0  0
 28 21  1  0  0  0  0
 29 31  1  0  0  0  0
 30 29  1  0  0  0  0
 33 32  1  6  0  0  0
 33 34  1  0  0  0  0
 33 29  1  0  0  0  0
 34 35  1  6  0  0  0
 36 37  1  0  0  0  0
 37 38  1  0  0  0  0
 37 41  1  1  0  0  0
 38 34  1  6  0  0  0
 39 38  1  0  0  0  0
 40 36  1  0  0  0  0
 40 39  1  0  0  0  0
 41 43  1  6  0  0  0
 41 46  1  0  0  0  0
 42 45  2  0  0  0  0
 43 45  1  0  0  0  0
 45 44  1  0  0  0  0
 47 46  1  0  0  0  0
 48 47  1  0  0  0  0
M  END
>  <MODEL>
3

>  <REMARK>
 VINA RESULT:      -7.0      2.772      7.606
  Name = 
  10 active torsions:
  status: ('A' for Active; 'I' for Inactive)
    1  A    between atoms: C_1  and  C_7
    2  A    between atoms: C_4  and  C_27
    3  A    between atoms: C_4  and  C_33
    4  A    between atoms: C_5  and  N_30
    5  A    between atoms: C_7  and  C_33
    6  A    between atoms: C_10  and  C_34
    7  A    between atoms: C_16  and  C_41
    8  A    between atoms: O_20  and  C_22
    9  A    between atoms: O_20  and  C_41
   10  A    between atoms: N_24  and  C_41
                            x       y       z     vdW  Elec       q    Type
                         _______ _______ _______ _____ _____    ______ ____

>  <TORSDO>
F 10

$$$$
=
 OpenBabel11062412043D

 48 53  0  0  1  0  0  0  0  0999 V2000
  186.3430  178.9720  142.2260 C   0  0  2  0  0  3  0  0  0  0  0  0
  183.9980  179.1490  141.6830 O   0  0  0  0  0  0  0  0  0  0  0  0
  185.0400  177.5440  137.9100 O   0  0  0  0  0  0  0  0  0  0  0  0
  185.5050  178.4050  140.0260 N   0  0  0  0  0  0  0  0  0  0  0  0
  185.1680  178.8430  141.3320 C   0  0  0  0  0  0  0  0  0  0  0  0
  184.5910  178.0070  138.9940 C   0  0  0  0  0  0  0  0  0  0  0  0
  186.9450  178.2820  139.9160 C   0  0  0  0  0  3  0  0  0  0  0  0
  187.5160  178.7800  141.2510 C   0  0  0  0  0  3  0  0  0  0  0  0
  182.4930  180.4400  138.5260 C   0  0  0  0  0  2  0  0  0  0  0  0
  181.0070  177.0470  138.6490 C   0  0  2  0  0  3  0  0  0  0  0  0
  180.9770  178.4830  138.1340 C   0  0  1  0  0  3  0  0  0  0  0  0
  179.7490  181.4310  139.8320 C   0  0  0  0  0  1  0  0  0  0  0  0
  183.1090  178.1030  139.2020 C   0  0  2  0  0  3  0  0  0  0  0  0
  180.1680  179.2550  139.0010 O   0  0  0  0  0  0  0  0  0  0  0  0
  181.3390  181.0940  137.9240 N   0  0  0  0  0  0  0  0  0  0  0  0
  180.0890  180.6180  138.5840 C   0  0  0  0  0  0  0  0  0  0  0  0
  178.9310  180.7670  137.6100 C   0  0  0  0  0  1  0  0  0  0  0  0
  182.4460  176.7510  139.0590 C   0  0  0  0  0  2  0  0  0  0  0  0
  182.4280  178.9650  138.1660 C   0  0  2  0  0  3  0  0  0  0  0  0
  181.5340  182.5390  138.0080 C   0  0  0  0  0  1  0  0  0  0  0  0
  181.3970  175.4670  135.3460 C   0  0  0  0  0  2  0  0  0  0  0  0
  181.7670  175.7560  136.8190 C   0  0  2  0  0  3  0  0  0  0  0  0
  181.2490  174.8460  137.8700 C   0  0  1  0  0  3  0  0  0  0  0  0
  179.4890  171.8920  135.6350 Cl  0  0  0  0  0  0  0  0  0  0  0  0
  180.5760  176.1340  137.5980 N   0  0  1  0  0  0  0  0  0  0  0  0
  180.5930  173.2270  136.0360 C   0  0  2  0  0  3  0  0  0  0  0  0
  180.3200  173.7030  137.4470 C   0  0  0  0  0  2  0  0  0  0  0  0
  180.3330  174.3940  135.1150 C   0  0  0  0  0  2  0  0  0  0  0  0
  186.3420  177.8990  143.3400 C   0  0  0  0  0  0  0  0  0  0  0  0
  185.0680  177.3660  143.4620 F   0  0  0  0  0  0  0  0  0  0  0  0
  187.2130  176.8670  143.0220 F   0  0  0  0  0  0  0  0  0  0  0  0
  185.6300  179.2230  145.2310 O   0  0  0  0  0  1  0  0  0  0  0  0
  186.7110  178.5070  144.7030 C   0  0  1  0  0  3  0  0  0  0  0  0
  187.2550  177.5020  145.7280 C   0  0  2  0  0  3  0  0  0  0  0  0
  186.1590  176.8380  146.5620 C   0  0  0  0  0  1  0  0  0  0  0  0
  189.6440  177.4490  148.4440 O   0  0  0  0  0  0  0  0  0  0  0  0
  189.2980  177.0620  147.1350 C   0  0  1  0  0  3  0  0  0  0  0  0
  188.3800  178.1240  146.5630 C   0  0  2  0  0  3  0  0  0  0  0  0
  187.8930  178.8890  147.7610 C   0  0  0  0  0  2  0  0  0  0  0  0
  188.5440  178.1740  148.9240 C   0  0  0  0  0  2  0  0  0  0  0  0
  190.5510  176.9280  146.2680 C   0  0  1  0  0  3  0  0  0  0  0  0
  190.8170  178.2010  142.8430 O   0  0  0  0  0  0  0  0  0  0  0  0
  190.4600  177.8030  145.1050 N   0  0  0  0  0  2  0  0  0  0  0  0
  191.5690  176.1490  143.6280 N   0  0  0  0  0  1  0  0  0  0  0  0
  190.9400  177.4140  143.8180 C   0  0  0  0  0  0  0  0  0  0  0  0
  191.6870  177.2650  147.0090 O   0  0  0  0  0  0  0  0  0  0  0  0
  192.3440  176.0520  147.2220 C   0  0  0  0  0  2  0  0  0  0  0  0
  192.9740  176.0490  148.6010 C   0  0  0  0  0  1  0  0  0  0  0  0
  1 29  1  1  0  0  0
  3  6  2  0  0  0  0
  4  5  1  0  0  0  0
  5  2  2  0  0  0  0
  5  1  1  0  0  0  0
  6  4  1  0  0  0  0
  7  4  1  0  0  0  0
  7  8  2  0  0  0  0
  8  1  1  0  0  0  0
 10 18  1  6  0  0  0
 11 19  1  0  0  0  0
 11 10  1  0  0  0  0
 11 14  1  1  0  0  0
 13  6  1  6  0  0  0
 15 20  1  0  0  0  0
 15  9  1  0  0  0  0
 15 16  1  0  0  0  0
 16 14  1  0  0  0  0
 16 12  1  0  0  0  0
 17 16  1  0  0  0  0
 18 13  1  0  0  0  0
 19  9  1  1  0  0  0
 19 13  1  0  0  0  0
 22 21  1  6  0  0  0
 22 25  1  0  0  0  0
 22 23  1  0  0  0  0
 23 27  1  6  0  0  0
 25 23  1  0  0  0  0
 25 10  1  1  0  0  0
 26 24  1  6  0  0  0
 26 27  1  0  0  0  0
 28 21  1  0  0  0  0
 28 26  1  0  0  0  0
 29 30  1  0  0  0  0
 29 33  1  0  0  0  0
 31 29  1  0  0  0  0
 33 32  1  1  0  0  0
 33 34  1  0  0  0  0
 34 35  1  1  0  0  0
 36 40  1  0  0  0  0
 37 41  1  6  0  0  0
 37 36  1  0  0  0  0
 38 34  1  1  0  0  0
 38 37  1  0  0  0  0
 38 39  1  0  0  0  0
 39 40  1  0  0  0  0
 41 43  1  6  0  0  0
 41 46  1  0  0  0  0
 42 45  2  0  0  0  0
 44 45  1  0  0  0  0
 45 43  1  0  0  0  0
 46 47  1  0  0  0  0
 47 48  1  0  0  0  0
M  END
>  <MODEL>
4

>  <REMARK>
 VINA RESULT:      -6.9      4.309      7.356
  Name = 
  10 active torsions:
  status: ('A' for Active; 'I' for Inactive)
    1  A    between atoms: C_1  and  C_7
    2  A    between atoms: C_4  and  C_27
    3  A    between atoms: C_4  and  C_33
    4  A    between atoms: C_5  and  N_30
    5  A    between atoms: C_7  and  C_33
    6  A    between atoms: C_10  and  C_34
    7  A    between atoms: C_16  and  C_41
    8  A    between atoms: O_20  and  C_22
    9  A    between atoms: O_20  and  C_41
   10  A    between atoms: N_24  and  C_41
                            x       y       z     vdW  Elec       q    Type
                         _______ _______ _______ _____ _____    ______ ____

>  <TORSDO>
F 10

$$$$
=
 OpenBabel11062412043D

 48 53  0  0  1  0  0  0  0  0999 V2000
  187.8780  176.3990  135.8030 C   0  0  2  0  0  3  0  0  0  0  0  0
  186.3370  178.2340  136.0920 O   0  0  0  0  0  0  0  0  0  0  0  0
  183.8040  175.4360  138.0030 O   0  0  0  0  0  0  0  0  0  0  0  0
  185.6940  176.0760  136.7950 N   0  0  0  0  0  0  0  0  0  0  0  0
  186.6040  177.0140  136.2450 C   0  0  0  0  0  0  0  0  0  0  0  0
  184.4660  176.3730  137.4770 C   0  0  0  0  0  0  0  0  0  0  0  0
  186.2540  174.7430  136.6940 C   0  0  0  0  0  3  0  0  0  0  0  0
  187.5770  174.8970  135.9300 C   0  0  0  0  0  3  0  0  0  0  0  0
  181.6950  177.7940  136.5600 C   0  0  0  0  0  2  0  0  0  0  0  0
  183.6130  179.5740  139.1830 C   0  0  2  0  0  3  0  0  0  0  0  0
  182.2780  179.2220  138.5340 C   0  0  1  0  0  3  0  0  0  0  0  0
  180.7770  180.6990  135.5930 C   0  0  0  0  0  1  0  0  0  0  0  0
  183.9790  177.7860  137.5990 C   0  0  2  0  0  3  0  0  0  0  0  0
  181.9610  180.2240  137.5860 O   0  0  0  0  0  0  0  0  0  0  0  0
  180.4430  178.5100  136.7680 N   0  0  0  0  0  0  0  0  0  0  0  0
  180.7180  179.9670  136.9330 C   0  0  0  0  0  0  0  0  0  0  0  0
  179.5960  180.5900  137.7480 C   0  0  0  0  0  1  0  0  0  0  0  0
  184.6010  178.4800  138.7910 C   0  0  0  0  0  2  0  0  0  0  0  0
  182.4920  177.8710  137.8510 C   0  0  2  0  0  3  0  0  0  0  0  0
  179.5480  178.2040  135.6560 C   0  0  0  0  0  1  0  0  0  0  0  0
  181.9860  178.5660  142.3290 C   0  0  0  0  0  2  0  0  0  0  0  0
  182.8560  178.3610  141.0670 C   0  0  2  0  0  3  0  0  0  0  0  0
  184.3210  178.5590  141.1780 C   0  0  1  0  0  3  0  0  0  0  0  0
  184.7920  179.1190  145.2140 Cl  0  0  0  0  0  0  0  0  0  0  0  0
  183.4610  179.6300  140.6310 N   0  0  1  0  0  0  0  0  0  0  0  0
  184.0510  178.5600  143.6970 C   0  0  2  0  0  3  0  0  0  0  0  0
  184.8910  179.0210  142.5240 C   0  0  0  0  0  2  0  0  0  0  0  0
  182.6860  179.1830  143.5390 C   0  0  0  0  0  2  0  0  0  0  0  0
  189.0650  176.8230  136.6990 C   0  0  0  0  0  0  0  0  0  0  0  0
  190.2550  176.5490  136.0420 F   0  0  0  0  0  0  0  0  0  0  0  0
  189.0190  178.1860  136.9560 F   0  0  0  0  0  0  0  0  0  0  0  0
  190.0310  175.0030  137.9600 O   0  0  0  0  0  1  0  0  0  0  0  0
  189.0840  176.0320  138.0170 C   0  0  1  0  0  3  0  0  0  0  0  0
  189.2810  176.8880  139.2760 C   0  0  2  0  0  3  0  0  0  0  0  0
  189.1660  178.3900  139.0090 C   0  0  0  0  0  1  0  0  0  0  0  0
  192.0490  177.5670  141.5040 O   0  0  0  0  0  0  0  0  0  0  0  0
  190.6940  177.2270  141.3350 C   0  0  1  0  0  3  0  0  0  0  0  0
  190.5610  176.4860  140.0190 C   0  0  2  0  0  3  0  0  0  0  0  0
  191.8220  176.8130  139.2710 C   0  0  0  0  0  2  0  0  0  0  0  0
  192.5570  177.7450  140.2080 C   0  0  0  0  0  2  0  0  0  0  0  0
  190.2180  176.3400  142.4870 C   0  0  1  0  0  3  0  0  0  0  0  0
  191.8420  176.8280  145.7330 O   0  0  0  0  0  0  0  0  0  0  0  0
  190.6060  176.9190  143.7670 N   0  0  0  0  0  2  0  0  0  0  0  0
  192.0780  175.0010  144.3190 N   0  0  0  0  0  1  0  0  0  0  0  0
  191.5250  176.2740  144.6490 C   0  0  0  0  0  0  0  0  0  0  0  0
  188.8270  176.2050  142.4450 O   0  0  0  0  0  0  0  0  0  0  0  0
  188.3390  177.3870  143.0060 C   0  0  0  0  0  2  0  0  0  0  0  0
  187.5060  177.0630  144.2300 C   0  0  0  0  0  1  0  0  0  0  0  0
  1  8  1  0  0  0  0
  1  5  1  0  0  0  0
  1 29  1  1  0  0  0
  2  5  2  0  0  0  0
  4  6  1  0  0  0  0
  5  4  1  0  0  0  0
  6  3  2  0  0  0  0
  7  4  1  0  0  0  0
  8  7  2  0  0  0  0
  9 15  1  0  0  0  0
 10 18  1  1  0  0  0
 11 14  1  6  0  0  0
 11 10  1  0  0  0  0
 12 16  1  0  0  0  0
 13  6  1  1  0  0  0
 13 19  1  0  0  0  0
 13 18  1  0  0  0  0
 15 16  1  0  0  0  0
 16 14  1  0  0  0  0
 16 17  1  0  0  0  0
 19  9  1  6  0  0  0
 19 11  1  0  0  0  0
 20 15  1  0  0  0  0
 21 28  1  0  0  0  0
 22 23  1  0  0  0  0
 22 21  1  1  0  0  0
 23 27  1  1  0  0  0
 25 10  1  6  0  0  0
 25 22  1  0  0  0  0
 25 23  1  0  0  0  0
 26 24  1  1  0  0  0
 27 26  1  0  0  0  0
 28 26  1  0  0  0  0
 29 31  1  0  0  0  0
 29 33  1  0  0  0  0
 30 29  1  0  0  0  0
 33 32  1  6  0  0  0
 33 34  1  0  0  0  0
 34 35  1  6  0  0  0
 37 36  1  0  0  0  0
 37 41  1  1  0  0  0
 38 34  1  6  0  0  0
 38 37  1  0  0  0  0
 39 38  1  0  0  0  0
 39 40  1  0  0  0  0
 40 36  1  0  0  0  0
 41 46  1  1  0  0  0
 41 43  1  0  0  0  0
 43 45  1  0  0  0  0
 44 45  1  0  0  0  0
 45 42  2  0  0  0  0
 46 47  1  0  0  0  0
 47 48  1  0  0  0  0
M  END
>  <MODEL>
5

>  <REMARK>
 VINA RESULT:      -6.9      1.638      2.367
  Name = 
  10 active torsions:
  status: ('A' for Active; 'I' for Inactive)
    1  A    between atoms: C_1  and  C_7
    2  A    between atoms: C_4  and  C_27
    3  A    between atoms: C_4  and  C_33
    4  A    between atoms: C_5  and  N_30
    5  A    between atoms: C_7  and  C_33
    6  A    between atoms: C_10  and  C_34
    7  A    between atoms: C_16  and  C_41
    8  A    between atoms: O_20  and  C_22
    9  A    between atoms: O_20  and  C_41
   10  A    between atoms: N_24  and  C_41
                            x       y       z     vdW  Elec       q    Type
                         _______ _______ _______ _____ _____    ______ ____

>  <TORSDO>
F 10

$$$$
=
 OpenBabel11062412043D

 48 53  0  0  1  0  0  0  0  0999 V2000
  189.6080  176.6710  137.2330 C   0  0  2  0  0  3  0  0  0  0  0  0
  189.6810  175.9320  139.5290 O   0  0  0  0  0  0  0  0  0  0  0  0
  188.3560  179.8240  140.5270 O   0  0  0  0  0  0  0  0  0  0  0  0
  189.1210  178.1760  139.0650 N   0  0  0  0  0  0  0  0  0  0  0  0
  189.4630  176.8510  138.6960 C   0  0  0  0  0  0  0  0  0  0  0  0
  188.7300  178.6290  140.3690 C   0  0  0  0  0  0  0  0  0  0  0  0
  189.0860  179.0120  137.8800 C   0  0  0  0  0  3  0  0  0  0  0  0
  189.5400  178.1180  136.7180 C   0  0  0  0  0  3  0  0  0  0  0  0
  190.6570  178.4130  142.9730 C   0  0  0  0  0  2  0  0  0  0  0  0
  187.3360  176.8020  143.3030 C   0  0  2  0  0  3  0  0  0  0  0  0
  188.5270  177.5140  143.9390 C   0  0  1  0  0  3  0  0  0  0  0  0
  191.7110  176.0930  144.9030 C   0  0  0  0  0  1  0  0  0  0  0  0
  188.7290  177.6910  141.5390 C   0  0  2  0  0  3  0  0  0  0  0  0
  189.4420  176.5360  144.3980 O   0  0  0  0  0  0  0  0  0  0  0  0
  190.9640  178.4320  144.3970 N   0  0  0  0  0  0  0  0  0  0  0  0
  190.5880  177.1250  145.0110 C   0  0  0  0  0  0  0  0  0  0  0  0
  190.3020  177.3390  146.4880 C   0  0  0  0  0  1  0  0  0  0  0  0
  187.3370  177.1680  141.8220 C   0  0  0  0  0  2  0  0  0  0  0  0
  189.1460  178.3610  142.8260 C   0  0  2  0  0  3  0  0  0  0  0  0
  192.3740  178.7730  144.5590 C   0  0  0  0  0  1  0  0  0  0  0  0
  185.4540  178.9390  145.6380 C   0  0  0  0  0  2  0  0  0  0  0  0
  186.2920  178.6330  144.3740 C   0  0  2  0  0  3  0  0  0  0  0  0
  185.5800  178.3470  143.1060 C   0  0  1  0  0  3  0  0  0  0  0  0
  181.6840  179.1090  144.1340 Cl  0  0  0  0  0  0  0  0  0  0  0  0
  186.1000  177.2410  143.9370 N   0  0  1  0  0  0  0  0  0  0  0  0
  183.4580  179.2020  144.1930 C   0  0  2  0  0  3  0  0  0  0  0  0
  184.0490  178.3040  143.1260 C   0  0  0  0  0  2  0  0  0  0  0  0
  183.9490  178.6930  145.5260 C   0  0  0  0  0  2  0  0  0  0  0  0
  188.4760  175.7990  136.6430 C   0  0  0  0  0  0  0  0  0  0  0  0
  188.9640  175.0880  135.5570 F   0  0  0  0  0  0  0  0  0  0  0  0
  188.0210  174.8880  137.5860 F   0  0  0  0  0  0  0  0  0  0  0  0
  187.5110  177.0140  134.7910 O   0  0  0  0  0  1  0  0  0  0  0  0
  187.3110  176.6620  136.1320 C   0  0  1  0  0  3  0  0  0  0  0  0
  185.9190  176.0480  136.3350 C   0  0  2  0  0  3  0  0  0  0  0  0
  185.0230  176.1610  135.1010 C   0  0  0  0  0  1  0  0  0  0  0  0
  183.4300  177.9670  138.1270 O   0  0  0  0  0  0  0  0  0  0  0  0
  183.7810  176.7860  137.4450 C   0  0  1  0  0  3  0  0  0  0  0  0
  185.2700  176.5710  137.6220 C   0  0  2  0  0  3  0  0  0  0  0  0
  185.7960  177.9080  138.0650 C   0  0  0  0  0  2  0  0  0  0  0  0
  184.5660  178.7870  138.0670 C   0  0  0  0  0  2  0  0  0  0  0  0
  183.0070  175.5930  138.0070 C   0  0  1  0  0  3  0  0  0  0  0  0
  184.2350  172.2690  137.0790 O   0  0  0  0  0  0  0  0  0  0  0  0
  183.8210  174.3860  137.9470 N   0  0  0  0  0  2  0  0  0  0  0  0
  182.3010  173.3020  136.3150 N   0  0  0  0  0  1  0  0  0  0  0  0
  183.4850  173.2790  137.1100 C   0  0  0  0  0  0  0  0  0  0  0  0
  182.6450  175.8380  139.3350 O   0  0  0  0  0  0  0  0  0  0  0  0
  181.3550  175.3160  139.4530 C   0  0  0  0  0  2  0  0  0  0  0  0
  180.3880  176.1620  138.6480 C   0  0  0  0  0  1  0  0  0  0  0  0
  1 29  1  6  0  0  0
  1  5  1  0  0  0  0
  4  6  1  0  0  0  0
  5  4  1  0  0  0  0
  5  2  2  0  0  0  0
  6  3  2  0  0  0  0
  7  4  1  0  0  0  0
  8  1  1  0  0  0  0
  8  7  2  0  0  0  0
  9 15  1  0  0  0  0
 10 18  1  6  0  0  0
 10 11  1  0  0  0  0
 11 14  1  6  0  0  0
 12 16  1  0  0  0  0
 13  6  1  6  0  0  0
 13 18  1  0  0  0  0
 13 19  1  0  0  0  0
 14 16  1  0  0  0  0
 15 20  1  0  0  0  0
 15 16  1  0  0  0  0
 16 17  1  0  0  0  0
 19  9  1  1  0  0  0
 19 11  1  0  0  0  0
 22 21  1  1  0  0  0
 23 27  1  1  0  0  0
 23 25  1  0  0  0  0
 23 22  1  0  0  0  0
 25 10  1  6  0  0  0
 25 22  1  0  0  0  0
 26 24  1  1  0  0  0
 26 28  1  0  0  0  0
 27 26  1  0  0  0  0
 28 21  1  0  0  0  0
 29 31  1  0  0  0  0
 30 29  1  0  0  0  0
 33 32  1  6  0  0  0
 33 34  1  0  0  0  0
 33 29  1  0  0  0  0
 34 35  1  6  0  0  0
 37 38  1  0  0  0  0
 37 41  1  1  0  0  0
 37 36  1  0  0  0  0
 38 34  1  6  0  0  0
 38 39  1  0  0  0  0
 39 40  1  0  0  0  0
 40 36  1  0  0  0  0
 41 43  1  1  0  0  0
 41 46  1  0  0  0  0
 42 45  2  0  0  0  0
 44 45  1  0  0  0  0
 45 43  1  0  0  0  0
 46 47  1  0  0  0  0
 48 47  1  0  0  0  0
M  END
>  <MODEL>
6

>  <REMARK>
 VINA RESULT:      -6.2      2.683      7.740
  Name = 
  10 active torsions:
  status: ('A' for Active; 'I' for Inactive)
    1  A    between atoms: C_1  and  C_7
    2  A    between atoms: C_4  and  C_27
    3  A    between atoms: C_4  and  C_33
    4  A    between atoms: C_5  and  N_30
    5  A    between atoms: C_7  and  C_33
    6  A    between atoms: C_10  and  C_34
    7  A    between atoms: C_16  and  C_41
    8  A    between atoms: O_20  and  C_22
    9  A    between atoms: O_20  and  C_41
   10  A    between atoms: N_24  and  C_41
                            x       y       z     vdW  Elec       q    Type
                         _______ _______ _______ _____ _____    ______ ____

>  <TORSDO>
F 10

$$$$
=
 OpenBabel11062412043D

 48 53  0  0  1  0  0  0  0  0999 V2000
  185.8860  179.2040  141.8250 C   0  0  2  0  0  3  0  0  0  0  0  0
  183.8740  179.3050  140.4960 O   0  0  0  0  0  0  0  0  0  0  0  0
  186.0950  177.3110  137.4970 O   0  0  0  0  0  0  0  0  0  0  0  0
  185.8330  178.3980  139.5430 N   0  0  0  0  0  0  0  0  0  0  0  0
  185.0840  178.9710  140.6020 C   0  0  0  0  0  0  0  0  0  0  0  0
  185.3160  177.8850  138.3070 C   0  0  0  0  0  0  0  0  0  0  0  0
  187.2200  178.2730  139.9480 C   0  0  0  0  0  3  0  0  0  0  0  0
  187.3150  178.9170  141.3380 C   0  0  0  0  0  3  0  0  0  0  0  0
  183.0820  175.6340  137.6130 C   0  0  0  0  0  2  0  0  0  0  0  0
  181.7600  178.8930  138.7810 C   0  0  2  0  0  3  0  0  0  0  0  0
  181.6230  177.3780  138.6670 C   0  0  1  0  0  3  0  0  0  0  0  0
  180.4250  175.4590  135.8440 C   0  0  0  0  0  1  0  0  0  0  0  0
  183.8560  177.9920  137.9830 C   0  0  2  0  0  3  0  0  0  0  0  0
  180.8620  177.0810  137.5110 O   0  0  0  0  0  0  0  0  0  0  0  0
  181.8520  174.8820  137.8230 N   0  0  0  0  0  0  0  0  0  0  0  0
  180.6870  175.6760  137.3340 C   0  0  0  0  0  0  0  0  0  0  0  0
  179.4410  175.2360  138.0870 C   0  0  0  0  0  1  0  0  0  0  0  0
  183.2410  179.2200  138.6190 C   0  0  0  0  0  2  0  0  0  0  0  0
  183.0490  176.8410  138.5350 C   0  0  2  0  0  3  0  0  0  0  0  0
  181.9910  173.5820  137.1720 C   0  0  0  0  0  1  0  0  0  0  0  0
  179.4750  180.8380  140.9170 C   0  0  0  0  0  2  0  0  0  0  0  0
  179.8610  179.7120  139.9290 C   0  0  2  0  0  3  0  0  0  0  0  0
  180.2210  178.3820  140.4780 C   0  0  1  0  0  3  0  0  0  0  0  0
  179.3780  178.8590  144.4630 Cl  0  0  0  0  0  0  0  0  0  0  0  0
  181.2770  179.3380  140.0820 N   0  0  1  0  0  0  0  0  0  0  0  0
  179.2900  179.1380  142.7090 C   0  0  2  0  0  3  0  0  0  0  0  0
  180.2540  178.2100  142.0000 C   0  0  0  0  0  2  0  0  0  0  0  0
  179.7200  180.5500  142.3970 C   0  0  0  0  0  2  0  0  0  0  0  0
  185.4720  178.2580  142.9760 C   0  0  0  0  0  0  0  0  0  0  0  0
  184.1420  177.8990  142.8180 F   0  0  0  0  0  0  0  0  0  0  0  0
  186.2360  177.1000  142.9530 F   0  0  0  0  0  0  0  0  0  0  0  0
  184.4600  179.7290  144.6040 O   0  0  0  0  0  1  0  0  0  0  0  0
  185.5940  178.9500  144.3440 C   0  0  1  0  0  3  0  0  0  0  0  0
  185.8920  178.0060  145.5170 C   0  0  2  0  0  3  0  0  0  0  0  0
  184.8480  178.0820  146.6320 C   0  0  0  0  0  1  0  0  0  0  0  0
  189.0410  176.7130  146.7410 O   0  0  0  0  0  0  0  0  0  0  0  0
  188.1850  176.9710  145.6540 C   0  0  1  0  0  3  0  0  0  0  0  0
  187.3350  178.1760  146.0060 C   0  0  2  0  0  3  0  0  0  0  0  0
  187.4580  178.3040  147.4980 C   0  0  0  0  0  2  0  0  0  0  0  0
  188.3390  177.1360  147.8800 C   0  0  0  0  0  2  0  0  0  0  0  0
  188.9980  177.2520  144.3890 C   0  0  1  0  0  3  0  0  0  0  0  0
  192.3860  178.6080  144.7040 O   0  0  0  0  0  0  0  0  0  0  0  0
  190.4130  177.3780  144.7120 N   0  0  0  0  0  2  0  0  0  0  0  0
  190.5680  179.6290  143.6830 N   0  0  0  0  0  1  0  0  0  0  0  0
  191.1710  178.5430  144.3830 C   0  0  0  0  0  0  0  0  0  0  0  0
  188.8260  176.2160  143.4670 O   0  0  0  0  0  0  0  0  0  0  0  0
  190.0980  176.0000  142.9350 C   0  0  0  0  0  2  0  0  0  0  0  0
  190.1280  176.4520  141.4880 C   0  0  0  0  0  1  0  0  0  0  0  0
  1 29  1  1  0  0  0
  2  5  2  0  0  0  0
  3  6  2  0  0  0  0
  4  7  1  0  0  0  0
  4  5  1  0  0  0  0
  5  1  1  0  0  0  0
  6  4  1  0  0  0  0
  7  8  2  0  0  0  0
  8  1  1  0  0  0  0
  9 15  1  0  0  0  0
 10 18  1  1  0  0  0
 11 14  1  6  0  0  0
 11 10  1  0  0  0  0
 12 16  1  0  0  0  0
 13  6  1  1  0  0  0
 13 19  1  0  0  0  0
 13 18  1  0  0  0  0
 16 14  1  0  0  0  0
 16 15  1  0  0  0  0
 16 17  1  0  0  0  0
 19  9  1  6  0  0  0
 19 11  1  0  0  0  0
 20 15  1  0  0  0  0
 21 28  1  0  0  0  0
 22 25  1  0  0  0  0
 22 23  1  0  0  0  0
 22 21  1  1  0  0  0
 23 27  1  1  0  0  0
 25 10  1  6  0  0  0
 25 23  1  0  0  0  0
 26 24  1  1  0  0  0
 27 26  1  0  0  0  0
 28 26  1  0  0  0  0
 29 33  1  0  0  0  0
 30 29  1  0  0  0  0
 31 29  1  0  0  0  0
 33 32  1  1  0  0  0
 33 34  1  0  0  0  0
 34 35  1  1  0  0  0
 36 40  1  0  0  0  0
 37 41  1  6  0  0  0
 37 38  1  0  0  0  0
 37 36  1  0  0  0  0
 38 34  1  1  0  0  0
 38 39  1  0  0  0  0
 39 40  1  0  0  0  0
 41 46  1  6  0  0  0
 41 43  1  0  0  0  0
 44 45  1  0  0  0  0
 45 42  2  0  0  0  0
 45 43  1  0  0  0  0
 47 46  1  0  0  0  0
 48 47  1  0  0  0  0
M  END
>  <MODEL>
7

>  <REMARK>
 VINA RESULT:      -6.1      3.598      6.358
  Name = 
  10 active torsions:
  status: ('A' for Active; 'I' for Inactive)
    1  A    between atoms: C_1  and  C_7
    2  A    between atoms: C_4  and  C_27
    3  A    between atoms: C_4  and  C_33
    4  A    between atoms: C_5  and  N_30
    5  A    between atoms: C_7  and  C_33
    6  A    between atoms: C_10  and  C_34
    7  A    between atoms: C_16  and  C_41
    8  A    between atoms: O_20  and  C_22
    9  A    between atoms: O_20  and  C_41
   10  A    between atoms: N_24  and  C_41
                            x       y       z     vdW  Elec       q    Type
                         _______ _______ _______ _____ _____    ______ ____

>  <TORSDO>
F 10

$$$$
=
 OpenBabel11062412043D

 48 53  0  0  1  0  0  0  0  0999 V2000
  182.9820  178.9930  140.0120 C   0  0  2  0  0  3  0  0  0  0  0  0
  185.3370  179.4990  140.1630 O   0  0  0  0  0  0  0  0  0  0  0  0
  185.1490  177.8600  144.0590 O   0  0  0  0  0  0  0  0  0  0  0  0
  184.2350  178.5990  142.0450 N   0  0  0  0  0  0  0  0  0  0  0  0
  184.2920  179.0460  140.7010 C   0  0  0  0  0  0  0  0  0  0  0  0
  185.3500  178.3530  142.9150 C   0  0  0  0  0  0  0  0  0  0  0  0
  182.8620  178.2840  142.3900 C   0  0  0  0  0  3  0  0  0  0  0  0
  182.0200  178.6690  141.1660 C   0  0  0  0  0  3  0  0  0  0  0  0
  188.2210  177.9040  144.3610 C   0  0  0  0  0  2  0  0  0  0  0  0
  188.3250  178.2600  140.6740 C   0  0  2  0  0  3  0  0  0  0  0  0
  188.9090  177.6850  141.9610 C   0  0  1  0  0  3  0  0  0  0  0  0
  191.0850  179.3240  144.3410 C   0  0  0  0  0  1  0  0  0  0  0  0
  186.7510  178.6430  142.4660 C   0  0  2  0  0  3  0  0  0  0  0  0
  189.9150  178.5650  142.4300 O   0  0  0  0  0  0  0  0  0  0  0  0
  189.5580  177.3430  144.5020 N   0  0  0  0  0  0  0  0  0  0  0  0
  190.5140  178.0940  143.6370 C   0  0  0  0  0  0  0  0  0  0  0  0
  191.6800  177.1840  143.2850 C   0  0  0  0  0  1  0  0  0  0  0  0
  186.8650  178.5980  140.9580 C   0  0  0  0  0  2  0  0  0  0  0  0
  187.7440  177.6120  142.9480 C   0  0  2  0  0  3  0  0  0  0  0  0
  189.9150  177.3530  145.9180 C   0  0  0  0  0  1  0  0  0  0  0  0
  188.0050  177.2380  137.1500 C   0  0  0  0  0  2  0  0  0  0  0  0
  188.6230  178.0080  138.3410 C   0  0  2  0  0  3  0  0  0  0  0  0
  189.7840  177.4110  139.0430 C   0  0  1  0  0  3  0  0  0  0  0  0
  190.6150  174.1590  136.6850 Cl  0  0  0  0  0  0  0  0  0  0  0  0
  188.4230  177.2760  139.6030 N   0  0  1  0  0  0  0  0  0  0  0  0
  190.0000  175.7680  137.1270 C   0  0  2  0  0  3  0  0  0  0  0  0
  190.2740  176.0300  138.5930 C   0  0  0  0  0  2  0  0  0  0  0  0
  188.5030  175.8080  136.9390 C   0  0  0  0  0  2  0  0  0  0  0  0
  182.9500  177.9040  138.9150 C   0  0  0  0  0  0  0  0  0  0  0  0
  184.2290  177.4040  138.7270 F   0  0  0  0  0  0  0  0  0  0  0  0
  182.1280  176.8530  139.2970 F   0  0  0  0  0  0  0  0  0  0  0  0
  182.7220  177.5640  136.5330 O   0  0  0  0  0  1  0  0  0  0  0  0
  182.4860  178.4800  137.5660 C   0  0  1  0  0  3  0  0  0  0  0  0
  181.0320  178.9690  137.5430 C   0  0  2  0  0  3  0  0  0  0  0  0
  180.0170  177.8390  137.3630 C   0  0  0  0  0  1  0  0  0  0  0  0
  179.0230  181.3820  135.7450 O   0  0  0  0  0  0  0  0  0  0  0  0
  179.6850  181.0090  136.9300 C   0  0  1  0  0  3  0  0  0  0  0  0
  180.8560  180.1240  136.5510 C   0  0  2  0  0  3  0  0  0  0  0  0
  180.5540  179.6770  135.1480 C   0  0  0  0  0  2  0  0  0  0  0  0
  179.2140  180.3130  134.8560 C   0  0  0  0  0  2  0  0  0  0  0  0
  180.1820  182.2470  137.6770 C   0  0  1  0  0  3  0  0  0  0  0  0
  181.0400  185.3830  135.9910 O   0  0  0  0  0  0  0  0  0  0  0  0
  180.1060  183.4230  136.8200 N   0  0  0  0  0  2  0  0  0  0  0  0
  182.3050  184.2720  137.5890 N   0  0  0  0  0  1  0  0  0  0  0  0
  181.1480  184.3980  136.7660 C   0  0  0  0  0  0  0  0  0  0  0  0
  179.4080  182.4610  138.8220 O   0  0  0  0  0  0  0  0  0  0  0  0
  179.6470  181.3440  139.6240 C   0  0  0  0  0  2  0  0  0  0  0  0
  178.9310  181.5080  140.9500 C   0  0  0  0  0  1  0  0  0  0  0  0
  1 29  1  6  0  0  0
  1  5  1  0  0  0  0
  1  8  1  0  0  0  0
  2  5  2  0  0  0  0
  4  7  1  0  0  0  0
  4  6  1  0  0  0  0
  5  4  1  0  0  0  0
  6  3  2  0  0  0  0
  8  7  2  0  0  0  0
  9 15  1  0  0  0  0
 10 18  1  1  0  0  0
 10 11  1  0  0  0  0
 11 14  1  1  0  0  0
 11 19  1  0  0  0  0
 13  6  1  6  0  0  0
 13 19  1  0  0  0  0
 14 16  1  0  0  0  0
 15 20  1  0  0  0  0
 16 12  1  0  0  0  0
 16 15  1  0  0  0  0
 17 16  1  0  0  0  0
 18 13  1  0  0  0  0
 19  9  1  1  0  0  0
 22 21  1  6  0  0  0
 22 23  1  0  0  0  0
 22 25  1  0  0  0  0
 23 27  1  6  0  0  0
 23 25  1  0  0  0  0
 25 10  1  1  0  0  0
 26 24  1  1  0  0  0
 26 27  1  0  0  0  0
 28 26  1  0  0  0  0
 28 21  1  0  0  0  0
 29 31  1  0  0  0  0
 30 29  1  0  0  0  0
 33 32  1  6  0  0  0
 33 29  1  0  0  0  0
 34 35  1  6  0  0  0
 34 33  1  0  0  0  0
 36 37  1  0  0  0  0
 37 41  1  6  0  0  0
 38 37  1  0  0  0  0
 38 34  1  1  0  0  0
 39 38  1  0  0  0  0
 40 39  1  0  0  0  0
 40 36  1  0  0  0  0
 41 43  1  6  0  0  0
 41 46  1  0  0  0  0
 42 45  2  0  0  0  0
 45 43  1  0  0  0  0
 45 44  1  0  0  0  0
 46 47  1  0  0  0  0
 47 48  1  0  0  0  0
M  END
>  <MODEL>
8

>  <REMARK>
 VINA RESULT:      -6.1      3.311      9.912
  Name = 
  10 active torsions:
  status: ('A' for Active; 'I' for Inactive)
    1  A    between atoms: C_1  and  C_7
    2  A    between atoms: C_4  and  C_27
    3  A    between atoms: C_4  and  C_33
    4  A    between atoms: C_5  and  N_30
    5  A    between atoms: C_7  and  C_33
    6  A    between atoms: C_10  and  C_34
    7  A    between atoms: C_16  and  C_41
    8  A    between atoms: O_20  and  C_22
    9  A    between atoms: O_20  and  C_41
   10  A    between atoms: N_24  and  C_41
                            x       y       z     vdW  Elec       q    Type
                         _______ _______ _______ _____ _____    ______ ____

>  <TORSDO>
F 10

$$$$
=
 OpenBabel11062412043D

 48 53  0  0  1  0  0  0  0  0999 V2000
  187.9440  176.6500  135.8790 C   0  0  2  0  0  3  0  0  0  0  0  0
  186.4720  178.4960  136.3760 O   0  0  0  0  0  0  0  0  0  0  0  0
  183.8510  175.5980  137.9990 O   0  0  0  0  0  0  0  0  0  0  0  0
  185.7550  176.2980  136.8500 N   0  0  0  0  0  0  0  0  0  0  0  0
  186.6960  177.2570  136.3960 C   0  0  0  0  0  0  0  0  0  0  0  0
  184.5420  176.5620  137.5700 C   0  0  0  0  0  0  0  0  0  0  0  0
  186.2680  174.9650  136.6010 C   0  0  0  0  0  3  0  0  0  0  0  0
  187.5910  175.1540  135.8470 C   0  0  0  0  0  3  0  0  0  0  0  0
  181.7150  178.0850  137.0950 C   0  0  0  0  0  2  0  0  0  0  0  0
  183.9740  179.6460  139.5830 C   0  0  2  0  0  3  0  0  0  0  0  0
  182.5630  179.3610  139.0780 C   0  0  1  0  0  3  0  0  0  0  0  0
  180.7550  181.0650  136.4490 C   0  0  0  0  0  1  0  0  0  0  0  0
  184.1060  177.9700  137.8480 C   0  0  2  0  0  3  0  0  0  0  0  0
  182.1580  180.4330  138.2460 O   0  0  0  0  0  0  0  0  0  0  0  0
  180.5140  178.8030  137.5020 N   0  0  0  0  0  0  0  0  0  0  0  0
  180.8410  180.2410  137.7330 C   0  0  0  0  0  0  0  0  0  0  0  0
  179.8390  180.8210  138.7180 C   0  0  0  0  0  1  0  0  0  0  0  0
  184.8820  178.5680  139.0000 C   0  0  0  0  0  2  0  0  0  0  0  0
  182.6630  178.0590  138.2830 C   0  0  2  0  0  3  0  0  0  0  0  0
  179.4850  178.5900  136.4880 C   0  0  0  0  0  1  0  0  0  0  0  0
  182.7190  178.4340  142.8260 C   0  0  0  0  0  2  0  0  0  0  0  0
  183.4270  178.3110  141.4570 C   0  0  2  0  0  3  0  0  0  0  0  0
  184.8980  178.4880  141.4030 C   0  0  1  0  0  3  0  0  0  0  0  0
  185.8600  178.7570  145.3810 Cl  0  0  0  0  0  0  0  0  0  0  0  0
  183.9980  179.6020  141.0390 N   0  0  1  0  0  0  0  0  0  0  0  0
  184.9330  178.3130  143.9300 C   0  0  2  0  0  3  0  0  0  0  0  0
  185.6340  178.8480  142.6990 C   0  0  0  0  0  2  0  0  0  0  0  0
  183.5700  178.9580  143.9820 C   0  0  0  0  0  2  0  0  0  0  0  0
  189.1510  176.9340  136.8040 C   0  0  0  0  0  0  0  0  0  0  0  0
  189.4480  178.2870  136.7670 F   0  0  0  0  0  0  0  0  0  0  0  0
  188.8490  176.5940  138.1150 F   0  0  0  0  0  0  0  0  0  0  0  0
  191.2590  177.0400  135.6290 O   0  0  0  0  0  1  0  0  0  0  0  0
  190.4070  176.1820  136.3340 C   0  0  1  0  0  3  0  0  0  0  0  0
  191.1680  175.4470  137.4460 C   0  0  2  0  0  3  0  0  0  0  0  0
  192.1400  176.3480  138.2100 C   0  0  0  0  0  1  0  0  0  0  0  0
  192.4800  173.3680  134.7920 O   0  0  0  0  0  0  0  0  0  0  0  0
  192.6720  174.4250  135.7010 C   0  0  1  0  0  3  0  0  0  0  0  0
  191.8050  174.1570  136.9160 C   0  0  2  0  0  3  0  0  0  0  0  0
  190.8070  173.1350  136.4510 C   0  0  0  0  0  2  0  0  0  0  0  0
  191.1620  172.9310  134.9960 C   0  0  0  0  0  2  0  0  0  0  0  0
  194.1420  174.5150  136.1140 C   0  0  1  0  0  3  0  0  0  0  0  0
  195.3890  172.4610  138.8790 O   0  0  0  0  0  0  0  0  0  0  0  0
  194.5140  173.3600  136.9220 N   0  0  0  0  0  2  0  0  0  0  0  0
  195.3930  174.7790  138.7560 N   0  0  0  0  0  1  0  0  0  0  0  0
  195.1070  173.4910  138.2150 C   0  0  0  0  0  0  0  0  0  0  0  0
  194.9570  174.5650  134.9800 O   0  0  0  0  0  0  0  0  0  0  0  0
  194.9470  175.9070  134.5960 C   0  0  0  0  0  2  0  0  0  0  0  0
  194.9130  176.7890  135.8290 C   0  0  0  0  0  1  0  0  0  0  0  0
  1  5  1  0  0  0  0
  1 29  1  1  0  0  0
  2  5  2  0  0  0  0
  4  6  1  0  0  0  0
  5  4  1  0  0  0  0
  6  3  2  0  0  0  0
  7  4  1  0  0  0  0
  8  1  1  0  0  0  0
  8  7  2  0  0  0  0
  9 15  1  0  0  0  0
 10 18  1  6  0  0  0
 11 14  1  6  0  0  0
 11 10  1  0  0  0  0
 12 16  1  0  0  0  0
 13  6  1  1  0  0  0
 13 19  1  0  0  0  0
 13 18  1  0  0  0  0
 15 16  1  0  0  0  0
 16 14  1  0  0  0  0
 16 17  1  0  0  0  0
 19  9  1  6  0  0  0
 19 11  1  0  0  0  0
 20 15  1  0  0  0  0
 21 28  1  0  0  0  0
 22 21  1  1  0  0  0
 23 22  1  0  0  0  0
 23 27  1  1  0  0  0
 25 10  1  6  0  0  0
 25 23  1  0  0  0  0
 25 22  1  0  0  0  0
 26 28  1  0  0  0  0
 26 24  1  1  0  0  0
 27 26  1  0  0  0  0
 29 31  1  0  0  0  0
 30 29  1  0  0  0  0
 33 32  1  1  0  0  0
 33 29  1  0  0  0  0
 33 34  1  0  0  0  0
 34 35  1  6  0  0  0
 36 40  1  0  0  0  0
 36 37  1  0  0  0  0
 37 41  1  1  0  0  0
 37 38  1  0  0  0  0
 38 34  1  6  0  0  0
 39 38  1  0  0  0  0
 40 39  1  0  0  0  0
 41 46  1  6  0  0  0
 41 43  1  0  0  0  0
 43 45  1  0  0  0  0
 45 44  1  0  0  0  0
 45 42  2  0  0  0  0
 47 46  1  0  0  0  0
 47 48  1  0  0  0  0
M  END
>  <MODEL>
9

>  <REMARK>
 VINA RESULT:      -6.1      2.113      3.181
  Name = 
  10 active torsions:
  status: ('A' for Active; 'I' for Inactive)
    1  A    between atoms: C_1  and  C_7
    2  A    between atoms: C_4  and  C_27
    3  A    between atoms: C_4  and  C_33
    4  A    between atoms: C_5  and  N_30
    5  A    between atoms: C_7  and  C_33
    6  A    between atoms: C_10  and  C_34
    7  A    between atoms: C_16  and  C_41
    8  A    between atoms: O_20  and  C_22
    9  A    between atoms: O_20  and  C_41
   10  A    between atoms: N_24  and  C_41
                            x       y       z     vdW  Elec       q    Type
                         _______ _______ _______ _____ _____    ______ ____

>  <TORSDO>
F 10

$$$$
