=
 OpenBabel11062417253D

 45 48  0  0  1  0  0  0  0  0999 V2000
  189.3050  177.4830  142.1990 O   0  0  0  0  0  0  0  0  0  0  0  0
  190.4620  179.1340  143.4690 C   0  0  0  0  0  1  0  0  0  0  0  0
  189.5810  177.8800  143.5250 C   0  0  2  0  0  0  0  0  0  0  0  0
  190.1380  176.3880  141.8820 C   0  0  2  0  0  3  0  0  0  0  0  0
  190.2750  176.7050  144.2150 C   0  0  1  0  0  3  0  0  0  0  0  0
  190.9430  175.9800  143.0960 C   0  0  0  0  0  2  0  0  0  0  0  0
  187.0240  177.8030  143.4180 C   0  0  0  0  0  2  0  0  0  0  0  0
  186.0230  178.8480  143.5670 N   0  0  0  0  0  2  0  0  0  0  0  0
  185.9460  178.8470  146.0340 C   0  0  2  0  0  3  0  0  0  0  0  0
  186.8500  177.6440  146.3830 C   0  0  1  0  0  3  0  0  0  0  0  0
  185.0420  179.0790  147.0780 O   0  0  0  0  0  1  0  0  0  0  0  0
  185.1850  178.5520  144.7250 C   0  0  1  0  0  3  0  0  0  0  0  0
  188.2490  178.1840  144.2420 C   0  0  1  0  0  3  0  0  0  0  0  0
  188.2050  177.5770  145.6510 C   0  0  0  0  0  2  0  0  0  0  0  0
  183.3150  179.2070  143.2200 C   0  0  0  0  0  2  0  0  0  0  0  0
  182.7270  178.4340  144.3800 C   0  0  0  0  0  2  0  0  0  0  0  0
  183.9010  179.3680  144.6110 C   0  0  0  0  0  3  0  0  0  0  0  0
  187.0260  177.4560  147.8290 N   0  0  0  0  0  2  0  0  0  0  0  0
  188.4290  177.1810  148.1350 C   0  0  0  0  0  2  0  0  0  0  0  0
  189.0520  178.3960  148.7910 C   0  0  0  0  0  1  0  0  0  0  0  0
  191.2720  177.0780  145.3090 C   0  0  0  0  0  2  0  0  0  0  0  0
  191.9210  175.9600  147.2490 C   0  0  0  0  0  1  0  0  0  0  0  0
  191.9420  175.8860  145.8000 N   0  0  0  0  0  2  0  0  0  0  0  0
  191.0600  176.7650  140.7300 C   0  0  0  0  0  2  0  0  0  0  0  0
  190.3160  177.5220  139.6340 C   0  0  0  0  0  2  0  0  0  0  0  0
  190.5620  176.9280  138.2500 C   0  0  0  0  0  2  0  0  0  0  0  0
  189.4710  175.9410  137.8390 C   0  0  0  0  0  2  0  0  0  0  0  0
  188.5540  176.4410  136.7130 C   0  0  2  0  0  3  0  0  0  0  0  0
  187.0180  178.3170  137.4630 C   0  0  0  0  0  0  0  0  0  0  0  0
  187.8870  179.1800  137.1720 O   0  0  0  0  0  0  0  0  0  0  0  0
  187.2760  176.9310  137.2140 N   0  0  0  0  0  2  0  0  0  0  0  0
  185.7710  178.7460  138.0230 N   0  0  0  0  0  2  0  0  0  0  0  0
  184.2520  176.8710  137.6740 C   0  0  0  0  0  3  0  0  0  0  0  0
  184.1000  178.1080  139.7460 C   0  0  0  0  0  3  0  0  0  0  0  0
  183.2140  176.0340  138.0970 C   0  0  0  0  0  0  0  0  0  0  0  0
  183.0620  177.2740  140.1700 C   0  0  0  0  0  3  0  0  0  0  0  0
  181.6110  175.4310  139.7620 F   0  0  0  0  0  0  0  0  0  0  0  0
  182.7970  175.0230  137.2950 F   0  0  0  0  0  0  0  0  0  0  0  0
  182.6170  176.2370  139.3460 C   0  0  0  0  0  0  0  0  0  0  0  0
  184.7010  177.9140  138.4930 C   0  0  0  0  0  0  0  0  0  0  0  0
  188.3740  175.4280  135.5730 C   0  0  1  0  0  3  0  0  0  0  0  0
  189.6050  174.5410  135.3920 C   0  0  0  0  0  1  0  0  0  0  0  0
  187.1690  174.6220  135.7830 N   0  0  0  0  0  0  0  0  0  0  0  0
  187.2150  173.4920  136.5680 O   0  0  0  0  0  0  0  0  0  0  0  0
  186.1760  174.7990  135.0490 O   0  0  0  0  0  0  0  0  0  0  0  0
  1  3  1  0  0  0  0
  3  2  1  1  0  0  0
  3  5  1  0  0  0  0
  3 13  1  0  0  0  0
  4 24  1  6  0  0  0
  4  1  1  0  0  0  0
  4  6  1  0  0  0  0
  5 21  1  1  0  0  0
  6  5  1  0  0  0  0
  7  8  1  0  0  0  0
  8 12  1  0  0  0  0
  9 10  1  0  0  0  0
  9 11  1  1  0  0  0
 10 18  1  1  0  0  0
 12 17  1  6  0  0  0
 12  9  1  0  0  0  0
 13  7  1  6  0  0  0
 13 14  1  0  0  0  0
 14 10  1  0  0  0  0
 15 16  1  0  0  0  0
 15 17  1  0  0  0  0
 16 17  1  0  0  0  0
 18 19  1  0  0  0  0
 19 20  1  0  0  0  0
 21 23  1  0  0  0  0
 23 22  1  0  0  0  0
 25 24  1  0  0  0  0
 26 25  1  0  0  0  0
 27 26  1  0  0  0  0
 28 31  1  0  0  0  0
 28 27  1  1  0  0  0
 29 32  1  0  0  0  0
 30 29  2  0  0  0  0
 31 29  1  0  0  0  0
 32 40  1  0  0  0  0
 33 35  2  0  0  0  0
 33 40  1  0  0  0  0
 34 36  1  0  0  0  0
 35 39  1  0  0  0  0
 38 35  1  0  0  0  0
 39 37  1  0  0  0  0
 39 36  2  0  0  0  0
 40 34  2  0  0  0  0
 41 42  1  1  0  0  0
 41 43  1  0  0  0  0
 41 28  1  0  0  0  0
 43 44  2  0  0  0  0
 45 43  2  0  0  0  0
M  END
>  <MODEL>
1

>  <REMARK>
 VINA RESULT:      -7.9      0.000      0.000
  Name = 
  15 active torsions:
  status: ('A' for Active; 'I' for Inactive)
    1  A    between atoms: C_5  and  N_20
    2  A    between atoms: C_5  and  C_41
    3  A    between atoms: C_8  and  N_17
    4  A    between atoms: C_11  and  N_17
    5  A    between atoms: C_21  and  C_37
    6  A    between atoms: C_22  and  C_24
    7  A    between atoms: C_25  and  C_41
    8  A    between atoms: C_25  and  C_43
    9  A    between atoms: N_28  and  C_38
   10  A    between atoms: C_29  and  C_39
   11  A    between atoms: C_30  and  C_39
   12  A    between atoms: C_30  and  C_43
   13  A    between atoms: N_34  and  C_41
   14  A    between atoms: C_35  and  N_42
   15  A    between atoms: C_38  and  C_40
                            x       y       z     vdW  Elec       q    Type
                         _______ _______ _______ _____ _____    ______ ____

>  <TORSDO>
F 15

$$$$
=
 OpenBabel11062417253D

 45 48  0  0  1  0  0  0  0  0999 V2000
  187.4250  177.4970  137.5990 O   0  0  0  0  0  0  0  0  0  0  0  0
  188.8840  178.0860  135.8090 C   0  0  0  0  0  1  0  0  0  0  0  0
  188.6280  177.1140  136.9670 C   0  0  2  0  0  0  0  0  0  0  0  0
  186.4020  176.6210  137.1740 C   0  0  2  0  0  3  0  0  0  0  0  0
  188.4520  175.6700  136.4950 C   0  0  1  0  0  3  0  0  0  0  0  0
  186.9800  175.5430  136.2850 C   0  0  0  0  0  2  0  0  0  0  0  0
  189.3780  176.6620  139.3730 C   0  0  0  0  0  2  0  0  0  0  0  0
  189.9530  177.5390  140.3820 N   0  0  0  0  0  2  0  0  0  0  0  0
  192.2910  177.4090  139.6010 C   0  0  2  0  0  3  0  0  0  0  0  0
  192.2000  176.3390  138.4910 C   0  0  1  0  0  3  0  0  0  0  0  0
  193.5950  177.4550  140.1090 O   0  0  0  0  0  1  0  0  0  0  0  0
  191.2910  177.0680  140.7240 C   0  0  1  0  0  3  0  0  0  0  0  0
  189.7760  177.1820  137.9960 C   0  0  1  0  0  3  0  0  0  0  0  0
  191.0530  176.5090  137.4750 C   0  0  0  0  0  2  0  0  0  0  0  0
  190.4740  177.8040  142.9570 C   0  0  0  0  0  2  0  0  0  0  0  0
  191.4660  176.6820  143.1740 C   0  0  0  0  0  2  0  0  0  0  0  0
  191.6930  177.6880  142.0590 C   0  0  0  0  0  3  0  0  0  0  0  0
  193.4780  176.1110  137.8040 N   0  0  0  0  0  2  0  0  0  0  0  0
  193.2680  176.0350  136.3600 C   0  0  0  0  0  2  0  0  0  0  0  0
  194.5030  176.5370  135.6400 C   0  0  0  0  0  1  0  0  0  0  0  0
  189.2270  175.2890  135.2360 C   0  0  0  0  0  2  0  0  0  0  0  0
  189.8740  173.1470  135.8920 C   0  0  0  0  0  1  0  0  0  0  0  0
  189.0460  173.8770  134.9490 N   0  0  0  0  0  2  0  0  0  0  0  0
  185.3310  177.4090  136.4330 C   0  0  0  0  0  2  0  0  0  0  0  0
  183.9260  176.9650  136.8300 C   0  0  0  0  0  2  0  0  0  0  0  0
  183.9400  175.9350  137.9570 C   0  0  0  0  0  2  0  0  0  0  0  0
  182.8710  176.2150  139.0130 C   0  0  0  0  0  2  0  0  0  0  0  0
  182.6650  177.7040  139.3260 C   0  0  2  0  0  3  0  0  0  0  0  0
  184.5890  179.1630  140.1060 C   0  0  0  0  0  0  0  0  0  0  0  0
  184.6710  179.7070  138.9740 O   0  0  0  0  0  0  0  0  0  0  0  0
  183.5760  178.1850  140.3580 N   0  0  0  0  0  2  0  0  0  0  0  0
  185.5090  179.5550  141.1330 N   0  0  0  0  0  2  0  0  0  0  0  0
  186.5890  178.0020  142.6710 C   0  0  0  0  0  3  0  0  0  0  0  0
  184.8180  179.4160  143.5150 C   0  0  0  0  0  3  0  0  0  0  0  0
  186.7400  177.4320  143.9400 C   0  0  0  0  0  0  0  0  0  0  0  0
  184.9660  178.8470  144.7830 C   0  0  0  0  0  3  0  0  0  0  0  0
  186.0650  177.3070  146.2280 F   0  0  0  0  0  0  0  0  0  0  0  0
  187.6820  176.4780  144.1410 F   0  0  0  0  0  0  0  0  0  0  0  0
  185.9250  177.8540  144.9970 C   0  0  0  0  0  0  0  0  0  0  0  0
  185.6270  178.9950  142.4480 C   0  0  0  0  0  0  0  0  0  0  0  0
  181.2060  178.0690  139.6330 C   0  0  1  0  0  3  0  0  0  0  0  0
  180.5190  177.0140  140.4990 C   0  0  0  0  0  1  0  0  0  0  0  0
  181.1230  179.3940  140.2510 N   0  0  0  0  0  0  0  0  0  0  0  0
  180.8080  179.5230  141.5850 O   0  0  0  0  0  0  0  0  0  0  0  0
  181.0730  180.4090  139.5250 O   0  0  0  0  0  0  0  0  0  0  0  0
  3  2  1  6  0  0  0
  3  1  1  0  0  0  0
  3 13  1  0  0  0  0
  4 24  1  6  0  0  0
  4  1  1  0  0  0  0
  5 21  1  6  0  0  0
  5  3  1  0  0  0  0
  6  5  1  0  0  0  0
  6  4  1  0  0  0  0
  7  8  1  0  0  0  0
  8 12  1  0  0  0  0
  9 11  1  1  0  0  0
  9 12  1  0  0  0  0
 10 18  1  6  0  0  0
 10  9  1  0  0  0  0
 12 17  1  1  0  0  0
 13 14  1  6  0  0  0
 13  7  1  0  0  0  0
 14 10  1  0  0  0  0
 15 16  1  0  0  0  0
 17 15  1  0  0  0  0
 17 16  1  0  0  0  0
 19 18  1  0  0  0  0
 20 19  1  0  0  0  0
 23 21  1  0  0  0  0
 23 22  1  0  0  0  0
 24 25  1  0  0  0  0
 25 26  1  0  0  0  0
 26 27  1  0  0  0  0
 28 27  1  1  0  0  0
 28 41  1  0  0  0  0
 28 31  1  0  0  0  0
 29 31  1  0  0  0  0
 29 32  1  0  0  0  0
 30 29  2  0  0  0  0
 32 40  1  0  0  0  0
 33 35  1  0  0  0  0
 34 36  2  0  0  0  0
 35 38  1  0  0  0  0
 35 39  2  0  0  0  0
 36 39  1  0  0  0  0
 39 37  1  0  0  0  0
 40 33  2  0  0  0  0
 40 34  1  0  0  0  0
 41 43  1  0  0  0  0
 41 42  1  1  0  0  0
 43 44  2  0  0  0  0
 45 43  2  0  0  0  0
M  END
>  <MODEL>
2

>  <REMARK>
 VINA RESULT:      -7.7      3.256      8.148
  Name = 
  15 active torsions:
  status: ('A' for Active; 'I' for Inactive)
    1  A    between atoms: C_5  and  N_20
    2  A    between atoms: C_5  and  C_41
    3  A    between atoms: C_8  and  N_17
    4  A    between atoms: C_11  and  N_17
    5  A    between atoms: C_21  and  C_37
    6  A    between atoms: C_22  and  C_24
    7  A    between atoms: C_25  and  C_41
    8  A    between atoms: C_25  and  C_43
    9  A    between atoms: N_28  and  C_38
   10  A    between atoms: C_29  and  C_39
   11  A    between atoms: C_30  and  C_39
   12  A    between atoms: C_30  and  C_43
   13  A    between atoms: N_34  and  C_41
   14  A    between atoms: C_35  and  N_42
   15  A    between atoms: C_38  and  C_40
                            x       y       z     vdW  Elec       q    Type
                         _______ _______ _______ _____ _____    ______ ____

>  <TORSDO>
F 15

$$$$
=
 OpenBabel11062417253D

 45 48  0  0  1  0  0  0  0  0999 V2000
  186.7180  178.4830  138.8480 O   0  0  0  0  0  0  0  0  0  0  0  0
  187.9940  179.0430  136.9160 C   0  0  0  0  0  1  0  0  0  0  0  0
  187.7470  177.9990  138.0110 C   0  0  2  0  0  0  0  0  0  0  0  0
  185.5200  177.8160  138.5100 C   0  0  2  0  0  3  0  0  0  0  0  0
  187.2790  176.6570  137.4480 C   0  0  1  0  0  3  0  0  0  0  0  0
  185.7910  176.7680  137.4530 C   0  0  0  0  0  2  0  0  0  0  0  0
  188.7390  177.1530  140.2140 C   0  0  0  0  0  2  0  0  0  0  0  0
  189.5670  177.8120  141.2130 N   0  0  0  0  0  2  0  0  0  0  0  0
  191.7340  177.4800  140.0780 C   0  0  2  0  0  3  0  0  0  0  0  0
  191.3390  176.5800  138.8870 C   0  0  1  0  0  3  0  0  0  0  0  0
  193.0870  177.2910  140.3860 O   0  0  0  0  0  1  0  0  0  0  0  0
  190.8550  177.1320  141.2970 C   0  0  1  0  0  3  0  0  0  0  0  0
  189.0200  177.7870  138.8570 C   0  0  1  0  0  3  0  0  0  0  0  0
  190.1030  177.0250  138.0790 C   0  0  0  0  0  2  0  0  0  0  0  0
  190.4860  177.5250  143.7260 C   0  0  0  0  0  2  0  0  0  0  0  0
  191.4380  176.3560  143.5860 C   0  0  0  0  0  2  0  0  0  0  0  0
  191.5200  177.5210  142.6140 C   0  0  0  0  0  3  0  0  0  0  0  0
  192.4650  176.2770  137.9950 N   0  0  0  0  0  2  0  0  0  0  0  0
  191.9840  176.0560  136.6320 C   0  0  0  0  0  2  0  0  0  0  0  0
  192.6510  174.8260  136.0520 C   0  0  0  0  0  1  0  0  0  0  0  0
  187.8040  176.3050  136.0580 C   0  0  0  0  0  2  0  0  0  0  0  0
  186.9960  174.6090  134.6780 C   0  0  0  0  0  1  0  0  0  0  0  0
  186.7020  175.9350  135.1880 N   0  0  0  0  0  2  0  0  0  0  0  0
  184.4970  178.8280  138.0110 C   0  0  0  0  0  2  0  0  0  0  0  0
  184.0360  179.7630  139.1240 C   0  0  0  0  0  2  0  0  0  0  0  0
  182.5440  180.0730  139.0410 C   0  0  0  0  0  2  0  0  0  0  0  0
  181.7350  178.8940  138.5010 C   0  0  0  0  0  2  0  0  0  0  0  0
  181.1230  177.9960  139.5850 C   0  0  2  0  0  3  0  0  0  0  0  0
  181.0340  178.9940  141.9160 C   0  0  0  0  0  0  0  0  0  0  0  0
  179.8620  179.4110  141.7220 O   0  0  0  0  0  0  0  0  0  0  0  0
  181.7020  178.2400  140.9000 N   0  0  0  0  0  2  0  0  0  0  0  0
  181.6710  179.2690  143.1700 N   0  0  0  0  0  2  0  0  0  0  0  0
  183.3600  178.9640  144.9010 C   0  0  0  0  0  3  0  0  0  0  0  0
  184.0000  178.6290  142.5930 C   0  0  0  0  0  3  0  0  0  0  0  0
  184.6640  178.6580  145.3080 C   0  0  0  0  0  0  0  0  0  0  0  0
  185.3030  178.3240  142.9970 C   0  0  0  0  0  3  0  0  0  0  0  0
  186.9010  178.0430  144.7400 F   0  0  0  0  0  0  0  0  0  0  0  0
  184.9750  178.6640  146.6280 F   0  0  0  0  0  0  0  0  0  0  0  0
  185.6360  178.3400  144.3540 C   0  0  0  0  0  0  0  0  0  0  0  0
  183.0190  178.9540  143.5430 C   0  0  0  0  0  0  0  0  0  0  0  0
  181.1310  176.5040  139.2220 C   0  0  1  0  0  3  0  0  0  0  0  0
  182.4750  175.8450  139.5280 C   0  0  0  0  0  1  0  0  0  0  0  0
  180.0350  175.8020  139.8920 N   0  0  0  0  0  0  0  0  0  0  0  0
  178.9670  176.5050  140.4040 O   0  0  0  0  0  0  0  0  0  0  0  0
  180.1870  174.6120  140.2370 O   0  0  0  0  0  0  0  0  0  0  0  0
  3  2  1  6  0  0  0
  3  1  1  0  0  0  0
  3 13  1  0  0  0  0
  4 24  1  6  0  0  0
  4  1  1  0  0  0  0
  5 21  1  6  0  0  0
  5  6  1  0  0  0  0
  5  3  1  0  0  0  0
  6  4  1  0  0  0  0
  7  8  1  0  0  0  0
  8 12  1  0  0  0  0
  9 11  1  1  0  0  0
  9 12  1  0  0  0  0
 10 18  1  6  0  0  0
 10  9  1  0  0  0  0
 12 17  1  1  0  0  0
 13 14  1  6  0  0  0
 13  7  1  0  0  0  0
 14 10  1  0  0  0  0
 16 15  1  0  0  0  0
 17 16  1  0  0  0  0
 17 15  1  0  0  0  0
 19 18  1  0  0  0  0
 20 19  1  0  0  0  0
 22 23  1  0  0  0  0
 23 21  1  0  0  0  0
 24 25  1  0  0  0  0
 26 25  1  0  0  0  0
 27 26  1  0  0  0  0
 28 27  1  6  0  0  0
 28 31  1  0  0  0  0
 29 32  1  0  0  0  0
 30 29  2  0  0  0  0
 31 29  1  0  0  0  0
 32 40  1  0  0  0  0
 33 35  1  0  0  0  0
 34 36  2  0  0  0  0
 34 40  1  0  0  0  0
 35 38  1  0  0  0  0
 36 39  1  0  0  0  0
 39 37  1  0  0  0  0
 39 35  2  0  0  0  0
 40 33  2  0  0  0  0
 41 42  1  1  0  0  0
 41 28  1  0  0  0  0
 41 43  1  0  0  0  0
 43 45  2  0  0  0  0
 43 44  2  0  0  0  0
M  END
>  <MODEL>
3

>  <REMARK>
 VINA RESULT:      -7.3      3.561      8.220
  Name = 
  15 active torsions:
  status: ('A' for Active; 'I' for Inactive)
    1  A    between atoms: C_5  and  N_20
    2  A    between atoms: C_5  and  C_41
    3  A    between atoms: C_8  and  N_17
    4  A    between atoms: C_11  and  N_17
    5  A    between atoms: C_21  and  C_37
    6  A    between atoms: C_22  and  C_24
    7  A    between atoms: C_25  and  C_41
    8  A    between atoms: C_25  and  C_43
    9  A    between atoms: N_28  and  C_38
   10  A    between atoms: C_29  and  C_39
   11  A    between atoms: C_30  and  C_39
   12  A    between atoms: C_30  and  C_43
   13  A    between atoms: N_34  and  C_41
   14  A    between atoms: C_35  and  N_42
   15  A    between atoms: C_38  and  C_40
                            x       y       z     vdW  Elec       q    Type
                         _______ _______ _______ _____ _____    ______ ____

>  <TORSDO>
F 15

$$$$
=
 OpenBabel11062417253D

 45 48  0  0  1  0  0  0  0  0999 V2000
  183.4540  178.3300  140.4040 O   0  0  0  0  0  0  0  0  0  0  0  0
  183.1630  180.1690  138.9160 C   0  0  0  0  0  1  0  0  0  0  0  0
  183.1430  178.6420  139.0620 C   0  0  2  0  0  0  0  0  0  0  0  0
  182.2540  178.0030  141.0730 C   0  0  2  0  0  3  0  0  0  0  0  0
  181.7680  178.0420  138.7650 C   0  0  1  0  0  3  0  0  0  0  0  0
  181.0980  178.0100  140.0970 C   0  0  0  0  0  2  0  0  0  0  0  0
  185.6300  178.2570  138.5960 C   0  0  0  0  0  2  0  0  0  0  0  0
  186.4430  178.5350  137.4210 N   0  0  0  0  0  2  0  0  0  0  0  0
  185.8630  176.4960  136.1580 C   0  0  2  0  0  3  0  0  0  0  0  0
  185.0270  175.7060  137.1900 C   0  0  1  0  0  3  0  0  0  0  0  0
  186.4280  175.6120  135.2310 O   0  0  0  0  0  1  0  0  0  0  0  0
  186.9690  177.2820  136.8910 C   0  0  1  0  0  3  0  0  0  0  0  0
  184.1980  177.9950  138.1420 C   0  0  1  0  0  3  0  0  0  0  0  0
  183.9290  176.4990  137.9260 C   0  0  0  0  0  2  0  0  0  0  0  0
  189.1230  178.5130  136.6990 C   0  0  0  0  0  2  0  0  0  0  0  0
  189.4220  177.0350  136.5730 C   0  0  0  0  0  2  0  0  0  0  0  0
  188.1470  177.6030  135.9750 C   0  0  0  0  0  3  0  0  0  0  0  0
  184.4930  174.4460  136.6560 N   0  0  0  0  0  2  0  0  0  0  0  0
  184.7260  173.3580  137.6040 C   0  0  0  0  0  2  0  0  0  0  0  0
  184.0540  172.0960  137.1030 C   0  0  0  0  0  1  0  0  0  0  0  0
  180.9280  178.7960  137.7380 C   0  0  0  0  0  2  0  0  0  0  0  0
  179.3920  180.5430  137.8930 C   0  0  0  0  0  1  0  0  0  0  0  0
  179.6560  179.1820  138.3230 N   0  0  0  0  0  2  0  0  0  0  0  0
  182.0100  178.9990  142.1990 C   0  0  0  0  0  2  0  0  0  0  0  0
  182.4220  178.4330  143.5540 C   0  0  0  0  0  2  0  0  0  0  0  0
  183.0750  179.4840  144.4470 C   0  0  0  0  0  2  0  0  0  0  0  0
  184.5790  179.5990  144.2050 C   0  0  0  0  0  2  0  0  0  0  0  0
  185.3040  178.2520  144.0660 C   0  0  2  0  0  3  0  0  0  0  0  0
  186.0000  178.3640  146.5040 C   0  0  0  0  0  0  0  0  0  0  0  0
  184.8680  178.8050  146.8350 O   0  0  0  0  0  0  0  0  0  0  0  0
  186.2640  178.0270  145.1390 N   0  0  0  0  0  2  0  0  0  0  0  0
  187.0000  178.1900  147.5160 N   0  0  0  0  0  2  0  0  0  0  0  0
  188.7390  177.2610  146.0810 C   0  0  0  0  0  3  0  0  0  0  0  0
  189.3260  177.9030  148.3370 C   0  0  0  0  0  3  0  0  0  0  0  0
  190.0580  176.8570  145.8510 C   0  0  0  0  0  0  0  0  0  0  0  0
  190.6450  177.4990  148.1110 C   0  0  0  0  0  3  0  0  0  0  0  0
  192.2910  176.5850  146.6530 F   0  0  0  0  0  0  0  0  0  0  0  0
  190.4080  176.3610  144.6390 F   0  0  0  0  0  0  0  0  0  0  0  0
  191.0120  176.9750  146.8690 C   0  0  0  0  0  0  0  0  0  0  0  0
  188.3620  177.7840  147.3240 C   0  0  0  0  0  0  0  0  0  0  0  0
  185.9270  178.0310  142.6810 C   0  0  1  0  0  3  0  0  0  0  0  0
  185.8970  179.2980  141.8270 C   0  0  0  0  0  1  0  0  0  0  0  0
  187.2910  177.5110  142.8040 N   0  0  0  0  0  0  0  0  0  0  0  0
  188.3650  178.2680  142.3950 O   0  0  0  0  0  0  0  0  0  0  0  0
  187.4670  176.2950  143.0250 O   0  0  0  0  0  0  0  0  0  0  0  0
  1  4  1  0  0  0  0
  3  2  1  6  0  0  0
  3  1  1  0  0  0  0
  4 24  1  1  0  0  0
  5 21  1  6  0  0  0
  5  3  1  0  0  0  0
  5  6  1  0  0  0  0
  6  4  1  0  0  0  0
  8  7  1  0  0  0  0
  9 11  1  6  0  0  0
  9 12  1  0  0  0  0
  9 10  1  0  0  0  0
 10 18  1  6  0  0  0
 10 14  1  0  0  0  0
 12 17  1  6  0  0  0
 12  8  1  0  0  0  0
 13 14  1  1  0  0  0
 13  7  1  0  0  0  0
 13  3  1  0  0  0  0
 16 15  1  0  0  0  0
 17 16  1  0  0  0  0
 17 15  1  0  0  0  0
 18 19  1  0  0  0  0
 20 19  1  0  0  0  0
 21 23  1  0  0  0  0
 22 23  1  0  0  0  0
 24 25  1  0  0  0  0
 25 26  1  0  0  0  0
 27 26  1  0  0  0  0
 28 27  1  6  0  0  0
 28 31  1  0  0  0  0
 29 30  2  0  0  0  0
 29 32  1  0  0  0  0
 31 29  1  0  0  0  0
 33 40  1  0  0  0  0
 35 33  2  0  0  0  0
 35 39  1  0  0  0  0
 36 34  1  0  0  0  0
 37 39  1  0  0  0  0
 38 35  1  0  0  0  0
 39 36  2  0  0  0  0
 40 32  1  0  0  0  0
 40 34  2  0  0  0  0
 41 42  1  1  0  0  0
 41 43  1  0  0  0  0
 41 28  1  0  0  0  0
 43 45  2  0  0  0  0
 44 43  2  0  0  0  0
M  END
>  <MODEL>
4

>  <REMARK>
 VINA RESULT:      -6.8      3.286      9.971
  Name = 
  15 active torsions:
  status: ('A' for Active; 'I' for Inactive)
    1  A    between atoms: C_5  and  N_20
    2  A    between atoms: C_5  and  C_41
    3  A    between atoms: C_8  and  N_17
    4  A    between atoms: C_11  and  N_17
    5  A    between atoms: C_21  and  C_37
    6  A    between atoms: C_22  and  C_24
    7  A    between atoms: C_25  and  C_41
    8  A    between atoms: C_25  and  C_43
    9  A    between atoms: N_28  and  C_38
   10  A    between atoms: C_29  and  C_39
   11  A    between atoms: C_30  and  C_39
   12  A    between atoms: C_30  and  C_43
   13  A    between atoms: N_34  and  C_41
   14  A    between atoms: C_35  and  N_42
   15  A    between atoms: C_38  and  C_40
                            x       y       z     vdW  Elec       q    Type
                         _______ _______ _______ _____ _____    ______ ____

>  <TORSDO>
F 15

$$$$
=
 OpenBabel11062417253D

 45 48  0  0  1  0  0  0  0  0999 V2000
  183.4960  176.1100  138.2310 O   0  0  0  0  0  0  0  0  0  0  0  0
  181.3640  175.1770  137.7220 C   0  0  0  0  0  1  0  0  0  0  0  0
  182.2280  176.4440  137.7090 C   0  0  2  0  0  0  0  0  0  0  0  0
  184.3980  175.9750  137.1520 C   0  0  2  0  0  3  0  0  0  0  0  0
  182.4480  176.9900  136.2980 C   0  0  1  0  0  3  0  0  0  0  0  0
  183.7090  176.3290  135.8530 C   0  0  0  0  0  2  0  0  0  0  0  0
  181.8260  177.3140  140.0830 C   0  0  0  0  0  2  0  0  0  0  0  0
  180.5990  177.6380  140.7950 N   0  0  0  0  0  2  0  0  0  0  0  0
  180.3120  179.9140  139.8840 C   0  0  2  0  0  3  0  0  0  0  0  0
  181.6190  180.1070  139.0840 C   0  0  1  0  0  3  0  0  0  0  0  0
  179.7980  181.1620  140.2580 O   0  0  0  0  0  1  0  0  0  0  0  0
  180.5990  179.0580  141.1340 C   0  0  1  0  0  3  0  0  0  0  0  0
  181.5970  177.5400  138.5930 C   0  0  1  0  0  3  0  0  0  0  0  0
  182.0250  178.9470  138.1530 C   0  0  0  0  0  2  0  0  0  0  0  0
  179.8920  178.4050  143.4290 C   0  0  0  0  0  2  0  0  0  0  0  0
  180.2600  179.8720  143.4580 C   0  0  0  0  0  2  0  0  0  0  0  0
  179.5710  179.2890  142.2360 C   0  0  0  0  0  3  0  0  0  0  0  0
  181.6770  181.3920  138.3740 N   0  0  0  0  0  2  0  0  0  0  0  0
  181.0010  181.2850  137.0820 C   0  0  0  0  0  2  0  0  0  0  0  0
  180.3610  182.6130  136.7330 C   0  0  0  0  0  1  0  0  0  0  0  0
  181.3110  176.7400  135.3100 C   0  0  0  0  0  2  0  0  0  0  0  0
  179.5370  178.2460  135.4600 C   0  0  0  0  0  1  0  0  0  0  0  0
  180.8070  178.0040  134.8000 N   0  0  0  0  0  2  0  0  0  0  0  0
  184.9270  174.5480  137.1060 C   0  0  0  0  0  2  0  0  0  0  0  0
  186.3630  174.4940  136.5940 C   0  0  0  0  0  2  0  0  0  0  0  0
  187.2960  175.4090  137.3830 C   0  0  0  0  0  2  0  0  0  0  0  0
  188.7100  175.4340  136.8060 C   0  0  0  0  0  2  0  0  0  0  0  0
  189.5360  176.6660  137.2030 C   0  0  2  0  0  3  0  0  0  0  0  0
  190.6020  176.9610  139.4870 C   0  0  0  0  0  0  0  0  0  0  0  0
  191.7520  176.7970  139.0010 O   0  0  0  0  0  0  0  0  0  0  0  0
  189.4560  176.9500  138.6310 N   0  0  0  0  0  2  0  0  0  0  0  0
  190.4680  177.1760  140.8980 N   0  0  0  0  0  2  0  0  0  0  0  0
  188.3360  178.2950  141.2790 C   0  0  0  0  0  3  0  0  0  0  0  0
  188.9400  176.4430  142.7130 C   0  0  0  0  0  3  0  0  0  0  0  0
  187.1330  178.4440  141.9770 C   0  0  0  0  0  0  0  0  0  0  0  0
  187.7390  176.5910  143.4120 C   0  0  0  0  0  3  0  0  0  0  0  0
  185.6720  177.7310  143.7270 F   0  0  0  0  0  0  0  0  0  0  0  0
  186.2560  179.4110  141.6070 F   0  0  0  0  0  0  0  0  0  0  0  0
  186.8350  177.5920  143.0460 C   0  0  0  0  0  0  0  0  0  0  0  0
  189.2490  177.2970  141.6420 C   0  0  0  0  0  0  0  0  0  0  0  0
  189.2320  177.9080  136.3520 C   0  0  1  0  0  3  0  0  0  0  0  0
  188.5450  177.5480  135.0350 C   0  0  0  0  0  1  0  0  0  0  0  0
  188.4400  178.8760  137.1130 N   0  0  0  0  0  0  0  0  0  0  0  0
  187.0650  178.8200  137.0930 O   0  0  0  0  0  0  0  0  0  0  0  0
  188.9900  179.9040  137.5600 O   0  0  0  0  0  0  0  0  0  0  0  0
  3  2  1  6  0  0  0
  3  1  1  0  0  0  0
  3 13  1  0  0  0  0
  4 24  1  6  0  0  0
  4  1  1  0  0  0  0
  5 21  1  6  0  0  0
  5  3  1  0  0  0  0
  6  5  1  0  0  0  0
  6  4  1  0  0  0  0
  7  8  1  0  0  0  0
  8 12  1  0  0  0  0
  9 11  1  1  0  0  0
  9 12  1  0  0  0  0
 10 18  1  6  0  0  0
 10  9  1  0  0  0  0
 12 17  1  1  0  0  0
 13 14  1  6  0  0  0
 13  7  1  0  0  0  0
 14 10  1  0  0  0  0
 15 16  1  0  0  0  0
 17 15  1  0  0  0  0
 17 16  1  0  0  0  0
 19 18  1  0  0  0  0
 20 19  1  0  0  0  0
 23 21  1  0  0  0  0
 23 22  1  0  0  0  0
 25 24  1  0  0  0  0
 25 26  1  0  0  0  0
 27 26  1  0  0  0  0
 28 27  1  6  0  0  0
 28 31  1  0  0  0  0
 29 32  1  0  0  0  0
 30 29  2  0  0  0  0
 31 29  1  0  0  0  0
 32 40  1  0  0  0  0
 33 40  2  0  0  0  0
 33 35  1  0  0  0  0
 34 36  2  0  0  0  0
 35 39  2  0  0  0  0
 38 35  1  0  0  0  0
 39 36  1  0  0  0  0
 39 37  1  0  0  0  0
 40 34  1  0  0  0  0
 41 42  1  6  0  0  0
 41 43  1  0  0  0  0
 41 28  1  0  0  0  0
 43 45  2  0  0  0  0
 44 43  2  0  0  0  0
M  END
>  <MODEL>
5

>  <REMARK>
 VINA RESULT:      -6.6      3.658      8.192
  Name = 
  15 active torsions:
  status: ('A' for Active; 'I' for Inactive)
    1  A    between atoms: C_5  and  N_20
    2  A    between atoms: C_5  and  C_41
    3  A    between atoms: C_8  and  N_17
    4  A    between atoms: C_11  and  N_17
    5  A    between atoms: C_21  and  C_37
    6  A    between atoms: C_22  and  C_24
    7  A    between atoms: C_25  and  C_41
    8  A    between atoms: C_25  and  C_43
    9  A    between atoms: N_28  and  C_38
   10  A    between atoms: C_29  and  C_39
   11  A    between atoms: C_30  and  C_39
   12  A    between atoms: C_30  and  C_43
   13  A    between atoms: N_34  and  C_41
   14  A    between atoms: C_35  and  N_42
   15  A    between atoms: C_38  and  C_40
                            x       y       z     vdW  Elec       q    Type
                         _______ _______ _______ _____ _____    ______ ____

>  <TORSDO>
F 15

$$$$
=
 OpenBabel11062417253D

 45 48  0  0  1  0  0  0  0  0999 V2000
  187.2900  177.8710  138.0160 O   0  0  0  0  0  0  0  0  0  0  0  0
  189.4670  178.7320  138.4600 C   0  0  0  0  0  1  0  0  0  0  0  0
  188.4640  177.6100  138.7550 C   0  0  2  0  0  0  0  0  0  0  0  0
  187.2820  177.0270  136.8830 C   0  0  2  0  0  3  0  0  0  0  0  0
  188.9760  176.2360  138.3220 C   0  0  1  0  0  3  0  0  0  0  0  0
  188.4700  176.0920  136.9260 C   0  0  0  0  0  2  0  0  0  0  0  0
  189.2900  177.9290  141.1580 C   0  0  0  0  0  2  0  0  0  0  0  0
  189.2770  177.0360  142.3060 N   0  0  0  0  0  2  0  0  0  0  0  0
  186.9560  177.4880  143.0150 C   0  0  2  0  0  3  0  0  0  0  0  0
  186.5470  178.6350  142.0650 C   0  0  1  0  0  3  0  0  0  0  0  0
  186.1830  177.5420  144.1820 O   0  0  0  0  0  1  0  0  0  0  0  0
  188.4540  177.6200  143.3610 C   0  0  1  0  0  3  0  0  0  0  0  0
  188.1110  177.5780  140.2570 C   0  0  1  0  0  3  0  0  0  0  0  0
  186.8740  178.4300  140.5720 C   0  0  0  0  0  2  0  0  0  0  0  0
  190.3020  176.9880  144.9020 C   0  0  0  0  0  2  0  0  0  0  0  0
  189.3950  177.9500  145.6380 C   0  0  0  0  0  2  0  0  0  0  0  0
  188.8010  176.9330  144.6780 C   0  0  0  0  0  3  0  0  0  0  0  0
  185.1530  179.0600  142.2410 N   0  0  0  0  0  2  0  0  0  0  0  0
  184.2730  178.2820  141.3710 C   0  0  0  0  0  2  0  0  0  0  0  0
  182.8290  178.6250  141.6710 C   0  0  0  0  0  1  0  0  0  0  0  0
  190.4900  176.0460  138.3870 C   0  0  0  0  0  2  0  0  0  0  0  0
  192.2310  174.7420  137.5480 C   0  0  0  0  0  1  0  0  0  0  0  0
  190.8410  174.7020  137.9640 N   0  0  0  0  0  2  0  0  0  0  0  0
  187.3110  177.8720  135.6170 C   0  0  0  0  0  2  0  0  0  0  0  0
  186.1520  177.5340  134.6850 C   0  0  0  0  0  2  0  0  0  0  0  0
  184.8290  177.3920  135.4320 C   0  0  0  0  0  2  0  0  0  0  0  0
  184.1690  176.0350  135.1920 C   0  0  0  0  0  2  0  0  0  0  0  0
  183.1400  175.6330  136.2580 C   0  0  2  0  0  3  0  0  0  0  0  0
  180.7910  176.5920  136.3380 C   0  0  0  0  0  0  0  0  0  0  0  0
  180.3030  175.4990  135.9480 O   0  0  0  0  0  0  0  0  0  0  0  0
  182.2000  176.7090  136.5550 N   0  0  0  0  0  2  0  0  0  0  0  0
  179.9130  177.7000  136.5780 N   0  0  0  0  0  2  0  0  0  0  0  0
  180.4530  179.9860  135.9250 C   0  0  0  0  0  3  0  0  0  0  0  0
  180.4790  179.4210  138.2760 C   0  0  0  0  0  3  0  0  0  0  0  0
  180.8120  181.3020  136.2360 C   0  0  0  0  0  0  0  0  0  0  0  0
  180.8390  180.7350  138.5900 C   0  0  0  0  0  3  0  0  0  0  0  0
  181.3560  182.9480  137.8790 F   0  0  0  0  0  0  0  0  0  0  0  0
  180.9610  182.2110  135.2410 F   0  0  0  0  0  0  0  0  0  0  0  0
  181.0070  181.6760  137.5700 C   0  0  0  0  0  0  0  0  0  0  0  0
  180.2860  179.0360  136.9410 C   0  0  0  0  0  0  0  0  0  0  0  0
  183.7700  175.0530  137.5320 C   0  0  1  0  0  3  0  0  0  0  0  0
  183.0560  175.5330  138.7960 C   0  0  0  0  0  1  0  0  0  0  0  0
  183.8080  173.5910  137.4710 N   0  0  0  0  0  0  0  0  0  0  0  0
  182.6660  172.8750  137.1890 O   0  0  0  0  0  0  0  0  0  0  0  0
  184.7970  172.9820  137.9310 O   0  0  0  0  0  0  0  0  0  0  0  0
  1  3  1  0  0  0  0
  3  2  1  6  0  0  0
  3 13  1  0  0  0  0
  4 24  1  6  0  0  0
  4  6  1  0  0  0  0
  4  1  1  0  0  0  0
  5 21  1  6  0  0  0
  5  3  1  0  0  0  0
  6  5  1  0  0  0  0
  7  8  1  0  0  0  0
  8 12  1  0  0  0  0
  9 12  1  0  0  0  0
  9 11  1  1  0  0  0
 10 18  1  6  0  0  0
 10  9  1  0  0  0  0
 12 17  1  1  0  0  0
 13 14  1  6  0  0  0
 13  7  1  0  0  0  0
 14 10  1  0  0  0  0
 15 16  1  0  0  0  0
 17 15  1  0  0  0  0
 17 16  1  0  0  0  0
 19 20  1  0  0  0  0
 19 18  1  0  0  0  0
 22 23  1  0  0  0  0
 23 21  1  0  0  0  0
 25 26  1  0  0  0  0
 25 24  1  0  0  0  0
 27 26  1  0  0  0  0
 28 27  1  6  0  0  0
 28 31  1  0  0  0  0
 28 41  1  0  0  0  0
 29 31  1  0  0  0  0
 29 32  1  0  0  0  0
 30 29  2  0  0  0  0
 32 40  1  0  0  0  0
 33 35  2  0  0  0  0
 33 40  1  0  0  0  0
 34 36  1  0  0  0  0
 35 39  1  0  0  0  0
 38 35  1  0  0  0  0
 39 37  1  0  0  0  0
 39 36  2  0  0  0  0
 40 34  2  0  0  0  0
 41 42  1  1  0  0  0
 43 41  1  0  0  0  0
 43 45  2  0  0  0  0
 44 43  2  0  0  0  0
M  END
>  <MODEL>
6

>  <REMARK>
 VINA RESULT:      -6.6      3.451      6.009
  Name = 
  15 active torsions:
  status: ('A' for Active; 'I' for Inactive)
    1  A    between atoms: C_5  and  N_20
    2  A    between atoms: C_5  and  C_41
    3  A    between atoms: C_8  and  N_17
    4  A    between atoms: C_11  and  N_17
    5  A    between atoms: C_21  and  C_37
    6  A    between atoms: C_22  and  C_24
    7  A    between atoms: C_25  and  C_41
    8  A    between atoms: C_25  and  C_43
    9  A    between atoms: N_28  and  C_38
   10  A    between atoms: C_29  and  C_39
   11  A    between atoms: C_30  and  C_39
   12  A    between atoms: C_30  and  C_43
   13  A    between atoms: N_34  and  C_41
   14  A    between atoms: C_35  and  N_42
   15  A    between atoms: C_38  and  C_40
                            x       y       z     vdW  Elec       q    Type
                         _______ _______ _______ _____ _____    ______ ____

>  <TORSDO>
F 15

$$$$
=
 OpenBabel11062417253D

 45 48  0  0  1  0  0  0  0  0999 V2000
  187.0960  177.8110  138.3730 O   0  0  0  0  0  0  0  0  0  0  0  0
  189.1420  178.9980  138.6580 C   0  0  0  0  0  1  0  0  0  0  0  0
  188.3710  177.7100  138.9710 C   0  0  2  0  0  0  0  0  0  0  0  0
  187.0980  177.0400  137.1900 C   0  0  2  0  0  3  0  0  0  0  0  0
  189.0460  176.4660  138.3920 C   0  0  1  0  0  3  0  0  0  0  0  0
  188.4180  176.3150  137.0470 C   0  0  0  0  0  2  0  0  0  0  0  0
  189.3480  178.1290  141.3000 C   0  0  0  0  0  2  0  0  0  0  0  0
  189.6660  177.2170  142.3880 N   0  0  0  0  0  2  0  0  0  0  0  0
  187.3920  177.0720  143.3380 C   0  0  2  0  0  3  0  0  0  0  0  0
  186.6270  178.1220  142.5020 C   0  0  1  0  0  3  0  0  0  0  0  0
  186.7550  176.8960  144.5730 O   0  0  0  0  0  1  0  0  0  0  0  0
  188.8440  177.5460  143.5490 C   0  0  1  0  0  3  0  0  0  0  0  0
  188.1960  177.5390  140.4940 C   0  0  1  0  0  3  0  0  0  0  0  0
  186.8330  178.0560  140.9750 C   0  0  0  0  0  2  0  0  0  0  0  0
  190.8860  177.4580  144.9690 C   0  0  0  0  0  2  0  0  0  0  0  0
  189.7540  177.9910  145.8190 C   0  0  0  0  0  2  0  0  0  0  0  0
  189.4810  176.9150  144.7830 C   0  0  0  0  0  3  0  0  0  0  0  0
  185.1980  178.1940  142.8340 N   0  0  0  0  0  2  0  0  0  0  0  0
  184.8740  179.5060  143.3900 C   0  0  0  0  0  2  0  0  0  0  0  0
  184.2570  179.3370  144.7620 C   0  0  0  0  0  1  0  0  0  0  0  0
  190.5680  176.5280  138.2910 C   0  0  0  0  0  2  0  0  0  0  0  0
  192.2210  175.0220  137.6330 C   0  0  0  0  0  1  0  0  0  0  0  0
  191.0260  175.7110  137.1810 N   0  0  0  0  0  2  0  0  0  0  0  0
  186.8510  177.9450  135.9910 C   0  0  0  0  0  2  0  0  0  0  0  0
  186.5550  177.1420  134.7280 C   0  0  0  0  0  2  0  0  0  0  0  0
  185.1000  176.6850  134.6590 C   0  0  0  0  0  2  0  0  0  0  0  0
  184.9720  175.1640  134.5940 C   0  0  0  0  0  2  0  0  0  0  0  0
  184.5010  174.5110  135.9010 C   0  0  2  0  0  3  0  0  0  0  0  0
  182.4850  175.0410  137.3480 C   0  0  0  0  0  0  0  0  0  0  0  0
  182.0790  173.8520  137.2650 O   0  0  0  0  0  0  0  0  0  0  0  0
  183.7140  175.4220  136.7240 N   0  0  0  0  0  2  0  0  0  0  0  0
  181.7090  175.9900  138.0900 N   0  0  0  0  0  2  0  0  0  0  0  0
  182.9610  177.8160  139.1110 C   0  0  0  0  0  3  0  0  0  0  0  0
  181.2420  178.3560  137.4980 C   0  0  0  0  0  3  0  0  0  0  0  0
  183.2410  179.1770  139.2700 C   0  0  0  0  0  0  0  0  0  0  0  0
  181.5190  179.7170  137.6560 C   0  0  0  0  0  3  0  0  0  0  0  0
  182.7820  181.4490  138.6930 F   0  0  0  0  0  0  0  0  0  0  0  0
  184.2190  179.5670  140.1240 F   0  0  0  0  0  0  0  0  0  0  0  0
  182.5170  180.1290  138.5430 C   0  0  0  0  0  0  0  0  0  0  0  0
  181.9600  177.3950  138.2270 C   0  0  0  0  0  0  0  0  0  0  0  0
  185.6330  173.8480  136.6990 C   0  0  1  0  0  3  0  0  0  0  0  0
  185.1020  172.9930  137.8480 C   0  0  0  0  0  1  0  0  0  0  0  0
  186.5000  173.0660  135.8160 N   0  0  0  0  0  0  0  0  0  0  0  0
  186.0560  171.8800  135.2750 O   0  0  0  0  0  0  0  0  0  0  0  0
  187.7200  173.3260  135.7640 O   0  0  0  0  0  0  0  0  0  0  0  0
  1  3  1  0  0  0  0
  3  2  1  6  0  0  0
  3 13  1  0  0  0  0
  4 24  1  6  0  0  0
  4  1  1  0  0  0  0
  5 21  1  6  0  0  0
  5  3  1  0  0  0  0
  6  4  1  0  0  0  0
  6  5  1  0  0  0  0
  7  8  1  0  0  0  0
  8 12  1  0  0  0  0
  9 12  1  0  0  0  0
  9 11  1  1  0  0  0
 10 18  1  6  0  0  0
 10  9  1  0  0  0  0
 12 17  1  1  0  0  0
 13 14  1  1  0  0  0
 13  7  1  0  0  0  0
 14 10  1  0  0  0  0
 15 16  1  0  0  0  0
 17 15  1  0  0  0  0
 17 16  1  0  0  0  0
 18 19  1  0  0  0  0
 19 20  1  0  0  0  0
 23 22  1  0  0  0  0
 23 21  1  0  0  0  0
 25 24  1  0  0  0  0
 26 25  1  0  0  0  0
 27 26  1  0  0  0  0
 28 27  1  6  0  0  0
 28 41  1  0  0  0  0
 28 31  1  0  0  0  0
 29 32  1  0  0  0  0
 30 29  2  0  0  0  0
 31 29  1  0  0  0  0
 32 40  1  0  0  0  0
 33 35  1  0  0  0  0
 34 36  2  0  0  0  0
 34 40  1  0  0  0  0
 35 38  1  0  0  0  0
 36 39  1  0  0  0  0
 39 37  1  0  0  0  0
 39 35  2  0  0  0  0
 40 33  2  0  0  0  0
 41 42  1  1  0  0  0
 43 41  1  0  0  0  0
 44 43  2  0  0  0  0
 45 43  2  0  0  0  0
M  END
>  <MODEL>
7

>  <REMARK>
 VINA RESULT:      -6.6      2.710      5.331
  Name = 
  15 active torsions:
  status: ('A' for Active; 'I' for Inactive)
    1  A    between atoms: C_5  and  N_20
    2  A    between atoms: C_5  and  C_41
    3  A    between atoms: C_8  and  N_17
    4  A    between atoms: C_11  and  N_17
    5  A    between atoms: C_21  and  C_37
    6  A    between atoms: C_22  and  C_24
    7  A    between atoms: C_25  and  C_41
    8  A    between atoms: C_25  and  C_43
    9  A    between atoms: N_28  and  C_38
   10  A    between atoms: C_29  and  C_39
   11  A    between atoms: C_30  and  C_39
   12  A    between atoms: C_30  and  C_43
   13  A    between atoms: N_34  and  C_41
   14  A    between atoms: C_35  and  N_42
   15  A    between atoms: C_38  and  C_40
                            x       y       z     vdW  Elec       q    Type
                         _______ _______ _______ _____ _____    ______ ____

>  <TORSDO>
F 15

$$$$
=
 OpenBabel11062417253D

 45 48  0  0  1  0  0  0  0  0999 V2000
  183.7120  177.4820  140.8940 O   0  0  0  0  0  0  0  0  0  0  0  0
  183.2960  179.2060  139.3020 C   0  0  0  0  0  1  0  0  0  0  0  0
  182.6800  178.0760  140.1360 C   0  0  2  0  0  0  0  0  0  0  0  0
  183.6200  177.9600  142.2190 C   0  0  2  0  0  3  0  0  0  0  0  0
  181.6260  178.5810  141.1220 C   0  0  1  0  0  3  0  0  0  0  0  0
  182.4040  178.8470  142.3670 C   0  0  0  0  0  2  0  0  0  0  0  0
  183.0830  176.0420  138.6330 C   0  0  0  0  0  2  0  0  0  0  0  0
  182.7420  175.7920  137.2410 N   0  0  0  0  0  2  0  0  0  0  0  0
  180.4090  175.0820  137.6220 C   0  0  2  0  0  3  0  0  0  0  0  0
  180.3350  175.0370  139.1640 C   0  0  1  0  0  3  0  0  0  0  0  0
  179.4470  174.2220  137.0760 O   0  0  0  0  0  1  0  0  0  0  0  0
  181.8210  174.6620  137.1650 C   0  0  1  0  0  3  0  0  0  0  0  0
  182.0540  177.0040  139.2180 C   0  0  1  0  0  3  0  0  0  0  0  0
  180.9010  176.2620  139.9080 C   0  0  0  0  0  2  0  0  0  0  0  0
  183.2350  174.2070  135.1680 C   0  0  0  0  0  2  0  0  0  0  0  0
  182.6920  172.8840  135.6630 C   0  0  0  0  0  2  0  0  0  0  0  0
  181.8280  174.1300  135.7360 C   0  0  0  0  0  3  0  0  0  0  0  0
  178.9990  174.6910  139.6670 N   0  0  0  0  0  2  0  0  0  0  0  0
  178.9970  174.6810  141.1290 C   0  0  0  0  0  2  0  0  0  0  0  0
  179.5930  173.3820  141.6280 C   0  0  0  0  0  1  0  0  0  0  0  0
  180.8470  179.8170  140.6790 C   0  0  0  0  0  2  0  0  0  0  0  0
  178.9500  178.8980  141.6750 C   0  0  0  0  0  1  0  0  0  0  0  0
  179.4570  179.4700  140.4410 N   0  0  0  0  0  2  0  0  0  0  0  0
  184.8870  178.7250  142.5750 C   0  0  0  0  0  2  0  0  0  0  0  0
  185.1540  178.7110  144.0770 C   0  0  0  0  0  2  0  0  0  0  0  0
  186.4260  177.9450  144.4330 C   0  0  0  0  0  2  0  0  0  0  0  0
  187.0110  177.2010  143.2330 C   0  0  0  0  0  2  0  0  0  0  0  0
  188.5090  177.4470  143.0050 C   0  0  2  0  0  3  0  0  0  0  0  0
  188.4250  178.3810  140.6460 C   0  0  0  0  0  0  0  0  0  0  0  0
  187.7570  179.3750  141.0350 O   0  0  0  0  0  0  0  0  0  0  0  0
  188.8690  177.4040  141.5920 N   0  0  0  0  0  2  0  0  0  0  0  0
  188.7450  178.2600  139.2540 N   0  0  0  0  0  2  0  0  0  0  0  0
  190.7980  177.0290  138.7940 C   0  0  0  0  0  3  0  0  0  0  0  0
  188.7330  176.2320  137.8200 C   0  0  0  0  0  3  0  0  0  0  0  0
  191.4910  175.9740  138.1890 C   0  0  0  0  0  0  0  0  0  0  0  0
  189.4230  175.1790  137.2140 C   0  0  0  0  0  3  0  0  0  0  0  0
  191.4670  174.0260  136.8080 F   0  0  0  0  0  0  0  0  0  0  0  0
  192.8270  175.8500  138.3820 F   0  0  0  0  0  0  0  0  0  0  0  0
  190.8020  175.0500  137.3970 C   0  0  0  0  0  0  0  0  0  0  0  0
  189.4170  177.1670  138.6130 C   0  0  0  0  0  0  0  0  0  0  0  0
  189.4160  176.5460  143.8560 C   0  0  1  0  0  3  0  0  0  0  0  0
  190.2840  175.6280  142.9960 C   0  0  0  0  0  1  0  0  0  0  0  0
  190.2360  177.3490  144.7650 N   0  0  0  0  0  0  0  0  0  0  0  0
  190.1820  178.7230  144.7230 O   0  0  0  0  0  0  0  0  0  0  0  0
  191.1730  176.8070  145.3870 O   0  0  0  0  0  0  0  0  0  0  0  0
  1  4  1  0  0  0  0
  3  2  1  6  0  0  0
  3  1  1  0  0  0  0
  3  5  1  0  0  0  0
  4  6  1  0  0  0  0
  4 24  1  6  0  0  0
  5 21  1  6  0  0  0
  5  6  1  0  0  0  0
  8  7  1  0  0  0  0
  9 11  1  6  0  0  0
  9 10  1  0  0  0  0
 10 18  1  6  0  0  0
 10 14  1  0  0  0  0
 12 17  1  6  0  0  0
 12  8  1  0  0  0  0
 12  9  1  0  0  0  0
 13  7  1  1  0  0  0
 13 14  1  0  0  0  0
 13  3  1  0  0  0  0
 15 16  1  0  0  0  0
 15 17  1  0  0  0  0
 16 17  1  0  0  0  0
 18 19  1  0  0  0  0
 19 20  1  0  0  0  0
 23 21  1  0  0  0  0
 23 22  1  0  0  0  0
 24 25  1  0  0  0  0
 25 26  1  0  0  0  0
 27 26  1  0  0  0  0
 28 27  1  6  0  0  0
 28 41  1  0  0  0  0
 29 30  2  0  0  0  0
 29 31  1  0  0  0  0
 31 28  1  0  0  0  0
 32 29  1  0  0  0  0
 34 40  2  0  0  0  0
 35 38  1  0  0  0  0
 35 33  2  0  0  0  0
 36 39  2  0  0  0  0
 36 34  1  0  0  0  0
 37 39  1  0  0  0  0
 39 35  1  0  0  0  0
 40 33  1  0  0  0  0
 40 32  1  0  0  0  0
 41 42  1  6  0  0  0
 41 43  1  0  0  0  0
 43 45  2  0  0  0  0
 44 43  2  0  0  0  0
M  END
>  <MODEL>
8

>  <REMARK>
 VINA RESULT:      -6.5      3.717      8.991
  Name = 
  15 active torsions:
  status: ('A' for Active; 'I' for Inactive)
    1  A    between atoms: C_5  and  N_20
    2  A    between atoms: C_5  and  C_41
    3  A    between atoms: C_8  and  N_17
    4  A    between atoms: C_11  and  N_17
    5  A    between atoms: C_21  and  C_37
    6  A    between atoms: C_22  and  C_24
    7  A    between atoms: C_25  and  C_41
    8  A    between atoms: C_25  and  C_43
    9  A    between atoms: N_28  and  C_38
   10  A    between atoms: C_29  and  C_39
   11  A    between atoms: C_30  and  C_39
   12  A    between atoms: C_30  and  C_43
   13  A    between atoms: N_34  and  C_41
   14  A    between atoms: C_35  and  N_42
   15  A    between atoms: C_38  and  C_40
                            x       y       z     vdW  Elec       q    Type
                         _______ _______ _______ _____ _____    ______ ____

>  <TORSDO>
F 15

$$$$
=
 OpenBabel11062417253D

 45 48  0  0  1  0  0  0  0  0999 V2000
  190.8820  176.4990  137.1970 O   0  0  0  0  0  0  0  0  0  0  0  0
  191.2860  176.3930  134.8520 C   0  0  0  0  0  1  0  0  0  0  0  0
  191.3270  175.6270  136.1800 C   0  0  2  0  0  0  0  0  0  0  0  0
  189.5470  176.1660  137.5140 C   0  0  2  0  0  3  0  0  0  0  0  0
  190.3990  174.4120  136.1860 C   0  0  1  0  0  3  0  0  0  0  0  0
  189.1160  174.9480  136.7280 C   0  0  0  0  0  2  0  0  0  0  0  0
  192.9860  173.6810  136.3060 C   0  0  0  0  0  2  0  0  0  0  0  0
  193.8060  173.1850  137.4010 N   0  0  0  0  0  2  0  0  0  0  0  0
  195.6650  174.7880  137.1370 C   0  0  2  0  0  3  0  0  0  0  0  0
  195.2710  175.5270  135.8390 C   0  0  1  0  0  3  0  0  0  0  0  0
  197.0510  174.8610  137.3200 O   0  0  0  0  0  1  0  0  0  0  0  0
  195.2150  173.3150  137.0440 C   0  0  1  0  0  3  0  0  0  0  0  0
  192.7670  175.1770  136.5030 C   0  0  1  0  0  3  0  0  0  0  0  0
  193.8100  176.0140  135.7510 C   0  0  0  0  0  2  0  0  0  0  0  0
  195.4600  171.0010  137.9240 C   0  0  0  0  0  2  0  0  0  0  0  0
  196.7080  171.3300  137.1340 C   0  0  0  0  0  2  0  0  0  0  0  0
  196.0290  172.4080  137.9610 C   0  0  0  0  0  3  0  0  0  0  0  0
  196.2040  176.6030  135.4820 N   0  0  0  0  0  2  0  0  0  0  0  0
  195.4830  177.7080  134.8520 C   0  0  0  0  0  2  0  0  0  0  0  0
  196.3150  178.9700  134.9360 C   0  0  0  0  0  1  0  0  0  0  0  0
  190.1900  173.7340  134.8350 C   0  0  0  0  0  2  0  0  0  0  0  0
  190.4000  171.4130  134.7680 C   0  0  0  0  0  1  0  0  0  0  0  0
  189.4590  172.4920  135.0080 N   0  0  0  0  0  2  0  0  0  0  0  0
  188.6390  177.3490  137.2080 C   0  0  0  0  0  2  0  0  0  0  0  0
  187.6110  177.0100  136.1330 C   0  0  0  0  0  2  0  0  0  0  0  0
  186.3380  177.8430  136.2650 C   0  0  0  0  0  2  0  0  0  0  0  0
  185.1470  177.0130  136.7420 C   0  0  0  0  0  2  0  0  0  0  0  0
  184.2360  177.7310  137.7480 C   0  0  2  0  0  3  0  0  0  0  0  0
  184.8720  179.2740  139.6610 C   0  0  0  0  0  0  0  0  0  0  0  0
  184.1700  180.2020  139.1800 O   0  0  0  0  0  0  0  0  0  0  0  0
  184.9100  177.9990  139.0140 N   0  0  0  0  0  2  0  0  0  0  0  0
  185.6070  179.5120  140.8680 N   0  0  0  0  0  2  0  0  0  0  0  0
  187.7530  178.3560  140.9080 C   0  0  0  0  0  3  0  0  0  0  0  0
  186.2170  177.9990  142.7410 C   0  0  0  0  0  3  0  0  0  0  0  0
  188.6730  177.4910  141.5090 C   0  0  0  0  0  0  0  0  0  0  0  0
  187.1330  177.1330  143.3430 C   0  0  0  0  0  3  0  0  0  0  0  0
  189.2480  176.0380  143.3150 F   0  0  0  0  0  0  0  0  0  0  0  0
  189.8670  177.2590  140.9100 F   0  0  0  0  0  0  0  0  0  0  0  0
  188.3620  176.8770  142.7270 C   0  0  0  0  0  0  0  0  0  0  0  0
  186.5190  178.6150  141.5160 C   0  0  0  0  0  0  0  0  0  0  0  0
  182.8820  177.0380  137.9540 C   0  0  1  0  0  3  0  0  0  0  0  0
  182.9150  176.0470  139.1170 C   0  0  0  0  0  1  0  0  0  0  0  0
  181.8160  178.0260  138.1320 N   0  0  0  0  0  0  0  0  0  0  0  0
  181.6340  179.0280  137.2070 O   0  0  0  0  0  0  0  0  0  0  0  0
  181.2500  178.1250  139.2400 O   0  0  0  0  0  0  0  0  0  0  0  0
  1  4  1  0  0  0  0
  3  2  1  6  0  0  0
  3  5  1  0  0  0  0
  3 13  1  0  0  0  0
  3  1  1  0  0  0  0
  4 24  1  6  0  0  0
  5 21  1  6  0  0  0
  5  6  1  0  0  0  0
  6  4  1  0  0  0  0
  7 13  1  0  0  0  0
  7  8  1  0  0  0  0
  9 11  1  6  0  0  0
 10 18  1  1  0  0  0
 10  9  1  0  0  0  0
 12  9  1  0  0  0  0
 12  8  1  0  0  0  0
 12 17  1  1  0  0  0
 13 14  1  6  0  0  0
 14 10  1  0  0  0  0
 15 17  1  0  0  0  0
 16 15  1  0  0  0  0
 16 17  1  0  0  0  0
 19 20  1  0  0  0  0
 19 18  1  0  0  0  0
 21 23  1  0  0  0  0
 22 23  1  0  0  0  0
 25 26  1  0  0  0  0
 25 24  1  0  0  0  0
 26 27  1  0  0  0  0
 28 27  1  6  0  0  0
 28 41  1  0  0  0  0
 28 31  1  0  0  0  0
 29 32  1  0  0  0  0
 30 29  2  0  0  0  0
 31 29  1  0  0  0  0
 32 40  1  0  0  0  0
 33 35  2  0  0  0  0
 33 40  1  0  0  0  0
 34 36  1  0  0  0  0
 35 39  1  0  0  0  0
 38 35  1  0  0  0  0
 39 37  1  0  0  0  0
 39 36  2  0  0  0  0
 40 34  2  0  0  0  0
 41 43  1  0  0  0  0
 41 42  1  1  0  0  0
 43 45  2  0  0  0  0
 44 43  2  0  0  0  0
M  END
>  <MODEL>
9

>  <REMARK>
 VINA RESULT:      -6.5      4.644      9.690
  Name = 
  15 active torsions:
  status: ('A' for Active; 'I' for Inactive)
    1  A    between atoms: C_5  and  N_20
    2  A    between atoms: C_5  and  C_41
    3  A    between atoms: C_8  and  N_17
    4  A    between atoms: C_11  and  N_17
    5  A    between atoms: C_21  and  C_37
    6  A    between atoms: C_22  and  C_24
    7  A    between atoms: C_25  and  C_41
    8  A    between atoms: C_25  and  C_43
    9  A    between atoms: N_28  and  C_38
   10  A    between atoms: C_29  and  C_39
   11  A    between atoms: C_30  and  C_39
   12  A    between atoms: C_30  and  C_43
   13  A    between atoms: N_34  and  C_41
   14  A    between atoms: C_35  and  N_42
   15  A    between atoms: C_38  and  C_40
                            x       y       z     vdW  Elec       q    Type
                         _______ _______ _______ _____ _____    ______ ____

>  <TORSDO>
F 15

$$$$
