=
 OpenBabel11062417183D

 26 28  0  0  1  0  0  0  0  0999 V2000
  189.4610  177.6230  140.1280 C   0  0  0  0  0  0  0  0  0  0  0  0
  190.3550  175.3920  142.9010 N   0  0  0  0  0  1  0  0  0  0  0  0
  189.6390  176.3540  142.1310 C   0  0  0  0  0  0  0  0  0  0  0  0
  187.7800  177.8660  141.8350 C   0  0  0  0  0  3  0  0  0  0  0  0
  188.2800  178.2150  140.5820 C   0  0  0  0  0  3  0  0  0  0  0  0
  190.1060  176.7110  140.9050 N   0  0  0  0  0  0  0  0  0  0  0  0
  188.4560  176.9310  142.6230 C   0  0  0  0  0  0  0  0  0  0  0  0
  189.9850  177.9550  138.7730 C   0  0  0  0  0  2  0  0  0  0  0  0
  189.0480  178.9100  138.0450 C   0  0  0  0  0  2  0  0  0  0  0  0
  188.7620  178.4180  136.7020 N   0  0  0  0  0  0  0  0  0  0  0  0
  187.6760  176.5920  134.7880 C   0  0  0  0  0  2  0  0  0  0  0  0
  187.1870  176.0110  137.1880 C   0  0  2  0  0  3  0  0  0  0  0  0
  189.3290  177.0550  136.5800 C   0  0  0  0  0  2  0  0  0  0  0  0
  186.5820  177.4170  137.3790 C   0  0  0  0  0  2  0  0  0  0  0  0
  187.0580  177.9900  135.0160 C   0  0  0  0  0  2  0  0  0  0  0  0
  187.3000  178.4360  136.4640 C   0  0  2  0  0  3  0  0  0  0  0  0
  188.2770  176.0400  136.0990 C   0  0  2  0  0  3  0  0  0  0  0  0
  186.4560  173.7420  137.3510 O   0  0  0  0  0  1  0  0  0  0  0  0
  186.0910  175.0020  136.8770 C   0  0  0  0  0  2  0  0  0  0  0  0
  187.8930  176.5480  143.9550 C   0  0  0  0  0  2  0  0  0  0  0  0
  187.7330  177.7710  144.8550 C   0  0  2  0  0  3  0  0  0  0  0  0
  188.8310  177.7590  145.9080 C   0  0  0  0  0  1  0  0  0  0  0  0
  185.3420  178.5740  144.6980 C   0  0  0  0  0  1  0  0  0  0  0  0
  186.3490  177.7800  145.5190 C   0  0  2  0  0  3  0  0  0  0  0  0
  185.5930  179.4750  147.0580 O   0  0  0  0  0  1  0  0  0  0  0  0
  186.3970  178.3380  146.9400 C   0  0  0  0  0  2  0  0  0  0  0  0
  1  5  2  0  0  0  0
  1  6  1  0  0  0  0
  3  7  1  0  0  0  0
  3  2  1  0  0  0  0
  4  7  2  0  0  0  0
  5  4  1  0  0  0  0
  6  3  2  0  0  0  0
  7 20  1  0  0  0  0
  8  1  1  0  0  0  0
  9  8  1  0  0  0  0
 10  9  1  0  0  0  0
 11 15  1  0  0  0  0
 12 19  1  6  0  0  0
 12 14  1  0  0  0  0
 13 10  1  0  0  0  0
 16 15  1  6  0  0  0
 16 10  1  0  0  0  0
 16 14  1  0  0  0  0
 17 11  1  6  0  0  0
 17 13  1  0  0  0  0
 17 12  1  0  0  0  0
 19 18  1  0  0  0  0
 20 21  1  0  0  0  0
 21 24  1  0  0  0  0
 21 22  1  1  0  0  0
 24 23  1  6  0  0  0
 24 26  1  0  0  0  0
 26 25  1  0  0  0  0
M  END
>  <MODEL>
1

>  <REMARK>
 VINA RESULT:      -7.2      0.000      0.000
  Name = 
  8 active torsions:
  status: ('A' for Active; 'I' for Inactive)
    1  A    between atoms: N_1  and  C_17
    2  A    between atoms: C_2  and  C_3
    3  A    between atoms: C_3  and  C_17
    4  A    between atoms: C_5  and  C_22
    5  A    between atoms: C_5  and  C_25
    6  A    between atoms: C_10  and  C_26
    7  A    between atoms: C_16  and  C_22
    8  A    between atoms: C_24  and  C_25
                            x       y       z     vdW  Elec       q    Type
                         _______ _______ _______ _____ _____    ______ ____

>  <TORSDO>
F 8

$$$$
=
 OpenBabel11062417183D

 26 28  0  0  1  0  0  0  0  0999 V2000
  184.7000  178.7680  144.6380 C   0  0  0  0  0  0  0  0  0  0  0  0
  187.2770  177.9120  142.1700 N   0  0  0  0  0  1  0  0  0  0  0  0
  186.6090  178.0370  143.4210 C   0  0  0  0  0  0  0  0  0  0  0  0
  186.5080  177.6920  145.8090 C   0  0  0  0  0  3  0  0  0  0  0  0
  185.2540  178.2990  145.8310 C   0  0  0  0  0  3  0  0  0  0  0  0
  185.3830  178.6240  143.4690 N   0  0  0  0  0  0  0  0  0  0  0  0
  187.1990  177.5570  144.6020 C   0  0  0  0  0  0  0  0  0  0  0  0
  183.3410  179.3810  144.6390 C   0  0  0  0  0  2  0  0  0  0  0  0
  182.3690  178.5510  143.8110 C   0  0  0  0  0  2  0  0  0  0  0  0
  181.8250  179.3470  142.7150 N   0  0  0  0  0  0  0  0  0  0  0  0
  180.3260  179.7730  140.3180 C   0  0  0  0  0  2  0  0  0  0  0  0
  180.2360  177.4200  141.2080 C   0  0  2  0  0  3  0  0  0  0  0  0
  182.2900  178.7530  141.4400 C   0  0  0  0  0  2  0  0  0  0  0  0
  179.7490  177.9770  142.5610 C   0  0  0  0  0  2  0  0  0  0  0  0
  179.8310  180.2940  141.6870 C   0  0  0  0  0  2  0  0  0  0  0  0
  180.3480  179.3810  142.8080 C   0  0  2  0  0  3  0  0  0  0  0  0
  181.1180  178.4580  140.4880 C   0  0  2  0  0  3  0  0  0  0  0  0
  178.9340  175.5950  140.3820 O   0  0  0  0  0  1  0  0  0  0  0  0
  179.0520  176.9850  140.3580 C   0  0  0  0  0  2  0  0  0  0  0  0
  188.5340  176.8810  144.5910 C   0  0  0  0  0  2  0  0  0  0  0  0
  189.5560  177.6740  145.4020 C   0  0  2  0  0  3  0  0  0  0  0  0
  190.7620  177.9730  144.5220 C   0  0  0  0  0  1  0  0  0  0  0  0
  189.5560  177.6070  147.9280 C   0  0  0  0  0  1  0  0  0  0  0  0
  189.9820  176.8930  146.6520 C   0  0  2  0  0  3  0  0  0  0  0  0
  192.0100  176.9250  147.9560 O   0  0  0  0  0  1  0  0  0  0  0  0
  191.4890  176.6450  146.6900 C   0  0  0  0  0  2  0  0  0  0  0  0
  1  8  1  0  0  0  0
  1  5  1  0  0  0  0
  2  3  1  0  0  0  0
  3  6  1  0  0  0  0
  3  7  2  0  0  0  0
  4  5  2  0  0  0  0
  6  1  2  0  0  0  0
  7  4  1  0  0  0  0
  9  8  1  0  0  0  0
 10 16  1  0  0  0  0
 10  9  1  0  0  0  0
 11 15  1  0  0  0  0
 12 19  1  6  0  0  0
 12 14  1  0  0  0  0
 13 10  1  0  0  0  0
 14 16  1  0  0  0  0
 16 15  1  6  0  0  0
 17 11  1  1  0  0  0
 17 12  1  0  0  0  0
 17 13  1  0  0  0  0
 19 18  1  0  0  0  0
 20  7  1  0  0  0  0
 20 21  1  0  0  0  0
 21 22  1  6  0  0  0
 21 24  1  0  0  0  0
 24 26  1  0  0  0  0
 24 23  1  1  0  0  0
 26 25  1  0  0  0  0
M  END
>  <MODEL>
2

>  <REMARK>
 VINA RESULT:      -7.0      5.306      6.951
  Name = 
  8 active torsions:
  status: ('A' for Active; 'I' for Inactive)
    1  A    between atoms: N_1  and  C_17
    2  A    between atoms: C_2  and  C_3
    3  A    between atoms: C_3  and  C_17
    4  A    between atoms: C_5  and  C_22
    5  A    between atoms: C_5  and  C_25
    6  A    between atoms: C_10  and  C_26
    7  A    between atoms: C_16  and  C_22
    8  A    between atoms: C_24  and  C_25
                            x       y       z     vdW  Elec       q    Type
                         _______ _______ _______ _____ _____    ______ ____

>  <TORSDO>
F 8

$$$$
=
 OpenBabel11062417183D

 26 28  0  0  1  0  0  0  0  0999 V2000
  190.7060  177.3310  141.9390 C   0  0  0  0  0  0  0  0  0  0  0  0
  191.6800  177.5290  145.4710 N   0  0  0  0  0  1  0  0  0  0  0  0
  190.8750  177.3380  144.3110 C   0  0  0  0  0  0  0  0  0  0  0  0
  188.7680  176.7950  143.2650 C   0  0  0  0  0  3  0  0  0  0  0  0
  189.3590  176.9700  142.0140 C   0  0  0  0  0  3  0  0  0  0  0  0
  191.4290  177.5020  143.0790 N   0  0  0  0  0  0  0  0  0  0  0  0
  189.5220  176.9800  144.4260 C   0  0  0  0  0  0  0  0  0  0  0  0
  191.3620  177.4800  140.6090 C   0  0  0  0  0  2  0  0  0  0  0  0
  190.7080  176.5730  139.5740 C   0  0  0  0  0  2  0  0  0  0  0  0
  190.4620  177.3070  138.3370 N   0  0  0  0  0  0  0  0  0  0  0  0
  188.9810  178.0190  135.9970 C   0  0  0  0  0  2  0  0  0  0  0  0
  187.8470  176.3350  137.4860 C   0  0  2  0  0  3  0  0  0  0  0  0
  190.2950  176.3220  137.2430 C   0  0  0  0  0  2  0  0  0  0  0  0
  187.9920  177.3180  138.6660 C   0  0  0  0  0  2  0  0  0  0  0  0
  189.1040  178.9790  137.2020 C   0  0  0  0  0  2  0  0  0  0  0  0
  189.2710  178.1710  138.4970 C   0  0  2  0  0  3  0  0  0  0  0  0
  188.9840  176.5480  136.4680 C   0  0  2  0  0  3  0  0  0  0  0  0
  185.7200  175.3230  137.0810 O   0  0  0  0  0  1  0  0  0  0  0  0
  186.4720  176.4740  136.8480 C   0  0  0  0  0  2  0  0  0  0  0  0
  188.8810  176.7640  145.7610 C   0  0  0  0  0  2  0  0  0  0  0  0
  188.0690  177.9870  146.1820 C   0  0  2  0  0  3  0  0  0  0  0  0
  188.4060  178.3320  147.6260 C   0  0  0  0  0  1  0  0  0  0  0  0
  186.0700  178.1070  144.6410 C   0  0  0  0  0  1  0  0  0  0  0  0
  186.5660  177.7220  146.0290 C   0  0  2  0  0  3  0  0  0  0  0  0
  184.4640  178.7550  146.6010 O   0  0  0  0  0  1  0  0  0  0  0  0
  185.7410  178.4570  147.0830 C   0  0  0  0  0  2  0  0  0  0  0  0
  1  5  2  0  0  0  0
  1  6  1  0  0  0  0
  3  7  1  0  0  0  0
  3  2  1  0  0  0  0
  4  7  2  0  0  0  0
  5  4  1  0  0  0  0
  6  3  2  0  0  0  0
  7 20  1  0  0  0  0
  8  1  1  0  0  0  0
  9  8  1  0  0  0  0
 10 16  1  0  0  0  0
 10  9  1  0  0  0  0
 11 15  1  0  0  0  0
 12 19  1  6  0  0  0
 12 14  1  0  0  0  0
 13 10  1  0  0  0  0
 16 15  1  6  0  0  0
 16 14  1  0  0  0  0
 17 11  1  1  0  0  0
 17 13  1  0  0  0  0
 17 12  1  0  0  0  0
 19 18  1  0  0  0  0
 20 21  1  0  0  0  0
 21 22  1  1  0  0  0
 24 23  1  6  0  0  0
 24 21  1  0  0  0  0
 24 26  1  0  0  0  0
 25 26  1  0  0  0  0
M  END
>  <MODEL>
3

>  <REMARK>
 VINA RESULT:      -6.9      1.609      2.124
  Name = 
  8 active torsions:
  status: ('A' for Active; 'I' for Inactive)
    1  A    between atoms: N_1  and  C_17
    2  A    between atoms: C_2  and  C_3
    3  A    between atoms: C_3  and  C_17
    4  A    between atoms: C_5  and  C_22
    5  A    between atoms: C_5  and  C_25
    6  A    between atoms: C_10  and  C_26
    7  A    between atoms: C_16  and  C_22
    8  A    between atoms: C_24  and  C_25
                            x       y       z     vdW  Elec       q    Type
                         _______ _______ _______ _____ _____    ______ ____

>  <TORSDO>
F 8

$$$$
=
 OpenBabel11062417183D

 26 28  0  0  1  0  0  0  0  0999 V2000
  186.8460  178.5840  141.4350 C   0  0  0  0  0  0  0  0  0  0  0  0
  183.7590  179.5080  139.6800 N   0  0  0  0  0  1  0  0  0  0  0  0
  184.6260  178.9960  140.6880 C   0  0  0  0  0  0  0  0  0  0  0  0
  184.9910  177.9490  142.8330 C   0  0  0  0  0  3  0  0  0  0  0  0
  186.3660  178.0230  142.6210 C   0  0  0  0  0  3  0  0  0  0  0  0
  185.9730  179.0570  140.5040 N   0  0  0  0  0  0  0  0  0  0  0  0
  184.1070  178.4350  141.8660 C   0  0  0  0  0  0  0  0  0  0  0  0
  188.3150  178.7080  141.2130 C   0  0  0  0  0  2  0  0  0  0  0  0
  188.9800  177.3380  141.1860 C   0  0  0  0  0  2  0  0  0  0  0  0
  190.1690  177.3320  142.0310 N   0  0  0  0  0  0  0  0  0  0  0  0
  191.5840  177.4070  144.5150 C   0  0  0  0  0  2  0  0  0  0  0  0
  189.0760  177.4250  144.7340 C   0  0  2  0  0  3  0  0  0  0  0  0
  190.1620  178.5690  142.8460 C   0  0  0  0  0  2  0  0  0  0  0  0
  189.0180  176.1360  143.8900 C   0  0  0  0  0  2  0  0  0  0  0  0
  191.4860  176.1120  143.6770 C   0  0  0  0  0  2  0  0  0  0  0  0
  190.1800  176.1120  142.8700 C   0  0  2  0  0  3  0  0  0  0  0  0
  190.3100  178.2640  144.3470 C   0  0  2  0  0  3  0  0  0  0  0  0
  188.0760  177.8450  146.8640 O   0  0  0  0  0  1  0  0  0  0  0  0
  189.0540  177.0880  146.2170 C   0  0  0  0  0  2  0  0  0  0  0  0
  182.6330  178.3720  142.1190 C   0  0  0  0  0  2  0  0  0  0  0  0
  182.2170  179.3840  143.1830 C   0  0  2  0  0  3  0  0  0  0  0  0
  182.8220  178.9760  144.5190 C   0  0  0  0  0  1  0  0  0  0  0  0
  180.0920  178.1600  143.7900 C   0  0  0  0  0  1  0  0  0  0  0  0
  180.6880  179.4670  143.2860 C   0  0  2  0  0  3  0  0  0  0  0  0
  179.6790  181.1890  141.9330 O   0  0  0  0  0  1  0  0  0  0  0  0
  180.0400  179.8390  141.9540 C   0  0  0  0  0  2  0  0  0  0  0  0
  1  5  1  0  0  0  0
  2  3  1  0  0  0  0
  3  7  2  0  0  0  0
  5  4  2  0  0  0  0
  6  3  1  0  0  0  0
  6  1  2  0  0  0  0
  7 20  1  0  0  0  0
  7  4  1  0  0  0  0
  8  1  1  0  0  0  0
  9  8  1  0  0  0  0
  9 10  1  0  0  0  0
 10 13  1  0  0  0  0
 10 16  1  0  0  0  0
 12 19  1  1  0  0  0
 14 12  1  0  0  0  0
 15 11  1  0  0  0  0
 16 15  1  1  0  0  0
 16 14  1  0  0  0  0
 17 13  1  6  0  0  0
 17 11  1  0  0  0  0
 17 12  1  0  0  0  0
 19 18  1  0  0  0  0
 20 21  1  0  0  0  0
 21 24  1  0  0  0  0
 21 22  1  1  0  0  0
 24 23  1  6  0  0  0
 25 26  1  0  0  0  0
 26 24  1  0  0  0  0
M  END
>  <MODEL>
4

>  <REMARK>
 VINA RESULT:      -6.9      4.037      6.918
  Name = 
  8 active torsions:
  status: ('A' for Active; 'I' for Inactive)
    1  A    between atoms: N_1  and  C_17
    2  A    between atoms: C_2  and  C_3
    3  A    between atoms: C_3  and  C_17
    4  A    between atoms: C_5  and  C_22
    5  A    between atoms: C_5  and  C_25
    6  A    between atoms: C_10  and  C_26
    7  A    between atoms: C_16  and  C_22
    8  A    between atoms: C_24  and  C_25
                            x       y       z     vdW  Elec       q    Type
                         _______ _______ _______ _____ _____    ______ ____

>  <TORSDO>
F 8

$$$$
=
 OpenBabel11062417183D

 26 28  0  0  1  0  0  0  0  0999 V2000
  185.3830  178.3880  143.3060 C   0  0  0  0  0  0  0  0  0  0  0  0
  188.4970  177.5540  141.5530 N   0  0  0  0  0  1  0  0  0  0  0  0
  187.5510  177.7020  142.6080 C   0  0  0  0  0  0  0  0  0  0  0  0
  186.9100  177.4660  144.9240 C   0  0  0  0  0  3  0  0  0  0  0  0
  185.6620  178.0060  144.6200 C   0  0  0  0  0  3  0  0  0  0  0  0
  186.3250  178.2260  142.3370 N   0  0  0  0  0  0  0  0  0  0  0  0
  187.8680  177.3100  143.9190 C   0  0  0  0  0  0  0  0  0  0  0  0
  184.0380  178.9280  142.9580 C   0  0  0  0  0  2  0  0  0  0  0  0
  183.8330  178.9500  141.4490 C   0  0  0  0  0  2  0  0  0  0  0  0
  182.8790  177.9200  141.0490 N   0  0  0  0  0  0  0  0  0  0  0  0
  180.9050  176.7350  139.3540 C   0  0  0  0  0  2  0  0  0  0  0  0
  181.8570  178.9030  138.5000 C   0  0  2  0  0  3  0  0  0  0  0  0
  181.5470  178.5540  140.9160 C   0  0  0  0  0  2  0  0  0  0  0  0
  183.2710  178.3000  138.6180 C   0  0  0  0  0  2  0  0  0  0  0  0
  182.3370  176.1620  139.4540 C   0  0  0  0  0  2  0  0  0  0  0  0
  183.3260  177.2890  139.7870 C   0  0  2  0  0  3  0  0  0  0  0  0
  180.9150  178.2680  139.5420 C   0  0  2  0  0  3  0  0  0  0  0  0
  182.2410  178.0180  136.3140 O   0  0  0  0  0  1  0  0  0  0  0  0
  181.3320  178.7470  137.0810 C   0  0  0  0  0  2  0  0  0  0  0  0
  189.1950  176.7060  144.2550 C   0  0  0  0  0  2  0  0  0  0  0  0
  189.9570  177.5780  145.2500 C   0  0  2  0  0  3  0  0  0  0  0  0
  191.2770  178.0070  144.6230 C   0  0  0  0  0  1  0  0  0  0  0  0
  189.6500  177.5790  147.7580 C   0  0  0  0  0  1  0  0  0  0  0  0
  190.2050  176.8190  146.5610 C   0  0  2  0  0  3  0  0  0  0  0  0
  192.0800  176.9090  148.0730 O   0  0  0  0  0  1  0  0  0  0  0  0
  191.6880  176.5300  146.7870 C   0  0  0  0  0  2  0  0  0  0  0  0
  1  5  1  0  0  0  0
  2  3  1  0  0  0  0
  3  7  2  0  0  0  0
  5  4  2  0  0  0  0
  6  3  1  0  0  0  0
  6  1  2  0  0  0  0
  7 20  1  0  0  0  0
  7  4  1  0  0  0  0
  8  1  1  0  0  0  0
  9  8  1  0  0  0  0
 10  9  1  0  0  0  0
 11 15  1  0  0  0  0
 12 19  1  6  0  0  0
 12 14  1  0  0  0  0
 12 17  1  0  0  0  0
 13 10  1  0  0  0  0
 15 16  1  0  0  0  0
 16 14  1  6  0  0  0
 16 10  1  0  0  0  0
 17 11  1  6  0  0  0
 17 13  1  0  0  0  0
 18 19  1  0  0  0  0
 20 21  1  0  0  0  0
 21 22  1  6  0  0  0
 21 24  1  0  0  0  0
 24 26  1  0  0  0  0
 24 23  1  1  0  0  0
 26 25  1  0  0  0  0
M  END
>  <MODEL>
5

>  <REMARK>
 VINA RESULT:      -6.7      4.035      5.562
  Name = 
  8 active torsions:
  status: ('A' for Active; 'I' for Inactive)
    1  A    between atoms: N_1  and  C_17
    2  A    between atoms: C_2  and  C_3
    3  A    between atoms: C_3  and  C_17
    4  A    between atoms: C_5  and  C_22
    5  A    between atoms: C_5  and  C_25
    6  A    between atoms: C_10  and  C_26
    7  A    between atoms: C_16  and  C_22
    8  A    between atoms: C_24  and  C_25
                            x       y       z     vdW  Elec       q    Type
                         _______ _______ _______ _____ _____    ______ ____

>  <TORSDO>
F 8

$$$$
=
 OpenBabel11062417183D

 26 28  0  0  1  0  0  0  0  0999 V2000
  190.1690  177.2030  141.2560 C   0  0  0  0  0  0  0  0  0  0  0  0
  191.9890  178.3650  144.2230 N   0  0  0  0  0  1  0  0  0  0  0  0
  190.9100  177.9630  143.3850 C   0  0  0  0  0  0  0  0  0  0  0  0
  188.5630  177.5300  143.0200 C   0  0  0  0  0  3  0  0  0  0  0  0
  188.8480  177.1600  141.7070 C   0  0  0  0  0  3  0  0  0  0  0  0
  191.1630  177.5970  142.0990 N   0  0  0  0  0  0  0  0  0  0  0  0
  189.5930  177.9360  143.8720 C   0  0  0  0  0  0  0  0  0  0  0  0
  190.4950  176.7710  139.8670 C   0  0  0  0  0  2  0  0  0  0  0  0
  190.1130  177.8450  138.8580 C   0  0  0  0  0  2  0  0  0  0  0  0
  189.8900  177.2530  137.5430 N   0  0  0  0  0  0  0  0  0  0  0  0
  188.3050  176.1570  135.4300 C   0  0  0  0  0  2  0  0  0  0  0  0
  186.9890  176.9710  137.4160 C   0  0  2  0  0  3  0  0  0  0  0  0
  189.2060  175.9530  137.7340 C   0  0  0  0  0  2  0  0  0  0  0  0
  187.6670  178.3480  137.2700 C   0  0  0  0  0  2  0  0  0  0  0  0
  188.9600  177.5520  135.3120 C   0  0  0  0  0  2  0  0  0  0  0  0
  189.0970  178.1820  136.7060 C   0  0  2  0  0  3  0  0  0  0  0  0
  187.9190  175.8570  136.8950 C   0  0  2  0  0  3  0  0  0  0  0  0
  184.7040  177.6690  137.4730 O   0  0  0  0  0  1  0  0  0  0  0  0
  185.6400  176.9680  136.7120 C   0  0  0  0  0  2  0  0  0  0  0  0
  189.2740  178.3060  145.2860 C   0  0  0  0  0  2  0  0  0  0  0  0
  188.5970  177.1480  146.0150 C   0  0  2  0  0  3  0  0  0  0  0  0
  187.1420  177.5120  146.2810 C   0  0  0  0  0  1  0  0  0  0  0  0
  189.2520  178.0070  148.2990 C   0  0  0  0  0  1  0  0  0  0  0  0
  189.3220  176.8340  147.3310 C   0  0  2  0  0  3  0  0  0  0  0  0
  191.6340  177.2400  147.8820 O   0  0  0  0  0  1  0  0  0  0  0  0
  190.7830  176.4500  147.1050 C   0  0  0  0  0  2  0  0  0  0  0  0
  1  5  2  0  0  0  0
  1  6  1  0  0  0  0
  3  7  1  0  0  0  0
  3  2  1  0  0  0  0
  4  7  2  0  0  0  0
  5  4  1  0  0  0  0
  6  3  2  0  0  0  0
  7 20  1  0  0  0  0
  8  1  1  0  0  0  0
  9  8  1  0  0  0  0
 10 13  1  0  0  0  0
 10  9  1  0  0  0  0
 12 19  1  6  0  0  0
 14 12  1  0  0  0  0
 15 11  1  0  0  0  0
 16 15  1  6  0  0  0
 16 14  1  0  0  0  0
 16 10  1  0  0  0  0
 17 11  1  6  0  0  0
 17 12  1  0  0  0  0
 17 13  1  0  0  0  0
 19 18  1  0  0  0  0
 20 21  1  0  0  0  0
 21 22  1  1  0  0  0
 21 24  1  0  0  0  0
 24 23  1  1  0  0  0
 26 24  1  0  0  0  0
 26 25  1  0  0  0  0
M  END
>  <MODEL>
6

>  <REMARK>
 VINA RESULT:      -6.6      2.182      2.762
  Name = 
  8 active torsions:
  status: ('A' for Active; 'I' for Inactive)
    1  A    between atoms: N_1  and  C_17
    2  A    between atoms: C_2  and  C_3
    3  A    between atoms: C_3  and  C_17
    4  A    between atoms: C_5  and  C_22
    5  A    between atoms: C_5  and  C_25
    6  A    between atoms: C_10  and  C_26
    7  A    between atoms: C_16  and  C_22
    8  A    between atoms: C_24  and  C_25
                            x       y       z     vdW  Elec       q    Type
                         _______ _______ _______ _____ _____    ______ ____

>  <TORSDO>
F 8

$$$$
=
 OpenBabel11062417183D

 26 28  0  0  1  0  0  0  0  0999 V2000
  189.4600  177.5160  140.5320 C   0  0  0  0  0  0  0  0  0  0  0  0
  186.5150  178.3950  142.5370 N   0  0  0  0  0  1  0  0  0  0  0  0
  187.7690  177.8220  142.1750 C   0  0  0  0  0  0  0  0  0  0  0  0
  189.7220  176.5040  142.7010 C   0  0  0  0  0  3  0  0  0  0  0  0
  190.2110  176.7400  141.4170 C   0  0  0  0  0  3  0  0  0  0  0  0
  188.2670  178.0380  140.9290 N   0  0  0  0  0  0  0  0  0  0  0  0
  188.4940  177.0430  143.0920 C   0  0  0  0  0  0  0  0  0  0  0  0
  189.9890  177.8110  139.1700 C   0  0  0  0  0  2  0  0  0  0  0  0
  189.0580  178.7510  138.4160 C   0  0  0  0  0  2  0  0  0  0  0  0
  188.9040  178.3130  137.0320 N   0  0  0  0  0  0  0  0  0  0  0  0
  188.0840  176.5280  134.9550 C   0  0  0  0  0  2  0  0  0  0  0  0
  187.4580  175.7920  137.2800 C   0  0  2  0  0  3  0  0  0  0  0  0
  189.5670  176.9970  136.8890 C   0  0  0  0  0  2  0  0  0  0  0  0
  186.7510  177.1460  137.4910 C   0  0  0  0  0  2  0  0  0  0  0  0
  187.3610  177.8710  135.2010 C   0  0  0  0  0  2  0  0  0  0  0  0
  187.4660  178.2550  136.6840 C   0  0  2  0  0  3  0  0  0  0  0  0
  188.6220  175.9460  136.2810 C   0  0  2  0  0  3  0  0  0  0  0  0
  185.1870  175.3020  136.7180 O   0  0  0  0  0  1  0  0  0  0  0  0
  186.4570  174.7360  136.8370 C   0  0  0  0  0  2  0  0  0  0  0  0
  187.9940  176.8030  144.4820 C   0  0  0  0  0  2  0  0  0  0  0  0
  188.6270  177.7820  145.4680 C   0  0  2  0  0  3  0  0  0  0  0  0
  189.8470  177.1280  146.1020 C   0  0  0  0  0  1  0  0  0  0  0  0
  187.9300  177.5400  147.8850 C   0  0  0  0  0  1  0  0  0  0  0  0
  187.6170  178.1960  146.5470 C   0  0  2  0  0  3  0  0  0  0  0  0
  185.3820  179.0160  146.1610 O   0  0  0  0  0  1  0  0  0  0  0  0
  186.1800  177.8690  146.1460 C   0  0  0  0  0  2  0  0  0  0  0  0
  1  6  2  0  0  0  0
  1  5  1  0  0  0  0
  3  2  1  0  0  0  0
  3  7  2  0  0  0  0
  4  7  1  0  0  0  0
  5  4  2  0  0  0  0
  6  3  1  0  0  0  0
  7 20  1  0  0  0  0
  8  1  1  0  0  0  0
  9  8  1  0  0  0  0
 10  9  1  0  0  0  0
 11 15  1  0  0  0  0
 12 19  1  6  0  0  0
 12 14  1  0  0  0  0
 13 10  1  0  0  0  0
 16 15  1  6  0  0  0
 16 10  1  0  0  0  0
 16 14  1  0  0  0  0
 17 11  1  6  0  0  0
 17 13  1  0  0  0  0
 17 12  1  0  0  0  0
 18 19  1  0  0  0  0
 20 21  1  0  0  0  0
 21 22  1  1  0  0  0
 21 24  1  0  0  0  0
 24 23  1  1  0  0  0
 26 25  1  0  0  0  0
 26 24  1  0  0  0  0
M  END
>  <MODEL>
7

>  <REMARK>
 VINA RESULT:      -6.6      1.250      1.753
  Name = 
  8 active torsions:
  status: ('A' for Active; 'I' for Inactive)
    1  A    between atoms: N_1  and  C_17
    2  A    between atoms: C_2  and  C_3
    3  A    between atoms: C_3  and  C_17
    4  A    between atoms: C_5  and  C_22
    5  A    between atoms: C_5  and  C_25
    6  A    between atoms: C_10  and  C_26
    7  A    between atoms: C_16  and  C_22
    8  A    between atoms: C_24  and  C_25
                            x       y       z     vdW  Elec       q    Type
                         _______ _______ _______ _____ _____    ______ ____

>  <TORSDO>
F 8

$$$$
=
 OpenBabel11062417183D

 26 28  0  0  1  0  0  0  0  0999 V2000
  183.4070  178.9770  144.1460 C   0  0  0  0  0  0  0  0  0  0  0  0
  185.3060  178.6720  147.2710 N   0  0  0  0  0  1  0  0  0  0  0  0
  184.9930  178.6240  145.8820 C   0  0  0  0  0  0  0  0  0  0  0  0
  185.6050  178.1650  143.5920 C   0  0  0  0  0  3  0  0  0  0  0  0
  184.3310  178.5590  143.1860 C   0  0  0  0  0  3  0  0  0  0  0  0
  183.7570  179.0040  145.4610 N   0  0  0  0  0  0  0  0  0  0  0  0
  185.9480  178.1920  144.9460 C   0  0  0  0  0  0  0  0  0  0  0  0
  182.0550  179.4420  143.7230 C   0  0  0  0  0  2  0  0  0  0  0  0
  181.1110  178.2630  143.5280 C   0  0  0  0  0  2  0  0  0  0  0  0
  180.0580  178.6060  142.5760 N   0  0  0  0  0  0  0  0  0  0  0  0
  179.0280  179.5030  140.0640 C   0  0  0  0  0  2  0  0  0  0  0  0
  181.5380  179.3440  140.1730 C   0  0  2  0  0  3  0  0  0  0  0  0
  180.2530  180.0140  142.1610 C   0  0  0  0  0  2  0  0  0  0  0  0
  181.4010  177.8710  140.6090 C   0  0  0  0  0  2  0  0  0  0  0  0
  178.9310  178.0220  140.4980 C   0  0  0  0  0  2  0  0  0  0  0  0
  180.1030  177.6740  141.4260 C   0  0  2  0  0  3  0  0  0  0  0  0
  180.3090  180.1540  140.6290 C   0  0  2  0  0  3  0  0  0  0  0  0
  181.6710  178.1600  138.1010 O   0  0  0  0  0  1  0  0  0  0  0  0
  181.7580  179.4320  138.6700 C   0  0  0  0  0  2  0  0  0  0  0  0
  187.3270  177.7900  145.3630 C   0  0  0  0  0  2  0  0  0  0  0  0
  188.2510  177.6680  144.1540 C   0  0  2  0  0  3  0  0  0  0  0  0
  187.9320  176.3760  143.4150 C   0  0  0  0  0  1  0  0  0  0  0  0
  189.8590  177.5510  146.1000 C   0  0  0  0  0  1  0  0  0  0  0  0
  189.7230  177.6900  144.5890 C   0  0  2  0  0  3  0  0  0  0  0  0
  191.8230  178.7650  144.0940 O   0  0  0  0  0  1  0  0  0  0  0  0
  190.4400  178.9580  144.1300 C   0  0  0  0  0  2  0  0  0  0  0  0
  1  6  1  0  0  0  0
  3  2  1  0  0  0  0
  4  7  2  0  0  0  0
  5  4  1  0  0  0  0
  5  1  2  0  0  0  0
  6  3  2  0  0  0  0
  7 20  1  0  0  0  0
  7  3  1  0  0  0  0
  8  1  1  0  0  0  0
  9  8  1  0  0  0  0
 10  9  1  0  0  0  0
 11 15  1  0  0  0  0
 12 19  1  6  0  0  0
 12 14  1  0  0  0  0
 12 17  1  0  0  0  0
 13 10  1  0  0  0  0
 14 16  1  0  0  0  0
 16 15  1  6  0  0  0
 16 10  1  0  0  0  0
 17 11  1  6  0  0  0
 17 13  1  0  0  0  0
 18 19  1  0  0  0  0
 21 22  1  1  0  0  0
 21 24  1  0  0  0  0
 21 20  1  0  0  0  0
 24 23  1  1  0  0  0
 25 26  1  0  0  0  0
 26 24  1  0  0  0  0
M  END
>  <MODEL>
8

>  <REMARK>
 VINA RESULT:      -6.5      5.456      7.226
  Name = 
  8 active torsions:
  status: ('A' for Active; 'I' for Inactive)
    1  A    between atoms: N_1  and  C_17
    2  A    between atoms: C_2  and  C_3
    3  A    between atoms: C_3  and  C_17
    4  A    between atoms: C_5  and  C_22
    5  A    between atoms: C_5  and  C_25
    6  A    between atoms: C_10  and  C_26
    7  A    between atoms: C_16  and  C_22
    8  A    between atoms: C_24  and  C_25
                            x       y       z     vdW  Elec       q    Type
                         _______ _______ _______ _____ _____    ______ ____

>  <TORSDO>
F 8

$$$$
=
 OpenBabel11062417183D

 26 28  0  0  1  0  0  0  0  0999 V2000
  189.9900  177.2410  140.9280 C   0  0  0  0  0  0  0  0  0  0  0  0
  186.6980  178.5300  141.9120 N   0  0  0  0  0  1  0  0  0  0  0  0
  187.9120  177.7850  141.9490 C   0  0  0  0  0  0  0  0  0  0  0  0
  189.3890  176.2010  143.0160 C   0  0  0  0  0  3  0  0  0  0  0  0
  190.2980  176.3650  141.9720 C   0  0  0  0  0  3  0  0  0  0  0  0
  188.8150  177.9280  140.9420 N   0  0  0  0  0  0  0  0  0  0  0  0
  188.1850  176.9100  143.0130 C   0  0  0  0  0  0  0  0  0  0  0  0
  190.9700  177.4580  139.8270 C   0  0  0  0  0  2  0  0  0  0  0  0
  190.7860  176.4260  138.7220 C   0  0  0  0  0  2  0  0  0  0  0  0
  191.7610  176.6410  137.6570 N   0  0  0  0  0  0  0  0  0  0  0  0
  193.9600  175.9270  135.9740 C   0  0  0  0  0  2  0  0  0  0  0  0
  193.2440  174.1300  137.5850 C   0  0  2  0  0  3  0  0  0  0  0  0
  193.1160  176.4980  138.2370 C   0  0  0  0  0  2  0  0  0  0  0  0
  191.8110  174.2310  137.0230 C   0  0  0  0  0  2  0  0  0  0  0  0
  192.5140  175.9970  135.4320 C   0  0  0  0  0  2  0  0  0  0  0  0
  191.5200  175.6770  136.5590 C   0  0  2  0  0  3  0  0  0  0  0  0
  193.9680  175.4840  137.4530 C   0  0  2  0  0  3  0  0  0  0  0  0
  195.2950  172.9160  137.4170 O   0  0  0  0  0  1  0  0  0  0  0  0
  194.0030  173.0040  136.8980 C   0  0  0  0  0  2  0  0  0  0  0  0
  187.2310  176.7420  144.1530 C   0  0  0  0  0  2  0  0  0  0  0  0
  187.4090  177.8550  145.1840 C   0  0  2  0  0  3  0  0  0  0  0  0
  188.5550  177.4880  146.1160 C   0  0  0  0  0  1  0  0  0  0  0  0
  185.1650  179.0140  145.2550 C   0  0  0  0  0  1  0  0  0  0  0  0
  186.1150  178.0710  145.9800 C   0  0  2  0  0  3  0  0  0  0  0  0
  185.6980  179.8020  147.6060 O   0  0  0  0  0  1  0  0  0  0  0  0
  186.3860  178.6070  147.3850 C   0  0  0  0  0  2  0  0  0  0  0  0
  1  6  2  0  0  0  0
  1  5  1  0  0  0  0
  2  3  1  0  0  0  0
  3  7  2  0  0  0  0
  5  4  2  0  0  0  0
  6  3  1  0  0  0  0
  7  4  1  0  0  0  0
  7 20  1  0  0  0  0
  8  1  1  0  0  0  0
  9  8  1  0  0  0  0
 10 13  1  0  0  0  0
 10  9  1  0  0  0  0
 12 19  1  6  0  0  0
 14 12  1  0  0  0  0
 15 11  1  0  0  0  0
 16 15  1  6  0  0  0
 16 14  1  0  0  0  0
 16 10  1  0  0  0  0
 17 11  1  6  0  0  0
 17 12  1  0  0  0  0
 17 13  1  0  0  0  0
 19 18  1  0  0  0  0
 20 21  1  0  0  0  0
 21 24  1  0  0  0  0
 21 22  1  1  0  0  0
 24 23  1  6  0  0  0
 24 26  1  0  0  0  0
 26 25  1  0  0  0  0
M  END
>  <MODEL>
9

>  <REMARK>
 VINA RESULT:      -6.4      3.266      4.176
  Name = 
  8 active torsions:
  status: ('A' for Active; 'I' for Inactive)
    1  A    between atoms: N_1  and  C_17
    2  A    between atoms: C_2  and  C_3
    3  A    between atoms: C_3  and  C_17
    4  A    between atoms: C_5  and  C_22
    5  A    between atoms: C_5  and  C_25
    6  A    between atoms: C_10  and  C_26
    7  A    between atoms: C_16  and  C_22
    8  A    between atoms: C_24  and  C_25
                            x       y       z     vdW  Elec       q    Type
                         _______ _______ _______ _____ _____    ______ ____

>  <TORSDO>
F 8

$$$$
