=
 OpenBabel11062415313D

 37 40  0  0  1  0  0  0  0  0999 V2000
  188.9810  179.4280  137.6320 N   0  0  0  0  0  0  0  0  0  0  0  0
  187.3600  176.2400  137.4260 C   0  0  2  0  0  3  0  0  0  0  0  0
  186.3970  175.2400  137.1180 N   0  0  0  0  0  1  0  0  0  0  0  0
  188.1070  178.3350  137.6970 C   0  0  0  0  0  0  0  0  0  0  0  0
  189.7520  177.0090  138.0010 C   0  0  0  0  0  0  0  0  0  0  0  0
  187.0350  177.5020  137.3280 N   0  0  0  0  0  2  0  0  0  0  0  0
  188.7880  175.8100  137.8360 C   0  0  0  0  0  2  0  0  0  0  0  0
  189.2270  178.3610  138.4570 C   0  0  1  0  0  0  0  0  0  0  0  0
  192.3180  176.5420  138.0690 C   0  0  0  0  0  3  0  0  0  0  0  0
  191.0360  176.7790  138.0370 C   0  0  0  0  0  0  0  0  0  0  0  0
  188.8280  178.5120  139.8950 C   0  0  0  0  0  3  0  0  0  0  0  0
  189.4300  177.8680  140.8290 N   0  0  0  0  0  0  0  0  0  0  0  0
  187.9000  177.0700  142.5200 C   0  0  0  0  0  2  0  0  0  0  0  0
  189.0310  178.0210  142.2040 C   0  0  1  0  0  3  0  0  0  0  0  0
  188.0300  176.7750  143.9990 C   0  0  0  0  0  2  0  0  0  0  0  0
  190.1590  177.6340  143.1420 C   0  0  0  0  0  2  0  0  0  0  0  0
  189.5000  176.9640  144.3360 C   0  0  1  0  0  3  0  0  0  0  0  0
  189.7020  177.7590  145.6290 C   0  0  0  0  0  2  0  0  0  0  0  0
  188.9090  177.4950  147.9740 C   0  0  0  0  0  1  0  0  0  0  0  0
  189.7680  176.8850  146.8820 C   0  0  2  0  0  3  0  0  0  0  0  0
  191.1770  176.7210  147.3670 C   0  0  0  0  0  0  0  0  0  0  0  0
  191.6880  177.5620  148.0940 O   0  0  0  0  0  0  0  0  0  0  0  0
  191.9530  175.5120  146.9610 C   0  0  0  0  0  3  0  0  0  0  0  0
  192.1740  175.5250  145.5960 F   0  0  0  0  0  0  0  0  0  0  0  0
  193.1640  175.4860  147.6260 F   0  0  0  0  0  0  0  0  0  0  0  0
  192.1750  175.9500  135.6850 C   0  0  0  0  0  1  0  0  0  0  0  0
  192.9800  175.7870  136.9650 C   0  0  2  0  0  3  0  0  0  0  0  0
  193.1700  174.3120  137.3470 C   0  0  2  0  0  3  0  0  0  0  0  0
  196.9770  172.4300  136.7260 C   0  0  0  0  0  3  0  0  0  0  0  0
  194.6040  173.8760  137.2560 C   0  0  0  0  0  0  0  0  0  0  0  0
  195.7180  173.7030  139.3490 O   0  0  0  0  0  1  0  0  0  0  0  0
  195.3880  174.2660  136.2330 C   0  0  0  0  0  3  0  0  0  0  0  0
  195.1520  172.9510  138.3190 C   0  0  2  0  0  3  0  0  0  0  0  0
  196.1950  172.0250  137.7380 C   0  0  0  0  0  3  0  0  0  0  0  0
  196.8290  173.8220  136.1670 C   0  0  0  0  0  2  0  0  0  0  0  0
  192.3410  173.4660  136.6010 O   0  0  0  0  0  0  0  0  0  0  0  0
  191.2110  173.4150  137.2880 F   0  0  0  0  0  0  0  0  0  0  0  0
  1  4  2  0  0  0  0
  1  8  1  0  0  0  0
  2  3  1  6  0  0  0
  2  7  1  0  0  0  0
  4  8  1  0  0  0  0
  5 10  2  0  0  0  0
  5  8  1  0  0  0  0
  6  2  1  0  0  0  0
  6  4  1  0  0  0  0
  7  5  1  0  0  0  0
  8 11  1  1  0  0  0
 10  9  2  0  0  0  0
 11 12  2  0  0  0  0
 13 15  1  0  0  0  0
 14 12  1  6  0  0  0
 14 13  1  0  0  0  0
 14 16  1  0  0  0  0
 15 17  1  0  0  0  0
 16 17  1  0  0  0  0
 17 18  1  1  0  0  0
 18 20  1  0  0  0  0
 20 21  1  0  0  0  0
 20 19  1  1  0  0  0
 21 22  2  0  0  0  0
 23 21  1  0  0  0  0
 23 25  1  0  0  0  0
 24 23  1  0  0  0  0
 27 26  1  6  0  0  0
 27 28  1  0  0  0  0
 27  9  1  0  0  0  0
 28 36  1  6  0  0  0
 29 34  2  0  0  0  0
 30 28  1  0  0  0  0
 30 33  1  0  0  0  0
 32 30  2  0  0  0  0
 33 31  1  1  0  0  0
 34 33  1  0  0  0  0
 35 32  1  0  0  0  0
 35 29  1  0  0  0  0
 36 37  1  0  0  0  0
M  END
>  <MODEL>
1

>  <REMARK>
 VINA RESULT:      -8.5      0.000      0.000
  Name = 
  10 active torsions:
  status: ('A' for Active; 'I' for Inactive)
    1  A    between atoms: C_1  and  C_27
    2  A    between atoms: C_7  and  C_11
    3  A    between atoms: C_7  and  C_32
    4  A    between atoms: C_9  and  C_29
    5  A    between atoms: C_14  and  N_28
    6  A    between atoms: C_17  and  C_32
    7  A    between atoms: C_17  and  C_37
    8  A    between atoms: C_19  and  C_29
    9  A    between atoms: C_19  and  C_31
   10  A    between atoms: O_20  and  C_29
                            x       y       z     vdW  Elec       q    Type
                         _______ _______ _______ _____ _____    ______ ____

>  <TORSDO>
F 10

$$$$
=
 OpenBabel11062415313D

 37 40  0  0  1  0  0  0  0  0999 V2000
  188.9810  179.1290  138.3780 N   0  0  0  0  0  0  0  0  0  0  0  0
  187.3820  176.1520  137.1880 C   0  0  2  0  0  3  0  0  0  0  0  0
  186.4280  175.2910  136.5780 N   0  0  0  0  0  1  0  0  0  0  0  0
  188.1140  178.0660  138.0960 C   0  0  0  0  0  0  0  0  0  0  0  0
  189.7640  176.7160  137.9950 C   0  0  0  0  0  0  0  0  0  0  0  0
  187.0500  177.3820  137.4780 N   0  0  0  0  0  2  0  0  0  0  0  0
  188.8090  175.6220  137.4600 C   0  0  0  0  0  2  0  0  0  0  0  0
  189.2260  177.8600  138.8380 C   0  0  1  0  0  0  0  0  0  0  0  0
  192.3320  176.2590  137.9430 C   0  0  0  0  0  3  0  0  0  0  0  0
  191.0490  176.4900  137.9720 C   0  0  0  0  0  0  0  0  0  0  0  0
  188.8140  177.5620  140.2490 C   0  0  0  0  0  3  0  0  0  0  0  0
  189.5800  176.9100  141.0480 N   0  0  0  0  0  0  0  0  0  0  0  0
  190.3280  176.8250  143.3440 C   0  0  0  0  0  2  0  0  0  0  0  0
  189.1660  176.6290  142.3980 C   0  0  1  0  0  3  0  0  0  0  0  0
  189.7030  177.2120  144.6680 C   0  0  0  0  0  2  0  0  0  0  0  0
  188.1030  177.6110  142.8540 C   0  0  0  0  0  2  0  0  0  0  0  0
  188.3750  177.8700  144.3270 C   0  0  1  0  0  3  0  0  0  0  0  0
  187.2350  177.3730  145.2210 C   0  0  0  0  0  2  0  0  0  0  0  0
  187.1360  178.1070  147.5970 C   0  0  0  0  0  1  0  0  0  0  0  0
  186.7020  178.4370  146.1810 C   0  0  2  0  0  3  0  0  0  0  0  0
  185.2090  178.5450  146.1120 C   0  0  0  0  0  0  0  0  0  0  0  0
  184.5300  178.4650  147.1260 O   0  0  0  0  0  0  0  0  0  0  0  0
  184.5530  178.7630  144.7880 C   0  0  0  0  0  3  0  0  0  0  0  0
  183.1790  178.6920  144.9210 F   0  0  0  0  0  0  0  0  0  0  0  0
  184.9070  180.0010  144.2870 F   0  0  0  0  0  0  0  0  0  0  0  0
  192.0000  175.9130  135.5290 C   0  0  0  0  0  1  0  0  0  0  0  0
  193.0080  175.8810  136.6680 C   0  0  2  0  0  3  0  0  0  0  0  0
  193.6960  174.5140  136.7960 C   0  0  2  0  0  3  0  0  0  0  0  0
  197.9700  174.1270  136.7950 C   0  0  0  0  0  3  0  0  0  0  0  0
  195.1890  174.6310  136.9050 C   0  0  0  0  0  0  0  0  0  0  0  0
  195.9890  175.0240  139.1090 O   0  0  0  0  0  1  0  0  0  0  0  0
  195.9170  175.2110  135.9320 C   0  0  0  0  0  3  0  0  0  0  0  0
  195.8770  174.0470  138.1190 C   0  0  2  0  0  3  0  0  0  0  0  0
  197.2510  173.5320  137.7600 C   0  0  0  0  0  3  0  0  0  0  0  0
  197.4150  175.3240  136.0690 C   0  0  0  0  0  2  0  0  0  0  0  0
  193.3360  173.6470  135.7580 O   0  0  0  0  0  0  0  0  0  0  0  0
  192.7510  172.6260  136.3640 F   0  0  0  0  0  0  0  0  0  0  0  0
  1  8  1  0  0  0  0
  2  3  1  6  0  0  0
  2  7  1  0  0  0  0
  2  6  1  0  0  0  0
  4  1  2  0  0  0  0
  4  8  1  0  0  0  0
  5  8  1  0  0  0  0
  6  4  1  0  0  0  0
  7  5  1  0  0  0  0
  8 11  1  1  0  0  0
  9 10  2  0  0  0  0
 10  5  2  0  0  0  0
 11 12  2  0  0  0  0
 13 15  1  0  0  0  0
 14 12  1  6  0  0  0
 14 16  1  0  0  0  0
 14 13  1  0  0  0  0
 16 17  1  0  0  0  0
 17 15  1  0  0  0  0
 17 18  1  1  0  0  0
 18 20  1  0  0  0  0
 20 19  1  1  0  0  0
 21 20  1  0  0  0  0
 21 22  2  0  0  0  0
 23 24  1  0  0  0  0
 23 21  1  0  0  0  0
 25 23  1  0  0  0  0
 27 26  1  6  0  0  0
 27 28  1  0  0  0  0
 27  9  1  0  0  0  0
 28 36  1  6  0  0  0
 28 30  1  0  0  0  0
 29 34  2  0  0  0  0
 30 33  1  0  0  0  0
 32 35  1  0  0  0  0
 32 30  2  0  0  0  0
 33 31  1  1  0  0  0
 34 33  1  0  0  0  0
 35 29  1  0  0  0  0
 36 37  1  0  0  0  0
M  END
>  <MODEL>
2

>  <REMARK>
 VINA RESULT:      -8.3      2.817      3.376
  Name = 
  10 active torsions:
  status: ('A' for Active; 'I' for Inactive)
    1  A    between atoms: C_1  and  C_27
    2  A    between atoms: C_7  and  C_11
    3  A    between atoms: C_7  and  C_32
    4  A    between atoms: C_9  and  C_29
    5  A    between atoms: C_14  and  N_28
    6  A    between atoms: C_17  and  C_32
    7  A    between atoms: C_17  and  C_37
    8  A    between atoms: C_19  and  C_29
    9  A    between atoms: C_19  and  C_31
   10  A    between atoms: O_20  and  C_29
                            x       y       z     vdW  Elec       q    Type
                         _______ _______ _______ _____ _____    ______ ____

>  <TORSDO>
F 10

$$$$
=
 OpenBabel11062415313D

 37 40  0  0  1  0  0  0  0  0999 V2000
  189.0430  179.0980  138.1290 N   0  0  0  0  0  0  0  0  0  0  0  0
  187.2120  176.1410  137.2710 C   0  0  2  0  0  3  0  0  0  0  0  0
  186.1610  175.2940  136.8230 N   0  0  0  0  0  1  0  0  0  0  0  0
  188.1140  178.0580  138.0020 C   0  0  0  0  0  0  0  0  0  0  0  0
  189.6940  176.6460  137.7440 C   0  0  0  0  0  0  0  0  0  0  0  0
  186.9580  177.3910  137.5520 N   0  0  0  0  0  2  0  0  0  0  0  0
  188.6450  175.5690  137.3790 C   0  0  0  0  0  2  0  0  0  0  0  0
  189.3060  177.8390  138.6040 C   0  0  1  0  0  0  0  0  0  0  0  0
  192.2190  176.0960  137.3820 C   0  0  0  0  0  3  0  0  0  0  0  0
  190.9580  176.3750  137.5660 C   0  0  0  0  0  0  0  0  0  0  0  0
  189.0700  177.6050  140.0660 C   0  0  0  0  0  3  0  0  0  0  0  0
  189.9970  177.1500  140.8300 N   0  0  0  0  0  0  0  0  0  0  0  0
  190.4890  177.9580  143.0540 C   0  0  0  0  0  2  0  0  0  0  0  0
  189.7510  176.9270  142.2310 C   0  0  1  0  0  3  0  0  0  0  0  0
  189.6720  178.1180  144.3180 C   0  0  0  0  0  2  0  0  0  0  0  0
  188.2830  177.1220  142.5620 C   0  0  0  0  0  2  0  0  0  0  0  0
  188.2440  177.7560  143.9420 C   0  0  1  0  0  3  0  0  0  0  0  0
  187.5850  176.8430  144.9790 C   0  0  0  0  0  2  0  0  0  0  0  0
  185.7510  178.5170  144.8030 C   0  0  0  0  0  1  0  0  0  0  0  0
  186.4090  177.4930  145.7090 C   0  0  2  0  0  3  0  0  0  0  0  0
  186.8450  178.1420  146.9880 C   0  0  0  0  0  0  0  0  0  0  0  0
  186.2390  179.1060  147.4360 O   0  0  0  0  0  0  0  0  0  0  0  0
  188.0240  177.5930  147.7220 C   0  0  0  0  0  3  0  0  0  0  0  0
  189.1050  178.4440  147.5880 F   0  0  0  0  0  0  0  0  0  0  0  0
  187.7160  177.4410  149.0600 F   0  0  0  0  0  0  0  0  0  0  0  0
  192.3260  174.1960  135.8220 C   0  0  0  0  0  1  0  0  0  0  0  0
  192.7130  175.6500  136.0470 C   0  0  2  0  0  3  0  0  0  0  0  0
  194.2260  175.8750  135.9190 C   0  0  2  0  0  3  0  0  0  0  0  0
  195.8910  172.3090  137.6320 C   0  0  0  0  0  3  0  0  0  0  0  0
  195.0250  174.7870  136.5780 C   0  0  0  0  0  0  0  0  0  0  0  0
  195.6370  175.2380  138.8310 O   0  0  0  0  0  1  0  0  0  0  0  0
  195.9260  174.0650  135.8860 C   0  0  0  0  0  3  0  0  0  0  0  0
  194.7720  174.4820  138.0380 C   0  0  2  0  0  3  0  0  0  0  0  0
  194.9810  173.0130  138.3230 C   0  0  0  0  0  3  0  0  0  0  0  0
  196.7230  172.9830  136.5720 C   0  0  0  0  0  2  0  0  0  0  0  0
  194.6110  177.1350  136.3910 O   0  0  0  0  0  0  0  0  0  0  0  0
  195.2330  177.6980  135.3690 F   0  0  0  0  0  0  0  0  0  0  0  0
  1  8  1  0  0  0  0
  2  3  1  6  0  0  0
  2  7  1  0  0  0  0
  2  6  1  0  0  0  0
  4  1  2  0  0  0  0
  4  8  1  0  0  0  0
  5  8  1  0  0  0  0
  6  4  1  0  0  0  0
  7  5  1  0  0  0  0
  8 11  1  1  0  0  0
  9 10  2  0  0  0  0
 10  5  2  0  0  0  0
 11 12  2  0  0  0  0
 13 15  1  0  0  0  0
 14 12  1  6  0  0  0
 14 16  1  0  0  0  0
 14 13  1  0  0  0  0
 16 17  1  0  0  0  0
 17 15  1  0  0  0  0
 17 18  1  1  0  0  0
 18 20  1  0  0  0  0
 20 19  1  6  0  0  0
 20 21  1  0  0  0  0
 21 22  2  0  0  0  0
 21 23  1  0  0  0  0
 23 25  1  0  0  0  0
 24 23  1  0  0  0  0
 27 26  1  1  0  0  0
 27  9  1  0  0  0  0
 28 27  1  0  0  0  0
 28 36  1  1  0  0  0
 28 30  1  0  0  0  0
 29 34  2  0  0  0  0
 30 33  1  0  0  0  0
 32 35  1  0  0  0  0
 32 30  2  0  0  0  0
 33 34  1  0  0  0  0
 33 31  1  1  0  0  0
 35 29  1  0  0  0  0
 37 36  1  0  0  0  0
M  END
>  <MODEL>
3

>  <REMARK>
 VINA RESULT:      -8.3      2.277      2.728
  Name = 
  10 active torsions:
  status: ('A' for Active; 'I' for Inactive)
    1  A    between atoms: C_1  and  C_27
    2  A    between atoms: C_7  and  C_11
    3  A    between atoms: C_7  and  C_32
    4  A    between atoms: C_9  and  C_29
    5  A    between atoms: C_14  and  N_28
    6  A    between atoms: C_17  and  C_32
    7  A    between atoms: C_17  and  C_37
    8  A    between atoms: C_19  and  C_29
    9  A    between atoms: C_19  and  C_31
   10  A    between atoms: O_20  and  C_29
                            x       y       z     vdW  Elec       q    Type
                         _______ _______ _______ _____ _____    ______ ____

>  <TORSDO>
F 10

$$$$
=
 OpenBabel11062415313D

 37 40  0  0  1  0  0  0  0  0999 V2000
  188.8860  179.2800  137.3070 N   0  0  0  0  0  0  0  0  0  0  0  0
  187.2150  176.1110  137.2790 C   0  0  2  0  0  3  0  0  0  0  0  0
  186.2040  175.1260  137.0970 N   0  0  0  0  0  1  0  0  0  0  0  0
  188.0190  178.1930  137.4790 C   0  0  0  0  0  0  0  0  0  0  0  0
  189.6740  176.8460  137.5060 C   0  0  0  0  0  0  0  0  0  0  0  0
  186.8930  177.3770  137.2560 N   0  0  0  0  0  2  0  0  0  0  0  0
  188.6830  175.6590  137.4610 C   0  0  0  0  0  2  0  0  0  0  0  0
  189.2390  178.1920  138.0640 C   0  0  1  0  0  0  0  0  0  0  0  0
  192.2160  176.3550  137.1810 C   0  0  0  0  0  3  0  0  0  0  0  0
  190.9460  176.6050  137.3450 C   0  0  0  0  0  0  0  0  0  0  0  0
  189.0600  178.3140  139.5480 C   0  0  0  0  0  3  0  0  0  0  0  0
  187.9300  178.6440  140.0620 N   0  0  0  0  0  0  0  0  0  0  0  0
  186.3900  178.3220  141.8960 C   0  0  0  0  0  2  0  0  0  0  0  0
  187.7770  178.7610  141.4880 C   0  0  1  0  0  3  0  0  0  0  0  0
  186.5340  177.8040  143.3110 C   0  0  0  0  0  2  0  0  0  0  0  0
  188.7260  177.8250  142.2130 C   0  0  0  0  0  2  0  0  0  0  0  0
  187.9730  177.3280  143.4370 C   0  0  1  0  0  3  0  0  0  0  0  0
  188.6250  177.7900  144.7430 C   0  0  0  0  0  2  0  0  0  0  0  0
  189.8220  177.0000  146.7770 C   0  0  0  0  0  1  0  0  0  0  0  0
  189.6810  176.8220  145.2770 C   0  0  2  0  0  3  0  0  0  0  0  0
  191.0070  177.0280  144.6070 C   0  0  0  0  0  0  0  0  0  0  0  0
  191.5890  178.1000  144.6940 O   0  0  0  0  0  0  0  0  0  0  0  0
  191.6190  175.9040  143.8380 C   0  0  0  0  0  3  0  0  0  0  0  0
  192.2160  175.0060  144.7030 F   0  0  0  0  0  0  0  0  0  0  0  0
  190.6470  175.2580  143.0980 F   0  0  0  0  0  0  0  0  0  0  0  0
  192.2140  174.1780  136.0330 C   0  0  0  0  0  1  0  0  0  0  0  0
  192.6970  175.6200  135.9750 C   0  0  2  0  0  3  0  0  0  0  0  0
  194.2240  175.7150  135.8480 C   0  0  2  0  0  3  0  0  0  0  0  0
  195.4980  172.0530  137.6870 C   0  0  0  0  0  3  0  0  0  0  0  0
  194.9240  174.5280  136.4420 C   0  0  0  0  0  0  0  0  0  0  0  0
  196.4090  175.0470  138.2250 O   0  0  0  0  0  1  0  0  0  0  0  0
  195.3080  173.4880  135.6770 C   0  0  0  0  0  3  0  0  0  0  0  0
  195.1610  174.4950  137.9360 C   0  0  2  0  0  3  0  0  0  0  0  0
  195.1020  173.0790  138.4570 C   0  0  0  0  0  3  0  0  0  0  0  0
  196.0180  172.3090  136.2960 C   0  0  0  0  0  2  0  0  0  0  0  0
  194.7210  176.9090  136.3820 O   0  0  0  0  0  0  0  0  0  0  0  0
  195.0850  177.6210  135.3280 F   0  0  0  0  0  0  0  0  0  0  0  0
  1  4  2  0  0  0  0
  1  8  1  0  0  0  0
  2  3  1  6  0  0  0
  2  7  1  0  0  0  0
  4  8  1  0  0  0  0
  5  8  1  0  0  0  0
  6  2  1  0  0  0  0
  6  4  1  0  0  0  0
  7  5  1  0  0  0  0
  8 11  1  1  0  0  0
  9 10  2  0  0  0  0
 10  5  2  0  0  0  0
 11 12  2  0  0  0  0
 13 15  1  0  0  0  0
 14 12  1  6  0  0  0
 14 13  1  0  0  0  0
 14 16  1  0  0  0  0
 15 17  1  0  0  0  0
 16 17  1  0  0  0  0
 17 18  1  1  0  0  0
 18 20  1  0  0  0  0
 20 19  1  1  0  0  0
 21 22  2  0  0  0  0
 21 20  1  0  0  0  0
 23 21  1  0  0  0  0
 23 24  1  0  0  0  0
 25 23  1  0  0  0  0
 27 26  1  1  0  0  0
 27  9  1  0  0  0  0
 28 27  1  0  0  0  0
 28 36  1  1  0  0  0
 28 30  1  0  0  0  0
 29 34  2  0  0  0  0
 30 33  1  0  0  0  0
 32 35  1  0  0  0  0
 32 30  2  0  0  0  0
 33 31  1  6  0  0  0
 33 34  1  0  0  0  0
 35 29  1  0  0  0  0
 37 36  1  0  0  0  0
M  END
>  <MODEL>
4

>  <REMARK>
 VINA RESULT:      -8.2      1.774      2.134
  Name = 
  10 active torsions:
  status: ('A' for Active; 'I' for Inactive)
    1  A    between atoms: C_1  and  C_27
    2  A    between atoms: C_7  and  C_11
    3  A    between atoms: C_7  and  C_32
    4  A    between atoms: C_9  and  C_29
    5  A    between atoms: C_14  and  N_28
    6  A    between atoms: C_17  and  C_32
    7  A    between atoms: C_17  and  C_37
    8  A    between atoms: C_19  and  C_29
    9  A    between atoms: C_19  and  C_31
   10  A    between atoms: O_20  and  C_29
                            x       y       z     vdW  Elec       q    Type
                         _______ _______ _______ _____ _____    ______ ____

>  <TORSDO>
F 10

$$$$
=
 OpenBabel11062415313D

 37 40  0  0  1  0  0  0  0  0999 V2000
  189.0560  179.5190  138.0120 N   0  0  0  0  0  0  0  0  0  0  0  0
  189.7930  176.0910  137.2770 C   0  0  2  0  0  3  0  0  0  0  0  0
  190.2470  174.9320  136.5890 N   0  0  0  0  0  1  0  0  0  0  0  0
  189.1640  178.2340  137.4660 C   0  0  0  0  0  0  0  0  0  0  0  0
  189.1720  177.3790  139.4220 C   0  0  0  0  0  0  0  0  0  0  0  0
  189.6430  177.2120  136.6240 N   0  0  0  0  0  2  0  0  0  0  0  0
  189.5230  176.0070  138.7980 C   0  0  0  0  0  2  0  0  0  0  0  0
  188.4530  178.4360  138.6000 C   0  0  1  0  0  0  0  0  0  0  0  0
  189.2850  177.6300  142.0160 C   0  0  0  0  0  3  0  0  0  0  0  0
  189.2260  177.5080  140.7190 C   0  0  0  0  0  0  0  0  0  0  0  0
  186.9990  178.2260  138.2990 C   0  0  0  0  0  3  0  0  0  0  0  0
  186.0830  178.6270  139.1060 N   0  0  0  0  0  0  0  0  0  0  0  0
  184.5350  177.1740  137.9520 C   0  0  0  0  0  2  0  0  0  0  0  0
  184.6920  178.4120  138.8040 C   0  0  1  0  0  3  0  0  0  0  0  0
  183.1560  176.6400  138.2750 C   0  0  0  0  0  2  0  0  0  0  0  0
  183.9000  178.1350  140.0690 C   0  0  0  0  0  2  0  0  0  0  0  0
  182.8460  177.1100  139.6880 C   0  0  1  0  0  3  0  0  0  0  0  0
  181.4250  177.6670  139.8150 C   0  0  0  0  0  2  0  0  0  0  0  0
  180.5940  179.1080  141.6670 C   0  0  0  0  0  1  0  0  0  0  0  0
  181.3730  179.0920  140.3650 C   0  0  2  0  0  3  0  0  0  0  0  0
  180.7540  180.0410  139.3830 C   0  0  0  0  0  0  0  0  0  0  0  0
  179.5800  180.3670  139.4870 O   0  0  0  0  0  0  0  0  0  0  0  0
  181.5900  180.5960  138.2770 C   0  0  0  0  0  3  0  0  0  0  0  0
  182.7940  181.0570  138.7770 F   0  0  0  0  0  0  0  0  0  0  0  0
  181.8250  179.6170  137.3300 F   0  0  0  0  0  0  0  0  0  0  0  0
  190.5760  175.7850  143.0090 C   0  0  0  0  0  1  0  0  0  0  0  0
  190.5340  177.2850  142.7570 C   0  0  2  0  0  3  0  0  0  0  0  0
  190.6410  178.0950  144.0570 C   0  0  2  0  0  3  0  0  0  0  0  0
  187.6000  177.8180  147.0720 C   0  0  0  0  0  3  0  0  0  0  0  0
  189.5750  177.7300  145.0500 C   0  0  0  0  0  0  0  0  0  0  0  0
  190.2300  176.0910  146.6430 O   0  0  0  0  0  1  0  0  0  0  0  0
  188.2770  177.6790  144.6940 C   0  0  0  0  0  3  0  0  0  0  0  0
  189.9780  177.4540  146.4810 C   0  0  2  0  0  3  0  0  0  0  0  0
  188.8900  177.8830  147.4370 C   0  0  0  0  0  3  0  0  0  0  0  0
  187.2250  177.3010  145.7070 C   0  0  0  0  0  2  0  0  0  0  0  0
  190.6510  179.4730  143.8170 O   0  0  0  0  0  0  0  0  0  0  0  0
  191.7860  179.8960  144.3490 F   0  0  0  0  0  0  0  0  0  0  0  0
  1  8  1  0  0  0  0
  2  3  1  1  0  0  0
  2  7  1  0  0  0  0
  4  1  2  0  0  0  0
  4  8  1  0  0  0  0
  5 10  2  0  0  0  0
  6  2  1  0  0  0  0
  6  4  1  0  0  0  0
  7  5  1  0  0  0  0
  8 11  1  6  0  0  0
  8  5  1  0  0  0  0
  9 27  1  0  0  0  0
 10  9  2  0  0  0  0
 11 12  2  0  0  0  0
 13 15  1  0  0  0  0
 13 14  1  0  0  0  0
 14 12  1  1  0  0  0
 14 16  1  0  0  0  0
 15 17  1  0  0  0  0
 17 18  1  6  0  0  0
 17 16  1  0  0  0  0
 18 20  1  0  0  0  0
 20 19  1  1  0  0  0
 21 22  2  0  0  0  0
 21 20  1  0  0  0  0
 23 24  1  0  0  0  0
 23 21  1  0  0  0  0
 25 23  1  0  0  0  0
 27 26  1  1  0  0  0
 27 28  1  0  0  0  0
 28 36  1  6  0  0  0
 28 30  1  0  0  0  0
 29 34  2  0  0  0  0
 30 33  1  0  0  0  0
 32 30  2  0  0  0  0
 32 35  1  0  0  0  0
 33 31  1  6  0  0  0
 33 34  1  0  0  0  0
 35 29  1  0  0  0  0
 36 37  1  0  0  0  0
M  END
>  <MODEL>
5

>  <REMARK>
 VINA RESULT:      -7.8      5.008      9.125
  Name = 
  10 active torsions:
  status: ('A' for Active; 'I' for Inactive)
    1  A    between atoms: C_1  and  C_27
    2  A    between atoms: C_7  and  C_11
    3  A    between atoms: C_7  and  C_32
    4  A    between atoms: C_9  and  C_29
    5  A    between atoms: C_14  and  N_28
    6  A    between atoms: C_17  and  C_32
    7  A    between atoms: C_17  and  C_37
    8  A    between atoms: C_19  and  C_29
    9  A    between atoms: C_19  and  C_31
   10  A    between atoms: O_20  and  C_29
                            x       y       z     vdW  Elec       q    Type
                         _______ _______ _______ _____ _____    ______ ____

>  <TORSDO>
F 10

$$$$
=
 OpenBabel11062415313D

 37 40  0  0  1  0  0  0  0  0999 V2000
  189.0690  179.5540  137.9980 N   0  0  0  0  0  0  0  0  0  0  0  0
  189.8590  176.1540  137.1900 C   0  0  2  0  0  3  0  0  0  0  0  0
  190.3390  175.0190  136.4810 N   0  0  0  0  0  1  0  0  0  0  0  0
  189.2020  178.2840  137.4220 C   0  0  0  0  0  0  0  0  0  0  0  0
  189.1850  177.3800  139.3550 C   0  0  0  0  0  0  0  0  0  0  0  0
  189.7080  177.2900  136.5630 N   0  0  0  0  0  2  0  0  0  0  0  0
  189.5630  176.0280  138.7030 C   0  0  0  0  0  2  0  0  0  0  0  0
  188.4690  178.4500  138.5470 C   0  0  1  0  0  0  0  0  0  0  0  0
  189.2480  177.5660  141.9570 C   0  0  0  0  0  3  0  0  0  0  0  0
  189.2140  177.4760  140.6560 C   0  0  0  0  0  0  0  0  0  0  0  0
  187.0230  178.2310  138.2150 C   0  0  0  0  0  3  0  0  0  0  0  0
  186.0860  178.6490  138.9890 N   0  0  0  0  0  0  0  0  0  0  0  0
  184.5580  177.1240  137.9050 C   0  0  0  0  0  2  0  0  0  0  0  0
  184.7030  178.4260  138.6570 C   0  0  1  0  0  3  0  0  0  0  0  0
  183.1610  176.6340  138.2210 C   0  0  0  0  0  2  0  0  0  0  0  0
  183.8650  178.2640  139.9110 C   0  0  0  0  0  2  0  0  0  0  0  0
  182.8100  177.2220  139.5790 C   0  0  1  0  0  3  0  0  0  0  0  0
  181.3940  177.8040  139.6100 C   0  0  0  0  0  2  0  0  0  0  0  0
  179.2900  177.1610  140.7750 C   0  0  0  0  0  1  0  0  0  0  0  0
  180.7060  177.6700  140.9690 C   0  0  2  0  0  3  0  0  0  0  0  0
  180.6880  178.9730  141.7100 C   0  0  0  0  0  0  0  0  0  0  0  0
  180.3890  180.0110  141.1360 O   0  0  0  0  0  0  0  0  0  0  0  0
  181.0290  178.9920  143.1630 C   0  0  0  0  0  3  0  0  0  0  0  0
  180.3260  178.0060  143.8290 F   0  0  0  0  0  0  0  0  0  0  0  0
  182.3860  178.7870  143.3300 F   0  0  0  0  0  0  0  0  0  0  0  0
  190.4970  175.7240  143.0070 C   0  0  0  0  0  1  0  0  0  0  0  0
  190.4870  177.2160  142.7110 C   0  0  2  0  0  3  0  0  0  0  0  0
  190.6090  178.0610  143.9870 C   0  0  2  0  0  3  0  0  0  0  0  0
  187.6030  177.8730  147.0440 C   0  0  0  0  0  3  0  0  0  0  0  0
  189.5530  177.7260  145.0000 C   0  0  0  0  0  0  0  0  0  0  0  0
  190.2130  176.1160  146.6200 O   0  0  0  0  0  1  0  0  0  0  0  0
  188.2500  177.6790  144.6610 C   0  0  0  0  0  3  0  0  0  0  0  0
  189.9710  177.4770  146.4320 C   0  0  2  0  0  3  0  0  0  0  0  0
  188.8980  177.9360  147.3910 C   0  0  0  0  0  3  0  0  0  0  0  0
  187.2070  177.3320  145.6950 C   0  0  0  0  0  2  0  0  0  0  0  0
  190.6190  179.4330  143.7080 O   0  0  0  0  0  0  0  0  0  0  0  0
  191.8240  179.8390  144.0740 F   0  0  0  0  0  0  0  0  0  0  0  0
  1  8  1  0  0  0  0
  2  3  1  1  0  0  0
  2  7  1  0  0  0  0
  4  1  2  0  0  0  0
  4  8  1  0  0  0  0
  5 10  2  0  0  0  0
  6  2  1  0  0  0  0
  6  4  1  0  0  0  0
  7  5  1  0  0  0  0
  8 11  1  6  0  0  0
  8  5  1  0  0  0  0
  9 27  1  0  0  0  0
 10  9  2  0  0  0  0
 11 12  2  0  0  0  0
 13 15  1  0  0  0  0
 13 14  1  0  0  0  0
 14 12  1  1  0  0  0
 14 16  1  0  0  0  0
 15 17  1  0  0  0  0
 17 18  1  6  0  0  0
 17 16  1  0  0  0  0
 18 20  1  0  0  0  0
 20 19  1  6  0  0  0
 20 21  1  0  0  0  0
 21 23  1  0  0  0  0
 22 21  2  0  0  0  0
 23 25  1  0  0  0  0
 23 24  1  0  0  0  0
 27 26  1  1  0  0  0
 27 28  1  0  0  0  0
 28 36  1  6  0  0  0
 28 30  1  0  0  0  0
 29 34  2  0  0  0  0
 30 33  1  0  0  0  0
 32 30  2  0  0  0  0
 32 35  1  0  0  0  0
 33 31  1  6  0  0  0
 33 34  1  0  0  0  0
 35 29  1  0  0  0  0
 36 37  1  0  0  0  0
M  END
>  <MODEL>
6

>  <REMARK>
 VINA RESULT:      -7.8      4.979      8.771
  Name = 
  10 active torsions:
  status: ('A' for Active; 'I' for Inactive)
    1  A    between atoms: C_1  and  C_27
    2  A    between atoms: C_7  and  C_11
    3  A    between atoms: C_7  and  C_32
    4  A    between atoms: C_9  and  C_29
    5  A    between atoms: C_14  and  N_28
    6  A    between atoms: C_17  and  C_32
    7  A    between atoms: C_17  and  C_37
    8  A    between atoms: C_19  and  C_29
    9  A    between atoms: C_19  and  C_31
   10  A    between atoms: O_20  and  C_29
                            x       y       z     vdW  Elec       q    Type
                         _______ _______ _______ _____ _____    ______ ____

>  <TORSDO>
F 10

$$$$
=
 OpenBabel11062415313D

 37 40  0  0  1  0  0  0  0  0999 V2000
  188.8130  179.5640  137.2940 N   0  0  0  0  0  0  0  0  0  0  0  0
  189.4250  176.0740  136.7650 C   0  0  2  0  0  3  0  0  0  0  0  0
  189.8010  174.8570  136.1320 N   0  0  0  0  0  1  0  0  0  0  0  0
  188.8530  178.2390  136.8400 C   0  0  0  0  0  0  0  0  0  0  0  0
  189.0030  177.5310  138.8480 C   0  0  0  0  0  0  0  0  0  0  0  0
  189.2440  177.1470  136.0430 N   0  0  0  0  0  2  0  0  0  0  0  0
  189.2770  176.1090  138.3040 C   0  0  0  0  0  2  0  0  0  0  0  0
  188.2400  178.5420  138.0080 C   0  0  1  0  0  0  0  0  0  0  0  0
  189.3300  177.9700  141.3990 C   0  0  0  0  0  3  0  0  0  0  0  0
  189.1640  177.7540  140.1230 C   0  0  0  0  0  0  0  0  0  0  0  0
  186.7620  178.3460  137.8400 C   0  0  0  0  0  3  0  0  0  0  0  0
  185.9370  178.6290  138.7830 N   0  0  0  0  0  0  0  0  0  0  0  0
  184.2670  177.0800  137.9770 C   0  0  0  0  0  2  0  0  0  0  0  0
  184.5230  178.4300  138.6070 C   0  0  1  0  0  3  0  0  0  0  0  0
  182.8960  176.6640  138.4670 C   0  0  0  0  0  2  0  0  0  0  0  0
  183.8100  178.3920  139.9460 C   0  0  0  0  0  2  0  0  0  0  0  0
  182.6990  177.3660  139.8020 C   0  0  1  0  0  3  0  0  0  0  0  0
  181.3090  177.9970  139.9250 C   0  0  0  0  0  2  0  0  0  0  0  0
  179.2310  177.5430  141.2180 C   0  0  0  0  0  1  0  0  0  0  0  0
  180.7060  177.8810  141.3250 C   0  0  2  0  0  3  0  0  0  0  0  0
  180.8890  179.1440  142.1120 C   0  0  0  0  0  0  0  0  0  0  0  0
  180.4260  180.2020  141.7070 O   0  0  0  0  0  0  0  0  0  0  0  0
  181.6350  179.0990  143.4040 C   0  0  0  0  0  3  0  0  0  0  0  0
  180.9780  178.2790  144.3030 F   0  0  0  0  0  0  0  0  0  0  0  0
  182.9150  178.6220  143.1910 F   0  0  0  0  0  0  0  0  0  0  0  0
  191.6700  177.3190  141.0060 C   0  0  0  0  0  1  0  0  0  0  0  0
  190.6270  177.6500  142.0630 C   0  0  2  0  0  3  0  0  0  0  0  0
  190.4550  176.5160  143.0840 C   0  0  2  0  0  3  0  0  0  0  0  0
  187.2290  177.9720  145.5110 C   0  0  0  0  0  3  0  0  0  0  0  0
  189.3250  176.7720  144.0390 C   0  0  0  0  0  0  0  0  0  0  0  0
  189.8570  176.3870  146.3240 O   0  0  0  0  0  1  0  0  0  0  0  0
  188.0510  176.4900  143.7050 C   0  0  0  0  0  3  0  0  0  0  0  0
  189.6340  177.3930  145.3830 C   0  0  2  0  0  3  0  0  0  0  0  0
  188.4940  178.2710  145.8430 C   0  0  0  0  0  3  0  0  0  0  0  0
  186.9330  176.7480  144.6850 C   0  0  0  0  0  2  0  0  0  0  0  0
  191.6430  176.2470  143.7730 O   0  0  0  0  0  0  0  0  0  0  0  0
  191.8090  174.9400  143.6550 F   0  0  0  0  0  0  0  0  0  0  0  0
  1  8  1  0  0  0  0
  2  3  1  1  0  0  0
  2  7  1  0  0  0  0
  4  1  2  0  0  0  0
  4  8  1  0  0  0  0
  5 10  2  0  0  0  0
  6  2  1  0  0  0  0
  6  4  1  0  0  0  0
  7  5  1  0  0  0  0
  8 11  1  1  0  0  0
  8  5  1  0  0  0  0
  9 27  1  0  0  0  0
 10  9  2  0  0  0  0
 11 12  2  0  0  0  0
 13 15  1  0  0  0  0
 13 14  1  0  0  0  0
 14 12  1  1  0  0  0
 14 16  1  0  0  0  0
 15 17  1  0  0  0  0
 17 18  1  6  0  0  0
 17 16  1  0  0  0  0
 18 20  1  0  0  0  0
 20 19  1  6  0  0  0
 20 21  1  0  0  0  0
 21 23  1  0  0  0  0
 22 21  2  0  0  0  0
 23 24  1  0  0  0  0
 25 23  1  0  0  0  0
 27 26  1  6  0  0  0
 27 28  1  0  0  0  0
 28 36  1  1  0  0  0
 28 30  1  0  0  0  0
 29 34  2  0  0  0  0
 30 33  1  0  0  0  0
 32 30  2  0  0  0  0
 32 35  1  0  0  0  0
 33 34  1  0  0  0  0
 33 31  1  1  0  0  0
 35 29  1  0  0  0  0
 37 36  1  0  0  0  0
M  END
>  <MODEL>
7

>  <REMARK>
 VINA RESULT:      -7.8      4.835      8.294
  Name = 
  10 active torsions:
  status: ('A' for Active; 'I' for Inactive)
    1  A    between atoms: C_1  and  C_27
    2  A    between atoms: C_7  and  C_11
    3  A    between atoms: C_7  and  C_32
    4  A    between atoms: C_9  and  C_29
    5  A    between atoms: C_14  and  N_28
    6  A    between atoms: C_17  and  C_32
    7  A    between atoms: C_17  and  C_37
    8  A    between atoms: C_19  and  C_29
    9  A    between atoms: C_19  and  C_31
   10  A    between atoms: O_20  and  C_29
                            x       y       z     vdW  Elec       q    Type
                         _______ _______ _______ _____ _____    ______ ____

>  <TORSDO>
F 10

$$$$
=
 OpenBabel11062415313D

 37 40  0  0  1  0  0  0  0  0999 V2000
  189.0570  179.3920  138.4690 N   0  0  0  0  0  0  0  0  0  0  0  0
  190.6730  176.1940  138.4960 C   0  0  2  0  0  3  0  0  0  0  0  0
  191.4900  175.0990  138.1020 N   0  0  0  0  0  1  0  0  0  0  0  0
  189.5480  178.1090  138.1940 C   0  0  0  0  0  0  0  0  0  0  0  0
  189.4190  177.5920  140.2610 C   0  0  0  0  0  0  0  0  0  0  0  0
  190.3830  177.1280  137.6290 N   0  0  0  0  0  2  0  0  0  0  0  0
  190.1750  176.2760  139.9580 C   0  0  0  0  0  2  0  0  0  0  0  0
  188.6270  178.2930  139.1690 C   0  0  1  0  0  0  0  0  0  0  0  0
  189.0290  178.2550  142.7540 C   0  0  0  0  0  3  0  0  0  0  0  0
  189.2210  177.9260  141.5070 C   0  0  0  0  0  0  0  0  0  0  0  0
  187.3330  177.6760  138.7310 C   0  0  0  0  0  3  0  0  0  0  0  0
  186.2120  178.2810  138.8980 N   0  0  0  0  0  0  0  0  0  0  0  0
  183.9010  178.7260  138.3450 C   0  0  0  0  0  2  0  0  0  0  0  0
  184.9780  177.6720  138.4750 C   0  0  1  0  0  3  0  0  0  0  0  0
  182.9540  178.1990  137.2880 C   0  0  0  0  0  2  0  0  0  0  0  0
  185.1190  177.0660  137.0910 C   0  0  0  0  0  2  0  0  0  0  0  0
  183.7860  177.2900  136.3970 C   0  0  1  0  0  3  0  0  0  0  0  0
  183.0700  175.9740  136.0820 C   0  0  0  0  0  2  0  0  0  0  0  0
  183.5820  173.6170  136.6990 C   0  0  0  0  0  1  0  0  0  0  0  0
  183.1170  174.9620  137.2270 C   0  0  2  0  0  3  0  0  0  0  0  0
  181.7820  174.8190  137.8930 C   0  0  0  0  0  0  0  0  0  0  0  0
  180.9290  174.0770  137.4270 O   0  0  0  0  0  0  0  0  0  0  0  0
  181.5040  175.5870  139.1440 C   0  0  0  0  0  3  0  0  0  0  0  0
  180.5930  174.9030  139.9280 F   0  0  0  0  0  0  0  0  0  0  0  0
  182.6760  175.7730  139.8510 F   0  0  0  0  0  0  0  0  0  0  0  0
  191.4670  178.5490  142.9140 C   0  0  0  0  0  1  0  0  0  0  0  0
  190.1790  178.3560  143.7000 C   0  0  2  0  0  3  0  0  0  0  0  0
  190.2400  177.1290  144.6210 C   0  0  2  0  0  3  0  0  0  0  0  0
  187.9570  178.3170  148.0560 C   0  0  0  0  0  3  0  0  0  0  0  0
  189.3670  177.2790  145.8340 C   0  0  0  0  0  0  0  0  0  0  0  0
  189.9870  175.9060  147.6730 O   0  0  0  0  0  1  0  0  0  0  0  0
  188.0430  177.4990  145.7190 C   0  0  0  0  0  3  0  0  0  0  0  0
  190.0080  177.2190  147.2030 C   0  0  2  0  0  3  0  0  0  0  0  0
  189.2780  178.1150  148.1760 C   0  0  0  0  0  3  0  0  0  0  0  0
  187.1860  177.6390  146.9530 C   0  0  0  0  0  2  0  0  0  0  0  0
  191.5530  176.8110  144.9850 O   0  0  0  0  0  0  0  0  0  0  0  0
  191.8040  175.6690  144.3660 F   0  0  0  0  0  0  0  0  0  0  0  0
  1  8  1  0  0  0  0
  2  3  1  1  0  0  0
  2  7  1  0  0  0  0
  4  1  2  0  0  0  0
  4  8  1  0  0  0  0
  5 10  2  0  0  0  0
  6  4  1  0  0  0  0
  6  2  1  0  0  0  0
  7  5  1  0  0  0  0
  8 11  1  6  0  0  0
  8  5  1  0  0  0  0
  9 27  1  0  0  0  0
 10  9  2  0  0  0  0
 11 12  2  0  0  0  0
 13 14  1  0  0  0  0
 14 12  1  6  0  0  0
 15 13  1  0  0  0  0
 16 14  1  0  0  0  0
 17 18  1  1  0  0  0
 17 16  1  0  0  0  0
 17 15  1  0  0  0  0
 18 20  1  0  0  0  0
 20 19  1  6  0  0  0
 20 21  1  0  0  0  0
 21 23  1  0  0  0  0
 22 21  2  0  0  0  0
 23 25  1  0  0  0  0
 23 24  1  0  0  0  0
 27 26  1  6  0  0  0
 27 28  1  0  0  0  0
 28 36  1  1  0  0  0
 28 30  1  0  0  0  0
 29 34  2  0  0  0  0
 30 33  1  0  0  0  0
 32 30  2  0  0  0  0
 32 35  1  0  0  0  0
 33 31  1  1  0  0  0
 33 34  1  0  0  0  0
 35 29  1  0  0  0  0
 37 36  1  0  0  0  0
M  END
>  <MODEL>
8

>  <REMARK>
 VINA RESULT:      -7.7      4.077      9.447
  Name = 
  10 active torsions:
  status: ('A' for Active; 'I' for Inactive)
    1  A    between atoms: C_1  and  C_27
    2  A    between atoms: C_7  and  C_11
    3  A    between atoms: C_7  and  C_32
    4  A    between atoms: C_9  and  C_29
    5  A    between atoms: C_14  and  N_28
    6  A    between atoms: C_17  and  C_32
    7  A    between atoms: C_17  and  C_37
    8  A    between atoms: C_19  and  C_29
    9  A    between atoms: C_19  and  C_31
   10  A    between atoms: O_20  and  C_29
                            x       y       z     vdW  Elec       q    Type
                         _______ _______ _______ _____ _____    ______ ____

>  <TORSDO>
F 10

$$$$
=
 OpenBabel11062415313D

 37 40  0  0  1  0  0  0  0  0999 V2000
  188.5780  178.9700  137.2480 N   0  0  0  0  0  0  0  0  0  0  0  0
  185.9380  176.5820  136.8470 C   0  0  2  0  0  3  0  0  0  0  0  0
  184.6880  176.0090  136.4820 N   0  0  0  0  0  1  0  0  0  0  0  0
  187.3730  178.2550  137.2480 C   0  0  0  0  0  0  0  0  0  0  0  0
  188.4380  176.4160  137.4490 C   0  0  0  0  0  0  0  0  0  0  0  0
  186.0810  177.8800  136.8350 N   0  0  0  0  0  2  0  0  0  0  0  0
  187.1160  175.6490  137.2140 C   0  0  0  0  0  2  0  0  0  0  0  0
  188.4180  177.8330  137.9990 C   0  0  1  0  0  0  0  0  0  0  0  0
  190.6720  175.0680  137.4630 C   0  0  0  0  0  3  0  0  0  0  0  0
  189.5570  175.7450  137.4580 C   0  0  0  0  0  0  0  0  0  0  0  0
  188.0770  178.0220  139.4470 C   0  0  0  0  0  3  0  0  0  0  0  0
  188.9440  178.4550  140.2890 N   0  0  0  0  0  0  0  0  0  0  0  0
  187.1990  178.1190  141.9260 C   0  0  0  0  0  2  0  0  0  0  0  0
  188.6010  178.6260  141.6770 C   0  0  1  0  0  3  0  0  0  0  0  0
  187.1880  177.6740  143.3730 C   0  0  0  0  0  2  0  0  0  0  0  0
  189.4990  177.7840  142.5640 C   0  0  0  0  0  2  0  0  0  0  0  0
  188.6230  177.2960  143.7060 C   0  0  1  0  0  3  0  0  0  0  0  0
  189.0710  177.8560  145.0580 C   0  0  0  0  0  2  0  0  0  0  0  0
  188.8860  176.9850  147.3830 C   0  0  0  0  0  1  0  0  0  0  0  0
  189.5540  176.7830  146.0360 C   0  0  2  0  0  3  0  0  0  0  0  0
  191.0450  176.8080  146.1900 C   0  0  0  0  0  0  0  0  0  0  0  0
  191.7470  177.3890  145.3740 O   0  0  0  0  0  0  0  0  0  0  0  0
  191.6690  176.1230  147.3610 C   0  0  0  0  0  3  0  0  0  0  0  0
  192.7690  175.3920  146.9530 F   0  0  0  0  0  0  0  0  0  0  0  0
  192.0570  177.0590  148.3010 F   0  0  0  0  0  0  0  0  0  0  0  0
  189.9980  173.1070  136.1380 C   0  0  0  0  0  1  0  0  0  0  0  0
  191.0410  174.2020  136.3060 C   0  0  2  0  0  3  0  0  0  0  0  0
  192.4570  173.6330  136.4760 C   0  0  2  0  0  3  0  0  0  0  0  0
  195.8620  175.9890  135.3460 C   0  0  0  0  0  3  0  0  0  0  0  0
  193.5220  174.6600  136.2190 C   0  0  0  0  0  0  0  0  0  0  0  0
  194.4820  175.6000  138.1800 O   0  0  0  0  0  1  0  0  0  0  0  0
  193.4390  175.5050  135.1740 C   0  0  0  0  0  3  0  0  0  0  0  0
  194.7240  174.7070  137.1350 C   0  0  2  0  0  3  0  0  0  0  0  0
  195.9590  175.1370  136.3790 C   0  0  0  0  0  3  0  0  0  0  0  0
  194.5170  176.5340  134.9400 C   0  0  0  0  0  2  0  0  0  0  0  0
  192.6610  172.4920  135.6930 O   0  0  0  0  0  0  0  0  0  0  0  0
  193.3170  171.6570  136.4830 F   0  0  0  0  0  0  0  0  0  0  0  0
  1  4  2  0  0  0  0
  1  8  1  0  0  0  0
  2  3  1  6  0  0  0
  2  7  1  0  0  0  0
  4  8  1  0  0  0  0
  5 10  2  0  0  0  0
  5  8  1  0  0  0  0
  6  2  1  0  0  0  0
  6  4  1  0  0  0  0
  7  5  1  0  0  0  0
  8 11  1  1  0  0  0
 10  9  2  0  0  0  0
 11 12  2  0  0  0  0
 13 15  1  0  0  0  0
 14 12  1  6  0  0  0
 14 13  1  0  0  0  0
 14 16  1  0  0  0  0
 15 17  1  0  0  0  0
 16 17  1  0  0  0  0
 17 18  1  1  0  0  0
 18 20  1  0  0  0  0
 20 21  1  0  0  0  0
 20 19  1  1  0  0  0
 21 23  1  0  0  0  0
 22 21  2  0  0  0  0
 23 25  1  0  0  0  0
 24 23  1  0  0  0  0
 27 26  1  1  0  0  0
 27 28  1  0  0  0  0
 27  9  1  0  0  0  0
 28 36  1  6  0  0  0
 29 34  2  0  0  0  0
 30 28  1  0  0  0  0
 30 33  1  0  0  0  0
 32 30  2  0  0  0  0
 33 31  1  1  0  0  0
 34 33  1  0  0  0  0
 35 32  1  0  0  0  0
 35 29  1  0  0  0  0
 36 37  1  0  0  0  0
M  END
>  <MODEL>
9

>  <REMARK>
 VINA RESULT:      -7.7      1.548      1.978
  Name = 
  10 active torsions:
  status: ('A' for Active; 'I' for Inactive)
    1  A    between atoms: C_1  and  C_27
    2  A    between atoms: C_7  and  C_11
    3  A    between atoms: C_7  and  C_32
    4  A    between atoms: C_9  and  C_29
    5  A    between atoms: C_14  and  N_28
    6  A    between atoms: C_17  and  C_32
    7  A    between atoms: C_17  and  C_37
    8  A    between atoms: C_19  and  C_29
    9  A    between atoms: C_19  and  C_31
   10  A    between atoms: O_20  and  C_29
                            x       y       z     vdW  Elec       q    Type
                         _______ _______ _______ _____ _____    ______ ____

>  <TORSDO>
F 10

$$$$
