=
 OpenBabel11062412463D

 54 62  0  0  1  0  0  0  0  0999 V2000
  187.1210  173.3910  136.1380 C   0  0  0  0  0  0  0  0  0  0  0  0
  187.3900  176.5150  136.7280 C   0  0  0  0  0  0  0  0  0  0  0  0
  188.5810  176.2030  136.1980 C   0  0  0  0  0  0  0  0  0  0  0  0
  185.2900  176.5490  137.3900 C   0  0  0  0  0  0  0  0  0  0  0  0
  188.1290  178.8690  137.3210 C   0  0  0  0  0  3  0  0  0  0  0  0
  185.8580  177.7990  137.6710 C   0  0  0  0  0  0  0  0  0  0  0  0
  187.1190  177.8200  137.2910 C   0  0  1  0  0  3  0  0  0  0  0  0
  187.0390  172.2970  135.6080 O   0  0  0  0  0  0  0  0  0  0  0  0
  183.6100  177.7400  138.3910 C   0  0  2  0  0  3  0  0  0  0  0  0
  183.9710  176.4870  137.7650 O   0  0  0  0  0  0  0  0  0  0  0  0
  189.6270  173.8310  135.6820 N   0  0  0  0  0  0  0  0  0  0  0  0
  189.3310  178.5900  136.7870 C   0  0  0  0  0  3  0  0  0  0  0  0
  186.1440  175.6880  136.8400 C   0  0  0  0  0  0  0  0  0  0  0  0
  188.6450  174.9110  135.4490 C   0  0  1  0  0  3  0  0  0  0  0  0
  185.8710  174.2410  136.3990 C   0  0  2  0  0  3  0  0  0  0  0  0
  188.4440  173.9450  136.5430 C   0  0  1  0  0  3  0  0  0  0  0  0
  184.8540  178.6900  138.2810 C   0  0  0  0  0  2  0  0  0  0  0  0
  189.6800  177.2510  136.1360 C   0  0  0  0  0  3  0  0  0  0  0  0
  183.2100  177.5480  139.8740 C   0  0  1  0  0  0  0  0  0  0  0  0
  181.6990  178.6240  141.2570 O   0  0  0  0  0  1  0  0  0  0  0  0
  184.1570  177.9030  141.0020 C   0  0  2  0  0  0  0  0  0  0  0  0
  182.9280  178.8350  140.6190 C   0  0  1  0  0  0  0  0  0  0  0  0
  182.4240  176.2810  140.2120 C   0  0  0  0  0  1  0  0  0  0  0  0
  185.3920  178.1150  140.3860 O   0  0  0  0  0  1  0  0  0  0  0  0
  183.9340  179.2250  141.6960 C   0  0  1  0  0  3  0  0  0  0  0  0
  182.3100  179.2960  143.4430 O   0  0  0  0  0  0  0  0  0  0  0  0
  183.5060  179.0400  143.1370 C   0  0  0  0  0  0  0  0  0  0  0  0
  184.4530  178.6540  144.2070 C   0  0  0  0  0  0  0  0  0  0  0  0
  184.1010  178.7460  145.5620 C   0  0  0  0  0  3  0  0  0  0  0  0
  186.6300  177.7900  144.8660 C   0  0  0  0  0  3  0  0  0  0  0  0
  186.2690  177.8930  146.2120 C   0  0  0  0  0  3  0  0  0  0  0  0
  185.7260  178.1680  143.8690 C   0  0  0  0  0  3  0  0  0  0  0  0
  185.0040  178.3690  146.5600 C   0  0  0  0  0  3  0  0  0  0  0  0
  185.4370  172.6950  138.2520 O   0  0  0  0  0  1  0  0  0  0  0  0
  183.8150  172.8240  136.5090 C   0  0  0  0  0  1  0  0  0  0  0  0
  184.8470  173.5700  137.3330 C   0  0  2  0  0  3  0  0  0  0  0  0
  190.7110  174.3630  136.4040 N   0  0  0  0  0  2  0  0  0  0  0  0
  192.0910  172.4700  135.6470 C   0  0  0  0  0  1  0  0  0  0  0  0
  191.9640  173.9810  135.7490 C   0  0  2  0  0  3  0  0  0  0  0  0
  192.8480  175.9450  137.0300 C   0  0  2  0  0  3  0  0  0  0  0  0
  193.1820  174.5820  136.4570 C   0  0  2  0  0  3  0  0  0  0  0  0
  193.7460  175.8510  135.8100 C   0  0  1  0  0  3  0  0  0  0  0  0
  192.9830  176.3580  134.5940 C   0  0  0  0  0  1  0  0  0  0  0  0
  193.6560  176.1680  138.2200 N   0  0  0  0  0  2  0  0  0  0  0  0
  193.9640  177.0850  140.3290 O   0  0  0  0  0  0  0  0  0  0  0  0
  193.1820  176.8870  139.3610 C   0  0  0  0  0  0  0  0  0  0  0  0
  191.8010  177.4670  139.3840 C   0  0  0  0  0  2  0  0  0  0  0  0
  189.4970  176.7450  139.9920 C   0  0  0  0  0  1  0  0  0  0  0  0
  190.9310  176.8440  140.4720 C   0  0  2  0  0  3  0  0  0  0  0  0
  190.9720  177.7080  141.7200 C   0  0  0  0  0  2  0  0  0  0  0  0
  191.0480  177.0000  144.1410 C   0  0  0  0  0  0  0  0  0  0  0  0
  191.5860  176.9770  142.8190 N   0  0  0  0  0  2  0  0  0  0  0  0
  191.7210  176.3100  145.1860 N   0  0  0  0  0  1  0  0  0  0  0  0
  189.9910  177.6370  144.3940 O   0  0  0  0  0  0  0  0  0  0  0  0
  1 15  1  0  0  0  0
  2 13  2  0  0  0  0
  2  7  1  0  0  0  0
  3  2  1  0  0  0  0
  4  6  2  0  0  0  0
  4 10  1  0  0  0  0
  6 17  1  0  0  0  0
  7  5  1  6  0  0  0
  7  6  1  0  0  0  0
  8  1  2  0  0  0  0
  9 17  1  1  0  0  0
  9 19  1  0  0  0  0
 10  9  1  0  0  0  0
 11 37  1  0  0  0  0
 11 16  1  0  0  0  0
 12  5  2  0  0  0  0
 13  4  1  0  0  0  0
 14 11  1  0  0  0  0
 14  3  1  1  0  0  0
 14 16  1  0  0  0  0
 15 13  1  0  0  0  0
 15 36  1  1  0  0  0
 16  1  1  6  0  0  0
 18  3  2  0  0  0  0
 18 12  1  0  0  0  0
 19 23  1  1  0  0  0
 19 22  1  0  0  0  0
 19 21  1  0  0  0  0
 21 24  1  6  0  0  0
 21 25  1  0  0  0  0
 22 21  1  0  0  0  0
 22 20  1  1  0  0  0
 22 25  1  0  0  0  0
 25 27  1  1  0  0  0
 27 26  2  0  0  0  0
 27 28  1  0  0  0  0
 28 29  1  0  0  0  0
 29 33  2  0  0  0  0
 30 31  2  0  0  0  0
 31 33  1  0  0  0  0
 32 28  2  0  0  0  0
 32 30  1  0  0  0  0
 36 35  1  6  0  0  0
 36 34  1  0  0  0  0
 39 38  1  1  0  0  0
 39 37  1  0  0  0  0
 40 44  1  1  0  0  0
 41 39  1  6  0  0  0
 41 40  1  0  0  0  0
 42 43  1  6  0  0  0
 42 41  1  0  0  0  0
 42 40  1  0  0  0  0
 44 46  1  0  0  0  0
 46 47  1  0  0  0  0
 46 45  2  0  0  0  0
 47 49  1  0  0  0  0
 49 48  1  6  0  0  0
 49 50  1  0  0  0  0
 50 52  1  0  0  0  0
 51 54  2  0  0  0  0
 51 53  1  0  0  0  0
 52 51  1  0  0  0  0
M  END
>  <MODEL>
1

>  <REMARK>
 VINA RESULT:      -8.5      0.000      0.000
  Name = 
  12 active torsions:
  status: ('A' for Active; 'I' for Inactive)
    1  A    between atoms: C_2  and  N_5
    2  A    between atoms: C_8  and  C_43
    3  A    between atoms: C_10  and  C_32
    4  A    between atoms: C_14  and  C_53
    5  A    between atoms: C_23  and  N_29
    6  A    between atoms: C_23  and  C_40
    7  A    between atoms: N_25  and  N_36
    8  A    between atoms: N_25  and  C_43
    9  A    between atoms: C_26  and  C_47
   10  A    between atoms: C_35  and  C_53
   11  A    between atoms: C_40  and  C_48
   12  A    between atoms: C_48  and  C_54
                            x       y       z     vdW  Elec       q    Type
                         _______ _______ _______ _____ _____    ______ ____

>  <TORSDO>
F 12

$$$$
=
 OpenBabel11062412463D

 54 62  0  0  1  0  0  0  0  0999 V2000
  187.4870  178.3840  139.6250 C   0  0  0  0  0  0  0  0  0  0  0  0
  184.7850  178.6680  141.2980 C   0  0  0  0  0  0  0  0  0  0  0  0
  185.7320  178.6830  142.2470 C   0  0  0  0  0  0  0  0  0  0  0  0
  183.6500  178.7410  139.4130 C   0  0  0  0  0  0  0  0  0  0  0  0
  182.9040  178.5800  143.0000 C   0  0  0  0  0  3  0  0  0  0  0  0
  182.7350  178.6700  140.4720 C   0  0  0  0  0  0  0  0  0  0  0  0
  183.3760  178.6220  141.6220 C   0  0  0  0  0  0  0  0  0  0  0  0
  188.5680  178.5730  139.0960 O   0  0  0  0  0  0  0  0  0  0  0  0
  181.5950  178.7090  138.4050 C   0  0  2  0  0  3  0  0  0  0  0  0
  183.0220  178.7990  138.1940 O   0  0  0  0  0  0  0  0  0  0  0  0
  188.3110  178.1350  142.0620 N   0  0  0  0  0  0  0  0  0  0  0  0
  183.8300  178.6040  143.9740 C   0  0  0  0  0  3  0  0  0  0  0  0
  184.9220  178.7210  139.8060 C   0  0  0  0  0  0  0  0  0  0  0  0
  187.1230  178.9670  141.7780 C   0  0  1  0  0  3  0  0  0  0  0  0
  186.1820  178.7870  138.9270 C   0  0  2  0  0  3  0  0  0  0  0  0
  187.3970  177.7620  140.9760 C   0  0  1  0  0  3  0  0  0  0  0  0
  181.3540  178.6910  139.9550 C   0  0  0  0  0  2  0  0  0  0  0  0
  185.3340  178.6970  143.7140 C   0  0  0  0  0  2  0  0  0  0  0  0
  180.9960  177.4380  137.7550 C   0  0  1  0  0  0  0  0  0  0  0  0
  181.2200  175.1780  138.1970 O   0  0  0  0  0  1  0  0  0  0  0  0
  181.4150  176.9830  136.3720 C   0  0  2  0  0  0  0  0  0  0  0  0
  181.9450  176.2610  137.6860 C   0  0  1  0  0  0  0  0  0  0  0  0
  179.5000  177.2020  137.9670 C   0  0  0  0  0  1  0  0  0  0  0  0
  182.1390  178.0530  135.8420 O   0  0  0  0  0  1  0  0  0  0  0  0
  182.4270  175.8650  136.2950 C   0  0  1  0  0  3  0  0  0  0  0  0
  180.7720  174.7130  135.0180 O   0  0  0  0  0  0  0  0  0  0  0  0
  181.8320  174.6080  135.6930 C   0  0  0  0  0  0  0  0  0  0  0  0
  182.3970  173.2620  135.9370 C   0  0  0  0  0  0  0  0  0  0  0  0
  183.5620  173.0860  136.6990 C   0  0  0  0  0  3  0  0  0  0  0  0
  182.2630  170.8510  135.6430 C   0  0  0  0  0  3  0  0  0  0  0  0
  183.4290  170.6890  136.3980 C   0  0  0  0  0  3  0  0  0  0  0  0
  181.7500  172.1300  135.4140 C   0  0  0  0  0  3  0  0  0  0  0  0
  184.0770  171.8070  136.9270 C   0  0  0  0  0  3  0  0  0  0  0  0
  186.0480  176.6790  137.6830 O   0  0  0  0  0  1  0  0  0  0  0  0
  186.9370  178.5810  136.5540 C   0  0  0  0  0  1  0  0  0  0  0  0
  185.9490  178.0710  137.5840 C   0  0  2  0  0  3  0  0  0  0  0  0
  188.0170  177.2950  143.1520 N   0  0  0  0  0  2  0  0  0  0  0  0
  188.8140  178.0180  145.3660 C   0  0  0  0  0  1  0  0  0  0  0  0
  189.1510  177.2850  144.0780 C   0  0  2  0  0  3  0  0  0  0  0  0
  191.0300  176.8730  142.4710 C   0  0  2  0  0  3  0  0  0  0  0  0
  190.4140  177.8670  143.4360 C   0  0  2  0  0  3  0  0  0  0  0  0
  191.7160  177.1440  143.7980 C   0  0  1  0  0  3  0  0  0  0  0  0
  191.5580  175.9250  144.6950 C   0  0  0  0  0  1  0  0  0  0  0  0
  191.7060  177.6030  141.4090 N   0  0  0  0  0  2  0  0  0  0  0  0
  192.2500  177.9040  139.1730 O   0  0  0  0  0  0  0  0  0  0  0  0
  191.5880  177.2570  140.0270 C   0  0  0  0  0  0  0  0  0  0  0  0
  190.7500  176.0920  139.5960 C   0  0  0  0  0  2  0  0  0  0  0  0
  189.3470  175.5820  137.6020 C   0  0  0  0  0  1  0  0  0  0  0  0
  190.7460  175.9120  138.0810 C   0  0  2  0  0  3  0  0  0  0  0  0
  191.6770  174.7750  137.6970 C   0  0  0  0  0  2  0  0  0  0  0  0
  193.9930  175.6140  137.1460 C   0  0  0  0  0  0  0  0  0  0  0  0
  192.6750  175.2410  136.7440 N   0  0  0  0  0  2  0  0  0  0  0  0
  194.9080  176.1150  136.1800 N   0  0  0  0  0  1  0  0  0  0  0  0
  194.3490  175.5180  138.3510 O   0  0  0  0  0  0  0  0  0  0  0  0
  2  7  1  0  0  0  0
  2  3  2  0  0  0  0
  3 18  1  0  0  0  0
  4 13  2  0  0  0  0
  4  6  1  0  0  0  0
  5 12  2  0  0  0  0
  6  7  2  0  0  0  0
  7  5  1  0  0  0  0
  8  1  2  0  0  0  0
  9 17  1  1  0  0  0
 10  9  1  0  0  0  0
 10  4  1  0  0  0  0
 11 37  1  0  0  0  0
 13  2  1  0  0  0  0
 14 11  1  0  0  0  0
 14  3  1  1  0  0  0
 15 36  1  6  0  0  0
 15  1  1  0  0  0  0
 15 13  1  0  0  0  0
 16  1  1  6  0  0  0
 16 14  1  0  0  0  0
 16 11  1  0  0  0  0
 17  6  1  0  0  0  0
 18 12  1  0  0  0  0
 19 23  1  1  0  0  0
 19  9  1  0  0  0  0
 21 24  1  1  0  0  0
 21 22  1  0  0  0  0
 21 19  1  0  0  0  0
 22 19  1  0  0  0  0
 22 20  1  1  0  0  0
 25 27  1  6  0  0  0
 25 21  1  0  0  0  0
 25 22  1  0  0  0  0
 26 27  2  0  0  0  0
 27 28  1  0  0  0  0
 28 29  1  0  0  0  0
 29 33  2  0  0  0  0
 30 31  2  0  0  0  0
 31 33  1  0  0  0  0
 32 30  1  0  0  0  0
 32 28  2  0  0  0  0
 36 35  1  6  0  0  0
 36 34  1  0  0  0  0
 37 39  1  0  0  0  0
 39 38  1  1  0  0  0
 40 44  1  6  0  0  0
 40 41  1  0  0  0  0
 40 42  1  0  0  0  0
 41 42  1  0  0  0  0
 41 39  1  1  0  0  0
 42 43  1  1  0  0  0
 45 46  2  0  0  0  0
 46 44  1  0  0  0  0
 47 46  1  0  0  0  0
 49 48  1  1  0  0  0
 49 47  1  0  0  0  0
 50 49  1  0  0  0  0
 51 54  2  0  0  0  0
 52 51  1  0  0  0  0
 52 50  1  0  0  0  0
 53 51  1  0  0  0  0
M  END
>  <MODEL>
2

>  <REMARK>
 VINA RESULT:      -8.4      2.378      7.155
  Name = 
  12 active torsions:
  status: ('A' for Active; 'I' for Inactive)
    1  A    between atoms: C_2  and  N_5
    2  A    between atoms: C_8  and  C_43
    3  A    between atoms: C_10  and  C_32
    4  A    between atoms: C_14  and  C_53
    5  A    between atoms: C_23  and  N_29
    6  A    between atoms: C_23  and  C_40
    7  A    between atoms: N_25  and  N_36
    8  A    between atoms: N_25  and  C_43
    9  A    between atoms: C_26  and  C_47
   10  A    between atoms: C_35  and  C_53
   11  A    between atoms: C_40  and  C_48
   12  A    between atoms: C_48  and  C_54
                            x       y       z     vdW  Elec       q    Type
                         _______ _______ _______ _____ _____    ______ ____

>  <TORSDO>
F 12

$$$$
=
 OpenBabel11062412463D

 54 62  0  0  1  0  0  0  0  0999 V2000
  186.4080  178.9310  141.1650 C   0  0  0  0  0  0  0  0  0  0  0  0
  185.5320  177.9790  138.2490 C   0  0  0  0  0  0  0  0  0  0  0  0
  184.3720  178.3530  138.8070 C   0  0  0  0  0  0  0  0  0  0  0  0
  187.6500  177.6450  137.7450 C   0  0  0  0  0  0  0  0  0  0  0  0
  184.3830  177.0350  136.1910 C   0  0  0  0  0  3  0  0  0  0  0  0
  186.8660  177.1500  136.6930 C   0  0  0  0  0  0  0  0  0  0  0  0
  185.5880  177.3290  136.9570 C   0  0  0  0  0  0  0  0  0  0  0  0
  186.6470  179.5800  142.1680 O   0  0  0  0  0  0  0  0  0  0  0  0
  189.1560  176.7910  136.2480 C   0  0  2  0  0  3  0  0  0  0  0  0
  188.9910  177.4840  137.5060 O   0  0  0  0  0  0  0  0  0  0  0  0
  183.8280  178.9510  141.3230 N   0  0  0  0  0  0  0  0  0  0  0  0
  183.2050  177.4070  136.7210 C   0  0  0  0  0  3  0  0  0  0  0  0
  186.9350  178.1470  138.7500 C   0  0  1  0  0  3  0  0  0  0  0  0
  184.4790  179.2160  140.0230 C   0  0  1  0  0  3  0  0  0  0  0  0
  187.4550  178.7750  140.0540 C   0  0  2  0  0  3  0  0  0  0  0  0
  185.0840  178.2730  140.9800 C   0  0  1  0  0  3  0  0  0  0  0  0
  187.7280  176.6090  135.6260 C   0  0  0  0  0  2  0  0  0  0  0  0
  183.0670  178.1360  138.0580 C   0  0  0  0  0  3  0  0  0  0  0  0
  189.8400  175.4140  136.4340 C   0  0  1  0  0  0  0  0  0  0  0  0
  191.1200  174.4990  138.1300 O   0  0  0  0  0  1  0  0  0  0  0  0
  191.0440  175.0100  135.6080 C   0  0  2  0  0  0  0  0  0  0  0  0
  191.1870  175.4700  137.1230 C   0  0  1  0  0  0  0  0  0  0  0  0
  188.9160  174.2170  136.6580 C   0  0  0  0  0  1  0  0  0  0  0  0
  191.1260  175.9660  134.5940 O   0  0  0  0  0  1  0  0  0  0  0  0
  192.4000  175.1430  136.2600 C   0  0  1  0  0  3  0  0  0  0  0  0
  192.4170  172.7600  136.1390 O   0  0  0  0  0  0  0  0  0  0  0  0
  193.0540  173.7940  136.4770 C   0  0  0  0  0  0  0  0  0  0  0  0
  194.3670  173.6420  137.1430 C   0  0  0  0  0  0  0  0  0  0  0  0
  194.7450  174.4730  138.2100 C   0  0  0  0  0  3  0  0  0  0  0  0
  196.4920  172.4740  137.3420 C   0  0  0  0  0  3  0  0  0  0  0  0
  196.8600  173.3120  138.3990 C   0  0  0  0  0  3  0  0  0  0  0  0
  195.2520  172.6380  136.7180 C   0  0  0  0  0  3  0  0  0  0  0  0
  195.9850  174.3100  138.8340 C   0  0  0  0  0  3  0  0  0  0  0  0
  188.5870  176.7140  140.7470 O   0  0  0  0  0  1  0  0  0  0  0  0
  189.2710  178.7560  141.7690 C   0  0  0  0  0  1  0  0  0  0  0  0
  188.7510  178.0840  140.5140 C   0  0  2  0  0  3  0  0  0  0  0  0
  182.7920  178.0210  141.1220 N   0  0  0  0  0  2  0  0  0  0  0  0
  180.7330  179.3000  140.6950 C   0  0  0  0  0  1  0  0  0  0  0  0
  181.5570  178.5350  141.7170 C   0  0  2  0  0  3  0  0  0  0  0  0
  182.4670  178.5740  144.0510 C   0  0  2  0  0  3  0  0  0  0  0  0
  181.8360  179.4010  142.9490 C   0  0  2  0  0  3  0  0  0  0  0  0
  181.0270  179.0310  144.1970 C   0  0  1  0  0  3  0  0  0  0  0  0
  180.1090  177.8260  144.0460 C   0  0  0  0  0  1  0  0  0  0  0  0
  183.3370  179.4300  144.8440 N   0  0  0  0  0  2  0  0  0  0  0  0
  185.3490  179.8470  145.9230 O   0  0  0  0  0  0  0  0  0  0  0  0
  184.6790  179.0750  145.1860 C   0  0  0  0  0  0  0  0  0  0  0  0
  185.2650  177.7700  144.7430 C   0  0  0  0  0  2  0  0  0  0  0  0
  187.3590  176.6550  143.9830 C   0  0  0  0  0  1  0  0  0  0  0  0
  186.7860  177.7500  144.8600 C   0  0  2  0  0  3  0  0  0  0  0  0
  187.1880  177.4850  146.3000 C   0  0  0  0  0  2  0  0  0  0  0  0
  189.3890  177.3320  147.5260 C   0  0  0  0  0  0  0  0  0  0  0  0
  188.5890  177.0930  146.3690 N   0  0  0  0  0  2  0  0  0  0  0  0
  190.7650  176.9770  147.5160 N   0  0  0  0  0  1  0  0  0  0  0  0
  188.8910  177.8670  148.5530 O   0  0  0  0  0  0  0  0  0  0  0  0
  1  8  2  0  0  0  0
  2 13  1  0  0  0  0
  2  3  1  0  0  0  0
  5 12  2  0  0  0  0
  5  7  1  0  0  0  0
  6  7  1  0  0  0  0
  6  4  2  0  0  0  0
  7  2  2  0  0  0  0
  9 17  1  1  0  0  0
  9 19  1  0  0  0  0
  9 10  1  0  0  0  0
 10  4  1  0  0  0  0
 12 18  1  0  0  0  0
 13  4  1  6  0  0  0
 13 15  1  0  0  0  0
 14  3  1  6  0  0  0
 14 16  1  0  0  0  0
 14 11  1  0  0  0  0
 15 36  1  1  0  0  0
 15  1  1  0  0  0  0
 16  1  1  1  0  0  0
 16 11  1  0  0  0  0
 17  6  1  0  0  0  0
 18  3  2  0  0  0  0
 19 23  1  1  0  0  0
 19 22  1  0  0  0  0
 21 24  1  6  0  0  0
 21 25  1  0  0  0  0
 21 19  1  0  0  0  0
 21 22  1  0  0  0  0
 22 20  1  1  0  0  0
 25 27  1  1  0  0  0
 25 22  1  0  0  0  0
 26 27  2  0  0  0  0
 27 28  1  0  0  0  0
 28 29  1  0  0  0  0
 29 33  2  0  0  0  0
 30 31  2  0  0  0  0
 31 33  1  0  0  0  0
 32 28  2  0  0  0  0
 32 30  1  0  0  0  0
 36 34  1  0  0  0  0
 36 35  1  1  0  0  0
 37 11  1  0  0  0  0
 37 39  1  0  0  0  0
 39 38  1  6  0  0  0
 40 42  1  0  0  0  0
 40 44  1  1  0  0  0
 41 39  1  6  0  0  0
 41 40  1  0  0  0  0
 41 42  1  0  0  0  0
 42 43  1  6  0  0  0
 44 46  1  0  0  0  0
 46 45  2  0  0  0  0
 47 49  1  0  0  0  0
 47 46  1  0  0  0  0
 49 48  1  6  0  0  0
 49 50  1  0  0  0  0
 50 52  1  0  0  0  0
 51 54  2  0  0  0  0
 52 51  1  0  0  0  0
 53 51  1  0  0  0  0
M  END
>  <MODEL>
3

>  <REMARK>
 VINA RESULT:      -8.4      3.393      9.432
  Name = 
  12 active torsions:
  status: ('A' for Active; 'I' for Inactive)
    1  A    between atoms: C_2  and  N_5
    2  A    between atoms: C_8  and  C_43
    3  A    between atoms: C_10  and  C_32
    4  A    between atoms: C_14  and  C_53
    5  A    between atoms: C_23  and  N_29
    6  A    between atoms: C_23  and  C_40
    7  A    between atoms: N_25  and  N_36
    8  A    between atoms: N_25  and  C_43
    9  A    between atoms: C_26  and  C_47
   10  A    between atoms: C_35  and  C_53
   11  A    between atoms: C_40  and  C_48
   12  A    between atoms: C_48  and  C_54
                            x       y       z     vdW  Elec       q    Type
                         _______ _______ _______ _____ _____    ______ ____

>  <TORSDO>
F 12

$$$$
=
 OpenBabel11062412463D

 54 62  0  0  1  0  0  0  0  0999 V2000
  185.8940  178.7040  141.2210 C   0  0  0  0  0  0  0  0  0  0  0  0
  182.7900  178.8120  141.9480 C   0  0  0  0  0  0  0  0  0  0  0  0
  183.3840  178.8650  143.1490 C   0  0  0  0  0  0  0  0  0  0  0  0
  182.3100  178.8500  139.7990 C   0  0  0  0  0  0  0  0  0  0  0  0
  180.4740  178.5930  142.9640 C   0  0  0  0  0  3  0  0  0  0  0  0
  181.1110  178.7120  140.5130 C   0  0  0  0  0  0  0  0  0  0  0  0
  181.3550  178.6820  141.8070 C   0  0  0  0  0  0  0  0  0  0  0  0
  187.0750  178.9610  141.0630 O   0  0  0  0  0  0  0  0  0  0  0  0
  180.6860  178.7190  138.1910 C   0  0  2  0  0  3  0  0  0  0  0  0
  182.0990  178.8920  138.4440 O   0  0  0  0  0  0  0  0  0  0  0  0
  185.9150  178.4640  143.7950 N   0  0  0  0  0  0  0  0  0  0  0  0
  181.0400  178.6540  144.1820 C   0  0  0  0  0  3  0  0  0  0  0  0
  183.3900  178.8940  140.5770 C   0  0  0  0  0  0  0  0  0  0  0  0
  184.8330  179.2330  143.1450 C   0  0  1  0  0  3  0  0  0  0  0  0
  184.8570  179.0440  140.1430 C   0  0  2  0  0  3  0  0  0  0  0  0
  185.4160  178.0570  142.4760 C   0  0  1  0  0  3  0  0  0  0  0  0
  179.9670  178.6640  139.5850 C   0  0  0  0  0  2  0  0  0  0  0  0
  182.5400  178.8340  144.4130 C   0  0  0  0  0  2  0  0  0  0  0  0
  180.3980  177.4270  137.3880 C   0  0  1  0  0  0  0  0  0  0  0  0
  180.7810  175.1840  137.8090 O   0  0  0  0  0  1  0  0  0  0  0  0
  181.1640  177.0920  136.1250 C   0  0  2  0  0  0  0  0  0  0  0  0
  181.4700  176.3640  137.5040 C   0  0  1  0  0  0  0  0  0  0  0  0
  178.9310  177.0200  137.2500 C   0  0  0  0  0  1  0  0  0  0  0  0
  181.8570  178.2600  135.8010 O   0  0  0  0  0  1  0  0  0  0  0  0
  182.2920  176.0960  136.2480 C   0  0  1  0  0  3  0  0  0  0  0  0
  181.1110  174.8420  134.5960 O   0  0  0  0  0  0  0  0  0  0  0  0
  181.9960  174.8160  135.4940 C   0  0  0  0  0  0  0  0  0  0  0  0
  182.6410  173.5260  135.8270 C   0  0  0  0  0  0  0  0  0  0  0  0
  183.6080  173.4330  136.8400 C   0  0  0  0  0  3  0  0  0  0  0  0
  182.8620  171.1340  135.4410 C   0  0  0  0  0  3  0  0  0  0  0  0
  183.8290  171.0560  136.4480 C   0  0  0  0  0  3  0  0  0  0  0  0
  182.2710  172.3620  135.1330 C   0  0  0  0  0  3  0  0  0  0  0  0
  184.2000  172.2050  137.1480 C   0  0  0  0  0  3  0  0  0  0  0  0
  184.6070  177.0300  138.7690 O   0  0  0  0  0  1  0  0  0  0  0  0
  186.5890  178.3250  138.4920 C   0  0  0  0  0  1  0  0  0  0  0  0
  185.1040  178.3370  138.7980 C   0  0  2  0  0  3  0  0  0  0  0  0
  185.3390  177.5920  144.7370 N   0  0  0  0  0  2  0  0  0  0  0  0
  185.2060  178.2520  147.1050 C   0  0  0  0  0  1  0  0  0  0  0  0
  186.0780  177.6830  145.9980 C   0  0  2  0  0  3  0  0  0  0  0  0
  188.4680  177.6530  145.2430 C   0  0  2  0  0  3  0  0  0  0  0  0
  187.3650  178.5000  145.8450 C   0  0  2  0  0  3  0  0  0  0  0  0
  188.5380  178.0290  146.7120 C   0  0  1  0  0  3  0  0  0  0  0  0
  188.2700  176.7890  147.5540 C   0  0  0  0  0  1  0  0  0  0  0  0
  189.3560  178.5110  144.4730 N   0  0  0  0  0  2  0  0  0  0  0  0
  191.4780  179.2630  143.9110 O   0  0  0  0  0  0  0  0  0  0  0  0
  190.7800  178.4470  144.5710 C   0  0  0  0  0  0  0  0  0  0  0  0
  191.4440  177.4770  145.5000 C   0  0  0  0  0  2  0  0  0  0  0  0
  192.0810  175.1090  145.9340 C   0  0  0  0  0  1  0  0  0  0  0  0
  191.2690  176.0310  145.0470 C   0  0  2  0  0  3  0  0  0  0  0  0
  191.7480  175.8800  143.6130 C   0  0  0  0  0  2  0  0  0  0  0  0
  190.6020  176.6930  141.5170 C   0  0  0  0  0  0  0  0  0  0  0  0
  190.6150  175.8940  142.6990 N   0  0  0  0  0  2  0  0  0  0  0  0
  189.4460  176.7090  140.6910 N   0  0  0  0  0  1  0  0  0  0  0  0
  191.6010  177.3970  141.2060 O   0  0  0  0  0  0  0  0  0  0  0  0
  2  3  2  0  0  0  0
  3 18  1  0  0  0  0
  4  6  1  0  0  0  0
  4 13  2  0  0  0  0
  5 12  2  0  0  0  0
  6  7  2  0  0  0  0
  7  2  1  0  0  0  0
  7  5  1  0  0  0  0
  8  1  2  0  0  0  0
  9 10  1  0  0  0  0
  9 17  1  1  0  0  0
 10  4  1  0  0  0  0
 11 37  1  0  0  0  0
 12 18  1  0  0  0  0
 13  2  1  0  0  0  0
 14  3  1  1  0  0  0
 14 11  1  0  0  0  0
 15 36  1  6  0  0  0
 15 13  1  0  0  0  0
 15  1  1  0  0  0  0
 16  1  1  6  0  0  0
 16 14  1  0  0  0  0
 16 11  1  0  0  0  0
 17  6  1  0  0  0  0
 19 23  1  1  0  0  0
 19 22  1  0  0  0  0
 19  9  1  0  0  0  0
 21 24  1  1  0  0  0
 21 25  1  0  0  0  0
 21 19  1  0  0  0  0
 21 22  1  0  0  0  0
 22 20  1  6  0  0  0
 25 27  1  6  0  0  0
 25 22  1  0  0  0  0
 26 27  2  0  0  0  0
 27 28  1  0  0  0  0
 28 29  1  0  0  0  0
 29 33  2  0  0  0  0
 30 31  2  0  0  0  0
 31 33  1  0  0  0  0
 32 30  1  0  0  0  0
 32 28  2  0  0  0  0
 34 36  1  0  0  0  0
 36 35  1  1  0  0  0
 37 39  1  0  0  0  0
 39 38  1  1  0  0  0
 40 44  1  6  0  0  0
 40 41  1  0  0  0  0
 40 42  1  0  0  0  0
 41 39  1  1  0  0  0
 41 42  1  0  0  0  0
 42 43  1  1  0  0  0
 44 46  1  0  0  0  0
 45 46  2  0  0  0  0
 46 47  1  0  0  0  0
 49 47  1  0  0  0  0
 49 48  1  1  0  0  0
 50 49  1  0  0  0  0
 51 52  1  0  0  0  0
 52 50  1  0  0  0  0
 53 51  1  0  0  0  0
 54 51  2  0  0  0  0
M  END
>  <MODEL>
4

>  <REMARK>
 VINA RESULT:      -8.4      3.455      8.167
  Name = 
  12 active torsions:
  status: ('A' for Active; 'I' for Inactive)
    1  A    between atoms: C_2  and  N_5
    2  A    between atoms: C_8  and  C_43
    3  A    between atoms: C_10  and  C_32
    4  A    between atoms: C_14  and  C_53
    5  A    between atoms: C_23  and  N_29
    6  A    between atoms: C_23  and  C_40
    7  A    between atoms: N_25  and  N_36
    8  A    between atoms: N_25  and  C_43
    9  A    between atoms: C_26  and  C_47
   10  A    between atoms: C_35  and  C_53
   11  A    between atoms: C_40  and  C_48
   12  A    between atoms: C_48  and  C_54
                            x       y       z     vdW  Elec       q    Type
                         _______ _______ _______ _____ _____    ______ ____

>  <TORSDO>
F 12

$$$$
=
 OpenBabel11062412463D

 54 62  0  0  1  0  0  0  0  0999 V2000
  184.0560  177.0960  136.7040 C   0  0  0  0  0  0  0  0  0  0  0  0
  185.8460  174.5440  136.0240 C   0  0  0  0  0  0  0  0  0  0  0  0
  184.6030  174.0430  136.0540 C   0  0  0  0  0  0  0  0  0  0  0  0
  187.6250  175.8390  135.9440 C   0  0  0  0  0  0  0  0  0  0  0  0
  186.9010  172.2460  135.8010 C   0  0  0  0  0  3  0  0  0  0  0  0
  188.0490  174.5070  135.8500 C   0  0  0  0  0  0  0  0  0  0  0  0
  187.0120  173.6970  135.8960 C   0  0  0  0  0  0  0  0  0  0  0  0
  183.2610  178.0190  136.6670 O   0  0  0  0  0  0  0  0  0  0  0  0
  189.9070  175.9630  135.8140 C   0  0  2  0  0  3  0  0  0  0  0  0
  188.6770  176.7190  135.8930 O   0  0  0  0  0  0  0  0  0  0  0  0
  182.3570  175.1570  136.8910 N   0  0  0  0  0  0  0  0  0  0  0  0
  185.6670  171.7150  135.8180 C   0  0  0  0  0  3  0  0  0  0  0  0
  186.3060  175.9700  136.0790 C   0  0  1  0  0  3  0  0  0  0  0  0
  183.4940  175.0400  135.9540 C   0  0  1  0  0  3  0  0  0  0  0  0
  185.4960  177.2700  136.2050 C   0  0  2  0  0  3  0  0  0  0  0  0
  183.6510  175.7610  137.2290 C   0  0  1  0  0  3  0  0  0  0  0  0
  189.5150  174.4470  135.7090 C   0  0  0  0  0  2  0  0  0  0  0  0
  184.3860  172.5450  135.9070 C   0  0  0  0  0  3  0  0  0  0  0  0
  190.8090  176.2000  137.0490 C   0  0  1  0  0  0  0  0  0  0  0  0
  190.9690  175.1680  139.1140 O   0  0  0  0  0  1  0  0  0  0  0  0
  190.6500  177.4270  137.9230 C   0  0  2  0  0  0  0  0  0  0  0  0
  190.1160  176.0020  138.3800 C   0  0  1  0  0  0  0  0  0  0  0  0
  192.2870  175.8380  136.8960 C   0  0  0  0  0  1  0  0  0  0  0  0
  189.8040  178.2750  137.2060 O   0  0  0  0  0  1  0  0  0  0  0  0
  189.8850  177.2570  139.2140 C   0  0  1  0  0  3  0  0  0  0  0  0
  192.0080  177.6370  140.2360 O   0  0  0  0  0  0  0  0  0  0  0  0
  190.7750  177.4520  140.4240 C   0  0  0  0  0  0  0  0  0  0  0  0
  190.2690  177.3490  141.8120 C   0  0  0  0  0  0  0  0  0  0  0  0
  191.0950  177.6240  142.9120 C   0  0  0  0  0  3  0  0  0  0  0  0
  188.4350  176.8930  143.3430 C   0  0  0  0  0  3  0  0  0  0  0  0
  189.2700  177.1630  144.4310 C   0  0  0  0  0  3  0  0  0  0  0  0
  188.9320  176.9860  142.0400 C   0  0  0  0  0  3  0  0  0  0  0  0
  190.5990  177.5300  144.2150 C   0  0  0  0  0  3  0  0  0  0  0  0
  185.5470  178.9630  137.9770 O   0  0  0  0  0  1  0  0  0  0  0  0
  186.8170  179.3820  136.0030 C   0  0  0  0  0  1  0  0  0  0  0  0
  186.2950  178.3390  136.9720 C   0  0  2  0  0  3  0  0  0  0  0  0
  182.2590  173.9610  137.6250 N   0  0  0  0  0  2  0  0  0  0  0  0
  179.9870  173.0910  137.2490 C   0  0  0  0  0  1  0  0  0  0  0  0
  180.9130  173.8450  138.1890 C   0  0  2  0  0  3  0  0  0  0  0  0
  181.0940  175.8420  139.6930 C   0  0  2  0  0  3  0  0  0  0  0  0
  180.3270  175.2140  138.5460 C   0  0  2  0  0  3  0  0  0  0  0  0
  179.6960  175.3050  139.9400 C   0  0  1  0  0  3  0  0  0  0  0  0
  179.7930  174.0420  140.7830 C   0  0  0  0  0  1  0  0  0  0  0  0
  181.0480  177.2900  139.5550 N   0  0  0  0  0  2  0  0  0  0  0  0
  181.9400  179.3990  139.9300 O   0  0  0  0  0  0  0  0  0  0  0  0
  182.0810  178.1520  140.0380 C   0  0  0  0  0  0  0  0  0  0  0  0
  183.2850  177.5940  140.7330 C   0  0  0  0  0  2  0  0  0  0  0  0
  185.4890  178.5450  141.3970 C   0  0  0  0  0  1  0  0  0  0  0  0
  183.9900  178.6370  141.5950 C   0  0  2  0  0  3  0  0  0  0  0  0
  183.6730  178.3920  143.0600 C   0  0  0  0  0  2  0  0  0  0  0  0
  184.8890  178.7600  145.2410 C   0  0  0  0  0  0  0  0  0  0  0  0
  184.8940  178.4300  143.8530 N   0  0  0  0  0  2  0  0  0  0  0  0
  186.1170  178.8360  145.9510 N   0  0  0  0  0  1  0  0  0  0  0  0
  183.8060  179.0010  145.8410 O   0  0  0  0  0  0  0  0  0  0  0  0
  2  3  1  0  0  0  0
  2 13  1  0  0  0  0
  5 12  2  0  0  0  0
  5  7  1  0  0  0  0
  6  7  1  0  0  0  0
  6  4  2  0  0  0  0
  7  2  2  0  0  0  0
  8  1  2  0  0  0  0
  9 17  1  1  0  0  0
  9 10  1  0  0  0  0
  9 19  1  0  0  0  0
 10  4  1  0  0  0  0
 11 16  1  0  0  0  0
 11 37  1  0  0  0  0
 12 18  1  0  0  0  0
 13  4  1  6  0  0  0
 13 15  1  0  0  0  0
 14  3  1  1  0  0  0
 14 11  1  0  0  0  0
 14 16  1  0  0  0  0
 15  1  1  0  0  0  0
 15 36  1  1  0  0  0
 16  1  1  6  0  0  0
 17  6  1  0  0  0  0
 18  3  2  0  0  0  0
 19 23  1  6  0  0  0
 19 21  1  0  0  0  0
 19 22  1  0  0  0  0
 21 24  1  6  0  0  0
 21 22  1  0  0  0  0
 21 25  1  0  0  0  0
 22 20  1  1  0  0  0
 22 25  1  0  0  0  0
 25 27  1  1  0  0  0
 26 27  2  0  0  0  0
 27 28  1  0  0  0  0
 28 32  2  0  0  0  0
 28 29  1  0  0  0  0
 29 33  2  0  0  0  0
 30 31  2  0  0  0  0
 32 30  1  0  0  0  0
 33 31  1  0  0  0  0
 36 35  1  6  0  0  0
 36 34  1  0  0  0  0
 37 39  1  0  0  0  0
 39 38  1  6  0  0  0
 40 44  1  6  0  0  0
 40 42  1  0  0  0  0
 41 39  1  1  0  0  0
 41 40  1  0  0  0  0
 41 42  1  0  0  0  0
 42 43  1  1  0  0  0
 44 46  1  0  0  0  0
 45 46  2  0  0  0  0
 46 47  1  0  0  0  0
 47 49  1  0  0  0  0
 49 48  1  1  0  0  0
 49 50  1  0  0  0  0
 50 52  1  0  0  0  0
 51 54  2  0  0  0  0
 51 53  1  0  0  0  0
 52 51  1  0  0  0  0
M  END
>  <MODEL>
5

>  <REMARK>
 VINA RESULT:      -7.9      3.095      7.914
  Name = 
  12 active torsions:
  status: ('A' for Active; 'I' for Inactive)
    1  A    between atoms: C_2  and  N_5
    2  A    between atoms: C_8  and  C_43
    3  A    between atoms: C_10  and  C_32
    4  A    between atoms: C_14  and  C_53
    5  A    between atoms: C_23  and  N_29
    6  A    between atoms: C_23  and  C_40
    7  A    between atoms: N_25  and  N_36
    8  A    between atoms: N_25  and  C_43
    9  A    between atoms: C_26  and  C_47
   10  A    between atoms: C_35  and  C_53
   11  A    between atoms: C_40  and  C_48
   12  A    between atoms: C_48  and  C_54
                            x       y       z     vdW  Elec       q    Type
                         _______ _______ _______ _____ _____    ______ ____

>  <TORSDO>
F 12

$$$$
=
 OpenBabel11062412463D

 54 62  0  0  1  0  0  0  0  0999 V2000
  188.6810  178.0830  142.2210 C   0  0  0  0  0  0  0  0  0  0  0  0
  187.7390  177.8820  139.1800 C   0  0  0  0  0  0  0  0  0  0  0  0
  186.6210  178.2540  139.8190 C   0  0  0  0  0  0  0  0  0  0  0  0
  189.8120  177.4290  138.5900 C   0  0  0  0  0  0  0  0  0  0  0  0
  186.5160  177.5330  136.9830 C   0  0  0  0  0  3  0  0  0  0  0  0
  188.9900  177.2610  137.4670 C   0  0  0  0  0  0  0  0  0  0  0  0
  187.7370  177.5210  137.7780 C   0  0  0  0  0  0  0  0  0  0  0  0
  188.9800  178.4720  143.3370 O   0  0  0  0  0  0  0  0  0  0  0  0
  191.2310  176.7520  136.9260 C   0  0  2  0  0  3  0  0  0  0  0  0
  191.1300  177.1740  138.3050 O   0  0  0  0  0  0  0  0  0  0  0  0
  186.1180  178.3560  142.4120 N   0  0  0  0  0  0  0  0  0  0  0  0
  185.3810  177.9120  137.5940 C   0  0  0  0  0  3  0  0  0  0  0  0
  189.1460  177.7800  139.6880 C   0  0  1  0  0  3  0  0  0  0  0  0
  186.8100  178.8190  141.1900 C   0  0  1  0  0  3  0  0  0  0  0  0
  189.7170  178.0530  141.0890 C   0  0  2  0  0  3  0  0  0  0  0  0
  187.2940  177.6320  141.9160 C   0  0  1  0  0  3  0  0  0  0  0  0
  189.7980  176.8680  136.2970 C   0  0  0  0  0  2  0  0  0  0  0  0
  185.3090  178.3490  139.0570 C   0  0  0  0  0  3  0  0  0  0  0  0
  191.7550  175.3010  136.8040 C   0  0  1  0  0  0  0  0  0  0  0  0
  193.3460  174.0900  137.9680 O   0  0  0  0  0  1  0  0  0  0  0  0
  192.6020  174.8600  135.6280 C   0  0  2  0  0  0  0  0  0  0  0  0
  193.2400  175.1460  137.0550 C   0  0  1  0  0  0  0  0  0  0  0  0
  190.7900  174.1890  137.2180 C   0  0  0  0  0  1  0  0  0  0  0  0
  192.5050  175.9000  134.7020 O   0  0  0  0  0  1  0  0  0  0  0  0
  194.0940  174.7850  135.8450 C   0  0  1  0  0  3  0  0  0  0  0  0
  193.8000  172.4590  135.3970 O   0  0  0  0  0  0  0  0  0  0  0  0
  194.6030  173.3600  135.7640 C   0  0  0  0  0  0  0  0  0  0  0  0
  195.9710  172.9770  136.1780 C   0  0  0  0  0  0  0  0  0  0  0  0
  196.9030  173.9380  136.6000 C   0  0  0  0  0  3  0  0  0  0  0  0
  197.6340  171.2430  136.5630 C   0  0  0  0  0  3  0  0  0  0  0  0
  198.5550  172.2110  136.9750 C   0  0  0  0  0  3  0  0  0  0  0  0
  196.3490  171.6250  136.1670 C   0  0  0  0  0  3  0  0  0  0  0  0
  198.1880  173.5580  136.9960 C   0  0  0  0  0  3  0  0  0  0  0  0
  190.5570  175.9110  141.9350 O   0  0  0  0  0  1  0  0  0  0  0  0
  191.8960  177.8500  142.2940 C   0  0  0  0  0  1  0  0  0  0  0  0
  190.9230  177.1400  141.3750 C   0  0  2  0  0  3  0  0  0  0  0  0
  184.9870  177.6120  142.0300 N   0  0  0  0  0  2  0  0  0  0  0  0
  183.1130  179.0120  141.2640 C   0  0  0  0  0  1  0  0  0  0  0  0
  183.7760  178.3220  142.4450 C   0  0  2  0  0  3  0  0  0  0  0  0
  184.1050  178.6190  144.9110 C   0  0  2  0  0  3  0  0  0  0  0  0
  184.0600  179.3220  143.5690 C   0  0  2  0  0  3  0  0  0  0  0  0
  182.9190  179.5050  144.5760 C   0  0  1  0  0  3  0  0  0  0  0  0
  181.6960  178.6280  144.3430 C   0  0  0  0  0  1  0  0  0  0  0  0
  185.0210  179.3330  145.7890 N   0  0  0  0  0  2  0  0  0  0  0  0
  186.9590  179.4330  147.0610 O   0  0  0  0  0  0  0  0  0  0  0  0
  186.2480  178.7710  146.2590 C   0  0  0  0  0  0  0  0  0  0  0  0
  186.6550  177.3820  145.8710 C   0  0  0  0  0  2  0  0  0  0  0  0
  187.6360  177.4540  148.1590 C   0  0  0  0  0  1  0  0  0  0  0  0
  187.7400  176.8210  146.7860 C   0  0  2  0  0  3  0  0  0  0  0  0
  189.1100  177.1280  146.2070 C   0  0  0  0  0  2  0  0  0  0  0  0
  191.4690  176.4120  146.7480 C   0  0  0  0  0  0  0  0  0  0  0  0
  190.1510  176.7700  147.1600 N   0  0  0  0  0  2  0  0  0  0  0  0
  192.4290  176.0190  147.7190 N   0  0  0  0  0  1  0  0  0  0  0  0
  191.7870  176.4280  145.5280 O   0  0  0  0  0  0  0  0  0  0  0  0
  1  8  2  0  0  0  0
  2 13  1  0  0  0  0
  2  3  1  0  0  0  0
  5 12  2  0  0  0  0
  5  7  1  0  0  0  0
  6  7  1  0  0  0  0
  6  4  2  0  0  0  0
  7  2  2  0  0  0  0
  9 17  1  1  0  0  0
  9 10  1  0  0  0  0
 10  4  1  0  0  0  0
 12 18  1  0  0  0  0
 13  4  1  6  0  0  0
 13 15  1  0  0  0  0
 14  3  1  6  0  0  0
 14 16  1  0  0  0  0
 14 11  1  0  0  0  0
 15 36  1  1  0  0  0
 15  1  1  0  0  0  0
 16  1  1  1  0  0  0
 16 11  1  0  0  0  0
 17  6  1  0  0  0  0
 18  3  2  0  0  0  0
 19  9  1  0  0  0  0
 19 22  1  0  0  0  0
 19 23  1  1  0  0  0
 21 24  1  6  0  0  0
 21 25  1  0  0  0  0
 21 19  1  0  0  0  0
 21 22  1  0  0  0  0
 22 20  1  1  0  0  0
 25 27  1  1  0  0  0
 25 22  1  0  0  0  0
 26 27  2  0  0  0  0
 27 28  1  0  0  0  0
 28 29  1  0  0  0  0
 29 33  2  0  0  0  0
 30 31  2  0  0  0  0
 31 33  1  0  0  0  0
 32 28  2  0  0  0  0
 32 30  1  0  0  0  0
 36 34  1  0  0  0  0
 36 35  1  1  0  0  0
 37 11  1  0  0  0  0
 37 39  1  0  0  0  0
 39 38  1  6  0  0  0
 40 44  1  1  0  0  0
 41 39  1  6  0  0  0
 41 42  1  0  0  0  0
 41 40  1  0  0  0  0
 42 43  1  6  0  0  0
 42 40  1  0  0  0  0
 44 46  1  0  0  0  0
 46 45  2  0  0  0  0
 47 46  1  0  0  0  0
 47 49  1  0  0  0  0
 49 48  1  1  0  0  0
 50 49  1  0  0  0  0
 50 52  1  0  0  0  0
 51 52  1  0  0  0  0
 51 53  1  0  0  0  0
 54 51  2  0  0  0  0
M  END
>  <MODEL>
6

>  <REMARK>
 VINA RESULT:      -7.8      3.592      9.981
  Name = 
  12 active torsions:
  status: ('A' for Active; 'I' for Inactive)
    1  A    between atoms: C_2  and  N_5
    2  A    between atoms: C_8  and  C_43
    3  A    between atoms: C_10  and  C_32
    4  A    between atoms: C_14  and  C_53
    5  A    between atoms: C_23  and  N_29
    6  A    between atoms: C_23  and  C_40
    7  A    between atoms: N_25  and  N_36
    8  A    between atoms: N_25  and  C_43
    9  A    between atoms: C_26  and  C_47
   10  A    between atoms: C_35  and  C_53
   11  A    between atoms: C_40  and  C_48
   12  A    between atoms: C_48  and  C_54
                            x       y       z     vdW  Elec       q    Type
                         _______ _______ _______ _____ _____    ______ ____

>  <TORSDO>
F 12

$$$$
=
 OpenBabel11062412463D

 54 62  0  0  1  0  0  0  0  0999 V2000
  184.6470  176.5840  136.5780 C   0  0  0  0  0  0  0  0  0  0  0  0
  187.0880  174.5300  136.6030 C   0  0  0  0  0  0  0  0  0  0  0  0
  186.0600  173.7740  136.1920 C   0  0  0  0  0  0  0  0  0  0  0  0
  188.4410  176.1780  137.1520 C   0  0  0  0  0  0  0  0  0  0  0  0
  188.6450  172.5340  136.7910 C   0  0  0  0  0  3  0  0  0  0  0  0
  189.1610  174.9780  137.2260 C   0  0  0  0  0  0  0  0  0  0  0  0
  188.3840  173.9640  136.9060 C   0  0  1  0  0  3  0  0  0  0  0  0
  183.7280  177.3160  136.2520 O   0  0  0  0  0  0  0  0  0  0  0  0
  190.5350  176.7960  137.8430 C   0  0  2  0  0  3  0  0  0  0  0  0
  189.2180  177.2640  137.4720 O   0  0  0  0  0  0  0  0  0  0  0  0
  183.4740  174.3190  136.1640 N   0  0  0  0  0  0  0  0  0  0  0  0
  187.6350  171.7510  136.3710 C   0  0  0  0  0  3  0  0  0  0  0  0
  187.1660  176.0140  136.8070 C   0  0  0  0  0  0  0  0  0  0  0  0
  184.8620  174.5160  135.6940 C   0  0  1  0  0  3  0  0  0  0  0  0
  186.0920  177.0980  136.6240 C   0  0  2  0  0  3  0  0  0  0  0  0
  184.3970  175.1590  136.9350 C   0  0  1  0  0  3  0  0  0  0  0  0
  190.5570  175.2430  137.6180 C   0  0  0  0  0  2  0  0  0  0  0  0
  186.2530  172.2800  135.9900 C   0  0  0  0  0  3  0  0  0  0  0  0
  190.8700  177.1300  139.3170 C   0  0  1  0  0  0  0  0  0  0  0  0
  190.5510  175.9970  141.3090 O   0  0  0  0  0  1  0  0  0  0  0  0
  190.1300  178.2150  140.0720 C   0  0  2  0  0  0  0  0  0  0  0  0
  189.8300  176.6730  140.3170 C   0  0  1  0  0  0  0  0  0  0  0  0
  192.3510  177.1250  139.6990 C   0  0  0  0  0  1  0  0  0  0  0  0
  189.4060  178.9040  139.0980 O   0  0  0  0  0  1  0  0  0  0  0  0
  189.0320  177.7720  141.0090 C   0  0  1  0  0  3  0  0  0  0  0  0
  190.5520  178.4220  142.7290 O   0  0  0  0  0  0  0  0  0  0  0  0
  189.3750  178.0650  142.4550 C   0  0  0  0  0  0  0  0  0  0  0  0
  188.4100  177.8640  143.5600 C   0  0  0  0  0  0  0  0  0  0  0  0
  188.8430  177.6850  144.8830 C   0  0  0  0  0  3  0  0  0  0  0  0
  186.1070  177.6920  144.3240 C   0  0  0  0  0  3  0  0  0  0  0  0
  186.5500  177.5080  145.6370 C   0  0  0  0  0  3  0  0  0  0  0  0
  187.0320  177.8700  143.2910 C   0  0  0  0  0  3  0  0  0  0  0  0
  187.9190  177.5060  145.9160 C   0  0  0  0  0  3  0  0  0  0  0  0
  185.1550  178.5780  138.3400 O   0  0  0  0  0  1  0  0  0  0  0  0
  186.8050  179.4800  136.8750 C   0  0  0  0  0  1  0  0  0  0  0  0
  186.3090  178.2550  137.6170 C   0  0  2  0  0  3  0  0  0  0  0  0
  183.3990  173.0790  136.8250 N   0  0  0  0  0  2  0  0  0  0  0  0
  182.4870  171.3460  135.3330 C   0  0  0  0  0  1  0  0  0  0  0  0
  182.1830  172.3780  136.4060 C   0  0  2  0  0  3  0  0  0  0  0  0
  180.4450  174.0390  137.1130 C   0  0  2  0  0  3  0  0  0  0  0  0
  181.1000  173.3520  135.9320 C   0  0  2  0  0  3  0  0  0  0  0  0
  179.6720  172.9820  136.3440 C   0  0  1  0  0  3  0  0  0  0  0  0
  179.5440  171.7360  137.2090 C   0  0  0  0  0  1  0  0  0  0  0  0
  180.0050  175.3650  136.7040 N   0  0  0  0  0  2  0  0  0  0  0  0
  179.5140  177.5820  137.1790 O   0  0  0  0  0  0  0  0  0  0  0  0
  179.9600  176.4810  137.5960 C   0  0  0  0  0  0  0  0  0  0  0  0
  180.3640  176.3340  139.0320 C   0  0  0  0  0  2  0  0  0  0  0  0
  182.6930  176.6880  139.8390 C   0  0  0  0  0  1  0  0  0  0  0  0
  181.3990  177.3740  139.4500 C   0  0  2  0  0  3  0  0  0  0  0  0
  180.8840  178.1610  140.6420 C   0  0  0  0  0  2  0  0  0  0  0  0
  181.7250  179.0120  142.8640 C   0  0  0  0  0  0  0  0  0  0  0  0
  181.9270  178.2900  141.6500 N   0  0  0  0  0  2  0  0  0  0  0  0
  182.7970  179.1500  143.7870 N   0  0  0  0  0  1  0  0  0  0  0  0
  180.6100  179.5410  143.1200 O   0  0  0  0  0  0  0  0  0  0  0  0
  1 15  1  0  0  0  0
  2 13  2  0  0  0  0
  2  7  1  0  0  0  0
  3  2  1  0  0  0  0
  4  6  2  0  0  0  0
  4 10  1  0  0  0  0
  6 17  1  0  0  0  0
  7  5  1  6  0  0  0
  7  6  1  0  0  0  0
  8  1  2  0  0  0  0
  9 17  1  1  0  0  0
  9 19  1  0  0  0  0
 10  9  1  0  0  0  0
 11 37  1  0  0  0  0
 11 16  1  0  0  0  0
 12  5  2  0  0  0  0
 13  4  1  0  0  0  0
 14 11  1  0  0  0  0
 14  3  1  1  0  0  0
 14 16  1  0  0  0  0
 15 13  1  0  0  0  0
 15 36  1  1  0  0  0
 16  1  1  6  0  0  0
 18  3  2  0  0  0  0
 18 12  1  0  0  0  0
 19 23  1  1  0  0  0
 19 21  1  0  0  0  0
 19 22  1  0  0  0  0
 21 24  1  6  0  0  0
 21 22  1  0  0  0  0
 21 25  1  0  0  0  0
 22 25  1  0  0  0  0
 22 20  1  1  0  0  0
 25 27  1  1  0  0  0
 27 26  2  0  0  0  0
 27 28  1  0  0  0  0
 28 29  1  0  0  0  0
 29 33  2  0  0  0  0
 30 31  2  0  0  0  0
 31 33  1  0  0  0  0
 32 28  2  0  0  0  0
 32 30  1  0  0  0  0
 36 35  1  6  0  0  0
 36 34  1  0  0  0  0
 39 38  1  6  0  0  0
 39 37  1  0  0  0  0
 40 44  1  6  0  0  0
 41 42  1  0  0  0  0
 41 39  1  1  0  0  0
 41 40  1  0  0  0  0
 42 40  1  0  0  0  0
 42 43  1  1  0  0  0
 44 46  1  0  0  0  0
 45 46  2  0  0  0  0
 46 47  1  0  0  0  0
 47 49  1  0  0  0  0
 49 48  1  1  0  0  0
 49 50  1  0  0  0  0
 50 52  1  0  0  0  0
 51 54  2  0  0  0  0
 51 53  1  0  0  0  0
 52 51  1  0  0  0  0
M  END
>  <MODEL>
7

>  <REMARK>
 VINA RESULT:      -7.7      3.380      7.930
  Name = 
  12 active torsions:
  status: ('A' for Active; 'I' for Inactive)
    1  A    between atoms: C_2  and  N_5
    2  A    between atoms: C_8  and  C_43
    3  A    between atoms: C_10  and  C_32
    4  A    between atoms: C_14  and  C_53
    5  A    between atoms: C_23  and  N_29
    6  A    between atoms: C_23  and  C_40
    7  A    between atoms: N_25  and  N_36
    8  A    between atoms: N_25  and  C_43
    9  A    between atoms: C_26  and  C_47
   10  A    between atoms: C_35  and  C_53
   11  A    between atoms: C_40  and  C_48
   12  A    between atoms: C_48  and  C_54
                            x       y       z     vdW  Elec       q    Type
                         _______ _______ _______ _____ _____    ______ ____

>  <TORSDO>
F 12

$$$$
=
 OpenBabel11062412463D

 54 62  0  0  1  0  0  0  0  0999 V2000
  184.2510  178.4320  138.7500 C   0  0  0  0  0  0  0  0  0  0  0  0
  186.9110  176.9890  137.7410 C   0  0  0  0  0  0  0  0  0  0  0  0
  186.0200  176.6820  136.7880 C   0  0  0  0  0  0  0  0  0  0  0  0
  188.0050  177.8660  139.4390 C   0  0  0  0  0  0  0  0  0  0  0  0
  188.6750  175.4490  136.7630 C   0  0  0  0  0  3  0  0  0  0  0  0
  188.8550  176.9590  138.7910 C   0  0  0  0  0  0  0  0  0  0  0  0
  188.2360  176.4090  137.7680 C   0  0  0  0  0  0  0  0  0  0  0  0
  183.2810  179.1600  138.8720 O   0  0  0  0  0  0  0  0  0  0  0  0
  189.9430  177.9150  140.6560 C   0  0  2  0  0  3  0  0  0  0  0  0
  188.6150  178.4680  140.5110 O   0  0  0  0  0  0  0  0  0  0  0  0
  183.3980  177.0170  136.7620 N   0  0  0  0  0  0  0  0  0  0  0  0
  187.8070  175.1290  135.7880 C   0  0  0  0  0  3  0  0  0  0  0  0
  186.7920  177.9390  138.8950 C   0  0  1  0  0  3  0  0  0  0  0  0
  184.7860  177.5250  136.7510 C   0  0  1  0  0  3  0  0  0  0  0  0
  185.6140  178.8240  139.3350 C   0  0  2  0  0  3  0  0  0  0  0  0
  184.1450  177.1380  138.0190 C   0  0  1  0  0  3  0  0  0  0  0  0
  190.1720  176.9310  139.4550 C   0  0  0  0  0  2  0  0  0  0  0  0
  186.4070  175.7310  135.6670 C   0  0  0  0  0  3  0  0  0  0  0  0
  190.1120  177.1680  142.0010 C   0  0  1  0  0  0  0  0  0  0  0  0
  188.6250  176.5330  143.6560 O   0  0  0  0  0  1  0  0  0  0  0  0
  190.8080  177.8120  143.1830 C   0  0  2  0  0  0  0  0  0  0  0  0
  189.2260  177.6780  143.1180 C   0  0  1  0  0  0  0  0  0  0  0  0
  190.4590  175.6810  141.9190 C   0  0  0  0  0  1  0  0  0  0  0  0
  191.4180  178.9560  142.6650 O   0  0  0  0  0  1  0  0  0  0  0  0
  189.9300  178.3990  144.2620 C   0  0  1  0  0  3  0  0  0  0  0  0
  190.9920  176.7980  145.6760 O   0  0  0  0  0  0  0  0  0  0  0  0
  190.0650  177.6460  145.5690 C   0  0  0  0  0  0  0  0  0  0  0  0
  189.1060  177.8050  146.6850 C   0  0  0  0  0  0  0  0  0  0  0  0
  189.5450  178.0230  148.0000 C   0  0  0  0  0  3  0  0  0  0  0  0
  186.8060  177.9150  147.4690 C   0  0  0  0  0  3  0  0  0  0  0  0
  187.2560  178.1240  148.7760 C   0  0  0  0  0  3  0  0  0  0  0  0
  187.7260  177.7570  146.4290 C   0  0  0  0  0  3  0  0  0  0  0  0
  188.6260  178.1800  149.0410 C   0  0  0  0  0  3  0  0  0  0  0  0
  186.1860  177.9250  141.5420 O   0  0  0  0  0  1  0  0  0  0  0  0
  184.1840  179.2040  141.3480 C   0  0  0  0  0  1  0  0  0  0  0  0
  185.6060  179.0020  140.8640 C   0  0  2  0  0  3  0  0  0  0  0  0
  183.4180  175.6580  136.4020 N   0  0  0  0  0  2  0  0  0  0  0  0
  181.8710  176.7020  134.7970 C   0  0  0  0  0  1  0  0  0  0  0  0
  182.3750  175.4040  135.4060 C   0  0  2  0  0  3  0  0  0  0  0  0
  181.6620  173.8400  137.2290 C   0  0  2  0  0  3  0  0  0  0  0  0
  181.2170  174.5900  135.9890 C   0  0  2  0  0  3  0  0  0  0  0  0
  181.4060  173.0700  135.9450 C   0  0  1  0  0  3  0  0  0  0  0  0
  182.7370  172.5950  135.3810 C   0  0  0  0  0  1  0  0  0  0  0  0
  180.5240  173.6920  138.1260 N   0  0  0  0  0  2  0  0  0  0  0  0
  179.1750  174.4690  139.8460 O   0  0  0  0  0  0  0  0  0  0  0  0
  180.1380  174.6970  139.0660 C   0  0  0  0  0  0  0  0  0  0  0  0
  180.9090  175.9760  139.1840 C   0  0  0  0  0  2  0  0  0  0  0  0
  180.1270  177.9300  137.8530 C   0  0  0  0  0  1  0  0  0  0  0  0
  180.0010  177.2010  139.1750 C   0  0  2  0  0  3  0  0  0  0  0  0
  180.4000  178.1460  140.2960 C   0  0  0  0  0  2  0  0  0  0  0  0
  180.2110  178.2890  142.8080 C   0  0  0  0  0  0  0  0  0  0  0  0
  179.8720  177.6720  141.5670 N   0  0  0  0  0  2  0  0  0  0  0  0
  179.7090  177.7490  144.0230 N   0  0  0  0  0  1  0  0  0  0  0  0
  180.9630  179.3000  142.8390 O   0  0  0  0  0  0  0  0  0  0  0  0
  1  8  2  0  0  0  0
  1 15  1  0  0  0  0
  2  7  2  0  0  0  0
  3  2  1  0  0  0  0
  4 10  1  0  0  0  0
  5  7  1  0  0  0  0
  6  4  2  0  0  0  0
  6 17  1  0  0  0  0
  7  6  1  0  0  0  0
  9 17  1  6  0  0  0
  9 19  1  0  0  0  0
 10  9  1  0  0  0  0
 11 16  1  0  0  0  0
 12  5  2  0  0  0  0
 13  2  1  6  0  0  0
 13 15  1  0  0  0  0
 13  4  1  0  0  0  0
 14 11  1  0  0  0  0
 14  3  1  6  0  0  0
 14 16  1  0  0  0  0
 15 36  1  1  0  0  0
 16  1  1  1  0  0  0
 18 12  1  0  0  0  0
 18  3  2  0  0  0  0
 19 23  1  6  0  0  0
 19 22  1  0  0  0  0
 19 21  1  0  0  0  0
 21 24  1  6  0  0  0
 21 25  1  0  0  0  0
 22 21  1  0  0  0  0
 22 20  1  1  0  0  0
 22 25  1  0  0  0  0
 25 27  1  1  0  0  0
 27 26  2  0  0  0  0
 27 28  1  0  0  0  0
 28 29  1  0  0  0  0
 29 33  2  0  0  0  0
 30 31  2  0  0  0  0
 31 33  1  0  0  0  0
 32 28  2  0  0  0  0
 32 30  1  0  0  0  0
 36 35  1  1  0  0  0
 36 34  1  0  0  0  0
 37 11  1  0  0  0  0
 39 38  1  1  0  0  0
 39 37  1  0  0  0  0
 40 44  1  1  0  0  0
 41 39  1  6  0  0  0
 41 40  1  0  0  0  0
 42 43  1  6  0  0  0
 42 41  1  0  0  0  0
 42 40  1  0  0  0  0
 44 46  1  0  0  0  0
 46 47  1  0  0  0  0
 46 45  2  0  0  0  0
 49 48  1  6  0  0  0
 49 47  1  0  0  0  0
 49 50  1  0  0  0  0
 50 52  1  0  0  0  0
 51 54  2  0  0  0  0
 51 53  1  0  0  0  0
 52 51  1  0  0  0  0
M  END
>  <MODEL>
8

>  <REMARK>
 VINA RESULT:      -7.4      3.917      8.102
  Name = 
  12 active torsions:
  status: ('A' for Active; 'I' for Inactive)
    1  A    between atoms: C_2  and  N_5
    2  A    between atoms: C_8  and  C_43
    3  A    between atoms: C_10  and  C_32
    4  A    between atoms: C_14  and  C_53
    5  A    between atoms: C_23  and  N_29
    6  A    between atoms: C_23  and  C_40
    7  A    between atoms: N_25  and  N_36
    8  A    between atoms: N_25  and  C_43
    9  A    between atoms: C_26  and  C_47
   10  A    between atoms: C_35  and  C_53
   11  A    between atoms: C_40  and  C_48
   12  A    between atoms: C_48  and  C_54
                            x       y       z     vdW  Elec       q    Type
                         _______ _______ _______ _____ _____    ______ ____

>  <TORSDO>
F 12

$$$$
=
 OpenBabel11062412463D

 54 62  0  0  1  0  0  0  0  0999 V2000
  188.5480  178.2940  139.2280 C   0  0  0  0  0  0  0  0  0  0  0  0
  185.6320  178.5060  140.5040 C   0  0  0  0  0  0  0  0  0  0  0  0
  186.4350  178.8170  141.5310 C   0  0  0  0  0  0  0  0  0  0  0  0
  184.7590  178.0890  138.5260 C   0  0  0  0  0  0  0  0  0  0  0  0
  183.5610  178.4710  141.9720 C   0  0  0  0  0  3  0  0  0  0  0  0
  183.7240  178.0850  139.4720 C   0  0  0  0  0  0  0  0  0  0  0  0
  184.2060  178.3300  140.6720 C   0  0  0  0  0  0  0  0  0  0  0  0
  189.6630  178.5300  138.7950 O   0  0  0  0  0  0  0  0  0  0  0  0
  182.8740  177.6020  137.3230 C   0  0  2  0  0  3  0  0  0  0  0  0
  184.2980  177.8440  137.2570 O   0  0  0  0  0  0  0  0  0  0  0  0
  189.0610  178.5960  141.7430 N   0  0  0  0  0  0  0  0  0  0  0  0
  184.3400  178.7920  143.0200 C   0  0  0  0  0  3  0  0  0  0  0  0
  185.9610  178.3100  139.0550 C   0  0  0  0  0  0  0  0  0  0  0  0
  187.8360  179.1970  141.1730 C   0  0  1  0  0  3  0  0  0  0  0  0
  187.3120  178.3870  138.3240 C   0  0  2  0  0  3  0  0  0  0  0  0
  188.3480  177.9160  140.6550 C   0  0  1  0  0  3  0  0  0  0  0  0
  182.4310  177.8290  138.8110 C   0  0  0  0  0  2  0  0  0  0  0  0
  185.8450  179.0380  142.9150 C   0  0  0  0  0  2  0  0  0  0  0  0
  182.5120  176.1670  136.8680 C   0  0  1  0  0  0  0  0  0  0  0  0
  180.5900  175.2210  135.9940 O   0  0  0  0  0  1  0  0  0  0  0  0
  182.3480  175.0380  137.8650 C   0  0  2  0  0  0  0  0  0  0  0  0
  181.0950  175.7450  137.1910 C   0  0  1  0  0  0  0  0  0  0  0  0
  183.1870  175.6630  135.5920 C   0  0  0  0  0  1  0  0  0  0  0  0
  182.8510  175.5390  139.0660 O   0  0  0  0  0  1  0  0  0  0  0  0
  180.9390  174.6660  138.2570 C   0  0  1  0  0  3  0  0  0  0  0  0
  179.4070  172.8520  138.0190 O   0  0  0  0  0  0  0  0  0  0  0  0
  180.5700  173.2760  137.7800 C   0  0  0  0  0  0  0  0  0  0  0  0
  181.5430  172.3730  137.1260 C   0  0  0  0  0  0  0  0  0  0  0  0
  182.9000  172.3800  137.4810 C   0  0  0  0  0  3  0  0  0  0  0  0
  182.0070  170.6070  135.5180 C   0  0  0  0  0  3  0  0  0  0  0  0
  183.3580  170.6290  135.8760 C   0  0  0  0  0  3  0  0  0  0  0  0
  181.1040  171.4740  136.1400 C   0  0  0  0  0  3  0  0  0  0  0  0
  183.8040  171.5140  136.8600 C   0  0  0  0  0  3  0  0  0  0  0  0
  188.1610  176.3060  137.3460 O   0  0  0  0  0  1  0  0  0  0  0  0
  187.8030  178.1550  135.8850 C   0  0  0  0  0  1  0  0  0  0  0  0
  187.3420  177.4190  137.1280 C   0  0  2  0  0  3  0  0  0  0  0  0
  188.7190  177.9320  142.9350 N   0  0  0  0  0  2  0  0  0  0  0  0
  187.9510  175.6110  143.2290 C   0  0  0  0  0  1  0  0  0  0  0  0
  189.1020  176.5220  142.8330 C   0  0  2  0  0  3  0  0  0  0  0  0
  191.1130  177.4820  143.9780 C   0  0  2  0  0  3  0  0  0  0  0  0
  190.3520  176.2110  143.6610 C   0  0  2  0  0  3  0  0  0  0  0  0
  191.6820  176.5090  142.9610 C   0  0  1  0  0  3  0  0  0  0  0  0
  191.5660  177.1200  141.5720 C   0  0  0  0  0  1  0  0  0  0  0  0
  191.7970  177.3180  145.2520 N   0  0  0  0  0  2  0  0  0  0  0  0
  191.7810  176.8510  147.5250 O   0  0  0  0  0  0  0  0  0  0  0  0
  191.1280  176.9160  146.4500 C   0  0  0  0  0  0  0  0  0  0  0  0
  189.6540  176.6470  146.4530 C   0  0  0  0  0  2  0  0  0  0  0  0
  188.1010  177.4990  148.2030 C   0  0  0  0  0  1  0  0  0  0  0  0
  188.8480  177.8500  146.9330 C   0  0  2  0  0  3  0  0  0  0  0  0
  187.8430  178.2540  145.8680 C   0  0  0  0  0  2  0  0  0  0  0  0
  185.4610  178.7350  146.5510 C   0  0  0  0  0  0  0  0  0  0  0  0
  186.5070  177.8130  146.2450 N   0  0  0  0  0  2  0  0  0  0  0  0
  184.1920  178.2470  146.9660 N   0  0  0  0  0  1  0  0  0  0  0  0
  185.6560  179.9770  146.4730 O   0  0  0  0  0  0  0  0  0  0  0  0
  2  7  1  0  0  0  0
  2  3  2  0  0  0  0
  3 18  1  0  0  0  0
  4 13  2  0  0  0  0
  4  6  1  0  0  0  0
  5 12  2  0  0  0  0
  6  7  2  0  0  0  0
  7  5  1  0  0  0  0
  8  1  2  0  0  0  0
  9 17  1  1  0  0  0
 10  9  1  0  0  0  0
 10  4  1  0  0  0  0
 11 37  1  0  0  0  0
 13  2  1  0  0  0  0
 14  3  1  1  0  0  0
 14 11  1  0  0  0  0
 15 36  1  6  0  0  0
 15 13  1  0  0  0  0
 15  1  1  0  0  0  0
 16  1  1  6  0  0  0
 16 14  1  0  0  0  0
 16 11  1  0  0  0  0
 17  6  1  0  0  0  0
 18 12  1  0  0  0  0
 19 23  1  6  0  0  0
 19 22  1  0  0  0  0
 19  9  1  0  0  0  0
 19 21  1  0  0  0  0
 21 25  1  0  0  0  0
 21 24  1  1  0  0  0
 22 20  1  6  0  0  0
 22 21  1  0  0  0  0
 22 25  1  0  0  0  0
 25 27  1  6  0  0  0
 27 26  2  0  0  0  0
 28 29  1  0  0  0  0
 28 27  1  0  0  0  0
 30 31  2  0  0  0  0
 30 32  1  0  0  0  0
 31 33  1  0  0  0  0
 32 28  2  0  0  0  0
 33 29  2  0  0  0  0
 36 35  1  6  0  0  0
 36 34  1  0  0  0  0
 39 37  1  0  0  0  0
 39 38  1  1  0  0  0
 40 44  1  1  0  0  0
 41 39  1  6  0  0  0
 41 40  1  0  0  0  0
 42 43  1  6  0  0  0
 42 41  1  0  0  0  0
 42 40  1  0  0  0  0
 44 46  1  0  0  0  0
 46 47  1  0  0  0  0
 46 45  2  0  0  0  0
 47 49  1  0  0  0  0
 49 48  1  1  0  0  0
 50 52  1  0  0  0  0
 50 49  1  0  0  0  0
 51 53  1  0  0  0  0
 52 51  1  0  0  0  0
 54 51  2  0  0  0  0
M  END
>  <MODEL>
9

>  <REMARK>
 VINA RESULT:      -7.2      3.368      7.108
  Name = 
  12 active torsions:
  status: ('A' for Active; 'I' for Inactive)
    1  A    between atoms: C_2  and  N_5
    2  A    between atoms: C_8  and  C_43
    3  A    between atoms: C_10  and  C_32
    4  A    between atoms: C_14  and  C_53
    5  A    between atoms: C_23  and  N_29
    6  A    between atoms: C_23  and  C_40
    7  A    between atoms: N_25  and  N_36
    8  A    between atoms: N_25  and  C_43
    9  A    between atoms: C_26  and  C_47
   10  A    between atoms: C_35  and  C_53
   11  A    between atoms: C_40  and  C_48
   12  A    between atoms: C_48  and  C_54
                            x       y       z     vdW  Elec       q    Type
                         _______ _______ _______ _____ _____    ______ ____

>  <TORSDO>
F 12

$$$$
