=
 OpenBabel11062413193D

 30 35  0  0  1  0  0  0  0  0999 V2000
  187.3220  177.4490  146.7210 C   0  0  0  0  0  2  0  0  0  0  0  0
  191.4520  176.1930  146.4810 C   0  0  0  0  0  2  0  0  0  0  0  0
  189.5290  177.2070  147.6740 N   0  0  0  0  0  0  0  0  0  0  0  0
  189.0850  176.7320  140.7610 C   0  0  0  0  0  1  0  0  0  0  0  0
  189.3740  177.0380  145.3120 N   0  0  0  0  0  2  0  0  0  0  0  0
  190.9890  177.0770  147.6390 C   0  0  0  0  0  2  0  0  0  0  0  0
  191.2740  176.1160  143.8890 C   0  0  2  0  0  3  0  0  0  0  0  0
  190.7880  176.6930  145.2090 C   0  0  2  0  0  0  0  0  0  0  0  0
  191.6380  177.5590  144.2950 C   0  0  2  0  0  3  0  0  0  0  0  0
  190.2100  176.9060  141.7580 C   0  0  2  0  0  0  0  0  0  0  0  0
  190.8510  178.6340  143.5380 C   0  0  0  0  0  2  0  0  0  0  0  0
  188.7940  177.2610  146.6010 C   0  0  0  0  0  0  0  0  0  0  0  0
  190.1650  176.0140  142.9330 N   0  0  0  0  0  2  0  0  0  0  0  0
  192.6530  177.1530  141.8790 F   0  0  0  0  0  0  0  0  0  0  0  0
  190.5090  178.3630  142.0590 C   0  0  1  0  0  3  0  0  0  0  0  0
  191.5000  177.5290  141.2140 C   0  0  2  0  0  3  0  0  0  0  0  0
  186.7230  177.2660  145.4700 O   0  0  0  0  0  0  0  0  0  0  0  0
  186.5390  178.5550  144.9570 C   0  0  1  0  0  3  0  0  0  0  0  0
  184.1970  178.7950  145.8740 C   0  0  0  0  0  2  0  0  0  0  0  0
  185.9640  178.4700  143.5730 C   0  0  0  0  0  0  0  0  0  0  0  0
  182.2620  178.7540  144.2920 C   0  0  0  0  0  3  0  0  0  0  0  0
  181.7220  178.6310  143.0090 C   0  0  0  0  0  0  0  0  0  0  0  0
  186.7400  178.3240  142.5920 O   0  0  0  0  0  0  0  0  0  0  0  0
  185.6150  179.3660  145.8740 C   0  0  0  0  0  2  0  0  0  0  0  0
  184.5000  178.5140  143.3730 C   0  0  0  0  0  0  0  0  0  0  0  0
  183.6470  178.7090  144.4800 C   0  0  0  0  0  0  0  0  0  0  0  0
  183.9500  178.3940  142.0890 C   0  0  0  0  0  3  0  0  0  0  0  0
  182.5650  178.4510  141.9090 C   0  0  0  0  0  3  0  0  0  0  0  0
  179.1540  178.7290  142.6690 N   0  0  0  0  0  0  0  0  0  0  0  0
  180.3000  178.6850  142.8210 C   0  0  0  0  0  0  0  0  0  0  0  0
  2  6  1  0  0  0  0
  5 12  1  0  0  0  0
  6  3  1  0  0  0  0
  7 13  1  6  0  0  0
  7  9  1  0  0  0  0
  7  8  1  0  0  0  0
  8  5  1  0  0  0  0
  8  2  1  1  0  0  0
  9 11  1  6  0  0  0
  9  8  1  0  0  0  0
 10  4  1  6  0  0  0
 10 15  1  0  0  0  0
 10 13  1  0  0  0  0
 12  1  1  0  0  0  0
 12  3  2  0  0  0  0
 15 11  1  1  0  0  0
 16 10  1  0  0  0  0
 16 14  1  1  0  0  0
 16 15  1  0  0  0  0
 17  1  1  0  0  0  0
 18 17  1  1  0  0  0
 18 24  1  0  0  0  0
 20 18  1  0  0  0  0
 21 26  1  0  0  0  0
 22 21  2  0  0  0  0
 23 20  2  0  0  0  0
 24 19  1  0  0  0  0
 25 20  1  0  0  0  0
 25 26  2  0  0  0  0
 26 19  1  0  0  0  0
 27 25  1  0  0  0  0
 28 27  2  0  0  0  0
 28 22  1  0  0  0  0
 29 30  3  0  0  0  0
 30 22  1  0  0  0  0
M  END
>  <MODEL>
1

>  <REMARK>
 VINA RESULT:      -9.3      0.000      0.000
  Name = 
  4 active torsions:
  status: ('A' for Active; 'I' for Inactive)
    1  A    between atoms: C_3  and  O_18
    2  A    between atoms: C_12  and  O_18
    3  A    between atoms: C_12  and  C_19
    4  A    between atoms: C_16  and  C_29
                            x       y       z     vdW  Elec       q    Type
                         _______ _______ _______ _____ _____    ______ ____

>  <TORSDO>
F 4

$$$$
=
 OpenBabel11062413193D

 30 35  0  0  1  0  0  0  0  0999 V2000
  185.5660  178.6930  145.9500 C   0  0  0  0  0  2  0  0  0  0  0  0
  189.1560  176.7020  147.3090 C   0  0  0  0  0  2  0  0  0  0  0  0
  187.1780  178.1550  147.6670 N   0  0  0  0  0  0  0  0  0  0  0  0
  189.1910  177.0960  141.1080 C   0  0  0  0  0  1  0  0  0  0  0  0
  187.8620  177.7870  145.4250 N   0  0  0  0  0  2  0  0  0  0  0  0
  188.4920  177.7630  148.1870 C   0  0  0  0  0  2  0  0  0  0  0  0
  189.9190  176.4060  144.8430 C   0  0  2  0  0  3  0  0  0  0  0  0
  189.1150  177.1860  145.8700 C   0  0  2  0  0  0  0  0  0  0  0  0
  190.3950  177.7940  145.3210 C   0  0  2  0  0  3  0  0  0  0  0  0
  189.8870  177.1620  142.4500 C   0  0  2  0  0  0  0  0  0  0  0  0
  190.1720  178.9130  144.2980 C   0  0  0  0  0  2  0  0  0  0  0  0
  186.9110  178.2350  146.3970 C   0  0  0  0  0  0  0  0  0  0  0  0
  189.2380  176.4110  143.5430 N   0  0  0  0  0  2  0  0  0  0  0  0
  192.1140  176.9790  143.4740 F   0  0  0  0  0  0  0  0  0  0  0  0
  190.3440  178.5640  142.8070 C   0  0  1  0  0  3  0  0  0  0  0  0
  191.3840  177.4880  142.4160 C   0  0  2  0  0  3  0  0  0  0  0  0
  185.3110  178.2120  144.6620 O   0  0  0  0  0  0  0  0  0  0  0  0
  185.0850  179.3520  143.8810 C   0  0  1  0  0  3  0  0  0  0  0  0
  182.5880  178.9960  143.7390 C   0  0  0  0  0  2  0  0  0  0  0  0
  185.1950  178.9970  142.4270 C   0  0  0  0  0  0  0  0  0  0  0  0
  181.5830  178.2850  141.5630 C   0  0  0  0  0  3  0  0  0  0  0  0
  181.6890  177.9110  140.2200 C   0  0  0  0  0  0  0  0  0  0  0  0
  186.3290  178.9970  141.8770 O   0  0  0  0  0  0  0  0  0  0  0  0
  183.7020  179.9410  144.1870 C   0  0  0  0  0  2  0  0  0  0  0  0
  183.9900  178.6110  141.6630 C   0  0  0  0  0  0  0  0  0  0  0  0
  182.7240  178.6460  142.2850 C   0  0  0  0  0  0  0  0  0  0  0  0
  184.0870  178.2370  140.3150 C   0  0  0  0  0  3  0  0  0  0  0  0
  182.9400  177.8880  139.5970 C   0  0  0  0  0  3  0  0  0  0  0  0
  179.5650  177.2540  138.8870 N   0  0  0  0  0  0  0  0  0  0  0  0
  180.5130  177.5470  139.4820 C   0  0  0  0  0  0  0  0  0  0  0  0
  1 12  1  0  0  0  0
  2  6  1  0  0  0  0
  3  6  1  0  0  0  0
  5  8  1  0  0  0  0
  5 12  1  0  0  0  0
  7 13  1  6  0  0  0
  7  9  1  0  0  0  0
  7  8  1  0  0  0  0
  8  2  1  1  0  0  0
  9 11  1  6  0  0  0
  9  8  1  0  0  0  0
 10  4  1  6  0  0  0
 10 15  1  0  0  0  0
 10 13  1  0  0  0  0
 12  3  2  0  0  0  0
 15 11  1  1  0  0  0
 16 10  1  0  0  0  0
 16 15  1  0  0  0  0
 16 14  1  1  0  0  0
 17  1  1  0  0  0  0
 18 24  1  0  0  0  0
 18 17  1  1  0  0  0
 19 24  1  0  0  0  0
 20 18  1  0  0  0  0
 21 26  1  0  0  0  0
 22 21  2  0  0  0  0
 23 20  2  0  0  0  0
 25 26  2  0  0  0  0
 25 20  1  0  0  0  0
 26 19  1  0  0  0  0
 27 25  1  0  0  0  0
 28 22  1  0  0  0  0
 28 27  2  0  0  0  0
 29 30  3  0  0  0  0
 30 22  1  0  0  0  0
M  END
>  <MODEL>
2

>  <REMARK>
 VINA RESULT:      -8.8      1.607      2.143
  Name = 
  4 active torsions:
  status: ('A' for Active; 'I' for Inactive)
    1  A    between atoms: C_3  and  O_18
    2  A    between atoms: C_12  and  O_18
    3  A    between atoms: C_12  and  C_19
    4  A    between atoms: C_16  and  C_29
                            x       y       z     vdW  Elec       q    Type
                         _______ _______ _______ _____ _____    ______ ____

>  <TORSDO>
F 4

$$$$
=
 OpenBabel11062413193D

 30 35  0  0  1  0  0  0  0  0999 V2000
  191.7010  177.0890  141.2230 C   0  0  0  0  0  2  0  0  0  0  0  0
  189.5160  178.2020  137.6620 C   0  0  0  0  0  2  0  0  0  0  0  0
  189.7860  178.0710  140.1240 N   0  0  0  0  0  0  0  0  0  0  0  0
  193.7340  173.8570  136.2680 C   0  0  0  0  0  1  0  0  0  0  0  0
  191.1410  176.6360  138.8050 N   0  0  0  0  0  2  0  0  0  0  0  0
  188.8310  178.2620  139.0270 C   0  0  0  0  0  2  0  0  0  0  0  0
  190.9540  176.5450  136.2680 C   0  0  2  0  0  3  0  0  0  0  0  0
  190.3600  176.9400  137.6100 C   0  0  2  0  0  0  0  0  0  0  0  0
  189.7680  175.7570  136.8630 C   0  0  2  0  0  3  0  0  0  0  0  0
  192.3570  174.4700  136.1270 C   0  0  2  0  0  0  0  0  0  0  0  0
  190.1570  174.3910  137.4380 C   0  0  0  0  0  2  0  0  0  0  0  0
  190.8080  177.2680  140.0450 C   0  0  0  0  0  0  0  0  0  0  0  0
  192.2620  175.9070  136.4510 N   0  0  0  0  0  2  0  0  0  0  0  0
  190.4370  174.5570  134.5950 F   0  0  0  0  0  0  0  0  0  0  0  0
  191.2630  173.5980  136.7130 C   0  0  1  0  0  3  0  0  0  0  0  0
  191.3940  173.7470  135.1800 C   0  0  2  0  0  3  0  0  0  0  0  0
  191.0970  177.6410  142.3570 O   0  0  0  0  0  0  0  0  0  0  0  0
  190.8850  176.5620  143.2230 C   0  0  1  0  0  3  0  0  0  0  0  0
  188.3730  176.5850  142.9470 C   0  0  0  0  0  2  0  0  0  0  0  0
  190.7110  177.0680  144.6260 C   0  0  0  0  0  0  0  0  0  0  0  0
  186.9480  177.3600  144.8490 C   0  0  0  0  0  3  0  0  0  0  0  0
  186.7870  177.8730  146.1390 C   0  0  0  0  0  0  0  0  0  0  0  0
  191.7320  177.2770  145.3360 O   0  0  0  0  0  0  0  0  0  0  0  0
  189.6510  175.7630  142.7850 C   0  0  0  0  0  2  0  0  0  0  0  0
  189.3600  177.3580  145.1500 C   0  0  0  0  0  0  0  0  0  0  0  0
  188.2270  177.0900  144.3530 C   0  0  0  0  0  0  0  0  0  0  0  0
  189.1890  177.8700  146.4440 C   0  0  0  0  0  3  0  0  0  0  0  0
  187.9070  178.1270  146.9360 C   0  0  0  0  0  3  0  0  0  0  0  0
  184.4100  178.3580  147.0530 N   0  0  0  0  0  0  0  0  0  0  0  0
  185.4710  178.1420  146.6450 C   0  0  0  0  0  0  0  0  0  0  0  0
  1 17  1  0  0  0  0
  2  6  1  0  0  0  0
  5 12  1  0  0  0  0
  6  3  1  0  0  0  0
  7 13  1  1  0  0  0
  7  9  1  0  0  0  0
  7  8  1  0  0  0  0
  8  2  1  1  0  0  0
  8  5  1  0  0  0  0
  9 11  1  1  0  0  0
  9  8  1  0  0  0  0
 10  4  1  1  0  0  0
 10 13  1  0  0  0  0
 10 15  1  0  0  0  0
 12  3  2  0  0  0  0
 12  1  1  0  0  0  0
 15 11  1  1  0  0  0
 16 14  1  1  0  0  0
 16 10  1  0  0  0  0
 16 15  1  0  0  0  0
 18 17  1  6  0  0  0
 18 20  1  0  0  0  0
 19 26  1  0  0  0  0
 20 25  1  0  0  0  0
 20 23  2  0  0  0  0
 21 22  1  0  0  0  0
 22 30  1  0  0  0  0
 22 28  2  0  0  0  0
 24 19  1  0  0  0  0
 24 18  1  0  0  0  0
 25 27  2  0  0  0  0
 26 21  2  0  0  0  0
 26 25  1  0  0  0  0
 27 28  1  0  0  0  0
 30 29  3  0  0  0  0
M  END
>  <MODEL>
3

>  <REMARK>
 VINA RESULT:      -8.8      4.005      6.809
  Name = 
  4 active torsions:
  status: ('A' for Active; 'I' for Inactive)
    1  A    between atoms: C_3  and  O_18
    2  A    between atoms: C_12  and  O_18
    3  A    between atoms: C_12  and  C_19
    4  A    between atoms: C_16  and  C_29
                            x       y       z     vdW  Elec       q    Type
                         _______ _______ _______ _____ _____    ______ ____

>  <TORSDO>
F 4

$$$$
=
 OpenBabel11062413193D

 30 35  0  0  1  0  0  0  0  0999 V2000
  188.1890  178.4050  147.4540 C   0  0  0  0  0  2  0  0  0  0  0  0
  191.6930  176.0030  146.6430 C   0  0  0  0  0  2  0  0  0  0  0  0
  190.3290  177.4830  148.0930 N   0  0  0  0  0  0  0  0  0  0  0  0
  188.8700  177.4710  141.3050 C   0  0  0  0  0  1  0  0  0  0  0  0
  189.8260  177.4730  145.7740 N   0  0  0  0  0  2  0  0  0  0  0  0
  191.6680  176.9310  147.8570 C   0  0  0  0  0  2  0  0  0  0  0  0
  191.1630  176.0990  144.1000 C   0  0  2  0  0  3  0  0  0  0  0  0
  191.0480  176.7330  145.4760 C   0  0  2  0  0  0  0  0  0  0  0  0
  191.9900  177.3520  144.4580 C   0  0  2  0  0  3  0  0  0  0  0  0
  190.1150  177.2620  142.1390 C   0  0  2  0  0  0  0  0  0  0  0  0
  191.4670  178.6440  143.8210 C   0  0  0  0  0  2  0  0  0  0  0  0
  189.5110  177.7980  147.1320 C   0  0  0  0  0  0  0  0  0  0  0  0
  189.9600  176.3700  143.3050 N   0  0  0  0  0  2  0  0  0  0  0  0
  192.5150  176.7750  141.9230 F   0  0  0  0  0  0  0  0  0  0  0  0
  190.8700  178.5520  142.4020 C   0  0  1  0  0  3  0  0  0  0  0  0
  191.4500  177.5030  141.4250 C   0  0  2  0  0  3  0  0  0  0  0  0
  187.4770  178.6300  146.2710 O   0  0  0  0  0  0  0  0  0  0  0  0
  186.5330  177.5980  146.2090 C   0  0  1  0  0  3  0  0  0  0  0  0
  186.5780  177.4470  143.6870 C   0  0  0  0  0  2  0  0  0  0  0  0
  185.1520  178.1830  146.1260 C   0  0  0  0  0  0  0  0  0  0  0  0
  184.6020  178.2540  142.3860 C   0  0  0  0  0  3  0  0  0  0  0  0
  183.3350  178.8390  142.3040 C   0  0  0  0  0  0  0  0  0  0  0  0
  184.5530  178.5000  147.1880 O   0  0  0  0  0  0  0  0  0  0  0  0
  186.8080  176.6970  144.9990 C   0  0  0  0  0  2  0  0  0  0  0  0
  184.5250  178.4210  144.8100 C   0  0  0  0  0  0  0  0  0  0  0  0
  185.1960  178.0320  143.6310 C   0  0  0  0  0  0  0  0  0  0  0  0
  183.2530  179.0050  144.7190 C   0  0  0  0  0  3  0  0  0  0  0  0
  182.6620  179.2140  143.4700 C   0  0  0  0  0  3  0  0  0  0  0  0
  182.2370  179.2350  139.9900 N   0  0  0  0  0  0  0  0  0  0  0  0
  182.7270  179.0580  141.0230 C   0  0  0  0  0  0  0  0  0  0  0  0
  2  6  1  0  0  0  0
  5 12  1  0  0  0  0
  6  3  1  0  0  0  0
  7 13  1  6  0  0  0
  7  9  1  0  0  0  0
  7  8  1  0  0  0  0
  8  5  1  0  0  0  0
  8  2  1  1  0  0  0
  9 11  1  6  0  0  0
  9  8  1  0  0  0  0
 10  4  1  6  0  0  0
 10 15  1  0  0  0  0
 10 13  1  0  0  0  0
 12  1  1  0  0  0  0
 12  3  2  0  0  0  0
 15 11  1  1  0  0  0
 16 14  1  1  0  0  0
 16 10  1  0  0  0  0
 16 15  1  0  0  0  0
 17  1  1  0  0  0  0
 18 17  1  6  0  0  0
 19 24  1  0  0  0  0
 20 18  1  0  0  0  0
 20 23  2  0  0  0  0
 21 26  1  0  0  0  0
 22 21  2  0  0  0  0
 22 28  1  0  0  0  0
 24 18  1  0  0  0  0
 25 20  1  0  0  0  0
 26 19  1  0  0  0  0
 26 25  2  0  0  0  0
 27 25  1  0  0  0  0
 28 27  2  0  0  0  0
 29 30  3  0  0  0  0
 30 22  1  0  0  0  0
M  END
>  <MODEL>
4

>  <REMARK>
 VINA RESULT:      -8.6      1.399      2.031
  Name = 
  4 active torsions:
  status: ('A' for Active; 'I' for Inactive)
    1  A    between atoms: C_3  and  O_18
    2  A    between atoms: C_12  and  O_18
    3  A    between atoms: C_12  and  C_19
    4  A    between atoms: C_16  and  C_29
                            x       y       z     vdW  Elec       q    Type
                         _______ _______ _______ _____ _____    ______ ____

>  <TORSDO>
F 4

$$$$
=
 OpenBabel11062413193D

 30 35  0  0  1  0  0  0  0  0999 V2000
  182.0840  178.7910  144.3410 C   0  0  0  0  0  2  0  0  0  0  0  0
  179.4910  179.5920  140.9740 C   0  0  0  0  0  2  0  0  0  0  0  0
  179.8930  178.9350  143.3320 N   0  0  0  0  0  0  0  0  0  0  0  0
  185.2790  178.5530  138.9670 C   0  0  0  0  0  1  0  0  0  0  0  0
  181.7360  178.8120  141.8410 N   0  0  0  0  0  2  0  0  0  0  0  0
  178.9310  178.9160  142.2250 C   0  0  0  0  0  2  0  0  0  0  0  0
  181.5160  179.3510  139.3630 C   0  0  2  0  0  3  0  0  0  0  0  0
  180.8610  179.0000  140.6890 C   0  0  2  0  0  0  0  0  0  0  0  0
  180.9300  177.9430  139.6000 C   0  0  2  0  0  3  0  0  0  0  0  0
  183.7790  178.3990  138.8420 C   0  0  2  0  0  0  0  0  0  0  0  0
  181.9890  176.8610  139.8390 C   0  0  0  0  0  2  0  0  0  0  0  0
  181.1770  178.8160  143.1590 C   0  0  0  0  0  0  0  0  0  0  0  0
  182.9730  179.4360  139.5160 N   0  0  0  0  0  2  0  0  0  0  0  0
  182.0250  177.9300  137.1850 F   0  0  0  0  0  0  0  0  0  0  0  0
  183.3140  176.9720  139.0580 C   0  0  1  0  0  3  0  0  0  0  0  0
  183.2850  177.5870  137.6400 C   0  0  2  0  0  3  0  0  0  0  0  0
  183.3170  178.2420  143.9740 O   0  0  0  0  0  0  0  0  0  0  0  0
  184.2550  179.2550  144.2080 C   0  0  1  0  0  3  0  0  0  0  0  0
  185.8800  178.4200  142.4630 C   0  0  0  0  0  2  0  0  0  0  0  0
  185.2130  178.8150  145.2770 C   0  0  0  0  0  0  0  0  0  0  0  0
  188.0220  177.3640  143.2020 C   0  0  0  0  0  3  0  0  0  0  0  0
  188.8960  176.9150  144.1960 C   0  0  0  0  0  0  0  0  0  0  0  0
  184.9080  178.9880  146.4870 O   0  0  0  0  0  0  0  0  0  0  0  0
  185.0090  179.5910  142.9160 C   0  0  0  0  0  2  0  0  0  0  0  0
  186.4800  178.1490  144.9100 C   0  0  0  0  0  0  0  0  0  0  0  0
  186.8220  177.9910  143.5500 C   0  0  0  0  0  0  0  0  0  0  0  0
  187.3640  177.6970  145.9010 C   0  0  0  0  0  3  0  0  0  0  0  0
  188.5670  177.0820  145.5440 C   0  0  0  0  0  3  0  0  0  0  0  0
  191.1240  175.7640  143.5400 N   0  0  0  0  0  0  0  0  0  0  0  0
  190.1300  176.2780  143.8330 C   0  0  0  0  0  0  0  0  0  0  0  0
  2  6  1  0  0  0  0
  5 12  1  0  0  0  0
  6  3  1  0  0  0  0
  7 13  1  1  0  0  0
  7  9  1  0  0  0  0
  7  8  1  0  0  0  0
  8  2  1  1  0  0  0
  8  5  1  0  0  0  0
  9 11  1  1  0  0  0
  9  8  1  0  0  0  0
 10  4  1  1  0  0  0
 10 15  1  0  0  0  0
 10 13  1  0  0  0  0
 12  3  2  0  0  0  0
 12  1  1  0  0  0  0
 15 11  1  1  0  0  0
 16 14  1  1  0  0  0
 16 10  1  0  0  0  0
 16 15  1  0  0  0  0
 17  1  1  0  0  0  0
 18 17  1  6  0  0  0
 18 20  1  0  0  0  0
 19 24  1  0  0  0  0
 19 26  1  0  0  0  0
 20 23  2  0  0  0  0
 21 26  2  0  0  0  0
 21 22  1  0  0  0  0
 22 28  2  0  0  0  0
 24 18  1  0  0  0  0
 25 20  1  0  0  0  0
 25 27  2  0  0  0  0
 26 25  1  0  0  0  0
 28 27  1  0  0  0  0
 29 30  3  0  0  0  0
 30 22  1  0  0  0  0
M  END
>  <MODEL>
5

>  <REMARK>
 VINA RESULT:      -8.6      3.157      8.325
  Name = 
  4 active torsions:
  status: ('A' for Active; 'I' for Inactive)
    1  A    between atoms: C_3  and  O_18
    2  A    between atoms: C_12  and  O_18
    3  A    between atoms: C_12  and  C_19
    4  A    between atoms: C_16  and  C_29
                            x       y       z     vdW  Elec       q    Type
                         _______ _______ _______ _____ _____    ______ ____

>  <TORSDO>
F 4

$$$$
=
 OpenBabel11062413193D

 30 35  0  0  1  0  0  0  0  0999 V2000
  192.1070  177.7240  141.1830 C   0  0  0  0  0  2  0  0  0  0  0  0
  191.5390  175.5250  137.5030 C   0  0  0  0  0  2  0  0  0  0  0  0
  192.9630  176.6430  139.1980 N   0  0  0  0  0  0  0  0  0  0  0  0
  186.2090  178.2510  139.1660 C   0  0  0  0  0  1  0  0  0  0  0  0
  190.6530  177.1870  139.1920 N   0  0  0  0  0  2  0  0  0  0  0  0
  192.9010  176.1410  137.8210 C   0  0  0  0  0  2  0  0  0  0  0  0
  189.0360  176.2240  137.4780 C   0  0  2  0  0  3  0  0  0  0  0  0
  190.4640  176.5180  137.9090 C   0  0  2  0  0  0  0  0  0  0  0  0
  189.8460  177.3440  136.7930 C   0  0  2  0  0  3  0  0  0  0  0  0
  187.2200  177.8320  138.1220 C   0  0  2  0  0  0  0  0  0  0  0  0
  189.4290  178.7580  137.2140 C   0  0  0  0  0  2  0  0  0  0  0  0
  191.9480  177.1890  139.8020 C   0  0  0  0  0  0  0  0  0  0  0  0
  188.0840  176.6940  138.4920 N   0  0  0  0  0  2  0  0  0  0  0  0
  187.4230  177.3710  135.7160 F   0  0  0  0  0  0  0  0  0  0  0  0
  187.9340  179.0110  137.4880 C   0  0  1  0  0  3  0  0  0  0  0  0
  186.8890  178.2120  136.6750 C   0  0  2  0  0  3  0  0  0  0  0  0
  190.8490  177.8800  141.7730 O   0  0  0  0  0  0  0  0  0  0  0  0
  190.6810  176.7520  142.5840 C   0  0  1  0  0  3  0  0  0  0  0  0
  188.1560  176.8330  142.5040 C   0  0  0  0  0  2  0  0  0  0  0  0
  190.6240  177.1720  144.0250 C   0  0  0  0  0  0  0  0  0  0  0  0
  186.8960  177.5090  144.5540 C   0  0  0  0  0  3  0  0  0  0  0  0
  186.8440  177.9420  145.8820 C   0  0  0  0  0  0  0  0  0  0  0  0
  191.7000  177.3190  144.6650 O   0  0  0  0  0  0  0  0  0  0  0  0
  189.4010  176.0020  142.1930 C   0  0  0  0  0  2  0  0  0  0  0  0
  189.3230  177.4490  144.6680 C   0  0  0  0  0  0  0  0  0  0  0  0
  188.1270  177.2500  143.9460 C   0  0  0  0  0  0  0  0  0  0  0  0
  189.2620  177.8820  146.0000 C   0  0  0  0  0  3  0  0  0  0  0  0
  188.0260  178.1280  146.6040 C   0  0  0  0  0  3  0  0  0  0  0  0
  184.5530  178.4080  147.0030 N   0  0  0  0  0  0  0  0  0  0  0  0
  185.5750  178.2000  146.5030 C   0  0  0  0  0  0  0  0  0  0  0  0
  1 17  1  0  0  0  0
  2  6  1  0  0  0  0
  3 12  2  0  0  0  0
  5 12  1  0  0  0  0
  6  3  1  0  0  0  0
  7  8  1  0  0  0  0
  7 13  1  1  0  0  0
  8  2  1  6  0  0  0
  8  5  1  0  0  0  0
  9 11  1  1  0  0  0
  9  7  1  0  0  0  0
  9  8  1  0  0  0  0
 10 13  1  0  0  0  0
 10  4  1  1  0  0  0
 12  1  1  0  0  0  0
 15 11  1  6  0  0  0
 15 10  1  0  0  0  0
 16 14  1  6  0  0  0
 16 15  1  0  0  0  0
 16 10  1  0  0  0  0
 18 17  1  6  0  0  0
 18 20  1  0  0  0  0
 19 26  1  0  0  0  0
 20 23  2  0  0  0  0
 20 25  1  0  0  0  0
 21 22  1  0  0  0  0
 22 30  1  0  0  0  0
 22 28  2  0  0  0  0
 24 19  1  0  0  0  0
 24 18  1  0  0  0  0
 25 27  2  0  0  0  0
 26 21  2  0  0  0  0
 26 25  1  0  0  0  0
 27 28  1  0  0  0  0
 30 29  3  0  0  0  0
M  END
>  <MODEL>
6

>  <REMARK>
 VINA RESULT:      -8.4      3.655      6.545
  Name = 
  4 active torsions:
  status: ('A' for Active; 'I' for Inactive)
    1  A    between atoms: C_3  and  O_18
    2  A    between atoms: C_12  and  O_18
    3  A    between atoms: C_12  and  C_19
    4  A    between atoms: C_16  and  C_29
                            x       y       z     vdW  Elec       q    Type
                         _______ _______ _______ _____ _____    ______ ____

>  <TORSDO>
F 4

$$$$
=
 OpenBabel11062413193D

 30 35  0  0  1  0  0  0  0  0999 V2000
  183.0990  177.7990  140.1630 C   0  0  0  0  0  2  0  0  0  0  0  0
  183.7950  177.1330  135.9480 C   0  0  0  0  0  2  0  0  0  0  0  0
  182.4940  176.8250  138.0370 N   0  0  0  0  0  0  0  0  0  0  0  0
  189.0560  179.0030  138.6770 C   0  0  0  0  0  1  0  0  0  0  0  0
  184.7350  177.5760  138.2550 N   0  0  0  0  0  2  0  0  0  0  0  0
  182.7450  176.3050  136.6880 C   0  0  0  0  0  2  0  0  0  0  0  0
  186.2710  177.8680  136.2460 C   0  0  2  0  0  3  0  0  0  0  0  0
  185.0070  177.2790  136.8530 C   0  0  2  0  0  0  0  0  0  0  0  0
  186.1830  176.3610  136.5660 C   0  0  2  0  0  3  0  0  0  0  0  0
  188.3020  178.1320  137.6960 C   0  0  2  0  0  0  0  0  0  0  0  0
  186.9740  175.9440  137.8110 C   0  0  0  0  0  2  0  0  0  0  0  0
  183.4250  177.3440  138.7830 C   0  0  0  0  0  0  0  0  0  0  0  0
  187.0000  178.6600  137.2430 N   0  0  0  0  0  2  0  0  0  0  0  0
  188.6280  176.8180  135.6450 F   0  0  0  0  0  0  0  0  0  0  0  0
  188.3070  176.6650  138.0870 C   0  0  1  0  0  3  0  0  0  0  0  0
  189.1480  177.1480  136.8820 C   0  0  2  0  0  3  0  0  0  0  0  0
  184.1870  177.5550  141.0070 O   0  0  0  0  0  0  0  0  0  0  0  0
  184.5440  178.8080  141.5190 C   0  0  1  0  0  3  0  0  0  0  0  0
  186.7960  178.0340  142.3660 C   0  0  0  0  0  2  0  0  0  0  0  0
  184.0760  178.9230  142.9410 C   0  0  0  0  0  0  0  0  0  0  0  0
  187.1580  177.8130  144.8290 C   0  0  0  0  0  3  0  0  0  0  0  0
  186.7090  177.8770  146.1510 C   0  0  0  0  0  0  0  0  0  0  0  0
  182.8960  179.3030  143.1710 O   0  0  0  0  0  0  0  0  0  0  0  0
  186.0640  179.0030  141.4370 C   0  0  0  0  0  2  0  0  0  0  0  0
  184.9770  178.5530  144.0520 C   0  0  0  0  0  0  0  0  0  0  0  0
  186.3040  178.1600  143.7790 C   0  0  0  0  0  0  0  0  0  0  0  0
  184.5350  178.6170  145.3820 C   0  0  0  0  0  3  0  0  0  0  0  0
  185.4000  178.2790  146.4270 C   0  0  0  0  0  3  0  0  0  0  0  0
  188.3050  177.2440  148.0940 N   0  0  0  0  0  0  0  0  0  0  0  0
  187.5930  177.5270  147.2270 C   0  0  0  0  0  0  0  0  0  0  0  0
  1 17  1  0  0  0  0
  2  6  1  0  0  0  0
  3 12  2  0  0  0  0
  5 12  1  0  0  0  0
  6  3  1  0  0  0  0
  7  9  1  0  0  0  0
  7  8  1  0  0  0  0
  7 13  1  1  0  0  0
  8  2  1  6  0  0  0
  8  5  1  0  0  0  0
  9  8  1  0  0  0  0
  9 11  1  1  0  0  0
 10 15  1  0  0  0  0
 10  4  1  1  0  0  0
 12  1  1  0  0  0  0
 13 10  1  0  0  0  0
 15 11  1  6  0  0  0
 16 14  1  6  0  0  0
 16 10  1  0  0  0  0
 16 15  1  0  0  0  0
 18 17  1  1  0  0  0
 18 20  1  0  0  0  0
 19 26  1  0  0  0  0
 20 23  2  0  0  0  0
 20 25  1  0  0  0  0
 21 22  1  0  0  0  0
 22 28  2  0  0  0  0
 22 30  1  0  0  0  0
 24 18  1  0  0  0  0
 24 19  1  0  0  0  0
 25 27  2  0  0  0  0
 26 25  1  0  0  0  0
 26 21  2  0  0  0  0
 27 28  1  0  0  0  0
 30 29  3  0  0  0  0
M  END
>  <MODEL>
7

>  <REMARK>
 VINA RESULT:      -8.1      3.932      7.403
  Name = 
  4 active torsions:
  status: ('A' for Active; 'I' for Inactive)
    1  A    between atoms: C_3  and  O_18
    2  A    between atoms: C_12  and  O_18
    3  A    between atoms: C_12  and  C_19
    4  A    between atoms: C_16  and  C_29
                            x       y       z     vdW  Elec       q    Type
                         _______ _______ _______ _____ _____    ______ ____

>  <TORSDO>
F 4

$$$$
=
 OpenBabel11062413193D

 30 35  0  0  1  0  0  0  0  0999 V2000
  191.4300  176.4880  139.5850 C   0  0  0  0  0  2  0  0  0  0  0  0
  189.7180  173.6720  136.7850 C   0  0  0  0  0  2  0  0  0  0  0  0
  191.6380  174.7040  137.9690 N   0  0  0  0  0  0  0  0  0  0  0  0
  185.6770  178.2620  137.8850 C   0  0  0  0  0  1  0  0  0  0  0  0
  189.5980  175.9170  137.9460 N   0  0  0  0  0  2  0  0  0  0  0  0
  191.2300  173.8960  136.8150 C   0  0  0  0  0  2  0  0  0  0  0  0
  187.5350  175.0810  136.7100 C   0  0  2  0  0  3  0  0  0  0  0  0
  189.0370  175.0210  136.9400 C   0  0  2  0  0  0  0  0  0  0  0  0
  188.5120  175.6670  135.6690 C   0  0  2  0  0  3  0  0  0  0  0  0
  186.3600  177.2850  136.9540 C   0  0  2  0  0  0  0  0  0  0  0  0
  188.5750  177.1980  135.6690 C   0  0  0  0  0  2  0  0  0  0  0  0
  190.9190  175.6800  138.4430 C   0  0  0  0  0  0  0  0  0  0  0  0
  186.9190  176.0780  137.5940 N   0  0  0  0  0  2  0  0  0  0  0  0
  186.0580  176.1560  134.7910 F   0  0  0  0  0  0  0  0  0  0  0  0
  187.2690  177.9680  135.9490 C   0  0  1  0  0  3  0  0  0  0  0  0
  185.9320  177.3460  135.4840 C   0  0  2  0  0  3  0  0  0  0  0  0
  190.5530  176.3760  140.6680 O   0  0  0  0  0  0  0  0  0  0  0  0
  190.2840  177.6930  141.0610 C   0  0  1  0  0  3  0  0  0  0  0  0
  191.2450  177.4000  143.3800 C   0  0  0  0  0  2  0  0  0  0  0  0
  188.9110  177.7670  141.6650 C   0  0  0  0  0  0  0  0  0  0  0  0
  189.6940  177.3440  145.3400 C   0  0  0  0  0  3  0  0  0  0  0  0
  188.4130  177.3700  145.8990 C   0  0  0  0  0  0  0  0  0  0  0  0
  187.9140  177.9210  140.9100 O   0  0  0  0  0  0  0  0  0  0  0  0
  191.3390  178.1740  142.0650 C   0  0  0  0  0  2  0  0  0  0  0  0
  188.7320  177.6200  143.1240 C   0  0  0  0  0  0  0  0  0  0  0  0
  189.8610  177.4800  143.9590 C   0  0  0  0  0  0  0  0  0  0  0  0
  187.4510  177.6470  143.6940 C   0  0  0  0  0  3  0  0  0  0  0  0
  187.2940  177.5210  145.0770 C   0  0  0  0  0  3  0  0  0  0  0  0
  188.1150  177.1290  148.4630 N   0  0  0  0  0  0  0  0  0  0  0  0
  188.2480  177.2360  147.3190 C   0  0  0  0  0  0  0  0  0  0  0  0
  1 17  1  0  0  0  0
  2  6  1  0  0  0  0
  3 12  2  0  0  0  0
  5 12  1  0  0  0  0
  6  3  1  0  0  0  0
  7  8  1  0  0  0  0
  7 13  1  1  0  0  0
  8  2  1  6  0  0  0
  8  5  1  0  0  0  0
  9 11  1  1  0  0  0
  9  7  1  0  0  0  0
  9  8  1  0  0  0  0
 10 13  1  0  0  0  0
 10  4  1  1  0  0  0
 12  1  1  0  0  0  0
 15 11  1  6  0  0  0
 15 10  1  0  0  0  0
 16 14  1  6  0  0  0
 16 15  1  0  0  0  0
 16 10  1  0  0  0  0
 18 17  1  1  0  0  0
 18 20  1  0  0  0  0
 18 24  1  0  0  0  0
 19 26  1  0  0  0  0
 20 25  1  0  0  0  0
 21 22  1  0  0  0  0
 22 30  1  0  0  0  0
 23 20  2  0  0  0  0
 24 19  1  0  0  0  0
 25 27  2  0  0  0  0
 25 26  1  0  0  0  0
 26 21  2  0  0  0  0
 27 28  1  0  0  0  0
 28 22  2  0  0  0  0
 30 29  3  0  0  0  0
M  END
>  <MODEL>
8

>  <REMARK>
 VINA RESULT:      -8.1      4.104      7.642
  Name = 
  4 active torsions:
  status: ('A' for Active; 'I' for Inactive)
    1  A    between atoms: C_3  and  O_18
    2  A    between atoms: C_12  and  O_18
    3  A    between atoms: C_12  and  C_19
    4  A    between atoms: C_16  and  C_29
                            x       y       z     vdW  Elec       q    Type
                         _______ _______ _______ _____ _____    ______ ____

>  <TORSDO>
F 4

$$$$
=
 OpenBabel11062413193D

 30 35  0  0  1  0  0  0  0  0999 V2000
  185.6900  179.3540  142.0910 C   0  0  0  0  0  2  0  0  0  0  0  0
  184.6120  177.4940  138.3400 C   0  0  0  0  0  2  0  0  0  0  0  0
  186.1820  178.7280  139.8100 N   0  0  0  0  0  0  0  0  0  0  0  0
  179.4860  178.6850  141.6440 C   0  0  0  0  0  1  0  0  0  0  0  0
  183.8950  178.7070  140.4410 N   0  0  0  0  0  2  0  0  0  0  0  0
  185.8570  178.3760  138.4240 C   0  0  0  0  0  2  0  0  0  0  0  0
  182.1060  177.5790  139.0240 C   0  0  2  0  0  3  0  0  0  0  0  0
  183.5070  178.1540  139.1470 C   0  0  2  0  0  0  0  0  0  0  0  0
  182.4610  178.9270  138.3610 C   0  0  2  0  0  3  0  0  0  0  0  0
  180.2440  178.6330  140.3360 C   0  0  2  0  0  0  0  0  0  0  0  0
  181.8970  180.1470  139.0960 C   0  0  0  0  0  2  0  0  0  0  0  0
  185.2780  178.9490  140.7190 C   0  0  0  0  0  0  0  0  0  0  0  0
  181.3860  177.6980  140.2970 N   0  0  0  0  0  2  0  0  0  0  0  0
  179.8840  178.4950  137.9080 F   0  0  0  0  0  0  0  0  0  0  0  0
  180.5100  180.0090  139.7540 C   0  0  1  0  0  3  0  0  0  0  0  0
  179.4690  179.0780  139.0910 C   0  0  2  0  0  3  0  0  0  0  0  0
  187.0280  179.0060  142.3000 O   0  0  0  0  0  0  0  0  0  0  0  0
  187.0150  177.6280  142.5470 C   0  0  1  0  0  3  0  0  0  0  0  0
  187.3320  177.8760  145.0420 C   0  0  0  0  0  2  0  0  0  0  0  0
  188.4120  177.0850  142.4480 C   0  0  0  0  0  0  0  0  0  0  0  0
  189.5220  177.2300  146.0590 C   0  0  0  0  0  3  0  0  0  0  0  0
  190.8370  176.7660  145.9620 C   0  0  0  0  0  0  0  0  0  0  0  0
  188.8640  176.7530  141.3190 O   0  0  0  0  0  0  0  0  0  0  0  0
  186.4260  177.3410  143.9340 C   0  0  0  0  0  2  0  0  0  0  0  0
  189.2570  176.9830  143.6550 C   0  0  0  0  0  0  0  0  0  0  0  0
  188.7250  177.3290  144.9150 C   0  0  0  0  0  0  0  0  0  0  0  0
  190.5760  176.5170  143.5670 C   0  0  0  0  0  3  0  0  0  0  0  0
  191.3630  176.4090  144.7170 C   0  0  0  0  0  3  0  0  0  0  0  0
  192.3030  176.5730  148.0920 N   0  0  0  0  0  0  0  0  0  0  0  0
  191.6490  176.6600  147.1410 C   0  0  0  0  0  0  0  0  0  0  0  0
  1 17  1  0  0  0  0
  2  6  1  0  0  0  0
  3 12  2  0  0  0  0
  5 12  1  0  0  0  0
  6  3  1  0  0  0  0
  7  8  1  0  0  0  0
  7 13  1  1  0  0  0
  8  2  1  6  0  0  0
  8  5  1  0  0  0  0
  9  7  1  0  0  0  0
  9 11  1  1  0  0  0
  9  8  1  0  0  0  0
 10  4  1  1  0  0  0
 12  1  1  0  0  0  0
 13 10  1  0  0  0  0
 15 11  1  6  0  0  0
 15 10  1  0  0  0  0
 16 14  1  6  0  0  0
 16 15  1  0  0  0  0
 16 10  1  0  0  0  0
 18 17  1  1  0  0  0
 18 24  1  0  0  0  0
 20 18  1  0  0  0  0
 20 25  1  0  0  0  0
 22 21  1  0  0  0  0
 22 30  1  0  0  0  0
 23 20  2  0  0  0  0
 24 19  1  0  0  0  0
 25 26  1  0  0  0  0
 26 19  1  0  0  0  0
 26 21  2  0  0  0  0
 27 25  2  0  0  0  0
 27 28  1  0  0  0  0
 28 22  2  0  0  0  0
 30 29  3  0  0  0  0
M  END
>  <MODEL>
9

>  <REMARK>
 VINA RESULT:      -8.1      3.677      8.855
  Name = 
  4 active torsions:
  status: ('A' for Active; 'I' for Inactive)
    1  A    between atoms: C_3  and  O_18
    2  A    between atoms: C_12  and  O_18
    3  A    between atoms: C_12  and  C_19
    4  A    between atoms: C_16  and  C_29
                            x       y       z     vdW  Elec       q    Type
                         _______ _______ _______ _____ _____    ______ ____

>  <TORSDO>
F 4

$$$$
