=
 OpenBabel11062416593D

 26 27  0  0  1  0  0  0  0  0999 V2000
  190.0520  176.9660  147.2740 S   0  0  0  0  0  0  0  0  0  0  0  0
  190.0540  177.3800  143.2360 C   0  0  0  0  0  0  0  0  0  0  0  0
  190.3750  177.4600  145.7470 C   0  0  0  0  0  0  0  0  0  0  0  0
  188.0820  177.1290  144.6570 C   0  0  0  0  0  0  0  0  0  0  0  0
  187.3060  176.4990  143.5440 C   0  0  0  0  0  2  0  0  0  0  0  0
  192.0440  178.3560  144.2880 C   0  0  0  0  0  3  0  0  0  0  0  0
  187.7620  177.0950  142.2120 C   0  0  0  0  0  2  0  0  0  0  0  0
  191.2270  178.0160  143.1130 C   0  0  0  0  0  3  0  0  0  0  0  0
  187.5440  177.8900  145.5700 N   0  0  0  0  0  0  0  0  0  0  0  0
  189.5670  176.9130  144.5890 C   0  0  1  0  0  3  0  0  0  0  0  0
  189.2250  177.1260  142.0800 N   0  0  0  0  0  0  0  0  0  0  0  0
  191.6320  178.0980  145.4910 N   0  0  0  0  0  0  0  0  0  0  0  0
  186.1690  178.2870  145.6880 C   0  0  0  0  0  0  0  0  0  0  0  0
  185.5120  177.9060  146.6930 O   0  0  0  0  0  0  0  0  0  0  0  0
  185.5120  179.2120  144.7120 C   0  0  0  0  0  2  0  0  0  0  0  0
  184.4150  178.4970  143.9370 C   0  0  0  0  0  3  0  0  0  0  0  0
  184.5360  178.8420  142.4670 C   0  0  0  0  0  1  0  0  0  0  0  0
  183.0440  178.9190  144.4340 C   0  0  0  0  0  1  0  0  0  0  0  0
  189.7650  177.2110  140.7250 C   0  0  0  0  0  2  0  0  0  0  0  0
  188.4140  179.0220  139.9790 O   0  0  0  0  0  0  0  0  0  0  0  0
  187.2730  177.5260  137.7630 C   0  0  0  0  0  0  0  0  0  0  0  0
  188.2430  177.0590  138.7070 N   0  0  0  0  0  2  0  0  0  0  0  0
  188.7730  177.8280  139.7950 C   0  0  0  0  0  0  0  0  0  0  0  0
  186.8490  178.7120  137.7970 O   0  0  0  0  0  0  0  0  0  0  0  0
  186.7770  176.6020  136.7080 C   0  0  0  0  0  2  0  0  0  0  0  0
  186.7140  175.3030  137.2120 O   0  0  0  0  0  1  0  0  0  0  0  0
  3  1  2  0  0  0  0
  4  9  2  0  0  0  0
  5  4  1  0  0  0  0
  6 12  2  0  0  0  0
  7  5  1  0  0  0  0
  8  2  2  0  0  0  0
  8  6  1  0  0  0  0
  9 13  1  0  0  0  0
 10  2  1  6  0  0  0
 10  4  1  0  0  0  0
 10  3  1  0  0  0  0
 11  7  1  0  0  0  0
 11  2  1  0  0  0  0
 12  3  1  0  0  0  0
 13 14  2  0  0  0  0
 15 13  1  0  0  0  0
 16 18  1  0  0  0  0
 16 15  1  0  0  0  0
 17 16  1  0  0  0  0
 19 11  1  0  0  0  0
 21 24  2  0  0  0  0
 21 22  1  0  0  0  0
 22 23  1  0  0  0  0
 23 20  2  0  0  0  0
 23 19  1  0  0  0  0
 25 26  1  0  0  0  0
 25 21  1  0  0  0  0
M  END
>  <MODEL>
1

>  <REMARK>
 VINA RESULT:      -7.4      0.000      0.000
  Name = 
  6 active torsions:
  status: ('A' for Active; 'I' for Inactive)
    1  A    between atoms: C_4  and  C_14
    2  A    between atoms: C_4  and  C_16
    3  A    between atoms: C_5  and  N_19
    4  A    between atoms: C_5  and  C_23
    5  A    between atoms: C_7  and  C_8
    6  A    between atoms: C_14  and  N_17
                            x       y       z     vdW  Elec       q    Type
                         _______ _______ _______ _____ _____    ______ ____

>  <TORSDO>
F 6

$$$$
=
 OpenBabel11062416593D

 26 27  0  0  1  0  0  0  0  0999 V2000
  190.4860  176.7300  146.9260 S   0  0  0  0  0  0  0  0  0  0  0  0
  189.9790  177.8490  143.0580 C   0  0  0  0  0  0  0  0  0  0  0  0
  190.5990  177.5060  145.4890 C   0  0  0  0  0  0  0  0  0  0  0  0
  188.2080  177.2180  144.6170 C   0  0  0  0  0  0  0  0  0  0  0  0
  187.3330  176.7440  143.5010 C   0  0  0  0  0  2  0  0  0  0  0  0
  192.0340  178.7560  144.0430 C   0  0  0  0  0  3  0  0  0  0  0  0
  187.5960  177.5940  142.2580 C   0  0  0  0  0  2  0  0  0  0  0  0
  191.0980  178.5740  142.9230 C   0  0  0  0  0  3  0  0  0  0  0  0
  187.7500  177.7680  145.7080 N   0  0  0  0  0  0  0  0  0  0  0  0
  189.6820  177.1180  144.3480 C   0  0  1  0  0  3  0  0  0  0  0  0
  189.0290  177.7480  141.9730 N   0  0  0  0  0  0  0  0  0  0  0  0
  191.7840  178.2620  145.2170 N   0  0  0  0  0  0  0  0  0  0  0  0
  186.3820  178.0440  146.0490 C   0  0  0  0  0  0  0  0  0  0  0  0
  185.8230  177.3410  146.9310 O   0  0  0  0  0  0  0  0  0  0  0  0
  185.6240  179.1940  145.4640 C   0  0  0  0  0  2  0  0  0  0  0  0
  184.5810  178.7090  144.4670 C   0  0  0  0  0  3  0  0  0  0  0  0
  184.7500  179.4610  143.1630 C   0  0  0  0  0  1  0  0  0  0  0  0
  183.1790  178.9450  144.9980 C   0  0  0  0  0  1  0  0  0  0  0  0
  189.3960  178.1060  140.6060 C   0  0  0  0  0  2  0  0  0  0  0  0
  190.6610  176.0970  140.4500 O   0  0  0  0  0  0  0  0  0  0  0  0
  189.9570  175.6280  137.6690 C   0  0  0  0  0  0  0  0  0  0  0  0
  189.5230  176.7130  138.4950 N   0  0  0  0  0  2  0  0  0  0  0  0
  189.9030  176.9140  139.8620 C   0  0  0  0  0  0  0  0  0  0  0  0
  190.6860  174.7100  138.1310 O   0  0  0  0  0  0  0  0  0  0  0  0
  189.5180  175.5680  136.2490 C   0  0  0  0  0  2  0  0  0  0  0  0
  190.3270  176.3960  135.4720 O   0  0  0  0  0  1  0  0  0  0  0  0
  3  1  2  0  0  0  0
  4  9  2  0  0  0  0
  5  4  1  0  0  0  0
  6 12  2  0  0  0  0
  7  5  1  0  0  0  0
  8  2  2  0  0  0  0
  8  6  1  0  0  0  0
  9 13  1  0  0  0  0
 10  2  1  6  0  0  0
 10  4  1  0  0  0  0
 10  3  1  0  0  0  0
 11  7  1  0  0  0  0
 11  2  1  0  0  0  0
 12  3  1  0  0  0  0
 13 14  2  0  0  0  0
 15 13  1  0  0  0  0
 16 18  1  0  0  0  0
 16 15  1  0  0  0  0
 17 16  1  0  0  0  0
 19 11  1  0  0  0  0
 21 24  2  0  0  0  0
 21 22  1  0  0  0  0
 22 23  1  0  0  0  0
 23 20  2  0  0  0  0
 23 19  1  0  0  0  0
 25 21  1  0  0  0  0
 26 25  1  0  0  0  0
M  END
>  <MODEL>
2

>  <REMARK>
 VINA RESULT:      -7.1      1.780      1.879
  Name = 
  6 active torsions:
  status: ('A' for Active; 'I' for Inactive)
    1  A    between atoms: C_4  and  C_14
    2  A    between atoms: C_4  and  C_16
    3  A    between atoms: C_5  and  N_19
    4  A    between atoms: C_5  and  C_23
    5  A    between atoms: C_7  and  C_8
    6  A    between atoms: C_14  and  N_17
                            x       y       z     vdW  Elec       q    Type
                         _______ _______ _______ _____ _____    ______ ____

>  <TORSDO>
F 6

$$$$
=
 OpenBabel11062416593D

 26 27  0  0  1  0  0  0  0  0999 V2000
  189.0530  178.6930  139.9620 S   0  0  0  0  0  0  0  0  0  0  0  0
  187.3140  177.4450  143.4100 C   0  0  0  0  0  0  0  0  0  0  0  0
  188.5500  177.7820  141.2260 C   0  0  0  0  0  0  0  0  0  0  0  0
  186.2920  178.8840  141.7210 C   0  0  0  0  0  0  0  0  0  0  0  0
  185.4170  179.5370  142.7430 C   0  0  0  0  0  2  0  0  0  0  0  0
  189.0710  175.9210  142.6320 C   0  0  0  0  0  3  0  0  0  0  0  0
  185.0670  178.5210  143.8310 C   0  0  0  0  0  2  0  0  0  0  0  0
  188.0350  176.3300  143.5920 C   0  0  0  0  0  3  0  0  0  0  0  0
  185.9270  178.6800  140.4850 N   0  0  0  0  0  0  0  0  0  0  0  0
  187.6010  178.3700  142.2490 C   0  0  1  0  0  3  0  0  0  0  0  0
  186.2440  177.7900  144.3190 N   0  0  0  0  0  0  0  0  0  0  0  0
  189.2890  176.5980  141.5470 N   0  0  0  0  0  0  0  0  0  0  0  0
  184.6680  178.9990  139.8740 C   0  0  0  0  0  0  0  0  0  0  0  0
  184.5940  180.0140  139.1320 O   0  0  0  0  0  0  0  0  0  0  0  0
  183.4630  178.1210  140.0090 C   0  0  0  0  0  2  0  0  0  0  0  0
  182.2260  178.9410  140.3460 C   0  0  0  0  0  3  0  0  0  0  0  0
  181.8250  178.6700  141.7810 C   0  0  0  0  0  1  0  0  0  0  0  0
  181.0720  178.5750  139.4310 C   0  0  0  0  0  1  0  0  0  0  0  0
  186.1370  177.1690  145.6370 C   0  0  0  0  0  2  0  0  0  0  0  0
  186.8520  178.7620  147.2520 O   0  0  0  0  0  0  0  0  0  0  0  0
  189.4930  177.5840  147.5450 C   0  0  0  0  0  0  0  0  0  0  0  0
  188.4350  177.1220  146.7000 N   0  0  0  0  0  2  0  0  0  0  0  0
  187.1480  177.7400  146.5770 C   0  0  0  0  0  0  0  0  0  0  0  0
  189.3320  178.5730  148.3100 O   0  0  0  0  0  0  0  0  0  0  0  0
  190.7980  176.8690  147.5400 C   0  0  0  0  0  2  0  0  0  0  0  0
  191.4960  177.1730  146.3720 O   0  0  0  0  0  1  0  0  0  0  0  0
  1  3  2  0  0  0  0
  2  8  2  0  0  0  0
  2 11  1  0  0  0  0
  3 12  1  0  0  0  0
  4 10  1  0  0  0  0
  4  5  1  0  0  0  0
  5  7  1  0  0  0  0
  6  8  1  0  0  0  0
  7 11  1  0  0  0  0
  9  4  2  0  0  0  0
 10  3  1  6  0  0  0
 10  2  1  0  0  0  0
 11 19  1  0  0  0  0
 12  6  2  0  0  0  0
 13 15  1  0  0  0  0
 13  9  1  0  0  0  0
 14 13  2  0  0  0  0
 15 16  1  0  0  0  0
 16 17  1  0  0  0  0
 18 16  1  0  0  0  0
 19 23  1  0  0  0  0
 21 24  2  0  0  0  0
 22 21  1  0  0  0  0
 23 22  1  0  0  0  0
 23 20  2  0  0  0  0
 25 21  1  0  0  0  0
 26 25  1  0  0  0  0
M  END
>  <MODEL>
3

>  <REMARK>
 VINA RESULT:      -7.0      2.949      6.462
  Name = 
  6 active torsions:
  status: ('A' for Active; 'I' for Inactive)
    1  A    between atoms: C_4  and  C_14
    2  A    between atoms: C_4  and  C_16
    3  A    between atoms: C_5  and  N_19
    4  A    between atoms: C_5  and  C_23
    5  A    between atoms: C_7  and  C_8
    6  A    between atoms: C_14  and  N_17
                            x       y       z     vdW  Elec       q    Type
                         _______ _______ _______ _____ _____    ______ ____

>  <TORSDO>
F 6

$$$$
=
 OpenBabel11062416593D

 26 27  0  0  1  0  0  0  0  0999 V2000
  184.2380  178.1970  141.4510 S   0  0  0  0  0  0  0  0  0  0  0  0
  186.1040  178.0660  145.0530 C   0  0  0  0  0  0  0  0  0  0  0  0
  184.7570  178.5470  142.9640 C   0  0  0  0  0  0  0  0  0  0  0  0
  187.1140  177.5500  142.8890 C   0  0  0  0  0  0  0  0  0  0  0  0
  188.0970  176.6150  143.5200 C   0  0  0  0  0  2  0  0  0  0  0  0
  184.1980  179.6080  145.0320 C   0  0  0  0  0  3  0  0  0  0  0  0
  188.4440  177.1200  144.9210 C   0  0  0  0  0  2  0  0  0  0  0  0
  185.3190  178.9360  145.7040 C   0  0  0  0  0  3  0  0  0  0  0  0
  187.3830  178.2770  141.8400 N   0  0  0  0  0  0  0  0  0  0  0  0
  185.8090  177.6790  143.6210 C   0  0  1  0  0  3  0  0  0  0  0  0
  187.2530  177.4750  145.7040 N   0  0  0  0  0  0  0  0  0  0  0  0
  183.9580  179.4220  143.7700 N   0  0  0  0  0  0  0  0  0  0  0  0
  188.6200  178.3540  141.1140 C   0  0  0  0  0  0  0  0  0  0  0  0
  189.7020  178.2470  141.7480 O   0  0  0  0  0  0  0  0  0  0  0  0
  188.6710  178.4620  139.6220 C   0  0  0  0  0  2  0  0  0  0  0  0
  188.9190  177.1030  138.9850 C   0  0  0  0  0  3  0  0  0  0  0  0
  190.3730  177.0030  138.5740 C   0  0  0  0  0  1  0  0  0  0  0  0
  188.0430  176.9150  137.7600 C   0  0  0  0  0  1  0  0  0  0  0  0
  187.4000  177.5050  147.1570 C   0  0  0  0  0  2  0  0  0  0  0  0
  189.2020  178.6050  148.2530 O   0  0  0  0  0  0  0  0  0  0  0  0
  191.1830  176.6620  147.3870 C   0  0  0  0  0  0  0  0  0  0  0  0
  189.7810  176.6440  147.1050 N   0  0  0  0  0  2  0  0  0  0  0  0
  188.8370  177.6300  147.5430 C   0  0  0  0  0  0  0  0  0  0  0  0
  191.6890  177.5550  148.1190 O   0  0  0  0  0  0  0  0  0  0  0  0
  192.0550  175.5940  146.8290 C   0  0  0  0  0  2  0  0  0  0  0  0
  193.0810  175.3050  147.7300 O   0  0  0  0  0  1  0  0  0  0  0  0
  1  3  2  0  0  0  0
  2 11  1  0  0  0  0
  2  8  2  0  0  0  0
  3 10  1  0  0  0  0
  3 12  1  0  0  0  0
  4  5  1  0  0  0  0
  5  7  1  0  0  0  0
  6  8  1  0  0  0  0
  7 11  1  0  0  0  0
  9  4  2  0  0  0  0
 10  4  1  6  0  0  0
 10  2  1  0  0  0  0
 11 19  1  0  0  0  0
 12  6  2  0  0  0  0
 13 14  2  0  0  0  0
 13  9  1  0  0  0  0
 15 13  1  0  0  0  0
 16 15  1  0  0  0  0
 17 16  1  0  0  0  0
 18 16  1  0  0  0  0
 19 23  1  0  0  0  0
 21 24  2  0  0  0  0
 22 21  1  0  0  0  0
 22 23  1  0  0  0  0
 23 20  2  0  0  0  0
 25 21  1  0  0  0  0
 25 26  1  0  0  0  0
M  END
>  <MODEL>
4

>  <REMARK>
 VINA RESULT:      -7.0      3.208      7.361
  Name = 
  6 active torsions:
  status: ('A' for Active; 'I' for Inactive)
    1  A    between atoms: C_4  and  C_14
    2  A    between atoms: C_4  and  C_16
    3  A    between atoms: C_5  and  N_19
    4  A    between atoms: C_5  and  C_23
    5  A    between atoms: C_7  and  C_8
    6  A    between atoms: C_14  and  N_17
                            x       y       z     vdW  Elec       q    Type
                         _______ _______ _______ _____ _____    ______ ____

>  <TORSDO>
F 6

$$$$
=
 OpenBabel11062416593D

 26 27  0  0  1  0  0  0  0  0999 V2000
  184.4550  179.4010  143.6790 S   0  0  0  0  0  0  0  0  0  0  0  0
  185.6760  178.5130  139.9120 C   0  0  0  0  0  0  0  0  0  0  0  0
  184.5240  178.8380  142.1430 C   0  0  0  0  0  0  0  0  0  0  0  0
  187.0300  178.3550  141.9390 C   0  0  0  0  0  0  0  0  0  0  0  0
  188.2910  178.5910  141.1700 C   0  0  0  0  0  2  0  0  0  0  0  0
  183.2500  178.2920  140.1960 C   0  0  0  0  0  3  0  0  0  0  0  0
  188.1450  177.9950  139.7690 C   0  0  0  0  0  2  0  0  0  0  0  0
  184.4760  178.2340  139.3860 C   0  0  0  0  0  3  0  0  0  0  0  0
  186.9630  177.5890  142.9940 N   0  0  0  0  0  0  0  0  0  0  0  0
  185.8020  178.9820  141.3440 C   0  0  1  0  0  3  0  0  0  0  0  0
  186.8810  178.3720  139.1250 N   0  0  0  0  0  0  0  0  0  0  0  0
  183.2930  178.5650  141.4640 N   0  0  0  0  0  0  0  0  0  0  0  0
  188.0200  176.8280  143.6000 C   0  0  0  0  0  0  0  0  0  0  0  0
  188.3590  175.7360  143.0740 O   0  0  0  0  0  0  0  0  0  0  0  0
  188.7960  177.3290  144.7780 C   0  0  0  0  0  2  0  0  0  0  0  0
  190.2820  177.4070  144.4590 C   0  0  0  0  0  3  0  0  0  0  0  0
  191.0770  177.0450  145.6950 C   0  0  0  0  0  1  0  0  0  0  0  0
  190.6640  178.8070  144.0150 C   0  0  0  0  0  1  0  0  0  0  0  0
  186.8280  178.2810  137.6670 C   0  0  0  0  0  2  0  0  0  0  0  0
  188.4200  176.7590  136.7680 O   0  0  0  0  0  0  0  0  0  0  0  0
  186.5950  174.4970  136.8280 C   0  0  0  0  0  0  0  0  0  0  0  0
  186.3220  175.8340  137.2610 N   0  0  0  0  0  2  0  0  0  0  0  0
  187.2490  176.9250  137.2040 C   0  0  0  0  0  0  0  0  0  0  0  0
  187.7350  174.1700  136.4040 O   0  0  0  0  0  0  0  0  0  0  0  0
  185.5210  173.4710  136.9040 C   0  0  0  0  0  2  0  0  0  0  0  0
  185.5170  172.8860  138.1700 O   0  0  0  0  0  1  0  0  0  0  0  0
  3  1  2  0  0  0  0
  4  9  2  0  0  0  0
  5  4  1  0  0  0  0
  6 12  2  0  0  0  0
  7  5  1  0  0  0  0
  8  2  2  0  0  0  0
  8  6  1  0  0  0  0
  9 13  1  0  0  0  0
 10  2  1  6  0  0  0
 10  4  1  0  0  0  0
 10  3  1  0  0  0  0
 11  7  1  0  0  0  0
 11  2  1  0  0  0  0
 12  3  1  0  0  0  0
 13 15  1  0  0  0  0
 14 13  2  0  0  0  0
 16 15  1  0  0  0  0
 16 17  1  0  0  0  0
 18 16  1  0  0  0  0
 19 11  1  0  0  0  0
 20 23  2  0  0  0  0
 21 25  1  0  0  0  0
 21 22  1  0  0  0  0
 23 22  1  0  0  0  0
 23 19  1  0  0  0  0
 24 21  2  0  0  0  0
 25 26  1  0  0  0  0
M  END
>  <MODEL>
5

>  <REMARK>
 VINA RESULT:      -7.0      2.727      5.392
  Name = 
  6 active torsions:
  status: ('A' for Active; 'I' for Inactive)
    1  A    between atoms: C_4  and  C_14
    2  A    between atoms: C_4  and  C_16
    3  A    between atoms: C_5  and  N_19
    4  A    between atoms: C_5  and  C_23
    5  A    between atoms: C_7  and  C_8
    6  A    between atoms: C_14  and  N_17
                            x       y       z     vdW  Elec       q    Type
                         _______ _______ _______ _____ _____    ______ ____

>  <TORSDO>
F 6

$$$$
=
 OpenBabel11062416593D

 26 27  0  0  1  0  0  0  0  0999 V2000
  184.4060  179.4420  143.9640 S   0  0  0  0  0  0  0  0  0  0  0  0
  185.4990  178.5690  140.1540 C   0  0  0  0  0  0  0  0  0  0  0  0
  184.4200  178.8930  142.4220 C   0  0  0  0  0  0  0  0  0  0  0  0
  186.9100  178.3700  142.1390 C   0  0  0  0  0  0  0  0  0  0  0  0
  188.1510  178.5920  141.3340 C   0  0  0  0  0  2  0  0  0  0  0  0
  183.0790  178.3860  140.5090 C   0  0  0  0  0  3  0  0  0  0  0  0
  187.9540  178.0110  139.9330 C   0  0  0  0  0  2  0  0  0  0  0  0
  184.2790  178.3150  139.6620 C   0  0  0  0  0  3  0  0  0  0  0  0
  186.8610  177.5940  143.1870 N   0  0  0  0  0  0  0  0  0  0  0  0
  185.6760  179.0220  141.5870 C   0  0  1  0  0  3  0  0  0  0  0  0
  186.6770  178.4150  139.3300 N   0  0  0  0  0  0  0  0  0  0  0  0
  183.1650  178.6470  141.7770 N   0  0  0  0  0  0  0  0  0  0  0  0
  187.9230  176.8110  143.7550 C   0  0  0  0  0  0  0  0  0  0  0  0
  188.2910  175.7650  143.1580 O   0  0  0  0  0  0  0  0  0  0  0  0
  188.6710  177.2380  144.9790 C   0  0  0  0  0  2  0  0  0  0  0  0
  190.1690  177.2880  144.7120 C   0  0  0  0  0  3  0  0  0  0  0  0
  190.9140  177.0200  146.0030 C   0  0  0  0  0  1  0  0  0  0  0  0
  190.5750  178.6490  144.1780 C   0  0  0  0  0  1  0  0  0  0  0  0
  186.5800  178.3400  137.8740 C   0  0  0  0  0  2  0  0  0  0  0  0
  188.6920  178.5290  136.7960 O   0  0  0  0  0  0  0  0  0  0  0  0
  189.1520  175.6590  136.7450 C   0  0  0  0  0  0  0  0  0  0  0  0
  188.0180  176.3390  137.2930 N   0  0  0  0  0  2  0  0  0  0  0  0
  187.8240  177.7590  137.2880 C   0  0  0  0  0  0  0  0  0  0  0  0
  190.1200  176.2990  136.2530 O   0  0  0  0  0  0  0  0  0  0  0  0
  189.2010  174.1730  136.7790 C   0  0  0  0  0  2  0  0  0  0  0  0
  190.3040  173.7560  137.5240 O   0  0  0  0  0  1  0  0  0  0  0  0
  3  1  2  0  0  0  0
  4  9  2  0  0  0  0
  5  4  1  0  0  0  0
  6 12  2  0  0  0  0
  7  5  1  0  0  0  0
  8  2  2  0  0  0  0
  8  6  1  0  0  0  0
  9 13  1  0  0  0  0
 10  2  1  6  0  0  0
 10  4  1  0  0  0  0
 10  3  1  0  0  0  0
 11  7  1  0  0  0  0
 11  2  1  0  0  0  0
 12  3  1  0  0  0  0
 13 15  1  0  0  0  0
 14 13  2  0  0  0  0
 16 15  1  0  0  0  0
 16 17  1  0  0  0  0
 18 16  1  0  0  0  0
 19 11  1  0  0  0  0
 20 23  2  0  0  0  0
 21 25  1  0  0  0  0
 21 22  1  0  0  0  0
 23 22  1  0  0  0  0
 23 19  1  0  0  0  0
 24 21  2  0  0  0  0
 25 26  1  0  0  0  0
M  END
>  <MODEL>
6

>  <REMARK>
 VINA RESULT:      -6.9      2.800      5.320
  Name = 
  6 active torsions:
  status: ('A' for Active; 'I' for Inactive)
    1  A    between atoms: C_4  and  C_14
    2  A    between atoms: C_4  and  C_16
    3  A    between atoms: C_5  and  N_19
    4  A    between atoms: C_5  and  C_23
    5  A    between atoms: C_7  and  C_8
    6  A    between atoms: C_14  and  N_17
                            x       y       z     vdW  Elec       q    Type
                         _______ _______ _______ _____ _____    ______ ____

>  <TORSDO>
F 6

$$$$
=
 OpenBabel11062416593D

 26 27  0  0  1  0  0  0  0  0999 V2000
  187.4440  178.2270  139.7690 S   0  0  0  0  0  0  0  0  0  0  0  0
  190.8820  176.8130  138.1410 C   0  0  0  0  0  0  0  0  0  0  0  0
  188.5290  177.3770  138.8850 C   0  0  0  0  0  0  0  0  0  0  0  0
  190.5170  177.3450  140.4980 C   0  0  0  0  0  0  0  0  0  0  0  0
  191.9680  177.6470  140.7000 C   0  0  0  0  0  2  0  0  0  0  0  0
  188.8970  176.2020  136.8360 C   0  0  0  0  0  3  0  0  0  0  0  0
  192.8020  176.7520  139.7830 C   0  0  0  0  0  2  0  0  0  0  0  0
  190.3490  176.2070  137.0710 C   0  0  0  0  0  3  0  0  0  0  0  0
  189.7550  176.8190  141.4180 N   0  0  0  0  0  0  0  0  0  0  0  0
  190.0120  177.5880  139.1050 C   0  0  1  0  0  3  0  0  0  0  0  0
  192.3030  176.7390  138.4020 N   0  0  0  0  0  0  0  0  0  0  0  0
  188.0760  176.7390  137.6850 N   0  0  0  0  0  0  0  0  0  0  0  0
  190.1260  176.4170  142.7460 C   0  0  0  0  0  0  0  0  0  0  0  0
  190.5410  175.2430  142.9310 O   0  0  0  0  0  0  0  0  0  0  0  0
  190.1270  177.3680  143.9020 C   0  0  0  0  0  2  0  0  0  0  0  0
  189.0520  176.9980  144.9130 C   0  0  0  0  0  3  0  0  0  0  0  0
  187.6980  177.4110  144.3750 C   0  0  0  0  0  1  0  0  0  0  0  0
  189.2940  177.6990  146.2370 C   0  0  0  0  0  1  0  0  0  0  0  0
  193.2450  176.3360  137.3620 C   0  0  0  0  0  2  0  0  0  0  0  0
  193.3010  174.0090  137.8540 O   0  0  0  0  0  0  0  0  0  0  0  0
  196.1590  173.9820  138.3840 C   0  0  0  0  0  0  0  0  0  0  0  0
  195.3690  175.1070  137.9880 N   0  0  0  0  0  2  0  0  0  0  0  0
  193.9570  175.0800  137.7470 C   0  0  0  0  0  0  0  0  0  0  0  0
  195.6500  172.8340  138.4930 O   0  0  0  0  0  0  0  0  0  0  0  0
  197.6120  174.1640  138.6450 C   0  0  0  0  0  2  0  0  0  0  0  0
  197.9700  175.4910  138.4070 O   0  0  0  0  0  1  0  0  0  0  0  0
  2 11  1  0  0  0  0
  3 10  1  0  0  0  0
  3  1  2  0  0  0  0
  4  5  1  0  0  0  0
  4  9  2  0  0  0  0
  6  8  1  0  0  0  0
  6 12  2  0  0  0  0
  7  5  1  0  0  0  0
  8  2  2  0  0  0  0
  9 13  1  0  0  0  0
 10  2  1  6  0  0  0
 10  4  1  0  0  0  0
 11  7  1  0  0  0  0
 12  3  1  0  0  0  0
 13 14  2  0  0  0  0
 13 15  1  0  0  0  0
 15 16  1  0  0  0  0
 16 18  1  0  0  0  0
 17 16  1  0  0  0  0
 19 23  1  0  0  0  0
 19 11  1  0  0  0  0
 21 24  2  0  0  0  0
 21 25  1  0  0  0  0
 22 21  1  0  0  0  0
 23 20  2  0  0  0  0
 23 22  1  0  0  0  0
 26 25  1  0  0  0  0
M  END
>  <MODEL>
7

>  <REMARK>
 VINA RESULT:      -6.9      4.961      7.088
  Name = 
  6 active torsions:
  status: ('A' for Active; 'I' for Inactive)
    1  A    between atoms: C_4  and  C_14
    2  A    between atoms: C_4  and  C_16
    3  A    between atoms: C_5  and  N_19
    4  A    between atoms: C_5  and  C_23
    5  A    between atoms: C_7  and  C_8
    6  A    between atoms: C_14  and  N_17
                            x       y       z     vdW  Elec       q    Type
                         _______ _______ _______ _____ _____    ______ ____

>  <TORSDO>
F 6

$$$$
=
 OpenBabel11062416593D

 26 27  0  0  1  0  0  0  0  0999 V2000
  188.9730  176.0030  142.8000 S   0  0  0  0  0  0  0  0  0  0  0  0
  185.9010  178.5740  143.4540 C   0  0  0  0  0  0  0  0  0  0  0  0
  187.9550  177.2840  142.7280 C   0  0  0  0  0  0  0  0  0  0  0  0
  187.1910  177.4070  145.1690 C   0  0  0  0  0  0  0  0  0  0  0  0
  186.0350  177.4300  146.1180 C   0  0  0  0  0  2  0  0  0  0  0  0
  187.0350  178.9800  141.3170 C   0  0  0  0  0  3  0  0  0  0  0  0
  185.2150  178.6990  145.8820 C   0  0  0  0  0  2  0  0  0  0  0  0
  185.9950  179.2740  142.3140 C   0  0  0  0  0  3  0  0  0  0  0  0
  188.4370  177.4870  145.5490 N   0  0  0  0  0  0  0  0  0  0  0  0
  186.8130  177.3970  143.7160 C   0  0  1  0  0  3  0  0  0  0  0  0
  184.9260  178.9280  144.4610 N   0  0  0  0  0  0  0  0  0  0  0  0
  187.9310  178.0650  141.5280 N   0  0  0  0  0  0  0  0  0  0  0  0
  188.9430  177.6290  146.8860 C   0  0  0  0  0  0  0  0  0  0  0  0
  188.5920  178.6290  147.5650 O   0  0  0  0  0  0  0  0  0  0  0  0
  189.7970  176.5860  147.5370 C   0  0  0  0  0  2  0  0  0  0  0  0
  191.2590  176.7610  147.1530 C   0  0  0  0  0  3  0  0  0  0  0  0
  191.3820  176.7640  145.6440 C   0  0  0  0  0  1  0  0  0  0  0  0
  192.1030  175.6320  147.7170 C   0  0  0  0  0  1  0  0  0  0  0  0
  183.7910  179.7940  144.1480 C   0  0  0  0  0  2  0  0  0  0  0  0
  181.9210  178.3370  144.3440 O   0  0  0  0  0  0  0  0  0  0  0  0
  181.4060  178.2810  141.4830 C   0  0  0  0  0  0  0  0  0  0  0  0
  182.4360  179.0110  142.1570 N   0  0  0  0  0  2  0  0  0  0  0  0
  182.6630  179.0030  143.5720 C   0  0  0  0  0  0  0  0  0  0  0  0
  180.5630  177.6000  142.1260 O   0  0  0  0  0  0  0  0  0  0  0  0
  181.3140  178.3460  140.0000 C   0  0  0  0  0  2  0  0  0  0  0  0
  182.1340  179.3690  139.5230 O   0  0  0  0  0  1  0  0  0  0  0  0
  2 10  1  0  0  0  0
  2 11  1  0  0  0  0
  3  1  2  0  0  0  0
  4  9  2  0  0  0  0
  4  5  1  0  0  0  0
  6 12  2  0  0  0  0
  6  8  1  0  0  0  0
  7  5  1  0  0  0  0
  8  2  2  0  0  0  0
  9 13  1  0  0  0  0
 10  3  1  6  0  0  0
 10  4  1  0  0  0  0
 11  7  1  0  0  0  0
 12  3  1  0  0  0  0
 13 15  1  0  0  0  0
 13 14  2  0  0  0  0
 16 15  1  0  0  0  0
 16 18  1  0  0  0  0
 17 16  1  0  0  0  0
 19 11  1  0  0  0  0
 21 24  2  0  0  0  0
 21 22  1  0  0  0  0
 22 23  1  0  0  0  0
 23 19  1  0  0  0  0
 23 20  2  0  0  0  0
 25 21  1  0  0  0  0
 26 25  1  0  0  0  0
M  END
>  <MODEL>
8

>  <REMARK>
 VINA RESULT:      -6.7      3.127      5.918
  Name = 
  6 active torsions:
  status: ('A' for Active; 'I' for Inactive)
    1  A    between atoms: C_4  and  C_14
    2  A    between atoms: C_4  and  C_16
    3  A    between atoms: C_5  and  N_19
    4  A    between atoms: C_5  and  C_23
    5  A    between atoms: C_7  and  C_8
    6  A    between atoms: C_14  and  N_17
                            x       y       z     vdW  Elec       q    Type
                         _______ _______ _______ _____ _____    ______ ____

>  <TORSDO>
F 6

$$$$
=
 OpenBabel11062416593D

 26 27  0  0  1  0  0  0  0  0999 V2000
  189.8320  175.6280  142.8470 S   0  0  0  0  0  0  0  0  0  0  0  0
  186.7250  178.2190  142.5200 C   0  0  0  0  0  0  0  0  0  0  0  0
  188.8780  176.8890  142.4230 C   0  0  0  0  0  0  0  0  0  0  0  0
  187.5500  177.2140  144.5880 C   0  0  0  0  0  0  0  0  0  0  0  0
  186.2000  177.3080  145.2250 C   0  0  0  0  0  2  0  0  0  0  0  0
  188.3460  178.4510  140.6930 C   0  0  0  0  0  3  0  0  0  0  0  0
  185.4770  178.5450  144.6930 C   0  0  0  0  0  2  0  0  0  0  0  0
  187.1000  178.8200  141.3820 C   0  0  0  0  0  3  0  0  0  0  0  0
  188.6690  177.3370  145.2500 N   0  0  0  0  0  0  0  0  0  0  0  0
  187.5330  177.0760  143.0940 C   0  0  1  0  0  3  0  0  0  0  0  0
  185.5410  178.6500  143.2290 N   0  0  0  0  0  0  0  0  0  0  0  0
  189.1540  177.5650  141.1910 N   0  0  0  0  0  0  0  0  0  0  0  0
  188.8400  177.5960  146.6520 C   0  0  0  0  0  0  0  0  0  0  0  0
  187.9250  178.1980  147.2730 O   0  0  0  0  0  0  0  0  0  0  0  0
  190.0220  177.0980  147.4230 C   0  0  0  0  0  2  0  0  0  0  0  0
  191.0020  176.3740  146.5120 C   0  0  0  0  0  3  0  0  0  0  0  0
  192.0560  175.6900  147.3560 C   0  0  0  0  0  1  0  0  0  0  0  0
  191.6790  177.3500  145.5670 C   0  0  0  0  0  1  0  0  0  0  0  0
  184.5260  179.4750  142.5790 C   0  0  0  0  0  2  0  0  0  0  0  0
  183.7970  177.6450  141.2460 O   0  0  0  0  0  0  0  0  0  0  0  0
  180.9740  178.2090  141.6510 C   0  0  0  0  0  0  0  0  0  0  0  0
  182.0820  178.9300  142.1990 N   0  0  0  0  0  2  0  0  0  0  0  0
  183.4630  178.6250  141.9650 C   0  0  0  0  0  0  0  0  0  0  0  0
  181.1510  177.1810  140.9450 O   0  0  0  0  0  0  0  0  0  0  0  0
  179.5890  178.6660  141.9430 C   0  0  0  0  0  2  0  0  0  0  0  0
  179.1880  178.1880  143.1900 O   0  0  0  0  0  1  0  0  0  0  0  0
  2 10  1  0  0  0  0
  2 11  1  0  0  0  0
  3  1  2  0  0  0  0
  4  5  1  0  0  0  0
  4  9  2  0  0  0  0
  6 12  2  0  0  0  0
  6  8  1  0  0  0  0
  7  5  1  0  0  0  0
  8  2  2  0  0  0  0
  9 13  1  0  0  0  0
 10  3  1  6  0  0  0
 10  4  1  0  0  0  0
 11  7  1  0  0  0  0
 12  3  1  0  0  0  0
 13 14  2  0  0  0  0
 13 15  1  0  0  0  0
 16 17  1  0  0  0  0
 16 15  1  0  0  0  0
 18 16  1  0  0  0  0
 19 11  1  0  0  0  0
 20 23  2  0  0  0  0
 21 25  1  0  0  0  0
 21 22  1  0  0  0  0
 23 22  1  0  0  0  0
 23 19  1  0  0  0  0
 24 21  2  0  0  0  0
 25 26  1  0  0  0  0
M  END
>  <MODEL>
9

>  <REMARK>
 VINA RESULT:      -6.7      3.193      5.770
  Name = 
  6 active torsions:
  status: ('A' for Active; 'I' for Inactive)
    1  A    between atoms: C_4  and  C_14
    2  A    between atoms: C_4  and  C_16
    3  A    between atoms: C_5  and  N_19
    4  A    between atoms: C_5  and  C_23
    5  A    between atoms: C_7  and  C_8
    6  A    between atoms: C_14  and  N_17
                            x       y       z     vdW  Elec       q    Type
                         _______ _______ _______ _____ _____    ______ ____

>  <TORSDO>
F 6

$$$$
