=
 OpenBabel11062412403D

 32 34  0  0  1  0  0  0  0  0999 V2000
  188.0060  178.5950  138.9420 O   0  0  0  0  0  1  0  0  0  0  0  0
  191.2240  178.4690  141.8820 C   0  0  0  0  0  2  0  0  0  0  0  0
  190.3890  175.9620  144.9540 C   0  0  0  0  0  1  0  0  0  0  0  0
  188.2240  177.4350  145.3150 C   0  0  2  0  0  3  0  0  0  0  0  0
  188.2860  178.1270  141.1340 C   0  0  2  0  0  3  0  0  0  0  0  0
  191.2070  178.3500  143.4000 C   0  0  2  0  0  3  0  0  0  0  0  0
  187.8540  176.7140  144.0060 C   0  0  0  0  0  2  0  0  0  0  0  0
  189.4510  178.3850  145.3150 C   0  0  2  0  0  3  0  0  0  0  0  0
  186.8060  177.4280  143.1580 C   0  0  0  0  0  2  0  0  0  0  0  0
  189.2000  176.9290  141.4230 C   0  0  0  0  0  2  0  0  0  0  0  0
  189.8330  178.7690  143.8820 C   0  0  0  0  0  2  0  0  0  0  0  0
  192.2530  179.2790  143.9830 C   0  0  0  0  0  1  0  0  0  0  0  0
  187.3770  178.5610  142.2930 C   0  0  2  0  0  3  0  0  0  0  0  0
  186.1600  178.5160  140.2340 C   0  0  0  0  0  2  0  0  0  0  0  0
  189.5880  176.9450  145.8210 C   0  0  2  0  0  0  0  0  0  0  0  0
  190.6980  177.2030  141.1860 C   0  0  1  0  0  3  0  0  0  0  0  0
  187.4530  177.8930  139.9580 N   0  0  0  0  0  0  0  0  0  0  0  0
  186.2340  179.2210  141.5750 C   0  0  0  0  0  2  0  0  0  0  0  0
  189.2500  178.0810  148.0320 C   0  0  0  0  0  1  0  0  0  0  0  0
  189.6980  176.7930  147.3570 C   0  0  1  0  0  0  0  0  0  0  0  0
  188.8730  175.7630  147.8210 O   0  0  0  0  0  1  0  0  0  0  0  0
  191.9190  177.4170  148.0390 O   0  0  0  0  0  1  0  0  0  0  0  0
  191.5870  175.1790  147.7120 O   0  0  0  0  0  0  0  0  0  0  0  0
  191.1230  176.4880  147.7390 C   0  0  0  0  0  0  0  0  0  0  0  0
  190.2280  177.3410  138.8050 N   0  0  0  0  0  2  0  0  0  0  0  0
  191.1040  177.1550  139.7240 C   0  0  0  0  0  0  0  0  0  0  0  0
  193.4690  177.4940  139.6410 O   0  0  0  0  0  1  0  0  0  0  0  0
  192.4420  176.6050  139.3130 C   0  0  2  0  0  3  0  0  0  0  0  0
  192.4850  176.2960  137.8240 C   0  0  0  0  0  2  0  0  0  0  0  0
  192.7930  174.8260  137.5920 C   0  0  0  0  0  2  0  0  0  0  0  0
  190.5680  174.0570  137.7320 O   0  0  0  0  0  0  0  0  0  0  0  0
  191.5850  174.1250  137.0620 C   0  0  0  0  0  3  0  0  0  0  0  0
  1 17  1  0  0  0  0
  2  6  1  0  0  0  0
  4  7  1  6  0  0  0
  4 15  1  0  0  0  0
  5 10  1  1  0  0  0
  5 13  1  0  0  0  0
  6 11  1  0  0  0  0
  6 12  1  1  0  0  0
  8 11  1  6  0  0  0
  8  4  1  0  0  0  0
  8 15  1  0  0  0  0
  9  7  1  0  0  0  0
 13 18  1  6  0  0  0
 13  9  1  0  0  0  0
 14 18  1  0  0  0  0
 15  3  1  6  0  0  0
 15 20  1  0  0  0  0
 16 26  1  6  0  0  0
 16 10  1  0  0  0  0
 16  2  1  0  0  0  0
 17 14  1  0  0  0  0
 17  5  1  0  0  0  0
 20 24  1  0  0  0  0
 20 21  1  0  0  0  0
 20 19  1  1  0  0  0
 23 24  2  0  0  0  0
 24 22  1  0  0  0  0
 25 26  2  0  0  0  0
 28 27  1  6  0  0  0
 28 26  1  0  0  0  0
 29 28  1  0  0  0  0
 30 29  1  0  0  0  0
 32 30  1  0  0  0  0
 32 31  2  0  0  0  0
M  END
>  <MODEL>
1

>  <REMARK>
 VINA RESULT:      -6.6      0.000      0.000
  Name = 
  7 active torsions:
  status: ('A' for Active; 'I' for Inactive)
    1  A    between atoms: C_2  and  C_11
    2  A    between atoms: C_2  and  C_18
    3  A    between atoms: C_11  and  C_12
    4  A    between atoms: C_18  and  C_31
    5  A    between atoms: C_22  and  C_27
    6  A    between atoms: C_22  and  C_32
    7  A    between atoms: C_28  and  C_31
                            x       y       z     vdW  Elec       q    Type
                         _______ _______ _______ _____ _____    ______ ____

>  <TORSDO>
F 7

$$$$
=
 OpenBabel11062412403D

 32 34  0  0  1  0  0  0  0  0999 V2000
  187.8930  178.5580  138.9100 O   0  0  0  0  0  1  0  0  0  0  0  0
  191.1530  178.3180  141.7970 C   0  0  0  0  0  2  0  0  0  0  0  0
  190.2530  175.8990  144.9200 C   0  0  0  0  0  1  0  0  0  0  0  0
  188.1690  177.4800  145.2960 C   0  0  2  0  0  3  0  0  0  0  0  0
  188.1890  178.1080  141.1040 C   0  0  2  0  0  3  0  0  0  0  0  0
  191.1580  178.2230  143.3160 C   0  0  2  0  0  3  0  0  0  0  0  0
  187.7410  176.7590  144.0040 C   0  0  0  0  0  2  0  0  0  0  0  0
  189.4390  178.3700  145.2600 C   0  0  2  0  0  3  0  0  0  0  0  0
  186.7130  177.5100  143.1640 C   0  0  0  0  0  2  0  0  0  0  0  0
  189.0500  176.8720  141.3950 C   0  0  0  0  0  2  0  0  0  0  0  0
  189.8140  178.7140  143.8160 C   0  0  0  0  0  2  0  0  0  0  0  0
  192.2570  179.1080  143.8680 C   0  0  0  0  0  1  0  0  0  0  0  0
  187.3230  178.6020  142.2710 C   0  0  2  0  0  3  0  0  0  0  0  0
  186.0690  178.5870  140.2350 C   0  0  0  0  0  2  0  0  0  0  0  0
  189.5160  176.9320  145.7860 C   0  0  2  0  0  0  0  0  0  0  0  0
  190.5550  177.0700  141.1290 C   0  0  1  0  0  3  0  0  0  0  0  0
  187.3250  177.8990  139.9470 N   0  0  0  0  0  0  0  0  0  0  0  0
  186.2000  179.3070  141.5630 C   0  0  0  0  0  2  0  0  0  0  0  0
  189.2410  178.1040  147.9870 C   0  0  0  0  0  1  0  0  0  0  0  0
  189.6460  176.7970  147.3220 C   0  0  1  0  0  0  0  0  0  0  0  0
  188.8020  175.7940  147.8120 O   0  0  0  0  0  1  0  0  0  0  0  0
  191.4620  175.2640  147.6900 O   0  0  0  0  0  0  0  0  0  0  0  0
  191.9460  177.4650  148.0720 O   0  0  0  0  0  1  0  0  0  0  0  0
  191.0680  176.4600  147.6860 C   0  0  0  0  0  0  0  0  0  0  0  0
  191.6800  177.8790  139.1320 N   0  0  0  0  0  2  0  0  0  0  0  0
  190.9320  176.9810  139.6620 C   0  0  0  0  0  0  0  0  0  0  0  0
  191.0040  174.9140  138.4630 O   0  0  0  0  0  1  0  0  0  0  0  0
  190.2160  176.0340  138.7380 C   0  0  2  0  0  3  0  0  0  0  0  0
  189.8220  176.7170  137.4360 C   0  0  0  0  0  2  0  0  0  0  0  0
  189.1330  175.7330  136.5040 C   0  0  0  0  0  2  0  0  0  0  0  0
  186.8610  176.1520  136.9750 O   0  0  0  0  0  0  0  0  0  0  0  0
  187.7900  175.3650  137.0460 C   0  0  0  0  0  3  0  0  0  0  0  0
  1 17  1  0  0  0  0
  2  6  1  0  0  0  0
  4  7  1  6  0  0  0
  4 15  1  0  0  0  0
  5 10  1  1  0  0  0
  5 13  1  0  0  0  0
  6 11  1  0  0  0  0
  6 12  1  1  0  0  0
  8 11  1  6  0  0  0
  8  4  1  0  0  0  0
  8 15  1  0  0  0  0
  9  7  1  0  0  0  0
 13 18  1  6  0  0  0
 13  9  1  0  0  0  0
 14 18  1  0  0  0  0
 15  3  1  6  0  0  0
 15 20  1  0  0  0  0
 16 26  1  6  0  0  0
 16 10  1  0  0  0  0
 16  2  1  0  0  0  0
 17 14  1  0  0  0  0
 17  5  1  0  0  0  0
 20 24  1  0  0  0  0
 20 21  1  0  0  0  0
 20 19  1  1  0  0  0
 24 22  2  0  0  0  0
 24 23  1  0  0  0  0
 25 26  2  0  0  0  0
 28 27  1  6  0  0  0
 28 26  1  0  0  0  0
 29 28  1  0  0  0  0
 30 32  1  0  0  0  0
 30 29  1  0  0  0  0
 31 32  2  0  0  0  0
M  END
>  <MODEL>
2

>  <REMARK>
 VINA RESULT:      -6.6      1.256      1.682
  Name = 
  7 active torsions:
  status: ('A' for Active; 'I' for Inactive)
    1  A    between atoms: C_2  and  C_11
    2  A    between atoms: C_2  and  C_18
    3  A    between atoms: C_11  and  C_12
    4  A    between atoms: C_18  and  C_31
    5  A    between atoms: C_22  and  C_27
    6  A    between atoms: C_22  and  C_32
    7  A    between atoms: C_28  and  C_31
                            x       y       z     vdW  Elec       q    Type
                         _______ _______ _______ _____ _____    ______ ____

>  <TORSDO>
F 7

$$$$
=
 OpenBabel11062412403D

 32 34  0  0  1  0  0  0  0  0999 V2000
  186.4060  174.6790  135.3980 O   0  0  0  0  0  1  0  0  0  0  0  0
  189.6000  176.7440  137.5330 C   0  0  0  0  0  2  0  0  0  0  0  0
  193.2310  176.0790  135.8640 C   0  0  0  0  0  1  0  0  0  0  0  0
  192.7250  173.5130  136.2490 C   0  0  2  0  0  3  0  0  0  0  0  0
  188.6330  174.4850  135.7240 C   0  0  2  0  0  3  0  0  0  0  0  0
  191.0370  176.3470  137.8390 C   0  0  2  0  0  3  0  0  0  0  0  0
  191.7350  173.8240  135.1120 C   0  0  0  0  0  2  0  0  0  0  0  0
  192.5450  174.2420  137.6070 C   0  0  2  0  0  3  0  0  0  0  0  0
  190.5490  172.8690  135.0200 C   0  0  0  0  0  2  0  0  0  0  0  0
  189.4640  175.6600  135.1910 C   0  0  0  0  0  2  0  0  0  0  0  0
  191.1390  174.8400  137.7130 C   0  0  0  0  0  2  0  0  0  0  0  0
  191.3770  176.7590  139.2570 C   0  0  0  0  0  1  0  0  0  0  0  0
  189.4150  173.1940  136.0040 C   0  0  2  0  0  3  0  0  0  0  0  0
  187.3700  172.7140  134.8590 C   0  0  0  0  0  2  0  0  0  0  0  0
  193.5580  174.7590  136.5800 C   0  0  2  0  0  0  0  0  0  0  0  0
  189.3520  176.9480  136.0300 C   0  0  1  0  0  3  0  0  0  0  0  0
  187.5230  174.1670  134.8320 N   0  0  0  0  0  0  0  0  0  0  0  0
  188.3550  172.1380  135.8590 C   0  0  0  0  0  2  0  0  0  0  0  0
  195.4770  173.1720  136.2780 C   0  0  0  0  0  1  0  0  0  0  0  0
  195.0420  174.4810  136.9200 C   0  0  1  0  0  0  0  0  0  0  0  0
  195.8700  175.4940  136.4210 O   0  0  0  0  0  1  0  0  0  0  0  0
  195.4470  173.2930  138.9710 O   0  0  0  0  0  0  0  0  0  0  0  0
  195.0730  175.5370  139.1970 O   0  0  0  0  0  1  0  0  0  0  0  0
  195.2170  174.3990  138.4130 C   0  0  0  0  0  0  0  0  0  0  0  0
  187.5680  177.7640  134.5950 N   0  0  0  0  0  2  0  0  0  0  0  0
  188.0810  177.7360  135.7710 C   0  0  0  0  0  0  0  0  0  0  0  0
  188.5950  179.5500  137.2390 O   0  0  0  0  0  1  0  0  0  0  0  0
  187.5660  178.7230  136.7820 C   0  0  2  0  0  3  0  0  0  0  0  0
  186.9070  178.0220  137.9610 C   0  0  0  0  0  2  0  0  0  0  0  0
  185.4210  177.8300  137.7040 C   0  0  0  0  0  2  0  0  0  0  0  0
  185.0280  179.6520  139.1480 O   0  0  0  0  0  0  0  0  0  0  0  0
  184.6220  178.5860  138.7140 C   0  0  0  0  0  3  0  0  0  0  0  0
  2  6  1  0  0  0  0
  4  7  1  6  0  0  0
  4 15  1  0  0  0  0
  4  8  1  0  0  0  0
  5 10  1  6  0  0  0
  5 13  1  0  0  0  0
  6 12  1  1  0  0  0
  8 11  1  6  0  0  0
  9  7  1  0  0  0  0
 10 16  1  0  0  0  0
 11  6  1  0  0  0  0
 13  9  1  6  0  0  0
 14 18  1  0  0  0  0
 15  3  1  6  0  0  0
 15 20  1  0  0  0  0
 15  8  1  0  0  0  0
 16 26  1  1  0  0  0
 16  2  1  0  0  0  0
 17 14  1  0  0  0  0
 17  1  1  0  0  0  0
 17  5  1  0  0  0  0
 18 13  1  0  0  0  0
 20 19  1  6  0  0  0
 20 24  1  0  0  0  0
 21 20  1  0  0  0  0
 24 22  2  0  0  0  0
 24 23  1  0  0  0  0
 25 26  2  0  0  0  0
 26 28  1  0  0  0  0
 28 27  1  1  0  0  0
 28 29  1  0  0  0  0
 30 29  1  0  0  0  0
 30 32  1  0  0  0  0
 32 31  2  0  0  0  0
M  END
>  <MODEL>
3

>  <REMARK>
 VINA RESULT:      -6.5      5.527      8.538
  Name = 
  7 active torsions:
  status: ('A' for Active; 'I' for Inactive)
    1  A    between atoms: C_2  and  C_11
    2  A    between atoms: C_2  and  C_18
    3  A    between atoms: C_11  and  C_12
    4  A    between atoms: C_18  and  C_31
    5  A    between atoms: C_22  and  C_27
    6  A    between atoms: C_22  and  C_32
    7  A    between atoms: C_28  and  C_31
                            x       y       z     vdW  Elec       q    Type
                         _______ _______ _______ _____ _____    ______ ____

>  <TORSDO>
F 7

$$$$
=
 OpenBabel11062412403D

 32 34  0  0  1  0  0  0  0  0999 V2000
  187.0560  175.3550  137.4480 O   0  0  0  0  0  1  0  0  0  0  0  0
  190.8590  177.0250  138.7780 C   0  0  0  0  0  2  0  0  0  0  0  0
  193.7490  176.6720  135.9620 C   0  0  0  0  0  1  0  0  0  0  0  0
  193.2560  174.0770  136.0550 C   0  0  2  0  0  3  0  0  0  0  0  0
  189.2600  175.1140  137.0170 C   0  0  2  0  0  3  0  0  0  0  0  0
  192.2970  176.5850  138.5440 C   0  0  2  0  0  3  0  0  0  0  0  0
  191.9780  174.5790  135.3560 C   0  0  0  0  0  2  0  0  0  0  0  0
  193.5450  174.5580  137.5010 C   0  0  2  0  0  3  0  0  0  0  0  0
  190.7740  173.6510  135.4850 C   0  0  0  0  0  2  0  0  0  0  0  0
  189.9440  176.3650  136.4530 C   0  0  0  0  0  2  0  0  0  0  0  0
  192.2750  175.1230  138.1440 C   0  0  0  0  0  2  0  0  0  0  0  0
  193.0820  176.7450  139.8300 C   0  0  0  0  0  1  0  0  0  0  0  0
  190.0210  173.7950  136.8170 C   0  0  2  0  0  3  0  0  0  0  0  0
  187.7000  173.5170  136.3130 C   0  0  0  0  0  2  0  0  0  0  0  0
  194.2140  175.2490  136.3080 C   0  0  2  0  0  0  0  0  0  0  0  0
  190.1660  177.4870  137.4860 C   0  0  1  0  0  3  0  0  0  0  0  0
  187.9120  174.9520  136.4810 N   0  0  0  0  0  0  0  0  0  0  0  0
  188.9150  172.7780  136.8400 C   0  0  0  0  0  2  0  0  0  0  0  0
  195.8780  173.9680  134.9360 C   0  0  0  0  0  1  0  0  0  0  0  0
  195.7130  174.9210  136.1110 C   0  0  1  0  0  0  0  0  0  0  0  0
  196.4480  176.0780  135.8250 O   0  0  0  0  0  1  0  0  0  0  0  0
  196.6580  175.0020  138.3210 O   0  0  0  0  0  1  0  0  0  0  0  0
  196.3970  172.9070  137.4440 O   0  0  0  0  0  0  0  0  0  0  0  0
  196.2660  174.2880  137.3610 C   0  0  0  0  0  0  0  0  0  0  0  0
  188.7430  179.4370  137.2000 N   0  0  0  0  0  2  0  0  0  0  0  0
  188.9200  178.3040  137.7760 C   0  0  0  0  0  0  0  0  0  0  0  0
  186.7230  178.4030  138.7110 O   0  0  0  0  0  1  0  0  0  0  0  0
  188.0290  177.9650  138.9390 C   0  0  2  0  0  3  0  0  0  0  0  0
  188.5530  178.5640  140.2360 C   0  0  0  0  0  2  0  0  0  0  0  0
  187.4960  178.4860  141.3260 C   0  0  0  0  0  2  0  0  0  0  0  0
  188.2890  176.6200  142.5300 O   0  0  0  0  0  0  0  0  0  0  0  0
  188.0550  177.8170  142.5380 C   0  0  0  0  0  3  0  0  0  0  0  0
  4  7  1  6  0  0  0
  4 15  1  0  0  0  0
  4  8  1  0  0  0  0
  5 10  1  6  0  0  0
  6  2  1  0  0  0  0
  6 12  1  1  0  0  0
  7  9  1  0  0  0  0
  8 11  1  6  0  0  0
 10 16  1  0  0  0  0
 11  6  1  0  0  0  0
 13  9  1  6  0  0  0
 13 18  1  0  0  0  0
 13  5  1  0  0  0  0
 14 17  1  0  0  0  0
 14 18  1  0  0  0  0
 15  3  1  6  0  0  0
 15  8  1  0  0  0  0
 16 26  1  1  0  0  0
 16  2  1  0  0  0  0
 17  5  1  0  0  0  0
 17  1  1  0  0  0  0
 20 19  1  6  0  0  0
 20 15  1  0  0  0  0
 20 24  1  0  0  0  0
 21 20  1  0  0  0  0
 24 23  2  0  0  0  0
 24 22  1  0  0  0  0
 25 26  2  0  0  0  0
 26 28  1  0  0  0  0
 28 27  1  6  0  0  0
 28 29  1  0  0  0  0
 29 30  1  0  0  0  0
 30 32  1  0  0  0  0
 31 32  2  0  0  0  0
M  END
>  <MODEL>
4

>  <REMARK>
 VINA RESULT:      -6.4      3.477      8.393
  Name = 
  7 active torsions:
  status: ('A' for Active; 'I' for Inactive)
    1  A    between atoms: C_2  and  C_11
    2  A    between atoms: C_2  and  C_18
    3  A    between atoms: C_11  and  C_12
    4  A    between atoms: C_18  and  C_31
    5  A    between atoms: C_22  and  C_27
    6  A    between atoms: C_22  and  C_32
    7  A    between atoms: C_28  and  C_31
                            x       y       z     vdW  Elec       q    Type
                         _______ _______ _______ _____ _____    ______ ____

>  <TORSDO>
F 7

$$$$
=
 OpenBabel11062412403D

 32 34  0  0  1  0  0  0  0  0999 V2000
  186.7000  179.0070  137.3410 O   0  0  0  0  0  1  0  0  0  0  0  0
  182.3840  178.7100  137.8970 C   0  0  0  0  0  2  0  0  0  0  0  0
  181.2010  174.9110  138.6580 C   0  0  0  0  0  1  0  0  0  0  0  0
  182.3590  174.2950  136.3630 C   0  0  2  0  0  3  0  0  0  0  0  0
  185.0660  177.4590  137.1510 C   0  0  2  0  0  3  0  0  0  0  0  0
  181.3820  177.6350  137.5020 C   0  0  2  0  0  3  0  0  0  0  0  0
  183.5980  174.5830  137.2310 C   0  0  0  0  0  2  0  0  0  0  0  0
  181.3580  175.4490  136.0950 C   0  0  2  0  0  3  0  0  0  0  0  0
  184.8510  174.9620  136.4480 C   0  0  0  0  0  2  0  0  0  0  0  0
  184.3440  177.1240  138.4630 C   0  0  0  0  0  2  0  0  0  0  0  0
  182.0060  176.8030  136.3980 C   0  0  0  0  0  2  0  0  0  0  0  0
  180.1210  178.2950  136.9860 C   0  0  0  0  0  1  0  0  0  0  0  0
  184.8910  176.4370  136.0190 C   0  0  2  0  0  3  0  0  0  0  0  0
  187.1740  177.1270  136.1910 C   0  0  0  0  0  2  0  0  0  0  0  0
  181.0820  174.4280  137.2040 C   0  0  2  0  0  0  0  0  0  0  0  0
  183.3850  178.2230  138.9580 C   0  0  1  0  0  3  0  0  0  0  0  0
  186.4940  177.6700  137.3650 N   0  0  0  0  0  0  0  0  0  0  0  0
  186.1320  176.6510  135.1990 C   0  0  0  0  0  2  0  0  0  0  0  0
  178.9310  173.4030  137.9890 C   0  0  0  0  0  1  0  0  0  0  0  0
  179.9790  173.3900  136.8860 C   0  0  1  0  0  0  0  0  0  0  0  0
  179.3310  173.6970  135.6840 O   0  0  0  0  0  1  0  0  0  0  0  0
  180.5750  171.3960  135.6810 O   0  0  0  0  0  0  0  0  0  0  0  0
  181.1200  171.3990  137.9010 O   0  0  0  0  0  1  0  0  0  0  0  0
  180.5870  172.0170  136.7770 C   0  0  0  0  0  0  0  0  0  0  0  0
  184.2230  180.5040  139.0380 N   0  0  0  0  0  2  0  0  0  0  0  0
  184.0850  179.3810  139.6450 C   0  0  0  0  0  0  0  0  0  0  0  0
  186.0640  178.4700  140.6290 O   0  0  0  0  0  1  0  0  0  0  0  0
  184.8830  179.1640  140.9010 C   0  0  2  0  0  3  0  0  0  0  0  0
  184.0770  178.4140  141.9510 C   0  0  0  0  0  2  0  0  0  0  0  0
  184.4930  178.8410  143.3500 C   0  0  0  0  0  2  0  0  0  0  0  0
  183.3910  179.0390  145.4250 O   0  0  0  0  0  0  0  0  0  0  0  0
  183.2870  179.0310  144.2100 C   0  0  0  0  0  3  0  0  0  0  0  0
  1 17  1  0  0  0  0
  2 16  1  0  0  0  0
  4 15  1  0  0  0  0
  4  7  1  1  0  0  0
  5 17  1  0  0  0  0
  5 10  1  1  0  0  0
  6 12  1  6  0  0  0
  6  2  1  0  0  0  0
  8  4  1  0  0  0  0
  8 11  1  1  0  0  0
  8 15  1  0  0  0  0
  9  7  1  0  0  0  0
 10 16  1  0  0  0  0
 11  6  1  0  0  0  0
 13 18  1  6  0  0  0
 13  9  1  0  0  0  0
 13  5  1  0  0  0  0
 14 17  1  0  0  0  0
 15  3  1  1  0  0  0
 16 26  1  6  0  0  0
 18 14  1  0  0  0  0
 20 15  1  0  0  0  0
 20 19  1  1  0  0  0
 21 20  1  0  0  0  0
 22 24  2  0  0  0  0
 24 20  1  0  0  0  0
 24 23  1  0  0  0  0
 25 26  2  0  0  0  0
 26 28  1  0  0  0  0
 28 27  1  6  0  0  0
 28 29  1  0  0  0  0
 29 30  1  0  0  0  0
 30 32  1  0  0  0  0
 32 31  2  0  0  0  0
M  END
>  <MODEL>
5

>  <REMARK>
 VINA RESULT:      -6.3      6.028     10.704
  Name = 
  7 active torsions:
  status: ('A' for Active; 'I' for Inactive)
    1  A    between atoms: C_2  and  C_11
    2  A    between atoms: C_2  and  C_18
    3  A    between atoms: C_11  and  C_12
    4  A    between atoms: C_18  and  C_31
    5  A    between atoms: C_22  and  C_27
    6  A    between atoms: C_22  and  C_32
    7  A    between atoms: C_28  and  C_31
                            x       y       z     vdW  Elec       q    Type
                         _______ _______ _______ _____ _____    ______ ____

>  <TORSDO>
F 7

$$$$
=
 OpenBabel11062412403D

 32 34  0  0  1  0  0  0  0  0999 V2000
  191.0110  176.6170  136.7560 O   0  0  0  0  0  1  0  0  0  0  0  0
  186.7610  177.3930  136.1560 C   0  0  0  0  0  2  0  0  0  0  0  0
  184.4380  174.4760  137.7390 C   0  0  0  0  0  1  0  0  0  0  0  0
  185.7880  172.8210  136.1830 C   0  0  2  0  0  3  0  0  0  0  0  0
  189.0750  175.4610  136.6290 C   0  0  2  0  0  3  0  0  0  0  0  0
  185.5910  176.4630  135.8660 C   0  0  2  0  0  3  0  0  0  0  0  0
  186.8710  173.1740  137.2190 C   0  0  0  0  0  2  0  0  0  0  0  0
  185.2210  173.9560  135.2900 C   0  0  2  0  0  3  0  0  0  0  0  0
  188.3050  172.9760  136.7370 C   0  0  0  0  0  2  0  0  0  0  0  0
  188.0530  175.7970  137.7240 C   0  0  0  0  0  2  0  0  0  0  0  0
  186.1530  175.1710  135.3080 C   0  0  0  0  0  2  0  0  0  0  0  0
  184.6870  177.1080  134.8350 C   0  0  0  0  0  1  0  0  0  0  0  0
  188.8370  174.1390  135.8850 C   0  0  2  0  0  3  0  0  0  0  0  0
  191.1470  174.3880  136.4530 C   0  0  0  0  0  2  0  0  0  0  0  0
  184.4650  173.5090  136.5460 C   0  0  2  0  0  0  0  0  0  0  0  0
  187.3650  177.1650  137.5510 C   0  0  1  0  0  3  0  0  0  0  0  0
  190.4370  175.4570  137.1510 N   0  0  0  0  0  0  0  0  0  0  0  0
  190.2200  173.7800  135.4180 C   0  0  0  0  0  2  0  0  0  0  0  0
  183.2480  172.0810  134.8810 C   0  0  0  0  0  1  0  0  0  0  0  0
  183.1960  172.6620  136.2860 C   0  0  1  0  0  0  0  0  0  0  0  0
  183.1130  171.5920  137.1840 O   0  0  0  0  0  1  0  0  0  0  0  0
  181.1340  173.2930  137.3490 O   0  0  0  0  0  1  0  0  0  0  0  0
  181.7220  174.5480  135.5320 O   0  0  0  0  0  0  0  0  0  0  0  0
  181.9690  173.5220  136.4360 C   0  0  0  0  0  0  0  0  0  0  0  0
  188.7500  179.1150  137.1210 N   0  0  0  0  0  2  0  0  0  0  0  0
  188.2200  178.3380  137.9940 C   0  0  0  0  0  0  0  0  0  0  0  0
  189.9800  177.8920  139.5480 O   0  0  0  0  0  1  0  0  0  0  0  0
  188.7050  178.4460  139.4130 C   0  0  2  0  0  3  0  0  0  0  0  0
  187.7460  177.7710  140.3830 C   0  0  0  0  0  2  0  0  0  0  0  0
  187.1940  178.7800  141.3780 C   0  0  0  0  0  2  0  0  0  0  0  0
  185.2630  179.4710  140.2150 O   0  0  0  0  0  0  0  0  0  0  0  0
  185.7180  178.9200  141.2030 C   0  0  0  0  0  3  0  0  0  0  0  0
  1 17  1  0  0  0  0
  2 16  1  0  0  0  0
  4 15  1  0  0  0  0
  4  7  1  1  0  0  0
  5 17  1  0  0  0  0
  5 10  1  1  0  0  0
  6 12  1  6  0  0  0
  6  2  1  0  0  0  0
  8 11  1  1  0  0  0
  8  4  1  0  0  0  0
  8 15  1  0  0  0  0
  9  7  1  0  0  0  0
 11  6  1  0  0  0  0
 13 18  1  1  0  0  0
 13  5  1  0  0  0  0
 13  9  1  0  0  0  0
 14 17  1  0  0  0  0
 15  3  1  1  0  0  0
 16 10  1  0  0  0  0
 16 26  1  6  0  0  0
 18 14  1  0  0  0  0
 20 19  1  6  0  0  0
 20 24  1  0  0  0  0
 20 15  1  0  0  0  0
 20 21  1  0  0  0  0
 23 24  2  0  0  0  0
 24 22  1  0  0  0  0
 25 26  2  0  0  0  0
 26 28  1  0  0  0  0
 28 27  1  6  0  0  0
 28 29  1  0  0  0  0
 29 30  1  0  0  0  0
 31 32  2  0  0  0  0
 32 30  1  0  0  0  0
M  END
>  <MODEL>
6

>  <REMARK>
 VINA RESULT:      -6.3      4.976      9.477
  Name = 
  7 active torsions:
  status: ('A' for Active; 'I' for Inactive)
    1  A    between atoms: C_2  and  C_11
    2  A    between atoms: C_2  and  C_18
    3  A    between atoms: C_11  and  C_12
    4  A    between atoms: C_18  and  C_31
    5  A    between atoms: C_22  and  C_27
    6  A    between atoms: C_22  and  C_32
    7  A    between atoms: C_28  and  C_31
                            x       y       z     vdW  Elec       q    Type
                         _______ _______ _______ _____ _____    ______ ____

>  <TORSDO>
F 7

$$$$
=
 OpenBabel11062412403D

 32 34  0  0  1  0  0  0  0  0999 V2000
  186.9210  178.8790  140.9850 O   0  0  0  0  0  1  0  0  0  0  0  0
  185.8210  176.3530  137.6040 C   0  0  0  0  0  2  0  0  0  0  0  0
  182.4240  177.6160  135.7960 C   0  0  0  0  0  1  0  0  0  0  0  0
  181.2890  177.3480  138.1670 C   0  0  2  0  0  3  0  0  0  0  0  0
  185.0710  178.3090  139.8220 C   0  0  2  0  0  3  0  0  0  0  0  0
  184.4680  175.8950  137.0780 C   0  0  2  0  0  3  0  0  0  0  0  0
  182.1730  178.5820  138.4210 C   0  0  0  0  0  2  0  0  0  0  0  0
  181.9780  176.0030  137.8160 C   0  0  2  0  0  3  0  0  0  0  0  0
  182.5200  178.8290  139.8860 C   0  0  0  0  0  2  0  0  0  0  0  0
  185.0900  178.7180  138.3440 C   0  0  0  0  0  2  0  0  0  0  0  0
  183.4600  176.0430  138.2000 C   0  0  0  0  0  2  0  0  0  0  0  0
  184.5590  174.4390  136.6690 C   0  0  0  0  0  1  0  0  0  0  0  0
  183.6880  177.9720  140.3980 C   0  0  2  0  0  3  0  0  0  0  0  0
  184.9220  179.3500  141.9130 C   0  0  0  0  0  2  0  0  0  0  0  0
  181.4160  176.8980  136.7060 C   0  0  2  0  0  0  0  0  0  0  0  0
  186.0270  177.8690  137.4630 C   0  0  1  0  0  3  0  0  0  0  0  0
  185.6850  179.3280  140.6680 N   0  0  0  0  0  0  0  0  0  0  0  0
  183.8700  178.2590  141.8620 C   0  0  0  0  0  2  0  0  0  0  0  0
  178.9310  176.6990  136.9830 C   0  0  0  0  0  1  0  0  0  0  0  0
  180.1010  176.3990  136.0590 C   0  0  1  0  0  0  0  0  0  0  0  0
  179.8600  177.0510  134.8440 O   0  0  0  0  0  1  0  0  0  0  0  0
  179.4570  174.1160  136.4540 O   0  0  0  0  0  1  0  0  0  0  0  0
  181.1080  174.4130  134.9010 O   0  0  0  0  0  0  0  0  0  0  0  0
  180.1850  174.9160  135.8100 C   0  0  0  0  0  0  0  0  0  0  0  0
  187.9210  179.3350  137.0460 N   0  0  0  0  0  2  0  0  0  0  0  0
  187.4910  178.2520  137.5840 C   0  0  0  0  0  0  0  0  0  0  0  0
  189.2830  177.7900  139.0960 O   0  0  0  0  0  1  0  0  0  0  0  0
  188.5120  177.2560  138.0610 C   0  0  2  0  0  3  0  0  0  0  0  0
  189.4180  176.8000  136.9280 C   0  0  0  0  0  2  0  0  0  0  0  0
  189.1460  175.3450  136.5790 C   0  0  0  0  0  2  0  0  0  0  0  0
  190.9210  174.8350  138.0450 O   0  0  0  0  0  0  0  0  0  0  0  0
  190.2480  174.4780  137.0920 C   0  0  0  0  0  3  0  0  0  0  0  0
  4  7  1  6  0  0  0
  5 10  1  6  0  0  0
  5 13  1  0  0  0  0
  5 17  1  0  0  0  0
  6 12  1  1  0  0  0
  6  2  1  0  0  0  0
  6 11  1  0  0  0  0
  7  9  1  0  0  0  0
  8  4  1  0  0  0  0
  8 11  1  6  0  0  0
 13  9  1  6  0  0  0
 13 18  1  0  0  0  0
 15  3  1  6  0  0  0
 15  8  1  0  0  0  0
 15  4  1  0  0  0  0
 16 26  1  1  0  0  0
 16  2  1  0  0  0  0
 16 10  1  0  0  0  0
 17  1  1  0  0  0  0
 17 14  1  0  0  0  0
 18 14  1  0  0  0  0
 20 15  1  0  0  0  0
 20 19  1  1  0  0  0
 21 20  1  0  0  0  0
 23 24  2  0  0  0  0
 24 20  1  0  0  0  0
 24 22  1  0  0  0  0
 25 26  2  0  0  0  0
 26 28  1  0  0  0  0
 28 27  1  1  0  0  0
 29 28  1  0  0  0  0
 30 29  1  0  0  0  0
 30 32  1  0  0  0  0
 32 31  2  0  0  0  0
M  END
>  <MODEL>
7

>  <REMARK>
 VINA RESULT:      -6.1      5.195      9.233
  Name = 
  7 active torsions:
  status: ('A' for Active; 'I' for Inactive)
    1  A    between atoms: C_2  and  C_11
    2  A    between atoms: C_2  and  C_18
    3  A    between atoms: C_11  and  C_12
    4  A    between atoms: C_18  and  C_31
    5  A    between atoms: C_22  and  C_27
    6  A    between atoms: C_22  and  C_32
    7  A    between atoms: C_28  and  C_31
                            x       y       z     vdW  Elec       q    Type
                         _______ _______ _______ _____ _____    ______ ____

>  <TORSDO>
F 7

$$$$
=
 OpenBabel11062412403D

 32 34  0  0  1  0  0  0  0  0999 V2000
  189.6410  175.0550  135.7310 O   0  0  0  0  0  1  0  0  0  0  0  0
  185.7380  176.9920  135.5310 C   0  0  0  0  0  2  0  0  0  0  0  0
  183.0910  175.3640  138.1300 C   0  0  0  0  0  1  0  0  0  0  0  0
  183.5800  173.0770  136.8970 C   0  0  2  0  0  3  0  0  0  0  0  0
  187.4810  174.5720  136.1790 C   0  0  2  0  0  3  0  0  0  0  0  0
  184.3250  176.4410  135.6590 C   0  0  2  0  0  3  0  0  0  0  0  0
  184.9100  173.2790  137.6460 C   0  0  0  0  0  2  0  0  0  0  0  0
  183.1710  174.1180  135.8220 C   0  0  2  0  0  3  0  0  0  0  0  0
  186.1010  172.5400  137.0430 C   0  0  0  0  0  2  0  0  0  0  0  0
  186.8430  175.4360  137.2740 C   0  0  0  0  0  2  0  0  0  0  0  0
  184.3820  174.9500  135.3920 C   0  0  0  0  0  2  0  0  0  0  0  0
  183.4360  177.1060  134.6280 C   0  0  0  0  0  1  0  0  0  0  0  0
  186.7400  173.2670  135.8500 C   0  0  2  0  0  3  0  0  0  0  0  0
  189.0960  172.8860  136.0120 C   0  0  0  0  0  2  0  0  0  0  0  0
  182.6020  174.2080  137.2420 C   0  0  2  0  0  0  0  0  0  0  0  0
  186.5350  176.8830  136.8410 C   0  0  1  0  0  3  0  0  0  0  0  0
  188.8680  174.2470  136.4920 N   0  0  0  0  0  0  0  0  0  0  0  0
  187.8420  172.3990  135.3110 C   0  0  0  0  0  2  0  0  0  0  0  0
  181.0390  172.2540  137.4130 C   0  0  0  0  0  1  0  0  0  0  0  0
  181.1250  173.7730  137.3910 C   0  0  1  0  0  0  0  0  0  0  0  0
  180.5790  174.2460  138.5900 O   0  0  0  0  0  1  0  0  0  0  0  0
  180.0780  175.5440  136.1460 O   0  0  0  0  0  1  0  0  0  0  0  0
  179.7800  173.4420  135.2980 O   0  0  0  0  0  0  0  0  0  0  0  0
  180.3160  174.3110  136.2400 C   0  0  0  0  0  0  0  0  0  0  0  0
  188.3880  178.0130  135.7460 N   0  0  0  0  0  2  0  0  0  0  0  0
  187.7510  177.7910  136.8380 C   0  0  0  0  0  0  0  0  0  0  0  0
  188.9610  179.4830  138.0160 O   0  0  0  0  0  1  0  0  0  0  0  0
  188.4080  178.2050  138.1260 C   0  0  2  0  0  3  0  0  0  0  0  0
  189.4850  177.2140  138.5460 C   0  0  0  0  0  2  0  0  0  0  0  0
  190.0580  177.5920  139.9020 C   0  0  0  0  0  2  0  0  0  0  0  0
  188.5050  178.3380  141.5120 O   0  0  0  0  0  0  0  0  0  0  0  0
  189.0350  177.3830  140.9700 C   0  0  0  0  0  3  0  0  0  0  0  0
  1 17  1  0  0  0  0
  2  6  1  0  0  0  0
  2 16  1  0  0  0  0
  4 15  1  0  0  0  0
  4  7  1  1  0  0  0
  5 17  1  0  0  0  0
  5 10  1  1  0  0  0
  6 12  1  6  0  0  0
  8 11  1  1  0  0  0
  8  4  1  0  0  0  0
  8 15  1  0  0  0  0
  9  7  1  0  0  0  0
 11  6  1  0  0  0  0
 13 18  1  1  0  0  0
 13  5  1  0  0  0  0
 13  9  1  0  0  0  0
 14 17  1  0  0  0  0
 15 20  1  0  0  0  0
 15  3  1  1  0  0  0
 16 26  1  6  0  0  0
 16 10  1  0  0  0  0
 18 14  1  0  0  0  0
 20 19  1  6  0  0  0
 20 21  1  0  0  0  0
 22 24  1  0  0  0  0
 23 24  2  0  0  0  0
 24 20  1  0  0  0  0
 25 26  2  0  0  0  0
 26 28  1  0  0  0  0
 28 27  1  6  0  0  0
 28 29  1  0  0  0  0
 29 30  1  0  0  0  0
 30 32  1  0  0  0  0
 32 31  2  0  0  0  0
M  END
>  <MODEL>
8

>  <REMARK>
 VINA RESULT:      -6.0      5.589      9.712
  Name = 
  7 active torsions:
  status: ('A' for Active; 'I' for Inactive)
    1  A    between atoms: C_2  and  C_11
    2  A    between atoms: C_2  and  C_18
    3  A    between atoms: C_11  and  C_12
    4  A    between atoms: C_18  and  C_31
    5  A    between atoms: C_22  and  C_27
    6  A    between atoms: C_22  and  C_32
    7  A    between atoms: C_28  and  C_31
                            x       y       z     vdW  Elec       q    Type
                         _______ _______ _______ _____ _____    ______ ____

>  <TORSDO>
F 7

$$$$
=
 OpenBabel11062412403D

 32 34  0  0  1  0  0  0  0  0999 V2000
  184.6250  179.7530  139.7170 O   0  0  0  0  0  1  0  0  0  0  0  0
  180.6800  178.3620  138.4800 C   0  0  0  0  0  2  0  0  0  0  0  0
  180.5170  174.3280  138.1530 C   0  0  0  0  0  1  0  0  0  0  0  0
  182.5110  174.5780  136.4360 C   0  0  2  0  0  3  0  0  0  0  0  0
  183.7010  177.9730  138.6770 C   0  0  2  0  0  3  0  0  0  0  0  0
  180.2460  177.2210  137.5710 C   0  0  2  0  0  3  0  0  0  0  0  0
  183.2350  174.9130  137.7540 C   0  0  0  0  0  2  0  0  0  0  0  0
  181.3610  175.5070  135.9670 C   0  0  2  0  0  3  0  0  0  0  0  0
  184.5020  175.7470  137.5910 C   0  0  0  0  0  2  0  0  0  0  0  0
  182.7150  177.1690  139.5350 C   0  0  0  0  0  2  0  0  0  0  0  0
  181.4260  176.8530  136.6940 C   0  0  0  0  0  2  0  0  0  0  0  0
  179.0970  177.6880  136.7010 C   0  0  0  0  0  1  0  0  0  0  0  0
  184.2370  177.2520  137.4330 C   0  0  2  0  0  3  0  0  0  0  0  0
  186.0050  178.3740  138.5880 C   0  0  0  0  0  2  0  0  0  0  0  0
  181.0490  174.2070  136.7160 C   0  0  2  0  0  0  0  0  0  0  0  0
  181.3600  177.8660  139.7670 C   0  0  1  0  0  3  0  0  0  0  0  0
  184.8370  178.4410  139.4640 N   0  0  0  0  0  0  0  0  0  0  0  0
  185.5550  177.9370  137.2070 C   0  0  0  0  0  2  0  0  0  0  0  0
  179.0090  173.2990  135.5720 C   0  0  0  0  0  1  0  0  0  0  0  0
  180.4870  173.0600  135.8430 C   0  0  1  0  0  0  0  0  0  0  0  0
  181.1410  173.0030  134.6070 O   0  0  0  0  0  1  0  0  0  0  0  0
  179.6940  171.1850  137.1240 O   0  0  0  0  0  1  0  0  0  0  0  0
  181.9250  171.1570  136.6250 O   0  0  0  0  0  0  0  0  0  0  0  0
  180.6670  171.7430  136.5520 C   0  0  0  0  0  0  0  0  0  0  0  0
  181.5220  180.1770  140.5000 N   0  0  0  0  0  2  0  0  0  0  0  0
  181.4020  178.9440  140.8340 C   0  0  0  0  0  0  0  0  0  0  0  0
  180.6710  179.2430  143.0900 O   0  0  0  0  0  1  0  0  0  0  0  0
  181.6040  178.5890  142.2810 C   0  0  2  0  0  3  0  0  0  0  0  0
  183.0130  178.9240  142.7470 C   0  0  0  0  0  2  0  0  0  0  0  0
  182.9900  179.4780  144.1630 C   0  0  0  0  0  2  0  0  0  0  0  0
  184.2280  179.0630  146.1270 O   0  0  0  0  0  0  0  0  0  0  0  0
  184.2070  179.0360  144.9070 C   0  0  0  0  0  3  0  0  0  0  0  0
  2 16  1  0  0  0  0
  4 15  1  0  0  0  0
  4  7  1  1  0  0  0
  5 17  1  0  0  0  0
  5 10  1  1  0  0  0
  6 12  1  6  0  0  0
  6  2  1  0  0  0  0
  8  4  1  0  0  0  0
  8 11  1  1  0  0  0
  8 15  1  0  0  0  0
  9  7  1  0  0  0  0
 10 16  1  0  0  0  0
 11  6  1  0  0  0  0
 13 18  1  1  0  0  0
 13  9  1  0  0  0  0
 13  5  1  0  0  0  0
 14 17  1  0  0  0  0
 15  3  1  1  0  0  0
 16 26  1  1  0  0  0
 17  1  1  0  0  0  0
 18 14  1  0  0  0  0
 20 19  1  6  0  0  0
 20 24  1  0  0  0  0
 20 15  1  0  0  0  0
 21 20  1  0  0  0  0
 24 23  2  0  0  0  0
 24 22  1  0  0  0  0
 25 26  2  0  0  0  0
 26 28  1  0  0  0  0
 28 29  1  0  0  0  0
 28 27  1  1  0  0  0
 29 30  1  0  0  0  0
 30 32  1  0  0  0  0
 32 31  2  0  0  0  0
M  END
>  <MODEL>
9

>  <REMARK>
 VINA RESULT:      -5.9      6.457     11.420
  Name = 
  7 active torsions:
  status: ('A' for Active; 'I' for Inactive)
    1  A    between atoms: C_2  and  C_11
    2  A    between atoms: C_2  and  C_18
    3  A    between atoms: C_11  and  C_12
    4  A    between atoms: C_18  and  C_31
    5  A    between atoms: C_22  and  C_27
    6  A    between atoms: C_22  and  C_32
    7  A    between atoms: C_28  and  C_31
                            x       y       z     vdW  Elec       q    Type
                         _______ _______ _______ _____ _____    ______ ____

>  <TORSDO>
F 7

$$$$
