=
 OpenBabel11062413433D

 35 40  0  0  1  0  0  0  0  0999 V2000
  180.4610  176.7440  137.6570 C   0  0  0  0  0  2  0  0  0  0  0  0
  183.3450  178.6120  140.6940 C   0  0  0  0  0  0  0  0  0  0  0  0
  182.1990  177.5100  140.1250 S   0  0  0  0  0  0  0  0  0  0  0  0
  181.1230  178.8960  136.4060 C   0  0  2  0  0  3  0  0  0  0  0  0
  182.0270  178.3880  138.6930 C   0  0  0  0  0  0  0  0  0  0  0  0
  180.2550  176.9490  135.2840 O   0  0  0  0  0  0  0  0  0  0  0  0
  183.5610  179.5990  139.7930 N   0  0  0  0  0  0  0  0  0  0  0  0
  180.1810  178.3450  135.3290 C   0  0  0  0  0  2  0  0  0  0  0  0
  182.8320  179.4750  138.6850 N   0  0  0  0  0  0  0  0  0  0  0  0
  181.1490  178.0420  137.6070 N   0  0  0  0  0  0  0  0  0  0  0  0
  179.5790  176.5220  136.4310 C   0  0  0  0  0  2  0  0  0  0  0  0
  186.1430  178.2830  145.7170 C   0  0  0  0  0  2  0  0  0  0  0  0
  185.3860  178.3390  144.4170 C   0  0  0  0  0  0  0  0  0  0  0  0
  185.3380  178.1220  142.0310 N   0  0  0  0  0  0  0  0  0  0  0  0
  183.4140  179.1070  145.5380 F   0  0  0  0  0  0  0  0  0  0  0  0
  184.0410  178.5320  141.9870 C   0  0  0  0  0  0  0  0  0  0  0  0
  187.4330  177.5110  143.2020 C   0  0  0  0  0  2  0  0  0  0  0  0
  187.4510  177.5050  145.5590 C   0  0  0  0  0  2  0  0  0  0  0  0
  186.0250  178.0340  143.2020 C   0  0  0  0  0  0  0  0  0  0  0  0
  183.3810  178.8690  143.1730 C   0  0  0  0  0  3  0  0  0  0  0  0
  184.0560  178.7740  144.3910 C   0  0  0  0  0  0  0  0  0  0  0  0
  188.1720  177.9860  144.3780 N   0  0  1  0  0  0  0  0  0  0  0  0
  191.7540  178.1290  144.3290 C   0  0  0  0  0  2  0  0  0  0  0  0
  190.4770  178.2060  143.5540 C   0  0  0  0  0  2  0  0  0  0  0  0
  191.4060  177.2690  145.5200 C   0  0  0  0  0  2  0  0  0  0  0  0
  189.5020  177.3680  144.3630 C   0  0  1  0  0  3  0  0  0  0  0  0
  190.0130  177.2670  145.6700 O   0  0  0  0  0  0  0  0  0  0  0  0
  181.1660  181.1480  134.6560 O   0  0  0  0  0  0  0  0  0  0  0  0
  180.7320  181.3260  135.8270 C   0  0  0  0  0  0  0  0  0  0  0  0
  180.7080  180.2470  136.7610 N   0  0  0  0  0  2  0  0  0  0  0  0
  181.5630  184.5170  137.2390 C   0  0  0  0  0  2  0  0  0  0  0  0
  180.2840  182.6810  136.2700 C   0  0  0  0  0  3  0  0  0  0  0  0
  180.5450  183.7300  135.2060 C   0  0  0  0  0  2  0  0  0  0  0  0
  180.8870  184.9880  135.9690 C   0  0  0  0  0  2  0  0  0  0  0  0
  181.0340  183.1200  137.5150 C   0  0  0  0  0  2  0  0  0  0  0  0
  2 16  1  0  0  0  0
  3  2  1  0  0  0  0
  4 30  1  1  0  0  0
  4 10  1  0  0  0  0
  5  3  1  0  0  0  0
  6  8  1  0  0  0  0
  6 11  1  0  0  0  0
  7  2  2  0  0  0  0
  8  4  1  0  0  0  0
  9  5  2  0  0  0  0
  9  7  1  0  0  0  0
 10  1  1  0  0  0  0
 10  5  1  0  0  0  0
 11  1  1  0  0  0  0
 13 12  1  0  0  0  0
 14 19  1  0  0  0  0
 16 14  2  0  0  0  0
 16 20  1  0  0  0  0
 18 12  1  0  0  0  0
 19 17  1  0  0  0  0
 19 13  2  0  0  0  0
 20 21  2  0  0  0  0
 21 13  1  0  0  0  0
 21 15  1  0  0  0  0
 22 17  1  6  0  0  0
 22 18  1  0  0  0  0
 23 25  1  0  0  0  0
 24 23  1  0  0  0  0
 25 27  1  0  0  0  0
 26 24  1  6  0  0  0
 26 22  1  0  0  0  0
 26 27  1  0  0  0  0
 28 29  2  0  0  0  0
 29 32  1  0  0  0  0
 29 30  1  0  0  0  0
 31 35  1  0  0  0  0
 32 35  1  0  0  0  0
 33 34  1  0  0  0  0
 33 32  1  0  0  0  0
 34 31  1  0  0  0  0
M  END
>  <MODEL>
1

>  <REMARK>
 VINA RESULT:      -9.6      0.000      0.000
  Name = 
  4 active torsions:
  status: ('A' for Active; 'I' for Inactive)
    1  A    between atoms: C_3  and  C_16
    2  A    between atoms: C_6  and  N_35
    3  A    between atoms: C_15  and  C_29
    4  A    between atoms: C_22  and  N_33
                            x       y       z     vdW  Elec       q    Type
                         _______ _______ _______ _____ _____    ______ ____

>  <TORSDO>
F 4

$$$$
=
 OpenBabel11062413433D

 35 40  0  0  1  0  0  0  0  0999 V2000
  181.2520  178.6960  143.9240 C   0  0  0  0  0  2  0  0  0  0  0  0
  185.1770  178.5180  141.5580 C   0  0  0  0  0  0  0  0  0  0  0  0
  184.2020  178.5500  142.9370 S   0  0  0  0  0  0  0  0  0  0  0  0
  180.3800  179.1510  141.5430 C   0  0  2  0  0  3  0  0  0  0  0  0
  182.8270  178.8080  141.9910 C   0  0  0  0  0  0  0  0  0  0  0  0
  178.9740  178.3100  143.3090 O   0  0  0  0  0  0  0  0  0  0  0  0
  184.4410  178.7010  140.4370 N   0  0  0  0  0  0  0  0  0  0  0  0
  179.0220  179.2210  142.2480 C   0  0  0  0  0  2  0  0  0  0  0  0
  183.1410  178.8610  140.6770 N   0  0  0  0  0  0  0  0  0  0  0  0
  181.4880  178.9520  142.4960 N   0  0  0  0  0  0  0  0  0  0  0  0
  179.7840  178.8780  144.2980 C   0  0  0  0  0  2  0  0  0  0  0  0
  190.8760  177.6910  141.5860 C   0  0  0  0  0  2  0  0  0  0  0  0
  189.3920  177.9450  141.5630 C   0  0  0  0  0  0  0  0  0  0  0  0
  187.3030  178.1500  142.7180 N   0  0  0  0  0  0  0  0  0  0  0  0
  189.3970  178.0640  139.1710 F   0  0  0  0  0  0  0  0  0  0  0  0
  186.6330  178.3110  141.5440 C   0  0  0  0  0  0  0  0  0  0  0  0
  189.3480  177.8490  144.0820 C   0  0  0  0  0  2  0  0  0  0  0  0
  191.4410  177.8590  142.9980 C   0  0  0  0  0  2  0  0  0  0  0  0
  188.6480  177.9530  142.7560 C   0  0  0  0  0  0  0  0  0  0  0  0
  187.3360  178.2830  140.3360 C   0  0  0  0  0  3  0  0  0  0  0  0
  188.7200  178.0970  140.3450 C   0  0  0  0  0  0  0  0  0  0  0  0
  190.6140  177.1180  143.9530 N   0  0  1  0  0  0  0  0  0  0  0  0
  190.7910  176.3790  147.4570 C   0  0  0  0  0  2  0  0  0  0  0  0
  190.2760  177.2820  146.3820 C   0  0  0  0  0  2  0  0  0  0  0  0
  192.0400  175.7780  146.8600 C   0  0  0  0  0  2  0  0  0  0  0  0
  191.2860  177.1330  145.2560 C   0  0  1  0  0  3  0  0  0  0  0  0
  191.9780  175.9270  145.4680 O   0  0  0  0  0  0  0  0  0  0  0  0
  179.9330  179.4480  138.7420 O   0  0  0  0  0  0  0  0  0  0  0  0
  180.3220  180.4630  139.3820 C   0  0  0  0  0  0  0  0  0  0  0  0
  180.5900  180.3750  140.7810 N   0  0  0  0  0  2  0  0  0  0  0  0
  180.1540  182.3750  136.3520 C   0  0  0  0  0  2  0  0  0  0  0  0
  180.5580  181.7580  138.6750 C   0  0  0  0  0  3  0  0  0  0  0  0
  179.2900  182.5850  138.5880 C   0  0  0  0  0  2  0  0  0  0  0  0
  179.3800  183.3040  137.2630 C   0  0  0  0  0  2  0  0  0  0  0  0
  181.0300  181.5220  137.2520 C   0  0  0  0  0  2  0  0  0  0  0  0
  1 11  1  0  0  0  0
  2  3  1  0  0  0  0
  4 30  1  1  0  0  0
  4  8  1  0  0  0  0
  4 10  1  0  0  0  0
  5 10  1  0  0  0  0
  5  3  1  0  0  0  0
  6 11  1  0  0  0  0
  7  9  1  0  0  0  0
  7  2  2  0  0  0  0
  8  6  1  0  0  0  0
  9  5  2  0  0  0  0
 10  1  1  0  0  0  0
 12 18  1  0  0  0  0
 13 12  1  0  0  0  0
 13 19  1  0  0  0  0
 14 19  2  0  0  0  0
 15 21  1  0  0  0  0
 16  2  1  0  0  0  0
 16 14  1  0  0  0  0
 19 17  1  0  0  0  0
 20 21  1  0  0  0  0
 20 16  2  0  0  0  0
 21 13  2  0  0  0  0
 22 18  1  6  0  0  0
 22 17  1  0  0  0  0
 22 26  1  0  0  0  0
 24 23  1  0  0  0  0
 25 23  1  0  0  0  0
 26 27  1  0  0  0  0
 26 24  1  1  0  0  0
 27 25  1  0  0  0  0
 28 29  2  0  0  0  0
 29 30  1  0  0  0  0
 31 35  1  0  0  0  0
 31 34  1  0  0  0  0
 32 29  1  0  0  0  0
 33 32  1  0  0  0  0
 34 33  1  0  0  0  0
 35 32  1  0  0  0  0
M  END
>  <MODEL>
2

>  <REMARK>
 VINA RESULT:      -9.2      3.105      4.467
  Name = 
  4 active torsions:
  status: ('A' for Active; 'I' for Inactive)
    1  A    between atoms: C_3  and  C_16
    2  A    between atoms: C_6  and  N_35
    3  A    between atoms: C_15  and  C_29
    4  A    between atoms: C_22  and  N_33
                            x       y       z     vdW  Elec       q    Type
                         _______ _______ _______ _____ _____    ______ ____

>  <TORSDO>
F 4

$$$$
=
 OpenBabel11062413433D

 35 40  0  0  1  0  0  0  0  0999 V2000
  181.0860  178.9860  141.8360 C   0  0  0  0  0  2  0  0  0  0  0  0
  185.3430  178.7320  140.1500 C   0  0  0  0  0  0  0  0  0  0  0  0
  184.1450  178.6820  141.3390 S   0  0  0  0  0  0  0  0  0  0  0  0
  180.6850  179.8240  139.4330 C   0  0  2  0  0  3  0  0  0  0  0  0
  182.9820  179.1910  140.2260 C   0  0  0  0  0  0  0  0  0  0  0  0
  178.9310  178.9050  140.8040 O   0  0  0  0  0  0  0  0  0  0  0  0
  184.8330  179.1280  138.9610 N   0  0  0  0  0  0  0  0  0  0  0  0
  179.2320  179.9360  139.9070 C   0  0  0  0  0  2  0  0  0  0  0  0
  183.5260  179.3810  139.0020 N   0  0  0  0  0  0  0  0  0  0  0  0
  181.5890  179.3980  140.5170 N   0  0  0  0  0  0  0  0  0  0  0  0
  179.5920  179.2600  141.9840 C   0  0  0  0  0  2  0  0  0  0  0  0
  190.8770  177.3850  141.0050 C   0  0  0  0  0  2  0  0  0  0  0  0
  189.4430  177.7710  140.7600 C   0  0  0  0  0  0  0  0  0  0  0  0
  187.2860  178.3900  141.6020 N   0  0  0  0  0  0  0  0  0  0  0  0
  189.7000  177.4330  138.4030 F   0  0  0  0  0  0  0  0  0  0  0  0
  186.7590  178.3880  140.3470 C   0  0  0  0  0  0  0  0  0  0  0  0
  189.1360  178.1590  143.2320 C   0  0  0  0  0  2  0  0  0  0  0  0
  191.3140  177.7640  142.4220 C   0  0  0  0  0  2  0  0  0  0  0  0
  188.5890  178.0760  141.8350 C   0  0  0  0  0  0  0  0  0  0  0  0
  187.5720  178.0640  139.2550 C   0  0  0  0  0  3  0  0  0  0  0  0
  188.9170  177.7520  139.4630 C   0  0  0  0  0  0  0  0  0  0  0  0
  190.3160  177.3000  143.3870 N   0  0  1  0  0  0  0  0  0  0  0  0
  190.3110  176.7510  146.9310 C   0  0  0  0  0  2  0  0  0  0  0  0
  189.7330  177.4930  145.7670 C   0  0  0  0  0  2  0  0  0  0  0  0
  191.7010  176.3820  146.4730 C   0  0  0  0  0  2  0  0  0  0  0  0
  190.8510  177.4970  144.7380 C   0  0  1  0  0  3  0  0  0  0  0  0
  191.7390  176.4590  145.0740 O   0  0  0  0  0  0  0  0  0  0  0  0
  180.0240  180.8440  136.8530 O   0  0  0  0  0  0  0  0  0  0  0  0
  180.7270  181.5720  137.6060 C   0  0  0  0  0  0  0  0  0  0  0  0
  181.1160  181.1100  138.8990 N   0  0  0  0  0  2  0  0  0  0  0  0
  180.3520  184.3460  135.3640 C   0  0  0  0  0  2  0  0  0  0  0  0
  181.2070  182.9060  137.1350 C   0  0  0  0  0  3  0  0  0  0  0  0
  180.4040  184.0360  137.7490 C   0  0  0  0  0  2  0  0  0  0  0  0
  180.3370  185.0990  136.6780 C   0  0  0  0  0  2  0  0  0  0  0  0
  181.0660  183.0330  135.6290 C   0  0  0  0  0  2  0  0  0  0  0  0
  1 11  1  0  0  0  0
  2 16  1  0  0  0  0
  2  3  1  0  0  0  0
  4 30  1  1  0  0  0
  4  8  1  0  0  0  0
  4 10  1  0  0  0  0
  5 10  1  0  0  0  0
  5  3  1  0  0  0  0
  6 11  1  0  0  0  0
  7  9  1  0  0  0  0
  7  2  2  0  0  0  0
  8  6  1  0  0  0  0
  9  5  2  0  0  0  0
 10  1  1  0  0  0  0
 12 18  1  0  0  0  0
 13 12  1  0  0  0  0
 13 19  1  0  0  0  0
 14 19  2  0  0  0  0
 15 21  1  0  0  0  0
 16 14  1  0  0  0  0
 17 22  1  0  0  0  0
 19 17  1  0  0  0  0
 20 21  1  0  0  0  0
 20 16  2  0  0  0  0
 21 13  2  0  0  0  0
 22 18  1  6  0  0  0
 22 26  1  0  0  0  0
 24 23  1  0  0  0  0
 25 23  1  0  0  0  0
 26 27  1  0  0  0  0
 26 24  1  1  0  0  0
 27 25  1  0  0  0  0
 28 29  2  0  0  0  0
 29 30  1  0  0  0  0
 31 35  1  0  0  0  0
 31 34  1  0  0  0  0
 32 29  1  0  0  0  0
 32 33  1  0  0  0  0
 34 33  1  0  0  0  0
 35 32  1  0  0  0  0
M  END
>  <MODEL>
3

>  <REMARK>
 VINA RESULT:      -9.1      2.947      3.875
  Name = 
  4 active torsions:
  status: ('A' for Active; 'I' for Inactive)
    1  A    between atoms: C_3  and  C_16
    2  A    between atoms: C_6  and  N_35
    3  A    between atoms: C_15  and  C_29
    4  A    between atoms: C_22  and  N_33
                            x       y       z     vdW  Elec       q    Type
                         _______ _______ _______ _____ _____    ______ ____

>  <TORSDO>
F 4

$$$$
=
 OpenBabel11062413433D

 35 40  0  0  1  0  0  0  0  0999 V2000
  191.5710  177.0370  145.3300 C   0  0  0  0  0  2  0  0  0  0  0  0
  189.8920  176.8060  141.0690 C   0  0  0  0  0  0  0  0  0  0  0  0
  191.0750  177.0170  142.2560 S   0  0  0  0  0  0  0  0  0  0  0  0
  189.0490  176.8820  145.8320 C   0  0  2  0  0  3  0  0  0  0  0  0
  189.9080  176.9170  143.4720 C   0  0  0  0  0  0  0  0  0  0  0  0
  190.7390  176.2780  147.4390 O   0  0  0  0  0  0  0  0  0  0  0  0
  188.6650  176.6670  141.6220 N   0  0  0  0  0  0  0  0  0  0  0  0
  189.5190  176.9460  147.2890 C   0  0  0  0  0  2  0  0  0  0  0  0
  188.6740  176.7270  142.9530 N   0  0  0  0  0  0  0  0  0  0  0  0
  190.1710  177.0120  144.8840 N   0  0  0  0  0  0  0  0  0  0  0  0
  191.6810  177.1280  146.8490 C   0  0  0  0  0  2  0  0  0  0  0  0
  190.8750  176.5700  135.3990 C   0  0  0  0  0  2  0  0  0  0  0  0
  190.6380  176.6680  136.8820 C   0  0  0  0  0  0  0  0  0  0  0  0
  190.9310  175.7940  139.0940 N   0  0  0  0  0  0  0  0  0  0  0  0
  189.2380  178.5880  136.5840 F   0  0  0  0  0  0  0  0  0  0  0  0
  190.1330  176.7650  139.6190 C   0  0  0  0  0  0  0  0  0  0  0  0
  192.1230  174.6630  137.2420 C   0  0  0  0  0  2  0  0  0  0  0  0
  192.0330  175.6190  135.0890 C   0  0  0  0  0  2  0  0  0  0  0  0
  191.1810  175.7130  137.7600 C   0  0  0  0  0  0  0  0  0  0  0  0
  189.5540  177.7170  138.7730 C   0  0  0  0  0  3  0  0  0  0  0  0
  189.8050  177.6670  137.4010 C   0  0  0  0  0  0  0  0  0  0  0  0
  191.8560  174.3680  135.8290 N   0  0  1  0  0  0  0  0  0  0  0  0
  195.0650  172.7770  136.0050 C   0  0  0  0  0  2  0  0  0  0  0  0
  194.2660  173.9610  135.5610 C   0  0  0  0  0  2  0  0  0  0  0  0
  194.0600  171.6510  136.0390 C   0  0  0  0  0  2  0  0  0  0  0  0
  192.8640  173.4080  135.3640 C   0  0  1  0  0  3  0  0  0  0  0  0
  192.7760  172.2090  136.0930 O   0  0  0  0  0  0  0  0  0  0  0  0
  186.2550  176.4760  145.4320 O   0  0  0  0  0  0  0  0  0  0  0  0
  186.6780  177.6640  145.4290 C   0  0  0  0  0  0  0  0  0  0  0  0
  188.0700  177.9350  145.5960 N   0  0  0  0  0  2  0  0  0  0  0  0
  183.8440  178.9870  143.6730 C   0  0  0  0  0  2  0  0  0  0  0  0
  185.7380  178.8020  145.1960 C   0  0  0  0  0  3  0  0  0  0  0  0
  184.4490  178.6280  145.9740 C   0  0  0  0  0  2  0  0  0  0  0  0
  183.3740  179.2210  145.0930 C   0  0  0  0  0  2  0  0  0  0  0  0
  185.3590  178.9020  143.7290 C   0  0  0  0  0  2  0  0  0  0  0  0
  1 11  1  0  0  0  0
  2  7  2  0  0  0  0
  2  3  1  0  0  0  0
  3  5  1  0  0  0  0
  4 30  1  6  0  0  0
  4  8  1  0  0  0  0
  5 10  1  0  0  0  0
  7  9  1  0  0  0  0
  8  6  1  0  0  0  0
  9  5  2  0  0  0  0
 10  1  1  0  0  0  0
 10  4  1  0  0  0  0
 11  6  1  0  0  0  0
 12 13  1  0  0  0  0
 13 21  2  0  0  0  0
 13 19  1  0  0  0  0
 14 16  1  0  0  0  0
 15 21  1  0  0  0  0
 16  2  1  0  0  0  0
 17 19  1  0  0  0  0
 18 12  1  0  0  0  0
 19 14  2  0  0  0  0
 20 16  2  0  0  0  0
 21 20  1  0  0  0  0
 22 18  1  6  0  0  0
 22 17  1  0  0  0  0
 23 25  1  0  0  0  0
 24 23  1  0  0  0  0
 25 27  1  0  0  0  0
 26 24  1  1  0  0  0
 26 22  1  0  0  0  0
 26 27  1  0  0  0  0
 29 28  2  0  0  0  0
 29 30  1  0  0  0  0
 31 35  1  0  0  0  0
 31 34  1  0  0  0  0
 32 29  1  0  0  0  0
 32 33  1  0  0  0  0
 34 33  1  0  0  0  0
 35 32  1  0  0  0  0
M  END
>  <MODEL>
4

>  <REMARK>
 VINA RESULT:      -9.0      6.803     10.727
  Name = 
  4 active torsions:
  status: ('A' for Active; 'I' for Inactive)
    1  A    between atoms: C_3  and  C_16
    2  A    between atoms: C_6  and  N_35
    3  A    between atoms: C_15  and  C_29
    4  A    between atoms: C_22  and  N_33
                            x       y       z     vdW  Elec       q    Type
                         _______ _______ _______ _____ _____    ______ ____

>  <TORSDO>
F 4

$$$$
=
 OpenBabel11062413433D

 35 40  0  0  1  0  0  0  0  0999 V2000
  191.3680  177.1800  145.4010 C   0  0  0  0  0  2  0  0  0  0  0  0
  190.1810  176.7530  140.9920 C   0  0  0  0  0  0  0  0  0  0  0  0
  191.2200  177.0310  142.2940 S   0  0  0  0  0  0  0  0  0  0  0  0
  188.8080  177.0000  145.6240 C   0  0  2  0  0  3  0  0  0  0  0  0
  189.9260  176.9570  143.3760 C   0  0  0  0  0  0  0  0  0  0  0  0
  190.3150  176.4900  147.4330 O   0  0  0  0  0  0  0  0  0  0  0  0
  188.9020  176.6140  141.4100 N   0  0  0  0  0  0  0  0  0  0  0  0
  189.1110  177.1290  147.1210 C   0  0  0  0  0  2  0  0  0  0  0  0
  188.7600  176.7260  142.7300 N   0  0  0  0  0  0  0  0  0  0  0  0
  190.0270  177.1130  144.8030 N   0  0  0  0  0  0  0  0  0  0  0  0
  191.3050  177.3320  146.9180 C   0  0  0  0  0  2  0  0  0  0  0  0
  191.8260  176.3420  135.4880 C   0  0  0  0  0  2  0  0  0  0  0  0
  191.3950  176.4910  136.9230 C   0  0  0  0  0  0  0  0  0  0  0  0
  191.8000  176.1410  139.2590 N   0  0  0  0  0  0  0  0  0  0  0  0
  189.3030  177.4420  136.2510 F   0  0  0  0  0  0  0  0  0  0  0  0
  190.5840  176.6590  139.5810 C   0  0  0  0  0  0  0  0  0  0  0  0
  193.5950  175.5140  137.6720 C   0  0  0  0  0  2  0  0  0  0  0  0
  193.3230  176.0400  135.3910 C   0  0  0  0  0  2  0  0  0  0  0  0
  192.2160  176.0310  137.9680 C   0  0  0  0  0  0  0  0  0  0  0  0
  189.7290  177.1030  138.5650 C   0  0  0  0  0  3  0  0  0  0  0  0
  190.1360  177.0160  137.2330 C   0  0  0  0  0  0  0  0  0  0  0  0
  193.6700  174.9590  136.3160 N   0  0  1  0  0  0  0  0  0  0  0  0
  197.0910  175.6560  135.4970 C   0  0  0  0  0  2  0  0  0  0  0  0
  195.6920  175.4520  135.0080 C   0  0  0  0  0  2  0  0  0  0  0  0
  197.1410  174.8780  136.7900 C   0  0  0  0  0  2  0  0  0  0  0  0
  195.0580  174.5590  136.0600 C   0  0  1  0  0  3  0  0  0  0  0  0
  195.8270  174.6730  137.2320 O   0  0  0  0  0  0  0  0  0  0  0  0
  185.9730  176.7600  145.8170 O   0  0  0  0  0  0  0  0  0  0  0  0
  186.4390  177.8500  145.3850 C   0  0  0  0  0  0  0  0  0  0  0  0
  187.8470  178.0250  145.2380 N   0  0  0  0  0  2  0  0  0  0  0  0
  183.8130  179.0030  143.2310 C   0  0  0  0  0  2  0  0  0  0  0  0
  185.5210  178.9530  144.9690 C   0  0  0  0  0  3  0  0  0  0  0  0
  184.1520  178.8080  145.6050 C   0  0  0  0  0  2  0  0  0  0  0  0
  183.1800  179.3230  144.5690 C   0  0  0  0  0  2  0  0  0  0  0  0
  185.3120  178.9480  143.4660 C   0  0  0  0  0  2  0  0  0  0  0  0
  1 11  1  0  0  0  0
  2  7  2  0  0  0  0
  2  3  1  0  0  0  0
  3  5  1  0  0  0  0
  4 30  1  6  0  0  0
  4  8  1  0  0  0  0
  5 10  1  0  0  0  0
  7  9  1  0  0  0  0
  8  6  1  0  0  0  0
  9  5  2  0  0  0  0
 10  1  1  0  0  0  0
 10  4  1  0  0  0  0
 11  6  1  0  0  0  0
 12 13  1  0  0  0  0
 13 21  2  0  0  0  0
 13 19  1  0  0  0  0
 14 16  1  0  0  0  0
 15 21  1  0  0  0  0
 16  2  1  0  0  0  0
 17 19  1  0  0  0  0
 18 12  1  0  0  0  0
 19 14  2  0  0  0  0
 20 16  2  0  0  0  0
 21 20  1  0  0  0  0
 22 18  1  6  0  0  0
 22 17  1  0  0  0  0
 23 25  1  0  0  0  0
 24 23  1  0  0  0  0
 25 27  1  0  0  0  0
 26 24  1  6  0  0  0
 26 22  1  0  0  0  0
 26 27  1  0  0  0  0
 29 28  2  0  0  0  0
 30 29  1  0  0  0  0
 31 35  1  0  0  0  0
 31 34  1  0  0  0  0
 32 29  1  0  0  0  0
 32 33  1  0  0  0  0
 34 33  1  0  0  0  0
 35 32  1  0  0  0  0
M  END
>  <MODEL>
5

>  <REMARK>
 VINA RESULT:      -8.9      6.707     10.700
  Name = 
  4 active torsions:
  status: ('A' for Active; 'I' for Inactive)
    1  A    between atoms: C_3  and  C_16
    2  A    between atoms: C_6  and  N_35
    3  A    between atoms: C_15  and  C_29
    4  A    between atoms: C_22  and  N_33
                            x       y       z     vdW  Elec       q    Type
                         _______ _______ _______ _____ _____    ______ ____

>  <TORSDO>
F 4

$$$$
=
 OpenBabel11062413433D

 35 40  0  0  1  0  0  0  0  0999 V2000
  182.6240  178.6500  141.7170 C   0  0  0  0  0  2  0  0  0  0  0  0
  186.5960  178.2440  139.4610 C   0  0  0  0  0  0  0  0  0  0  0  0
  184.9270  178.1220  139.6880 S   0  0  0  0  0  0  0  0  0  0  0  0
  184.2870  179.2270  143.5970 C   0  0  2  0  0  3  0  0  0  0  0  0
  185.0840  178.6130  141.2960 C   0  0  0  0  0  0  0  0  0  0  0  0
  181.9780  179.9140  143.6400 O   0  0  0  0  0  0  0  0  0  0  0  0
  187.2140  178.6480  140.5950 N   0  0  0  0  0  0  0  0  0  0  0  0
  183.0110  179.3940  144.4290 C   0  0  0  0  0  2  0  0  0  0  0  0
  186.3770  178.8540  141.6110 N   0  0  0  0  0  0  0  0  0  0  0  0
  183.9970  178.7670  142.2270 N   0  0  0  0  0  0  0  0  0  0  0  0
  181.5900  178.8500  142.8210 C   0  0  0  0  0  2  0  0  0  0  0  0
  189.4570  177.1070  134.5940 C   0  0  0  0  0  2  0  0  0  0  0  0
  188.7110  177.4450  135.8570 C   0  0  0  0  0  0  0  0  0  0  0  0
  188.5410  177.3810  138.2470 N   0  0  0  0  0  0  0  0  0  0  0  0
  186.8870  178.3540  134.6010 F   0  0  0  0  0  0  0  0  0  0  0  0
  187.3120  177.9650  138.2070 C   0  0  0  0  0  0  0  0  0  0  0  0
  190.6210  176.5180  137.2170 C   0  0  0  0  0  2  0  0  0  0  0  0
  190.9160  176.7600  134.8920 C   0  0  0  0  0  2  0  0  0  0  0  0
  189.2400  177.1000  137.1140 C   0  0  0  0  0  0  0  0  0  0  0  0
  186.7430  178.2980  136.9730 C   0  0  0  0  0  3  0  0  0  0  0  0
  187.4440  178.0350  135.7950 C   0  0  0  0  0  0  0  0  0  0  0  0
  190.9810  175.7950  135.9910 N   0  0  1  0  0  0  0  0  0  0  0  0
  193.9830  175.2080  137.8620 C   0  0  0  0  0  2  0  0  0  0  0  0
  193.1270  176.1870  137.1220 C   0  0  0  0  0  2  0  0  0  0  0  0
  193.6360  173.8780  137.2390 C   0  0  0  0  0  2  0  0  0  0  0  0
  192.3660  175.3330  136.1220 C   0  0  1  0  0  3  0  0  0  0  0  0
  192.4020  174.0060  136.5870 O   0  0  0  0  0  0  0  0  0  0  0  0
  185.6810  179.7180  146.0360 O   0  0  0  0  0  0  0  0  0  0  0  0
  185.8240  178.5850  145.5000 C   0  0  0  0  0  0  0  0  0  0  0  0
  185.1750  178.2840  144.2650 N   0  0  0  0  0  2  0  0  0  0  0  0
  189.1480  177.4090  146.1540 C   0  0  0  0  0  2  0  0  0  0  0  0
  186.7150  177.5600  146.1220 C   0  0  0  0  0  3  0  0  0  0  0  0
  187.2300  178.0160  147.4740 C   0  0  0  0  0  2  0  0  0  0  0  0
  188.6260  177.4480  147.5750 C   0  0  0  0  0  2  0  0  0  0  0  0
  187.9320  177.2990  145.2520 C   0  0  0  0  0  2  0  0  0  0  0  0
  1 10  1  0  0  0  0
  1 11  1  0  0  0  0
  2  3  1  0  0  0  0
  2  7  2  0  0  0  0
  3  5  1  0  0  0  0
  4 30  1  1  0  0  0
  4  8  1  0  0  0  0
  5  9  2  0  0  0  0
  5 10  1  0  0  0  0
  6  8  1  0  0  0  0
  7  9  1  0  0  0  0
 10  4  1  0  0  0  0
 11  6  1  0  0  0  0
 12 18  1  0  0  0  0
 12 13  1  0  0  0  0
 13 19  1  0  0  0  0
 15 21  1  0  0  0  0
 16 14  1  0  0  0  0
 16  2  1  0  0  0  0
 19 17  1  0  0  0  0
 19 14  2  0  0  0  0
 20 16  2  0  0  0  0
 21 13  2  0  0  0  0
 21 20  1  0  0  0  0
 22 18  1  6  0  0  0
 22 26  1  0  0  0  0
 22 17  1  0  0  0  0
 24 23  1  0  0  0  0
 25 23  1  0  0  0  0
 26 27  1  0  0  0  0
 26 24  1  1  0  0  0
 27 25  1  0  0  0  0
 29 28  2  0  0  0  0
 29 32  1  0  0  0  0
 30 29  1  0  0  0  0
 31 34  1  0  0  0  0
 32 33  1  0  0  0  0
 33 34  1  0  0  0  0
 35 32  1  0  0  0  0
 35 31  1  0  0  0  0
M  END
>  <MODEL>
6

>  <REMARK>
 VINA RESULT:      -8.9      5.616      9.199
  Name = 
  4 active torsions:
  status: ('A' for Active; 'I' for Inactive)
    1  A    between atoms: C_3  and  C_16
    2  A    between atoms: C_6  and  N_35
    3  A    between atoms: C_15  and  C_29
    4  A    between atoms: C_22  and  N_33
                            x       y       z     vdW  Elec       q    Type
                         _______ _______ _______ _____ _____    ______ ____

>  <TORSDO>
F 4

$$$$
=
 OpenBabel11062413433D

 35 40  0  0  1  0  0  0  0  0999 V2000
  182.3070  178.0040  136.6920 C   0  0  0  0  0  2  0  0  0  0  0  0
  185.7370  178.5640  139.6850 C   0  0  0  0  0  0  0  0  0  0  0  0
  184.9250  177.8750  138.3740 S   0  0  0  0  0  0  0  0  0  0  0  0
  181.2220  179.6630  138.3370 C   0  0  2  0  0  3  0  0  0  0  0  0
  183.5540  178.8040  138.7010 C   0  0  0  0  0  0  0  0  0  0  0  0
  180.4640  179.3920  136.0670 O   0  0  0  0  0  0  0  0  0  0  0  0
  184.9550  179.4660  140.3230 N   0  0  0  0  0  0  0  0  0  0  0  0
  180.0260  179.5440  137.3870 C   0  0  0  0  0  2  0  0  0  0  0  0
  183.7470  179.6000  139.7780 N   0  0  0  0  0  0  0  0  0  0  0  0
  182.3310  178.7740  137.9440 N   0  0  0  0  0  0  0  0  0  0  0  0
  180.9480  178.0810  136.0040 C   0  0  0  0  0  2  0  0  0  0  0  0
  191.1040  177.3490  141.3850 C   0  0  0  0  0  2  0  0  0  0  0  0
  189.7150  177.6990  140.9190 C   0  0  0  0  0  0  0  0  0  0  0  0
  187.4510  178.3070  141.4160 N   0  0  0  0  0  0  0  0  0  0  0  0
  190.3180  177.2850  138.6390 F   0  0  0  0  0  0  0  0  0  0  0  0
  187.1130  178.2530  140.0980 C   0  0  0  0  0  0  0  0  0  0  0  0
  189.0470  178.1670  143.3040 C   0  0  0  0  0  2  0  0  0  0  0  0
  191.3240  177.7840  142.8350 C   0  0  0  0  0  2  0  0  0  0  0  0
  188.7100  178.0260  141.8470 C   0  0  0  0  0  0  0  0  0  0  0  0
  188.0810  177.9060  139.1490 C   0  0  0  0  0  3  0  0  0  0  0  0
  189.3850  177.6260  139.5610 C   0  0  0  0  0  0  0  0  0  0  0  0
  190.2020  177.3350  143.6610 N   0  0  1  0  0  0  0  0  0  0  0  0
  189.8260  176.7560  147.1800 C   0  0  0  0  0  2  0  0  0  0  0  0
  189.3040  177.4250  145.9480 C   0  0  0  0  0  2  0  0  0  0  0  0
  191.2990  176.5800  146.9030 C   0  0  0  0  0  2  0  0  0  0  0  0
  190.5320  177.5890  145.0680 C   0  0  1  0  0  3  0  0  0  0  0  0
  191.5010  176.6760  145.5200 O   0  0  0  0  0  0  0  0  0  0  0  0
  180.0650  181.5230  140.1630 O   0  0  0  0  0  0  0  0  0  0  0  0
  180.1940  180.3280  140.5490 C   0  0  0  0  0  0  0  0  0  0  0  0
  180.7900  179.3540  139.6940 N   0  0  0  0  0  2  0  0  0  0  0  0
  179.6810  177.7230  142.9600 C   0  0  0  0  0  2  0  0  0  0  0  0
  179.7730  179.9280  141.9260 C   0  0  0  0  0  3  0  0  0  0  0  0
  180.9660  179.7530  142.8450 C   0  0  0  0  0  2  0  0  0  0  0  0
  180.5860  178.6230  143.7730 C   0  0  0  0  0  2  0  0  0  0  0  0
  179.0350  178.6020  141.9040 C   0  0  0  0  0  2  0  0  0  0  0  0
  1 10  1  0  0  0  0
  2 16  1  0  0  0  0
  2  7  2  0  0  0  0
  3  5  1  0  0  0  0
  3  2  1  0  0  0  0
  4 30  1  1  0  0  0
  5  9  2  0  0  0  0
  6  8  1  0  0  0  0
  8  4  1  0  0  0  0
  9  7  1  0  0  0  0
 10  4  1  0  0  0  0
 10  5  1  0  0  0  0
 11  6  1  0  0  0  0
 11  1  1  0  0  0  0
 12 18  1  0  0  0  0
 13 12  1  0  0  0  0
 13 19  1  0  0  0  0
 14 19  2  0  0  0  0
 15 21  1  0  0  0  0
 16 14  1  0  0  0  0
 17 22  1  0  0  0  0
 19 17  1  0  0  0  0
 20 21  1  0  0  0  0
 20 16  2  0  0  0  0
 21 13  2  0  0  0  0
 22 18  1  6  0  0  0
 22 26  1  0  0  0  0
 24 23  1  0  0  0  0
 25 23  1  0  0  0  0
 26 27  1  0  0  0  0
 26 24  1  1  0  0  0
 27 25  1  0  0  0  0
 28 29  2  0  0  0  0
 29 32  1  0  0  0  0
 30 29  1  0  0  0  0
 31 34  1  0  0  0  0
 32 33  1  0  0  0  0
 33 34  1  0  0  0  0
 35 32  1  0  0  0  0
 35 31  1  0  0  0  0
M  END
>  <MODEL>
7

>  <REMARK>
 VINA RESULT:      -8.8      3.143      4.816
  Name = 
  4 active torsions:
  status: ('A' for Active; 'I' for Inactive)
    1  A    between atoms: C_3  and  C_16
    2  A    between atoms: C_6  and  N_35
    3  A    between atoms: C_15  and  C_29
    4  A    between atoms: C_22  and  N_33
                            x       y       z     vdW  Elec       q    Type
                         _______ _______ _______ _____ _____    ______ ____

>  <TORSDO>
F 4

$$$$
=
 OpenBabel11062413433D

 35 40  0  0  1  0  0  0  0  0999 V2000
  189.4670  178.1510  139.3860 C   0  0  0  0  0  2  0  0  0  0  0  0
  185.9470  177.9960  142.3220 C   0  0  0  0  0  0  0  0  0  0  0  0
  186.7970  178.4970  140.9520 S   0  0  0  0  0  0  0  0  0  0  0  0
  190.5060  176.7520  141.2840 C   0  0  2  0  0  3  0  0  0  0  0  0
  188.1610  177.6350  141.4500 C   0  0  0  0  0  0  0  0  0  0  0  0
  191.3340  176.7020  139.0220 O   0  0  0  0  0  0  0  0  0  0  0  0
  186.7120  177.2000  143.1060 N   0  0  0  0  0  0  0  0  0  0  0  0
  191.7310  176.7440  140.3630 C   0  0  0  0  0  2  0  0  0  0  0  0
  187.9370  177.0000  142.6230 N   0  0  0  0  0  0  0  0  0  0  0  0
  189.4070  177.5670  140.7340 N   0  0  0  0  0  0  0  0  0  0  0  0
  190.8480  177.9870  138.7580 C   0  0  0  0  0  2  0  0  0  0  0  0
  180.4810  179.3680  143.5070 C   0  0  0  0  0  2  0  0  0  0  0  0
  181.9220  179.0480  143.2090 C   0  0  0  0  0  0  0  0  0  0  0  0
  183.6250  178.3950  141.6550 N   0  0  0  0  0  0  0  0  0  0  0  0
  182.5060  179.2800  145.5200 F   0  0  0  0  0  0  0  0  0  0  0  0
  184.5570  178.3510  142.6450 C   0  0  0  0  0  0  0  0  0  0  0  0
  181.3530  178.8160  140.7640 C   0  0  0  0  0  2  0  0  0  0  0  0
  179.7060  179.6650  142.2210 C   0  0  0  0  0  2  0  0  0  0  0  0
  182.3270  178.7160  141.9040 C   0  0  0  0  0  0  0  0  0  0  0  0
  184.1860  178.6500  143.9600 C   0  0  0  0  0  3  0  0  0  0  0  0
  182.8640  178.9970  144.2430 C   0  0  0  0  0  0  0  0  0  0  0  0
  179.9750  178.6210  141.2300 N   0  0  1  0  0  0  0  0  0  0  0  0
  179.0550  180.1570  138.1230 C   0  0  0  0  0  2  0  0  0  0  0  0
  179.1190  180.2640  139.6140 C   0  0  0  0  0  2  0  0  0  0  0  0
  178.9920  178.6710  137.8670 C   0  0  0  0  0  2  0  0  0  0  0  0
  179.0730  178.8220  140.0910 C   0  0  1  0  0  3  0  0  0  0  0  0
  179.4560  178.0070  139.0100 O   0  0  0  0  0  0  0  0  0  0  0  0
  190.9060  175.1530  143.6110 O   0  0  0  0  0  0  0  0  0  0  0  0
  191.1030  176.3950  143.7150 C   0  0  0  0  0  0  0  0  0  0  0  0
  190.8940  177.2550  142.5950 N   0  0  0  0  0  2  0  0  0  0  0  0
  190.2780  177.1350  147.1260 C   0  0  0  0  0  2  0  0  0  0  0  0
  191.5050  176.9900  145.0250 C   0  0  0  0  0  3  0  0  0  0  0  0
  192.0210  175.9340  145.9830 C   0  0  0  0  0  2  0  0  0  0  0  0
  191.5790  176.3940  147.3520 C   0  0  0  0  0  2  0  0  0  0  0  0
  190.3240  177.6610  145.7030 C   0  0  0  0  0  2  0  0  0  0  0  0
  1 10  1  0  0  0  0
  2 16  1  0  0  0  0
  2  7  2  0  0  0  0
  3  5  1  0  0  0  0
  3  2  1  0  0  0  0
  4 30  1  1  0  0  0
  5  9  2  0  0  0  0
  6  8  1  0  0  0  0
  8  4  1  0  0  0  0
  9  7  1  0  0  0  0
 10  4  1  0  0  0  0
 10  5  1  0  0  0  0
 11  6  1  0  0  0  0
 11  1  1  0  0  0  0
 13 12  1  0  0  0  0
 13 21  1  0  0  0  0
 14 19  1  0  0  0  0
 14 16  2  0  0  0  0
 16 20  1  0  0  0  0
 17 19  1  0  0  0  0
 18 12  1  0  0  0  0
 19 13  2  0  0  0  0
 20 21  2  0  0  0  0
 21 15  1  0  0  0  0
 22 17  1  6  0  0  0
 22 18  1  0  0  0  0
 23 24  1  0  0  0  0
 25 23  1  0  0  0  0
 25 27  1  0  0  0  0
 26 24  1  6  0  0  0
 26 22  1  0  0  0  0
 27 26  1  0  0  0  0
 28 29  2  0  0  0  0
 29 32  1  0  0  0  0
 30 29  1  0  0  0  0
 31 34  1  0  0  0  0
 32 35  1  0  0  0  0
 32 33  1  0  0  0  0
 33 34  1  0  0  0  0
 35 31  1  0  0  0  0
M  END
>  <MODEL>
8

>  <REMARK>
 VINA RESULT:      -8.5      3.038     10.443
  Name = 
  4 active torsions:
  status: ('A' for Active; 'I' for Inactive)
    1  A    between atoms: C_3  and  C_16
    2  A    between atoms: C_6  and  N_35
    3  A    between atoms: C_15  and  C_29
    4  A    between atoms: C_22  and  N_33
                            x       y       z     vdW  Elec       q    Type
                         _______ _______ _______ _____ _____    ______ ____

>  <TORSDO>
F 4

$$$$
=
 OpenBabel11062413433D

 35 40  0  0  1  0  0  0  0  0999 V2000
  189.3150  177.1250  144.8900 C   0  0  0  0  0  2  0  0  0  0  0  0
  185.6150  178.3670  142.4820 C   0  0  0  0  0  0  0  0  0  0  0  0
  186.4630  177.7440  143.8020 S   0  0  0  0  0  0  0  0  0  0  0  0
  190.4000  177.6700  142.6190 C   0  0  2  0  0  3  0  0  0  0  0  0
  187.9190  177.8620  142.9560 C   0  0  0  0  0  0  0  0  0  0  0  0
  191.6340  177.6700  144.6880 O   0  0  0  0  0  0  0  0  0  0  0  0
  186.4490  178.6430  141.4530 N   0  0  0  0  0  0  0  0  0  0  0  0
  191.6910  177.2790  143.3460 C   0  0  0  0  0  2  0  0  0  0  0  0
  187.7250  178.3650  141.7160 N   0  0  0  0  0  0  0  0  0  0  0  0
  189.2100  177.4880  143.4700 N   0  0  0  0  0  0  0  0  0  0  0  0
  190.7450  176.7670  145.2810 C   0  0  0  0  0  2  0  0  0  0  0  0
  179.9350  179.2740  142.1920 C   0  0  0  0  0  2  0  0  0  0  0  0
  181.4240  179.0720  142.2890 C   0  0  0  0  0  0  0  0  0  0  0  0
  183.5540  178.7950  141.2280 N   0  0  0  0  0  0  0  0  0  0  0  0
  181.2960  178.8840  144.6730 F   0  0  0  0  0  0  0  0  0  0  0  0
  184.1640  178.6000  142.4290 C   0  0  0  0  0  0  0  0  0  0  0  0
  181.6040  179.2880  139.7840 C   0  0  0  0  0  2  0  0  0  0  0  0
  179.5370  179.7790  140.8040 C   0  0  0  0  0  2  0  0  0  0  0  0
  182.2150  179.0110  141.1280 C   0  0  0  0  0  0  0  0  0  0  0  0
  183.4040  178.6280  143.6040 C   0  0  0  0  0  3  0  0  0  0  0  0
  182.0300  178.8630  143.5330 C   0  0  0  0  0  0  0  0  0  0  0  0
  180.1750  178.9540  139.7760 N   0  0  1  0  0  0  0  0  0  0  0  0
  180.0580  181.0040  136.8360 C   0  0  0  0  0  2  0  0  0  0  0  0
  179.6830  180.8370  138.2750 C   0  0  0  0  0  2  0  0  0  0  0  0
  180.1940  179.5890  136.3300 C   0  0  0  0  0  2  0  0  0  0  0  0
  179.6230  179.3320  138.4710 C   0  0  1  0  0  3  0  0  0  0  0  0
  180.3660  178.7410  137.4320 O   0  0  0  0  0  0  0  0  0  0  0  0
  192.0840  177.8800  140.3270 O   0  0  0  0  0  0  0  0  0  0  0  0
  191.1680  177.0130  140.3010 C   0  0  0  0  0  0  0  0  0  0  0  0
  190.2740  176.8750  141.4040 N   0  0  0  0  0  2  0  0  0  0  0  0
  190.1900  176.7420  136.8610 C   0  0  0  0  0  2  0  0  0  0  0  0
  190.9730  176.1550  139.0930 C   0  0  0  0  0  3  0  0  0  0  0  0
  192.1580  176.2400  138.1510 C   0  0  0  0  0  2  0  0  0  0  0  0
  191.5680  176.1220  136.7660 C   0  0  0  0  0  2  0  0  0  0  0  0
  189.7510  176.5950  138.3070 C   0  0  0  0  0  2  0  0  0  0  0  0
  1 11  1  0  0  0  0
  2  3  1  0  0  0  0
  4 30  1  6  0  0  0
  4  8  1  0  0  0  0
  4 10  1  0  0  0  0
  5 10  1  0  0  0  0
  5  3  1  0  0  0  0
  6 11  1  0  0  0  0
  7  9  1  0  0  0  0
  7  2  2  0  0  0  0
  8  6  1  0  0  0  0
  9  5  2  0  0  0  0
 10  1  1  0  0  0  0
 12 13  1  0  0  0  0
 13 21  1  0  0  0  0
 14 16  2  0  0  0  0
 16  2  1  0  0  0  0
 16 20  1  0  0  0  0
 17 19  1  0  0  0  0
 18 12  1  0  0  0  0
 19 14  1  0  0  0  0
 19 13  2  0  0  0  0
 21 20  2  0  0  0  0
 21 15  1  0  0  0  0
 22 17  1  6  0  0  0
 22 18  1  0  0  0  0
 23 24  1  0  0  0  0
 25 23  1  0  0  0  0
 25 27  1  0  0  0  0
 26 24  1  6  0  0  0
 26 22  1  0  0  0  0
 27 26  1  0  0  0  0
 29 28  2  0  0  0  0
 29 30  1  0  0  0  0
 31 35  1  0  0  0  0
 32 29  1  0  0  0  0
 33 32  1  0  0  0  0
 34 31  1  0  0  0  0
 34 33  1  0  0  0  0
 35 32  1  0  0  0  0
M  END
>  <MODEL>
9

>  <REMARK>
 VINA RESULT:      -8.4      3.276     10.088
  Name = 
  4 active torsions:
  status: ('A' for Active; 'I' for Inactive)
    1  A    between atoms: C_3  and  C_16
    2  A    between atoms: C_6  and  N_35
    3  A    between atoms: C_15  and  C_29
    4  A    between atoms: C_22  and  N_33
                            x       y       z     vdW  Elec       q    Type
                         _______ _______ _______ _____ _____    ______ ____

>  <TORSDO>
F 4

$$$$
