=
 OpenBabel11062413533D

 25 28  0  0  1  0  0  0  0  0999 V2000
  187.7280  177.6810  146.1010 C   0  0  0  0  0  0  0  0  0  0  0  0
  188.3320  177.1750  144.9630 C   0  0  0  0  0  0  0  0  0  0  0  0
  187.4800  177.2500  143.9130 N   0  0  0  0  0  0  0  0  0  0  0  0
  184.0020  178.6460  144.4450 C   0  0  0  0  0  0  0  0  0  0  0  0
  186.4660  178.0890  145.7190 C   0  0  0  0  0  0  0  0  0  0  0  0
  184.1200  178.8630  145.7720 C   0  0  0  0  0  3  0  0  0  0  0  0
  182.6430  178.6780  143.8320 C   0  0  0  0  0  1  0  0  0  0  0  0
  185.2000  178.3560  143.5590 C   0  0  2  0  0  3  0  0  0  0  0  0
  186.3480  177.8310  144.3730 C   0  0  0  0  0  0  0  0  0  0  0  0
  185.6210  179.6210  142.8310 C   0  0  0  0  0  1  0  0  0  0  0  0
  185.4500  178.8670  146.4940 C   0  0  0  0  0  2  0  0  0  0  0  0
  188.3320  177.8200  147.4250 C   0  0  0  0  0  0  0  0  0  0  0  0
  189.4350  178.0050  148.1970 O   0  0  0  0  0  0  0  0  0  0  0  0
  188.2060  177.8590  148.7490 N   0  0  0  0  0  0  0  0  0  0  0  0
  188.6470  177.7850  141.7630 C   0  0  0  0  0  0  0  0  0  0  0  0
  187.7970  176.9630  142.5730 N   0  0  0  0  0  2  0  0  0  0  0  0
  188.9310  178.9580  142.1300 O   0  0  0  0  0  0  0  0  0  0  0  0
  188.4240  177.4520  139.2960 C   0  0  0  0  0  3  0  0  0  0  0  0
  190.8250  176.1440  139.2020 N   0  0  0  0  0  0  0  0  0  0  0  0
  190.1000  176.3270  138.0670 C   0  0  0  0  0  3  0  0  0  0  0  0
  189.1510  177.2760  140.4770 C   0  0  0  0  0  0  0  0  0  0  0  0
  190.3750  176.6050  140.3970 C   0  0  0  0  0  3  0  0  0  0  0  0
  188.9080  176.9780  138.1190 N   0  0  0  0  0  0  0  0  0  0  0  0
  190.7860  177.5060  144.7850 C   0  0  0  0  0  1  0  0  0  0  0  0
  189.6410  176.6800  144.9270 O   0  0  0  0  0  0  0  0  0  0  0  0
  1 12  1  0  0  0  0
  2  1  2  0  0  0  0
  3  9  1  0  0  0  0
  3  2  1  0  0  0  0
  4  6  2  0  0  0  0
  5  1  1  0  0  0  0
  5 11  1  0  0  0  0
  6 11  1  0  0  0  0
  7  4  1  0  0  0  0
  8 10  1  1  0  0  0
  8  9  1  0  0  0  0
  8  4  1  0  0  0  0
  9  5  2  0  0  0  0
 12 13  1  0  0  0  0
 12 14  2  0  0  0  0
 13 14  1  0  0  0  0
 15 17  2  0  0  0  0
 15 16  1  0  0  0  0
 16  3  1  0  0  0  0
 18 21  1  0  0  0  0
 19 22  1  0  0  0  0
 20 23  1  0  0  0  0
 20 19  2  0  0  0  0
 21 15  1  0  0  0  0
 22 21  2  0  0  0  0
 23 18  2  0  0  0  0
 24 25  1  0  0  0  0
 25  2  1  0  0  0  0
M  END
>  <MODEL>
1

>  <REMARK>
 VINA RESULT:      -8.9      0.000      0.000
  Name = 
  4 active torsions:
  status: ('A' for Active; 'I' for Inactive)
    1  A    between atoms: C_2  and  C_3
    2  A    between atoms: C_4  and  O_25
    3  A    between atoms: N_6  and  N_15
    4  A    between atoms: C_9  and  C_12
                            x       y       z     vdW  Elec       q    Type
                         _______ _______ _______ _____ _____    ______ ____

>  <TORSDO>
F 4

$$$$
=
 OpenBabel11062413533D

 25 28  0  0  1  0  0  0  0  0999 V2000
  187.3360  178.5070  141.3540 C   0  0  0  0  0  0  0  0  0  0  0  0
  188.2570  178.3980  140.3260 C   0  0  0  0  0  0  0  0  0  0  0  0
  189.4360  177.9370  140.8080 N   0  0  0  0  0  0  0  0  0  0  0  0
  189.7790  177.2350  144.5120 C   0  0  0  0  0  0  0  0  0  0  0  0
  187.9810  178.0840  142.4980 C   0  0  0  0  0  0  0  0  0  0  0  0
  188.5340  177.6220  144.8620 C   0  0  0  0  0  3  0  0  0  0  0  0
  190.8000  177.0510  145.5820 C   0  0  0  0  0  1  0  0  0  0  0  0
  190.1780  176.9930  143.0670 C   0  0  2  0  0  3  0  0  0  0  0  0
  189.2570  177.7230  142.1320 C   0  0  0  0  0  0  0  0  0  0  0  0
  190.1450  175.5050  142.7650 C   0  0  0  0  0  1  0  0  0  0  0  0
  187.4180  177.8250  143.8600 C   0  0  0  0  0  2  0  0  0  0  0  0
  185.9390  178.9210  141.2370 C   0  0  0  0  0  0  0  0  0  0  0  0
  184.6980  179.0270  141.7800 O   0  0  0  0  0  0  0  0  0  0  0  0
  184.9570  179.4690  140.5250 N   0  0  0  0  0  0  0  0  0  0  0  0
  190.5310  176.5230  139.0550 C   0  0  0  0  0  0  0  0  0  0  0  0
  190.5520  177.5670  140.0360 N   0  0  0  0  0  2  0  0  0  0  0  0
  189.5790  175.6950  139.0330 O   0  0  0  0  0  0  0  0  0  0  0  0
  192.9630  176.6440  138.4920 C   0  0  0  0  0  3  0  0  0  0  0  0
  192.4590  175.8670  135.9180 N   0  0  0  0  0  0  0  0  0  0  0  0
  193.7320  176.1230  136.3200 C   0  0  0  0  0  3  0  0  0  0  0  0
  191.6460  176.3860  138.1040 C   0  0  0  0  0  0  0  0  0  0  0  0
  191.4190  175.9900  136.7820 C   0  0  0  0  0  3  0  0  0  0  0  0
  193.9770  176.5090  137.5990 N   0  0  0  0  0  0  0  0  0  0  0  0
  187.2020  177.8800  138.1400 C   0  0  0  0  0  1  0  0  0  0  0  0
  187.9780  178.7090  138.9900 O   0  0  0  0  0  0  0  0  0  0  0  0
  1  5  1  0  0  0  0
  2  3  1  0  0  0  0
  2  1  2  0  0  0  0
  3  9  1  0  0  0  0
  4  6  2  0  0  0  0
  4  7  1  0  0  0  0
  5 11  1  0  0  0  0
  8 10  1  6  0  0  0
  8  4  1  0  0  0  0
  9  5  2  0  0  0  0
  9  8  1  0  0  0  0
 11  6  1  0  0  0  0
 12  1  1  0  0  0  0
 12 13  1  0  0  0  0
 14 12  2  0  0  0  0
 14 13  1  0  0  0  0
 15 16  1  0  0  0  0
 16  3  1  0  0  0  0
 17 15  2  0  0  0  0
 19 20  2  0  0  0  0
 19 22  1  0  0  0  0
 20 23  1  0  0  0  0
 21 18  1  0  0  0  0
 21 15  1  0  0  0  0
 22 21  2  0  0  0  0
 23 18  2  0  0  0  0
 24 25  1  0  0  0  0
 25  2  1  0  0  0  0
M  END
>  <MODEL>
2

>  <REMARK>
 VINA RESULT:      -7.6      3.439      5.421
  Name = 
  4 active torsions:
  status: ('A' for Active; 'I' for Inactive)
    1  A    between atoms: C_2  and  C_3
    2  A    between atoms: C_4  and  O_25
    3  A    between atoms: N_6  and  N_15
    4  A    between atoms: C_9  and  C_12
                            x       y       z     vdW  Elec       q    Type
                         _______ _______ _______ _____ _____    ______ ____

>  <TORSDO>
F 4

$$$$
=
 OpenBabel11062413533D

 25 28  0  0  1  0  0  0  0  0999 V2000
  185.6890  178.2280  144.0020 C   0  0  0  0  0  0  0  0  0  0  0  0
  186.5710  177.5990  144.8630 C   0  0  0  0  0  0  0  0  0  0  0  0
  187.6800  177.2100  144.1880 N   0  0  0  0  0  0  0  0  0  0  0  0
  187.9130  177.8740  140.4680 C   0  0  0  0  0  0  0  0  0  0  0  0
  186.2940  178.2300  142.7620 C   0  0  0  0  0  0  0  0  0  0  0  0
  186.6960  178.4440  140.3330 C   0  0  0  0  0  3  0  0  0  0  0  0
  188.6420  177.4430  139.2420 C   0  0  0  0  0  1  0  0  0  0  0  0
  188.5570  177.6460  141.8240 C   0  0  2  0  0  3  0  0  0  0  0  0
  187.5170  177.6190  142.9080 C   0  0  0  0  0  0  0  0  0  0  0  0
  189.5660  178.7460  142.1060 C   0  0  0  0  0  1  0  0  0  0  0  0
  185.8750  178.9310  141.5080 C   0  0  0  0  0  2  0  0  0  0  0  0
  184.4040  178.8320  144.3530 C   0  0  0  0  0  0  0  0  0  0  0  0
  183.3230  179.5740  144.0000 O   0  0  0  0  0  0  0  0  0  0  0  0
  183.4440  179.0550  145.2460 N   0  0  0  0  0  0  0  0  0  0  0  0
  189.8500  177.4580  145.4130 C   0  0  0  0  0  0  0  0  0  0  0  0
  188.8460  176.6710  144.7600 N   0  0  0  0  0  2  0  0  0  0  0  0
  189.8700  178.7110  145.2600 O   0  0  0  0  0  0  0  0  0  0  0  0
  191.1110  177.1730  147.5510 C   0  0  0  0  0  3  0  0  0  0  0  0
  192.6320  175.1830  146.4490 N   0  0  0  0  0  0  0  0  0  0  0  0
  192.8310  175.5630  147.7390 C   0  0  0  0  0  3  0  0  0  0  0  0
  190.8880  176.8010  146.2220 C   0  0  0  0  0  0  0  0  0  0  0  0
  191.6800  175.7800  145.6870 C   0  0  0  0  0  3  0  0  0  0  0  0
  192.0730  176.5510  148.2820 N   0  0  0  0  0  0  0  0  0  0  0  0
  186.6830  178.3780  147.2170 C   0  0  0  0  0  1  0  0  0  0  0  0
  186.3350  177.4190  146.2310 O   0  0  0  0  0  0  0  0  0  0  0  0
  1 12  1  0  0  0  0
  1  2  2  0  0  0  0
  2 25  1  0  0  0  0
  3 16  1  0  0  0  0
  3  2  1  0  0  0  0
  4  8  1  0  0  0  0
  5  9  2  0  0  0  0
  5  1  1  0  0  0  0
  6  4  2  0  0  0  0
  6 11  1  0  0  0  0
  7  4  1  0  0  0  0
  8 10  1  1  0  0  0
  8  9  1  0  0  0  0
  9  3  1  0  0  0  0
 11  5  1  0  0  0  0
 12 14  2  0  0  0  0
 13 12  1  0  0  0  0
 13 14  1  0  0  0  0
 15 21  1  0  0  0  0
 16 15  1  0  0  0  0
 17 15  2  0  0  0  0
 18 23  1  0  0  0  0
 19 20  1  0  0  0  0
 20 23  2  0  0  0  0
 21 18  2  0  0  0  0
 22 21  1  0  0  0  0
 22 19  2  0  0  0  0
 25 24  1  0  0  0  0
M  END
>  <MODEL>
3

>  <REMARK>
 VINA RESULT:      -7.3      2.668      5.691
  Name = 
  4 active torsions:
  status: ('A' for Active; 'I' for Inactive)
    1  A    between atoms: C_2  and  C_3
    2  A    between atoms: C_4  and  O_25
    3  A    between atoms: N_6  and  N_15
    4  A    between atoms: C_9  and  C_12
                            x       y       z     vdW  Elec       q    Type
                         _______ _______ _______ _____ _____    ______ ____

>  <TORSDO>
F 4

$$$$
=
 OpenBabel11062413533D

 25 28  0  0  1  0  0  0  0  0999 V2000
  187.4770  178.1510  141.5400 C   0  0  0  0  0  0  0  0  0  0  0  0
  187.9600  177.6950  142.7540 C   0  0  0  0  0  0  0  0  0  0  0  0
  189.1140  177.0090  142.5670 N   0  0  0  0  0  0  0  0  0  0  0  0
  190.4540  176.5630  139.0550 C   0  0  0  0  0  0  0  0  0  0  0  0
  188.3810  177.7330  140.5830 C   0  0  0  0  0  0  0  0  0  0  0  0
  189.4500  177.2040  138.4200 C   0  0  0  0  0  3  0  0  0  0  0  0
  191.3890  175.7230  138.2530 C   0  0  0  0  0  1  0  0  0  0  0  0
  190.6570  176.6570  140.5570 C   0  0  2  0  0  3  0  0  0  0  0  0
  189.3800  177.0550  141.2410 C   0  0  0  0  0  0  0  0  0  0  0  0
  191.7450  177.6700  140.8670 C   0  0  0  0  0  1  0  0  0  0  0  0
  188.4540  178.0930  139.1330 C   0  0  0  0  0  2  0  0  0  0  0  0
  186.2860  178.9690  141.3230 C   0  0  0  0  0  0  0  0  0  0  0  0
  185.3460  179.8230  141.8070 O   0  0  0  0  0  0  0  0  0  0  0  0
  185.3330  179.4230  140.5120 N   0  0  0  0  0  0  0  0  0  0  0  0
  190.6760  177.3720  144.4900 C   0  0  0  0  0  0  0  0  0  0  0  0
  189.9590  176.5270  143.5820 N   0  0  0  0  0  2  0  0  0  0  0  0
  190.8000  178.6040  144.2440 O   0  0  0  0  0  0  0  0  0  0  0  0
  192.0570  175.6170  145.6110 C   0  0  0  0  0  3  0  0  0  0  0  0
  191.7770  176.8670  148.0290 N   0  0  0  0  0  0  0  0  0  0  0  0
  192.4990  175.7190  147.9300 C   0  0  0  0  0  3  0  0  0  0  0  0
  191.3090  176.7950  145.6870 C   0  0  0  0  0  0  0  0  0  0  0  0
  191.1840  177.4120  146.9360 C   0  0  0  0  0  3  0  0  0  0  0  0
  192.6350  175.1030  146.7270 N   0  0  0  0  0  0  0  0  0  0  0  0
  186.7950  176.9130  144.8020 C   0  0  0  0  0  1  0  0  0  0  0  0
  187.3380  177.9380  143.9840 O   0  0  0  0  0  0  0  0  0  0  0  0
  1  2  2  0  0  0  0
  2 25  1  0  0  0  0
  3  2  1  0  0  0  0
  3 16  1  0  0  0  0
  4  8  1  0  0  0  0
  5  9  2  0  0  0  0
  5  1  1  0  0  0  0
  6  4  2  0  0  0  0
  6 11  1  0  0  0  0
  7  4  1  0  0  0  0
  8 10  1  6  0  0  0
  8  9  1  0  0  0  0
  9  3  1  0  0  0  0
 11  5  1  0  0  0  0
 12  1  1  0  0  0  0
 12 13  1  0  0  0  0
 14 12  2  0  0  0  0
 14 13  1  0  0  0  0
 15 21  1  0  0  0  0
 16 15  1  0  0  0  0
 17 15  2  0  0  0  0
 18 21  2  0  0  0  0
 18 23  1  0  0  0  0
 20 19  1  0  0  0  0
 21 22  1  0  0  0  0
 22 19  2  0  0  0  0
 23 20  2  0  0  0  0
 25 24  1  0  0  0  0
M  END
>  <MODEL>
4

>  <REMARK>
 VINA RESULT:      -7.3      2.589      6.772
  Name = 
  4 active torsions:
  status: ('A' for Active; 'I' for Inactive)
    1  A    between atoms: C_2  and  C_3
    2  A    between atoms: C_4  and  O_25
    3  A    between atoms: N_6  and  N_15
    4  A    between atoms: C_9  and  C_12
                            x       y       z     vdW  Elec       q    Type
                         _______ _______ _______ _____ _____    ______ ____

>  <TORSDO>
F 4

$$$$
=
 OpenBabel11062413533D

 25 28  0  0  1  0  0  0  0  0999 V2000
  188.1620  177.7720  146.2730 C   0  0  0  0  0  0  0  0  0  0  0  0
  187.0060  177.8060  145.5120 C   0  0  0  0  0  0  0  0  0  0  0  0
  187.3170  177.7350  144.1950 N   0  0  0  0  0  0  0  0  0  0  0  0
  190.9520  177.5530  143.1550 C   0  0  0  0  0  0  0  0  0  0  0  0
  189.2090  177.6640  145.3810 C   0  0  0  0  0  0  0  0  0  0  0  0
  191.4750  177.6250  144.3970 C   0  0  0  0  0  3  0  0  0  0  0  0
  191.8500  177.7680  141.9840 C   0  0  0  0  0  1  0  0  0  0  0  0
  189.4800  177.2750  142.9080 C   0  0  2  0  0  3  0  0  0  0  0  0
  188.6630  177.6240  144.1190 C   0  0  0  0  0  0  0  0  0  0  0  0
  189.2840  175.8090  142.5600 C   0  0  0  0  0  1  0  0  0  0  0  0
  190.6590  177.4100  145.6530 C   0  0  0  0  0  2  0  0  0  0  0  0
  188.2490  177.7780  147.7320 C   0  0  0  0  0  0  0  0  0  0  0  0
  187.8540  177.2790  148.9320 O   0  0  0  0  0  0  0  0  0  0  0  0
  188.7700  178.2740  148.8520 N   0  0  0  0  0  0  0  0  0  0  0  0
  185.5490  178.6590  142.6810 C   0  0  0  0  0  0  0  0  0  0  0  0
  186.3980  177.5990  143.1380 N   0  0  0  0  0  2  0  0  0  0  0  0
  185.3870  179.6900  143.3890 O   0  0  0  0  0  0  0  0  0  0  0  0
  183.4940  178.1060  141.3710 C   0  0  0  0  0  3  0  0  0  0  0  0
  184.7720  178.6820  139.0220 N   0  0  0  0  0  0  0  0  0  0  0  0
  183.4760  178.2740  139.0140 C   0  0  0  0  0  3  0  0  0  0  0  0
  184.8270  178.5230  141.4050 C   0  0  0  0  0  0  0  0  0  0  0  0
  185.4540  178.8110  140.1890 C   0  0  0  0  0  3  0  0  0  0  0  0
  182.8450  177.9890  140.1830 N   0  0  0  0  0  0  0  0  0  0  0  0
  185.2490  178.9930  146.8020 C   0  0  0  0  0  1  0  0  0  0  0  0
  185.7170  177.8840  146.0500 O   0  0  0  0  0  0  0  0  0  0  0  0
  1 12  1  0  0  0  0
  2 25  1  0  0  0  0
  2  1  2  0  0  0  0
  3  2  1  0  0  0  0
  4  6  2  0  0  0  0
  5 11  1  0  0  0  0
  5  1  1  0  0  0  0
  6 11  1  0  0  0  0
  7  4  1  0  0  0  0
  8 10  1  1  0  0  0
  8  4  1  0  0  0  0
  8  9  1  0  0  0  0
  9  3  1  0  0  0  0
  9  5  2  0  0  0  0
 12 14  2  0  0  0  0
 12 13  1  0  0  0  0
 14 13  1  0  0  0  0
 15 16  1  0  0  0  0
 15 17  2  0  0  0  0
 16  3  1  0  0  0  0
 18 21  1  0  0  0  0
 19 22  1  0  0  0  0
 20 19  2  0  0  0  0
 20 23  1  0  0  0  0
 21 15  1  0  0  0  0
 22 21  2  0  0  0  0
 23 18  2  0  0  0  0
 25 24  1  0  0  0  0
M  END
>  <MODEL>
5

>  <REMARK>
 VINA RESULT:      -7.3      2.572      4.869
  Name = 
  4 active torsions:
  status: ('A' for Active; 'I' for Inactive)
    1  A    between atoms: C_2  and  C_3
    2  A    between atoms: C_4  and  O_25
    3  A    between atoms: N_6  and  N_15
    4  A    between atoms: C_9  and  C_12
                            x       y       z     vdW  Elec       q    Type
                         _______ _______ _______ _____ _____    ______ ____

>  <TORSDO>
F 4

$$$$
=
 OpenBabel11062413533D

 25 28  0  0  1  0  0  0  0  0999 V2000
  185.8300  178.3620  144.4420 C   0  0  0  0  0  0  0  0  0  0  0  0
  185.8240  178.4390  143.0600 C   0  0  0  0  0  0  0  0  0  0  0  0
  187.0380  178.0850  142.5710 N   0  0  0  0  0  0  0  0  0  0  0  0
  189.8070  177.1570  144.9800 C   0  0  0  0  0  0  0  0  0  0  0  0
  187.0920  177.9340  144.8010 C   0  0  0  0  0  0  0  0  0  0  0  0
  189.1070  177.3680  146.1140 C   0  0  0  0  0  3  0  0  0  0  0  0
  191.2880  177.0160  145.0670 C   0  0  0  0  0  1  0  0  0  0  0  0
  189.1400  177.0720  143.6180 C   0  0  2  0  0  3  0  0  0  0  0  0
  187.8030  177.7550  143.6370 C   0  0  0  0  0  0  0  0  0  0  0  0
  188.9700  175.6160  143.2180 C   0  0  0  0  0  1  0  0  0  0  0  0
  187.6000  177.5110  146.1430 C   0  0  0  0  0  2  0  0  0  0  0  0
  184.7020  178.6160  145.3370 C   0  0  0  0  0  0  0  0  0  0  0  0
  184.1810  178.6280  146.5910 O   0  0  0  0  0  0  0  0  0  0  0  0
  183.4420  179.0030  145.5190 N   0  0  0  0  0  0  0  0  0  0  0  0
  188.4700  178.5410  140.5690 C   0  0  0  0  0  0  0  0  0  0  0  0
  187.3580  177.9080  141.2140 N   0  0  0  0  0  2  0  0  0  0  0  0
  189.0550  179.5110  141.1240 O   0  0  0  0  0  0  0  0  0  0  0  0
  190.1510  177.4990  139.0410 C   0  0  0  0  0  3  0  0  0  0  0  0
  188.4780  177.8150  136.8990 N   0  0  0  0  0  0  0  0  0  0  0  0
  189.7000  177.2430  136.7360 C   0  0  0  0  0  3  0  0  0  0  0  0
  188.9000  178.0900  139.2350 C   0  0  0  0  0  0  0  0  0  0  0  0
  188.0670  178.2380  138.1220 C   0  0  0  0  0  3  0  0  0  0  0  0
  190.5270  177.0880  137.8020 N   0  0  0  0  0  0  0  0  0  0  0  0
  183.8080  177.8800  141.7250 C   0  0  0  0  0  1  0  0  0  0  0  0
  184.7090  178.8120  142.3020 O   0  0  0  0  0  0  0  0  0  0  0  0
  1  5  1  0  0  0  0
  1 12  1  0  0  0  0
  2  1  2  0  0  0  0
  3  2  1  0  0  0  0
  3  9  1  0  0  0  0
  4  7  1  0  0  0  0
  4  6  2  0  0  0  0
  5 11  1  0  0  0  0
  6 11  1  0  0  0  0
  8 10  1  1  0  0  0
  8  9  1  0  0  0  0
  8  4  1  0  0  0  0
  9  5  2  0  0  0  0
 12 14  2  0  0  0  0
 12 13  1  0  0  0  0
 14 13  1  0  0  0  0
 15 17  2  0  0  0  0
 15 16  1  0  0  0  0
 16  3  1  0  0  0  0
 18 21  1  0  0  0  0
 19 22  1  0  0  0  0
 20 19  2  0  0  0  0
 20 23  1  0  0  0  0
 21 15  1  0  0  0  0
 22 21  2  0  0  0  0
 23 18  2  0  0  0  0
 24 25  1  0  0  0  0
 25  2  1  0  0  0  0
M  END
>  <MODEL>
6

>  <REMARK>
 VINA RESULT:      -7.3      2.261      4.193
  Name = 
  4 active torsions:
  status: ('A' for Active; 'I' for Inactive)
    1  A    between atoms: C_2  and  C_3
    2  A    between atoms: C_4  and  O_25
    3  A    between atoms: N_6  and  N_15
    4  A    between atoms: C_9  and  C_12
                            x       y       z     vdW  Elec       q    Type
                         _______ _______ _______ _____ _____    ______ ____

>  <TORSDO>
F 4

$$$$
=
 OpenBabel11062413533D

 25 28  0  0  1  0  0  0  0  0999 V2000
  188.3040  178.2780  140.3080 C   0  0  0  0  0  0  0  0  0  0  0  0
  189.4090  177.7860  140.9790 C   0  0  0  0  0  0  0  0  0  0  0  0
  189.1380  177.6790  142.3030 N   0  0  0  0  0  0  0  0  0  0  0  0
  185.7430  178.7480  143.5910 C   0  0  0  0  0  0  0  0  0  0  0  0
  187.3230  178.4650  141.2610 C   0  0  0  0  0  0  0  0  0  0  0  0
  185.2460  179.1590  142.4050 C   0  0  0  0  0  3  0  0  0  0  0  0
  185.0320  179.1410  144.8410 C   0  0  0  0  0  1  0  0  0  0  0  0
  187.0060  177.9110  143.6970 C   0  0  2  0  0  3  0  0  0  0  0  0
  187.8540  178.0720  142.4680 C   0  0  0  0  0  0  0  0  0  0  0  0
  186.6400  176.4480  143.8830 C   0  0  0  0  0  1  0  0  0  0  0  0
  185.8790  178.8060  141.0760 C   0  0  0  0  0  2  0  0  0  0  0  0
  188.1790  178.4920  138.8670 C   0  0  0  0  0  0  0  0  0  0  0  0
  187.5670  178.2060  137.6880 O   0  0  0  0  0  0  0  0  0  0  0  0
  188.5780  179.1060  137.7560 N   0  0  0  0  0  0  0  0  0  0  0  0
  190.5360  177.7920  144.3770 C   0  0  0  0  0  0  0  0  0  0  0  0
  189.9700  177.0830  143.2680 N   0  0  0  0  0  2  0  0  0  0  0  0
  190.5400  179.0540  144.3870 O   0  0  0  0  0  0  0  0  0  0  0  0
  191.8740  175.8710  145.2520 C   0  0  0  0  0  3  0  0  0  0  0  0
  191.6310  176.8000  147.8130 N   0  0  0  0  0  0  0  0  0  0  0  0
  192.3240  175.6580  147.5620 C   0  0  0  0  0  3  0  0  0  0  0  0
  191.1570  177.0480  145.4850 C   0  0  0  0  0  0  0  0  0  0  0  0
  191.0500  177.4990  146.8040 C   0  0  0  0  0  3  0  0  0  0  0  0
  192.4420  175.2010  146.2880 N   0  0  0  0  0  0  0  0  0  0  0  0
  190.7360  176.3710  139.4310 C   0  0  0  0  0  1  0  0  0  0  0  0
  190.6130  177.4400  140.3550 O   0  0  0  0  0  0  0  0  0  0  0  0
  1  2  2  0  0  0  0
  1  5  1  0  0  0  0
  2  3  1  0  0  0  0
  3  9  1  0  0  0  0
  3 16  1  0  0  0  0
  4  8  1  0  0  0  0
  4  7  1  0  0  0  0
  5  9  2  0  0  0  0
  6  4  2  0  0  0  0
  8 10  1  6  0  0  0
  9  8  1  0  0  0  0
 11  5  1  0  0  0  0
 11  6  1  0  0  0  0
 12  1  1  0  0  0  0
 13 14  1  0  0  0  0
 13 12  1  0  0  0  0
 14 12  2  0  0  0  0
 15 17  2  0  0  0  0
 15 21  1  0  0  0  0
 16 15  1  0  0  0  0
 18 21  2  0  0  0  0
 18 23  1  0  0  0  0
 20 19  1  0  0  0  0
 21 22  1  0  0  0  0
 22 19  2  0  0  0  0
 23 20  2  0  0  0  0
 24 25  1  0  0  0  0
 25  2  1  0  0  0  0
M  END
>  <MODEL>
7

>  <REMARK>
 VINA RESULT:      -7.1      2.324      6.043
  Name = 
  4 active torsions:
  status: ('A' for Active; 'I' for Inactive)
    1  A    between atoms: C_2  and  C_3
    2  A    between atoms: C_4  and  O_25
    3  A    between atoms: N_6  and  N_15
    4  A    between atoms: C_9  and  C_12
                            x       y       z     vdW  Elec       q    Type
                         _______ _______ _______ _____ _____    ______ ____

>  <TORSDO>
F 4

$$$$
=
 OpenBabel11062413533D

 25 28  0  0  1  0  0  0  0  0999 V2000
  189.2090  177.5240  143.6210 C   0  0  0  0  0  0  0  0  0  0  0  0
  187.9680  177.4760  143.0100 C   0  0  0  0  0  0  0  0  0  0  0  0
  186.9900  177.4670  143.9470 N   0  0  0  0  0  0  0  0  0  0  0  0
  187.9350  177.5040  147.6120 C   0  0  0  0  0  0  0  0  0  0  0  0
  188.9700  177.5580  144.9790 C   0  0  0  0  0  0  0  0  0  0  0  0
  189.2730  177.4880  147.4310 C   0  0  0  0  0  3  0  0  0  0  0  0
  187.3920  177.2030  148.9680 C   0  0  0  0  0  1  0  0  0  0  0  0
  186.9660  177.8030  146.4830 C   0  0  2  0  0  3  0  0  0  0  0  0
  187.6050  177.5410  145.1500 C   0  0  0  0  0  0  0  0  0  0  0  0
  186.5140  179.2520  146.5620 C   0  0  0  0  0  1  0  0  0  0  0  0
  189.9310  177.7910  146.1020 C   0  0  0  0  0  2  0  0  0  0  0  0
  190.5100  177.5960  142.9560 C   0  0  0  0  0  0  0  0  0  0  0  0
  191.2460  177.5710  141.8150 O   0  0  0  0  0  0  0  0  0  0  0  0
  191.8310  177.7350  143.0260 N   0  0  0  0  0  0  0  0  0  0  0  0
  184.9690  178.7590  143.2280 C   0  0  0  0  0  0  0  0  0  0  0  0
  185.6090  177.5660  143.6970 N   0  0  0  0  0  2  0  0  0  0  0  0
  185.5730  179.8650  143.2820 O   0  0  0  0  0  0  0  0  0  0  0  0
  183.3090  178.3330  141.4100 C   0  0  0  0  0  3  0  0  0  0  0  0
  181.2360  178.9530  143.0840 N   0  0  0  0  0  0  0  0  0  0  0  0
  180.9920  178.5920  141.7970 C   0  0  0  0  0  3  0  0  0  0  0  0
  183.5860  178.7020  142.7290 C   0  0  0  0  0  0  0  0  0  0  0  0
  182.5060  179.0130  143.5620 C   0  0  0  0  0  3  0  0  0  0  0  0
  182.0250  178.2840  140.9690 N   0  0  0  0  0  0  0  0  0  0  0  0
  187.7800  178.6270  140.8190 C   0  0  0  0  0  1  0  0  0  0  0  0
  187.7800  177.4580  141.6230 O   0  0  0  0  0  0  0  0  0  0  0  0
  1  5  1  0  0  0  0
  2  1  2  0  0  0  0
  2  3  1  0  0  0  0
  3  9  1  0  0  0  0
  4  7  1  0  0  0  0
  5  9  2  0  0  0  0
  5 11  1  0  0  0  0
  6  4  2  0  0  0  0
  8 10  1  6  0  0  0
  8  4  1  0  0  0  0
  9  8  1  0  0  0  0
 11  6  1  0  0  0  0
 12 14  2  0  0  0  0
 12  1  1  0  0  0  0
 13 12  1  0  0  0  0
 13 14  1  0  0  0  0
 15 17  2  0  0  0  0
 15 16  1  0  0  0  0
 16  3  1  0  0  0  0
 18 21  1  0  0  0  0
 19 22  1  0  0  0  0
 20 19  2  0  0  0  0
 21 15  1  0  0  0  0
 21 22  2  0  0  0  0
 23 18  2  0  0  0  0
 23 20  1  0  0  0  0
 24 25  1  0  0  0  0
 25  2  1  0  0  0  0
M  END
>  <MODEL>
8

>  <REMARK>
 VINA RESULT:      -7.1      2.784      5.632
  Name = 
  4 active torsions:
  status: ('A' for Active; 'I' for Inactive)
    1  A    between atoms: C_2  and  C_3
    2  A    between atoms: C_4  and  O_25
    3  A    between atoms: N_6  and  N_15
    4  A    between atoms: C_9  and  C_12
                            x       y       z     vdW  Elec       q    Type
                         _______ _______ _______ _____ _____    ______ ____

>  <TORSDO>
F 4

$$$$
=
 OpenBabel11062413533D

 25 28  0  0  1  0  0  0  0  0999 V2000
  184.2890  178.6420  143.2990 C   0  0  0  0  0  0  0  0  0  0  0  0
  184.8000  178.5610  142.0160 C   0  0  0  0  0  0  0  0  0  0  0  0
  186.1190  178.2550  142.0600 N   0  0  0  0  0  0  0  0  0  0  0  0
  187.8130  177.8380  145.4200 C   0  0  0  0  0  0  0  0  0  0  0  0
  185.3390  178.3630  144.1510 C   0  0  0  0  0  0  0  0  0  0  0  0
  186.7310  178.1170  146.1770 C   0  0  0  0  0  3  0  0  0  0  0  0
  189.1570  177.8300  146.0640 C   0  0  0  0  0  1  0  0  0  0  0  0
  187.7090  177.5440  143.9330 C   0  0  2  0  0  3  0  0  0  0  0  0
  186.4400  178.1120  143.3660 C   0  0  0  0  0  0  0  0  0  0  0  0
  187.7500  176.0430  143.7010 C   0  0  0  0  0  1  0  0  0  0  0  0
  185.3200  178.1380  145.6300 C   0  0  0  0  0  2  0  0  0  0  0  0
  182.9000  178.9020  143.6740 C   0  0  0  0  0  0  0  0  0  0  0  0
  181.8750  178.7500  144.5520 O   0  0  0  0  0  0  0  0  0  0  0  0
  181.7210  179.4590  143.4070 N   0  0  0  0  0  0  0  0  0  0  0  0
  188.2780  178.4180  140.8010 C   0  0  0  0  0  0  0  0  0  0  0  0
  186.9320  177.9520  140.9530 N   0  0  0  0  0  2  0  0  0  0  0  0
  188.7070  179.3580  141.5260 O   0  0  0  0  0  0  0  0  0  0  0  0
  189.0560  178.2440  138.4330 C   0  0  0  0  0  3  0  0  0  0  0  0
  190.8840  176.3280  139.1190 N   0  0  0  0  0  0  0  0  0  0  0  0
  190.7770  176.7420  137.8290 C   0  0  0  0  0  3  0  0  0  0  0  0
  189.1460  177.8340  139.7660 C   0  0  0  0  0  0  0  0  0  0  0  0
  190.0900  176.8540  140.0870 C   0  0  0  0  0  3  0  0  0  0  0  0
  189.8680  177.6940  137.4930 N   0  0  0  0  0  0  0  0  0  0  0  0
  183.4450  177.6910  140.1270 C   0  0  0  0  0  1  0  0  0  0  0  0
  184.0380  178.7520  140.8570 O   0  0  0  0  0  0  0  0  0  0  0  0
  1 12  1  0  0  0  0
  1  5  1  0  0  0  0
  2  3  1  0  0  0  0
  2  1  2  0  0  0  0
  3  9  1  0  0  0  0
  4  7  1  0  0  0  0
  4  6  2  0  0  0  0
  5 11  1  0  0  0  0
  8 10  1  1  0  0  0
  8  4  1  0  0  0  0
  9  8  1  0  0  0  0
  9  5  2  0  0  0  0
 11  6  1  0  0  0  0
 12 13  1  0  0  0  0
 14 12  2  0  0  0  0
 14 13  1  0  0  0  0
 15 16  1  0  0  0  0
 15 17  2  0  0  0  0
 16  3  1  0  0  0  0
 18 21  1  0  0  0  0
 19 22  1  0  0  0  0
 20 19  2  0  0  0  0
 21 22  2  0  0  0  0
 21 15  1  0  0  0  0
 23 20  1  0  0  0  0
 23 18  2  0  0  0  0
 24 25  1  0  0  0  0
 25  2  1  0  0  0  0
M  END
>  <MODEL>
9

>  <REMARK>
 VINA RESULT:      -7.0      2.572      4.390
  Name = 
  4 active torsions:
  status: ('A' for Active; 'I' for Inactive)
    1  A    between atoms: C_2  and  C_3
    2  A    between atoms: C_4  and  O_25
    3  A    between atoms: N_6  and  N_15
    4  A    between atoms: C_9  and  C_12
                            x       y       z     vdW  Elec       q    Type
                         _______ _______ _______ _____ _____    ______ ____

>  <TORSDO>
F 4

$$$$
