=
 OpenBabel11062414383D

 38 43  0  0  1  0  0  0  0  0999 V2000
  184.3180  172.6190  137.3840 C   0  0  0  0  0  3  0  0  0  0  0  0
  179.4870  176.2930  138.2920 C   0  0  0  0  0  2  0  0  0  0  0  0
  183.5940  170.5370  134.5950 O   0  0  0  0  0  0  0  0  0  0  0  0
  182.9690  176.2400  134.8580 C   0  0  0  0  0  3  0  0  0  0  0  0
  183.0760  177.0430  138.7780 C   0  0  0  0  0  0  0  0  0  0  0  0
  180.4560  180.9110  138.2550 C   0  0  0  0  0  0  0  0  0  0  0  0
  183.6100  171.5600  135.3260 C   0  0  0  0  0  0  0  0  0  0  0  0
  182.3170  175.0470  135.1910 C   0  0  0  0  0  0  0  0  0  0  0  0
  183.5200  178.3380  139.0520 C   0  0  0  0  0  3  0  0  0  0  0  0
  183.1120  173.8790  135.5510 C   0  0  0  0  0  0  0  0  0  0  0  0
  182.3720  177.4670  135.1550 C   0  0  0  0  0  3  0  0  0  0  0  0
  183.8890  176.1590  138.0230 C   0  0  0  0  0  0  0  0  0  0  0  0
  180.4220  179.6390  138.8300 C   0  0  0  0  0  3  0  0  0  0  0  0
  185.5470  177.9550  137.8020 C   0  0  0  0  0  0  0  0  0  0  0  0
  179.1550  176.2750  136.7960 C   0  0  0  0  0  2  0  0  0  0  0  0
  184.7330  178.7930  138.5580 C   0  0  0  0  0  3  0  0  0  0  0  0
  180.4090  176.2990  135.9810 C   0  0  0  0  0  0  0  0  0  0  0  0
  180.6050  178.5170  138.0180 C   0  0  0  0  0  0  0  0  0  0  0  0
  183.4340  174.8420  137.7860 O   0  0  0  0  0  0  0  0  0  0  0  0
  180.6820  181.0520  136.9200 N   0  0  0  0  0  0  0  0  0  0  0  0
  180.8710  179.9800  136.1060 C   0  0  0  0  0  3  0  0  0  0  0  0
  181.0280  175.0850  135.7160 C   0  0  0  0  0  3  0  0  0  0  0  0
  180.8170  178.6840  136.6320 C   0  0  0  0  0  0  0  0  0  0  0  0
  181.1290  177.5040  135.7990 C   0  0  0  0  0  0  0  0  0  0  0  0
  180.6010  177.1940  138.5890 N   0  0  0  0  0  0  0  0  0  0  0  0
  184.1910  171.4980  136.6730 C   0  0  0  0  0  3  0  0  0  0  0  0
  185.1520  176.6170  137.5490 C   0  0  0  0  0  0  0  0  0  0  0  0
  183.9850  173.9630  136.7940 C   0  0  1  0  0  3  0  0  0  0  0  0
  182.9880  172.7710  134.8820 N   0  0  0  0  0  0  0  0  0  0  0  0
  180.2670  182.0610  139.0680 N   0  0  0  0  0  1  0  0  0  0  0  0
  181.7380  176.6420  139.3400 C   0  0  0  0  0  2  0  0  0  0  0  0
  186.7510  178.5270  137.2580 C   0  0  0  0  0  0  0  0  0  0  0  0
  187.7170  178.9900  136.8190 N   0  0  0  0  0  0  0  0  0  0  0  0
  185.9750  175.7290  136.8350 O   0  0  0  0  0  0  0  0  0  0  0  0
  187.2140  175.2100  137.3080 C   0  0  0  0  0  2  0  0  0  0  0  0
  188.3060  175.3970  136.2620 C   0  0  0  0  0  2  0  0  0  0  0  0
  190.0210  174.4230  137.6110 O   0  0  0  0  0  1  0  0  0  0  0  0
  189.6640  175.5810  136.9200 C   0  0  0  0  0  2  0  0  0  0  0  0
  2 25  1  0  0  0  0
  3  7  2  0  0  0  0
  4 11  2  0  0  0  0
  4  8  1  0  0  0  0
  5  9  1  0  0  0  0
  5 31  1  0  0  0  0
  6 13  1  0  0  0  0
  6 30  1  0  0  0  0
  7 26  1  0  0  0  0
  8 10  1  0  0  0  0
  8 22  2  0  0  0  0
 10 28  1  0  0  0  0
 11 24  1  0  0  0  0
 12  5  2  0  0  0  0
 14 16  1  0  0  0  0
 15  2  1  0  0  0  0
 16  9  2  0  0  0  0
 17 15  1  0  0  0  0
 18 25  1  0  0  0  0
 18 13  2  0  0  0  0
 19 12  1  0  0  0  0
 20  6  2  0  0  0  0
 21 23  2  0  0  0  0
 21 20  1  0  0  0  0
 22 17  1  0  0  0  0
 23 18  1  0  0  0  0
 24 17  2  0  0  0  0
 24 23  1  0  0  0  0
 25 31  1  0  0  0  0
 26  1  2  0  0  0  0
 27 14  2  0  0  0  0
 27 12  1  0  0  0  0
 28  1  1  1  0  0  0
 28 19  1  0  0  0  0
 29  7  1  0  0  0  0
 29 10  2  0  0  0  0
 32 14  1  0  0  0  0
 33 32  3  0  0  0  0
 34 35  1  0  0  0  0
 34 27  1  0  0  0  0
 36 38  1  0  0  0  0
 36 35  1  0  0  0  0
 38 37  1  0  0  0  0
M  END
>  <MODEL>
1

>  <REMARK>
 VINA RESULT:      -5.1      0.000      0.000
  Name = 
  5 active torsions:
  status: ('A' for Active; 'I' for Inactive)
    1  A    between atoms: C_7  and  C_20
    2  A    between atoms: C_12  and  C_18
    3  A    between atoms: C_13  and  C_20
    4  A    between atoms: C_13  and  O_23
    5  A    between atoms: O_23  and  C_33
                            x       y       z     vdW  Elec       q    Type
                         _______ _______ _______ _____ _____    ______ ____

>  <TORSDO>
F 5

$$$$
=
 OpenBabel11062414383D

 38 43  0  0  1  0  0  0  0  0999 V2000
  181.7360  180.9560  138.4660 C   0  0  0  0  0  3  0  0  0  0  0  0
  181.3250  175.7790  135.1970 C   0  0  0  0  0  2  0  0  0  0  0  0
  178.9580  181.0700  140.6810 O   0  0  0  0  0  0  0  0  0  0  0  0
  182.5030  176.6250  139.8670 C   0  0  0  0  0  3  0  0  0  0  0  0
  184.3630  177.4900  136.4300 C   0  0  0  0  0  0  0  0  0  0  0  0
  185.0920  172.9500  135.4560 C   0  0  0  0  0  0  0  0  0  0  0  0
  179.8950  180.5890  139.9940 C   0  0  0  0  0  0  0  0  0  0  0  0
  181.3670  177.2370  139.3260 C   0  0  0  0  0  0  0  0  0  0  0  0
  185.6230  176.8990  136.3340 C   0  0  0  0  0  3  0  0  0  0  0  0
  181.2130  178.6820  139.4440 C   0  0  0  0  0  0  0  0  0  0  0  0
  183.0370  175.4850  139.2620 C   0  0  0  0  0  3  0  0  0  0  0  0
  184.0610  178.3420  137.5230 C   0  0  0  0  0  0  0  0  0  0  0  0
  184.3880  174.0650  134.9980 C   0  0  0  0  0  3  0  0  0  0  0  0
  186.3080  177.9140  138.4110 C   0  0  0  0  0  0  0  0  0  0  0  0
  180.6190  175.0680  136.3560 C   0  0  0  0  0  2  0  0  0  0  0  0
  186.5790  177.0960  137.3200 C   0  0  0  0  0  3  0  0  0  0  0  0
  181.2070  175.4910  137.6650 C   0  0  0  0  0  0  0  0  0  0  0  0
  183.4890  174.7040  135.8550 C   0  0  0  0  0  0  0  0  0  0  0  0
  182.7900  178.9570  137.5820 O   0  0  0  0  0  0  0  0  0  0  0  0
  184.9150  172.5040  136.7300 N   0  0  0  0  0  0  0  0  0  0  0  0
  184.0530  173.1110  137.5890 C   0  0  0  0  0  3  0  0  0  0  0  0
  180.7070  176.6460  138.2520 C   0  0  0  0  0  3  0  0  0  0  0  0
  183.3030  174.2130  137.1660 C   0  0  0  0  0  0  0  0  0  0  0  0
  182.4430  174.9630  138.1060 C   0  0  0  0  0  0  0  0  0  0  0  0
  182.7680  175.8730  135.4180 N   0  0  0  0  0  0  0  0  0  0  0  0
  180.6650  181.4510  139.0870 C   0  0  0  0  0  3  0  0  0  0  0  0
  185.0570  178.5740  138.5150 C   0  0  0  0  0  0  0  0  0  0  0  0
  182.2420  179.5690  138.7590 C   0  0  1  0  0  3  0  0  0  0  0  0
  180.1660  179.1830  140.0290 N   0  0  0  0  0  0  0  0  0  0  0  0
  186.0070  172.2870  134.5940 N   0  0  0  0  0  1  0  0  0  0  0  0
  183.3830  177.2050  135.3230 C   0  0  0  0  0  2  0  0  0  0  0  0
  187.3210  178.0040  139.4310 C   0  0  0  0  0  0  0  0  0  0  0  0
  188.1340  178.0710  140.2520 N   0  0  0  0  0  0  0  0  0  0  0  0
  184.7720  179.4490  139.5760 O   0  0  0  0  0  0  0  0  0  0  0  0
  185.2190  179.2750  140.9170 C   0  0  0  0  0  2  0  0  0  0  0  0
  184.0950  178.7320  141.7900 C   0  0  0  0  0  2  0  0  0  0  0  0
  184.0620  179.6870  143.9800 O   0  0  0  0  0  1  0  0  0  0  0  0
  184.5410  178.6070  143.2370 C   0  0  0  0  0  2  0  0  0  0  0  0
  1 26  2  0  0  0  0
  2 25  1  0  0  0  0
  2 15  1  0  0  0  0
  5 12  1  0  0  0  0
  6 20  1  0  0  0  0
  7 29  1  0  0  0  0
  7  3  2  0  0  0  0
  8 10  1  0  0  0  0
  8  4  1  0  0  0  0
  9  5  2  0  0  0  0
  9 16  1  0  0  0  0
 10 29  2  0  0  0  0
 11  4  2  0  0  0  0
 12 19  1  0  0  0  0
 12 27  2  0  0  0  0
 13  6  2  0  0  0  0
 13 18  1  0  0  0  0
 14 27  1  0  0  0  0
 14 32  1  0  0  0  0
 15 17  1  0  0  0  0
 16 14  2  0  0  0  0
 17 24  2  0  0  0  0
 17 22  1  0  0  0  0
 18 23  2  0  0  0  0
 19 28  1  0  0  0  0
 20 21  2  0  0  0  0
 22  8  2  0  0  0  0
 23 21  1  0  0  0  0
 23 24  1  0  0  0  0
 24 11  1  0  0  0  0
 25 18  1  0  0  0  0
 26  7  1  0  0  0  0
 27 34  1  0  0  0  0
 28  1  1  6  0  0  0
 28 10  1  0  0  0  0
 30  6  1  0  0  0  0
 31 25  1  0  0  0  0
 31  5  1  0  0  0  0
 32 33  3  0  0  0  0
 34 35  1  0  0  0  0
 35 36  1  0  0  0  0
 36 38  1  0  0  0  0
 38 37  1  0  0  0  0
M  END
>  <MODEL>
2

>  <REMARK>
 VINA RESULT:      -4.9      2.827      6.616
  Name = 
  5 active torsions:
  status: ('A' for Active; 'I' for Inactive)
    1  A    between atoms: C_7  and  C_20
    2  A    between atoms: C_12  and  C_18
    3  A    between atoms: C_13  and  C_20
    4  A    between atoms: C_13  and  O_23
    5  A    between atoms: O_23  and  C_33
                            x       y       z     vdW  Elec       q    Type
                         _______ _______ _______ _____ _____    ______ ____

>  <TORSDO>
F 5

$$$$
=
 OpenBabel11062414383D

 38 43  0  0  1  0  0  0  0  0999 V2000
  182.4400  181.1530  138.7100 C   0  0  0  0  0  3  0  0  0  0  0  0
  184.3170  176.9310  134.6720 C   0  0  0  0  0  2  0  0  0  0  0  0
  178.9330  180.7640  139.1430 O   0  0  0  0  0  0  0  0  0  0  0  0
  182.8860  176.6020  139.3360 C   0  0  0  0  0  3  0  0  0  0  0  0
  186.1080  178.2490  137.6260 C   0  0  0  0  0  0  0  0  0  0  0  0
  187.7380  174.0720  136.2180 C   0  0  0  0  0  0  0  0  0  0  0  0
  180.1370  180.4510  138.9510 C   0  0  0  0  0  0  0  0  0  0  0  0
  182.1140  177.3420  138.4340 C   0  0  0  0  0  0  0  0  0  0  0  0
  187.3040  177.6810  138.0680 C   0  0  0  0  0  3  0  0  0  0  0  0
  181.7590  178.7170  138.7630 C   0  0  0  0  0  0  0  0  0  0  0  0
  183.7760  175.6350  138.8640 C   0  0  0  0  0  3  0  0  0  0  0  0
  185.2030  178.8140  138.5610 C   0  0  0  0  0  0  0  0  0  0  0  0
  187.2370  175.2740  135.7150 C   0  0  0  0  0  3  0  0  0  0  0  0
  186.7320  178.1530  140.3630 C   0  0  0  0  0  0  0  0  0  0  0  0
  183.2100  175.9690  135.1170 C   0  0  0  0  0  2  0  0  0  0  0  0
  187.6060  177.6200  139.4210 C   0  0  0  0  0  3  0  0  0  0  0  0
  183.0090  176.0540  136.5970 C   0  0  0  0  0  0  0  0  0  0  0  0
  185.9640  175.6990  136.1010 C   0  0  0  0  0  0  0  0  0  0  0  0
  184.0140  179.4140  138.0890 O   0  0  0  0  0  0  0  0  0  0  0  0
  186.9960  173.3320  137.0870 N   0  0  0  0  0  0  0  0  0  0  0  0
  185.7570  173.7240  137.4880 C   0  0  0  0  0  3  0  0  0  0  0  0
  182.1540  177.0380  137.0750 C   0  0  0  0  0  3  0  0  0  0  0  0
  185.2020  174.9070  136.9880 C   0  0  0  0  0  0  0  0  0  0  0  0
  183.9070  175.4180  137.4860 C   0  0  0  0  0  0  0  0  0  0  0  0
  185.4320  176.9480  135.6180 N   0  0  0  0  0  0  0  0  0  0  0  0
  181.1530  181.4970  138.7800 C   0  0  0  0  0  3  0  0  0  0  0  0
  185.5330  178.7850  139.9470 C   0  0  0  0  0  0  0  0  0  0  0  0
  182.8840  179.7300  138.9150 C   0  0  1  0  0  3  0  0  0  0  0  0
  180.5100  179.0760  138.8180 N   0  0  0  0  0  0  0  0  0  0  0  0
  189.0300  173.6250  135.8300 N   0  0  0  0  0  1  0  0  0  0  0  0
  185.8560  178.2550  136.1420 C   0  0  0  0  0  2  0  0  0  0  0  0
  187.0780  177.9780  141.7500 C   0  0  0  0  0  0  0  0  0  0  0  0
  187.3510  177.8380  142.8660 N   0  0  0  0  0  0  0  0  0  0  0  0
  184.6560  179.3800  140.8700 O   0  0  0  0  0  0  0  0  0  0  0  0
  184.0580  178.7090  141.9740 C   0  0  0  0  0  2  0  0  0  0  0  0
  184.2610  179.5030  143.2570 C   0  0  0  0  0  2  0  0  0  0  0  0
  183.6480  179.0670  145.5260 O   0  0  0  0  0  1  0  0  0  0  0  0
  183.1320  179.2450  144.2420 C   0  0  0  0  0  2  0  0  0  0  0  0
  1 26  2  0  0  0  0
  2 15  1  0  0  0  0
  2 25  1  0  0  0  0
  5  9  2  0  0  0  0
  5 12  1  0  0  0  0
  6 20  1  0  0  0  0
  7  3  2  0  0  0  0
  8 10  1  0  0  0  0
  8  4  2  0  0  0  0
  9 16  1  0  0  0  0
 10 29  2  0  0  0  0
 10 28  1  0  0  0  0
 11  4  1  0  0  0  0
 12 27  2  0  0  0  0
 13 18  1  0  0  0  0
 13  6  2  0  0  0  0
 14 32  1  0  0  0  0
 15 17  1  0  0  0  0
 16 14  2  0  0  0  0
 17 22  2  0  0  0  0
 17 24  1  0  0  0  0
 18 23  2  0  0  0  0
 19 12  1  0  0  0  0
 19 28  1  0  0  0  0
 20 21  2  0  0  0  0
 22  8  1  0  0  0  0
 23 24  1  0  0  0  0
 23 21  1  0  0  0  0
 24 11  2  0  0  0  0
 25 18  1  0  0  0  0
 25 31  1  0  0  0  0
 26  7  1  0  0  0  0
 27 14  1  0  0  0  0
 27 34  1  0  0  0  0
 28  1  1  6  0  0  0
 29  7  1  0  0  0  0
 30  6  1  0  0  0  0
 31  5  1  0  0  0  0
 32 33  3  0  0  0  0
 34 35  1  0  0  0  0
 35 36  1  0  0  0  0
 36 38  1  0  0  0  0
 38 37  1  0  0  0  0
M  END
>  <MODEL>
3

>  <REMARK>
 VINA RESULT:      -4.4      3.320      7.062
  Name = 
  5 active torsions:
  status: ('A' for Active; 'I' for Inactive)
    1  A    between atoms: C_7  and  C_20
    2  A    between atoms: C_12  and  C_18
    3  A    between atoms: C_13  and  C_20
    4  A    between atoms: C_13  and  O_23
    5  A    between atoms: O_23  and  C_33
                            x       y       z     vdW  Elec       q    Type
                         _______ _______ _______ _____ _____    ______ ____

>  <TORSDO>
F 5

$$$$
=
 OpenBabel11062414383D

 38 43  0  0  1  0  0  0  0  0999 V2000
  185.8240  177.3490  142.9620 C   0  0  0  0  0  3  0  0  0  0  0  0
  184.2880  175.2500  137.4040 C   0  0  0  0  0  2  0  0  0  0  0  0
  188.9960  178.9310  142.6910 O   0  0  0  0  0  0  0  0  0  0  0  0
  184.4550  179.7650  139.2740 C   0  0  0  0  0  3  0  0  0  0  0  0
  182.0850  176.6300  140.0350 C   0  0  0  0  0  0  0  0  0  0  0  0
  180.1500  176.8070  135.7550 C   0  0  0  0  0  0  0  0  0  0  0  0
  187.8400  178.5500  142.3710 C   0  0  0  0  0  0  0  0  0  0  0  0
  185.5400  178.9040  139.4680 C   0  0  0  0  0  0  0  0  0  0  0  0
  180.7380  176.9000  139.7910 C   0  0  0  0  0  3  0  0  0  0  0  0
  186.0370  178.6780  140.8190 C   0  0  0  0  0  0  0  0  0  0  0  0
  183.5530  179.5290  138.2340 C   0  0  0  0  0  3  0  0  0  0  0  0
  182.8180  177.4390  140.9410 C   0  0  0  0  0  0  0  0  0  0  0  0
  180.9590  175.9970  136.5540 C   0  0  0  0  0  3  0  0  0  0  0  0
  180.8040  178.8010  141.2730 C   0  0  0  0  0  0  0  0  0  0  0  0
  185.0680  176.3830  136.7270 C   0  0  0  0  0  2  0  0  0  0  0  0
  180.1090  177.9800  140.3910 C   0  0  0  0  0  3  0  0  0  0  0  0
  184.9120  177.6560  137.4970 C   0  0  0  0  0  0  0  0  0  0  0  0
  182.1530  176.5140  137.0620 C   0  0  0  0  0  0  0  0  0  0  0  0
  184.1720  177.1270  141.1990 O   0  0  0  0  0  0  0  0  0  0  0  0
  180.5160  178.0910  135.4890 N   0  0  0  0  0  0  0  0  0  0  0  0
  181.6680  178.6240  135.9770 C   0  0  0  0  0  3  0  0  0  0  0  0
  185.7810  177.8780  138.5570 C   0  0  0  0  0  3  0  0  0  0  0  0
  182.5260  177.8420  136.7580 C   0  0  0  0  0  0  0  0  0  0  0  0
  183.7270  178.4220  137.3940 C   0  0  0  0  0  0  0  0  0  0  0  0
  182.9950  175.7100  137.9110 N   0  0  0  0  0  0  0  0  0  0  0  0
  187.0930  177.6390  143.2480 C   0  0  0  0  0  3  0  0  0  0  0  0
  182.1590  178.5260  141.5850 C   0  0  0  0  0  0  0  0  0  0  0  0
  185.1030  178.0220  141.8250 C   0  0  1  0  0  3  0  0  0  0  0  0
  187.2770  178.9360  141.1130 N   0  0  0  0  0  0  0  0  0  0  0  0
  178.9340  176.2930  135.2280 N   0  0  0  0  0  1  0  0  0  0  0  0
  182.6890  175.4470  139.3250 C   0  0  0  0  0  2  0  0  0  0  0  0
  180.1040  179.9480  141.7910 C   0  0  0  0  0  0  0  0  0  0  0  0
  179.5460  180.8720  142.2080 N   0  0  0  0  0  0  0  0  0  0  0  0
  182.8730  179.3020  142.5130 O   0  0  0  0  0  0  0  0  0  0  0  0
  182.6860  179.2610  143.9250 C   0  0  0  0  0  2  0  0  0  0  0  0
  183.9810  179.6100  144.6470 C   0  0  0  0  0  2  0  0  0  0  0  0
  185.1770  179.1770  146.6700 O   0  0  0  0  0  1  0  0  0  0  0  0
  184.2550  178.6310  145.7770 C   0  0  0  0  0  2  0  0  0  0  0  0
  1 26  2  0  0  0  0
  2 25  1  0  0  0  0
  4  8  1  0  0  0  0
  5 12  1  0  0  0  0
  6 13  1  0  0  0  0
  7  3  2  0  0  0  0
  7 26  1  0  0  0  0
  8 10  1  0  0  0  0
  9  5  2  0  0  0  0
  9 16  1  0  0  0  0
 10 29  2  0  0  0  0
 10 28  1  0  0  0  0
 11  4  2  0  0  0  0
 12 19  1  0  0  0  0
 12 27  2  0  0  0  0
 13 18  2  0  0  0  0
 14 27  1  0  0  0  0
 14 32  1  0  0  0  0
 15  2  1  0  0  0  0
 15 17  1  0  0  0  0
 16 14  2  0  0  0  0
 17 22  1  0  0  0  0
 18 25  1  0  0  0  0
 19 28  1  0  0  0  0
 20  6  2  0  0  0  0
 20 21  1  0  0  0  0
 21 23  2  0  0  0  0
 22  8  2  0  0  0  0
 23 18  1  0  0  0  0
 23 24  1  0  0  0  0
 24 17  2  0  0  0  0
 24 11  1  0  0  0  0
 25 31  1  0  0  0  0
 27 34  1  0  0  0  0
 28  1  1  1  0  0  0
 29  7  1  0  0  0  0
 30  6  1  0  0  0  0
 31  5  1  0  0  0  0
 32 33  3  0  0  0  0
 34 35  1  0  0  0  0
 35 36  1  0  0  0  0
 36 38  1  0  0  0  0
 38 37  1  0  0  0  0
M  END
>  <MODEL>
4

>  <REMARK>
 VINA RESULT:      -4.1      3.719      6.808
  Name = 
  5 active torsions:
  status: ('A' for Active; 'I' for Inactive)
    1  A    between atoms: C_7  and  C_20
    2  A    between atoms: C_12  and  C_18
    3  A    between atoms: C_13  and  C_20
    4  A    between atoms: C_13  and  O_23
    5  A    between atoms: O_23  and  C_33
                            x       y       z     vdW  Elec       q    Type
                         _______ _______ _______ _____ _____    ______ ____

>  <TORSDO>
F 5

$$$$
=
 OpenBabel11062414383D

 38 43  0  0  1  0  0  0  0  0999 V2000
  184.1670  180.0560  138.9200 C   0  0  0  0  0  3  0  0  0  0  0  0
  188.4480  178.1480  134.9590 C   0  0  0  0  0  2  0  0  0  0  0  0
  181.0070  178.9500  137.7260 O   0  0  0  0  0  0  0  0  0  0  0  0
  185.7570  175.7710  138.2790 C   0  0  0  0  0  3  0  0  0  0  0  0
  188.6910  178.4710  138.6350 C   0  0  0  0  0  0  0  0  0  0  0  0
  191.8850  175.5230  136.8460 C   0  0  0  0  0  0  0  0  0  0  0  0
  182.2420  178.9440  137.9650 C   0  0  0  0  0  0  0  0  0  0  0  0
  185.1320  176.6670  137.4070 C   0  0  0  0  0  0  0  0  0  0  0  0
  189.7920  177.9820  139.3390 C   0  0  0  0  0  3  0  0  0  0  0  0
  184.2860  177.7210  137.9550 C   0  0  0  0  0  0  0  0  0  0  0  0
  187.0030  175.2320  137.9520 C   0  0  0  0  0  3  0  0  0  0  0  0
  187.4050  178.4620  139.2340 C   0  0  0  0  0  0  0  0  0  0  0  0
  191.2320  176.7250  136.5670 C   0  0  0  0  0  3  0  0  0  0  0  0
  188.3930  177.4060  141.2170 C   0  0  0  0  0  0  0  0  0  0  0  0
  187.6070  176.9190  134.5960 C   0  0  0  0  0  2  0  0  0  0  0  0
  189.6430  177.4430  140.6090 C   0  0  0  0  0  3  0  0  0  0  0  0
  186.9220  176.3780  135.8110 C   0  0  0  0  0  0  0  0  0  0  0  0
  189.8370  176.7450  136.5000 C   0  0  0  0  0  0  0  0  0  0  0  0
  186.3100  178.9920  138.5160 O   0  0  0  0  0  0  0  0  0  0  0  0
  191.1670  174.3880  137.0650 N   0  0  0  0  0  0  0  0  0  0  0  0
  189.8080  174.3790  137.0150 C   0  0  0  0  0  3  0  0  0  0  0  0
  185.7010  176.9360  136.1640 C   0  0  0  0  0  3  0  0  0  0  0  0
  189.1100  175.5520  136.7100 C   0  0  0  0  0  0  0  0  0  0  0  0
  187.6340  175.6020  136.7560 C   0  0  0  0  0  0  0  0  0  0  0  0
  189.1350  177.9760  136.2390 N   0  0  0  0  0  0  0  0  0  0  0  0
  182.8870  180.1250  138.5520 C   0  0  0  0  0  3  0  0  0  0  0  0
  187.2610  177.9420  140.5540 C   0  0  0  0  0  0  0  0  0  0  0  0
  184.9340  178.7630  138.8540 C   0  0  1  0  0  3  0  0  0  0  0  0
  183.0410  177.8160  137.5930 N   0  0  0  0  0  0  0  0  0  0  0  0
  193.3050  175.4890  136.9130 N   0  0  0  0  0  1  0  0  0  0  0  0
  188.9450  179.0200  137.2570 C   0  0  0  0  0  2  0  0  0  0  0  0
  188.3070  176.7580  142.5010 C   0  0  0  0  0  0  0  0  0  0  0  0
  188.2350  176.2410  143.5330 N   0  0  0  0  0  0  0  0  0  0  0  0
  185.9950  177.9700  141.1620 O   0  0  0  0  0  0  0  0  0  0  0  0
  185.7000  178.6130  142.3990 C   0  0  0  0  0  2  0  0  0  0  0  0
  184.1950  178.7090  142.6070 C   0  0  0  0  0  2  0  0  0  0  0  0
  185.0080  179.3510  144.7600 O   0  0  0  0  0  1  0  0  0  0  0  0
  183.8620  178.9580  144.0680 C   0  0  0  0  0  2  0  0  0  0  0  0
  2 25  1  0  0  0  0
  3  7  2  0  0  0  0
  5 12  2  0  0  0  0
  5  9  1  0  0  0  0
  6 30  1  0  0  0  0
  6 20  1  0  0  0  0
  7 26  1  0  0  0  0
  8 10  1  0  0  0  0
  8  4  2  0  0  0  0
  9 16  2  0  0  0  0
 10 28  1  0  0  0  0
 11  4  1  0  0  0  0
 12 27  1  0  0  0  0
 13  6  2  0  0  0  0
 14 32  1  0  0  0  0
 15  2  1  0  0  0  0
 15 17  1  0  0  0  0
 16 14  1  0  0  0  0
 17 22  2  0  0  0  0
 17 24  1  0  0  0  0
 18 13  1  0  0  0  0
 18 23  2  0  0  0  0
 19 28  1  0  0  0  0
 19 12  1  0  0  0  0
 21 20  2  0  0  0  0
 22  8  1  0  0  0  0
 23 24  1  0  0  0  0
 23 21  1  0  0  0  0
 24 11  2  0  0  0  0
 25 18  1  0  0  0  0
 25 31  1  0  0  0  0
 26  1  2  0  0  0  0
 27 34  1  0  0  0  0
 27 14  2  0  0  0  0
 28  1  1  6  0  0  0
 29 10  2  0  0  0  0
 29  7  1  0  0  0  0
 31  5  1  0  0  0  0
 32 33  3  0  0  0  0
 34 35  1  0  0  0  0
 35 36  1  0  0  0  0
 36 38  1  0  0  0  0
 38 37  1  0  0  0  0
M  END
>  <MODEL>
5

>  <REMARK>
 VINA RESULT:      -3.9      3.613      7.966
  Name = 
  5 active torsions:
  status: ('A' for Active; 'I' for Inactive)
    1  A    between atoms: C_7  and  C_20
    2  A    between atoms: C_12  and  C_18
    3  A    between atoms: C_13  and  C_20
    4  A    between atoms: C_13  and  O_23
    5  A    between atoms: O_23  and  C_33
                            x       y       z     vdW  Elec       q    Type
                         _______ _______ _______ _____ _____    ______ ____

>  <TORSDO>
F 5

$$$$
=
 OpenBabel11062414383D

 38 43  0  0  1  0  0  0  0  0999 V2000
  187.8250  177.2740  138.4290 C   0  0  0  0  0  3  0  0  0  0  0  0
  185.1030  172.3330  136.0130 C   0  0  0  0  0  2  0  0  0  0  0  0
  190.0280  178.6100  135.9810 O   0  0  0  0  0  0  0  0  0  0  0  0
  184.5380  177.1200  135.1900 C   0  0  0  0  0  3  0  0  0  0  0  0
  183.6960  174.8220  138.3580 C   0  0  0  0  0  0  0  0  0  0  0  0
  180.3860  172.4550  136.0050 C   0  0  0  0  0  0  0  0  0  0  0  0
  189.0130  178.0490  136.4690 C   0  0  0  0  0  0  0  0  0  0  0  0
  185.8280  176.5800  135.2290 C   0  0  0  0  0  0  0  0  0  0  0  0
  182.3390  174.8310  138.6860 C   0  0  0  0  0  3  0  0  0  0  0  0
  186.8250  177.1800  136.1060 C   0  0  0  0  0  0  0  0  0  0  0  0
  183.4410  176.2900  134.9550 C   0  0  0  0  0  3  0  0  0  0  0  0
  184.4200  176.0410  138.3030 C   0  0  0  0  0  0  0  0  0  0  0  0
  181.6370  172.2820  136.6010 C   0  0  0  0  0  3  0  0  0  0  0  0
  182.3500  177.2360  138.8580 C   0  0  0  0  0  0  0  0  0  0  0  0
  185.1940  172.9330  134.6060 C   0  0  0  0  0  2  0  0  0  0  0  0
  181.6710  176.0240  138.9190 C   0  0  0  0  0  3  0  0  0  0  0  0
  184.9450  174.4070  134.6500 C   0  0  0  0  0  0  0  0  0  0  0  0
  182.7120  173.0620  136.1700 C   0  0  0  0  0  0  0  0  0  0  0  0
  185.8000  176.0060  138.0030 O   0  0  0  0  0  0  0  0  0  0  0  0
  180.2160  173.3870  135.0280 N   0  0  0  0  0  0  0  0  0  0  0  0
  181.2420  174.1670  134.5940 C   0  0  0  0  0  3  0  0  0  0  0  0
  186.0260  175.2350  134.9230 C   0  0  0  0  0  3  0  0  0  0  0  0
  182.5200  174.0090  135.1390 C   0  0  0  0  0  0  0  0  0  0  0  0
  183.6290  174.9140  134.7710 C   0  0  0  0  0  0  0  0  0  0  0  0
  184.0090  172.9230  136.7840 N   0  0  0  0  0  0  0  0  0  0  0  0
  188.9560  177.7470  137.9050 C   0  0  0  0  0  3  0  0  0  0  0  0
  183.7390  177.2620  138.5800 C   0  0  0  0  0  0  0  0  0  0  0  0
  186.5710  177.1500  137.6060 C   0  0  1  0  0  3  0  0  0  0  0  0
  187.9430  177.6290  135.6160 N   0  0  0  0  0  0  0  0  0  0  0  0
  179.2840  171.6650  136.4310 N   0  0  0  0  0  1  0  0  0  0  0  0
  184.3340  173.4820  138.1040 C   0  0  0  0  0  2  0  0  0  0  0  0
  181.5690  178.4340  139.0310 C   0  0  0  0  0  0  0  0  0  0  0  0
  180.9440  179.3990  139.1670 N   0  0  0  0  0  0  0  0  0  0  0  0
  184.4650  178.4650  138.5660 O   0  0  0  0  0  0  0  0  0  0  0  0
  184.5790  179.3610  139.6670 C   0  0  0  0  0  2  0  0  0  0  0  0
  185.6210  178.8610  140.6590 C   0  0  0  0  0  2  0  0  0  0  0  0
  183.9160  179.0380  142.3230 O   0  0  0  0  0  1  0  0  0  0  0  0
  185.2680  179.2780  142.0760 C   0  0  0  0  0  2  0  0  0  0  0  0
  2 25  1  0  0  0  0
  3  7  2  0  0  0  0
  4  8  1  0  0  0  0
  5  9  1  0  0  0  0
  6 30  1  0  0  0  0
  6 13  1  0  0  0  0
  7 26  1  0  0  0  0
  8 10  1  0  0  0  0
  9 16  2  0  0  0  0
 10 28  1  0  0  0  0
 11  4  2  0  0  0  0
 12  5  2  0  0  0  0
 12 27  1  0  0  0  0
 14 16  1  0  0  0  0
 14 32  1  0  0  0  0
 15 17  1  0  0  0  0
 15  2  1  0  0  0  0
 17 24  2  0  0  0  0
 17 22  1  0  0  0  0
 18 13  2  0  0  0  0
 18 25  1  0  0  0  0
 19 12  1  0  0  0  0
 20  6  2  0  0  0  0
 21 20  1  0  0  0  0
 21 23  2  0  0  0  0
 22  8  2  0  0  0  0
 23 18  1  0  0  0  0
 24 11  1  0  0  0  0
 24 23  1  0  0  0  0
 25 31  1  0  0  0  0
 26  1  2  0  0  0  0
 27 14  2  0  0  0  0
 28 19  1  0  0  0  0
 28  1  1  1  0  0  0
 29 10  2  0  0  0  0
 29  7  1  0  0  0  0
 31  5  1  0  0  0  0
 32 33  3  0  0  0  0
 34 27  1  0  0  0  0
 34 35  1  0  0  0  0
 35 36  1  0  0  0  0
 36 38  1  0  0  0  0
 38 37  1  0  0  0  0
M  END
>  <MODEL>
6

>  <REMARK>
 VINA RESULT:      -2.8      2.352      6.052
  Name = 
  5 active torsions:
  status: ('A' for Active; 'I' for Inactive)
    1  A    between atoms: C_7  and  C_20
    2  A    between atoms: C_12  and  C_18
    3  A    between atoms: C_13  and  C_20
    4  A    between atoms: C_13  and  O_23
    5  A    between atoms: O_23  and  C_33
                            x       y       z     vdW  Elec       q    Type
                         _______ _______ _______ _____ _____    ______ ____

>  <TORSDO>
F 5

$$$$
=
 OpenBabel11062414383D

 38 43  0  0  1  0  0  0  0  0999 V2000
  188.2490  178.5580  136.6020 C   0  0  0  0  0  3  0  0  0  0  0  0
  193.5970  176.0260  134.9740 C   0  0  0  0  0  2  0  0  0  0  0  0
  185.6900  177.0490  134.6500 O   0  0  0  0  0  0  0  0  0  0  0  0
  189.8180  174.3260  137.5710 C   0  0  0  0  0  3  0  0  0  0  0  0
  192.5190  177.1840  138.3170 C   0  0  0  0  0  0  0  0  0  0  0  0
  196.0410  174.0770  138.5080 C   0  0  0  0  0  0  0  0  0  0  0  0
  186.7570  177.1600  135.3080 C   0  0  0  0  0  0  0  0  0  0  0  0
  189.5770  174.9680  136.3520 C   0  0  0  0  0  0  0  0  0  0  0  0
  193.2790  176.9250  139.4580 C   0  0  0  0  0  3  0  0  0  0  0  0
  188.6270  176.0730  136.3060 C   0  0  0  0  0  0  0  0  0  0  0  0
  191.0800  173.7920  137.8400 C   0  0  0  0  0  3  0  0  0  0  0  0
  191.1050  177.2440  138.4040 C   0  0  0  0  0  0  0  0  0  0  0  0
  195.5720  175.1490  137.7460 C   0  0  0  0  0  3  0  0  0  0  0  0
  191.2820  176.7170  140.7940 C   0  0  0  0  0  0  0  0  0  0  0  0
  192.9010  174.7050  134.6280 C   0  0  0  0  0  2  0  0  0  0  0  0
  192.6680  176.6800  140.6790 C   0  0  0  0  0  3  0  0  0  0  0  0
  191.8080  174.4180  135.6090 C   0  0  0  0  0  0  0  0  0  0  0  0
  194.2950  175.0810  137.1850 C   0  0  0  0  0  0  0  0  0  0  0  0
  190.3570  177.5420  137.2420 O   0  0  0  0  0  0  0  0  0  0  0  0
  195.2540  172.9860  138.7110 N   0  0  0  0  0  0  0  0  0  0  0  0
  194.0040  172.8950  138.1850 C   0  0  0  0  0  3  0  0  0  0  0  0
  190.5610  174.9780  135.3670 C   0  0  0  0  0  3  0  0  0  0  0  0
  193.5010  173.9310  137.3910 C   0  0  0  0  0  0  0  0  0  0  0  0
  192.1080  173.9140  136.8970 C   0  0  0  0  0  0  0  0  0  0  0  0
  193.7740  176.1840  136.4170 N   0  0  0  0  0  0  0  0  0  0  0  0
  187.1890  178.4750  135.7980 C   0  0  0  0  0  3  0  0  0  0  0  0
  190.4810  177.0300  139.6680 C   0  0  0  0  0  0  0  0  0  0  0  0
  188.9450  177.3240  137.1120 C   0  0  1  0  0  3  0  0  0  0  0  0
  187.5980  176.0200  135.5140 N   0  0  0  0  0  0  0  0  0  0  0  0
  197.3410  174.1310  139.0810 N   0  0  0  0  0  1  0  0  0  0  0  0
  193.2680  177.4200  137.0310 C   0  0  0  0  0  2  0  0  0  0  0  0
  190.7210  176.3730  142.0750 C   0  0  0  0  0  0  0  0  0  0  0  0
  190.2730  176.0990  143.1070 N   0  0  0  0  0  0  0  0  0  0  0  0
  189.0830  177.1300  139.7620 O   0  0  0  0  0  0  0  0  0  0  0  0
  188.3710  178.3220  140.0810 C   0  0  0  0  0  2  0  0  0  0  0  0
  187.9000  178.2930  141.5290 C   0  0  0  0  0  2  0  0  0  0  0  0
  185.9840  179.1740  140.4060 O   0  0  0  0  0  1  0  0  0  0  0  0
  186.4360  178.6880  141.6330 C   0  0  0  0  0  2  0  0  0  0  0  0
  2 25  1  0  0  0  0
  3  7  2  0  0  0  0
  4 11  1  0  0  0  0
  5 12  2  0  0  0  0
  5  9  1  0  0  0  0
  6 20  1  0  0  0  0
  6 30  1  0  0  0  0
  7 29  1  0  0  0  0
  7 26  1  0  0  0  0
  8  4  2  0  0  0  0
  9 16  2  0  0  0  0
 10  8  1  0  0  0  0
 10 28  1  0  0  0  0
 12 27  1  0  0  0  0
 13  6  2  0  0  0  0
 14 32  1  0  0  0  0
 15  2  1  0  0  0  0
 15 17  1  0  0  0  0
 16 14  1  0  0  0  0
 17 24  1  0  0  0  0
 18 23  2  0  0  0  0
 18 13  1  0  0  0  0
 19 12  1  0  0  0  0
 21 20  2  0  0  0  0
 22 17  2  0  0  0  0
 22  8  1  0  0  0  0
 23 21  1  0  0  0  0
 24 23  1  0  0  0  0
 24 11  2  0  0  0  0
 25 31  1  0  0  0  0
 25 18  1  0  0  0  0
 26  1  2  0  0  0  0
 27 34  1  0  0  0  0
 27 14  2  0  0  0  0
 28  1  1  6  0  0  0
 28 19  1  0  0  0  0
 29 10  2  0  0  0  0
 31  5  1  0  0  0  0
 32 33  3  0  0  0  0
 34 35  1  0  0  0  0
 35 36  1  0  0  0  0
 36 38  1  0  0  0  0
 37 38  1  0  0  0  0
M  END
>  <MODEL>
7

>  <REMARK>
 VINA RESULT:      -2.3      5.524     10.371
  Name = 
  5 active torsions:
  status: ('A' for Active; 'I' for Inactive)
    1  A    between atoms: C_7  and  C_20
    2  A    between atoms: C_12  and  C_18
    3  A    between atoms: C_13  and  C_20
    4  A    between atoms: C_13  and  O_23
    5  A    between atoms: O_23  and  C_33
                            x       y       z     vdW  Elec       q    Type
                         _______ _______ _______ _____ _____    ______ ____

>  <TORSDO>
F 5

$$$$
=
 OpenBabel11062414383D

 38 43  0  0  1  0  0  0  0  0999 V2000
  180.3850  180.8010  138.1760 C   0  0  0  0  0  3  0  0  0  0  0  0
  178.9650  175.0450  136.5910 C   0  0  0  0  0  2  0  0  0  0  0  0
  178.9310  181.4460  141.3550 O   0  0  0  0  0  0  0  0  0  0  0  0
  182.0740  176.8660  139.8980 C   0  0  0  0  0  3  0  0  0  0  0  0
  182.0720  176.9260  135.8950 C   0  0  0  0  0  0  0  0  0  0  0  0
  182.6590  172.2700  135.6300 C   0  0  0  0  0  0  0  0  0  0  0  0
  179.4870  180.8100  140.4230 C   0  0  0  0  0  0  0  0  0  0  0  0
  180.7690  177.3660  139.8370 C   0  0  0  0  0  0  0  0  0  0  0  0
  183.1940  176.3050  135.3450 C   0  0  0  0  0  3  0  0  0  0  0  0
  180.5640  178.8040  139.7190 C   0  0  0  0  0  0  0  0  0  0  0  0
  182.3660  175.6120  139.3580 C   0  0  0  0  0  3  0  0  0  0  0  0
  182.2330  178.0010  136.8070 C   0  0  0  0  0  0  0  0  0  0  0  0
  181.7310  173.2720  135.3390 C   0  0  0  0  0  3  0  0  0  0  0  0
  184.6640  177.7350  136.6130 C   0  0  0  0  0  0  0  0  0  0  0  0
  178.9310  174.6170  138.0620 C   0  0  0  0  0  2  0  0  0  0  0  0
  184.4740  176.6940  135.7100 C   0  0  0  0  0  3  0  0  0  0  0  0
  180.0150  175.3030  138.8310 C   0  0  0  0  0  0  0  0  0  0  0  0
  181.2730  174.0990  136.3670 C   0  0  0  0  0  0  0  0  0  0  0  0
  181.0830  178.6390  137.3260 O   0  0  0  0  0  0  0  0  0  0  0  0
  183.1230  172.1160  136.9010 N   0  0  0  0  0  0  0  0  0  0  0  0
  182.7020  172.9110  137.9200 C   0  0  0  0  0  3  0  0  0  0  0  0
  179.7430  176.5680  139.3370 C   0  0  0  0  0  3  0  0  0  0  0  0
  181.7510  173.9090  137.6820 C   0  0  0  0  0  0  0  0  0  0  0  0
  181.3560  174.8610  138.7420 C   0  0  0  0  0  0  0  0  0  0  0  0
  180.3350  175.1580  136.0910 N   0  0  0  0  0  0  0  0  0  0  0  0
  179.6790  181.4390  139.1100 C   0  0  0  0  0  3  0  0  0  0  0  0
  183.5490  178.4250  137.1520 C   0  0  0  0  0  0  0  0  0  0  0  0
  181.0850  179.5020  138.4720 C   0  0  1  0  0  3  0  0  0  0  0  0
  179.8620  179.4410  140.6100 N   0  0  0  0  0  0  0  0  0  0  0  0
  183.1300  171.4190  134.5940 N   0  0  0  0  0  1  0  0  0  0  0  0
  180.7230  176.4250  135.4540 C   0  0  0  0  0  2  0  0  0  0  0  0
  186.0200  178.0250  137.0030 C   0  0  0  0  0  0  0  0  0  0  0  0
  187.1080  178.2620  137.3190 N   0  0  0  0  0  0  0  0  0  0  0  0
  183.7080  179.5160  138.0230 O   0  0  0  0  0  0  0  0  0  0  0  0
  184.5790  179.5370  139.1500 C   0  0  0  0  0  2  0  0  0  0  0  0
  184.3250  178.3310  140.0450 C   0  0  0  0  0  2  0  0  0  0  0  0
  186.3970  179.0090  141.0250 O   0  0  0  0  0  1  0  0  0  0  0  0
  185.1730  178.4000  141.3040 C   0  0  0  0  0  2  0  0  0  0  0  0
  1 26  2  0  0  0  0
  2 15  1  0  0  0  0
  5 12  1  0  0  0  0
  6 20  1  0  0  0  0
  7 29  1  0  0  0  0
  7  3  2  0  0  0  0
  8  4  1  0  0  0  0
  9 16  1  0  0  0  0
  9  5  2  0  0  0  0
 10  8  1  0  0  0  0
 10 29  2  0  0  0  0
 11  4  2  0  0  0  0
 12 27  2  0  0  0  0
 12 19  1  0  0  0  0
 13  6  2  0  0  0  0
 13 18  1  0  0  0  0
 14 32  1  0  0  0  0
 14 27  1  0  0  0  0
 15 17  1  0  0  0  0
 16 14  2  0  0  0  0
 17 22  1  0  0  0  0
 18 23  2  0  0  0  0
 19 28  1  0  0  0  0
 20 21  2  0  0  0  0
 22  8  2  0  0  0  0
 23 21  1  0  0  0  0
 23 24  1  0  0  0  0
 24 17  2  0  0  0  0
 24 11  1  0  0  0  0
 25 18  1  0  0  0  0
 25  2  1  0  0  0  0
 26  7  1  0  0  0  0
 27 34  1  0  0  0  0
 28  1  1  6  0  0  0
 28 10  1  0  0  0  0
 30  6  1  0  0  0  0
 31  5  1  0  0  0  0
 31 25  1  0  0  0  0
 32 33  3  0  0  0  0
 34 35  1  0  0  0  0
 35 36  1  0  0  0  0
 36 38  1  0  0  0  0
 37 38  1  0  0  0  0
M  END
>  <MODEL>
8

>  <REMARK>
 VINA RESULT:      -2.1      2.784      6.462
  Name = 
  5 active torsions:
  status: ('A' for Active; 'I' for Inactive)
    1  A    between atoms: C_7  and  C_20
    2  A    between atoms: C_12  and  C_18
    3  A    between atoms: C_13  and  C_20
    4  A    between atoms: C_13  and  O_23
    5  A    between atoms: O_23  and  C_33
                            x       y       z     vdW  Elec       q    Type
                         _______ _______ _______ _____ _____    ______ ____

>  <TORSDO>
F 5

$$$$
