=
 OpenBabel11062416493D

 34 39  0  0  1  0  0  0  0  0999 V2000
  186.8450  177.9140  144.4540 C   0  0  0  0  0  3  0  0  0  0  0  0
  189.5150  178.3840  143.8420 C   0  0  0  0  0  3  0  0  0  0  0  0
  188.5680  177.8950  146.1380 N   0  0  0  0  0  0  0  0  0  0  0  0
  190.3160  178.5400  141.4760 C   0  0  0  0  0  2  0  0  0  0  0  0
  185.6190  178.3840  142.4320 C   0  0  0  0  0  0  0  0  0  0  0  0
  190.4740  178.0370  142.8850 C   0  0  0  0  0  0  0  0  0  0  0  0
  190.4310  176.5250  146.8820 C   0  0  1  0  0  3  0  0  0  0  0  0
  187.1740  178.0390  145.7840 C   0  0  0  0  0  0  0  0  0  0  0  0
  186.9810  178.4500  140.4280 C   0  0  0  0  0  0  0  0  0  0  0  0
  186.8610  178.3560  141.7950 C   0  0  0  0  0  3  0  0  0  0  0  0
  190.6370  177.0450  145.5010 C   0  0  0  0  0  0  0  0  0  0  0  0
  191.4500  176.9940  147.7180 O   0  0  0  0  0  1  0  0  0  0  0  0
  186.1700  178.4510  146.6720 C   0  0  0  0  0  3  0  0  0  0  0  0
  189.6000  177.8580  145.1440 C   0  0  0  0  0  0  0  0  0  0  0  0
  184.8830  178.7560  146.1690 C   0  0  0  0  0  3  0  0  0  0  0  0
  184.4860  178.5530  141.6360 C   0  0  0  0  0  3  0  0  0  0  0  0
  188.3550  178.4480  139.8050 C   0  0  0  0  0  2  0  0  0  0  0  0
  189.3840  177.6500  140.6390 C   0  0  1  0  0  3  0  0  0  0  0  0
  191.6190  176.6790  144.5710 C   0  0  0  0  0  3  0  0  0  0  0  0
  191.5310  177.1790  143.2530 C   0  0  0  0  0  3  0  0  0  0  0  0
  184.6130  178.6950  144.7820 C   0  0  0  0  0  3  0  0  0  0  0  0
  185.6270  178.2730  143.9110 C   0  0  0  0  0  0  0  0  0  0  0  0
  184.6410  178.6630  140.2820 N   0  0  0  0  0  0  0  0  0  0  0  0
  189.0290  177.0960  147.2760 C   0  0  1  0  0  3  0  0  0  0  0  0
  185.8470  178.6170  139.6950 N   0  0  0  0  0  0  0  0  0  0  0  0
  187.8350  177.6420  149.3010 O   0  0  0  0  0  1  0  0  0  0  0  0
  188.9970  177.9110  148.5710 C   0  0  0  0  0  2  0  0  0  0  0  0
  190.1540  176.6770  139.7850 C   0  0  0  0  0  0  0  0  0  0  0  0
  190.7980  175.8100  140.3490 O   0  0  0  0  0  0  0  0  0  0  0  0
  189.5900  174.4390  137.2720 O   0  0  0  0  0  0  0  0  0  0  0  0
  190.1880  175.4750  137.6610 C   0  0  0  0  0  0  0  0  0  0  0  0
  190.2040  176.7250  138.2740 C   0  0  2  0  0  3  0  0  0  0  0  0
  192.8910  176.4970  137.6870 C   0  0  0  0  0  1  0  0  0  0  0  0
  191.4620  176.3070  137.8350 N   0  0  0  0  0  0  0  0  0  0  0  0
  1  8  1  0  0  0  0
  2 14  1  0  0  0  0
  3 24  1  0  0  0  0
  4  6  1  0  0  0  0
  5 22  1  0  0  0  0
  6 20  1  0  0  0  0
  6  2  2  0  0  0  0
  7 24  1  0  0  0  0
  7 12  1  1  0  0  0
  8  3  1  0  0  0  0
  8 13  2  0  0  0  0
  9 10  2  0  0  0  0
 10  5  1  0  0  0  0
 11  7  1  0  0  0  0
 14 11  2  0  0  0  0
 14  3  1  0  0  0  0
 15 13  1  0  0  0  0
 16  5  2  0  0  0  0
 17  9  1  0  0  0  0
 17 18  1  0  0  0  0
 18 28  1  6  0  0  0
 18  4  1  0  0  0  0
 19 11  1  0  0  0  0
 20 19  2  0  0  0  0
 21 15  2  0  0  0  0
 22  1  2  0  0  0  0
 22 21  1  0  0  0  0
 23 16  1  0  0  0  0
 24 27  1  1  0  0  0
 25 23  2  0  0  0  0
 25  9  1  0  0  0  0
 27 26  1  0  0  0  0
 28 29  2  0  0  0  0
 30 31  2  0  0  0  0
 31 34  1  0  0  0  0
 31 32  1  0  0  0  0
 32 28  1  1  0  0  0
 33 34  1  0  0  0  0
 34 32  1  0  0  0  0
M  END
>  <MODEL>
1

>  <REMARK>
 VINA RESULT:     -10.9      0.000      0.000
  Name = 
  3 active torsions:
  status: ('A' for Active; 'I' for Inactive)
    1  A    between atoms: C_9  and  C_13
    2  A    between atoms: C_13  and  C_24
    3  A    between atoms: C_22  and  C_33
                            x       y       z     vdW  Elec       q    Type
                         _______ _______ _______ _____ _____    ______ ____

>  <TORSDO>
F 3

$$$$
=
 OpenBabel11062416493D

 34 39  0  0  1  0  0  0  0  0999 V2000
  188.0960  178.1400  142.4250 C   0  0  0  0  0  3  0  0  0  0  0  0
  185.3580  177.6790  142.5380 C   0  0  0  0  0  3  0  0  0  0  0  0
  186.9270  177.8700  144.5150 N   0  0  0  0  0  0  0  0  0  0  0  0
  183.9110  177.8320  140.5010 C   0  0  0  0  0  2  0  0  0  0  0  0
  188.6860  177.9960  140.0920 C   0  0  0  0  0  0  0  0  0  0  0  0
  184.1680  178.1270  141.9530 C   0  0  0  0  0  0  0  0  0  0  0  0
  185.3700  179.0640  145.9470 C   0  0  1  0  0  3  0  0  0  0  0  0
  188.1600  177.8200  143.7610 C   0  0  0  0  0  0  0  0  0  0  0  0
  186.8070  178.1700  138.5710 C   0  0  0  0  0  0  0  0  0  0  0  0
  187.3140  178.0750  139.8460 C   0  0  0  0  0  3  0  0  0  0  0  0
  184.7710  178.7370  144.6210 C   0  0  0  0  0  0  0  0  0  0  0  0
  184.6270  178.4510  146.9620 O   0  0  0  0  0  1  0  0  0  0  0  0
  189.3720  177.3180  144.2580 C   0  0  0  0  0  3  0  0  0  0  0  0
  185.6540  178.0140  143.8720 C   0  0  0  0  0  0  0  0  0  0  0  0
  190.4570  177.1270  143.3710 C   0  0  0  0  0  3  0  0  0  0  0  0
  189.5420  177.9760  138.9910 C   0  0  0  0  0  3  0  0  0  0  0  0
  185.3130  178.2170  138.3720 C   0  0  0  0  0  2  0  0  0  0  0  0
  184.5740  178.8590  139.5700 C   0  0  1  0  0  3  0  0  0  0  0  0
  183.5680  179.1990  144.0720 C   0  0  0  0  0  3  0  0  0  0  0  0
  183.2700  178.8910  142.7270 C   0  0  0  0  0  3  0  0  0  0  0  0
  190.3190  177.3900  141.9880 C   0  0  0  0  0  3  0  0  0  0  0  0
  189.1030  177.8990  141.5120 C   0  0  0  0  0  0  0  0  0  0  0  0
  189.0050  178.0510  137.7360 N   0  0  0  0  0  0  0  0  0  0  0  0
  186.8200  178.4860  145.8390 C   0  0  1  0  0  3  0  0  0  0  0  0
  187.6820  178.1420  137.5300 N   0  0  0  0  0  0  0  0  0  0  0  0
  187.8250  178.1620  148.0080 O   0  0  0  0  0  1  0  0  0  0  0  0
  187.2130  177.4990  146.9410 C   0  0  0  0  0  2  0  0  0  0  0  0
  183.6020  179.9170  139.1190 C   0  0  0  0  0  0  0  0  0  0  0  0
  184.0530  180.9980  138.7820 O   0  0  0  0  0  0  0  0  0  0  0  0
  181.4000  178.3480  137.0360 O   0  0  0  0  0  0  0  0  0  0  0  0
  181.6090  179.2690  137.8680 C   0  0  0  0  0  0  0  0  0  0  0  0
  182.1010  179.7350  139.0840 C   0  0  2  0  0  3  0  0  0  0  0  0
  181.1630  182.1170  138.0550 C   0  0  0  0  0  1  0  0  0  0  0  0
  181.5270  180.7360  138.2980 N   0  0  0  0  0  0  0  0  0  0  0  0
  1  8  1  0  0  0  0
  2 14  1  0  0  0  0
  3 24  1  0  0  0  0
  4  6  1  0  0  0  0
  5 22  1  0  0  0  0
  6  2  2  0  0  0  0
  6 20  1  0  0  0  0
  7 12  1  1  0  0  0
  8 13  2  0  0  0  0
  8  3  1  0  0  0  0
  9 10  2  0  0  0  0
 10  5  1  0  0  0  0
 11  7  1  0  0  0  0
 14  3  1  0  0  0  0
 14 11  2  0  0  0  0
 15 13  1  0  0  0  0
 16  5  2  0  0  0  0
 17  9  1  0  0  0  0
 17 18  1  0  0  0  0
 18 28  1  6  0  0  0
 18  4  1  0  0  0  0
 19 11  1  0  0  0  0
 20 19  2  0  0  0  0
 21 15  2  0  0  0  0
 22 21  1  0  0  0  0
 22  1  2  0  0  0  0
 23 16  1  0  0  0  0
 24  7  1  0  0  0  0
 24 27  1  1  0  0  0
 25 23  2  0  0  0  0
 25  9  1  0  0  0  0
 27 26  1  0  0  0  0
 29 28  2  0  0  0  0
 30 31  2  0  0  0  0
 31 34  1  0  0  0  0
 31 32  1  0  0  0  0
 32 28  1  6  0  0  0
 33 34  1  0  0  0  0
 34 32  1  0  0  0  0
M  END
>  <MODEL>
2

>  <REMARK>
 VINA RESULT:     -10.3      3.141      6.241
  Name = 
  3 active torsions:
  status: ('A' for Active; 'I' for Inactive)
    1  A    between atoms: C_9  and  C_13
    2  A    between atoms: C_13  and  C_24
    3  A    between atoms: C_22  and  C_33
                            x       y       z     vdW  Elec       q    Type
                         _______ _______ _______ _____ _____    ______ ____

>  <TORSDO>
F 3

$$$$
=
 OpenBabel11062416493D

 34 39  0  0  1  0  0  0  0  0999 V2000
  188.3280  177.5940  143.5170 C   0  0  0  0  0  3  0  0  0  0  0  0
  187.3460  178.7890  141.2070 C   0  0  0  0  0  3  0  0  0  0  0  0
  189.6450  177.7760  141.5080 N   0  0  0  0  0  0  0  0  0  0  0  0
  184.9420  179.4560  140.9890 C   0  0  0  0  0  2  0  0  0  0  0  0
  186.6760  178.0160  145.2220 C   0  0  0  0  0  0  0  0  0  0  0  0
  186.1850  178.8220  140.4260 C   0  0  0  0  0  0  0  0  0  0  0  0
  189.7840  176.8220  139.2780 C   0  0  1  0  0  3  0  0  0  0  0  0
  189.5770  177.6160  142.9430 C   0  0  0  0  0  0  0  0  0  0  0  0
  184.5080  178.6860  144.3720 C   0  0  0  0  0  0  0  0  0  0  0  0
  185.8340  178.3820  144.1710 C   0  0  0  0  0  3  0  0  0  0  0  0
  188.5050  177.5570  139.4920 C   0  0  0  0  0  0  0  0  0  0  0  0
  190.4960  177.4110  138.2280 O   0  0  0  0  0  1  0  0  0  0  0  0
  190.6900  177.6440  143.7960 C   0  0  0  0  0  3  0  0  0  0  0  0
  188.4930  178.1290  140.7310 C   0  0  0  0  0  0  0  0  0  0  0  0
  190.4890  177.6860  145.1960 C   0  0  0  0  0  3  0  0  0  0  0  0
  186.1390  178.0040  146.5100 C   0  0  0  0  0  3  0  0  0  0  0  0
  183.6600  179.1080  143.1980 C   0  0  0  0  0  2  0  0  0  0  0  0
  184.1370  178.4840  141.8660 C   0  0  1  0  0  3  0  0  0  0  0  0
  187.3640  177.5750  138.6790 C   0  0  0  0  0  3  0  0  0  0  0  0
  186.1980  178.2110  139.1550 C   0  0  0  0  0  3  0  0  0  0  0  0
  189.1840  177.7480  145.7390 C   0  0  0  0  0  3  0  0  0  0  0  0
  188.0840  177.7110  144.8720 C   0  0  0  0  0  0  0  0  0  0  0  0
  184.8220  178.3320  146.6780 N   0  0  0  0  0  0  0  0  0  0  0  0
  190.5180  176.9700  140.6510 C   0  0  1  0  0  3  0  0  0  0  0  0
  184.0310  178.6650  145.6460 N   0  0  0  0  0  0  0  0  0  0  0  0
  192.7640  176.7760  139.7880 O   0  0  0  0  0  1  0  0  0  0  0  0
  191.9250  177.5690  140.5770 C   0  0  0  0  0  2  0  0  0  0  0  0
  182.9970  177.8570  141.1070 C   0  0  0  0  0  0  0  0  0  0  0  0
  183.2470  176.9040  140.3910 O   0  0  0  0  0  0  0  0  0  0  0  0
  179.9360  176.4770  140.5020 O   0  0  0  0  0  0  0  0  0  0  0  0
  180.6510  177.5110  140.5310 C   0  0  0  0  0  0  0  0  0  0  0  0
  181.5690  178.3510  141.1560 C   0  0  2  0  0  3  0  0  0  0  0  0
  181.2600  179.7330  138.7880 C   0  0  0  0  0  1  0  0  0  0  0  0
  181.1850  178.7950  139.8880 N   0  0  0  0  0  0  0  0  0  0  0  0
  1 22  1  0  0  0  0
  3  8  1  0  0  0  0
  4 18  1  0  0  0  0
  5 16  1  0  0  0  0
  6  4  1  0  0  0  0
  6  2  2  0  0  0  0
  7 12  1  6  0  0  0
  7 11  1  0  0  0  0
  7 24  1  0  0  0  0
  8  1  2  0  0  0  0
  8 13  1  0  0  0  0
  9 25  2  0  0  0  0
 10  9  1  0  0  0  0
 10  5  2  0  0  0  0
 11 14  2  0  0  0  0
 13 15  2  0  0  0  0
 14  2  1  0  0  0  0
 14  3  1  0  0  0  0
 15 21  1  0  0  0  0
 16 23  2  0  0  0  0
 17  9  1  0  0  0  0
 18 28  1  6  0  0  0
 18 17  1  0  0  0  0
 19 20  2  0  0  0  0
 19 11  1  0  0  0  0
 20  6  1  0  0  0  0
 22  5  1  0  0  0  0
 22 21  2  0  0  0  0
 24 27  1  6  0  0  0
 24  3  1  0  0  0  0
 25 23  1  0  0  0  0
 26 27  1  0  0  0  0
 29 28  2  0  0  0  0
 30 31  2  0  0  0  0
 31 32  1  0  0  0  0
 32 28  1  6  0  0  0
 33 34  1  0  0  0  0
 34 31  1  0  0  0  0
 34 32  1  0  0  0  0
M  END
>  <MODEL>
3

>  <REMARK>
 VINA RESULT:     -10.2      3.062      6.913
  Name = 
  3 active torsions:
  status: ('A' for Active; 'I' for Inactive)
    1  A    between atoms: C_9  and  C_13
    2  A    between atoms: C_13  and  C_24
    3  A    between atoms: C_22  and  C_33
                            x       y       z     vdW  Elec       q    Type
                         _______ _______ _______ _____ _____    ______ ____

>  <TORSDO>
F 3

$$$$
=
 OpenBabel11062416493D

 34 39  0  0  1  0  0  0  0  0999 V2000
  186.0230  177.8710  142.8180 C   0  0  0  0  0  3  0  0  0  0  0  0
  188.3220  178.3760  141.3410 C   0  0  0  0  0  3  0  0  0  0  0  0
  188.2220  177.7770  143.7980 N   0  0  0  0  0  0  0  0  0  0  0  0
  188.2560  178.6450  138.8530 C   0  0  0  0  0  2  0  0  0  0  0  0
  184.1790  178.4340  141.3700 C   0  0  0  0  0  0  0  0  0  0  0  0
  188.8850  178.0760  140.0950 C   0  0  0  0  0  0  0  0  0  0  0  0
  190.2080  176.3770  143.7880 C   0  0  1  0  0  3  0  0  0  0  0  0
  186.7930  177.9340  143.9560 C   0  0  0  0  0  0  0  0  0  0  0  0
  184.7640  178.5980  139.0230 C   0  0  0  0  0  0  0  0  0  0  0  0
  185.1230  178.4390  140.3410 C   0  0  0  0  0  3  0  0  0  0  0  0
  189.9300  176.9620  142.4450 C   0  0  0  0  0  0  0  0  0  0  0  0
  191.4600  176.8080  144.2390 O   0  0  0  0  0  1  0  0  0  0  0  0
  186.1650  178.3020  145.1550 C   0  0  0  0  0  3  0  0  0  0  0  0
  188.8450  177.7880  142.5070 C   0  0  0  0  0  0  0  0  0  0  0  0
  184.7880  178.6270  145.1430 C   0  0  0  0  0  3  0  0  0  0  0  0
  182.8430  178.6380  141.0240 C   0  0  0  0  0  3  0  0  0  0  0  0
  185.8370  178.6280  137.9630 C   0  0  0  0  0  2  0  0  0  0  0  0
  187.0790  177.7930  138.3520 C   0  0  1  0  0  3  0  0  0  0  0  0
  190.5240  176.6420  141.2170 C   0  0  0  0  0  3  0  0  0  0  0  0
  189.9920  177.2050  140.0360 C   0  0  0  0  0  3  0  0  0  0  0  0
  184.0540  178.6310  143.9340 C   0  0  0  0  0  3  0  0  0  0  0  0
  184.6970  178.2530  142.7480 C   0  0  0  0  0  0  0  0  0  0  0  0
  182.5220  178.8130  139.7070 N   0  0  0  0  0  0  0  0  0  0  0  0
  189.0370  176.9260  144.6690 C   0  0  1  0  0  3  0  0  0  0  0  0
  183.4490  178.7970  138.7370 N   0  0  0  0  0  0  0  0  0  0  0  0
  189.1020  176.9730  147.0800 O   0  0  0  0  0  1  0  0  0  0  0  0
  189.4670  177.6780  145.9300 C   0  0  0  0  0  2  0  0  0  0  0  0
  187.4920  176.8640  137.2410 C   0  0  0  0  0  0  0  0  0  0  0  0
  188.0800  177.3430  136.2870 O   0  0  0  0  0  0  0  0  0  0  0  0
  187.4450  174.4400  134.8390 O   0  0  0  0  0  0  0  0  0  0  0  0
  187.0090  174.8530  135.9450 C   0  0  0  0  0  0  0  0  0  0  0  0
  187.2010  175.3810  137.2190 C   0  0  2  0  0  3  0  0  0  0  0  0
  184.4450  175.2420  137.2180 C   0  0  0  0  0  1  0  0  0  0  0  0
  185.8570  175.1730  136.9010 N   0  0  0  0  0  0  0  0  0  0  0  0
  1  8  1  0  0  0  0
  2 14  1  0  0  0  0
  3  8  1  0  0  0  0
  3 24  1  0  0  0  0
  4  6  1  0  0  0  0
  5 22  1  0  0  0  0
  6  2  2  0  0  0  0
  7 12  1  1  0  0  0
  7 24  1  0  0  0  0
  8 13  2  0  0  0  0
  9 10  1  0  0  0  0
 10  5  2  0  0  0  0
 11 14  2  0  0  0  0
 11  7  1  0  0  0  0
 14  3  1  0  0  0  0
 15 13  1  0  0  0  0
 16  5  1  0  0  0  0
 17 18  1  0  0  0  0
 17  9  1  0  0  0  0
 18 28  1  6  0  0  0
 18  4  1  0  0  0  0
 19 11  1  0  0  0  0
 20  6  1  0  0  0  0
 20 19  2  0  0  0  0
 21 15  2  0  0  0  0
 22  1  2  0  0  0  0
 22 21  1  0  0  0  0
 23 16  2  0  0  0  0
 24 27  1  1  0  0  0
 25  9  2  0  0  0  0
 25 23  1  0  0  0  0
 27 26  1  0  0  0  0
 29 28  2  0  0  0  0
 30 31  2  0  0  0  0
 31 34  1  0  0  0  0
 31 32  1  0  0  0  0
 32 28  1  6  0  0  0
 34 33  1  0  0  0  0
 34 32  1  0  0  0  0
M  END
>  <MODEL>
4

>  <REMARK>
 VINA RESULT:     -10.0      2.271      3.282
  Name = 
  3 active torsions:
  status: ('A' for Active; 'I' for Inactive)
    1  A    between atoms: C_9  and  C_13
    2  A    between atoms: C_13  and  C_24
    3  A    between atoms: C_22  and  C_33
                            x       y       z     vdW  Elec       q    Type
                         _______ _______ _______ _____ _____    ______ ____

>  <TORSDO>
F 3

$$$$
=
 OpenBabel11062416493D

 34 39  0  0  1  0  0  0  0  0999 V2000
  188.2160  177.5230  143.3280 C   0  0  0  0  0  3  0  0  0  0  0  0
  187.2230  178.7240  141.0270 C   0  0  0  0  0  3  0  0  0  0  0  0
  189.5240  177.7100  141.3140 N   0  0  0  0  0  0  0  0  0  0  0  0
  184.8190  179.3910  140.8220 C   0  0  0  0  0  2  0  0  0  0  0  0
  186.5720  177.9400  145.0430 C   0  0  0  0  0  0  0  0  0  0  0  0
  186.0590  178.7590  140.2510 C   0  0  0  0  0  0  0  0  0  0  0  0
  189.6520  176.7620  139.0810 C   0  0  1  0  0  3  0  0  0  0  0  0
  189.4630  177.5470  142.7500 C   0  0  0  0  0  0  0  0  0  0  0  0
  184.4000  178.6120  144.2050 C   0  0  0  0  0  0  0  0  0  0  0  0
  185.7250  178.3090  143.9970 C   0  0  0  0  0  3  0  0  0  0  0  0
  188.3750  177.4970  139.3030 C   0  0  0  0  0  0  0  0  0  0  0  0
  190.3600  177.3550  138.0290 O   0  0  0  0  0  1  0  0  0  0  0  0
  190.5800  177.5720  143.5970 C   0  0  0  0  0  3  0  0  0  0  0  0
  188.3680  178.0660  140.5440 C   0  0  0  0  0  0  0  0  0  0  0  0
  190.3850  177.6110  144.9980 C   0  0  0  0  0  3  0  0  0  0  0  0
  186.0410  177.9250  146.3330 C   0  0  0  0  0  3  0  0  0  0  0  0
  183.5460  179.0370  143.0360 C   0  0  0  0  0  2  0  0  0  0  0  0
  184.0180  178.4170  141.7000 C   0  0  1  0  0  3  0  0  0  0  0  0
  187.2300  177.5170  138.4950 C   0  0  0  0  0  3  0  0  0  0  0  0
  186.0650  178.1520  138.9780 C   0  0  0  0  0  3  0  0  0  0  0  0
  189.0830  177.6710  145.5480 C   0  0  0  0  0  3  0  0  0  0  0  0
  187.9790  177.6360  144.6850 C   0  0  0  0  0  0  0  0  0  0  0  0
  184.7250  178.2510  146.5080 N   0  0  0  0  0  0  0  0  0  0  0  0
  190.3930  176.9070  140.4510 C   0  0  1  0  0  3  0  0  0  0  0  0
  183.9290  178.5870  145.4810 N   0  0  0  0  0  0  0  0  0  0  0  0
  192.6450  176.6960  139.6100 O   0  0  0  0  0  1  0  0  0  0  0  0
  191.7990  177.5060  140.3730 C   0  0  0  0  0  2  0  0  0  0  0  0
  182.8740  177.7910  140.9450 C   0  0  0  0  0  0  0  0  0  0  0  0
  181.7420  178.1130  141.2590 O   0  0  0  0  0  0  0  0  0  0  0  0
  182.8270  177.8830  137.5340 O   0  0  0  0  0  0  0  0  0  0  0  0
  182.6410  177.2160  138.5840 C   0  0  0  0  0  0  0  0  0  0  0  0
  183.0400  176.7710  139.8410 C   0  0  2  0  0  3  0  0  0  0  0  0
  180.5790  175.5300  139.7050 C   0  0  0  0  0  1  0  0  0  0  0  0
  181.7860  176.2920  139.4560 N   0  0  0  0  0  0  0  0  0  0  0  0
  1 22  1  0  0  0  0
  3  8  1  0  0  0  0
  4 18  1  0  0  0  0
  5 16  1  0  0  0  0
  6  4  1  0  0  0  0
  6  2  2  0  0  0  0
  7 12  1  6  0  0  0
  7 11  1  0  0  0  0
  7 24  1  0  0  0  0
  8  1  2  0  0  0  0
  8 13  1  0  0  0  0
  9 25  2  0  0  0  0
 10  9  1  0  0  0  0
 10  5  2  0  0  0  0
 11 14  2  0  0  0  0
 13 15  2  0  0  0  0
 14  2  1  0  0  0  0
 14  3  1  0  0  0  0
 15 21  1  0  0  0  0
 16 23  2  0  0  0  0
 17  9  1  0  0  0  0
 18 28  1  6  0  0  0
 18 17  1  0  0  0  0
 19 20  2  0  0  0  0
 19 11  1  0  0  0  0
 20  6  1  0  0  0  0
 22  5  1  0  0  0  0
 22 21  2  0  0  0  0
 24 27  1  6  0  0  0
 24  3  1  0  0  0  0
 25 23  1  0  0  0  0
 26 27  1  0  0  0  0
 28 29  2  0  0  0  0
 30 31  2  0  0  0  0
 31 34  1  0  0  0  0
 31 32  1  0  0  0  0
 32 28  1  1  0  0  0
 34 33  1  0  0  0  0
 34 32  1  0  0  0  0
M  END
>  <MODEL>
5

>  <REMARK>
 VINA RESULT:      -9.8      3.023      6.740
  Name = 
  3 active torsions:
  status: ('A' for Active; 'I' for Inactive)
    1  A    between atoms: C_9  and  C_13
    2  A    between atoms: C_13  and  C_24
    3  A    between atoms: C_22  and  C_33
                            x       y       z     vdW  Elec       q    Type
                         _______ _______ _______ _____ _____    ______ ____

>  <TORSDO>
F 3

$$$$
=
 OpenBabel11062416493D

 34 39  0  0  1  0  0  0  0  0999 V2000
  184.5140  178.0590  142.0100 C   0  0  0  0  0  3  0  0  0  0  0  0
  187.2210  178.6120  141.7190 C   0  0  0  0  0  3  0  0  0  0  0  0
  185.9680  178.3750  143.9050 N   0  0  0  0  0  0  0  0  0  0  0  0
  188.3570  178.5010  139.4900 C   0  0  0  0  0  2  0  0  0  0  0  0
  183.5810  178.1760  139.7890 C   0  0  0  0  0  0  0  0  0  0  0  0
  188.3270  178.2020  140.9650 C   0  0  0  0  0  0  0  0  0  0  0  0
  187.7580  177.2380  145.0900 C   0  0  1  0  0  3  0  0  0  0  0  0
  184.6360  178.3810  143.3410 C   0  0  0  0  0  0  0  0  0  0  0  0
  185.2210  178.0600  138.0080 C   0  0  0  0  0  0  0  0  0  0  0  0
  184.9040  178.1420  139.3440 C   0  0  0  0  0  3  0  0  0  0  0  0
  188.1430  177.5810  143.6910 C   0  0  0  0  0  0  0  0  0  0  0  0
  188.6200  177.8790  145.9860 O   0  0  0  0  0  1  0  0  0  0  0  0
  183.4940  178.8440  144.0120 C   0  0  0  0  0  3  0  0  0  0  0  0
  187.1360  178.2710  143.0810 C   0  0  0  0  0  0  0  0  0  0  0  0
  182.2840  178.9960  143.2950 C   0  0  0  0  0  3  0  0  0  0  0  0
  182.5720  178.1640  138.8260 C   0  0  0  0  0  3  0  0  0  0  0  0
  186.6710  178.0620  137.5910 C   0  0  0  0  0  2  0  0  0  0  0  0
  187.5990  177.4490  138.6650 C   0  0  1  0  0  3  0  0  0  0  0  0
  189.2670  177.1570  142.9700 C   0  0  0  0  0  3  0  0  0  0  0  0
  189.3540  177.4710  141.5960 C   0  0  0  0  0  3  0  0  0  0  0  0
  182.2260  178.7330  141.9060 C   0  0  0  0  0  3  0  0  0  0  0  0
  183.3750  178.2640  141.2550 C   0  0  0  0  0  0  0  0  0  0  0  0
  182.9210  178.1020  137.5050 N   0  0  0  0  0  0  0  0  0  0  0  0
  186.2890  177.7670  145.1980 C   0  0  1  0  0  3  0  0  0  0  0  0
  184.2020  178.0550  137.1060 N   0  0  0  0  0  0  0  0  0  0  0  0
  184.8470  178.4210  147.0180 O   0  0  0  0  0  1  0  0  0  0  0  0
  186.0300  178.7430  146.3470 C   0  0  0  0  0  2  0  0  0  0  0  0
  188.5290  176.4230  138.0750 C   0  0  0  0  0  0  0  0  0  0  0  0
  189.7190  176.5280  138.3150 O   0  0  0  0  0  0  0  0  0  0  0  0
  189.8070  173.3780  137.2140 O   0  0  0  0  0  0  0  0  0  0  0  0
  189.0830  174.3570  136.8990 C   0  0  0  0  0  0  0  0  0  0  0  0
  188.0860  175.2870  137.1810 C   0  0  2  0  0  3  0  0  0  0  0  0
  188.7590  176.1320  134.6420 C   0  0  0  0  0  1  0  0  0  0  0  0
  188.6470  175.4440  135.9120 N   0  0  0  0  0  0  0  0  0  0  0  0
  1  8  1  0  0  0  0
  2 14  1  0  0  0  0
  3 24  1  0  0  0  0
  4  6  1  0  0  0  0
  5 22  1  0  0  0  0
  6 20  1  0  0  0  0
  6  2  2  0  0  0  0
  7 24  1  0  0  0  0
  7 12  1  1  0  0  0
  8  3  1  0  0  0  0
  8 13  2  0  0  0  0
  9 10  2  0  0  0  0
 10  5  1  0  0  0  0
 11  7  1  0  0  0  0
 14 11  2  0  0  0  0
 14  3  1  0  0  0  0
 15 13  1  0  0  0  0
 16  5  2  0  0  0  0
 17  9  1  0  0  0  0
 17 18  1  0  0  0  0
 18 28  1  6  0  0  0
 18  4  1  0  0  0  0
 19 11  1  0  0  0  0
 20 19  2  0  0  0  0
 21 15  2  0  0  0  0
 22 21  1  0  0  0  0
 22  1  2  0  0  0  0
 23 16  1  0  0  0  0
 24 27  1  1  0  0  0
 25 23  2  0  0  0  0
 25  9  1  0  0  0  0
 27 26  1  0  0  0  0
 28 29  2  0  0  0  0
 31 32  1  0  0  0  0
 31 30  2  0  0  0  0
 32 28  1  1  0  0  0
 33 34  1  0  0  0  0
 34 31  1  0  0  0  0
 34 32  1  0  0  0  0
M  END
>  <MODEL>
6

>  <REMARK>
 VINA RESULT:      -9.6      2.303      3.243
  Name = 
  3 active torsions:
  status: ('A' for Active; 'I' for Inactive)
    1  A    between atoms: C_9  and  C_13
    2  A    between atoms: C_13  and  C_24
    3  A    between atoms: C_22  and  C_33
                            x       y       z     vdW  Elec       q    Type
                         _______ _______ _______ _____ _____    ______ ____

>  <TORSDO>
F 3

$$$$
=
 OpenBabel11062416493D

 34 39  0  0  1  0  0  0  0  0999 V2000
  186.5040  177.7870  144.0740 C   0  0  0  0  0  3  0  0  0  0  0  0
  187.7080  178.5180  141.6780 C   0  0  0  0  0  3  0  0  0  0  0  0
  188.8890  177.6680  143.7500 N   0  0  0  0  0  0  0  0  0  0  0  0
  186.3620  179.0370  139.6320 C   0  0  0  0  0  2  0  0  0  0  0  0
  184.1900  178.4310  143.8650 C   0  0  0  0  0  0  0  0  0  0  0  0
  187.5330  178.3660  140.2980 C   0  0  0  0  0  0  0  0  0  0  0  0
  190.5440  176.3460  142.5610 C   0  0  1  0  0  3  0  0  0  0  0  0
  187.7550  177.7600  144.6430 C   0  0  0  0  0  0  0  0  0  0  0  0
  183.4700  178.8530  141.5890 C   0  0  0  0  0  0  0  0  0  0  0  0
  184.4600  178.5730  142.5020 C   0  0  0  0  0  3  0  0  0  0  0  0
  189.6210  177.0540  141.6290 C   0  0  0  0  0  0  0  0  0  0  0  0
  191.8580  176.7720  142.3370 O   0  0  0  0  0  1  0  0  0  0  0  0
  187.8530  177.9820  146.0250 C   0  0  0  0  0  3  0  0  0  0  0  0
  188.7480  177.8330  142.3330 C   0  0  0  0  0  0  0  0  0  0  0  0
  186.6800  178.2600  146.7660 C   0  0  0  0  0  3  0  0  0  0  0  0
  182.8750  178.6230  144.2880 C   0  0  0  0  0  3  0  0  0  0  0  0
  183.8340  179.0280  140.1350 C   0  0  0  0  0  2  0  0  0  0  0  0
  185.0770  178.2010  139.7300 C   0  0  1  0  0  3  0  0  0  0  0  0
  189.4810  176.8820  140.2460 C   0  0  0  0  0  3  0  0  0  0  0  0
  188.4260  177.5430  139.5800 C   0  0  0  0  0  3  0  0  0  0  0  0
  185.4240  178.3620  146.1230 C   0  0  0  0  0  3  0  0  0  0  0  0
  185.3450  178.1280  144.7440 C   0  0  0  0  0  0  0  0  0  0  0  0
  181.9180  178.9200  143.3580 N   0  0  0  0  0  0  0  0  0  0  0  0
  190.0170  176.7620  143.9740 C   0  0  1  0  0  3  0  0  0  0  0  0
  182.2040  179.0350  142.0510 N   0  0  0  0  0  0  0  0  0  0  0  0
  191.0930  176.7430  146.1340 O   0  0  0  0  0  1  0  0  0  0  0  0
  191.0590  177.3960  144.8990 C   0  0  0  0  0  2  0  0  0  0  0  0
  184.8280  177.4040  138.4770 C   0  0  0  0  0  0  0  0  0  0  0  0
  183.9000  176.6150  138.4790 O   0  0  0  0  0  0  0  0  0  0  0  0
  184.2470  177.0660  135.1310 O   0  0  0  0  0  0  0  0  0  0  0  0
  185.0650  176.9860  136.0840 C   0  0  0  0  0  0  0  0  0  0  0  0
  185.6720  177.5000  137.2260 C   0  0  2  0  0  3  0  0  0  0  0  0
  186.9690  175.0670  137.1060 C   0  0  0  0  0  1  0  0  0  0  0  0
  186.1360  176.2300  136.8760 N   0  0  0  0  0  0  0  0  0  0  0  0
  1  8  2  0  0  0  0
  1 22  1  0  0  0  0
  2 14  1  0  0  0  0
  3 24  1  0  0  0  0
  3  8  1  0  0  0  0
  4 18  1  0  0  0  0
  4  6  1  0  0  0  0
  5 16  1  0  0  0  0
  5 22  1  0  0  0  0
  6  2  2  0  0  0  0
  7 12  1  6  0  0  0
  7 24  1  0  0  0  0
  8 13  1  0  0  0  0
  9 25  2  0  0  0  0
  9 10  1  0  0  0  0
 10  5  2  0  0  0  0
 11 14  2  0  0  0  0
 11  7  1  0  0  0  0
 13 15  2  0  0  0  0
 14  3  1  0  0  0  0
 17  9  1  0  0  0  0
 18 28  1  6  0  0  0
 18 17  1  0  0  0  0
 19 11  1  0  0  0  0
 20 19  2  0  0  0  0
 20  6  1  0  0  0  0
 21 15  1  0  0  0  0
 22 21  2  0  0  0  0
 23 16  2  0  0  0  0
 24 27  1  1  0  0  0
 25 23  1  0  0  0  0
 27 26  1  0  0  0  0
 28 29  2  0  0  0  0
 30 31  2  0  0  0  0
 31 34  1  0  0  0  0
 31 32  1  0  0  0  0
 32 28  1  1  0  0  0
 34 33  1  0  0  0  0
 34 32  1  0  0  0  0
M  END
>  <MODEL>
7

>  <REMARK>
 VINA RESULT:      -9.4      2.553      4.146
  Name = 
  3 active torsions:
  status: ('A' for Active; 'I' for Inactive)
    1  A    between atoms: C_9  and  C_13
    2  A    between atoms: C_13  and  C_24
    3  A    between atoms: C_22  and  C_33
                            x       y       z     vdW  Elec       q    Type
                         _______ _______ _______ _____ _____    ______ ____

>  <TORSDO>
F 3

$$$$
=
 OpenBabel11062416493D

 34 39  0  0  1  0  0  0  0  0999 V2000
  186.4160  178.6280  140.6820 C   0  0  0  0  0  3  0  0  0  0  0  0
  188.3050  176.7530  141.4800 C   0  0  0  0  0  3  0  0  0  0  0  0
  188.0840  177.7650  139.1720 N   0  0  0  0  0  0  0  0  0  0  0  0
  188.5760  176.0950  143.8810 C   0  0  0  0  0  2  0  0  0  0  0  0
  184.8750  178.8270  142.5250 C   0  0  0  0  0  0  0  0  0  0  0  0
  189.1650  176.4830  142.5520 C   0  0  0  0  0  0  0  0  0  0  0  0
  190.4700  177.9220  138.7450 C   0  0  1  0  0  3  0  0  0  0  0  0
  186.7980  178.3940  139.3820 C   0  0  0  0  0  0  0  0  0  0  0  0
  185.7090  177.9530  144.6270 C   0  0  0  0  0  0  0  0  0  0  0  0
  185.8400  178.1480  143.2720 C   0  0  0  0  0  3  0  0  0  0  0  0
  190.1790  177.3230  140.0780 C   0  0  0  0  0  0  0  0  0  0  0  0
  191.1770  177.0040  137.9600 O   0  0  0  0  0  1  0  0  0  0  0  0
  185.8580  178.6310  138.3690 C   0  0  0  0  0  3  0  0  0  0  0  0
  188.8320  177.1950  140.2540 C   0  0  0  0  0  0  0  0  0  0  0  0
  184.5560  179.0590  138.7190 C   0  0  0  0  0  3  0  0  0  0  0  0
  183.7360  179.2750  143.1940 C   0  0  0  0  0  3  0  0  0  0  0  0
  186.7710  177.1800  145.3680 C   0  0  0  0  0  2  0  0  0  0  0  0
  188.1680  177.3180  144.7180 C   0  0  1  0  0  3  0  0  0  0  0  0
  191.0710  177.0570  141.1260 C   0  0  0  0  0  3  0  0  0  0  0  0
  190.5550  176.6360  142.3710 C   0  0  0  0  0  3  0  0  0  0  0  0
  184.1810  179.2050  140.0750 C   0  0  0  0  0  3  0  0  0  0  0  0
  185.1370  178.9720  141.0730 C   0  0  0  0  0  0  0  0  0  0  0  0
  183.6260  179.0470  144.5380 N   0  0  0  0  0  0  0  0  0  0  0  0
  189.0470  178.2250  138.1690 C   0  0  1  0  0  3  0  0  0  0  0  0
  184.5780  178.4050  145.2330 N   0  0  0  0  0  0  0  0  0  0  0  0
  188.1830  176.3410  136.9340 O   0  0  0  0  0  1  0  0  0  0  0  0
  188.7530  177.6100  136.7990 C   0  0  0  0  0  2  0  0  0  0  0  0
  189.2190  177.6780  145.7340 C   0  0  0  0  0  0  0  0  0  0  0  0
  189.9730  178.5980  145.4710 O   0  0  0  0  0  0  0  0  0  0  0  0
  189.8060  178.6280  148.9590 O   0  0  0  0  0  0  0  0  0  0  0  0
  189.9320  177.7490  148.0670 C   0  0  0  0  0  0  0  0  0  0  0  0
  189.4180  176.9540  147.0470 C   0  0  2  0  0  3  0  0  0  0  0  0
  192.0470  176.1220  146.9590 C   0  0  0  0  0  1  0  0  0  0  0  0
  190.7820  176.7560  147.2690 N   0  0  0  0  0  0  0  0  0  0  0  0
  1 22  1  0  0  0  0
  2  6  1  0  0  0  0
  3  8  1  0  0  0  0
  3 14  1  0  0  0  0
  4 18  1  0  0  0  0
  5 16  2  0  0  0  0
  5 10  1  0  0  0  0
  6  4  1  0  0  0  0
  7 12  1  6  0  0  0
  7 11  1  0  0  0  0
  8  1  2  0  0  0  0
  9 25  1  0  0  0  0
  9 17  1  0  0  0  0
 10  9  2  0  0  0  0
 11 14  1  0  0  0  0
 11 19  2  0  0  0  0
 13 15  2  0  0  0  0
 13  8  1  0  0  0  0
 14  2  2  0  0  0  0
 15 21  1  0  0  0  0
 16 23  1  0  0  0  0
 18 17  1  0  0  0  0
 18 28  1  1  0  0  0
 19 20  1  0  0  0  0
 20  6  2  0  0  0  0
 21 22  2  0  0  0  0
 22  5  1  0  0  0  0
 23 25  2  0  0  0  0
 24 27  1  6  0  0  0
 24  7  1  0  0  0  0
 24  3  1  0  0  0  0
 27 26  1  0  0  0  0
 29 28  2  0  0  0  0
 31 30  2  0  0  0  0
 32 28  1  6  0  0  0
 32 34  1  0  0  0  0
 32 31  1  0  0  0  0
 33 34  1  0  0  0  0
 34 31  1  0  0  0  0
M  END
>  <MODEL>
8

>  <REMARK>
 VINA RESULT:      -9.3      2.023      6.915
  Name = 
  3 active torsions:
  status: ('A' for Active; 'I' for Inactive)
    1  A    between atoms: C_9  and  C_13
    2  A    between atoms: C_13  and  C_24
    3  A    between atoms: C_22  and  C_33
                            x       y       z     vdW  Elec       q    Type
                         _______ _______ _______ _____ _____    ______ ____

>  <TORSDO>
F 3

$$$$
=
 OpenBabel11062416493D

 34 39  0  0  1  0  0  0  0  0999 V2000
  187.8630  177.5610  138.7160 C   0  0  0  0  0  3  0  0  0  0  0  0
  187.8630  178.7470  141.2290 C   0  0  0  0  0  3  0  0  0  0  0  0
  185.8700  178.5030  139.6880 N   0  0  0  0  0  0  0  0  0  0  0  0
  189.8510  178.6220  142.7460 C   0  0  0  0  0  2  0  0  0  0  0  0
  190.1780  177.1220  138.2020 C   0  0  0  0  0  0  0  0  0  0  0  0
  188.3660  178.5340  142.5180 C   0  0  0  0  0  0  0  0  0  0  0  0
  184.2580  178.0420  141.4460 C   0  0  1  0  0  3  0  0  0  0  0  0
  186.6090  178.0860  138.5170 C   0  0  0  0  0  0  0  0  0  0  0  0
  191.6590  177.1850  140.1200 C   0  0  0  0  0  0  0  0  0  0  0  0
  190.4180  177.3690  139.5550 C   0  0  0  0  0  3  0  0  0  0  0  0
  185.6260  178.2730  141.9900 C   0  0  0  0  0  0  0  0  0  0  0  0
  183.3790  179.0020  141.9600 O   0  0  0  0  0  1  0  0  0  0  0  0
  186.2000  178.3280  137.1970 C   0  0  0  0  0  3  0  0  0  0  0  0
  186.4870  178.5890  140.9790 C   0  0  0  0  0  0  0  0  0  0  0  0
  187.0970  178.0620  136.1350 C   0  0  0  0  0  3  0  0  0  0  0  0
  191.2560  176.7170  137.4160 C   0  0  0  0  0  3  0  0  0  0  0  0
  191.8600  177.5020  141.5810 C   0  0  0  0  0  2  0  0  0  0  0  0
  190.5720  177.3060  142.4140 C   0  0  1  0  0  3  0  0  0  0  0  0
  186.0930  178.0570  143.2930 C   0  0  0  0  0  3  0  0  0  0  0  0
  187.4740  178.1870  143.5540 C   0  0  0  0  0  3  0  0  0  0  0  0
  188.4100  177.6020  136.3930 C   0  0  0  0  0  3  0  0  0  0  0  0
  188.7960  177.3580  137.7180 C   0  0  0  0  0  0  0  0  0  0  0  0
  192.4810  176.5630  138.0030 N   0  0  0  0  0  0  0  0  0  0  0  0
  184.4560  178.1840  139.9010 C   0  0  1  0  0  3  0  0  0  0  0  0
  192.6790  176.7920  139.3110 N   0  0  0  0  0  0  0  0  0  0  0  0
  184.1990  180.4430  139.0930 O   0  0  0  0  0  1  0  0  0  0  0  0
  183.5500  179.2120  139.2190 C   0  0  0  0  0  2  0  0  0  0  0  0
  190.8300  176.4810  143.6480 C   0  0  0  0  0  0  0  0  0  0  0  0
  190.6260  175.2820  143.5830 O   0  0  0  0  0  0  0  0  0  0  0  0
  192.4300  175.2310  146.3900 O   0  0  0  0  0  0  0  0  0  0  0  0
  191.6410  176.0890  145.9160 C   0  0  0  0  0  0  0  0  0  0  0  0
  191.2990  177.0490  144.9680 C   0  0  2  0  0  3  0  0  0  0  0  0
  189.0130  177.1300  146.5110 C   0  0  0  0  0  1  0  0  0  0  0  0
  190.3140  176.8520  145.9380 N   0  0  0  0  0  0  0  0  0  0  0  0
  2  6  1  0  0  0  0
  3 24  1  0  0  0  0
  3 14  1  0  0  0  0
  5 10  1  0  0  0  0
  6  4  1  0  0  0  0
  6 20  2  0  0  0  0
  7 12  1  1  0  0  0
  7 11  1  0  0  0  0
  8  1  1  0  0  0  0
  8  3  1  0  0  0  0
  9 17  1  0  0  0  0
 10  9  2  0  0  0  0
 11 19  2  0  0  0  0
 13  8  2  0  0  0  0
 14  2  2  0  0  0  0
 14 11  1  0  0  0  0
 15 21  2  0  0  0  0
 15 13  1  0  0  0  0
 16 23  1  0  0  0  0
 16  5  2  0  0  0  0
 17 18  1  0  0  0  0
 18  4  1  0  0  0  0
 18 28  1  1  0  0  0
 19 20  1  0  0  0  0
 21 22  1  0  0  0  0
 22  5  1  0  0  0  0
 22  1  2  0  0  0  0
 23 25  2  0  0  0  0
 24 27  1  1  0  0  0
 24  7  1  0  0  0  0
 25  9  1  0  0  0  0
 26 27  1  0  0  0  0
 29 28  2  0  0  0  0
 31 34  1  0  0  0  0
 31 30  2  0  0  0  0
 32 28  1  6  0  0  0
 32 31  1  0  0  0  0
 32 34  1  0  0  0  0
 34 33  1  0  0  0  0
M  END
>  <MODEL>
9

>  <REMARK>
 VINA RESULT:      -9.2      2.626      7.240
  Name = 
  3 active torsions:
  status: ('A' for Active; 'I' for Inactive)
    1  A    between atoms: C_9  and  C_13
    2  A    between atoms: C_13  and  C_24
    3  A    between atoms: C_22  and  C_33
                            x       y       z     vdW  Elec       q    Type
                         _______ _______ _______ _____ _____    ______ ____

>  <TORSDO>
F 3

$$$$
