=
 OpenBabel11062415043D

 31 36  0  0  1  0  0  0  0  0999 V2000
  184.8270  178.6690  146.2510 S   0  0  0  0  0  0  0  0  0  0  0  0
  185.2470  178.7020  141.2280 C   0  0  0  0  0  3  0  0  0  0  0  0
  184.0390  178.7170  143.7310 C   0  0  0  0  0  0  0  0  0  0  0  0
  185.4090  178.6040  143.6340 C   0  0  0  0  0  0  0  0  0  0  0  0
  183.8490  178.8020  141.3310 C   0  0  0  0  0  0  0  0  0  0  0  0
  186.1140  178.5070  144.9470 C   0  0  2  0  0  3  0  0  0  0  0  0
  183.5330  178.7400  145.0470 N   0  0  0  0  0  2  0  0  0  0  0  0
  183.2380  178.8180  142.5940 C   0  0  0  0  0  3  0  0  0  0  0  0
  186.0340  178.6020  142.3830 C   0  0  0  0  0  3  0  0  0  0  0  0
  183.0190  178.9330  140.0990 C   0  0  0  0  0  2  0  0  0  0  0  0
  181.5140  176.9120  139.7970 C   0  0  0  0  0  0  0  0  0  0  0  0
  183.6280  177.0160  138.6780 N   0  0  0  0  0  0  0  0  0  0  0  0
  181.2800  175.6540  139.1960 C   0  0  0  0  0  0  0  0  0  0  0  0
  182.2360  175.1030  138.3430 C   0  0  0  0  0  3  0  0  0  0  0  0
  182.7200  177.5840  139.5190 C   0  0  0  0  0  0  0  0  0  0  0  0
  179.1330  175.5170  140.3080 C   0  0  0  0  0  3  0  0  0  0  0  0
  180.5440  177.4560  140.6530 C   0  0  0  0  0  3  0  0  0  0  0  0
  179.3580  176.7600  140.9060 C   0  0  0  0  0  3  0  0  0  0  0  0
  180.0930  174.9650  139.4540 C   0  0  0  0  0  3  0  0  0  0  0  0
  183.4140  175.8070  138.0940 C   0  0  0  0  0  3  0  0  0  0  0  0
  186.7920  177.1500  145.0930 C   0  0  0  0  0  2  0  0  0  0  0  0
  188.2910  177.2430  145.0690 C   0  0  0  0  0  0  0  0  0  0  0  0
  190.5060  177.3450  144.3870 N   0  0  0  0  0  0  0  0  0  0  0  0
  190.4360  177.2450  145.6730 C   0  0  0  0  0  0  0  0  0  0  0  0
  189.0640  177.1980  146.1440 C   0  0  0  0  0  0  0  0  0  0  0  0
  189.1520  177.3710  143.8470 C   0  0  0  0  0  2  0  0  0  0  0  0
  187.8060  178.1820  148.0330 C   0  0  0  0  0  2  0  0  0  0  0  0
  189.2420  178.0220  148.4740 C   0  0  0  0  0  2  0  0  0  0  0  0
  188.6120  176.9860  147.5590 C   0  0  0  0  0  3  0  0  0  0  0  0
  192.0700  175.9440  146.9750 C   0  0  0  0  0  1  0  0  0  0  0  0
  191.5560  177.1810  146.5040 O   0  0  0  0  0  0  0  0  0  0  0  0
  2  5  2  0  0  0  0
  2  9  1  0  0  0  0
  3  7  1  0  0  0  0
  4  3  1  0  0  0  0
  4  6  1  0  0  0  0
  5  8  1  0  0  0  0
  6 21  1  6  0  0  0
  6  1  1  0  0  0  0
  7  1  1  0  0  0  0
  8  3  2  0  0  0  0
  9  4  2  0  0  0  0
 10  5  1  0  0  0  0
 11 17  1  0  0  0  0
 12 15  1  0  0  0  0
 13 19  1  0  0  0  0
 13 11  1  0  0  0  0
 14 13  2  0  0  0  0
 15 11  2  0  0  0  0
 15 10  1  0  0  0  0
 16 18  1  0  0  0  0
 17 18  2  0  0  0  0
 19 16  2  0  0  0  0
 20 14  1  0  0  0  0
 20 12  2  0  0  0  0
 22 21  1  0  0  0  0
 22 25  2  0  0  0  0
 23 24  2  0  0  0  0
 24 25  1  0  0  0  0
 24 31  1  0  0  0  0
 25 29  1  0  0  0  0
 26 23  1  0  0  0  0
 26 22  1  0  0  0  0
 27 28  1  0  0  0  0
 29 27  1  0  0  0  0
 29 28  1  0  0  0  0
 31 30  1  0  0  0  0
M  END
>  <MODEL>
1

>  <REMARK>
 VINA RESULT:      -9.3      0.000      0.000
  Name = 
  6 active torsions:
  status: ('A' for Active; 'I' for Inactive)
    1  A    between atoms: C_2  and  C_21
    2  A    between atoms: C_11  and  C_20
    3  A    between atoms: C_14  and  O_29
    4  A    between atoms: C_16  and  C_31
    5  A    between atoms: C_18  and  C_20
    6  A    between atoms: C_21  and  C_23
                            x       y       z     vdW  Elec       q    Type
                         _______ _______ _______ _____ _____    ______ ____

>  <TORSDO>
F 6

$$$$
=
 OpenBabel11062415043D

 31 36  0  0  1  0  0  0  0  0999 V2000
  184.7470  178.6230  146.1470 S   0  0  0  0  0  0  0  0  0  0  0  0
  185.5460  178.7100  141.1710 C   0  0  0  0  0  3  0  0  0  0  0  0
  184.1520  178.6980  143.5750 C   0  0  0  0  0  0  0  0  0  0  0  0
  185.5250  178.5850  143.5810 C   0  0  0  0  0  0  0  0  0  0  0  0
  184.1440  178.8100  141.1690 C   0  0  0  0  0  0  0  0  0  0  0  0
  186.1290  178.4740  144.9430 C   0  0  2  0  0  3  0  0  0  0  0  0
  183.5470  178.7070  144.8500 N   0  0  0  0  0  2  0  0  0  0  0  0
  183.4390  178.8110  142.3820 C   0  0  0  0  0  3  0  0  0  0  0  0
  186.2440  178.5970  142.3810 C   0  0  0  0  0  3  0  0  0  0  0  0
  183.4100  178.9540  139.8790 C   0  0  0  0  0  2  0  0  0  0  0  0
  184.0470  177.1640  138.1970 C   0  0  0  0  0  0  0  0  0  0  0  0
  182.2110  176.8110  139.6920 N   0  0  0  0  0  0  0  0  0  0  0  0
  183.8230  175.8800  137.6500 C   0  0  0  0  0  0  0  0  0  0  0  0
  182.7870  175.0870  138.1410 C   0  0  0  0  0  3  0  0  0  0  0  0
  183.2090  177.6170  139.2340 C   0  0  0  0  0  0  0  0  0  0  0  0
  185.6780  176.2010  136.1260 C   0  0  0  0  0  3  0  0  0  0  0  0
  185.0930  177.9540  137.6930 C   0  0  0  0  0  3  0  0  0  0  0  0
  185.9050  177.4710  136.6630 C   0  0  0  0  0  3  0  0  0  0  0  0
  184.6380  175.4060  136.6200 C   0  0  0  0  0  3  0  0  0  0  0  0
  181.9850  175.5740  139.1730 C   0  0  0  0  0  3  0  0  0  0  0  0
  186.7940  177.1160  145.1250 C   0  0  0  0  0  2  0  0  0  0  0  0
  188.2940  177.1960  145.1160 C   0  0  0  0  0  0  0  0  0  0  0  0
  190.5180  177.2610  144.4570 N   0  0  0  0  0  0  0  0  0  0  0  0
  190.4320  177.2030  145.7450 C   0  0  0  0  0  0  0  0  0  0  0  0
  189.0550  177.1810  146.2010 C   0  0  0  0  0  0  0  0  0  0  0  0
  189.1700  177.2790  143.9010 C   0  0  0  0  0  2  0  0  0  0  0  0
  187.8130  178.2510  148.0540 C   0  0  0  0  0  2  0  0  0  0  0  0
  189.2400  178.0550  148.5120 C   0  0  0  0  0  2  0  0  0  0  0  0
  188.5850  177.0190  147.6160 C   0  0  0  0  0  3  0  0  0  0  0  0
  192.0600  175.9310  147.0820 C   0  0  0  0  0  1  0  0  0  0  0  0
  191.5420  177.1580  146.5900 O   0  0  0  0  0  0  0  0  0  0  0  0
  2  9  1  0  0  0  0
  3  4  1  0  0  0  0
  3  7  1  0  0  0  0
  4  6  1  0  0  0  0
  5  2  2  0  0  0  0
  5  8  1  0  0  0  0
  6 21  1  6  0  0  0
  6  1  1  0  0  0  0
  7  1  1  0  0  0  0
  8  3  2  0  0  0  0
  9  4  2  0  0  0  0
 10  5  1  0  0  0  0
 11 15  2  0  0  0  0
 13 14  2  0  0  0  0
 13 11  1  0  0  0  0
 14 20  1  0  0  0  0
 15 12  1  0  0  0  0
 15 10  1  0  0  0  0
 16 19  2  0  0  0  0
 16 18  1  0  0  0  0
 17 11  1  0  0  0  0
 18 17  2  0  0  0  0
 19 13  1  0  0  0  0
 20 12  2  0  0  0  0
 22 21  1  0  0  0  0
 22 25  2  0  0  0  0
 23 24  2  0  0  0  0
 24 25  1  0  0  0  0
 24 31  1  0  0  0  0
 25 29  1  0  0  0  0
 26 23  1  0  0  0  0
 26 22  1  0  0  0  0
 27 28  1  0  0  0  0
 29 27  1  0  0  0  0
 29 28  1  0  0  0  0
 31 30  1  0  0  0  0
M  END
>  <MODEL>
2

>  <REMARK>
 VINA RESULT:      -9.2      1.140      2.580
  Name = 
  6 active torsions:
  status: ('A' for Active; 'I' for Inactive)
    1  A    between atoms: C_2  and  C_21
    2  A    between atoms: C_11  and  C_20
    3  A    between atoms: C_14  and  O_29
    4  A    between atoms: C_16  and  C_31
    5  A    between atoms: C_18  and  C_20
    6  A    between atoms: C_21  and  C_23
                            x       y       z     vdW  Elec       q    Type
                         _______ _______ _______ _____ _____    ______ ____

>  <TORSDO>
F 6

$$$$
=
 OpenBabel11062415043D

 31 36  0  0  1  0  0  0  0  0999 V2000
  185.5760  179.0400  141.7410 S   0  0  0  0  0  0  0  0  0  0  0  0
  189.9640  177.5900  139.7290 C   0  0  0  0  0  3  0  0  0  0  0  0
  187.2980  178.3630  139.8570 C   0  0  0  0  0  0  0  0  0  0  0  0
  188.0180  178.1980  141.0200 C   0  0  0  0  0  0  0  0  0  0  0  0
  189.2230  177.7450  138.5460 C   0  0  0  0  0  0  0  0  0  0  0  0
  187.2460  178.4750  142.2680 C   0  0  2  0  0  3  0  0  0  0  0  0
  185.9630  178.7820  140.0340 N   0  0  0  0  0  2  0  0  0  0  0  0
  187.8790  178.1430  138.6080 C   0  0  0  0  0  3  0  0  0  0  0  0
  189.3630  177.8160  140.9740 C   0  0  0  0  0  3  0  0  0  0  0  0
  189.8750  177.5270  137.2230 C   0  0  0  0  0  2  0  0  0  0  0  0
  191.3840  175.4910  137.0800 C   0  0  0  0  0  0  0  0  0  0  0  0
  189.0310  175.2740  136.6960 N   0  0  0  0  0  0  0  0  0  0  0  0
  191.5260  174.1010  136.8690 C   0  0  0  0  0  0  0  0  0  0  0  0
  190.4060  173.3250  136.5720 C   0  0  0  0  0  3  0  0  0  0  0  0
  190.1020  176.0660  136.9820 C   0  0  0  0  0  0  0  0  0  0  0  0
  193.9100  174.2810  137.2570 C   0  0  0  0  0  3  0  0  0  0  0  0
  192.5190  176.2620  137.3770 C   0  0  0  0  0  3  0  0  0  0  0  0
  193.7760  175.6570  137.4660 C   0  0  0  0  0  3  0  0  0  0  0  0
  192.7860  173.5040  136.9590 C   0  0  0  0  0  3  0  0  0  0  0  0
  189.1550  173.9360  136.4900 C   0  0  0  0  0  3  0  0  0  0  0  0
  187.0950  177.2070  143.0990 C   0  0  0  0  0  2  0  0  0  0  0  0
  187.8520  177.2660  144.3940 C   0  0  0  0  0  0  0  0  0  0  0  0
  189.5070  177.1370  146.0160 N   0  0  0  0  0  0  0  0  0  0  0  0
  188.3660  177.4080  146.5580 C   0  0  0  0  0  0  0  0  0  0  0  0
  187.3050  177.5180  145.5740 C   0  0  0  0  0  0  0  0  0  0  0  0
  189.3230  177.0290  144.5730 C   0  0  0  0  0  2  0  0  0  0  0  0
  185.4320  179.1300  145.4560 C   0  0  0  0  0  2  0  0  0  0  0  0
  185.6580  178.7970  146.9120 C   0  0  0  0  0  2  0  0  0  0  0  0
  185.8460  177.7240  145.8540 C   0  0  0  0  0  3  0  0  0  0  0  0
  189.1460  178.2250  148.7450 C   0  0  0  0  0  1  0  0  0  0  0  0
  188.1850  177.5670  147.9330 O   0  0  0  0  0  0  0  0  0  0  0  0
  1  6  1  0  0  0  0
  2  9  1  0  0  0  0
  3  7  1  0  0  0  0
  3  4  1  0  0  0  0
  4  6  1  0  0  0  0
  5  8  1  0  0  0  0
  5  2  2  0  0  0  0
  6 21  1  1  0  0  0
  7  1  1  0  0  0  0
  8  3  2  0  0  0  0
  9  4  2  0  0  0  0
 10  5  1  0  0  0  0
 11 17  1  0  0  0  0
 12 15  1  0  0  0  0
 13 19  1  0  0  0  0
 13 11  1  0  0  0  0
 14 13  2  0  0  0  0
 15 11  2  0  0  0  0
 15 10  1  0  0  0  0
 16 18  1  0  0  0  0
 17 18  2  0  0  0  0
 19 16  2  0  0  0  0
 20 14  1  0  0  0  0
 20 12  2  0  0  0  0
 21 22  1  0  0  0  0
 22 26  1  0  0  0  0
 22 25  2  0  0  0  0
 23 24  2  0  0  0  0
 24 31  1  0  0  0  0
 25 29  1  0  0  0  0
 25 24  1  0  0  0  0
 26 23  1  0  0  0  0
 27 29  1  0  0  0  0
 27 28  1  0  0  0  0
 29 28  1  0  0  0  0
 31 30  1  0  0  0  0
M  END
>  <MODEL>
3

>  <REMARK>
 VINA RESULT:      -8.8      4.909      7.110
  Name = 
  6 active torsions:
  status: ('A' for Active; 'I' for Inactive)
    1  A    between atoms: C_2  and  C_21
    2  A    between atoms: C_11  and  C_20
    3  A    between atoms: C_14  and  O_29
    4  A    between atoms: C_16  and  C_31
    5  A    between atoms: C_18  and  C_20
    6  A    between atoms: C_21  and  C_23
                            x       y       z     vdW  Elec       q    Type
                         _______ _______ _______ _____ _____    ______ ____

>  <TORSDO>
F 6

$$$$
=
 OpenBabel11062415043D

 31 36  0  0  1  0  0  0  0  0999 V2000
  185.3600  178.9700  146.5540 S   0  0  0  0  0  0  0  0  0  0  0  0
  184.1710  178.4590  141.6820 C   0  0  0  0  0  3  0  0  0  0  0  0
  183.8180  178.8050  144.4170 C   0  0  0  0  0  0  0  0  0  0  0  0
  185.0830  178.6000  143.9120 C   0  0  0  0  0  0  0  0  0  0  0  0
  182.8810  178.6540  142.2020 C   0  0  0  0  0  0  0  0  0  0  0  0
  186.1650  178.5970  144.9420 C   0  0  2  0  0  3  0  0  0  0  0  0
  183.7540  178.9940  145.8130 N   0  0  0  0  0  2  0  0  0  0  0  0
  182.7010  178.8360  143.5820 C   0  0  0  0  0  3  0  0  0  0  0  0
  185.2810  178.4310  142.5380 C   0  0  0  0  0  3  0  0  0  0  0  0
  181.7080  178.7070  141.2840 C   0  0  0  0  0  2  0  0  0  0  0  0
  181.7340  178.4500  138.7590 C   0  0  0  0  0  0  0  0  0  0  0  0
  182.4990  176.6640  140.1590 N   0  0  0  0  0  0  0  0  0  0  0  0
  182.0350  177.6620  137.6250 C   0  0  0  0  0  0  0  0  0  0  0  0
  182.5640  176.3830  137.7870 C   0  0  0  0  0  3  0  0  0  0  0  0
  181.9760  177.9160  140.0400 C   0  0  0  0  0  0  0  0  0  0  0  0
  181.2740  179.4490  136.1770 C   0  0  0  0  0  3  0  0  0  0  0  0
  181.2010  179.7360  138.5820 C   0  0  0  0  0  3  0  0  0  0  0  0
  180.9740  180.2330  137.2950 C   0  0  0  0  0  3  0  0  0  0  0  0
  181.8040  178.1660  136.3420 C   0  0  0  0  0  3  0  0  0  0  0  0
  182.7920  175.8970  139.0750 C   0  0  0  0  0  3  0  0  0  0  0  0
  186.8200  177.2230  145.0280 C   0  0  0  0  0  2  0  0  0  0  0  0
  188.3180  177.2880  144.9470 C   0  0  0  0  0  0  0  0  0  0  0  0
  190.5060  177.3680  144.1800 N   0  0  0  0  0  0  0  0  0  0  0  0
  190.4840  177.2290  145.4640 C   0  0  0  0  0  0  0  0  0  0  0  0
  189.1320  177.1950  145.9880 C   0  0  0  0  0  0  0  0  0  0  0  0
  189.1320  177.4370  143.6960 C   0  0  0  0  0  2  0  0  0  0  0  0
  188.0990  178.1980  148.0000 C   0  0  0  0  0  2  0  0  0  0  0  0
  189.5270  177.8450  148.3460 C   0  0  0  0  0  2  0  0  0  0  0  0
  188.7320  176.9490  147.4130 C   0  0  0  0  0  3  0  0  0  0  0  0
  192.1410  175.8580  146.6610 C   0  0  0  0  0  1  0  0  0  0  0  0
  191.6360  177.1190  146.2470 O   0  0  0  0  0  0  0  0  0  0  0  0
  2  5  2  0  0  0  0
  2  9  1  0  0  0  0
  3  7  1  0  0  0  0
  4  3  1  0  0  0  0
  4  6  1  0  0  0  0
  5  8  1  0  0  0  0
  6 21  1  1  0  0  0
  6  1  1  0  0  0  0
  7  1  1  0  0  0  0
  8  3  2  0  0  0  0
  9  4  2  0  0  0  0
 10  5  1  0  0  0  0
 11 15  2  0  0  0  0
 13 14  2  0  0  0  0
 13 11  1  0  0  0  0
 14 20  1  0  0  0  0
 15 12  1  0  0  0  0
 15 10  1  0  0  0  0
 16 19  2  0  0  0  0
 16 18  1  0  0  0  0
 17 11  1  0  0  0  0
 18 17  2  0  0  0  0
 19 13  1  0  0  0  0
 20 12  2  0  0  0  0
 22 21  1  0  0  0  0
 22 25  2  0  0  0  0
 23 24  2  0  0  0  0
 24 25  1  0  0  0  0
 24 31  1  0  0  0  0
 25 29  1  0  0  0  0
 26 23  1  0  0  0  0
 26 22  1  0  0  0  0
 27 28  1  0  0  0  0
 29 27  1  0  0  0  0
 29 28  1  0  0  0  0
 31 30  1  0  0  0  0
M  END
>  <MODEL>
4

>  <REMARK>
 VINA RESULT:      -8.8      1.498      2.022
  Name = 
  6 active torsions:
  status: ('A' for Active; 'I' for Inactive)
    1  A    between atoms: C_2  and  C_21
    2  A    between atoms: C_11  and  C_20
    3  A    between atoms: C_14  and  O_29
    4  A    between atoms: C_16  and  C_31
    5  A    between atoms: C_18  and  C_20
    6  A    between atoms: C_21  and  C_23
                            x       y       z     vdW  Elec       q    Type
                         _______ _______ _______ _____ _____    ______ ____

>  <TORSDO>
F 6

$$$$
=
 OpenBabel11062415043D

 31 36  0  0  1  0  0  0  0  0999 V2000
  185.4810  179.0000  146.5220 S   0  0  0  0  0  0  0  0  0  0  0  0
  183.7830  178.4060  141.8140 C   0  0  0  0  0  3  0  0  0  0  0  0
  183.7210  178.7920  144.5650 C   0  0  0  0  0  0  0  0  0  0  0  0
  184.9270  178.5870  143.9320 C   0  0  0  0  0  0  0  0  0  0  0  0
  182.5540  178.6010  142.4660 C   0  0  0  0  0  0  0  0  0  0  0  0
  186.1120  178.6060  144.8400 C   0  0  2  0  0  3  0  0  0  0  0  0
  183.8050  179.0030  145.9570 N   0  0  0  0  0  2  0  0  0  0  0  0
  182.5210  178.8040  143.8540 C   0  0  0  0  0  3  0  0  0  0  0  0
  184.9780  178.3980  142.5460 C   0  0  0  0  0  3  0  0  0  0  0  0
  181.2890  178.6330  141.6770 C   0  0  0  0  0  2  0  0  0  0  0  0
  181.5650  177.6330  139.3610 C   0  0  0  0  0  0  0  0  0  0  0  0
  181.8420  179.9870  139.6960 N   0  0  0  0  0  0  0  0  0  0  0  0
  181.8240  177.8180  137.9840 C   0  0  0  0  0  0  0  0  0  0  0  0
  182.0900  179.0960  137.4930 C   0  0  0  0  0  3  0  0  0  0  0  0
  181.5840  178.7530  140.2130 C   0  0  0  0  0  0  0  0  0  0  0  0
  181.5460  175.4420  137.6070 C   0  0  0  0  0  3  0  0  0  0  0  0
  181.3000  176.3410  139.8430 C   0  0  0  0  0  3  0  0  0  0  0  0
  181.2890  175.2510  138.9680 C   0  0  0  0  0  3  0  0  0  0  0  0
  181.8130  176.7240  137.1160 C   0  0  0  0  0  3  0  0  0  0  0  0
  182.0940  180.1770  138.3730 C   0  0  0  0  0  3  0  0  0  0  0  0
  186.7830  177.2390  144.8760 C   0  0  0  0  0  2  0  0  0  0  0  0
  188.2810  177.3240  144.8060 C   0  0  0  0  0  0  0  0  0  0  0  0
  190.4730  177.4440  144.0570 N   0  0  0  0  0  0  0  0  0  0  0  0
  190.4440  177.2860  145.3390 C   0  0  0  0  0  0  0  0  0  0  0  0
  189.0890  177.2260  145.8520 C   0  0  0  0  0  0  0  0  0  0  0  0
  189.1020  177.5030  143.5640 C   0  0  0  0  0  2  0  0  0  0  0  0
  188.0020  178.1740  147.8620 C   0  0  0  0  0  2  0  0  0  0  0  0
  189.4360  177.8650  148.2210 C   0  0  0  0  0  2  0  0  0  0  0  0
  188.6820  176.9520  147.2700 C   0  0  0  0  0  3  0  0  0  0  0  0
  192.0550  175.9250  146.6070 C   0  0  0  0  0  1  0  0  0  0  0  0
  191.5910  177.1780  146.1280 O   0  0  0  0  0  0  0  0  0  0  0  0
  2  5  2  0  0  0  0
  2  9  1  0  0  0  0
  3  7  1  0  0  0  0
  4  3  1  0  0  0  0
  4  6  1  0  0  0  0
  5  8  1  0  0  0  0
  6 21  1  1  0  0  0
  6  1  1  0  0  0  0
  7  1  1  0  0  0  0
  8  3  2  0  0  0  0
  9  4  2  0  0  0  0
 10  5  1  0  0  0  0
 11 17  1  0  0  0  0
 11 15  2  0  0  0  0
 12 15  1  0  0  0  0
 13 11  1  0  0  0  0
 14 13  2  0  0  0  0
 14 20  1  0  0  0  0
 15 10  1  0  0  0  0
 16 18  1  0  0  0  0
 18 17  2  0  0  0  0
 19 16  2  0  0  0  0
 19 13  1  0  0  0  0
 20 12  2  0  0  0  0
 22 21  1  0  0  0  0
 22 25  2  0  0  0  0
 23 24  2  0  0  0  0
 24 25  1  0  0  0  0
 24 31  1  0  0  0  0
 25 29  1  0  0  0  0
 26 23  1  0  0  0  0
 26 22  1  0  0  0  0
 27 28  1  0  0  0  0
 29 27  1  0  0  0  0
 29 28  1  0  0  0  0
 31 30  1  0  0  0  0
M  END
>  <MODEL>
5

>  <REMARK>
 VINA RESULT:      -8.7      1.248      1.935
  Name = 
  6 active torsions:
  status: ('A' for Active; 'I' for Inactive)
    1  A    between atoms: C_2  and  C_21
    2  A    between atoms: C_11  and  C_20
    3  A    between atoms: C_14  and  O_29
    4  A    between atoms: C_16  and  C_31
    5  A    between atoms: C_18  and  C_20
    6  A    between atoms: C_21  and  C_23
                            x       y       z     vdW  Elec       q    Type
                         _______ _______ _______ _____ _____    ______ ____

>  <TORSDO>
F 6

$$$$
=
 OpenBabel11062415043D

 31 36  0  0  1  0  0  0  0  0999 V2000
  185.6770  178.9970  141.7790 S   0  0  0  0  0  0  0  0  0  0  0  0
  190.0100  177.5410  139.6550 C   0  0  0  0  0  3  0  0  0  0  0  0
  187.3540  178.3380  139.8490 C   0  0  0  0  0  0  0  0  0  0  0  0
  188.0950  178.1450  140.9950 C   0  0  0  0  0  0  0  0  0  0  0  0
  189.2460  177.7250  138.4900 C   0  0  0  0  0  0  0  0  0  0  0  0
  187.3510  178.4080  142.2630 C   0  0  2  0  0  3  0  0  0  0  0  0
  186.0270  178.7660  140.0610 N   0  0  0  0  0  2  0  0  0  0  0  0
  187.9080  178.1340  138.5860 C   0  0  0  0  0  3  0  0  0  0  0  0
  189.4350  177.7510  140.9160 C   0  0  0  0  0  3  0  0  0  0  0  0
  189.8710  177.5230  137.1510 C   0  0  0  0  0  2  0  0  0  0  0  0
  191.4110  175.5110  137.0190 C   0  0  0  0  0  0  0  0  0  0  0  0
  189.0700  175.2640  136.5850 N   0  0  0  0  0  0  0  0  0  0  0  0
  191.5790  174.1250  136.7970 C   0  0  0  0  0  0  0  0  0  0  0  0
  190.4760  173.3360  136.4710 C   0  0  0  0  0  3  0  0  0  0  0  0
  190.1230  176.0680  136.9010 C   0  0  0  0  0  0  0  0  0  0  0  0
  193.9510  174.3370  137.2340 C   0  0  0  0  0  3  0  0  0  0  0  0
  192.5290  176.2950  137.3460 C   0  0  0  0  0  3  0  0  0  0  0  0
  193.7930  175.7080  137.4540 C   0  0  0  0  0  3  0  0  0  0  0  0
  192.8450  173.5470  136.9070 C   0  0  0  0  0  3  0  0  0  0  0  0
  189.2180  173.9290  136.3690 C   0  0  0  0  0  3  0  0  0  0  0  0
  187.2030  177.1260  143.0740 C   0  0  0  0  0  2  0  0  0  0  0  0
  187.3910  177.3460  144.5480 C   0  0  0  0  0  0  0  0  0  0  0  0
  187.0600  177.8810  146.7810 N   0  0  0  0  0  0  0  0  0  0  0  0
  188.3040  177.6070  146.5640 C   0  0  0  0  0  0  0  0  0  0  0  0
  188.5510  177.2470  145.1810 C   0  0  0  0  0  0  0  0  0  0  0  0
  186.3260  177.7340  145.5290 C   0  0  0  0  0  2  0  0  0  0  0  0
  191.0000  177.4270  145.4790 C   0  0  0  0  0  2  0  0  0  0  0  0
  190.6230  178.2650  144.2790 C   0  0  0  0  0  2  0  0  0  0  0  0
  189.8860  176.9660  144.5560 C   0  0  0  0  0  3  0  0  0  0  0  0
  189.0460  178.2530  148.8200 C   0  0  0  0  0  1  0  0  0  0  0  0
  189.2890  177.6630  147.5520 O   0  0  0  0  0  0  0  0  0  0  0  0
  1  6  1  0  0  0  0
  2  9  1  0  0  0  0
  3  7  1  0  0  0  0
  3  4  1  0  0  0  0
  4  6  1  0  0  0  0
  5  8  1  0  0  0  0
  5  2  2  0  0  0  0
  6 21  1  1  0  0  0
  7  1  1  0  0  0  0
  8  3  2  0  0  0  0
  9  4  2  0  0  0  0
 10  5  1  0  0  0  0
 11 17  1  0  0  0  0
 12 15  1  0  0  0  0
 13 19  1  0  0  0  0
 13 11  1  0  0  0  0
 14 13  2  0  0  0  0
 15 11  2  0  0  0  0
 15 10  1  0  0  0  0
 16 18  1  0  0  0  0
 17 18  2  0  0  0  0
 19 16  2  0  0  0  0
 20 14  1  0  0  0  0
 20 12  2  0  0  0  0
 21 22  1  0  0  0  0
 22 25  2  0  0  0  0
 22 26  1  0  0  0  0
 24 23  2  0  0  0  0
 24 31  1  0  0  0  0
 25 24  1  0  0  0  0
 26 23  1  0  0  0  0
 28 29  1  0  0  0  0
 28 27  1  0  0  0  0
 29 25  1  0  0  0  0
 29 27  1  0  0  0  0
 31 30  1  0  0  0  0
M  END
>  <MODEL>
6

>  <REMARK>
 VINA RESULT:      -8.6      4.957      7.197
  Name = 
  6 active torsions:
  status: ('A' for Active; 'I' for Inactive)
    1  A    between atoms: C_2  and  C_21
    2  A    between atoms: C_11  and  C_20
    3  A    between atoms: C_14  and  O_29
    4  A    between atoms: C_16  and  C_31
    5  A    between atoms: C_18  and  C_20
    6  A    between atoms: C_21  and  C_23
                            x       y       z     vdW  Elec       q    Type
                         _______ _______ _______ _____ _____    ______ ____

>  <TORSDO>
F 6

$$$$
=
 OpenBabel11062415043D

 31 36  0  0  1  0  0  0  0  0999 V2000
  185.6000  178.9860  146.4160 S   0  0  0  0  0  0  0  0  0  0  0  0
  183.7470  178.4510  141.7590 C   0  0  0  0  0  3  0  0  0  0  0  0
  183.7760  178.8080  144.5140 C   0  0  0  0  0  0  0  0  0  0  0  0
  184.9600  178.6040  143.8400 C   0  0  0  0  0  0  0  0  0  0  0  0
  182.5410  178.6440  142.4520 C   0  0  0  0  0  0  0  0  0  0  0  0
  186.1740  178.6080  144.7090 C   0  0  2  0  0  3  0  0  0  0  0  0
  183.9060  179.0030  145.9050 N   0  0  0  0  0  2  0  0  0  0  0  0
  182.5540  178.8320  143.8430 C   0  0  0  0  0  3  0  0  0  0  0  0
  184.9650  178.4300  142.4520 C   0  0  0  0  0  3  0  0  0  0  0  0
  181.2510  178.6900  141.7060 C   0  0  0  0  0  2  0  0  0  0  0  0
  181.4290  177.6310  139.4060 C   0  0  0  0  0  0  0  0  0  0  0  0
  181.7640  179.9860  139.6760 N   0  0  0  0  0  0  0  0  0  0  0  0
  181.6460  177.7800  138.0170 C   0  0  0  0  0  0  0  0  0  0  0  0
  181.9200  179.0400  137.4870 C   0  0  0  0  0  3  0  0  0  0  0  0
  181.4990  178.7710  140.2300 C   0  0  0  0  0  0  0  0  0  0  0  0
  181.3080  175.4020  137.7060 C   0  0  0  0  0  3  0  0  0  0  0  0
  181.1550  176.3570  139.9270 C   0  0  0  0  0  3  0  0  0  0  0  0
  181.0940  175.2480  139.0790 C   0  0  0  0  0  3  0  0  0  0  0  0
  181.5830  176.6660  137.1760 C   0  0  0  0  0  3  0  0  0  0  0  0
  181.9740  180.1420  138.3410 C   0  0  0  0  0  3  0  0  0  0  0  0
  186.8390  177.2370  144.7090 C   0  0  0  0  0  2  0  0  0  0  0  0
  188.0050  177.1560  145.6520 C   0  0  0  0  0  0  0  0  0  0  0  0
  189.3360  177.1210  147.5520 N   0  0  0  0  0  0  0  0  0  0  0  0
  190.0700  177.1210  146.4890 C   0  0  0  0  0  0  0  0  0  0  0  0
  189.2750  177.1230  145.2760 C   0  0  0  0  0  0  0  0  0  0  0  0
  187.9340  177.1280  147.1500 C   0  0  0  0  0  2  0  0  0  0  0  0
  189.3670  176.0030  143.0720 C   0  0  0  0  0  2  0  0  0  0  0  0
  190.7820  176.1040  143.5920 C   0  0  0  0  0  2  0  0  0  0  0  0
  189.7920  177.2220  143.8710 C   0  0  0  0  0  3  0  0  0  0  0  0
  192.2090  176.0640  147.0920 C   0  0  0  0  0  1  0  0  0  0  0  0
  191.4660  177.1280  146.5170 O   0  0  0  0  0  0  0  0  0  0  0  0
  2  5  2  0  0  0  0
  2  9  1  0  0  0  0
  3  7  1  0  0  0  0
  4  3  1  0  0  0  0
  4  6  1  0  0  0  0
  5  8  1  0  0  0  0
  6 21  1  1  0  0  0
  6  1  1  0  0  0  0
  7  1  1  0  0  0  0
  8  3  2  0  0  0  0
  9  4  2  0  0  0  0
 10  5  1  0  0  0  0
 11 17  1  0  0  0  0
 11 15  2  0  0  0  0
 12 15  1  0  0  0  0
 13 11  1  0  0  0  0
 14 13  2  0  0  0  0
 14 20  1  0  0  0  0
 15 10  1  0  0  0  0
 16 18  1  0  0  0  0
 18 17  2  0  0  0  0
 19 16  2  0  0  0  0
 19 13  1  0  0  0  0
 20 12  2  0  0  0  0
 21 22  1  0  0  0  0
 22 26  1  0  0  0  0
 24 31  1  0  0  0  0
 24 23  2  0  0  0  0
 25 22  2  0  0  0  0
 25 24  1  0  0  0  0
 26 23  1  0  0  0  0
 27 28  1  0  0  0  0
 27 29  1  0  0  0  0
 28 29  1  0  0  0  0
 29 25  1  0  0  0  0
 31 30  1  0  0  0  0
M  END
>  <MODEL>
7

>  <REMARK>
 VINA RESULT:      -8.5      1.503      2.623
  Name = 
  6 active torsions:
  status: ('A' for Active; 'I' for Inactive)
    1  A    between atoms: C_2  and  C_21
    2  A    between atoms: C_11  and  C_20
    3  A    between atoms: C_14  and  O_29
    4  A    between atoms: C_16  and  C_31
    5  A    between atoms: C_18  and  C_20
    6  A    between atoms: C_21  and  C_23
                            x       y       z     vdW  Elec       q    Type
                         _______ _______ _______ _____ _____    ______ ____

>  <TORSDO>
F 6

$$$$
=
 OpenBabel11062415043D

 31 36  0  0  1  0  0  0  0  0999 V2000
  185.4240  178.9200  146.5650 S   0  0  0  0  0  0  0  0  0  0  0  0
  184.1800  178.6250  141.6900 C   0  0  0  0  0  3  0  0  0  0  0  0
  183.8590  178.8670  144.4390 C   0  0  0  0  0  0  0  0  0  0  0  0
  185.1150  178.6610  143.9140 C   0  0  0  0  0  0  0  0  0  0  0  0
  182.8980  178.8210  142.2300 C   0  0  0  0  0  0  0  0  0  0  0  0
  186.2070  178.5980  144.9320 C   0  0  2  0  0  3  0  0  0  0  0  0
  183.8110  179.0020  145.8430 N   0  0  0  0  0  2  0  0  0  0  0  0
  182.7350  178.9510  143.6180 C   0  0  0  0  0  3  0  0  0  0  0  0
  185.2970  178.5440  142.5320 C   0  0  0  0  0  3  0  0  0  0  0  0
  181.7170  178.9310  141.3270 C   0  0  0  0  0  2  0  0  0  0  0  0
  181.6630  178.6080  138.8110 C   0  0  0  0  0  0  0  0  0  0  0  0
  182.3810  176.8250  140.2360 N   0  0  0  0  0  0  0  0  0  0  0  0
  181.8960  177.7790  137.6900 C   0  0  0  0  0  0  0  0  0  0  0  0
  182.3690  176.4800  137.8720 C   0  0  0  0  0  3  0  0  0  0  0  0
  181.9140  178.0970  140.0980 C   0  0  0  0  0  0  0  0  0  0  0  0
  181.1800  179.5630  136.2160 C   0  0  0  0  0  3  0  0  0  0  0  0
  181.1850  179.9130  138.6130 C   0  0  0  0  0  3  0  0  0  0  0  0
  180.9470  180.3880  137.3200 C   0  0  0  0  0  3  0  0  0  0  0  0
  181.6540  178.2600  136.4010 C   0  0  0  0  0  3  0  0  0  0  0  0
  182.6090  176.0180  139.1660 C   0  0  0  0  0  3  0  0  0  0  0  0
  186.8380  177.2110  144.9560 C   0  0  0  0  0  2  0  0  0  0  0  0
  188.0540  177.1410  145.8350 C   0  0  0  0  0  0  0  0  0  0  0  0
  189.4860  177.1270  147.6610 N   0  0  0  0  0  0  0  0  0  0  0  0
  190.1610  177.1170  146.5600 C   0  0  0  0  0  0  0  0  0  0  0  0
  189.3020  177.1050  145.3910 C   0  0  0  0  0  0  0  0  0  0  0  0
  188.0640  177.1280  147.3350 C   0  0  0  0  0  2  0  0  0  0  0  0
  189.2080  176.0030  143.1790 C   0  0  0  0  0  2  0  0  0  0  0  0
  190.6540  176.0270  143.6160 C   0  0  0  0  0  2  0  0  0  0  0  0
  189.7410  177.1910  143.9590 C   0  0  0  0  0  3  0  0  0  0  0  0
  192.3300  176.0400  146.9980 C   0  0  0  0  0  1  0  0  0  0  0  0
  191.5560  177.1260  146.5110 O   0  0  0  0  0  0  0  0  0  0  0  0
  2  5  2  0  0  0  0
  2  9  1  0  0  0  0
  3  7  1  0  0  0  0
  4  3  1  0  0  0  0
  4  6  1  0  0  0  0
  5  8  1  0  0  0  0
  6 21  1  1  0  0  0
  6  1  1  0  0  0  0
  7  1  1  0  0  0  0
  8  3  2  0  0  0  0
  9  4  2  0  0  0  0
 10  5  1  0  0  0  0
 11 15  2  0  0  0  0
 13 14  2  0  0  0  0
 13 11  1  0  0  0  0
 14 20  1  0  0  0  0
 15 12  1  0  0  0  0
 15 10  1  0  0  0  0
 16 19  2  0  0  0  0
 16 18  1  0  0  0  0
 17 11  1  0  0  0  0
 18 17  2  0  0  0  0
 19 13  1  0  0  0  0
 20 12  2  0  0  0  0
 21 22  1  0  0  0  0
 22 26  1  0  0  0  0
 24 23  2  0  0  0  0
 25 22  2  0  0  0  0
 25 24  1  0  0  0  0
 26 23  1  0  0  0  0
 27 28  1  0  0  0  0
 27 29  1  0  0  0  0
 28 29  1  0  0  0  0
 29 25  1  0  0  0  0
 31 24  1  0  0  0  0
 31 30  1  0  0  0  0
M  END
>  <MODEL>
8

>  <REMARK>
 VINA RESULT:      -8.5      1.735      2.731
  Name = 
  6 active torsions:
  status: ('A' for Active; 'I' for Inactive)
    1  A    between atoms: C_2  and  C_21
    2  A    between atoms: C_11  and  C_20
    3  A    between atoms: C_14  and  O_29
    4  A    between atoms: C_16  and  C_31
    5  A    between atoms: C_18  and  C_20
    6  A    between atoms: C_21  and  C_23
                            x       y       z     vdW  Elec       q    Type
                         _______ _______ _______ _____ _____    ______ ____

>  <TORSDO>
F 6

$$$$
=
 OpenBabel11062415043D

 31 36  0  0  1  0  0  0  0  0999 V2000
  185.6940  179.0730  141.9270 S   0  0  0  0  0  0  0  0  0  0  0  0
  189.9840  177.5180  139.7850 C   0  0  0  0  0  3  0  0  0  0  0  0
  187.3480  178.3750  139.9900 C   0  0  0  0  0  0  0  0  0  0  0  0
  188.0890  178.1650  141.1330 C   0  0  0  0  0  0  0  0  0  0  0  0
  189.2200  177.7190  138.6230 C   0  0  0  0  0  0  0  0  0  0  0  0
  187.3560  178.4450  142.4040 C   0  0  2  0  0  3  0  0  0  0  0  0
  186.0320  178.8340  140.2070 N   0  0  0  0  0  2  0  0  0  0  0  0
  187.8920  178.1590  138.7250 C   0  0  0  0  0  3  0  0  0  0  0  0
  189.4190  177.7410  141.0490 C   0  0  0  0  0  3  0  0  0  0  0  0
  189.8350  177.5040  137.2820 C   0  0  0  0  0  2  0  0  0  0  0  0
  189.3900  175.0370  136.8880 C   0  0  0  0  0  0  0  0  0  0  0  0
  191.6290  175.8190  137.2110 N   0  0  0  0  0  0  0  0  0  0  0  0
  189.8920  173.7240  136.7310 C   0  0  0  0  0  0  0  0  0  0  0  0
  191.2640  173.4900  136.8200 C   0  0  0  0  0  3  0  0  0  0  0  0
  190.2960  176.0860  137.1350 C   0  0  0  0  0  0  0  0  0  0  0  0
  187.6410  172.8980  136.3960 C   0  0  0  0  0  3  0  0  0  0  0  0
  188.0070  175.2590  136.7970 C   0  0  0  0  0  3  0  0  0  0  0  0
  187.1370  174.1930  136.5500 C   0  0  0  0  0  3  0  0  0  0  0  0
  189.0160  172.6640  136.4860 C   0  0  0  0  0  3  0  0  0  0  0  0
  192.1240  174.5610  137.0620 C   0  0  0  0  0  3  0  0  0  0  0  0
  187.1820  177.1670  143.2150 C   0  0  0  0  0  2  0  0  0  0  0  0
  187.9680  177.1800  144.4950 C   0  0  0  0  0  0  0  0  0  0  0  0
  189.6630  177.0150  146.0710 N   0  0  0  0  0  0  0  0  0  0  0  0
  188.5280  177.2220  146.6520 C   0  0  0  0  0  0  0  0  0  0  0  0
  187.4410  177.3520  145.6990 C   0  0  0  0  0  0  0  0  0  0  0  0
  189.4480  176.9780  144.6290 C   0  0  0  0  0  2  0  0  0  0  0  0
  185.4800  178.8520  145.5520 C   0  0  0  0  0  2  0  0  0  0  0  0
  185.7740  178.6260  147.0170 C   0  0  0  0  0  2  0  0  0  0  0  0
  185.9840  177.4980  146.0220 C   0  0  0  0  0  3  0  0  0  0  0  0
  189.0520  178.2780  148.8120 C   0  0  0  0  0  1  0  0  0  0  0  0
  188.3740  177.3010  148.0370 O   0  0  0  0  0  0  0  0  0  0  0  0
  1  6  1  0  0  0  0
  2  9  1  0  0  0  0
  3  7  1  0  0  0  0
  3  4  1  0  0  0  0
  4  6  1  0  0  0  0
  5  8  1  0  0  0  0
  5  2  2  0  0  0  0
  6 21  1  1  0  0  0
  7  1  1  0  0  0  0
  8  3  2  0  0  0  0
  9  4  2  0  0  0  0
 10  5  1  0  0  0  0
 11 15  2  0  0  0  0
 13 14  2  0  0  0  0
 13 11  1  0  0  0  0
 14 20  1  0  0  0  0
 15 12  1  0  0  0  0
 15 10  1  0  0  0  0
 16 19  2  0  0  0  0
 16 18  1  0  0  0  0
 17 11  1  0  0  0  0
 18 17  2  0  0  0  0
 19 13  1  0  0  0  0
 20 12  2  0  0  0  0
 21 22  1  0  0  0  0
 22 26  1  0  0  0  0
 22 25  2  0  0  0  0
 23 24  2  0  0  0  0
 24 31  1  0  0  0  0
 25 29  1  0  0  0  0
 25 24  1  0  0  0  0
 26 23  1  0  0  0  0
 27 29  1  0  0  0  0
 27 28  1  0  0  0  0
 29 28  1  0  0  0  0
 31 30  1  0  0  0  0
M  END
>  <MODEL>
9

>  <REMARK>
 VINA RESULT:      -8.4      4.437      6.104
  Name = 
  6 active torsions:
  status: ('A' for Active; 'I' for Inactive)
    1  A    between atoms: C_2  and  C_21
    2  A    between atoms: C_11  and  C_20
    3  A    between atoms: C_14  and  O_29
    4  A    between atoms: C_16  and  C_31
    5  A    between atoms: C_18  and  C_20
    6  A    between atoms: C_21  and  C_23
                            x       y       z     vdW  Elec       q    Type
                         _______ _______ _______ _____ _____    ______ ____

>  <TORSDO>
F 6

$$$$
