=
 OpenBabel11062414303D

 31 34  0  0  1  0  0  0  0  0999 V2000
  184.0410  178.6350  145.0060 C   0  0  0  0  0  2  0  0  0  0  0  0
  185.3560  178.9220  145.7180 C   0  0  0  0  0  2  0  0  0  0  0  0
  186.1510  177.6380  145.8800 C   0  0  0  0  0  2  0  0  0  0  0  0
  187.1590  177.7750  147.0100 C   0  0  2  0  0  3  0  0  0  0  0  0
  186.9760  178.9890  147.6760 O   0  0  0  0  0  1  0  0  0  0  0  0
  188.5490  177.7030  146.4730 C   0  0  0  0  0  0  0  0  0  0  0  0
  188.7720  177.9420  145.0780 N   0  0  0  0  0  2  0  0  0  0  0  0
  189.5090  177.4390  147.2470 O   0  0  0  0  0  0  0  0  0  0  0  0
  191.9010  177.2590  145.8550 O   0  0  0  0  0  1  0  0  0  0  0  0
  190.9150  176.7000  145.0380 C   0  0  2  0  0  3  0  0  0  0  0  0
  190.7300  179.0950  144.2400 C   0  0  0  0  0  1  0  0  0  0  0  0
  191.5440  175.8960  143.9210 C   0  0  0  0  0  2  0  0  0  0  0  0
  190.7300  176.1520  142.6580 C   0  0  2  0  0  3  0  0  0  0  0  0
  189.7730  177.2540  142.9300 C   0  0  2  0  0  3  0  0  0  0  0  0
  190.0310  177.7470  144.3550 C   0  0  2  0  0  0  0  0  0  0  0  0
  189.3660  175.9020  142.9060 O   0  0  0  0  0  0  0  0  0  0  0  0
  184.0070  179.1960  143.5840 C   0  0  2  0  0  3  0  0  0  0  0  0
  182.7420  179.0090  143.0160 O   0  0  0  0  0  0  0  0  0  0  0  0
  181.8670  178.9250  144.1010 C   0  0  0  0  0  2  0  0  0  0  0  0
  180.5530  178.4800  143.6350 C   0  0  0  0  0  0  0  0  0  0  0  0
  179.5140  178.1290  143.2680 N   0  0  0  0  0  0  0  0  0  0  0  0
  185.0770  178.5600  142.7110 C   0  0  0  0  0  2  0  0  0  0  0  0
  185.3390  179.4000  141.5540 N   0  0  0  0  0  2  0  0  0  0  0  0
  183.9270  178.9700  139.3780 S   0  0  0  0  0  0  0  0  0  0  0  0
  185.3480  178.9460  140.1950 C   0  0  0  0  0  0  0  0  0  0  0  0
  186.6050  177.9950  138.1780 C   0  0  0  0  0  2  0  0  0  0  0  0
  187.8070  178.3010  140.2440 C   0  0  0  0  0  2  0  0  0  0  0  0
  189.0210  178.6170  138.0860 C   0  0  0  0  0  2  0  0  0  0  0  0
  186.5400  178.4460  139.5550 N   0  0  0  0  0  0  0  0  0  0  0  0
  188.7790  177.6800  139.2540 C   0  0  2  0  0  3  0  0  0  0  0  0
  188.0190  177.4860  137.9490 C   0  0  1  0  0  3  0  0  0  0  0  0
  1  2  1  0  0  0  0
  2  3  1  0  0  0  0
  3  4  1  0  0  0  0
  4  5  1  6  0  0  0
  6  4  1  0  0  0  0
  6  8  2  0  0  0  0
  7  6  1  0  0  0  0
 10  9  1  6  0  0  0
 12 10  1  0  0  0  0
 13 16  1  0  0  0  0
 13 14  1  0  0  0  0
 13 12  1  1  0  0  0
 14 16  1  1  0  0  0
 14 15  1  0  0  0  0
 15 11  1  6  0  0  0
 15 10  1  0  0  0  0
 15  7  1  0  0  0  0
 17 22  1  6  0  0  0
 17  1  1  0  0  0  0
 18 17  1  0  0  0  0
 18 19  1  0  0  0  0
 20 19  1  0  0  0  0
 21 20  3  0  0  0  0
 23 22  1  0  0  0  0
 24 25  2  0  0  0  0
 25 23  1  0  0  0  0
 26 29  1  0  0  0  0
 29 25  1  0  0  0  0
 29 27  1  0  0  0  0
 30 28  1  6  0  0  0
 30 27  1  0  0  0  0
 31 28  1  6  0  0  0
 31 26  1  0  0  0  0
 31 30  1  0  0  0  0
M  END
>  <MODEL>
1

>  <REMARK>
 VINA RESULT:      -7.3      0.000      0.000
  Name = 
  13 active torsions:
  status: ('A' for Active; 'I' for Inactive)
    1  A    between atoms: C_1  and  C_10
    2  A    between atoms: C_1  and  C_20
    3  A    between atoms: N_3  and  C_18
    4  A    between atoms: N_3  and  C_25
    5  A    between atoms: C_10  and  C_21
    6  A    between atoms: C_13  and  C_21
    7  A    between atoms: C_13  and  C_31
    8  A    between atoms: N_14  and  C_18
    9  A    between atoms: C_15  and  C_26
   10  A    between atoms: O_16  and  C_26
   11  A    between atoms: O_16  and  C_31
   12  A    between atoms: C_23  and  N_24
   13  A    between atoms: C_25  and  C_31
                            x       y       z     vdW  Elec       q    Type
                         _______ _______ _______ _____ _____    ______ ____

>  <TORSDO>
F 13

$$$$
=
 OpenBabel11062414303D

 31 34  0  0  1  0  0  0  0  0999 V2000
  191.4240  176.6370  143.7450 C   0  0  0  0  0  2  0  0  0  0  0  0
  191.4970  176.9430  142.2550 C   0  0  0  0  0  2  0  0  0  0  0  0
  190.2380  176.4500  141.5610 C   0  0  0  0  0  2  0  0  0  0  0  0
  189.6610  177.5400  140.6700 C   0  0  2  0  0  3  0  0  0  0  0  0
  188.4500  177.9990  141.1910 O   0  0  0  0  0  1  0  0  0  0  0  0
  189.4470  177.0170  139.2890 C   0  0  0  0  0  0  0  0  0  0  0  0
  188.3330  177.4950  138.5260 N   0  0  0  0  0  2  0  0  0  0  0  0
  190.2460  176.1680  138.8080 O   0  0  0  0  0  0  0  0  0  0  0  0
  185.4910  177.3690  136.8610 O   0  0  0  0  0  1  0  0  0  0  0  0
  186.7810  177.8520  136.6290 C   0  0  2  0  0  3  0  0  0  0  0  0
  187.4060  175.5380  137.4420 C   0  0  0  0  0  1  0  0  0  0  0  0
  187.0690  177.9060  135.1440 C   0  0  0  0  0  2  0  0  0  0  0  0
  188.5110  177.4570  134.9400 C   0  0  2  0  0  3  0  0  0  0  0  0
  189.0250  176.9260  136.2270 C   0  0  2  0  0  3  0  0  0  0  0  0
  187.8770  176.9720  137.2360 C   0  0  2  0  0  0  0  0  0  0  0  0
  189.3690  178.2130  135.7620 O   0  0  0  0  0  0  0  0  0  0  0  0
  191.3670  177.9000  144.6030 C   0  0  2  0  0  3  0  0  0  0  0  0
  191.6830  177.6010  145.9330 O   0  0  0  0  0  0  0  0  0  0  0  0
  191.8500  176.2160  145.9630 C   0  0  0  0  0  2  0  0  0  0  0  0
  192.3180  175.8080  147.2880 C   0  0  0  0  0  0  0  0  0  0  0  0
  192.6870  175.4860  148.3360 N   0  0  0  0  0  0  0  0  0  0  0  0
  190.0020  178.5650  144.5210 C   0  0  0  0  0  2  0  0  0  0  0  0
  188.9570  177.5850  144.7700 N   0  0  0  0  0  2  0  0  0  0  0  0
  188.1440  177.4980  147.2690 S   0  0  0  0  0  0  0  0  0  0  0  0
  187.8620  177.7640  145.6770 C   0  0  0  0  0  0  0  0  0  0  0  0
  185.5060  178.6780  146.0840 C   0  0  0  0  0  2  0  0  0  0  0  0
  186.0880  177.9430  143.8650 C   0  0  0  0  0  2  0  0  0  0  0  0
  184.5070  179.8580  144.1240 C   0  0  0  0  0  2  0  0  0  0  0  0
  186.5400  178.1290  145.2290 N   0  0  0  0  0  0  0  0  0  0  0  0
  184.6310  178.3770  143.8210 C   0  0  2  0  0  3  0  0  0  0  0  0
  184.2640  178.8410  145.2240 C   0  0  1  0  0  3  0  0  0  0  0  0
  2  1  1  0  0  0  0
  3  2  1  0  0  0  0
  4  5  1  1  0  0  0
  4  3  1  0  0  0  0
  6  4  1  0  0  0  0
  7  6  1  0  0  0  0
  8  6  2  0  0  0  0
 10  9  1  6  0  0  0
 10 15  1  0  0  0  0
 12 10  1  0  0  0  0
 13 12  1  1  0  0  0
 13 16  1  0  0  0  0
 13 14  1  0  0  0  0
 14 16  1  1  0  0  0
 14 15  1  0  0  0  0
 15 11  1  1  0  0  0
 15  7  1  0  0  0  0
 17  1  1  6  0  0  0
 17 18  1  0  0  0  0
 18 19  1  0  0  0  0
 19 20  1  0  0  0  0
 20 21  3  0  0  0  0
 22 17  1  0  0  0  0
 22 23  1  0  0  0  0
 23 25  1  0  0  0  0
 25 24  2  0  0  0  0
 27 29  1  0  0  0  0
 29 25  1  0  0  0  0
 29 26  1  0  0  0  0
 30 27  1  1  0  0  0
 30 28  1  0  0  0  0
 30 31  1  0  0  0  0
 31 28  1  6  0  0  0
 31 26  1  0  0  0  0
M  END
>  <MODEL>
2

>  <REMARK>
 VINA RESULT:      -7.1      3.168      8.218
  Name = 
  13 active torsions:
  status: ('A' for Active; 'I' for Inactive)
    1  A    between atoms: C_1  and  C_10
    2  A    between atoms: C_1  and  C_20
    3  A    between atoms: N_3  and  C_18
    4  A    between atoms: N_3  and  C_25
    5  A    between atoms: C_10  and  C_21
    6  A    between atoms: C_13  and  C_21
    7  A    between atoms: C_13  and  C_31
    8  A    between atoms: N_14  and  C_18
    9  A    between atoms: C_15  and  C_26
   10  A    between atoms: O_16  and  C_26
   11  A    between atoms: O_16  and  C_31
   12  A    between atoms: C_23  and  N_24
   13  A    between atoms: C_25  and  C_31
                            x       y       z     vdW  Elec       q    Type
                         _______ _______ _______ _____ _____    ______ ____

>  <TORSDO>
F 13

$$$$
=
 OpenBabel11062414303D

 31 34  0  0  1  0  0  0  0  0999 V2000
  187.0570  178.3120  142.5320 C   0  0  0  0  0  2  0  0  0  0  0  0
  188.1450  177.2940  142.2170 C   0  0  0  0  0  2  0  0  0  0  0  0
  189.3010  177.9730  141.5030 C   0  0  0  0  0  2  0  0  0  0  0  0
  190.3190  176.9430  141.0410 C   0  0  2  0  0  3  0  0  0  0  0  0
  191.6160  177.4040  141.2760 O   0  0  0  0  0  1  0  0  0  0  0  0
  190.1440  176.6610  139.5860 C   0  0  0  0  0  0  0  0  0  0  0  0
  189.3590  177.5580  138.7910 N   0  0  0  0  0  2  0  0  0  0  0  0
  190.6870  175.6460  139.0730 O   0  0  0  0  0  0  0  0  0  0  0  0
  188.2580  175.0390  136.9720 O   0  0  0  0  0  1  0  0  0  0  0  0
  187.8130  176.3220  137.3030 C   0  0  2  0  0  3  0  0  0  0  0  0
  190.1660  176.9290  136.5960 C   0  0  0  0  0  1  0  0  0  0  0  0
  186.8690  176.8460  136.2410 C   0  0  0  0  0  2  0  0  0  0  0  0
  187.1820  178.3240  136.0400 C   0  0  2  0  0  3  0  0  0  0  0  0
  188.4250  178.6480  136.7840 C   0  0  2  0  0  3  0  0  0  0  0  0
  188.9440  177.3490  137.4020 C   0  0  2  0  0  0  0  0  0  0  0  0
  187.1490  178.9940  137.2790 O   0  0  0  0  0  0  0  0  0  0  0  0
  185.9700  177.7480  143.4470 C   0  0  2  0  0  3  0  0  0  0  0  0
  184.7010  178.0630  142.9480 O   0  0  0  0  0  0  0  0  0  0  0  0
  184.0560  178.7270  143.9930 C   0  0  0  0  0  2  0  0  0  0  0  0
  182.6700  179.0040  143.6140 C   0  0  0  0  0  0  0  0  0  0  0  0
  181.5750  179.2240  143.3140 N   0  0  0  0  0  0  0  0  0  0  0  0
  186.1210  178.2640  144.8700 C   0  0  0  0  0  2  0  0  0  0  0  0
  186.8580  177.3000  145.6710 N   0  0  0  0  0  2  0  0  0  0  0  0
  187.6120  178.2150  148.0180 S   0  0  0  0  0  0  0  0  0  0  0  0
  187.9590  177.6190  146.5310 C   0  0  0  0  0  0  0  0  0  0  0  0
  190.2990  176.6110  146.7780 C   0  0  0  0  0  2  0  0  0  0  0  0
  189.9090  178.1960  145.0060 C   0  0  0  0  0  2  0  0  0  0  0  0
  191.5340  176.3390  144.6260 C   0  0  0  0  0  2  0  0  0  0  0  0
  189.3330  177.4660  146.1180 N   0  0  0  0  0  0  0  0  0  0  0  0
  191.3800  177.8140  144.9440 C   0  0  2  0  0  3  0  0  0  0  0  0
  191.6250  176.8130  146.0640 C   0  0  1  0  0  3  0  0  0  0  0  0
  2  1  1  0  0  0  0
  3  2  1  0  0  0  0
  4  5  1  6  0  0  0
  4  3  1  0  0  0  0
  6  4  1  0  0  0  0
  7  6  1  0  0  0  0
  8  6  2  0  0  0  0
 10  9  1  6  0  0  0
 10 15  1  0  0  0  0
 12 10  1  0  0  0  0
 13 12  1  1  0  0  0
 13 14  1  0  0  0  0
 13 16  1  0  0  0  0
 14 16  1  1  0  0  0
 14 15  1  0  0  0  0
 15 11  1  6  0  0  0
 15  7  1  0  0  0  0
 17  1  1  6  0  0  0
 17 22  1  0  0  0  0
 18 17  1  0  0  0  0
 18 19  1  0  0  0  0
 20 19  1  0  0  0  0
 21 20  3  0  0  0  0
 22 23  1  0  0  0  0
 23 25  1  0  0  0  0
 25 24  2  0  0  0  0
 27 29  1  0  0  0  0
 29 25  1  0  0  0  0
 29 26  1  0  0  0  0
 30 28  1  6  0  0  0
 30 27  1  0  0  0  0
 30 31  1  0  0  0  0
 31 28  1  6  0  0  0
 31 26  1  0  0  0  0
M  END
>  <MODEL>
3

>  <REMARK>
 VINA RESULT:      -7.0      2.975      6.685
  Name = 
  13 active torsions:
  status: ('A' for Active; 'I' for Inactive)
    1  A    between atoms: C_1  and  C_10
    2  A    between atoms: C_1  and  C_20
    3  A    between atoms: N_3  and  C_18
    4  A    between atoms: N_3  and  C_25
    5  A    between atoms: C_10  and  C_21
    6  A    between atoms: C_13  and  C_21
    7  A    between atoms: C_13  and  C_31
    8  A    between atoms: N_14  and  C_18
    9  A    between atoms: C_15  and  C_26
   10  A    between atoms: O_16  and  C_26
   11  A    between atoms: O_16  and  C_31
   12  A    between atoms: C_23  and  N_24
   13  A    between atoms: C_25  and  C_31
                            x       y       z     vdW  Elec       q    Type
                         _______ _______ _______ _____ _____    ______ ____

>  <TORSDO>
F 13

$$$$
=
 OpenBabel11062414303D

 31 34  0  0  1  0  0  0  0  0999 V2000
  186.4140  178.0410  141.9800 C   0  0  0  0  0  2  0  0  0  0  0  0
  185.5640  179.0340  142.7600 C   0  0  0  0  0  2  0  0  0  0  0  0
  184.5060  178.2950  143.5630 C   0  0  0  0  0  2  0  0  0  0  0  0
  183.4720  179.2700  144.1030 C   0  0  2  0  0  3  0  0  0  0  0  0
  183.3670  179.1440  145.4900 O   0  0  0  0  0  1  0  0  0  0  0  0
  182.1430  179.0120  143.4750 C   0  0  0  0  0  0  0  0  0  0  0  0
  182.0220  179.0640  142.0480 N   0  0  0  0  0  2  0  0  0  0  0  0
  181.1460  178.7480  144.2010 O   0  0  0  0  0  0  0  0  0  0  0  0
  178.9310  180.1460  142.4140 O   0  0  0  0  0  1  0  0  0  0  0  0
  179.9460  180.2810  141.4630 C   0  0  2  0  0  3  0  0  0  0  0  0
  180.0100  177.7620  141.7040 C   0  0  0  0  0  1  0  0  0  0  0  0
  179.3610  180.5930  140.1020 C   0  0  0  0  0  2  0  0  0  0  0  0
  180.1620  179.8100  139.0690 C   0  0  2  0  0  3  0  0  0  0  0  0
  181.0620  178.8700  139.7840 C   0  0  2  0  0  3  0  0  0  0  0  0
  180.7770  179.0080  141.2800 C   0  0  2  0  0  0  0  0  0  0  0  0
  181.5370  180.0760  139.2250 O   0  0  0  0  0  0  0  0  0  0  0  0
  187.5900  178.7070  141.2650 C   0  0  2  0  0  3  0  0  0  0  0  0
  187.4540  178.5770  139.8790 O   0  0  0  0  0  0  0  0  0  0  0  0
  188.7090  178.1620  139.4290 C   0  0  0  0  0  2  0  0  0  0  0  0
  188.9390  178.6770  138.0790 C   0  0  0  0  0  0  0  0  0  0  0  0
  189.1210  179.0850  137.0120 N   0  0  0  0  0  0  0  0  0  0  0  0
  188.9180  178.1240  141.7230 C   0  0  0  0  0  2  0  0  0  0  0  0
  188.7750  177.5390  143.0460 N   0  0  0  0  0  2  0  0  0  0  0  0
  190.8880  178.7730  144.0070 S   0  0  0  0  0  0  0  0  0  0  0  0
  189.4690  177.9820  144.2190 C   0  0  0  0  0  0  0  0  0  0  0  0
  189.7790  177.1710  146.6270 C   0  0  0  0  0  2  0  0  0  0  0  0
  187.6030  177.9500  145.9460 C   0  0  0  0  0  2  0  0  0  0  0  0
  188.3400  178.3400  148.2990 C   0  0  0  0  0  2  0  0  0  0  0  0
  188.9790  177.7220  145.5510 N   0  0  0  0  0  0  0  0  0  0  0  0
  187.4760  177.4870  147.3890 C   0  0  2  0  0  3  0  0  0  0  0  0
  188.8520  176.9950  147.8180 C   0  0  1  0  0  3  0  0  0  0  0  0
  1  2  1  0  0  0  0
  2  3  1  0  0  0  0
  3  4  1  0  0  0  0
  4  5  1  1  0  0  0
  6  4  1  0  0  0  0
  6  8  2  0  0  0  0
  7  6  1  0  0  0  0
 10  9  1  1  0  0  0
 12 10  1  0  0  0  0
 13 16  1  0  0  0  0
 13 14  1  0  0  0  0
 13 12  1  1  0  0  0
 14 16  1  1  0  0  0
 14 15  1  0  0  0  0
 15 10  1  0  0  0  0
 15 11  1  1  0  0  0
 15  7  1  0  0  0  0
 17 22  1  1  0  0  0
 17  1  1  0  0  0  0
 18 17  1  0  0  0  0
 19 18  1  0  0  0  0
 20 19  1  0  0  0  0
 21 20  3  0  0  0  0
 22 23  1  0  0  0  0
 23 25  1  0  0  0  0
 24 25  2  0  0  0  0
 25 29  1  0  0  0  0
 29 27  1  0  0  0  0
 29 26  1  0  0  0  0
 30 27  1  6  0  0  0
 30 31  1  0  0  0  0
 30 28  1  0  0  0  0
 31 26  1  6  0  0  0
 31 28  1  0  0  0  0
M  END
>  <MODEL>
4

>  <REMARK>
 VINA RESULT:      -7.0      3.124      8.501
  Name = 
  13 active torsions:
  status: ('A' for Active; 'I' for Inactive)
    1  A    between atoms: C_1  and  C_10
    2  A    between atoms: C_1  and  C_20
    3  A    between atoms: N_3  and  C_18
    4  A    between atoms: N_3  and  C_25
    5  A    between atoms: C_10  and  C_21
    6  A    between atoms: C_13  and  C_21
    7  A    between atoms: C_13  and  C_31
    8  A    between atoms: N_14  and  C_18
    9  A    between atoms: C_15  and  C_26
   10  A    between atoms: O_16  and  C_26
   11  A    between atoms: O_16  and  C_31
   12  A    between atoms: C_23  and  N_24
   13  A    between atoms: C_25  and  C_31
                            x       y       z     vdW  Elec       q    Type
                         _______ _______ _______ _____ _____    ______ ____

>  <TORSDO>
F 13

$$$$
=
 OpenBabel11062414303D

 31 34  0  0  1  0  0  0  0  0999 V2000
  184.7940  179.7050  144.6590 C   0  0  0  0  0  2  0  0  0  0  0  0
  185.1140  178.9720  145.9550 C   0  0  0  0  0  2  0  0  0  0  0  0
  185.9720  177.7520  145.6650 C   0  0  0  0  0  2  0  0  0  0  0  0
  187.0790  177.6230  146.6980 C   0  0  2  0  0  3  0  0  0  0  0  0
  186.9390  178.6050  147.6820 O   0  0  0  0  0  1  0  0  0  0  0  0
  188.4130  177.7570  146.0430 C   0  0  0  0  0  0  0  0  0  0  0  0
  188.4850  177.8350  144.6140 N   0  0  0  0  0  2  0  0  0  0  0  0
  189.4580  177.8050  146.7480 O   0  0  0  0  0  0  0  0  0  0  0  0
  191.4840  176.4900  144.8590 O   0  0  0  0  0  1  0  0  0  0  0  0
  190.4300  176.4550  143.9430 C   0  0  2  0  0  3  0  0  0  0  0  0
  190.5880  178.9670  144.2140 C   0  0  0  0  0  1  0  0  0  0  0  0
  190.9400  176.1140  142.5590 C   0  0  0  0  0  2  0  0  0  0  0  0
  190.1730  176.9750  141.5630 C   0  0  2  0  0  3  0  0  0  0  0  0
  189.3810  177.9780  142.3190 C   0  0  2  0  0  3  0  0  0  0  0  0
  189.7050  177.7960  143.8040 C   0  0  2  0  0  0  0  0  0  0  0  0
  188.7870  176.8240  141.7650 O   0  0  0  0  0  0  0  0  0  0  0  0
  184.0340  178.8310  143.6610 C   0  0  2  0  0  3  0  0  0  0  0  0
  184.3740  179.1810  142.3500 O   0  0  0  0  0  0  0  0  0  0  0  0
  185.6720  178.7000  142.1710 C   0  0  0  0  0  2  0  0  0  0  0  0
  186.0090  178.7200  140.7470 C   0  0  0  0  0  0  0  0  0  0  0  0
  186.2750  178.7350  139.6220 N   0  0  0  0  0  0  0  0  0  0  0  0
  182.5310  178.9370  143.8640 C   0  0  0  0  0  2  0  0  0  0  0  0
  181.8420  178.6960  142.6060 N   0  0  0  0  0  2  0  0  0  0  0  0
  179.4520  179.6200  143.1940 S   0  0  0  0  0  0  0  0  0  0  0  0
  180.6960  179.4220  142.1450 C   0  0  0  0  0  0  0  0  0  0  0  0
  179.7040  181.0080  140.3980 C   0  0  0  0  0  2  0  0  0  0  0  0
  181.3620  179.4080  139.6920 C   0  0  0  0  0  2  0  0  0  0  0  0
  181.2800  181.6340  138.5660 C   0  0  0  0  0  2  0  0  0  0  0  0
  180.5970  179.9390  140.8030 N   0  0  0  0  0  0  0  0  0  0  0  0
  180.9200  180.1650  138.4500 C   0  0  2  0  0  3  0  0  0  0  0  0
  179.8720  181.1760  138.8970 C   0  0  1  0  0  3  0  0  0  0  0  0
  1  2  1  0  0  0  0
  3  2  1  0  0  0  0
  3  4  1  0  0  0  0
  4  5  1  1  0  0  0
  6  4  1  0  0  0  0
  6  8  2  0  0  0  0
  7  6  1  0  0  0  0
 10  9  1  1  0  0  0
 12 10  1  0  0  0  0
 13 16  1  0  0  0  0
 13 14  1  0  0  0  0
 13 12  1  1  0  0  0
 14 16  1  1  0  0  0
 14 15  1  0  0  0  0
 15 10  1  0  0  0  0
 15 11  1  1  0  0  0
 15  7  1  0  0  0  0
 17 22  1  6  0  0  0
 17  1  1  0  0  0  0
 18 17  1  0  0  0  0
 19 18  1  0  0  0  0
 20 19  1  0  0  0  0
 21 20  3  0  0  0  0
 23 22  1  0  0  0  0
 25 23  1  0  0  0  0
 25 24  2  0  0  0  0
 26 29  1  0  0  0  0
 27 29  1  0  0  0  0
 29 25  1  0  0  0  0
 30 28  1  1  0  0  0
 30 31  1  0  0  0  0
 30 27  1  0  0  0  0
 31 28  1  1  0  0  0
 31 26  1  0  0  0  0
M  END
>  <MODEL>
5

>  <REMARK>
 VINA RESULT:      -6.9      2.460      4.322
  Name = 
  13 active torsions:
  status: ('A' for Active; 'I' for Inactive)
    1  A    between atoms: C_1  and  C_10
    2  A    between atoms: C_1  and  C_20
    3  A    between atoms: N_3  and  C_18
    4  A    between atoms: N_3  and  C_25
    5  A    between atoms: C_10  and  C_21
    6  A    between atoms: C_13  and  C_21
    7  A    between atoms: C_13  and  C_31
    8  A    between atoms: N_14  and  C_18
    9  A    between atoms: C_15  and  C_26
   10  A    between atoms: O_16  and  C_26
   11  A    between atoms: O_16  and  C_31
   12  A    between atoms: C_23  and  N_24
   13  A    between atoms: C_25  and  C_31
                            x       y       z     vdW  Elec       q    Type
                         _______ _______ _______ _____ _____    ______ ____

>  <TORSDO>
F 13

$$$$
=
 OpenBabel11062414303D

 31 34  0  0  1  0  0  0  0  0999 V2000
  185.4160  179.2230  145.2690 C   0  0  0  0  0  2  0  0  0  0  0  0
  185.6580  178.2010  146.3720 C   0  0  0  0  0  2  0  0  0  0  0  0
  186.8930  178.5810  147.1720 C   0  0  0  0  0  2  0  0  0  0  0  0
  187.7400  177.3520  147.4570 C   0  0  2  0  0  3  0  0  0  0  0  0
  187.9180  177.1950  148.8340 O   0  0  0  0  0  1  0  0  0  0  0  0
  189.0700  177.4770  146.7910 C   0  0  0  0  0  0  0  0  0  0  0  0
  189.1910  177.1380  145.4040 N   0  0  0  0  0  2  0  0  0  0  0  0
  190.0660  177.8820  147.4490 O   0  0  0  0  0  0  0  0  0  0  0  0
  190.3170  175.3470  142.8760 O   0  0  0  0  0  1  0  0  0  0  0  0
  190.1710  176.7050  143.1710 C   0  0  2  0  0  3  0  0  0  0  0  0
  191.3240  175.9940  145.3100 C   0  0  0  0  0  1  0  0  0  0  0  0
  191.1600  177.5300  142.3740 C   0  0  0  0  0  2  0  0  0  0  0  0
  191.6790  178.6320  143.2900 C   0  0  2  0  0  3  0  0  0  0  0  0
  191.2050  178.3610  144.6700 C   0  0  2  0  0  3  0  0  0  0  0  0
  190.4380  177.0370  144.6420 C   0  0  2  0  0  0  0  0  0  0  0  0
  190.5980  179.3380  143.8520 O   0  0  0  0  0  0  0  0  0  0  0  0
  184.5090  178.6900  144.1610 C   0  0  2  0  0  3  0  0  0  0  0  0
  184.6980  179.4190  142.9820 O   0  0  0  0  0  0  0  0  0  0  0  0
  185.4630  178.5890  142.1610 C   0  0  0  0  0  2  0  0  0  0  0  0
  185.2920  178.9920  140.7650 C   0  0  0  0  0  0  0  0  0  0  0  0
  185.1570  179.3110  139.6610 N   0  0  0  0  0  0  0  0  0  0  0  0
  183.0460  178.7270  144.5760 C   0  0  0  0  0  2  0  0  0  0  0  0
  182.2450  179.3250  143.5200 N   0  0  0  0  0  2  0  0  0  0  0  0
  179.7340  178.8080  144.1020 S   0  0  0  0  0  0  0  0  0  0  0  0
  180.9920  178.8130  143.0510 C   0  0  0  0  0  0  0  0  0  0  0  0
  181.7250  178.5350  140.6150 C   0  0  0  0  0  2  0  0  0  0  0  0
  179.6940  177.4570  141.3360 C   0  0  0  0  0  2  0  0  0  0  0  0
  181.0960  176.3450  139.5950 C   0  0  0  0  0  2  0  0  0  0  0  0
  180.8230  178.2810  141.7210 N   0  0  0  0  0  0  0  0  0  0  0  0
  179.8470  177.1680  139.8510 C   0  0  2  0  0  3  0  0  0  0  0  0
  181.1300  177.8500  139.3960 C   0  0  1  0  0  3  0  0  0  0  0  0
  1  2  1  0  0  0  0
  2  3  1  0  0  0  0
  3  4  1  0  0  0  0
  4  5  1  1  0  0  0
  6  8  2  0  0  0  0
  6  4  1  0  0  0  0
  7  6  1  0  0  0  0
 10  9  1  1  0  0  0
 10 15  1  0  0  0  0
 12 10  1  0  0  0  0
 13 12  1  6  0  0  0
 13 16  1  0  0  0  0
 13 14  1  0  0  0  0
 14 16  1  6  0  0  0
 15 14  1  0  0  0  0
 15 11  1  1  0  0  0
 15  7  1  0  0  0  0
 17 22  1  1  0  0  0
 17  1  1  0  0  0  0
 18 17  1  0  0  0  0
 19 18  1  0  0  0  0
 20 19  1  0  0  0  0
 21 20  3  0  0  0  0
 23 22  1  0  0  0  0
 25 23  1  0  0  0  0
 25 24  2  0  0  0  0
 26 29  1  0  0  0  0
 27 29  1  0  0  0  0
 29 25  1  0  0  0  0
 30 28  1  1  0  0  0
 30 27  1  0  0  0  0
 31 28  1  1  0  0  0
 31 30  1  0  0  0  0
 31 26  1  0  0  0  0
M  END
>  <MODEL>
6

>  <REMARK>
 VINA RESULT:      -6.8      2.306      4.404
  Name = 
  13 active torsions:
  status: ('A' for Active; 'I' for Inactive)
    1  A    between atoms: C_1  and  C_10
    2  A    between atoms: C_1  and  C_20
    3  A    between atoms: N_3  and  C_18
    4  A    between atoms: N_3  and  C_25
    5  A    between atoms: C_10  and  C_21
    6  A    between atoms: C_13  and  C_21
    7  A    between atoms: C_13  and  C_31
    8  A    between atoms: N_14  and  C_18
    9  A    between atoms: C_15  and  C_26
   10  A    between atoms: O_16  and  C_26
   11  A    between atoms: O_16  and  C_31
   12  A    between atoms: C_23  and  N_24
   13  A    between atoms: C_25  and  C_31
                            x       y       z     vdW  Elec       q    Type
                         _______ _______ _______ _____ _____    ______ ____

>  <TORSDO>
F 13

$$$$
=
 OpenBabel11062414303D

 31 34  0  0  1  0  0  0  0  0999 V2000
  187.1760  177.1900  143.0790 C   0  0  0  0  0  2  0  0  0  0  0  0
  187.9610  178.0480  142.0950 C   0  0  0  0  0  2  0  0  0  0  0  0
  188.9890  177.1970  141.3680 C   0  0  0  0  0  2  0  0  0  0  0  0
  189.4270  177.8770  140.0810 C   0  0  2  0  0  3  0  0  0  0  0  0
  188.3920  178.6660  139.5740 O   0  0  0  0  0  1  0  0  0  0  0  0
  189.8230  176.8560  139.0680 C   0  0  0  0  0  0  0  0  0  0  0  0
  189.2580  176.9220  137.7520 N   0  0  0  0  0  2  0  0  0  0  0  0
  190.6480  175.9530  139.3750 O   0  0  0  0  0  0  0  0  0  0  0  0
  190.3560  173.8230  137.5260 O   0  0  0  0  0  1  0  0  0  0  0  0
  189.1700  174.5020  137.2350 C   0  0  2  0  0  3  0  0  0  0  0  0
  190.7790  176.0710  136.0700 C   0  0  0  0  0  1  0  0  0  0  0  0
  188.3900  173.7720  136.1620 C   0  0  0  0  0  2  0  0  0  0  0  0
  187.7940  174.8230  135.2340 C   0  0  2  0  0  3  0  0  0  0  0  0
  188.3740  176.1440  135.5840 C   0  0  2  0  0  3  0  0  0  0  0  0
  189.3990  175.9170  136.6970 C   0  0  2  0  0  0  0  0  0  0  0  0
  187.0720  175.7720  135.9830 O   0  0  0  0  0  0  0  0  0  0  0  0
  185.9200  177.8900  143.5990 C   0  0  2  0  0  3  0  0  0  0  0  0
  185.6670  179.0500  142.8590 O   0  0  0  0  0  0  0  0  0  0  0  0
  184.5040  178.7740  142.1390 C   0  0  0  0  0  2  0  0  0  0  0  0
  184.7240  179.0710  140.7230 C   0  0  0  0  0  0  0  0  0  0  0  0
  184.8970  179.3050  139.6040 N   0  0  0  0  0  0  0  0  0  0  0  0
  186.0430  178.2220  145.0780 C   0  0  0  0  0  2  0  0  0  0  0  0
  186.8860  177.2390  145.7390 N   0  0  0  0  0  2  0  0  0  0  0  0
  187.7350  178.1360  148.0600 S   0  0  0  0  0  0  0  0  0  0  0  0
  188.0210  177.5480  146.5570 C   0  0  0  0  0  0  0  0  0  0  0  0
  190.3190  176.4220  146.6090 C   0  0  0  0  0  2  0  0  0  0  0  0
  189.9600  178.2350  145.0630 C   0  0  0  0  0  2  0  0  0  0  0  0
  191.4910  176.3760  144.4050 C   0  0  0  0  0  2  0  0  0  0  0  0
  189.3770  177.3940  146.0890 N   0  0  0  0  0  0  0  0  0  0  0  0
  191.4100  177.8040  144.9120 C   0  0  2  0  0  3  0  0  0  0  0  0
  191.6370  176.6590  145.8890 C   0  0  1  0  0  3  0  0  0  0  0  0
  2  1  1  0  0  0  0
  3  2  1  0  0  0  0
  4  5  1  6  0  0  0
  4  3  1  0  0  0  0
  6  8  2  0  0  0  0
  6  4  1  0  0  0  0
  7  6  1  0  0  0  0
 10  9  1  6  0  0  0
 12 10  1  0  0  0  0
 13 14  1  0  0  0  0
 13 16  1  0  0  0  0
 13 12  1  1  0  0  0
 14 16  1  1  0  0  0
 14 15  1  0  0  0  0
 15 11  1  6  0  0  0
 15 10  1  0  0  0  0
 15  7  1  0  0  0  0
 17  1  1  6  0  0  0
 17 22  1  0  0  0  0
 18 17  1  0  0  0  0
 19 18  1  0  0  0  0
 20 19  1  0  0  0  0
 21 20  3  0  0  0  0
 22 23  1  0  0  0  0
 23 25  1  0  0  0  0
 25 24  2  0  0  0  0
 27 29  1  0  0  0  0
 29 25  1  0  0  0  0
 29 26  1  0  0  0  0
 30 28  1  6  0  0  0
 30 27  1  0  0  0  0
 30 31  1  0  0  0  0
 31 28  1  6  0  0  0
 31 26  1  0  0  0  0
M  END
>  <MODEL>
7

>  <REMARK>
 VINA RESULT:      -6.7      3.356      6.967
  Name = 
  13 active torsions:
  status: ('A' for Active; 'I' for Inactive)
    1  A    between atoms: C_1  and  C_10
    2  A    between atoms: C_1  and  C_20
    3  A    between atoms: N_3  and  C_18
    4  A    between atoms: N_3  and  C_25
    5  A    between atoms: C_10  and  C_21
    6  A    between atoms: C_13  and  C_21
    7  A    between atoms: C_13  and  C_31
    8  A    between atoms: N_14  and  C_18
    9  A    between atoms: C_15  and  C_26
   10  A    between atoms: O_16  and  C_26
   11  A    between atoms: O_16  and  C_31
   12  A    between atoms: C_23  and  N_24
   13  A    between atoms: C_25  and  C_31
                            x       y       z     vdW  Elec       q    Type
                         _______ _______ _______ _____ _____    ______ ____

>  <TORSDO>
F 13

$$$$
=
 OpenBabel11062414303D

 31 34  0  0  1  0  0  0  0  0999 V2000
  184.1040  177.8880  141.4270 C   0  0  0  0  0  2  0  0  0  0  0  0
  183.2110  178.9540  140.8070 C   0  0  0  0  0  2  0  0  0  0  0  0
  183.7870  179.4040  139.4750 C   0  0  0  0  0  2  0  0  0  0  0  0
  183.3590  178.4590  138.3640 C   0  0  2  0  0  3  0  0  0  0  0  0
  182.5530  177.4410  138.8780 O   0  0  0  0  0  1  0  0  0  0  0  0
  184.5580  177.8640  137.7030 C   0  0  0  0  0  0  0  0  0  0  0  0
  185.8370  177.9880  138.3350 N   0  0  0  0  0  2  0  0  0  0  0  0
  184.4330  177.2570  136.6050 O   0  0  0  0  0  0  0  0  0  0  0  0
  187.2760  178.1740  135.3760 O   0  0  0  0  0  1  0  0  0  0  0  0
  187.5630  178.6120  136.6710 C   0  0  2  0  0  3  0  0  0  0  0  0
  187.0260  176.1990  137.2170 C   0  0  0  0  0  1  0  0  0  0  0  0
  189.0540  178.7980  136.8510 C   0  0  0  0  0  2  0  0  0  0  0  0
  189.4140  178.2990  138.2450 C   0  0  2  0  0  3  0  0  0  0  0  0
  188.2280  177.6170  138.8210 C   0  0  2  0  0  3  0  0  0  0  0  0
  187.1310  177.6210  137.7550 C   0  0  2  0  0  0  0  0  0  0  0  0
  188.5940  178.9240  139.2050 O   0  0  0  0  0  0  0  0  0  0  0  0
  184.6280  178.2890  142.8060 C   0  0  2  0  0  3  0  0  0  0  0  0
  183.9510  179.4200  143.2750 O   0  0  0  0  0  0  0  0  0  0  0  0
  183.1240  178.9490  144.2960 C   0  0  0  0  0  2  0  0  0  0  0  0
  183.9080  178.7730  145.5180 C   0  0  0  0  0  0  0  0  0  0  0  0
  184.5280  178.6340  146.4850 N   0  0  0  0  0  0  0  0  0  0  0  0
  186.1270  178.5460  142.7760 C   0  0  0  0  0  2  0  0  0  0  0  0
  186.8230  177.5150  143.5290 N   0  0  0  0  0  2  0  0  0  0  0  0
  189.3400  177.8770  142.8630 S   0  0  0  0  0  0  0  0  0  0  0  0
  188.1780  177.6050  143.9860 C   0  0  0  0  0  0  0  0  0  0  0  0
  189.9030  177.3620  145.8620 C   0  0  0  0  0  2  0  0  0  0  0  0
  187.5630  177.2610  146.4290 C   0  0  0  0  0  2  0  0  0  0  0  0
  189.1570  178.2640  148.0670 C   0  0  0  0  0  2  0  0  0  0  0  0
  188.5400  177.4310  145.3710 N   0  0  0  0  0  0  0  0  0  0  0  0
  188.3410  177.0340  147.7150 C   0  0  2  0  0  3  0  0  0  0  0  0
  189.8190  177.0980  147.3560 C   0  0  1  0  0  3  0  0  0  0  0  0
  2  1  1  0  0  0  0
  3  2  1  0  0  0  0
  4  5  1  1  0  0  0
  4  3  1  0  0  0  0
  6  7  1  0  0  0  0
  6  4  1  0  0  0  0
  8  6  2  0  0  0  0
 10  9  1  6  0  0  0
 10 12  1  0  0  0  0
 10 15  1  0  0  0  0
 13 12  1  6  0  0  0
 13 14  1  0  0  0  0
 13 16  1  0  0  0  0
 14 16  1  1  0  0  0
 15 11  1  6  0  0  0
 15  7  1  0  0  0  0
 15 14  1  0  0  0  0
 17  1  1  6  0  0  0
 17 18  1  0  0  0  0
 18 19  1  0  0  0  0
 19 20  1  0  0  0  0
 20 21  3  0  0  0  0
 22 17  1  0  0  0  0
 22 23  1  0  0  0  0
 23 25  1  0  0  0  0
 24 25  2  0  0  0  0
 25 29  1  0  0  0  0
 29 26  1  0  0  0  0
 29 27  1  0  0  0  0
 30 27  1  6  0  0  0
 30 28  1  0  0  0  0
 31 26  1  6  0  0  0
 31 30  1  0  0  0  0
 31 28  1  0  0  0  0
M  END
>  <MODEL>
8

>  <REMARK>
 VINA RESULT:      -6.7      3.173      7.153
  Name = 
  13 active torsions:
  status: ('A' for Active; 'I' for Inactive)
    1  A    between atoms: C_1  and  C_10
    2  A    between atoms: C_1  and  C_20
    3  A    between atoms: N_3  and  C_18
    4  A    between atoms: N_3  and  C_25
    5  A    between atoms: C_10  and  C_21
    6  A    between atoms: C_13  and  C_21
    7  A    between atoms: C_13  and  C_31
    8  A    between atoms: N_14  and  C_18
    9  A    between atoms: C_15  and  C_26
   10  A    between atoms: O_16  and  C_26
   11  A    between atoms: O_16  and  C_31
   12  A    between atoms: C_23  and  N_24
   13  A    between atoms: C_25  and  C_31
                            x       y       z     vdW  Elec       q    Type
                         _______ _______ _______ _____ _____    ______ ____

>  <TORSDO>
F 13

$$$$
=
 OpenBabel11062414303D

 31 34  0  0  1  0  0  0  0  0999 V2000
  183.2660  178.5970  143.4560 C   0  0  0  0  0  2  0  0  0  0  0  0
  181.9920  178.9940  144.1900 C   0  0  0  0  0  2  0  0  0  0  0  0
  180.9930  179.5920  143.2140 C   0  0  0  0  0  2  0  0  0  0  0  0
  179.7940  178.6710  143.0500 C   0  0  2  0  0  3  0  0  0  0  0  0
  179.6810  177.8240  144.1540 O   0  0  0  0  0  1  0  0  0  0  0  0
  179.9350  177.8580  141.8060 C   0  0  0  0  0  0  0  0  0  0  0  0
  180.7730  178.3390  140.7480 N   0  0  0  0  0  2  0  0  0  0  0  0
  179.3230  176.7610  141.7010 O   0  0  0  0  0  0  0  0  0  0  0  0
  181.4240  179.4510  137.7140 O   0  0  0  0  0  1  0  0  0  0  0  0
  181.9560  178.4880  138.5770 C   0  0  2  0  0  3  0  0  0  0  0  0
  179.5220  177.8140  138.7430 C   0  0  0  0  0  1  0  0  0  0  0  0
  182.6740  177.4110  137.7930 C   0  0  0  0  0  2  0  0  0  0  0  0
  182.3610  176.0760  138.4570 C   0  0  2  0  0  3  0  0  0  0  0  0
  181.3030  176.2930  139.4750 C   0  0  2  0  0  3  0  0  0  0  0  0
  180.8920  177.7650  139.4060 C   0  0  2  0  0  0  0  0  0  0  0  0
  182.6600  176.1410  139.8320 O   0  0  0  0  0  0  0  0  0  0  0  0
  184.3700  179.6470  143.5840 C   0  0  2  0  0  3  0  0  0  0  0  0
  185.1610  179.6660  142.4300 O   0  0  0  0  0  0  0  0  0  0  0  0
  184.5440  178.7720  141.5530 C   0  0  0  0  0  2  0  0  0  0  0  0
  185.1830  178.8570  140.2400 C   0  0  0  0  0  0  0  0  0  0  0  0
  185.6870  178.9240  139.2010 N   0  0  0  0  0  0  0  0  0  0  0  0
  185.2330  179.3950  144.8110 C   0  0  0  0  0  2  0  0  0  0  0  0
  185.7080  178.0210  144.8110 N   0  0  0  0  0  2  0  0  0  0  0  0
  187.8170  177.2400  143.4500 S   0  0  0  0  0  0  0  0  0  0  0  0
  187.0850  177.6290  144.8640 C   0  0  0  0  0  0  0  0  0  0  0  0
  189.2120  177.1600  146.2090 C   0  0  0  0  0  2  0  0  0  0  0  0
  187.2060  177.7650  147.3990 C   0  0  0  0  0  2  0  0  0  0  0  0
  189.4140  178.4920  148.3100 C   0  0  0  0  0  2  0  0  0  0  0  0
  187.8150  177.5330  146.1040 N   0  0  0  0  0  0  0  0  0  0  0  0
  188.2780  177.4950  148.4440 C   0  0  2  0  0  3  0  0  0  0  0  0
  189.5450  177.1120  147.6910 C   0  0  1  0  0  3  0  0  0  0  0  0
  1  2  1  0  0  0  0
  3  2  1  0  0  0  0
  4  3  1  0  0  0  0
  4  5  1  1  0  0  0
  6  4  1  0  0  0  0
  7  6  1  0  0  0  0
  8  6  2  0  0  0  0
 10  9  1  6  0  0  0
 10 15  1  0  0  0  0
 12 10  1  0  0  0  0
 13 12  1  6  0  0  0
 13 14  1  0  0  0  0
 13 16  1  0  0  0  0
 14 16  1  1  0  0  0
 15 11  1  6  0  0  0
 15 14  1  0  0  0  0
 15  7  1  0  0  0  0
 17  1  1  6  0  0  0
 17 22  1  0  0  0  0
 18 17  1  0  0  0  0
 19 18  1  0  0  0  0
 20 19  1  0  0  0  0
 21 20  3  0  0  0  0
 23 22  1  0  0  0  0
 23 25  1  0  0  0  0
 24 25  2  0  0  0  0
 25 29  1  0  0  0  0
 28 30  1  0  0  0  0
 29 26  1  0  0  0  0
 29 27  1  0  0  0  0
 30 27  1  6  0  0  0
 31 26  1  6  0  0  0
 31 28  1  0  0  0  0
 31 30  1  0  0  0  0
M  END
>  <MODEL>
9

>  <REMARK>
 VINA RESULT:      -6.7      3.422      8.165
  Name = 
  13 active torsions:
  status: ('A' for Active; 'I' for Inactive)
    1  A    between atoms: C_1  and  C_10
    2  A    between atoms: C_1  and  C_20
    3  A    between atoms: N_3  and  C_18
    4  A    between atoms: N_3  and  C_25
    5  A    between atoms: C_10  and  C_21
    6  A    between atoms: C_13  and  C_21
    7  A    between atoms: C_13  and  C_31
    8  A    between atoms: N_14  and  C_18
    9  A    between atoms: C_15  and  C_26
   10  A    between atoms: O_16  and  C_26
   11  A    between atoms: O_16  and  C_31
   12  A    between atoms: C_23  and  N_24
   13  A    between atoms: C_25  and  C_31
                            x       y       z     vdW  Elec       q    Type
                         _______ _______ _______ _____ _____    ______ ____

>  <TORSDO>
F 13

$$$$
