=
 OpenBabel11062417193D

 60 69  0  0  1  0  0  0  0  0999 V2000
  189.4100  175.5660  137.6260 C   0  0  0  0  0  0  0  0  0  0  0  0
  187.4550  176.4840  136.5200 C   0  0  0  0  0  0  0  0  0  0  0  0
  190.3100  174.6880  137.6610 O   0  0  0  0  0  0  0  0  0  0  0  0
  188.1930  174.5760  135.5290 C   0  0  0  0  0  3  0  0  0  0  0  0
  186.5490  176.2310  135.3670 C   0  0  1  0  0  3  0  0  0  0  0  0
  188.4440  177.6150  138.5540 C   0  0  0  0  0  0  0  0  0  0  0  0
  187.4090  177.6700  137.4450 C   0  0  0  0  0  2  0  0  0  0  0  0
  188.3790  175.5490  136.5880 C   0  0  0  0  0  0  0  0  0  0  0  0
  187.1360  174.9590  134.8180 C   0  0  0  0  0  3  0  0  0  0  0  0
  189.3720  176.6490  138.6210 C   0  0  0  0  0  3  0  0  0  0  0  0
  185.1290  175.9890  135.8650 C   0  0  0  0  0  2  0  0  0  0  0  0
  179.7560  177.5410  140.7520 C   0  0  1  0  0  3  0  0  0  0  0  0
  179.9410  178.0960  142.1560 C   0  0  1  0  0  3  0  0  0  0  0  0
  180.9820  178.3760  141.0650 C   0  0  2  0  0  3  0  0  0  0  0  0
  181.9750  175.3850  136.4080 O   0  0  0  0  0  0  0  0  0  0  0  0
  180.1680  176.0840  140.7320 C   0  0  0  0  0  2  0  0  0  0  0  0
  179.0570  175.2460  140.1370 C   0  0  0  0  0  2  0  0  0  0  0  0
  181.8070  176.6510  135.7840 C   0  0  1  0  0  3  0  0  0  0  0  0
  183.9860  177.7770  137.2010 C   0  0  0  0  0  2  0  0  0  0  0  0
  181.4940  177.7170  136.8440 C   0  0  0  0  0  2  0  0  0  0  0  0
  182.5490  179.1630  138.6560 C   0  0  1  0  0  3  0  0  0  0  0  0
  182.6970  178.5900  137.2480 C   0  0  1  0  0  3  0  0  0  0  0  0
  179.7410  174.8290  136.2590 O   0  0  0  0  0  0  0  0  0  0  0  0
  183.0370  177.0080  134.9430 C   0  0  0  0  0  2  0  0  0  0  0  0
  181.0630  173.5170  137.6340 O   0  0  0  0  0  0  0  0  0  0  0  0
  182.2790  180.6520  138.5670 C   0  0  0  0  0  2  0  0  0  0  0  0
  184.2930  177.2620  135.7880 C   0  0  2  0  0  3  0  0  0  0  0  0
  180.8890  179.7650  140.4200 C   0  0  0  0  0  2  0  0  0  0  0  0
  181.1500  179.7080  138.9200 C   0  0  2  0  0  3  0  0  0  0  0  0
  178.9310  179.2130  142.3900 C   0  0  0  0  0  1  0  0  0  0  0  0
  178.9310  173.3250  138.7930 C   0  0  0  0  0  2  0  0  0  0  0  0
  179.4890  173.8610  140.0260 N   0  0  0  0  0  0  0  0  0  0  0  0
  180.0150  172.6190  137.9840 C   0  0  0  0  0  2  0  0  0  0  0  0
  180.8830  174.5840  136.7440 C   0  0  0  0  0  0  0  0  0  0  0  0
  178.9580  173.0960  141.1560 C   0  0  0  0  0  2  0  0  0  0  0  0
  179.5520  173.4770  142.3650 O   0  0  0  0  0  1  0  0  0  0  0  0
  188.4610  178.7020  139.5750 C   0  0  0  0  0  2  0  0  0  0  0  0
  186.1250  179.1330  140.3460 C   0  0  0  0  0  3  0  0  0  0  0  0
  185.0710  178.9610  141.2470 C   0  0  0  0  0  3  0  0  0  0  0  0
  185.2470  178.1750  142.3900 C   0  0  0  0  0  0  0  0  0  0  0  0
  187.3640  178.5250  140.5820 C   0  0  0  0  0  0  0  0  0  0  0  0
  186.4810  177.5680  142.6350 C   0  0  0  0  0  3  0  0  0  0  0  0
  187.5480  177.7430  141.7420 C   0  0  0  0  0  0  0  0  0  0  0  0
  184.2230  178.0030  143.2580 F   0  0  0  0  0  0  0  0  0  0  0  0
  188.8560  177.0680  142.0260 C   0  0  0  0  0  2  0  0  0  0  0  0
  191.8650  177.6540  145.6430 C   0  0  0  0  0  2  0  0  0  0  0  0
  192.0030  176.9690  147.9220 O   0  0  0  0  0  1  0  0  0  0  0  0
  189.3010  177.3080  143.4330 C   0  0  0  0  0  0  0  0  0  0  0  0
  190.5580  177.9810  145.1060 N   0  0  0  0  0  0  0  0  0  0  0  0
  188.6550  176.6890  144.6250 C   0  0  0  0  0  2  0  0  0  0  0  0
  189.4770  177.2860  145.7780 C   0  0  1  0  0  0  0  0  0  0  0  0
  190.1440  176.2040  146.6270 C   0  0  0  0  0  2  0  0  0  0  0  0
  190.3600  177.9790  143.7260 N   0  0  0  0  0  0  0  0  0  0  0  0
  191.6370  176.5320  146.6490 C   0  0  1  0  0  3  0  0  0  0  0  0
  185.9590  179.5710  147.5550 O   0  0  0  0  0  1  0  0  0  0  0  0
  186.5320  178.3060  147.6820 C   0  0  1  0  0  3  0  0  0  0  0  0
  188.9190  178.1200  147.9930 C   0  0  0  0  0  2  0  0  0  0  0  0
  187.2310  177.9410  146.3930 C   0  0  0  0  0  2  0  0  0  0  0  0
  188.6550  178.2340  146.5590 N   0  0  2  0  0  0  0  0  0  0  0  0
  187.6180  178.3560  148.7300 C   0  0  0  0  0  2  0  0  0  0  0  0
  1  3  2  0  0  0  0
  1 10  1  0  0  0  0
  2  8  2  0  0  0  0
  2  7  1  0  0  0  0
  4  8  1  0  0  0  0
  5 11  1  1  0  0  0
  5  2  1  0  0  0  0
  6 10  2  0  0  0  0
  6 37  1  0  0  0  0
  7  6  1  0  0  0  0
  8  1  1  0  0  0  0
  9  5  1  0  0  0  0
  9  4  2  0  0  0  0
 12 16  1  1  0  0  0
 12 14  1  0  0  0  0
 12 13  1  0  0  0  0
 13 30  1  6  0  0  0
 14 28  1  6  0  0  0
 14 13  1  0  0  0  0
 15 34  1  0  0  0  0
 17 16  1  0  0  0  0
 18 24  1  1  0  0  0
 18 15  1  0  0  0  0
 18 20  1  0  0  0  0
 19 22  1  0  0  0  0
 21 26  1  6  0  0  0
 21 29  1  0  0  0  0
 22 20  1  1  0  0  0
 22 21  1  0  0  0  0
 23 34  2  0  0  0  0
 24 27  1  0  0  0  0
 25 33  1  0  0  0  0
 27 11  1  1  0  0  0
 27 19  1  0  0  0  0
 29 26  1  1  0  0  0
 29 28  1  0  0  0  0
 31 32  1  0  0  0  0
 32 17  1  0  0  0  0
 32 35  1  0  0  0  0
 33 31  1  0  0  0  0
 34 25  1  0  0  0  0
 35 36  1  0  0  0  0
 37 41  1  0  0  0  0
 38 41  2  0  0  0  0
 38 39  1  0  0  0  0
 39 40  2  0  0  0  0
 40 42  1  0  0  0  0
 40 44  1  0  0  0  0
 41 43  1  0  0  0  0
 43 45  1  0  0  0  0
 43 42  2  0  0  0  0
 45 48  1  0  0  0  0
 46 54  1  0  0  0  0
 48 53  2  0  0  0  0
 48 50  1  0  0  0  0
 49 46  1  0  0  0  0
 49 51  1  0  0  0  0
 51 50  1  6  0  0  0
 51 59  1  0  0  0  0
 51 52  1  0  0  0  0
 52 54  1  0  0  0  0
 53 49  1  0  0  0  0
 54 47  1  1  0  0  0
 56 55  1  6  0  0  0
 56 60  1  0  0  0  0
 57 60  1  0  0  0  0
 58 56  1  0  0  0  0
 59 58  1  1  0  0  0
 59 57  1  0  0  0  0
M  END
>  <MODEL>
1

>  <REMARK>
 VINA RESULT:      -9.5      0.000      0.000
  Name = 
  8 active torsions:
  status: ('A' for Active; 'I' for Inactive)
    1  A    between atoms: C_6  and  C_30
    2  A    between atoms: C_6  and  C_42
    3  A    between atoms: C_10  and  C_25
    4  A    between atoms: C_13  and  N_51
    5  A    between atoms: C_21  and  C_27
    6  A    between atoms: C_21  and  C_33
    7  A    between atoms: C_24  and  N_54
    8  A    between atoms: C_25  and  C_39
                            x       y       z     vdW  Elec       q    Type
                         _______ _______ _______ _____ _____    ______ ____

>  <TORSDO>
F 8

$$$$
=
 OpenBabel11062417193D

 60 69  0  0  1  0  0  0  0  0999 V2000
  180.1350  178.1880  142.0080 C   0  0  0  0  0  0  0  0  0  0  0  0
  181.6050  177.3450  140.2720 C   0  0  0  0  0  0  0  0  0  0  0  0
  178.9760  178.2560  142.4940 O   0  0  0  0  0  0  0  0  0  0  0  0
  179.4340  176.7670  139.9230 C   0  0  0  0  0  3  0  0  0  0  0  0
  181.5800  176.5380  139.0220 C   0  0  1  0  0  3  0  0  0  0  0  0
  182.5170  178.7210  142.1880 C   0  0  0  0  0  0  0  0  0  0  0  0
  182.8280  177.9010  140.9480 C   0  0  0  0  0  2  0  0  0  0  0  0
  180.3910  177.4540  140.7690 C   0  0  0  0  0  0  0  0  0  0  0  0
  180.1110  176.2360  138.9080 C   0  0  0  0  0  3  0  0  0  0  0  0
  181.2740  178.8360  142.6770 C   0  0  0  0  0  3  0  0  0  0  0  0
  182.0410  177.3890  137.8440 C   0  0  0  0  0  2  0  0  0  0  0  0
  187.5140  172.8350  135.7310 C   0  0  1  0  0  3  0  0  0  0  0  0
  187.7640  171.4230  136.2360 C   0  0  1  0  0  3  0  0  0  0  0  0
  186.3500  172.0190  136.2570 C   0  0  2  0  0  3  0  0  0  0  0  0
  184.9080  177.4530  136.3010 O   0  0  0  0  0  0  0  0  0  0  0  0
  187.9170  173.8280  136.8010 C   0  0  0  0  0  2  0  0  0  0  0  0
  188.8660  174.8530  136.2170 C   0  0  0  0  0  2  0  0  0  0  0  0
  184.1160  177.0600  135.1880 C   0  0  1  0  0  3  0  0  0  0  0  0
  182.6280  175.2160  136.7390 C   0  0  0  0  0  2  0  0  0  0  0  0
  184.3200  175.5640  134.9070 C   0  0  0  0  0  2  0  0  0  0  0  0
  183.6840  173.2330  135.7130 C   0  0  1  0  0  3  0  0  0  0  0  0
  183.1970  174.6550  135.4410 C   0  0  1  0  0  3  0  0  0  0  0  0
  186.7510  177.9790  135.0170 O   0  0  0  0  0  0  0  0  0  0  0  0
  182.6450  177.4160  135.4160 C   0  0  0  0  0  2  0  0  0  0  0  0
  187.0690  177.8300  137.3060 O   0  0  0  0  0  0  0  0  0  0  0  0
  183.1090  172.2960  134.6690 C   0  0  0  0  0  2  0  0  0  0  0  0
  181.9930  176.5990  136.5410 C   0  0  2  0  0  3  0  0  0  0  0  0
  185.4340  171.5560  135.1170 C   0  0  0  0  0  2  0  0  0  0  0  0
  184.5670  172.6950  134.5940 C   0  0  2  0  0  3  0  0  0  0  0  0
  188.0660  170.5130  135.0520 C   0  0  0  0  0  1  0  0  0  0  0  0
  189.2720  177.1440  136.5300 C   0  0  0  0  0  2  0  0  0  0  0  0
  189.1770  175.8630  137.2160 N   0  0  0  0  0  0  0  0  0  0  0  0
  188.4440  178.1980  137.2590 C   0  0  0  0  0  2  0  0  0  0  0  0
  186.2600  177.7670  136.1640 C   0  0  0  0  0  0  0  0  0  0  0  0
  190.4720  175.5590  137.8270 C   0  0  0  0  0  2  0  0  0  0  0  0
  190.5570  176.0490  139.1350 O   0  0  0  0  0  1  0  0  0  0  0  0
  183.6410  179.3800  142.9150 C   0  0  0  0  0  2  0  0  0  0  0  0
  185.3700  179.0880  141.1360 C   0  0  0  0  0  3  0  0  0  0  0  0
  186.6160  178.6420  140.6880 C   0  0  0  0  0  3  0  0  0  0  0  0
  187.4730  177.9630  141.5590 C   0  0  0  0  0  0  0  0  0  0  0  0
  184.9690  178.8560  142.4580 C   0  0  0  0  0  0  0  0  0  0  0  0
  187.0810  177.7240  142.8780 C   0  0  0  0  0  3  0  0  0  0  0  0
  185.8280  178.1590  143.3350 C   0  0  0  0  0  0  0  0  0  0  0  0
  188.6830  177.5390  141.1250 F   0  0  0  0  0  0  0  0  0  0  0  0
  185.4410  177.8980  144.7600 C   0  0  0  0  0  2  0  0  0  0  0  0
  187.9900  177.5730  148.7430 C   0  0  0  0  0  2  0  0  0  0  0  0
  190.1670  178.2130  149.4760 O   0  0  0  0  0  1  0  0  0  0  0  0
  186.6420  177.6760  145.6210 C   0  0  0  0  0  0  0  0  0  0  0  0
  187.8380  177.1110  147.3770 N   0  0  0  0  0  0  0  0  0  0  0  0
  188.0030  178.1880  145.2950 C   0  0  0  0  0  2  0  0  0  0  0  0
  188.8330  177.6610  146.4760 C   0  0  1  0  0  0  0  0  0  0  0  0
  189.5120  178.7920  147.2490 C   0  0  0  0  0  2  0  0  0  0  0  0
  186.5770  177.1240  146.7820 N   0  0  0  0  0  0  0  0  0  0  0  0
  189.0810  178.6360  148.7080 C   0  0  1  0  0  3  0  0  0  0  0  0
  191.8010  175.2230  144.0280 O   0  0  0  0  0  1  0  0  0  0  0  0
  191.8100  176.3940  144.7830 C   0  0  1  0  0  3  0  0  0  0  0  0
  190.8350  176.3810  146.9920 C   0  0  0  0  0  2  0  0  0  0  0  0
  190.4270  177.0030  144.7810 C   0  0  0  0  0  2  0  0  0  0  0  0
  189.7630  176.6060  146.0220 N   0  0  2  0  0  0  0  0  0  0  0  0
  192.0980  176.0540  146.2250 C   0  0  0  0  0  2  0  0  0  0  0  0
  1  3  2  0  0  0  0
  1 10  1  0  0  0  0
  2  8  2  0  0  0  0
  2  7  1  0  0  0  0
  4  8  1  0  0  0  0
  5 11  1  6  0  0  0
  5  2  1  0  0  0  0
  6 10  2  0  0  0  0
  6 37  1  0  0  0  0
  7  6  1  0  0  0  0
  8  1  1  0  0  0  0
  9  5  1  0  0  0  0
  9  4  2  0  0  0  0
 12 13  1  0  0  0  0
 12 14  1  0  0  0  0
 12 16  1  1  0  0  0
 13 30  1  6  0  0  0
 13 14  1  0  0  0  0
 14 28  1  6  0  0  0
 17 16  1  0  0  0  0
 17 32  1  0  0  0  0
 18 20  1  1  0  0  0
 18 24  1  0  0  0  0
 18 15  1  0  0  0  0
 21 26  1  6  0  0  0
 22 20  1  1  0  0  0
 22 21  1  0  0  0  0
 22 19  1  0  0  0  0
 23 34  2  0  0  0  0
 24 27  1  0  0  0  0
 27 19  1  0  0  0  0
 27 11  1  1  0  0  0
 29 26  1  6  0  0  0
 29 28  1  0  0  0  0
 29 21  1  0  0  0  0
 31 32  1  0  0  0  0
 31 33  1  0  0  0  0
 32 35  1  0  0  0  0
 33 25  1  0  0  0  0
 34 15  1  0  0  0  0
 34 25  1  0  0  0  0
 35 36  1  0  0  0  0
 38 41  1  0  0  0  0
 39 38  2  0  0  0  0
 39 40  1  0  0  0  0
 40 42  2  0  0  0  0
 41 37  1  0  0  0  0
 41 43  2  0  0  0  0
 42 43  1  0  0  0  0
 43 45  1  0  0  0  0
 44 40  1  0  0  0  0
 45 48  1  0  0  0  0
 48 53  2  0  0  0  0
 49 46  1  0  0  0  0
 50 48  1  0  0  0  0
 51 50  1  6  0  0  0
 51 52  1  0  0  0  0
 51 49  1  0  0  0  0
 52 54  1  0  0  0  0
 53 49  1  0  0  0  0
 54 46  1  0  0  0  0
 54 47  1  1  0  0  0
 56 55  1  6  0  0  0
 56 60  1  0  0  0  0
 58 56  1  0  0  0  0
 59 58  1  6  0  0  0
 59 51  1  0  0  0  0
 59 57  1  0  0  0  0
 60 57  1  0  0  0  0
M  END
>  <MODEL>
2

>  <REMARK>
 VINA RESULT:      -8.4      2.642      7.185
  Name = 
  8 active torsions:
  status: ('A' for Active; 'I' for Inactive)
    1  A    between atoms: C_6  and  C_30
    2  A    between atoms: C_6  and  C_42
    3  A    between atoms: C_10  and  C_25
    4  A    between atoms: C_13  and  N_51
    5  A    between atoms: C_21  and  C_27
    6  A    between atoms: C_21  and  C_33
    7  A    between atoms: C_24  and  N_54
    8  A    between atoms: C_25  and  C_39
                            x       y       z     vdW  Elec       q    Type
                         _______ _______ _______ _____ _____    ______ ____

>  <TORSDO>
F 8

$$$$
=
 OpenBabel11062417193D

 60 69  0  0  1  0  0  0  0  0999 V2000
  183.5050  179.1320  144.1800 C   0  0  0  0  0  0  0  0  0  0  0  0
  183.1370  178.1560  141.9900 C   0  0  0  0  0  0  0  0  0  0  0  0
  183.0400  179.7530  145.1710 O   0  0  0  0  0  0  0  0  0  0  0  0
  181.2880  179.2120  142.7880 C   0  0  0  0  0  3  0  0  0  0  0  0
  182.0780  177.9890  140.9580 C   0  0  1  0  0  3  0  0  0  0  0  0
  185.3840  177.9660  143.1330 C   0  0  0  0  0  0  0  0  0  0  0  0
  184.5240  177.5750  141.9440 C   0  0  0  0  0  2  0  0  0  0  0  0
  182.6710  178.8370  143.0150 C   0  0  0  0  0  0  0  0  0  0  0  0
  180.9360  178.7290  141.6000 C   0  0  0  0  0  3  0  0  0  0  0  0
  184.9030  178.6720  144.1650 C   0  0  0  0  0  3  0  0  0  0  0  0
  182.4980  178.6790  139.6650 C   0  0  0  0  0  2  0  0  0  0  0  0
  183.8370  172.2310  136.2300 C   0  0  1  0  0  3  0  0  0  0  0  0
  183.4310  170.8470  136.7110 C   0  0  1  0  0  3  0  0  0  0  0  0
  182.6270  172.0840  137.1310 C   0  0  2  0  0  3  0  0  0  0  0  0
  184.3740  177.4240  137.3170 O   0  0  0  0  0  0  0  0  0  0  0  0
  184.9930  172.7340  137.0700 C   0  0  0  0  0  2  0  0  0  0  0  0
  186.1260  173.1760  136.1680 C   0  0  0  0  0  2  0  0  0  0  0  0
  183.2150  177.6360  136.5230 C   0  0  1  0  0  3  0  0  0  0  0  0
  181.4950  176.6670  138.5540 C   0  0  0  0  0  2  0  0  0  0  0  0
  182.5020  176.2990  136.2760 C   0  0  0  0  0  2  0  0  0  0  0  0
  180.9890  174.5620  137.3640 C   0  0  1  0  0  3  0  0  0  0  0  0
  181.2780  176.0510  137.1770 C   0  0  1  0  0  3  0  0  0  0  0  0
  185.7540  177.0630  135.5040 O   0  0  0  0  0  0  0  0  0  0  0  0
  182.2960  178.6760  137.1710 C   0  0  0  0  0  2  0  0  0  0  0  0
  186.5860  176.4990  137.5910 O   0  0  0  0  0  0  0  0  0  0  0  0
  179.7340  174.1930  136.5980 C   0  0  0  0  0  2  0  0  0  0  0  0
  181.6660  178.1900  138.4840 C   0  0  2  0  0  3  0  0  0  0  0  0
  181.3230  172.3050  136.3530 C   0  0  0  0  0  2  0  0  0  0  0  0
  181.0860  173.7810  136.0590 C   0  0  2  0  0  3  0  0  0  0  0  0
  182.8490  170.0610  135.5430 C   0  0  0  0  0  1  0  0  0  0  0  0
  187.7560  174.8650  136.2160 C   0  0  0  0  0  2  0  0  0  0  0  0
  187.1970  173.7500  136.9670 N   0  0  0  0  0  0  0  0  0  0  0  0
  187.8650  176.1010  137.1050 C   0  0  0  0  0  2  0  0  0  0  0  0
  185.5800  177.0020  136.7560 C   0  0  0  0  0  0  0  0  0  0  0  0
  188.2430  172.7460  137.1680 C   0  0  0  0  0  2  0  0  0  0  0  0
  189.5160  173.3260  137.2180 O   0  0  0  0  0  1  0  0  0  0  0  0
  186.8030  177.5040  143.1750 C   0  0  0  0  0  2  0  0  0  0  0  0
  187.0170  178.8300  141.0690 C   0  0  0  0  0  3  0  0  0  0  0  0
  187.6780  179.1670  139.8860 C   0  0  0  0  0  3  0  0  0  0  0  0
  188.8490  178.4960  139.5200 C   0  0  0  0  0  0  0  0  0  0  0  0
  187.5180  177.8150  141.8950 C   0  0  0  0  0  0  0  0  0  0  0  0
  189.3540  177.4810  140.3360 C   0  0  0  0  0  3  0  0  0  0  0  0
  188.6930  177.1280  141.5210 C   0  0  0  0  0  0  0  0  0  0  0  0
  189.4920  178.8300  138.3770 F   0  0  0  0  0  0  0  0  0  0  0  0
  189.2670  176.0430  142.3820 C   0  0  0  0  0  2  0  0  0  0  0  0
  192.0550  177.3540  145.9840 C   0  0  0  0  0  2  0  0  0  0  0  0
  192.0600  177.1230  148.3570 O   0  0  0  0  0  1  0  0  0  0  0  0
  189.6270  176.5550  143.7380 C   0  0  0  0  0  0  0  0  0  0  0  0
  190.7820  177.5540  145.3200 N   0  0  0  0  0  0  0  0  0  0  0  0
  188.9140  176.1680  144.9880 C   0  0  0  0  0  2  0  0  0  0  0  0
  189.6640  176.9870  146.0510 C   0  0  1  0  0  0  0  0  0  0  0  0
  190.2820  176.0970  147.1290 C   0  0  0  0  0  2  0  0  0  0  0  0
  190.6660  177.2850  143.9580 N   0  0  0  0  0  0  0  0  0  0  0  0
  191.7710  176.4440  147.1730 C   0  0  1  0  0  3  0  0  0  0  0  0
  186.0390  179.5020  147.1850 O   0  0  0  0  0  1  0  0  0  0  0  0
  186.6310  178.3080  147.5950 C   0  0  1  0  0  3  0  0  0  0  0  0
  189.0060  178.2530  148.0190 C   0  0  0  0  0  2  0  0  0  0  0  0
  187.3850  177.6980  146.4370 C   0  0  0  0  0  2  0  0  0  0  0  0
  188.7950  178.0570  146.5850 N   0  0  2  0  0  0  0  0  0  0  0  0
  187.6740  178.6050  148.6450 C   0  0  0  0  0  2  0  0  0  0  0  0
  1  3  2  0  0  0  0
  2  8  2  0  0  0  0
  4  8  1  0  0  0  0
  5 11  1  6  0  0  0
  5  9  1  0  0  0  0
  5  2  1  0  0  0  0
  6 37  1  0  0  0  0
  6 10  2  0  0  0  0
  7  2  1  0  0  0  0
  7  6  1  0  0  0  0
  8  1  1  0  0  0  0
  9  4  2  0  0  0  0
 10  1  1  0  0  0  0
 12 13  1  0  0  0  0
 12 16  1  1  0  0  0
 12 14  1  0  0  0  0
 13 30  1  6  0  0  0
 13 14  1  0  0  0  0
 14 28  1  6  0  0  0
 17 32  1  0  0  0  0
 17 16  1  0  0  0  0
 18 20  1  1  0  0  0
 18 24  1  0  0  0  0
 18 15  1  0  0  0  0
 21 26  1  6  0  0  0
 22 20  1  6  0  0  0
 22 21  1  0  0  0  0
 22 19  1  0  0  0  0
 23 34  2  0  0  0  0
 24 27  1  0  0  0  0
 27 19  1  0  0  0  0
 27 11  1  1  0  0  0
 29 28  1  1  0  0  0
 29 26  1  0  0  0  0
 29 21  1  0  0  0  0
 31 32  1  0  0  0  0
 31 33  1  0  0  0  0
 32 35  1  0  0  0  0
 33 25  1  0  0  0  0
 34 15  1  0  0  0  0
 34 25  1  0  0  0  0
 35 36  1  0  0  0  0
 38 41  1  0  0  0  0
 39 38  2  0  0  0  0
 40 39  1  0  0  0  0
 40 42  2  0  0  0  0
 41 37  1  0  0  0  0
 42 43  1  0  0  0  0
 43 41  2  0  0  0  0
 43 45  1  0  0  0  0
 44 40  1  0  0  0  0
 45 48  1  0  0  0  0
 46 54  1  0  0  0  0
 48 53  2  0  0  0  0
 48 50  1  0  0  0  0
 49 46  1  0  0  0  0
 49 51  1  0  0  0  0
 51 50  1  6  0  0  0
 51 59  1  0  0  0  0
 51 52  1  0  0  0  0
 52 54  1  0  0  0  0
 53 49  1  0  0  0  0
 54 47  1  1  0  0  0
 56 55  1  6  0  0  0
 56 60  1  0  0  0  0
 57 60  1  0  0  0  0
 58 56  1  0  0  0  0
 59 58  1  1  0  0  0
 59 57  1  0  0  0  0
M  END
>  <MODEL>
3

>  <REMARK>
 VINA RESULT:      -8.0      2.450      6.059
  Name = 
  8 active torsions:
  status: ('A' for Active; 'I' for Inactive)
    1  A    between atoms: C_6  and  C_30
    2  A    between atoms: C_6  and  C_42
    3  A    between atoms: C_10  and  C_25
    4  A    between atoms: C_13  and  N_51
    5  A    between atoms: C_21  and  C_27
    6  A    between atoms: C_21  and  C_33
    7  A    between atoms: C_24  and  N_54
    8  A    between atoms: C_25  and  C_39
                            x       y       z     vdW  Elec       q    Type
                         _______ _______ _______ _____ _____    ______ ____

>  <TORSDO>
F 8

$$$$
=
 OpenBabel11062417193D

 60 69  0  0  1  0  0  0  0  0999 V2000
  183.5480  179.3650  143.3940 C   0  0  0  0  0  0  0  0  0  0  0  0
  183.6690  177.8720  141.4860 C   0  0  0  0  0  0  0  0  0  0  0  0
  182.8490  180.0950  144.1430 O   0  0  0  0  0  0  0  0  0  0  0  0
  181.5820  178.7190  141.7890 C   0  0  0  0  0  3  0  0  0  0  0  0
  182.8170  177.2850  140.4170 C   0  0  1  0  0  3  0  0  0  0  0  0
  185.7200  178.3620  142.8810 C   0  0  0  0  0  0  0  0  0  0  0  0
  185.1200  177.5630  141.7380 C   0  0  0  0  0  2  0  0  0  0  0  0
  182.9550  178.6680  142.2530 C   0  0  0  0  0  0  0  0  0  0  0  0
  181.4910  177.9250  140.7250 C   0  0  0  0  0  3  0  0  0  0  0  0
  184.9860  179.1800  143.6480 C   0  0  0  0  0  3  0  0  0  0  0  0
  183.3170  177.7330  139.0470 C   0  0  0  0  0  2  0  0  0  0  0  0
  187.5360  172.8030  135.4330 C   0  0  1  0  0  3  0  0  0  0  0  0
  187.9540  171.4290  135.9330 C   0  0  1  0  0  3  0  0  0  0  0  0
  186.6600  172.0800  136.4380 C   0  0  2  0  0  3  0  0  0  0  0  0
  185.3720  177.5520  136.5270 O   0  0  0  0  0  0  0  0  0  0  0  0
  188.3240  173.8640  136.1720 C   0  0  0  0  0  2  0  0  0  0  0  0
  188.9810  174.7980  135.1770 C   0  0  0  0  0  2  0  0  0  0  0  0
  184.2110  177.0990  135.8420 C   0  0  1  0  0  3  0  0  0  0  0  0
  183.4250  175.4530  138.0080 C   0  0  0  0  0  2  0  0  0  0  0  0
  184.2840  175.5790  135.6450 C   0  0  0  0  0  2  0  0  0  0  0  0
  183.9950  173.3510  136.8440 C   0  0  1  0  0  3  0  0  0  0  0  0
  183.4480  174.7630  136.6490 C   0  0  1  0  0  3  0  0  0  0  0  0
  186.5820  177.8950  134.5940 O   0  0  0  0  0  0  0  0  0  0  0  0
  182.9420  177.5330  136.5820 C   0  0  0  0  0  2  0  0  0  0  0  0
  187.7550  177.9250  136.5900 O   0  0  0  0  0  0  0  0  0  0  0  0
  183.0590  172.3530  136.1900 C   0  0  0  0  0  2  0  0  0  0  0  0
  182.7690  176.8390  137.9410 C   0  0  2  0  0  3  0  0  0  0  0  0
  185.3730  171.5610  135.7820 C   0  0  0  0  0  2  0  0  0  0  0  0
  184.3780  172.6860  135.5270 C   0  0  2  0  0  3  0  0  0  0  0  0
  187.7730  170.4120  134.8130 C   0  0  0  0  0  1  0  0  0  0  0  0
  189.4880  177.0890  135.0980 C   0  0  0  0  0  2  0  0  0  0  0  0
  189.6570  175.8750  135.8840 N   0  0  0  0  0  0  0  0  0  0  0  0
  189.0080  178.2330  135.9870 C   0  0  0  0  0  2  0  0  0  0  0  0
  186.5690  177.7990  135.8550 C   0  0  0  0  0  0  0  0  0  0  0  0
  191.0860  175.5710  135.9780 C   0  0  0  0  0  2  0  0  0  0  0  0
  191.6420  175.2990  134.7220 O   0  0  0  0  0  1  0  0  0  0  0  0
  187.1700  178.1920  143.1930 C   0  0  0  0  0  2  0  0  0  0  0  0
  187.9080  178.9880  140.9430 C   0  0  0  0  0  3  0  0  0  0  0  0
  188.6750  178.8670  139.7820 C   0  0  0  0  0  3  0  0  0  0  0  0
  189.5250  177.7690  139.6140 C   0  0  0  0  0  0  0  0  0  0  0  0
  187.9800  178.0110  141.9450 C   0  0  0  0  0  0  0  0  0  0  0  0
  189.6010  176.7890  140.6060 C   0  0  0  0  0  3  0  0  0  0  0  0
  188.8280  176.8960  141.7710 C   0  0  0  0  0  0  0  0  0  0  0  0
  190.2730  177.6570  138.4920 F   0  0  0  0  0  0  0  0  0  0  0  0
  188.9420  175.8340  142.8230 C   0  0  0  0  0  2  0  0  0  0  0  0
  192.0600  177.2580  146.0980 C   0  0  0  0  0  2  0  0  0  0  0  0
  192.2790  177.1260  148.4690 O   0  0  0  0  0  1  0  0  0  0  0  0
  189.4300  176.3980  144.1180 C   0  0  0  0  0  0  0  0  0  0  0  0
  190.7330  177.4470  145.5440 N   0  0  0  0  0  0  0  0  0  0  0  0
  188.8290  176.0730  145.4430 C   0  0  0  0  0  2  0  0  0  0  0  0
  189.6810  176.9260  146.3970 C   0  0  1  0  0  0  0  0  0  0  0  0
  190.3870  176.0740  147.4520 C   0  0  0  0  0  2  0  0  0  0  0  0
  190.4910  177.1220  144.2100 N   0  0  0  0  0  0  0  0  0  0  0  0
  191.8760  176.4020  147.3450 C   0  0  1  0  0  3  0  0  0  0  0  0
  186.2490  179.7470  147.4030 O   0  0  0  0  0  1  0  0  0  0  0  0
  186.6320  178.4430  147.7140 C   0  0  1  0  0  3  0  0  0  0  0  0
  188.9000  178.0180  148.4240 C   0  0  0  0  0  2  0  0  0  0  0  0
  187.4690  177.8840  146.5860 C   0  0  0  0  0  2  0  0  0  0  0  0
  188.8750  178.0290  146.9610 N   0  0  2  0  0  0  0  0  0  0  0  0
  187.5420  178.4660  148.9180 C   0  0  0  0  0  2  0  0  0  0  0  0
  1 10  1  0  0  0  0
  1  3  2  0  0  0  0
  2  7  1  0  0  0  0
  2  8  2  0  0  0  0
  4  8  1  0  0  0  0
  5 11  1  6  0  0  0
  5  9  1  0  0  0  0
  5  2  1  0  0  0  0
  6 37  1  0  0  0  0
  6 10  2  0  0  0  0
  7  6  1  0  0  0  0
  8  1  1  0  0  0  0
  9  4  2  0  0  0  0
 12 13  1  0  0  0  0
 12 16  1  1  0  0  0
 12 14  1  0  0  0  0
 13 30  1  6  0  0  0
 13 14  1  0  0  0  0
 14 28  1  6  0  0  0
 17 32  1  0  0  0  0
 17 16  1  0  0  0  0
 18 20  1  1  0  0  0
 18 15  1  0  0  0  0
 18 24  1  0  0  0  0
 21 26  1  6  0  0  0
 22 20  1  6  0  0  0
 22 21  1  0  0  0  0
 22 19  1  0  0  0  0
 23 34  2  0  0  0  0
 24 27  1  0  0  0  0
 27 19  1  0  0  0  0
 27 11  1  1  0  0  0
 29 28  1  1  0  0  0
 29 26  1  0  0  0  0
 29 21  1  0  0  0  0
 31 32  1  0  0  0  0
 31 33  1  0  0  0  0
 32 35  1  0  0  0  0
 33 25  1  0  0  0  0
 34 15  1  0  0  0  0
 34 25  1  0  0  0  0
 36 35  1  0  0  0  0
 38 41  1  0  0  0  0
 39 38  2  0  0  0  0
 40 39  1  0  0  0  0
 40 42  2  0  0  0  0
 41 37  1  0  0  0  0
 42 43  1  0  0  0  0
 43 41  2  0  0  0  0
 43 45  1  0  0  0  0
 44 40  1  0  0  0  0
 45 48  1  0  0  0  0
 46 54  1  0  0  0  0
 48 53  2  0  0  0  0
 48 50  1  0  0  0  0
 49 46  1  0  0  0  0
 49 51  1  0  0  0  0
 51 50  1  6  0  0  0
 51 59  1  0  0  0  0
 51 52  1  0  0  0  0
 53 49  1  0  0  0  0
 54 52  1  0  0  0  0
 54 47  1  1  0  0  0
 56 55  1  6  0  0  0
 56 60  1  0  0  0  0
 57 60  1  0  0  0  0
 58 56  1  0  0  0  0
 59 58  1  1  0  0  0
 59 57  1  0  0  0  0
M  END
>  <MODEL>
4

>  <REMARK>
 VINA RESULT:      -7.7      2.964      6.931
  Name = 
  8 active torsions:
  status: ('A' for Active; 'I' for Inactive)
    1  A    between atoms: C_6  and  C_30
    2  A    between atoms: C_6  and  C_42
    3  A    between atoms: C_10  and  C_25
    4  A    between atoms: C_13  and  N_51
    5  A    between atoms: C_21  and  C_27
    6  A    between atoms: C_21  and  C_33
    7  A    between atoms: C_24  and  N_54
    8  A    between atoms: C_25  and  C_39
                            x       y       z     vdW  Elec       q    Type
                         _______ _______ _______ _____ _____    ______ ____

>  <TORSDO>
F 8

$$$$
=
 OpenBabel11062417193D

 60 69  0  0  1  0  0  0  0  0999 V2000
  184.5440  179.2390  143.4230 C   0  0  0  0  0  0  0  0  0  0  0  0
  183.9700  178.4200  141.2130 C   0  0  0  0  0  0  0  0  0  0  0  0
  184.1940  179.4560  144.6120 O   0  0  0  0  0  0  0  0  0  0  0  0
  182.2040  178.3590  142.6430 C   0  0  0  0  0  3  0  0  0  0  0  0
  182.8260  177.8570  140.4450 C   0  0  1  0  0  3  0  0  0  0  0  0
  186.3060  179.2420  141.7240 C   0  0  0  0  0  0  0  0  0  0  0  0
  185.3770  178.5970  140.7110 C   0  0  0  0  0  2  0  0  0  0  0  0
  183.6040  178.6870  142.4480 C   0  0  0  0  0  0  0  0  0  0  0  0
  181.7430  177.8810  141.4900 C   0  0  0  0  0  3  0  0  0  0  0  0
  185.9170  179.5220  142.9760 C   0  0  0  0  0  3  0  0  0  0  0  0
  182.4680  178.7840  139.2890 C   0  0  0  0  0  2  0  0  0  0  0  0
  183.5750  172.1960  136.0400 C   0  0  1  0  0  3  0  0  0  0  0  0
  183.4150  170.8290  136.6870 C   0  0  1  0  0  3  0  0  0  0  0  0
  182.6180  172.0330  137.2050 C   0  0  2  0  0  3  0  0  0  0  0  0
  183.8710  177.4860  136.6510 O   0  0  0  0  0  0  0  0  0  0  0  0
  184.8400  172.8490  136.5560 C   0  0  0  0  0  2  0  0  0  0  0  0
  185.6950  173.3000  135.3910 C   0  0  0  0  0  2  0  0  0  0  0  0
  182.5470  177.5460  136.1360 C   0  0  1  0  0  3  0  0  0  0  0  0
  181.4270  176.6200  138.5670 C   0  0  0  0  0  2  0  0  0  0  0  0
  181.9220  176.1440  136.1440 C   0  0  0  0  0  2  0  0  0  0  0  0
  180.8580  174.3940  137.6580 C   0  0  1  0  0  3  0  0  0  0  0  0
  180.9600  175.8800  137.3180 C   0  0  1  0  0  3  0  0  0  0  0  0
  184.8320  177.0820  134.5940 O   0  0  0  0  0  0  0  0  0  0  0  0
  181.7090  178.5640  136.9150 C   0  0  0  0  0  2  0  0  0  0  0  0
  186.1620  176.7520  136.4600 O   0  0  0  0  0  0  0  0  0  0  0  0
  179.5000  173.8720  137.2300 C   0  0  0  0  0  2  0  0  0  0  0  0
  181.4390  178.1410  138.3660 C   0  0  2  0  0  3  0  0  0  0  0  0
  181.1580  172.0930  136.7390 C   0  0  0  0  0  2  0  0  0  0  0  0
  180.7280  173.5190  136.4170 C   0  0  2  0  0  3  0  0  0  0  0  0
  182.6580  169.9110  135.7360 C   0  0  0  0  0  1  0  0  0  0  0  0
  187.1330  175.1030  134.9550 C   0  0  0  0  0  2  0  0  0  0  0  0
  186.8620  174.0150  135.8830 N   0  0  0  0  0  0  0  0  0  0  0  0
  187.3280  176.4110  135.7160 C   0  0  0  0  0  2  0  0  0  0  0  0
  184.9520  177.1100  135.8530 C   0  0  0  0  0  0  0  0  0  0  0  0
  188.0130  173.1100  135.8970 C   0  0  0  0  0  2  0  0  0  0  0  0
  188.5640  172.9910  137.1780 O   0  0  0  0  0  1  0  0  0  0  0  0
  187.7150  179.5290  141.3260 C   0  0  0  0  0  2  0  0  0  0  0  0
  187.5940  177.9560  139.3900 C   0  0  0  0  0  3  0  0  0  0  0  0
  188.1210  176.9350  138.5940 C   0  0  0  0  0  3  0  0  0  0  0  0
  189.3540  176.3610  138.9170 C   0  0  0  0  0  0  0  0  0  0  0  0
  188.2940  178.4080  140.5160 C   0  0  0  0  0  0  0  0  0  0  0  0
  190.0570  176.8020  140.0400 C   0  0  0  0  0  3  0  0  0  0  0  0
  189.5320  177.8190  140.8500 C   0  0  0  0  0  0  0  0  0  0  0  0
  189.8670  175.3770  138.1410 F   0  0  0  0  0  0  0  0  0  0  0  0
  190.3160  178.2810  142.0420 C   0  0  0  0  0  2  0  0  0  0  0  0
  186.8920  176.8750  145.0040 C   0  0  0  0  0  2  0  0  0  0  0  0
  186.2910  177.2570  147.2790 O   0  0  0  0  0  1  0  0  0  0  0  0
  189.6940  177.8170  143.3190 C   0  0  0  0  0  0  0  0  0  0  0  0
  188.3010  176.7890  144.6740 N   0  0  0  0  0  0  0  0  0  0  0  0
  190.0420  178.3680  144.6600 C   0  0  0  0  0  2  0  0  0  0  0  0
  189.1460  177.5340  145.5890 C   0  0  1  0  0  0  0  0  0  0  0  0
  188.1980  178.4090  146.4090 C   0  0  0  0  0  2  0  0  0  0  0  0
  188.7140  176.9820  143.3570 N   0  0  0  0  0  0  0  0  0  0  0  0
  186.7860  177.8870  146.1370 C   0  0  1  0  0  3  0  0  0  0  0  0
  192.4690  174.7790  147.0450 O   0  0  0  0  0  1  0  0  0  0  0  0
  192.2790  176.1470  146.8510 C   0  0  1  0  0  3  0  0  0  0  0  0
  190.2810  177.1930  147.7120 C   0  0  0  0  0  2  0  0  0  0  0  0
  191.2540  176.3610  145.7620 C   0  0  0  0  0  2  0  0  0  0  0  0
  189.9650  176.6140  146.4060 N   0  0  2  0  0  0  0  0  0  0  0  0
  191.6750  176.7460  148.0970 C   0  0  0  0  0  2  0  0  0  0  0  0
  1  3  2  0  0  0  0
  2  8  2  0  0  0  0
  5 11  1  6  0  0  0
  5  2  1  0  0  0  0
  5  9  1  0  0  0  0
  6 10  2  0  0  0  0
  7  2  1  0  0  0  0
  7  6  1  0  0  0  0
  8  4  1  0  0  0  0
  8  1  1  0  0  0  0
  9  4  2  0  0  0  0
 10  1  1  0  0  0  0
 12 16  1  1  0  0  0
 12 13  1  0  0  0  0
 12 14  1  0  0  0  0
 13 30  1  6  0  0  0
 13 14  1  0  0  0  0
 14 28  1  6  0  0  0
 17 32  1  0  0  0  0
 17 16  1  0  0  0  0
 18 20  1  1  0  0  0
 18 15  1  0  0  0  0
 18 24  1  0  0  0  0
 21 26  1  1  0  0  0
 22 20  1  6  0  0  0
 22 21  1  0  0  0  0
 22 19  1  0  0  0  0
 23 34  2  0  0  0  0
 24 27  1  0  0  0  0
 27 19  1  0  0  0  0
 27 11  1  1  0  0  0
 29 28  1  1  0  0  0
 29 26  1  0  0  0  0
 29 21  1  0  0  0  0
 31 33  1  0  0  0  0
 31 32  1  0  0  0  0
 32 35  1  0  0  0  0
 33 25  1  0  0  0  0
 34 25  1  0  0  0  0
 34 15  1  0  0  0  0
 35 36  1  0  0  0  0
 37  6  1  0  0  0  0
 38 41  1  0  0  0  0
 39 40  1  0  0  0  0
 39 38  2  0  0  0  0
 40 42  2  0  0  0  0
 41 43  2  0  0  0  0
 41 37  1  0  0  0  0
 42 43  1  0  0  0  0
 43 45  1  0  0  0  0
 44 40  1  0  0  0  0
 45 48  1  0  0  0  0
 46 54  1  0  0  0  0
 48 53  2  0  0  0  0
 48 50  1  0  0  0  0
 49 46  1  0  0  0  0
 49 51  1  0  0  0  0
 51 50  1  6  0  0  0
 51 59  1  0  0  0  0
 51 52  1  0  0  0  0
 53 49  1  0  0  0  0
 54 52  1  0  0  0  0
 54 47  1  1  0  0  0
 56 55  1  1  0  0  0
 56 60  1  0  0  0  0
 57 60  1  0  0  0  0
 58 56  1  0  0  0  0
 59 58  1  6  0  0  0
 59 57  1  0  0  0  0
M  END
>  <MODEL>
5

>  <REMARK>
 VINA RESULT:      -7.0      2.613      6.197
  Name = 
  8 active torsions:
  status: ('A' for Active; 'I' for Inactive)
    1  A    between atoms: C_6  and  C_30
    2  A    between atoms: C_6  and  C_42
    3  A    between atoms: C_10  and  C_25
    4  A    between atoms: C_13  and  N_51
    5  A    between atoms: C_21  and  C_27
    6  A    between atoms: C_21  and  C_33
    7  A    between atoms: C_24  and  N_54
    8  A    between atoms: C_25  and  C_39
                            x       y       z     vdW  Elec       q    Type
                         _______ _______ _______ _____ _____    ______ ____

>  <TORSDO>
F 8

$$$$
=
 OpenBabel11062417193D

 60 69  0  0  1  0  0  0  0  0999 V2000
  180.5960  177.3420  136.9310 C   0  0  0  0  0  0  0  0  0  0  0  0
  181.9290  175.9140  138.3700 C   0  0  0  0  0  0  0  0  0  0  0  0
  179.8210  177.4500  135.9460 O   0  0  0  0  0  0  0  0  0  0  0  0
  180.9540  174.7610  136.6710 C   0  0  0  0  0  3  0  0  0  0  0  0
  182.3310  174.4920  138.5420 C   0  0  1  0  0  3  0  0  0  0  0  0
  181.7510  178.3970  138.8140 C   0  0  0  0  0  0  0  0  0  0  0  0
  182.2750  177.0540  139.2890 C   0  0  0  0  0  2  0  0  0  0  0  0
  181.1470  176.0440  137.3190 C   0  0  0  0  0  0  0  0  0  0  0  0
  181.6370  173.8560  137.3680 C   0  0  0  0  0  3  0  0  0  0  0  0
  180.9660  178.5190  137.7330 C   0  0  0  0  0  3  0  0  0  0  0  0
  183.8430  174.3580  138.4010 C   0  0  0  0  0  2  0  0  0  0  0  0
  190.9000  174.0240  136.1080 C   0  0  1  0  0  3  0  0  0  0  0  0
  191.9000  172.9200  136.4130 C   0  0  1  0  0  3  0  0  0  0  0  0
  190.3950  172.6250  136.4010 C   0  0  2  0  0  3  0  0  0  0  0  0
  186.1690  176.2580  137.1430 O   0  0  0  0  0  0  0  0  0  0  0  0
  190.6940  174.8690  137.3480 C   0  0  0  0  0  2  0  0  0  0  0  0
  190.9030  176.3300  137.0120 C   0  0  0  0  0  2  0  0  0  0  0  0
  185.7180  175.6960  135.9170 C   0  0  1  0  0  3  0  0  0  0  0  0
  185.5290  173.1010  137.0350 C   0  0  0  0  0  2  0  0  0  0  0  0
  186.7170  174.6370  135.4320 C   0  0  0  0  0  2  0  0  0  0  0  0
  187.4980  172.2430  135.8160 C   0  0  1  0  0  3  0  0  0  0  0  0
  186.2980  173.1830  135.7210 C   0  0  1  0  0  3  0  0  0  0  0  0
  187.3900  177.9270  136.1200 O   0  0  0  0  0  0  0  0  0  0  0  0
  184.3000  175.1370  136.0680 C   0  0  0  0  0  2  0  0  0  0  0  0
  187.7650  177.5800  138.3790 O   0  0  0  0  0  0  0  0  0  0  0  0
  187.5310  171.3440  134.5950 C   0  0  0  0  0  2  0  0  0  0  0  0
  184.2280  173.9140  136.9940 C   0  0  2  0  0  3  0  0  0  0  0  0
  189.8780  171.9420  135.1280 C   0  0  0  0  0  2  0  0  0  0  0  0
  188.5180  172.4860  134.7090 C   0  0  2  0  0  3  0  0  0  0  0  0
  192.6440  172.5520  135.1350 C   0  0  0  0  0  1  0  0  0  0  0  0
  189.9670  178.3690  137.7040 C   0  0  0  0  0  2  0  0  0  0  0  0
  190.6100  177.1510  138.1760 N   0  0  0  0  0  0  0  0  0  0  0  0
  188.7010  178.6460  138.5090 C   0  0  0  0  0  2  0  0  0  0  0  0
  187.1150  177.2830  137.1740 C   0  0  0  0  0  0  0  0  0  0  0  0
  191.8630  177.5090  138.8450 C   0  0  0  0  0  2  0  0  0  0  0  0
  191.7240  177.5130  140.2380 O   0  0  0  0  0  1  0  0  0  0  0  0
  182.0790  179.6180  139.6060 C   0  0  0  0  0  2  0  0  0  0  0  0
  180.9920  179.3630  141.8400 C   0  0  0  0  0  3  0  0  0  0  0  0
  181.0290  179.0520  143.2020 C   0  0  0  0  0  3  0  0  0  0  0  0
  182.2350  178.6860  143.8060 C   0  0  0  0  0  0  0  0  0  0  0  0
  182.1620  179.3130  141.0720 C   0  0  0  0  0  0  0  0  0  0  0  0
  183.4080  178.6370  143.0480 C   0  0  0  0  0  3  0  0  0  0  0  0
  183.3840  178.9570  141.6830 C   0  0  0  0  0  0  0  0  0  0  0  0
  182.2670  178.3780  145.1230 F   0  0  0  0  0  0  0  0  0  0  0  0
  184.6560  178.8820  140.8930 C   0  0  0  0  0  2  0  0  0  0  0  0
  189.1530  177.9160  142.0400 C   0  0  0  0  0  2  0  0  0  0  0  0
  190.2920  176.4810  143.5660 O   0  0  0  0  0  1  0  0  0  0  0  0
  185.8270  178.5840  141.7710 C   0  0  0  0  0  0  0  0  0  0  0  0
  187.9100  178.5240  142.4730 N   0  0  0  0  0  0  0  0  0  0  0  0
  185.7770  177.6550  142.9360 C   0  0  0  0  0  2  0  0  0  0  0  0
  187.2130  177.7420  143.4760 C   0  0  1  0  0  0  0  0  0  0  0  0
  187.9030  176.3790  143.4930 C   0  0  0  0  0  2  0  0  0  0  0  0
  187.0150  179.0150  141.5230 N   0  0  0  0  0  0  0  0  0  0  0  0
  189.2000  176.5430  142.6990 C   0  0  1  0  0  3  0  0  0  0  0  0
  185.9810  179.5400  147.4770 O   0  0  0  0  0  1  0  0  0  0  0  0
  186.2000  178.2700  146.9450 C   0  0  1  0  0  3  0  0  0  0  0  0
  188.2170  177.8500  145.6880 C   0  0  0  0  0  2  0  0  0  0  0  0
  185.9400  178.2980  145.4560 C   0  0  0  0  0  2  0  0  0  0  0  0
  187.2310  178.4360  144.7820 N   0  0  2  0  0  0  0  0  0  0  0  0
  187.6590  177.9130  147.0930 C   0  0  0  0  0  2  0  0  0  0  0  0
  1  8  1  0  0  0  0
  1 10  1  0  0  0  0
  2  5  1  0  0  0  0
  2  7  1  0  0  0  0
  3  1  2  0  0  0  0
  4  8  1  0  0  0  0
  4  9  2  0  0  0  0
  5 11  1  6  0  0  0
  6  7  1  0  0  0  0
  6 37  1  0  0  0  0
  8  2  2  0  0  0  0
  9  5  1  0  0  0  0
 10  6  2  0  0  0  0
 12 14  1  0  0  0  0
 12 13  1  0  0  0  0
 12 16  1  1  0  0  0
 13 30  1  6  0  0  0
 14 28  1  6  0  0  0
 14 13  1  0  0  0  0
 15 34  1  0  0  0  0
 17 16  1  0  0  0  0
 17 32  1  0  0  0  0
 18 20  1  1  0  0  0
 18 24  1  0  0  0  0
 18 15  1  0  0  0  0
 21 26  1  6  0  0  0
 22 20  1  1  0  0  0
 22 21  1  0  0  0  0
 22 19  1  0  0  0  0
 23 34  2  0  0  0  0
 24 27  1  0  0  0  0
 25 33  1  0  0  0  0
 27 19  1  0  0  0  0
 27 11  1  1  0  0  0
 29 26  1  6  0  0  0
 29 28  1  0  0  0  0
 29 21  1  0  0  0  0
 31 32  1  0  0  0  0
 31 33  1  0  0  0  0
 32 35  1  0  0  0  0
 34 25  1  0  0  0  0
 35 36  1  0  0  0  0
 37 41  1  0  0  0  0
 38 39  1  0  0  0  0
 39 40  2  0  0  0  0
 40 44  1  0  0  0  0
 41 43  1  0  0  0  0
 41 38  2  0  0  0  0
 42 40  1  0  0  0  0
 43 42  2  0  0  0  0
 45 43  1  0  0  0  0
 45 48  1  0  0  0  0
 46 49  1  0  0  0  0
 46 54  1  0  0  0  0
 48 50  1  0  0  0  0
 49 51  1  0  0  0  0
 51 50  1  6  0  0  0
 51 52  1  0  0  0  0
 51 59  1  0  0  0  0
 53 48  2  0  0  0  0
 53 49  1  0  0  0  0
 54 52  1  0  0  0  0
 54 47  1  1  0  0  0
 56 60  1  0  0  0  0
 56 55  1  6  0  0  0
 57 60  1  0  0  0  0
 58 56  1  0  0  0  0
 59 58  1  1  0  0  0
 59 57  1  0  0  0  0
M  END
>  <MODEL>
6

>  <REMARK>
 VINA RESULT:      -7.0      2.668      7.740
  Name = 
  8 active torsions:
  status: ('A' for Active; 'I' for Inactive)
    1  A    between atoms: C_6  and  C_30
    2  A    between atoms: C_6  and  C_42
    3  A    between atoms: C_10  and  C_25
    4  A    between atoms: C_13  and  N_51
    5  A    between atoms: C_21  and  C_27
    6  A    between atoms: C_21  and  C_33
    7  A    between atoms: C_24  and  N_54
    8  A    between atoms: C_25  and  C_39
                            x       y       z     vdW  Elec       q    Type
                         _______ _______ _______ _____ _____    ______ ____

>  <TORSDO>
F 8

$$$$
=
 OpenBabel11062417193D

 60 69  0  0  1  0  0  0  0  0999 V2000
  191.7550  178.7350  143.7290 C   0  0  0  0  0  0  0  0  0  0  0  0
  190.1800  176.9490  143.2680 C   0  0  0  0  0  0  0  0  0  0  0  0
  192.1630  179.6320  144.5120 O   0  0  0  0  0  0  0  0  0  0  0  0
  189.7400  178.0040  145.2330 C   0  0  0  0  0  3  0  0  0  0  0  0
  188.9930  176.2690  143.8540 C   0  0  1  0  0  3  0  0  0  0  0  0
  192.0430  177.4850  141.6450 C   0  0  0  0  0  0  0  0  0  0  0  0
  190.8880  176.5650  141.9980 C   0  0  0  0  0  2  0  0  0  0  0  0
  190.5910  177.9140  144.0620 C   0  0  0  0  0  0  0  0  0  0  0  0
  188.8100  177.0590  145.1220 C   0  0  0  0  0  3  0  0  0  0  0  0
  192.4450  178.4750  142.4550 C   0  0  0  0  0  3  0  0  0  0  0  0
  187.7870  176.4470  142.9390 C   0  0  0  0  0  2  0  0  0  0  0  0
  181.3060  178.1830  139.7520 C   0  0  1  0  0  3  0  0  0  0  0  0
  179.9400  177.6190  140.1110 C   0  0  1  0  0  3  0  0  0  0  0  0
  181.0590  177.6740  141.1590 C   0  0  2  0  0  3  0  0  0  0  0  0
  186.6060  177.8780  140.2620 O   0  0  0  0  0  0  0  0  0  0  0  0
  182.1000  177.1330  139.0030 C   0  0  0  0  0  2  0  0  0  0  0  0
  182.6210  177.7140  137.7060 C   0  0  0  0  0  2  0  0  0  0  0  0
  186.5150  179.0070  141.1210 C   0  0  1  0  0  3  0  0  0  0  0  0
  185.5120  177.4510  143.2640 C   0  0  0  0  0  2  0  0  0  0  0  0
  185.0540  179.2260  141.5380 C   0  0  0  0  0  2  0  0  0  0  0  0
  183.2240  178.3650  143.0860 C   0  0  1  0  0  3  0  0  0  0  0  0
  184.7070  178.7060  142.9460 C   0  0  1  0  0  3  0  0  0  0  0  0
  186.2750  179.1050  138.3370 O   0  0  0  0  0  0  0  0  0  0  0  0
  187.4490  178.8490  142.3240 C   0  0  0  0  0  2  0  0  0  0  0  0
  186.1200  176.8020  138.1570 O   0  0  0  0  0  0  0  0  0  0  0  0
  182.5520  179.3980  143.9700 C   0  0  0  0  0  2  0  0  0  0  0  0
  187.0230  177.7230  143.2760 C   0  0  2  0  0  3  0  0  0  0  0  0
  180.9540  178.8330  142.1590 C   0  0  0  0  0  2  0  0  0  0  0  0
  182.3200  179.4290  142.4750 C   0  0  2  0  0  3  0  0  0  0  0  0
  178.9310  178.7580  140.1800 C   0  0  0  0  0  1  0  0  0  0  0  0
  184.5620  177.4660  136.4080 C   0  0  0  0  0  2  0  0  0  0  0  0
  183.4650  176.7400  137.0320 N   0  0  0  0  0  0  0  0  0  0  0  0
  185.8950  176.8080  136.7510 C   0  0  0  0  0  2  0  0  0  0  0  0
  186.3360  177.9720  138.8960 C   0  0  0  0  0  0  0  0  0  0  0  0
  182.6900  176.0680  135.9870 C   0  0  0  0  0  2  0  0  0  0  0  0
  181.8450  176.9590  135.3150 O   0  0  0  0  0  1  0  0  0  0  0  0
  192.7890  177.2480  140.3740 C   0  0  0  0  0  2  0  0  0  0  0  0
  190.4880  177.2600  139.4020 C   0  0  0  0  0  3  0  0  0  0  0  0
  189.5930  177.0700  138.3460 C   0  0  0  0  0  3  0  0  0  0  0  0
  190.0580  176.6230  137.1050 C   0  0  0  0  0  0  0  0  0  0  0  0
  191.8530  177.0000  139.2290 C   0  0  0  0  0  0  0  0  0  0  0  0
  191.4180  176.3580  136.9240 C   0  0  0  0  0  3  0  0  0  0  0  0
  192.3220  176.5350  137.9820 C   0  0  0  0  0  0  0  0  0  0  0  0
  189.1920  176.4470  136.0800 F   0  0  0  0  0  0  0  0  0  0  0  0
  193.7770  176.2550  137.7530 C   0  0  0  0  0  2  0  0  0  0  0  0
  195.9670  172.0540  137.5690 C   0  0  0  0  0  2  0  0  0  0  0  0
  196.4060  170.3890  135.9200 O   0  0  0  0  0  1  0  0  0  0  0  0
  194.0050  174.8270  137.3730 C   0  0  0  0  0  0  0  0  0  0  0  0
  194.6920  172.7440  137.5200 N   0  0  0  0  0  0  0  0  0  0  0  0
  193.7610  174.2830  136.0070 C   0  0  0  0  0  2  0  0  0  0  0  0
  194.1270  172.8000  136.1850 C   0  0  1  0  0  0  0  0  0  0  0  0
  195.2490  172.3690  135.2410 C   0  0  0  0  0  2  0  0  0  0  0  0
  194.5480  173.9710  138.1670 N   0  0  0  0  0  0  0  0  0  0  0  0
  196.3450  171.7680  136.1210 C   0  0  1  0  0  3  0  0  0  0  0  0
  189.9200  171.2880  135.3090 O   0  0  0  0  0  1  0  0  0  0  0  0
  191.0880  171.5490  134.5940 C   0  0  1  0  0  3  0  0  0  0  0  0
  193.1900  170.6930  135.4150 C   0  0  0  0  0  2  0  0  0  0  0  0
  191.8820  172.6210  135.3040 C   0  0  0  0  0  2  0  0  0  0  0  0
  192.9160  171.9570  136.0980 N   0  0  2  0  0  0  0  0  0  0  0  0
  191.9650  170.3210  134.6090 C   0  0  0  0  0  2  0  0  0  0  0  0
  1  8  1  0  0  0  0
  1  3  2  0  0  0  0
  2  5  1  0  0  0  0
  2  8  2  0  0  0  0
  5 11  1  6  0  0  0
  5  9  1  0  0  0  0
  6  7  1  0  0  0  0
  6 10  2  0  0  0  0
  7  2  1  0  0  0  0
  8  4  1  0  0  0  0
  9  4  2  0  0  0  0
 10  1  1  0  0  0  0
 12 16  1  6  0  0  0
 12 13  1  0  0  0  0
 12 14  1  0  0  0  0
 13 30  1  1  0  0  0
 13 14  1  0  0  0  0
 14 28  1  1  0  0  0
 15 18  1  0  0  0  0
 17 16  1  0  0  0  0
 18 20  1  1  0  0  0
 18 24  1  0  0  0  0
 19 27  1  0  0  0  0
 21 26  1  1  0  0  0
 22 20  1  6  0  0  0
 22 21  1  0  0  0  0
 22 19  1  0  0  0  0
 23 34  2  0  0  0  0
 24 27  1  0  0  0  0
 25 34  1  0  0  0  0
 27 11  1  6  0  0  0
 29 28  1  1  0  0  0
 29 21  1  0  0  0  0
 29 26  1  0  0  0  0
 31 33  1  0  0  0  0
 31 32  1  0  0  0  0
 32 17  1  0  0  0  0
 33 25  1  0  0  0  0
 34 15  1  0  0  0  0
 35 32  1  0  0  0  0
 36 35  1  0  0  0  0
 37  6  1  0  0  0  0
 39 38  2  0  0  0  0
 40 39  1  0  0  0  0
 41 38  1  0  0  0  0
 41 37  1  0  0  0  0
 42 40  2  0  0  0  0
 42 43  1  0  0  0  0
 43 41  2  0  0  0  0
 44 40  1  0  0  0  0
 45 43  1  0  0  0  0
 48 45  1  0  0  0  0
 48 53  2  0  0  0  0
 49 46  1  0  0  0  0
 49 53  1  0  0  0  0
 50 51  1  0  0  0  0
 50 48  1  0  0  0  0
 51 52  1  6  0  0  0
 51 49  1  0  0  0  0
 52 54  1  0  0  0  0
 54 47  1  1  0  0  0
 54 46  1  0  0  0  0
 56 60  1  0  0  0  0
 56 58  1  0  0  0  0
 56 55  1  1  0  0  0
 57 59  1  0  0  0  0
 59 58  1  6  0  0  0
 59 51  1  0  0  0  0
 60 57  1  0  0  0  0
M  END
>  <MODEL>
7

>  <REMARK>
 VINA RESULT:      -6.5      4.182      8.544
  Name = 
  8 active torsions:
  status: ('A' for Active; 'I' for Inactive)
    1  A    between atoms: C_6  and  C_30
    2  A    between atoms: C_6  and  C_42
    3  A    between atoms: C_10  and  C_25
    4  A    between atoms: C_13  and  N_51
    5  A    between atoms: C_21  and  C_27
    6  A    between atoms: C_21  and  C_33
    7  A    between atoms: C_24  and  N_54
    8  A    between atoms: C_25  and  C_39
                            x       y       z     vdW  Elec       q    Type
                         _______ _______ _______ _____ _____    ______ ____

>  <TORSDO>
F 8

$$$$
