=
 OpenBabel11062413303D

 28 30  0  0  1  0  0  0  0  0999 V2000
  190.1960  175.5920  135.5600 C   0  0  0  0  0  2  0  0  0  0  0  0
  189.5670  175.5980  136.9600 C   0  0  2  0  0  0  0  0  0  0  0  0
  191.6700  175.1820  135.5680 C   0  0  0  0  0  2  0  0  0  0  0  0
  189.9950  174.4700  137.6460 F   0  0  0  0  0  0  0  0  0  0  0  0
  193.1740  176.7980  134.6510 O   0  0  0  0  0  1  0  0  0  0  0  0
  187.7630  177.9380  137.0130 C   0  0  0  0  0  0  0  0  0  0  0  0
  193.6180  176.0290  136.8730 C   0  0  0  0  0  0  0  0  0  0  0  0
  188.0440  175.4680  136.8250 C   0  0  0  0  0  2  0  0  0  0  0  0
  192.5770  176.3720  135.8390 C   0  0  2  0  0  3  0  0  0  0  0  0
  189.9940  176.8930  137.7140 C   0  0  1  0  0  3  0  0  0  0  0  0
  189.2370  179.0360  138.5010 O   0  0  0  0  0  0  0  0  0  0  0  0
  193.3150  176.1260  138.3100 C   0  0  0  0  0  3  0  0  0  0  0  0
  187.0310  178.9520  136.8600 O   0  0  0  0  0  0  0  0  0  0  0  0
  187.4210  176.7090  136.3830 N   0  0  0  0  0  2  0  0  0  0  0  0
  188.9870  178.0090  137.8130 C   0  0  0  0  0  0  0  0  0  0  0  0
  190.8490  176.6910  138.9270 C   0  0  0  0  0  0  0  0  0  0  0  0
  194.7570  175.6260  136.5150 O   0  0  0  0  0  0  0  0  0  0  0  0
  192.1030  176.4160  138.6940 C   0  0  0  0  0  0  0  0  0  0  0  0
  190.2340  176.4390  140.1990 N   0  0  0  0  0  2  0  0  0  0  0  0
  188.8380  178.0600  143.2860 C   0  0  2  0  0  3  0  0  0  0  0  0
  190.1050  178.3880  145.2650 O   0  0  0  0  0  0  0  0  0  0  0  0
  189.0870  178.1220  141.7720 C   0  0  0  0  0  2  0  0  0  0  0  0
  190.1330  178.1840  144.0620 C   0  0  0  0  0  0  0  0  0  0  0  0
  191.4590  178.1290  143.3540 C   0  0  0  0  0  2  0  0  0  0  0  0
  190.2690  177.2780  141.3610 C   0  0  0  0  0  0  0  0  0  0  0  0
  191.3670  177.2780  142.1210 C   0  0  0  0  0  3  0  0  0  0  0  0
  188.1140  176.7650  143.6350 C   0  0  0  0  0  2  0  0  0  0  0  0
  186.8950  177.0500  144.4920 C   0  0  0  0  0  1  0  0  0  0  0  0
  1  3  1  0  0  0  0
  1  2  1  0  0  0  0
  2  4  1  1  0  0  0
  2 10  1  0  0  0  0
  3  9  1  0  0  0  0
  6 15  1  0  0  0  0
  7 12  1  0  0  0  0
  8  2  1  0  0  0  0
  9  5  1  6  0  0  0
  9  7  1  0  0  0  0
 10 15  1  1  0  0  0
 10 16  1  0  0  0  0
 12 18  2  0  0  0  0
 13  6  2  0  0  0  0
 14  8  1  0  0  0  0
 14  6  1  0  0  0  0
 15 11  2  0  0  0  0
 16 19  1  0  0  0  0
 17  7  2  0  0  0  0
 18 16  2  0  0  0  0
 19 25  1  0  0  0  0
 20 27  1  6  0  0  0
 20 23  1  0  0  0  0
 22 20  1  0  0  0  0
 23 21  2  0  0  0  0
 24 23  1  0  0  0  0
 25 22  1  0  0  0  0
 25 26  2  0  0  0  0
 26 24  1  0  0  0  0
 27 28  1  0  0  0  0
M  END
>  <MODEL>
1

>  <REMARK>
 VINA RESULT:      -7.5      0.000      0.000
  Name = 
  3 active torsions:
  status: ('A' for Active; 'I' for Inactive)
    1  A    between atoms: C_1  and  C_2
    2  A    between atoms: N_6  and  C_18
    3  A    between atoms: N_6  and  C_26
                            x       y       z     vdW  Elec       q    Type
                         _______ _______ _______ _____ _____    ______ ____

>  <TORSDO>
F 3

$$$$
=
 OpenBabel11062413303D

 28 30  0  0  1  0  0  0  0  0999 V2000
  190.8110  175.5660  136.9760 C   0  0  0  0  0  2  0  0  0  0  0  0
  189.5700  175.9990  137.7690 C   0  0  2  0  0  0  0  0  0  0  0  0
  192.0590  175.4180  137.8500 C   0  0  0  0  0  2  0  0  0  0  0  0
  189.5320  175.2870  138.9600 F   0  0  0  0  0  0  0  0  0  0  0  0
  193.9120  176.7840  137.2070 O   0  0  0  0  0  1  0  0  0  0  0  0
  188.1220  177.8870  136.0160 C   0  0  0  0  0  0  0  0  0  0  0  0
  193.1440  176.9760  139.4650 C   0  0  0  0  0  0  0  0  0  0  0  0
  188.3120  175.5980  136.9870 C   0  0  0  0  0  2  0  0  0  0  0  0
  192.7790  176.7470  138.0220 C   0  0  2  0  0  3  0  0  0  0  0  0
  189.6410  177.5300  138.0470 C   0  0  1  0  0  3  0  0  0  0  0  0
  188.7210  179.6700  137.4480 O   0  0  0  0  0  0  0  0  0  0  0  0
  192.1720  177.5550  140.4070 C   0  0  0  0  0  3  0  0  0  0  0  0
  187.6250  178.6460  135.1430 O   0  0  0  0  0  0  0  0  0  0  0  0
  188.0670  176.4740  135.8490 N   0  0  0  0  0  2  0  0  0  0  0  0
  188.7870  178.4360  137.1990 C   0  0  0  0  0  0  0  0  0  0  0  0
  189.7650  177.9270  139.4870 C   0  0  0  0  0  0  0  0  0  0  0  0
  194.2840  176.6460  139.8900 O   0  0  0  0  0  0  0  0  0  0  0  0
  190.9500  177.7790  140.0130 C   0  0  0  0  0  0  0  0  0  0  0  0
  188.5850  178.0780  140.2890 N   0  0  0  0  0  2  0  0  0  0  0  0
  189.5520  176.7370  143.6620 C   0  0  2  0  0  3  0  0  0  0  0  0
  188.3240  177.1930  145.6400 O   0  0  0  0  0  0  0  0  0  0  0  0
  189.2360  176.4630  142.1840 C   0  0  0  0  0  2  0  0  0  0  0  0
  188.3110  177.1600  144.4200 C   0  0  0  0  0  0  0  0  0  0  0  0
  187.0350  177.4750  143.6870 C   0  0  0  0  0  2  0  0  0  0  0  0
  188.3460  177.5270  141.5910 C   0  0  0  0  0  0  0  0  0  0  0  0
  187.3290  178.0050  142.3130 C   0  0  0  0  0  3  0  0  0  0  0  0
  190.6440  177.7950  143.7660 C   0  0  0  0  0  2  0  0  0  0  0  0
  191.5630  177.5000  144.9360 C   0  0  0  0  0  1  0  0  0  0  0  0
  1  2  1  0  0  0  0
  1  3  1  0  0  0  0
  2 10  1  0  0  0  0
  2  4  1  1  0  0  0
  3  9  1  0  0  0  0
  6 15  1  0  0  0  0
  7 17  2  0  0  0  0
  7 12  1  0  0  0  0
  8  2  1  0  0  0  0
  9  5  1  6  0  0  0
  9  7  1  0  0  0  0
 10 15  1  1  0  0  0
 10 16  1  0  0  0  0
 13  6  2  0  0  0  0
 14  6  1  0  0  0  0
 14  8  1  0  0  0  0
 15 11  2  0  0  0  0
 16 18  2  0  0  0  0
 16 19  1  0  0  0  0
 18 12  2  0  0  0  0
 19 25  1  0  0  0  0
 20 27  1  6  0  0  0
 20 23  1  0  0  0  0
 22 20  1  0  0  0  0
 23 21  2  0  0  0  0
 24 23  1  0  0  0  0
 25 22  1  0  0  0  0
 25 26  2  0  0  0  0
 26 24  1  0  0  0  0
 27 28  1  0  0  0  0
M  END
>  <MODEL>
2

>  <REMARK>
 VINA RESULT:      -7.3      1.535      2.378
  Name = 
  3 active torsions:
  status: ('A' for Active; 'I' for Inactive)
    1  A    between atoms: C_1  and  C_2
    2  A    between atoms: N_6  and  C_18
    3  A    between atoms: N_6  and  C_26
                            x       y       z     vdW  Elec       q    Type
                         _______ _______ _______ _____ _____    ______ ____

>  <TORSDO>
F 3

$$$$
=
 OpenBabel11062413303D

 28 30  0  0  1  0  0  0  0  0999 V2000
  188.0030  177.4320  145.9840 C   0  0  0  0  0  2  0  0  0  0  0  0
  188.6920  176.8970  144.7200 C   0  0  2  0  0  0  0  0  0  0  0  0
  186.4800  177.5000  145.8520 C   0  0  0  0  0  2  0  0  0  0  0  0
  187.9630  175.8190  144.2380 F   0  0  0  0  0  0  0  0  0  0  0  0
  185.5340  179.6720  146.1750 O   0  0  0  0  0  1  0  0  0  0  0  0
  191.1650  178.4880  144.4270 C   0  0  0  0  0  0  0  0  0  0  0  0
  185.0120  178.5460  144.1290 C   0  0  0  0  0  0  0  0  0  0  0  0
  190.0740  176.3490  145.0980 C   0  0  0  0  0  2  0  0  0  0  0  0
  186.0360  178.8030  145.2040 C   0  0  2  0  0  3  0  0  0  0  0  0
  188.7660  178.0300  143.6530 C   0  0  1  0  0  3  0  0  0  0  0  0
  190.2380  179.5740  142.5420 O   0  0  0  0  0  0  0  0  0  0  0  0
  185.4260  178.1850  142.7640 C   0  0  0  0  0  3  0  0  0  0  0  0
  192.1780  179.2360  144.4630 O   0  0  0  0  0  0  0  0  0  0  0  0
  191.0400  177.4100  145.3490 N   0  0  0  0  0  2  0  0  0  0  0  0
  190.0890  178.7260  143.4630 C   0  0  0  0  0  0  0  0  0  0  0  0
  187.9750  177.8010  142.4010 C   0  0  0  0  0  0  0  0  0  0  0  0
  183.7820  178.6100  144.3980 O   0  0  0  0  0  0  0  0  0  0  0  0
  186.6890  177.9880  142.5050 C   0  0  0  0  0  0  0  0  0  0  0  0
  188.5570  177.0650  141.3150 N   0  0  0  0  0  2  0  0  0  0  0  0
  190.4920  177.1170  138.0960 C   0  0  2  0  0  3  0  0  0  0  0  0
  189.5260  177.7090  136.0120 O   0  0  0  0  0  0  0  0  0  0  0  0
  190.3680  177.5700  139.5580 C   0  0  0  0  0  2  0  0  0  0  0  0
  189.4370  177.7690  137.2270 C   0  0  0  0  0  0  0  0  0  0  0  0
  188.3120  178.5540  137.8460 C   0  0  0  0  0  2  0  0  0  0  0  0
  188.9340  177.5730  140.0280 C   0  0  0  0  0  0  0  0  0  0  0  0
  187.9790  178.0190  139.2090 C   0  0  0  0  0  3  0  0  0  0  0  0
  190.4000  175.5980  138.0210 C   0  0  0  0  0  2  0  0  0  0  0  0
  191.7490  174.9990  137.6670 C   0  0  0  0  0  1  0  0  0  0  0  0
  2  4  1  6  0  0  0
  2  8  1  0  0  0  0
  2  1  1  0  0  0  0
  3  1  1  0  0  0  0
  6 13  2  0  0  0  0
  6 14  1  0  0  0  0
  7 17  2  0  0  0  0
  7  9  1  0  0  0  0
  8 14  1  0  0  0  0
  9  3  1  0  0  0  0
  9  5  1  1  0  0  0
 10 16  1  6  0  0  0
 10  2  1  0  0  0  0
 11 15  2  0  0  0  0
 12  7  1  0  0  0  0
 15 10  1  0  0  0  0
 15  6  1  0  0  0  0
 16 18  2  0  0  0  0
 18 12  2  0  0  0  0
 19 16  1  0  0  0  0
 20 27  1  1  0  0  0
 20 22  1  0  0  0  0
 21 23  2  0  0  0  0
 22 25  1  0  0  0  0
 23 24  1  0  0  0  0
 23 20  1  0  0  0  0
 24 26  1  0  0  0  0
 25 19  1  0  0  0  0
 26 25  2  0  0  0  0
 28 27  1  0  0  0  0
M  END
>  <MODEL>
3

>  <REMARK>
 VINA RESULT:      -7.3      2.804      8.329
  Name = 
  3 active torsions:
  status: ('A' for Active; 'I' for Inactive)
    1  A    between atoms: C_1  and  C_2
    2  A    between atoms: N_6  and  C_18
    3  A    between atoms: N_6  and  C_26
                            x       y       z     vdW  Elec       q    Type
                         _______ _______ _______ _____ _____    ______ ____

>  <TORSDO>
F 3

$$$$
=
 OpenBabel11062413303D

 28 30  0  0  1  0  0  0  0  0999 V2000
  187.9620  177.1280  145.5570 C   0  0  0  0  0  2  0  0  0  0  0  0
  188.7300  176.7290  144.2890 C   0  0  2  0  0  0  0  0  0  0  0  0
  186.4530  177.2460  145.3320 C   0  0  0  0  0  2  0  0  0  0  0  0
  188.0210  175.7310  143.6350 F   0  0  0  0  0  0  0  0  0  0  0  0
  185.5180  179.3860  145.8440 O   0  0  0  0  0  1  0  0  0  0  0  0
  191.2400  178.2870  144.3530 C   0  0  0  0  0  0  0  0  0  0  0  0
  185.1240  178.5180  143.6490 C   0  0  0  0  0  0  0  0  0  0  0  0
  190.0740  176.1100  144.6920 C   0  0  0  0  0  2  0  0  0  0  0  0
  186.0740  178.6250  144.8130 C   0  0  2  0  0  3  0  0  0  0  0  0
  188.8950  177.9770  143.3710 C   0  0  1  0  0  3  0  0  0  0  0  0
  190.4630  179.6060  142.5520 O   0  0  0  0  0  0  0  0  0  0  0  0
  185.6280  178.3090  142.2810 C   0  0  0  0  0  3  0  0  0  0  0  0
  192.2590  179.0020  144.5460 O   0  0  0  0  0  0  0  0  0  0  0  0
  191.0350  177.1130  145.1320 N   0  0  0  0  0  2  0  0  0  0  0  0
  190.2380  178.6600  143.3540 C   0  0  0  0  0  0  0  0  0  0  0  0
  188.1910  177.9130  142.0500 C   0  0  0  0  0  0  0  0  0  0  0  0
  183.8800  178.5790  143.8390 O   0  0  0  0  0  0  0  0  0  0  0  0
  186.9020  178.1160  142.0880 C   0  0  0  0  0  0  0  0  0  0  0  0
  188.8360  177.2960  140.9260 N   0  0  0  0  0  2  0  0  0  0  0  0
  186.8230  177.6630  137.7760 C   0  0  2  0  0  3  0  0  0  0  0  0
  187.1810  179.4020  136.2030 O   0  0  0  0  0  0  0  0  0  0  0  0
  187.6890  176.7750  138.6820 C   0  0  0  0  0  2  0  0  0  0  0  0
  187.6470  178.7540  137.1260 C   0  0  0  0  0  0  0  0  0  0  0  0
  189.0670  179.0030  137.5580 C   0  0  0  0  0  2  0  0  0  0  0  0
  188.6280  177.5890  139.5380 C   0  0  0  0  0  0  0  0  0  0  0  0
  189.2530  178.6410  139.0030 C   0  0  0  0  0  3  0  0  0  0  0  0
  185.6730  178.2530  138.5840 C   0  0  0  0  0  2  0  0  0  0  0  0
  184.3400  177.8760  137.9670 C   0  0  0  0  0  1  0  0  0  0  0  0
  2  4  1  6  0  0  0
  2  8  1  0  0  0  0
  2  1  1  0  0  0  0
  3  1  1  0  0  0  0
  6 13  2  0  0  0  0
  6 14  1  0  0  0  0
  7 17  2  0  0  0  0
  7  9  1  0  0  0  0
  8 14  1  0  0  0  0
  9  3  1  0  0  0  0
  9  5  1  1  0  0  0
 10 16  1  6  0  0  0
 10  2  1  0  0  0  0
 11 15  2  0  0  0  0
 12  7  1  0  0  0  0
 15 10  1  0  0  0  0
 15  6  1  0  0  0  0
 16 18  2  0  0  0  0
 18 12  2  0  0  0  0
 19 16  1  0  0  0  0
 20 27  1  1  0  0  0
 20 22  1  0  0  0  0
 21 23  2  0  0  0  0
 22 25  1  0  0  0  0
 23 24  1  0  0  0  0
 23 20  1  0  0  0  0
 24 26  1  0  0  0  0
 25 19  1  0  0  0  0
 26 25  2  0  0  0  0
 28 27  1  0  0  0  0
M  END
>  <MODEL>
4

>  <REMARK>
 VINA RESULT:      -6.8      3.639      8.087
  Name = 
  3 active torsions:
  status: ('A' for Active; 'I' for Inactive)
    1  A    between atoms: C_1  and  C_2
    2  A    between atoms: N_6  and  C_18
    3  A    between atoms: N_6  and  C_26
                            x       y       z     vdW  Elec       q    Type
                         _______ _______ _______ _____ _____    ______ ____

>  <TORSDO>
F 3

$$$$
=
 OpenBabel11062413303D

 28 30  0  0  1  0  0  0  0  0999 V2000
  191.0650  175.4300  136.7170 C   0  0  0  0  0  2  0  0  0  0  0  0
  189.7500  175.7060  137.4600 C   0  0  2  0  0  0  0  0  0  0  0  0
  192.2770  175.3680  137.6490 C   0  0  0  0  0  2  0  0  0  0  0  0
  189.7260  174.9460  138.6210 F   0  0  0  0  0  0  0  0  0  0  0  0
  194.0150  176.9330  137.1520 O   0  0  0  0  0  1  0  0  0  0  0  0
  188.2070  177.5140  135.7030 C   0  0  0  0  0  0  0  0  0  0  0  0
  193.1240  176.9580  139.3730 C   0  0  0  0  0  0  0  0  0  0  0  0
  188.5770  175.2170  136.6000 C   0  0  0  0  0  2  0  0  0  0  0  0
  192.8530  176.7530  137.9050 C   0  0  2  0  0  3  0  0  0  0  0  0
  189.6550  177.2250  137.7960 C   0  0  1  0  0  3  0  0  0  0  0  0
  188.5570  179.2870  137.2270 O   0  0  0  0  0  0  0  0  0  0  0  0
  192.0550  177.4000  140.2830 C   0  0  0  0  0  3  0  0  0  0  0  0
  187.6800  178.2560  134.8330 O   0  0  0  0  0  0  0  0  0  0  0  0
  188.3010  176.1100  135.4820 N   0  0  0  0  0  2  0  0  0  0  0  0
  188.7560  178.0770  136.9380 C   0  0  0  0  0  0  0  0  0  0  0  0
  189.6700  177.5730  139.2530 C   0  0  0  0  0  0  0  0  0  0  0  0
  194.2690  176.7240  139.8430 O   0  0  0  0  0  0  0  0  0  0  0  0
  190.8370  177.5200  139.8340 C   0  0  0  0  0  0  0  0  0  0  0  0
  188.4430  177.5750  139.9980 N   0  0  0  0  0  2  0  0  0  0  0  0
  186.6390  178.4300  143.1800 C   0  0  2  0  0  3  0  0  0  0  0  0
  186.8040  177.1270  145.1550 O   0  0  0  0  0  0  0  0  0  0  0  0
  187.5760  178.8710  142.0460 C   0  0  0  0  0  2  0  0  0  0  0  0
  187.3060  177.4120  144.0800 C   0  0  0  0  0  0  0  0  0  0  0  0
  188.6240  176.7960  143.6960 C   0  0  0  0  0  2  0  0  0  0  0  0
  188.2910  177.6990  141.4180 C   0  0  0  0  0  0  0  0  0  0  0  0
  188.7610  176.7260  142.2020 C   0  0  0  0  0  3  0  0  0  0  0  0
  185.3460  177.8770  142.5910 C   0  0  0  0  0  2  0  0  0  0  0  0
  184.1790  178.7880  142.9210 C   0  0  0  0  0  1  0  0  0  0  0  0
  1  2  1  0  0  0  0
  1  3  1  0  0  0  0
  2 10  1  0  0  0  0
  2  4  1  1  0  0  0
  3  9  1  0  0  0  0
  6 15  1  0  0  0  0
  7 17  2  0  0  0  0
  7 12  1  0  0  0  0
  8  2  1  0  0  0  0
  9  5  1  6  0  0  0
  9  7  1  0  0  0  0
 10 15  1  1  0  0  0
 10 16  1  0  0  0  0
 13  6  2  0  0  0  0
 14  6  1  0  0  0  0
 14  8  1  0  0  0  0
 15 11  2  0  0  0  0
 16 18  2  0  0  0  0
 16 19  1  0  0  0  0
 18 12  2  0  0  0  0
 19 25  1  0  0  0  0
 20 27  1  6  0  0  0
 20 23  1  0  0  0  0
 22 20  1  0  0  0  0
 23 21  2  0  0  0  0
 24 23  1  0  0  0  0
 25 22  1  0  0  0  0
 25 26  2  0  0  0  0
 26 24  1  0  0  0  0
 27 28  1  0  0  0  0
M  END
>  <MODEL>
5

>  <REMARK>
 VINA RESULT:      -6.7      1.795      2.263
  Name = 
  3 active torsions:
  status: ('A' for Active; 'I' for Inactive)
    1  A    between atoms: C_1  and  C_2
    2  A    between atoms: N_6  and  C_18
    3  A    between atoms: N_6  and  C_26
                            x       y       z     vdW  Elec       q    Type
                         _______ _______ _______ _____ _____    ______ ____

>  <TORSDO>
F 3

$$$$
=
 OpenBabel11062413303D

 28 30  0  0  1  0  0  0  0  0999 V2000
  190.8600  176.5960  142.5660 C   0  0  0  0  0  2  0  0  0  0  0  0
  189.3980  176.4550  142.1230 C   0  0  2  0  0  0  0  0  0  0  0  0
  191.0420  176.4720  144.0800 C   0  0  0  0  0  2  0  0  0  0  0  0
  188.8150  175.4140  142.8330 F   0  0  0  0  0  0  0  0  0  0  0  0
  192.0580  178.3610  145.1360 O   0  0  0  0  0  1  0  0  0  0  0  0
  189.0340  178.4110  139.9370 C   0  0  0  0  0  0  0  0  0  0  0  0
  189.9380  177.6450  145.9830 C   0  0  0  0  0  0  0  0  0  0  0  0
  189.3600  176.0430  140.6450 C   0  0  0  0  0  2  0  0  0  0  0  0
  190.8270  177.8060  144.7780 C   0  0  2  0  0  3  0  0  0  0  0  0
  188.6440  177.7920  142.3920 C   0  0  1  0  0  3  0  0  0  0  0  0
  187.6830  179.7370  141.3540 O   0  0  0  0  0  0  0  0  0  0  0  0
  188.4720  177.6530  145.8450 C   0  0  0  0  0  3  0  0  0  0  0  0
  189.0570  179.2710  139.0180 O   0  0  0  0  0  0  0  0  0  0  0  0
  189.6730  177.1520  139.7540 N   0  0  0  0  0  2  0  0  0  0  0  0
  188.3800  178.6960  141.2160 C   0  0  0  0  0  0  0  0  0  0  0  0
  187.5480  177.7300  143.4120 C   0  0  0  0  0  0  0  0  0  0  0  0
  190.4430  177.4710  147.1240 O   0  0  0  0  0  0  0  0  0  0  0  0
  187.9380  177.7020  144.6570 C   0  0  0  0  0  0  0  0  0  0  0  0
  186.2250  177.3400  143.0150 N   0  0  0  0  0  2  0  0  0  0  0  0
  183.0730  178.7620  141.5500 C   0  0  2  0  0  3  0  0  0  0  0  0
  181.1210  179.1810  142.8310 O   0  0  0  0  0  0  0  0  0  0  0  0
  184.5910  178.8740  141.7510 C   0  0  0  0  0  2  0  0  0  0  0  0
  182.3280  179.0010  142.8460 C   0  0  0  0  0  0  0  0  0  0  0  0
  183.0700  179.0910  144.1520 C   0  0  0  0  0  2  0  0  0  0  0  0
  185.0490  178.1600  142.9980 C   0  0  0  0  0  0  0  0  0  0  0  0
  184.3170  178.2550  144.1110 C   0  0  0  0  0  3  0  0  0  0  0  0
  182.7320  177.3960  140.9660 C   0  0  0  0  0  2  0  0  0  0  0  0
  183.1170  177.3310  139.5000 C   0  0  0  0  0  1  0  0  0  0  0  0
  1  3  1  0  0  0  0
  2 10  1  0  0  0  0
  2  1  1  0  0  0  0
  2  4  1  1  0  0  0
  3  9  1  0  0  0  0
  6 15  1  0  0  0  0
  7 17  2  0  0  0  0
  8  2  1  0  0  0  0
  9  5  1  1  0  0  0
  9  7  1  0  0  0  0
 10 15  1  6  0  0  0
 10 16  1  0  0  0  0
 12  7  1  0  0  0  0
 13  6  2  0  0  0  0
 14  6  1  0  0  0  0
 14  8  1  0  0  0  0
 15 11  2  0  0  0  0
 16 18  2  0  0  0  0
 18 12  2  0  0  0  0
 19 16  1  0  0  0  0
 20 27  1  1  0  0  0
 20 22  1  0  0  0  0
 20 23  1  0  0  0  0
 21 23  2  0  0  0  0
 22 25  1  0  0  0  0
 23 24  1  0  0  0  0
 25 19  1  0  0  0  0
 25 26  2  0  0  0  0
 26 24  1  0  0  0  0
 28 27  1  0  0  0  0
M  END
>  <MODEL>
6

>  <REMARK>
 VINA RESULT:      -6.6      3.691      6.942
  Name = 
  3 active torsions:
  status: ('A' for Active; 'I' for Inactive)
    1  A    between atoms: C_1  and  C_2
    2  A    between atoms: N_6  and  C_18
    3  A    between atoms: N_6  and  C_26
                            x       y       z     vdW  Elec       q    Type
                         _______ _______ _______ _____ _____    ______ ____

>  <TORSDO>
F 3

$$$$
=
 OpenBabel11062413303D

 28 30  0  0  1  0  0  0  0  0999 V2000
  187.6210  178.2520  139.5750 C   0  0  0  0  0  2  0  0  0  0  0  0
  188.3150  178.0890  138.2160 C   0  0  2  0  0  0  0  0  0  0  0  0
  188.5970  178.5560  140.7140 C   0  0  0  0  0  2  0  0  0  0  0  0
  189.2820  179.0770  138.0880 F   0  0  0  0  0  0  0  0  0  0  0  0
  188.5660  176.9880  142.5180 O   0  0  0  0  0  1  0  0  0  0  0  0
  186.8850  175.8940  136.8480 C   0  0  0  0  0  0  0  0  0  0  0  0
  190.6750  177.4000  141.4660 C   0  0  0  0  0  0  0  0  0  0  0  0
  187.2930  178.3410  137.0990 C   0  0  0  0  0  2  0  0  0  0  0  0
  189.1820  177.2790  141.2990 C   0  0  2  0  0  3  0  0  0  0  0  0
  188.9610  176.6740  138.1300 C   0  0  1  0  0  3  0  0  0  0  0  0
  188.7730  174.4980  137.1240 O   0  0  0  0  0  0  0  0  0  0  0  0
  191.5840  177.1210  140.3420 C   0  0  0  0  0  3  0  0  0  0  0  0
  186.1600  174.9650  136.4040 O   0  0  0  0  0  0  0  0  0  0  0  0
  186.3760  177.2210  136.9260 N   0  0  0  0  0  2  0  0  0  0  0  0
  188.2460  175.6260  137.3170 C   0  0  0  0  0  0  0  0  0  0  0  0
  190.4570  176.6430  138.0440 C   0  0  0  0  0  0  0  0  0  0  0  0
  191.1610  177.7720  142.5670 O   0  0  0  0  0  0  0  0  0  0  0  0
  191.0900  176.8620  139.1640 C   0  0  0  0  0  0  0  0  0  0  0  0
  191.1000  176.7530  136.7660 N   0  0  0  0  0  2  0  0  0  0  0  0
  194.4870  175.1320  136.8580 C   0  0  2  0  0  3  0  0  0  0  0  0
  194.9000  172.9430  136.0420 O   0  0  0  0  0  0  0  0  0  0  0  0
  193.6200  176.3330  136.4550 C   0  0  0  0  0  2  0  0  0  0  0  0
  194.1590  173.9120  136.0220 C   0  0  0  0  0  0  0  0  0  0  0  0
  192.9630  173.9070  135.1090 C   0  0  0  0  0  2  0  0  0  0  0  0
  192.1740  175.9460  136.2640 C   0  0  0  0  0  0  0  0  0  0  0  0
  191.8810  174.7990  135.6480 C   0  0  0  0  0  3  0  0  0  0  0  0
  194.3040  174.8420  138.3430 C   0  0  0  0  0  2  0  0  0  0  0  0
  195.6350  174.5010  138.9880 C   0  0  0  0  0  1  0  0  0  0  0  0
  1  3  1  0  0  0  0
  2  4  1  6  0  0  0
  2  1  1  0  0  0  0
  3  9  1  0  0  0  0
  6 14  1  0  0  0  0
  6 15  1  0  0  0  0
  7 17  2  0  0  0  0
  8  2  1  0  0  0  0
  9  7  1  0  0  0  0
  9  5  1  1  0  0  0
 10 15  1  6  0  0  0
 10  2  1  0  0  0  0
 11 15  2  0  0  0  0
 12  7  1  0  0  0  0
 13  6  2  0  0  0  0
 14  8  1  0  0  0  0
 16 10  1  0  0  0  0
 16 18  2  0  0  0  0
 18 12  2  0  0  0  0
 19 16  1  0  0  0  0
 20 27  1  1  0  0  0
 22 20  1  0  0  0  0
 23 21  2  0  0  0  0
 23 20  1  0  0  0  0
 24 26  1  0  0  0  0
 24 23  1  0  0  0  0
 25 22  1  0  0  0  0
 25 19  1  0  0  0  0
 26 25  2  0  0  0  0
 27 28  1  0  0  0  0
M  END
>  <MODEL>
7

>  <REMARK>
 VINA RESULT:      -6.3      2.417      6.344
  Name = 
  3 active torsions:
  status: ('A' for Active; 'I' for Inactive)
    1  A    between atoms: C_1  and  C_2
    2  A    between atoms: N_6  and  C_18
    3  A    between atoms: N_6  and  C_26
                            x       y       z     vdW  Elec       q    Type
                         _______ _______ _______ _____ _____    ______ ____

>  <TORSDO>
F 3

$$$$
=
 OpenBabel11062413303D

 28 30  0  0  1  0  0  0  0  0999 V2000
  182.1930  176.7440  138.2880 C   0  0  0  0  0  2  0  0  0  0  0  0
  182.5950  177.5890  139.5040 C   0  0  2  0  0  0  0  0  0  0  0  0
  183.3600  175.9490  137.6980 C   0  0  0  0  0  2  0  0  0  0  0  0
  183.4310  176.8330  140.3150 F   0  0  0  0  0  0  0  0  0  0  0  0
  183.8370  176.4050  135.4010 O   0  0  0  0  0  1  0  0  0  0  0  0
  181.0900  180.1200  139.2510 C   0  0  0  0  0  0  0  0  0  0  0  0
  185.6360  176.6510  136.9590 C   0  0  0  0  0  0  0  0  0  0  0  0
  181.3430  177.8910  140.3390 C   0  0  0  0  0  2  0  0  0  0  0  0
  184.1570  176.7830  136.7060 C   0  0  2  0  0  3  0  0  0  0  0  0
  183.3200  178.8810  139.0210 C   0  0  1  0  0  3  0  0  0  0  0  0
  183.1000  181.2600  138.7500 O   0  0  0  0  0  0  0  0  0  0  0  0
  186.3070  177.4870  137.9680 C   0  0  0  0  0  3  0  0  0  0  0  0
  180.3640  181.1190  139.0040 O   0  0  0  0  0  0  0  0  0  0  0  0
  180.5040  178.9130  139.7270 N   0  0  0  0  0  2  0  0  0  0  0  0
  182.5360  180.1670  139.0280 C   0  0  0  0  0  0  0  0  0  0  0  0
  184.7610  179.0050  139.4120 C   0  0  0  0  0  0  0  0  0  0  0  0
  186.3120  175.7970  136.3250 O   0  0  0  0  0  0  0  0  0  0  0  0
  185.5970  178.2810  138.7200 C   0  0  0  0  0  0  0  0  0  0  0  0
  185.1090  179.5720  140.6840 N   0  0  0  0  0  2  0  0  0  0  0  0
  186.8930  177.5030  143.2600 C   0  0  2  0  0  3  0  0  0  0  0  0
  186.7010  177.8870  145.5930 O   0  0  0  0  0  0  0  0  0  0  0  0
  185.9700  177.5590  142.0350 C   0  0  0  0  0  2  0  0  0  0  0  0
  186.2100  178.0630  144.4900 C   0  0  0  0  0  0  0  0  0  0  0  0
  184.8910  178.7770  144.3750 C   0  0  0  0  0  2  0  0  0  0  0  0
  185.2500  178.8810  141.9310 C   0  0  0  0  0  0  0  0  0  0  0  0
  184.7660  179.4490  143.0380 C   0  0  0  0  0  3  0  0  0  0  0  0
  188.1860  178.2530  142.9630 C   0  0  0  0  0  2  0  0  0  0  0  0
  188.6930  177.9120  141.5740 C   0  0  0  0  0  1  0  0  0  0  0  0
  1  2  1  0  0  0  0
  2  4  1  1  0  0  0
  2  8  1  0  0  0  0
  3  1  1  0  0  0  0
  6 14  1  0  0  0  0
  7 12  1  0  0  0  0
  9  5  1  6  0  0  0
  9  7  1  0  0  0  0
  9  3  1  0  0  0  0
 10 15  1  1  0  0  0
 10 16  1  0  0  0  0
 10  2  1  0  0  0  0
 11 15  2  0  0  0  0
 12 18  2  0  0  0  0
 13  6  2  0  0  0  0
 14  8  1  0  0  0  0
 15  6  1  0  0  0  0
 16 19  1  0  0  0  0
 17  7  2  0  0  0  0
 18 16  2  0  0  0  0
 19 25  1  0  0  0  0
 20 27  1  6  0  0  0
 20 23  1  0  0  0  0
 22 20  1  0  0  0  0
 23 21  2  0  0  0  0
 24 23  1  0  0  0  0
 25 22  1  0  0  0  0
 25 26  2  0  0  0  0
 26 24  1  0  0  0  0
 28 27  1  0  0  0  0
M  END
>  <MODEL>
8

>  <REMARK>
 VINA RESULT:      -6.2      4.691      6.781
  Name = 
  3 active torsions:
  status: ('A' for Active; 'I' for Inactive)
    1  A    between atoms: C_1  and  C_2
    2  A    between atoms: N_6  and  C_18
    3  A    between atoms: N_6  and  C_26
                            x       y       z     vdW  Elec       q    Type
                         _______ _______ _______ _____ _____    ______ ____

>  <TORSDO>
F 3

$$$$
=
 OpenBabel11062413303D

 28 30  0  0  1  0  0  0  0  0999 V2000
  191.4820  176.7230  139.4200 C   0  0  0  0  0  2  0  0  0  0  0  0
  190.7860  177.5830  140.4840 C   0  0  2  0  0  0  0  0  0  0  0  0
  190.7820  176.7700  138.0600 C   0  0  0  0  0  2  0  0  0  0  0  0
  190.4150  178.7910  139.9080 F   0  0  0  0  0  0  0  0  0  0  0  0
  190.0660  174.6510  137.2180 O   0  0  0  0  0  1  0  0  0  0  0  0
  190.9660  176.0420  142.9990 C   0  0  0  0  0  0  0  0  0  0  0  0
  188.4110  176.3690  137.4030 C   0  0  0  0  0  0  0  0  0  0  0  0
  191.7930  177.9250  141.5900 C   0  0  0  0  0  2  0  0  0  0  0  0
  189.6580  175.7490  137.9780 C   0  0  2  0  0  3  0  0  0  0  0  0
  189.5350  176.8260  141.0240 C   0  0  1  0  0  3  0  0  0  0  0  0
  188.6400  175.6250  142.9060 O   0  0  0  0  0  0  0  0  0  0  0  0
  187.4710  177.1080  138.2620 C   0  0  0  0  0  3  0  0  0  0  0  0
  191.1480  175.2710  143.9780 O   0  0  0  0  0  0  0  0  0  0  0  0
  192.0530  176.7930  142.4690 N   0  0  0  0  0  2  0  0  0  0  0  0
  189.6490  176.1600  142.3710 C   0  0  0  0  0  0  0  0  0  0  0  0
  188.2100  177.4620  140.7330 C   0  0  0  0  0  0  0  0  0  0  0  0
  188.1730  176.2840  136.1680 O   0  0  0  0  0  0  0  0  0  0  0  0
  187.7700  177.3140  139.5140 C   0  0  0  0  0  0  0  0  0  0  0  0
  187.6900  178.4650  141.6180 N   0  0  0  0  0  2  0  0  0  0  0  0
  185.7180  177.8430  144.7530 C   0  0  2  0  0  3  0  0  0  0  0  0
  183.8580  179.1670  145.4000 O   0  0  0  0  0  0  0  0  0  0  0  0
  186.3030  177.2960  143.4430 C   0  0  0  0  0  2  0  0  0  0  0  0
  184.5880  178.8150  144.4870 C   0  0  0  0  0  0  0  0  0  0  0  0
  184.3070  179.3010  143.0910 C   0  0  0  0  0  2  0  0  0  0  0  0
  186.5030  178.3840  142.4170 C   0  0  0  0  0  0  0  0  0  0  0  0
  185.5680  179.3270  142.2750 C   0  0  0  0  0  3  0  0  0  0  0  0
  186.8220  178.4990  145.5740 C   0  0  0  0  0  2  0  0  0  0  0  0
  187.9800  177.5400  145.7730 C   0  0  0  0  0  1  0  0  0  0  0  0
  1  2  1  0  0  0  0
  2  4  1  6  0  0  0
  2 10  1  0  0  0  0
  2  8  1  0  0  0  0
  3  1  1  0  0  0  0
  6 13  2  0  0  0  0
  7  9  1  0  0  0  0
  7 12  1  0  0  0  0
  8 14  1  0  0  0  0
  9  5  1  6  0  0  0
  9  3  1  0  0  0  0
 10 16  1  1  0  0  0
 10 15  1  0  0  0  0
 12 18  2  0  0  0  0
 14  6  1  0  0  0  0
 15 11  2  0  0  0  0
 15  6  1  0  0  0  0
 16 19  1  0  0  0  0
 17  7  2  0  0  0  0
 18 16  2  0  0  0  0
 19 25  1  0  0  0  0
 20 27  1  6  0  0  0
 22 20  1  0  0  0  0
 23 20  1  0  0  0  0
 23 21  2  0  0  0  0
 24 23  1  0  0  0  0
 25 22  1  0  0  0  0
 26 25  2  0  0  0  0
 26 24  1  0  0  0  0
 27 28  1  0  0  0  0
M  END
>  <MODEL>
9

>  <REMARK>
 VINA RESULT:      -6.1      2.778      5.229
  Name = 
  3 active torsions:
  status: ('A' for Active; 'I' for Inactive)
    1  A    between atoms: C_1  and  C_2
    2  A    between atoms: N_6  and  C_18
    3  A    between atoms: N_6  and  C_26
                            x       y       z     vdW  Elec       q    Type
                         _______ _______ _______ _____ _____    ______ ____

>  <TORSDO>
F 3

$$$$
