=
 OpenBabel11062413003D

 38 43  0  0  1  0  0  0  0  0999 V2000
  190.2320  177.5700  144.0830 C   0  0  2  0  0  3  0  0  0  0  0  0
  188.4520  177.7160  142.3140 C   0  0  2  0  0  0  0  0  0  0  0  0
  188.3070  177.9610  140.8100 C   0  0  1  0  0  3  0  0  0  0  0  0
  187.3980  178.1660  146.6190 C   0  0  0  0  0  0  0  0  0  0  0  0
  185.9960  178.6410  144.9730 N   0  0  0  0  0  0  0  0  0  0  0  0
  189.8060  176.5100  146.1900 O   0  0  0  0  0  0  0  0  0  0  0  0
  186.1550  178.6410  146.2860 C   0  0  0  0  0  0  0  0  0  0  0  0
  184.5890  178.3630  144.7310 C   0  0  1  0  0  3  0  0  0  0  0  0
  188.0490  177.8930  145.4200 C   0  0  0  0  0  0  0  0  0  0  0  0
  184.0280  178.2870  146.0890 N   0  0  0  0  0  0  0  0  0  0  0  0
  191.5390  177.1220  144.2850 O   0  0  0  0  0  1  0  0  0  0  0  0
  187.1150  178.1470  144.4070 C   0  0  0  0  0  0  0  0  0  0  0  0
  187.1220  177.5530  143.0300 C   0  0  0  0  0  2  0  0  0  0  0  0
  184.9380  178.4240  146.9730 N   0  0  0  0  0  0  0  0  0  0  0  0
  188.7270  179.0920  141.7530 C   0  0  0  0  0  2  0  0  0  0  0  0
  187.8600  177.8890  147.8990 O   0  0  0  0  0  1  0  0  0  0  0  0
  189.3750  177.2670  145.2780 C   0  0  0  0  0  0  0  0  0  0  0  0
  189.6720  176.9430  142.8190 C   0  0  0  0  0  2  0  0  0  0  0  0
  189.4530  177.4100  139.9910 C   0  0  0  0  0  0  0  0  0  0  0  0
  190.7440  177.2890  140.5560 C   0  0  0  0  0  3  0  0  0  0  0  0
  189.2570  177.0870  138.6230 C   0  0  0  0  0  0  0  0  0  0  0  0
  192.5730  176.0190  137.6230 N   0  0  0  0  0  0  0  0  0  0  0  0
  193.8860  175.8090  137.9820 O   0  0  0  0  0  1  0  0  0  0  0  0
  191.8300  176.8240  139.8010 C   0  0  0  0  0  3  0  0  0  0  0  0
  190.3600  176.6260  137.8930 C   0  0  0  0  0  0  0  0  0  0  0  0
  192.7790  175.3340  135.4370 O   0  0  0  0  0  0  0  0  0  0  0  0
  192.0820  175.7770  136.3870 C   0  0  0  0  0  0  0  0  0  0  0  0
  191.6190  176.4890  138.4650 C   0  0  0  0  0  0  0  0  0  0  0  0
  190.4350  176.1350  136.2770 S   0  0  0  0  0  0  0  0  0  0  0  0
  187.0850  176.1170  137.8320 C   0  0  0  0  0  1  0  0  0  0  0  0
  187.6120  178.5220  137.3990 C   0  0  0  0  0  1  0  0  0  0  0  0
  187.9810  177.2490  137.9910 N   0  0  0  0  0  0  0  0  0  0  0  0
  183.9360  179.4850  143.9240 C   0  0  0  0  0  2  0  0  0  0  0  0
  183.0510  178.9540  142.8000 C   0  0  0  0  0  2  0  0  0  0  0  0
  183.0980  179.2000  140.4320 F   0  0  0  0  0  0  0  0  0  0  0  0
  185.0240  179.4880  141.5780 F   0  0  0  0  0  0  0  0  0  0  0  0
  183.8430  178.7700  141.5140 C   0  0  0  0  0  0  0  0  0  0  0  0
  184.1380  177.4300  141.3560 F   0  0  0  0  0  0  0  0  0  0  0  0
  1 11  1  1  0  0  0
  1 17  1  0  0  0  0
  2 15  1  1  0  0  0
  2 18  1  0  0  0  0
  2 13  1  0  0  0  0
  3 19  1  6  0  0  0
  3 15  1  0  0  0  0
  3  2  1  0  0  0  0
  4 16  1  0  0  0  0
  5  7  1  0  0  0  0
  7  4  2  0  0  0  0
  7 14  1  0  0  0  0
  8 33  1  6  0  0  0
  8  5  1  0  0  0  0
  8 10  1  0  0  0  0
  9  4  1  0  0  0  0
 10 14  2  0  0  0  0
 12  5  1  0  0  0  0
 12  9  2  0  0  0  0
 13 12  1  0  0  0  0
 17  9  1  0  0  0  0
 17  6  2  0  0  0  0
 18  1  1  0  0  0  0
 19 20  1  0  0  0  0
 21 19  2  0  0  0  0
 22 23  1  0  0  0  0
 22 28  1  0  0  0  0
 24 20  2  0  0  0  0
 25 28  2  0  0  0  0
 25 21  1  0  0  0  0
 26 27  2  0  0  0  0
 27 22  1  0  0  0  0
 28 24  1  0  0  0  0
 29 27  1  0  0  0  0
 29 25  1  0  0  0  0
 30 32  1  0  0  0  0
 31 32  1  0  0  0  0
 32 21  1  0  0  0  0
 34 33  1  0  0  0  0
 35 37  1  0  0  0  0
 37 36  1  0  0  0  0
 37 34  1  0  0  0  0
 38 37  1  0  0  0  0
M  END
>  <MODEL>
1

>  <REMARK>
 VINA RESULT:      -9.4      0.000      0.000
  Name = 
  5 active torsions:
  status: ('A' for Active; 'I' for Inactive)
    1  A    between atoms: C_1  and  C_5
    2  A    between atoms: C_6  and  N_36
    3  A    between atoms: C_9  and  C_26
    4  A    between atoms: C_9  and  C_35
    5  A    between atoms: C_15  and  C_35
                            x       y       z     vdW  Elec       q    Type
                         _______ _______ _______ _____ _____    ______ ____

>  <TORSDO>
F 5

$$$$
=
 OpenBabel11062413003D

 38 43  0  0  1  0  0  0  0  0999 V2000
  183.3080  179.2240  144.1090 C   0  0  2  0  0  3  0  0  0  0  0  0
  184.7910  178.1840  142.3650 C   0  0  2  0  0  0  0  0  0  0  0  0
  186.2750  177.9640  142.0630 C   0  0  1  0  0  3  0  0  0  0  0  0
  180.5660  179.2220  141.4080 C   0  0  0  0  0  0  0  0  0  0  0  0
  182.0520  178.6560  139.8680 N   0  0  0  0  0  0  0  0  0  0  0  0
  180.9890  178.6440  144.2730 O   0  0  0  0  0  0  0  0  0  0  0  0
  180.8050  179.0480  140.0680 C   0  0  0  0  0  0  0  0  0  0  0  0
  182.0240  177.7770  138.7100 C   0  0  1  0  0  3  0  0  0  0  0  0
  181.7640  178.9490  142.0600 C   0  0  0  0  0  0  0  0  0  0  0  0
  180.6130  177.8200  138.2960 N   0  0  0  0  0  0  0  0  0  0  0  0
  183.2100  179.4140  145.4880 O   0  0  0  0  0  1  0  0  0  0  0  0
  182.6610  178.5380  141.0650 C   0  0  0  0  0  0  0  0  0  0  0  0
  183.8710  177.6760  141.2680 C   0  0  0  0  0  2  0  0  0  0  0  0
  179.9180  178.5320  139.0950 N   0  0  0  0  0  0  0  0  0  0  0  0
  185.6580  179.3650  141.9950 C   0  0  0  0  0  2  0  0  0  0  0  0
  179.3370  179.4870  141.9990 O   0  0  0  0  0  1  0  0  0  0  0  0
  181.9650  178.9050  143.5190 C   0  0  0  0  0  0  0  0  0  0  0  0
  184.3210  178.1290  143.8200 C   0  0  0  0  0  2  0  0  0  0  0  0
  187.1210  177.7450  143.2980 C   0  0  0  0  0  0  0  0  0  0  0  0
  186.5330  177.7760  144.5840 C   0  0  0  0  0  3  0  0  0  0  0  0
  188.5260  177.5870  143.1780 C   0  0  0  0  0  0  0  0  0  0  0  0
  189.5450  177.2710  146.6420 N   0  0  0  0  0  0  0  0  0  0  0  0
  189.1720  177.2470  147.9670 O   0  0  0  0  0  1  0  0  0  0  0  0
  187.3050  177.6190  145.7430 C   0  0  0  0  0  3  0  0  0  0  0  0
  189.2730  177.4350  144.3530 C   0  0  0  0  0  0  0  0  0  0  0  0
  191.7950  176.9460  146.9890 O   0  0  0  0  0  0  0  0  0  0  0  0
  190.8180  177.1210  146.2150 C   0  0  0  0  0  0  0  0  0  0  0  0
  188.6800  177.4430  145.6090 C   0  0  0  0  0  0  0  0  0  0  0  0
  190.9370  177.1960  144.5310 S   0  0  0  0  0  0  0  0  0  0  0  0
  189.0100  178.7400  141.0050 C   0  0  0  0  0  1  0  0  0  0  0  0
  189.9150  176.4490  141.4340 C   0  0  0  0  0  1  0  0  0  0  0  0
  189.1750  177.6080  141.9000 N   0  0  0  0  0  0  0  0  0  0  0  0
  182.9420  178.2940  137.6020 C   0  0  0  0  0  2  0  0  0  0  0  0
  184.2530  177.5180  137.5230 C   0  0  0  0  0  2  0  0  0  0  0  0
  186.2020  177.6300  138.8860 F   0  0  0  0  0  0  0  0  0  0  0  0
  186.1930  178.7660  136.9320 F   0  0  0  0  0  0  0  0  0  0  0  0
  185.4230  178.3600  138.0070 C   0  0  0  0  0  0  0  0  0  0  0  0
  184.9340  179.4770  138.6580 F   0  0  0  0  0  0  0  0  0  0  0  0
  1 11  1  1  0  0  0
  2 13  1  6  0  0  0
  2 18  1  0  0  0  0
  3  2  1  0  0  0  0
  3 19  1  1  0  0  0
  4 16  1  0  0  0  0
  4  9  1  0  0  0  0
  5  7  1  0  0  0  0
  5 12  1  0  0  0  0
  7  4  2  0  0  0  0
  8 33  1  6  0  0  0
  8  5  1  0  0  0  0
  9 17  1  0  0  0  0
 10  8  1  0  0  0  0
 10 14  2  0  0  0  0
 12 13  1  0  0  0  0
 12  9  2  0  0  0  0
 14  7  1  0  0  0  0
 15  3  1  0  0  0  0
 15  2  1  0  0  0  0
 17  1  1  0  0  0  0
 17  6  2  0  0  0  0
 18  1  1  0  0  0  0
 19 20  1  0  0  0  0
 20 24  2  0  0  0  0
 21 19  2  0  0  0  0
 21 25  1  0  0  0  0
 22 23  1  0  0  0  0
 25 29  1  0  0  0  0
 25 28  2  0  0  0  0
 27 22  1  0  0  0  0
 27 26  2  0  0  0  0
 28 24  1  0  0  0  0
 28 22  1  0  0  0  0
 29 27  1  0  0  0  0
 30 32  1  0  0  0  0
 31 32  1  0  0  0  0
 32 21  1  0  0  0  0
 34 33  1  0  0  0  0
 34 37  1  0  0  0  0
 36 37  1  0  0  0  0
 37 38  1  0  0  0  0
 37 35  1  0  0  0  0
M  END
>  <MODEL>
2

>  <REMARK>
 VINA RESULT:      -8.9      3.975      7.042
  Name = 
  5 active torsions:
  status: ('A' for Active; 'I' for Inactive)
    1  A    between atoms: C_1  and  C_5
    2  A    between atoms: C_6  and  N_36
    3  A    between atoms: C_9  and  C_26
    4  A    between atoms: C_9  and  C_35
    5  A    between atoms: C_15  and  C_35
                            x       y       z     vdW  Elec       q    Type
                         _______ _______ _______ _____ _____    ______ ____

>  <TORSDO>
F 5

$$$$
=
 OpenBabel11062413003D

 38 43  0  0  1  0  0  0  0  0999 V2000
  183.2430  179.2120  144.1130 C   0  0  2  0  0  3  0  0  0  0  0  0
  184.5620  178.2420  142.2050 C   0  0  2  0  0  0  0  0  0  0  0  0
  186.0120  178.0430  141.7600 C   0  0  1  0  0  3  0  0  0  0  0  0
  180.2620  179.2810  141.6790 C   0  0  0  0  0  0  0  0  0  0  0  0
  181.6010  178.7780  139.9900 N   0  0  0  0  0  0  0  0  0  0  0  0
  180.9510  178.6110  144.4720 O   0  0  0  0  0  0  0  0  0  0  0  0
  180.3760  179.1540  140.3180 C   0  0  0  0  0  0  0  0  0  0  0  0
  181.4690  177.9380  138.8100 C   0  0  1  0  0  3  0  0  0  0  0  0
  181.5160  178.9950  142.2080 C   0  0  0  0  0  0  0  0  0  0  0  0
  180.0260  177.9840  138.5300 N   0  0  0  0  0  0  0  0  0  0  0  0
  183.2720  179.3550  145.5010 O   0  0  0  0  0  1  0  0  0  0  0  0
  182.3190  178.6240  141.1210 C   0  0  0  0  0  0  0  0  0  0  0  0
  183.5460  177.7640  141.1820 C   0  0  0  0  0  2  0  0  0  0  0  0
  179.4060  178.6650  139.4140 N   0  0  0  0  0  0  0  0  0  0  0  0
  185.3860  179.4410  141.7970 C   0  0  0  0  0  2  0  0  0  0  0  0
  179.0920  179.5180  142.3900 O   0  0  0  0  0  1  0  0  0  0  0  0
  181.8520  178.9040  143.6400 C   0  0  0  0  0  0  0  0  0  0  0  0
  184.2280  178.1350  143.6950 C   0  0  0  0  0  2  0  0  0  0  0  0
  186.9700  177.7880  142.9030 C   0  0  0  0  0  0  0  0  0  0  0  0
  186.5020  177.7660  144.2380 C   0  0  0  0  0  3  0  0  0  0  0  0
  188.3590  177.6500  142.6490 C   0  0  0  0  0  0  0  0  0  0  0  0
  189.6940  177.2200  145.9910 N   0  0  0  0  0  0  0  0  0  0  0  0
  189.4450  177.1450  147.3430 O   0  0  0  0  0  1  0  0  0  0  0  0
  187.3780  177.5770  145.3150 C   0  0  0  0  0  3  0  0  0  0  0  0
  189.2120  177.4630  143.7440 C   0  0  0  0  0  0  0  0  0  0  0  0
  191.9690  176.9070  146.1180 O   0  0  0  0  0  0  0  0  0  0  0  0
  190.9240  177.1000  145.4440 C   0  0  0  0  0  0  0  0  0  0  0  0
  188.7370  177.4200  145.0490 C   0  0  0  0  0  0  0  0  0  0  0  0
  190.8860  177.2360  143.7600 S   0  0  0  0  0  0  0  0  0  0  0  0
  189.5500  176.5790  140.7200 C   0  0  0  0  0  1  0  0  0  0  0  0
  188.8670  178.9800  140.5900 C   0  0  0  0  0  1  0  0  0  0  0  0
  188.8870  177.7240  141.3190 N   0  0  0  0  0  0  0  0  0  0  0  0
  182.2780  178.4980  137.6400 C   0  0  0  0  0  2  0  0  0  0  0  0
  181.4160  178.7620  136.4090 C   0  0  0  0  0  2  0  0  0  0  0  0
  179.5730  180.2650  136.5240 F   0  0  0  0  0  0  0  0  0  0  0  0
  181.5580  180.9370  137.3710 F   0  0  0  0  0  0  0  0  0  0  0  0
  180.9460  180.2080  136.3660 C   0  0  0  0  0  0  0  0  0  0  0  0
  181.2830  180.7550  135.1430 F   0  0  0  0  0  0  0  0  0  0  0  0
  1 11  1  1  0  0  0
  2 13  1  6  0  0  0
  2 18  1  0  0  0  0
  3 15  1  0  0  0  0
  3  2  1  0  0  0  0
  3 19  1  1  0  0  0
  4  9  1  0  0  0  0
  4 16  1  0  0  0  0
  5  7  1  0  0  0  0
  5 12  1  0  0  0  0
  7  4  2  0  0  0  0
  8 33  1  6  0  0  0
  8  5  1  0  0  0  0
  9 17  1  0  0  0  0
 10  8  1  0  0  0  0
 10 14  2  0  0  0  0
 12 13  1  0  0  0  0
 12  9  2  0  0  0  0
 14  7  1  0  0  0  0
 15  2  1  0  0  0  0
 17  1  1  0  0  0  0
 17  6  2  0  0  0  0
 18  1  1  0  0  0  0
 19 20  1  0  0  0  0
 20 24  2  0  0  0  0
 21 19  2  0  0  0  0
 21 25  1  0  0  0  0
 22 23  1  0  0  0  0
 25 29  1  0  0  0  0
 25 28  2  0  0  0  0
 27 22  1  0  0  0  0
 27 26  2  0  0  0  0
 28 24  1  0  0  0  0
 28 22  1  0  0  0  0
 29 27  1  0  0  0  0
 30 32  1  0  0  0  0
 31 32  1  0  0  0  0
 32 21  1  0  0  0  0
 34 33  1  0  0  0  0
 37 34  1  0  0  0  0
 37 35  1  0  0  0  0
 37 36  1  0  0  0  0
 38 37  1  0  0  0  0
M  END
>  <MODEL>
3

>  <REMARK>
 VINA RESULT:      -8.0      4.260      7.038
  Name = 
  5 active torsions:
  status: ('A' for Active; 'I' for Inactive)
    1  A    between atoms: C_1  and  C_5
    2  A    between atoms: C_6  and  N_36
    3  A    between atoms: C_9  and  C_26
    4  A    between atoms: C_9  and  C_35
    5  A    between atoms: C_15  and  C_35
                            x       y       z     vdW  Elec       q    Type
                         _______ _______ _______ _____ _____    ______ ____

>  <TORSDO>
F 5

$$$$
=
 OpenBabel11062413003D

 38 43  0  0  1  0  0  0  0  0999 V2000
  188.0220  178.5680  140.6440 C   0  0  2  0  0  3  0  0  0  0  0  0
  186.3260  178.1800  142.4580 C   0  0  2  0  0  0  0  0  0  0  0  0
  184.8590  178.4740  142.7790 C   0  0  1  0  0  3  0  0  0  0  0  0
  190.6820  177.8460  143.3310 C   0  0  0  0  0  0  0  0  0  0  0  0
  189.1320  177.8920  144.9100 N   0  0  0  0  0  0  0  0  0  0  0  0
  190.0230  177.2560  140.5120 O   0  0  0  0  0  0  0  0  0  0  0  0
  190.4330  177.8440  144.6800 C   0  0  0  0  0  0  0  0  0  0  0  0
  188.9010  177.1280  146.1250 C   0  0  1  0  0  3  0  0  0  0  0  0
  189.4440  177.9370  142.7020 C   0  0  0  0  0  0  0  0  0  0  0  0
  190.2600  176.7350  146.5310 N   0  0  0  0  0  0  0  0  0  0  0  0
  188.1420  178.6280  139.2540 O   0  0  0  0  0  1  0  0  0  0  0  0
  188.4870  177.9040  143.7250 C   0  0  0  0  0  0  0  0  0  0  0  0
  187.0590  177.4700  143.5850 C   0  0  0  0  0  2  0  0  0  0  0  0
  191.1280  177.1310  145.6830 N   0  0  0  0  0  0  0  0  0  0  0  0
  185.8980  179.5990  142.7500 C   0  0  0  0  0  2  0  0  0  0  0  0
  191.9150  177.6590  142.7200 O   0  0  0  0  0  1  0  0  0  0  0  0
  189.2040  177.8680  141.2500 C   0  0  0  0  0  0  0  0  0  0  0  0
  186.7170  177.8820  141.0090 C   0  0  0  0  0  2  0  0  0  0  0  0
  183.9570  178.4630  141.5640 C   0  0  0  0  0  0  0  0  0  0  0  0
  184.5020  178.2990  140.2690 C   0  0  0  0  0  3  0  0  0  0  0  0
  182.5660  178.7000  141.7110 C   0  0  0  0  0  0  0  0  0  0  0  0
  181.4200  178.5870  138.2740 N   0  0  0  0  0  0  0  0  0  0  0  0
  181.7420  178.4280  136.9450 O   0  0  0  0  0  1  0  0  0  0  0  0
  183.6900  178.3310  139.1270 C   0  0  0  0  0  3  0  0  0  0  0  0
  181.7790  178.7280  140.5520 C   0  0  0  0  0  0  0  0  0  0  0  0
  179.1600  178.8820  137.9700 O   0  0  0  0  0  0  0  0  0  0  0  0
  180.1650  178.8030  138.7240 C   0  0  0  0  0  0  0  0  0  0  0  0
  182.3220  178.5420  139.2870 C   0  0  0  0  0  0  0  0  0  0  0  0
  180.1100  178.9500  140.4060 S   0  0  0  0  0  0  0  0  0  0  0  0
  182.6540  179.7530  143.9840 C   0  0  0  0  0  1  0  0  0  0  0  0
  180.7490  178.2530  143.3740 C   0  0  0  0  0  1  0  0  0  0  0  0
  181.9770  178.9300  142.9970 N   0  0  0  0  0  0  0  0  0  0  0  0
  188.2290  177.9840  147.1980 C   0  0  0  0  0  2  0  0  0  0  0  0
  186.7420  177.6710  147.3450 C   0  0  0  0  0  2  0  0  0  0  0  0
  186.0560  179.8710  147.9430 F   0  0  0  0  0  0  0  0  0  0  0  0
  186.2420  179.3650  145.7480 F   0  0  0  0  0  0  0  0  0  0  0  0
  185.8870  178.8790  146.9940 C   0  0  0  0  0  0  0  0  0  0  0  0
  184.5600  178.4990  146.9690 F   0  0  0  0  0  0  0  0  0  0  0  0
  1 11  1  6  0  0  0
  1 18  1  0  0  0  0
  1 17  1  0  0  0  0
  2 18  1  6  0  0  0
  2 15  1  0  0  0  0
  2  3  1  0  0  0  0
  2 13  1  0  0  0  0
  3 19  1  6  0  0  0
  4  7  2  0  0  0  0
  5  8  1  0  0  0  0
  6 17  2  0  0  0  0
  7  5  1  0  0  0  0
  7 14  1  0  0  0  0
  8 10  1  0  0  0  0
  8 33  1  1  0  0  0
  9  4  1  0  0  0  0
  9 12  2  0  0  0  0
 12  5  1  0  0  0  0
 13 12  1  0  0  0  0
 14 10  2  0  0  0  0
 15  3  1  0  0  0  0
 16  4  1  0  0  0  0
 17  9  1  0  0  0  0
 19 21  1  0  0  0  0
 20 19  2  0  0  0  0
 21 32  1  0  0  0  0
 22 27  1  0  0  0  0
 22 28  1  0  0  0  0
 23 22  1  0  0  0  0
 24 28  2  0  0  0  0
 24 20  1  0  0  0  0
 25 21  2  0  0  0  0
 26 27  2  0  0  0  0
 27 29  1  0  0  0  0
 28 25  1  0  0  0  0
 29 25  1  0  0  0  0
 32 31  1  0  0  0  0
 32 30  1  0  0  0  0
 33 34  1  0  0  0  0
 36 37  1  0  0  0  0
 37 34  1  0  0  0  0
 37 35  1  0  0  0  0
 38 37  1  0  0  0  0
M  END
>  <MODEL>
4

>  <REMARK>
 VINA RESULT:      -7.7      4.548      7.173
  Name = 
  5 active torsions:
  status: ('A' for Active; 'I' for Inactive)
    1  A    between atoms: C_1  and  C_5
    2  A    between atoms: C_6  and  N_36
    3  A    between atoms: C_9  and  C_26
    4  A    between atoms: C_9  and  C_35
    5  A    between atoms: C_15  and  C_35
                            x       y       z     vdW  Elec       q    Type
                         _______ _______ _______ _____ _____    ______ ____

>  <TORSDO>
F 5

$$$$
=
 OpenBabel11062413003D

 38 43  0  0  1  0  0  0  0  0999 V2000
  186.5580  178.7760  139.7860 C   0  0  2  0  0  3  0  0  0  0  0  0
  188.5070  177.3220  140.4220 C   0  0  2  0  0  0  0  0  0  0  0  0
  189.4520  177.0710  141.6000 C   0  0  1  0  0  3  0  0  0  0  0  0
  187.4280  177.9040  136.1400 C   0  0  0  0  0  0  0  0  0  0  0  0
  189.3210  176.9620  136.7930 N   0  0  0  0  0  0  0  0  0  0  0  0
  185.1200  178.1960  137.9590 O   0  0  0  0  0  0  0  0  0  0  0  0
  188.6210  177.3560  135.7430 C   0  0  0  0  0  0  0  0  0  0  0  0
  190.0640  175.7850  136.3730 C   0  0  1  0  0  3  0  0  0  0  0  0
  187.4220  177.8700  137.5300 C   0  0  0  0  0  0  0  0  0  0  0  0
  189.7090  175.6610  134.9500 N   0  0  0  0  0  0  0  0  0  0  0  0
  185.4050  179.3550  140.3210 O   0  0  0  0  0  1  0  0  0  0  0  0
  188.6030  177.2160  137.9060 C   0  0  0  0  0  0  0  0  0  0  0  0
  188.8380  176.4880  139.1960 C   0  0  0  0  0  2  0  0  0  0  0  0
  188.8640  176.5520  134.6050 N   0  0  0  0  0  0  0  0  0  0  0  0
  189.5300  178.3710  140.7940 C   0  0  0  0  0  2  0  0  0  0  0  0
  186.3810  178.2900  135.3110 O   0  0  0  0  0  1  0  0  0  0  0  0
  186.2990  178.2580  138.4010 C   0  0  0  0  0  0  0  0  0  0  0  0
  187.0470  177.6760  140.7130 C   0  0  0  0  0  2  0  0  0  0  0  0
  188.7970  177.2460  142.9520 C   0  0  0  0  0  0  0  0  0  0  0  0
  187.3960  177.4110  143.0540 C   0  0  0  0  0  3  0  0  0  0  0  0
  189.5950  177.3260  144.1230 C   0  0  0  0  0  0  0  0  0  0  0  0
  187.1000  177.8600  146.6970 N   0  0  0  0  0  0  0  0  0  0  0  0
  185.7700  178.0190  147.0130 O   0  0  0  0  0  1  0  0  0  0  0  0
  186.7740  177.6190  144.2930 C   0  0  0  0  0  3  0  0  0  0  0  0
  188.9470  177.5370  145.3460 C   0  0  0  0  0  0  0  0  0  0  0  0
  187.9080  178.0210  148.8440 O   0  0  0  0  0  0  0  0  0  0  0  0
  188.0970  177.8670  147.6100 C   0  0  0  0  0  0  0  0  0  0  0  0
  187.5680  177.6740  145.4360 C   0  0  0  0  0  0  0  0  0  0  0  0
  189.6120  177.6430  146.8970 S   0  0  0  0  0  0  0  0  0  0  0  0
  191.6800  175.9350  144.2010 C   0  0  0  0  0  1  0  0  0  0  0  0
  191.8420  178.4200  143.9760 C   0  0  0  0  0  1  0  0  0  0  0  0
  191.0230  177.2240  144.0630 N   0  0  0  0  0  0  0  0  0  0  0  0
  191.5680  175.9860  136.5530 C   0  0  0  0  0  2  0  0  0  0  0  0
  192.0480  175.5750  137.9420 C   0  0  0  0  0  2  0  0  0  0  0  0
  194.2940  175.4730  138.7270 F   0  0  0  0  0  0  0  0  0  0  0  0
  193.7340  177.1250  137.2890 F   0  0  0  0  0  0  0  0  0  0  0  0
  193.2930  176.3490  138.3470 C   0  0  0  0  0  0  0  0  0  0  0  0
  192.9850  177.1720  139.4120 F   0  0  0  0  0  0  0  0  0  0  0  0
  1 11  1  1  0  0  0
  1 18  1  0  0  0  0
  2 13  1  6  0  0  0
  2 18  1  0  0  0  0
  2 15  1  0  0  0  0
  2  3  1  0  0  0  0
  3 19  1  1  0  0  0
  4  9  1  0  0  0  0
  5 12  1  0  0  0  0
  6 17  2  0  0  0  0
  7  4  2  0  0  0  0
  7  5  1  0  0  0  0
  8 33  1  6  0  0  0
  8  5  1  0  0  0  0
  9 12  2  0  0  0  0
  9 17  1  0  0  0  0
 10  8  1  0  0  0  0
 12 13  1  0  0  0  0
 14 10  2  0  0  0  0
 14  7  1  0  0  0  0
 15  3  1  0  0  0  0
 16  4  1  0  0  0  0
 17  1  1  0  0  0  0
 19 20  2  0  0  0  0
 19 21  1  0  0  0  0
 20 24  1  0  0  0  0
 21 25  2  0  0  0  0
 22 23  1  0  0  0  0
 22 27  1  0  0  0  0
 24 28  2  0  0  0  0
 25 28  1  0  0  0  0
 25 29  1  0  0  0  0
 27 26  2  0  0  0  0
 28 22  1  0  0  0  0
 29 27  1  0  0  0  0
 31 32  1  0  0  0  0
 32 21  1  0  0  0  0
 32 30  1  0  0  0  0
 33 34  1  0  0  0  0
 34 37  1  0  0  0  0
 36 37  1  0  0  0  0
 37 35  1  0  0  0  0
 37 38  1  0  0  0  0
M  END
>  <MODEL>
5

>  <REMARK>
 VINA RESULT:      -7.6      4.268      9.045
  Name = 
  5 active torsions:
  status: ('A' for Active; 'I' for Inactive)
    1  A    between atoms: C_1  and  C_5
    2  A    between atoms: C_6  and  N_36
    3  A    between atoms: C_9  and  C_26
    4  A    between atoms: C_9  and  C_35
    5  A    between atoms: C_15  and  C_35
                            x       y       z     vdW  Elec       q    Type
                         _______ _______ _______ _____ _____    ______ ____

>  <TORSDO>
F 5

$$$$
=
 OpenBabel11062413003D

 38 43  0  0  1  0  0  0  0  0999 V2000
  185.6440  177.8080  143.1970 C   0  0  2  0  0  3  0  0  0  0  0  0
  188.1510  177.7220  143.0400 C   0  0  2  0  0  0  0  0  0  0  0  0
  189.2550  177.3220  142.0590 C   0  0  1  0  0  3  0  0  0  0  0  0
  186.1430  177.9640  147.0090 C   0  0  0  0  0  0  0  0  0  0  0  0
  188.2970  177.5130  146.7690 N   0  0  0  0  0  0  0  0  0  0  0  0
  184.5470  179.1690  144.8360 O   0  0  0  0  0  0  0  0  0  0  0  0
  187.3170  177.6480  147.6460 C   0  0  0  0  0  0  0  0  0  0  0  0
  189.5070  177.9700  147.4320 C   0  0  1  0  0  3  0  0  0  0  0  0
  186.4270  177.9870  145.6480 C   0  0  0  0  0  0  0  0  0  0  0  0
  189.0380  178.2960  148.7880 N   0  0  0  0  0  0  0  0  0  0  0  0
  184.5090  178.0740  142.4280 O   0  0  0  0  0  1  0  0  0  0  0  0
  187.8050  177.7570  145.5370 C   0  0  0  0  0  0  0  0  0  0  0  0
  188.6800  178.1720  144.3920 C   0  0  0  0  0  2  0  0  0  0  0  0
  187.7770  178.1300  148.8930 N   0  0  0  0  0  0  0  0  0  0  0  0
  188.3610  176.2620  142.7110 C   0  0  0  0  0  2  0  0  0  0  0  0
  184.9460  178.3210  147.6170 O   0  0  0  0  0  1  0  0  0  0  0  0
  185.4970  178.3820  144.5760 C   0  0  0  0  0  0  0  0  0  0  0  0
  186.8720  178.3560  142.4900 C   0  0  0  0  0  2  0  0  0  0  0  0
  188.9070  177.5870  140.6110 C   0  0  0  0  0  0  0  0  0  0  0  0
  187.6200  178.0580  140.2580 C   0  0  0  0  0  3  0  0  0  0  0  0
  189.8440  177.2870  139.5890 C   0  0  0  0  0  0  0  0  0  0  0  0
  187.9920  178.1550  136.5960 N   0  0  0  0  0  0  0  0  0  0  0  0
  186.8190  178.6230  136.0480 O   0  0  0  0  0  1  0  0  0  0  0  0
  187.2620  178.2680  138.9200 C   0  0  0  0  0  3  0  0  0  0  0  0
  189.4590  177.5050  138.2600 C   0  0  0  0  0  0  0  0  0  0  0  0
  189.1240  177.8790  134.6130 O   0  0  0  0  0  0  0  0  0  0  0  0
  189.0780  177.8090  135.8690 C   0  0  0  0  0  0  0  0  0  0  0  0
  188.2000  177.9900  137.9270 C   0  0  0  0  0  0  0  0  0  0  0  0
  190.3520  177.2800  136.8430 S   0  0  0  0  0  0  0  0  0  0  0  0
  191.9690  177.3630  140.9170 C   0  0  0  0  0  1  0  0  0  0  0  0
  191.6860  175.6630  139.1060 C   0  0  0  0  0  1  0  0  0  0  0  0
  191.1380  176.7530  139.8930 N   0  0  0  0  0  0  0  0  0  0  0  0
  190.5690  176.8720  147.4620 C   0  0  0  0  0  2  0  0  0  0  0  0
  191.6700  177.0980  146.4290 C   0  0  0  0  0  2  0  0  0  0  0  0
  192.4040  174.9870  145.6060 F   0  0  0  0  0  0  0  0  0  0  0  0
  190.2900  175.6410  145.1460 F   0  0  0  0  0  0  0  0  0  0  0  0
  191.5950  176.0690  145.3110 C   0  0  0  0  0  0  0  0  0  0  0  0
  192.0300  176.6500  144.1350 F   0  0  0  0  0  0  0  0  0  0  0  0
  1 11  1  6  0  0  0
  1 17  1  0  0  0  0
  2 18  1  6  0  0  0
  2 13  1  0  0  0  0
  3 19  1  6  0  0  0
  3 15  1  0  0  0  0
  3  2  1  0  0  0  0
  4 16  1  0  0  0  0
  4  7  2  0  0  0  0
  5  8  1  0  0  0  0
  5  7  1  0  0  0  0
  7 14  1  0  0  0  0
  8 33  1  1  0  0  0
  8 10  1  0  0  0  0
  9  4  1  0  0  0  0
 10 14  2  0  0  0  0
 12  9  2  0  0  0  0
 12  5  1  0  0  0  0
 13 12  1  0  0  0  0
 15  2  1  0  0  0  0
 17  6  2  0  0  0  0
 17  9  1  0  0  0  0
 18  1  1  0  0  0  0
 20 19  1  0  0  0  0
 21 32  1  0  0  0  0
 21 19  2  0  0  0  0
 22 28  1  0  0  0  0
 23 22  1  0  0  0  0
 24 20  2  0  0  0  0
 25 21  1  0  0  0  0
 26 27  2  0  0  0  0
 27 22  1  0  0  0  0
 27 29  1  0  0  0  0
 28 25  2  0  0  0  0
 28 24  1  0  0  0  0
 29 25  1  0  0  0  0
 31 32  1  0  0  0  0
 32 30  1  0  0  0  0
 34 33  1  0  0  0  0
 36 37  1  0  0  0  0
 37 35  1  0  0  0  0
 37 34  1  0  0  0  0
 38 37  1  0  0  0  0
M  END
>  <MODEL>
6

>  <REMARK>
 VINA RESULT:      -7.6      3.464      5.147
  Name = 
  5 active torsions:
  status: ('A' for Active; 'I' for Inactive)
    1  A    between atoms: C_1  and  C_5
    2  A    between atoms: C_6  and  N_36
    3  A    between atoms: C_9  and  C_26
    4  A    between atoms: C_9  and  C_35
    5  A    between atoms: C_15  and  C_35
                            x       y       z     vdW  Elec       q    Type
                         _______ _______ _______ _____ _____    ______ ____

>  <TORSDO>
F 5

$$$$
=
 OpenBabel11062413003D

 38 43  0  0  1  0  0  0  0  0999 V2000
  188.0460  178.2560  139.5670 C   0  0  2  0  0  3  0  0  0  0  0  0
  189.7750  176.8990  140.7870 C   0  0  2  0  0  0  0  0  0  0  0  0
  190.3790  176.7470  142.1850 C   0  0  1  0  0  3  0  0  0  0  0  0
  189.8560  177.1890  136.3420 C   0  0  0  0  0  0  0  0  0  0  0  0
  191.5210  176.3420  137.5300 N   0  0  0  0  0  0  0  0  0  0  0  0
  187.1460  177.5250  137.4690 O   0  0  0  0  0  0  0  0  0  0  0  0
  191.1180  176.6510  136.3090 C   0  0  0  0  0  0  0  0  0  0  0  0
  192.3610  175.1630  137.3980 C   0  0  1  0  0  3  0  0  0  0  0  0
  189.4840  177.2390  137.6820 C   0  0  0  0  0  0  0  0  0  0  0  0
  192.3950  174.9430  135.9440 N   0  0  0  0  0  0  0  0  0  0  0  0
  186.7870  178.8330  139.7410 O   0  0  0  0  0  1  0  0  0  0  0  0
  190.5320  176.6430  138.3960 C   0  0  0  0  0  0  0  0  0  0  0  0
  190.4270  176.0020  139.7480 C   0  0  0  0  0  2  0  0  0  0  0  0
  191.6610  175.7870  135.3310 N   0  0  0  0  0  0  0  0  0  0  0  0
  190.6520  177.9980  141.3430 C   0  0  0  0  0  2  0  0  0  0  0  0
  189.0600  177.4940  135.2450 O   0  0  0  0  0  1  0  0  0  0  0  0
  188.1670  177.6470  138.2000 C   0  0  0  0  0  0  0  0  0  0  0  0
  188.2860  177.2290  140.6600 C   0  0  0  0  0  2  0  0  0  0  0  0
  189.3890  176.9850  143.3040 C   0  0  0  0  0  0  0  0  0  0  0  0
  187.9980  176.9720  143.0450 C   0  0  0  0  0  3  0  0  0  0  0  0
  189.8530  177.3040  144.6060 C   0  0  0  0  0  0  0  0  0  0  0  0
  186.7460  177.7890  146.4100 N   0  0  0  0  0  0  0  0  0  0  0  0
  185.3700  177.8030  146.3750 O   0  0  0  0  0  1  0  0  0  0  0  0
  187.0650  177.2350  144.0570 C   0  0  0  0  0  3  0  0  0  0  0  0
  188.8980  177.5640  145.5980 C   0  0  0  0  0  0  0  0  0  0  0  0
  186.9640  178.2990  148.6420 O   0  0  0  0  0  0  0  0  0  0  0  0
  187.4740  178.0320  147.5230 C   0  0  0  0  0  0  0  0  0  0  0  0
  187.5340  177.5250  145.3370 C   0  0  0  0  0  0  0  0  0  0  0  0
  189.1350  177.9330  147.2300 S   0  0  0  0  0  0  0  0  0  0  0  0
  191.9020  176.3620  145.7000 C   0  0  0  0  0  1  0  0  0  0  0  0
  192.0180  178.5560  144.5060 C   0  0  0  0  0  1  0  0  0  0  0  0
  191.2520  177.3870  144.9030 N   0  0  0  0  0  0  0  0  0  0  0  0
  193.7620  175.4170  137.9530 C   0  0  0  0  0  2  0  0  0  0  0  0
  194.8030  174.4690  137.3650 C   0  0  0  0  0  2  0  0  0  0  0  0
  196.8280  173.3840  137.9900 F   0  0  0  0  0  0  0  0  0  0  0  0
  195.7360  174.5980  139.5530 F   0  0  0  0  0  0  0  0  0  0  0  0
  195.5840  173.7600  138.4620 C   0  0  0  0  0  0  0  0  0  0  0  0
  194.8890  172.6330  138.8530 F   0  0  0  0  0  0  0  0  0  0  0  0
  1 11  1  1  0  0  0
  1 18  1  0  0  0  0
  2 13  1  6  0  0  0
  2 15  1  0  0  0  0
  2  3  1  0  0  0  0
  3 19  1  1  0  0  0
  4  9  1  0  0  0  0
  5 12  1  0  0  0  0
  6 17  2  0  0  0  0
  7  4  2  0  0  0  0
  7  5  1  0  0  0  0
  8  5  1  0  0  0  0
  8 33  1  6  0  0  0
  9 17  1  0  0  0  0
  9 12  2  0  0  0  0
 10  8  1  0  0  0  0
 12 13  1  0  0  0  0
 14 10  2  0  0  0  0
 14  7  1  0  0  0  0
 15  3  1  0  0  0  0
 16  4  1  0  0  0  0
 17  1  1  0  0  0  0
 18  2  1  0  0  0  0
 19 21  1  0  0  0  0
 20 19  2  0  0  0  0
 20 24  1  0  0  0  0
 21 32  1  0  0  0  0
 21 25  2  0  0  0  0
 22 27  1  0  0  0  0
 23 22  1  0  0  0  0
 24 28  2  0  0  0  0
 25 29  1  0  0  0  0
 27 26  2  0  0  0  0
 28 25  1  0  0  0  0
 28 22  1  0  0  0  0
 29 27  1  0  0  0  0
 31 32  1  0  0  0  0
 32 30  1  0  0  0  0
 34 33  1  0  0  0  0
 34 37  1  0  0  0  0
 35 37  1  0  0  0  0
 37 38  1  0  0  0  0
 37 36  1  0  0  0  0
M  END
>  <MODEL>
7

>  <REMARK>
 VINA RESULT:      -7.4      4.671      9.705
  Name = 
  5 active torsions:
  status: ('A' for Active; 'I' for Inactive)
    1  A    between atoms: C_1  and  C_5
    2  A    between atoms: C_6  and  N_36
    3  A    between atoms: C_9  and  C_26
    4  A    between atoms: C_9  and  C_35
    5  A    between atoms: C_15  and  C_35
                            x       y       z     vdW  Elec       q    Type
                         _______ _______ _______ _____ _____    ______ ____

>  <TORSDO>
F 5

$$$$
=
 OpenBabel11062413003D

 38 43  0  0  1  0  0  0  0  0999 V2000
  185.7370  178.7300  141.7350 C   0  0  2  0  0  3  0  0  0  0  0  0
  184.1200  178.1870  139.8890 C   0  0  2  0  0  0  0  0  0  0  0  0
  184.0530  178.1380  138.3610 C   0  0  1  0  0  3  0  0  0  0  0  0
  182.6400  179.1130  143.9870 C   0  0  0  0  0  0  0  0  0  0  0  0
  181.3120  178.9890  142.2210 N   0  0  0  0  0  0  0  0  0  0  0  0
  185.3640  177.9710  143.9770 O   0  0  0  0  0  0  0  0  0  0  0  0
  181.3570  179.2440  143.5170 C   0  0  0  0  0  0  0  0  0  0  0  0
  180.0180  178.3760  141.9680 C   0  0  1  0  0  3  0  0  0  0  0  0
  183.4300  178.7910  142.8890 C   0  0  0  0  0  0  0  0  0  0  0  0
  179.3730  178.4090  143.2900 N   0  0  0  0  0  0  0  0  0  0  0  0
  187.0860  178.6160  142.0750 O   0  0  0  0  0  1  0  0  0  0  0  0
  182.5530  178.6620  141.8050 C   0  0  0  0  0  0  0  0  0  0  0  0
  182.7960  177.8610  140.5610 C   0  0  0  0  0  2  0  0  0  0  0  0
  180.1580  178.8870  144.1750 N   0  0  0  0  0  0  0  0  0  0  0  0
  184.1520  179.4760  139.1010 C   0  0  0  0  0  2  0  0  0  0  0  0
  183.0400  179.1620  145.3170 O   0  0  0  0  0  1  0  0  0  0  0  0
  184.8640  178.4530  142.9240 C   0  0  0  0  0  0  0  0  0  0  0  0
  185.4260  177.7930  140.5810 C   0  0  0  0  0  2  0  0  0  0  0  0
  185.3520  177.7200  137.7080 C   0  0  0  0  0  0  0  0  0  0  0  0
  186.4650  178.5940  137.7030 C   0  0  0  0  0  3  0  0  0  0  0  0
  185.4370  176.4790  137.0250 C   0  0  0  0  0  0  0  0  0  0  0  0
  188.8370  176.5450  135.7710 N   0  0  0  0  0  0  0  0  0  0  0  0
  190.0270  177.2290  135.6700 O   0  0  0  0  0  1  0  0  0  0  0  0
  187.6630  178.2450  137.0660 C   0  0  0  0  0  3  0  0  0  0  0  0
  186.6460  176.1570  136.3960 C   0  0  0  0  0  0  0  0  0  0  0  0
  189.4970  174.6830  134.5940 O   0  0  0  0  0  0  0  0  0  0  0  0
  188.6240  175.3210  135.2380 C   0  0  0  0  0  0  0  0  0  0  0  0
  187.7400  177.0140  136.4180 C   0  0  0  0  0  0  0  0  0  0  0  0
  187.0610  174.7580  135.5440 S   0  0  0  0  0  0  0  0  0  0  0  0
  183.3080  175.7490  135.9210 C   0  0  0  0  0  1  0  0  0  0  0  0
  184.1160  174.5780  137.9770 C   0  0  0  0  0  1  0  0  0  0  0  0
  184.3180  175.5870  136.9530 N   0  0  0  0  0  0  0  0  0  0  0  0
  179.2180  179.1770  140.9420 C   0  0  0  0  0  2  0  0  0  0  0  0
  179.5130  178.7460  139.5080 C   0  0  0  0  0  2  0  0  0  0  0  0
  180.9640  180.6330  139.5810 F   0  0  0  0  0  0  0  0  0  0  0  0
  181.0070  179.3180  137.7430 F   0  0  0  0  0  0  0  0  0  0  0  0
  180.1990  179.8580  138.7290 C   0  0  0  0  0  0  0  0  0  0  0  0
  179.2370  180.6530  138.1370 F   0  0  0  0  0  0  0  0  0  0  0  0
  1 11  1  1  0  0  0
  1 17  1  0  0  0  0
  2 15  1  1  0  0  0
  2 13  1  0  0  0  0
  2 18  1  0  0  0  0
  3 19  1  6  0  0  0
  3 15  1  0  0  0  0
  3  2  1  0  0  0  0
  4 16  1  0  0  0  0
  5  7  1  0  0  0  0
  7  4  2  0  0  0  0
  7 14  1  0  0  0  0
  8 33  1  6  0  0  0
  8  5  1  0  0  0  0
  8 10  1  0  0  0  0
  9 17  1  0  0  0  0
  9  4  1  0  0  0  0
 10 14  2  0  0  0  0
 12  5  1  0  0  0  0
 12  9  2  0  0  0  0
 13 12  1  0  0  0  0
 17  6  2  0  0  0  0
 18  1  1  0  0  0  0
 20 19  1  0  0  0  0
 21 19  2  0  0  0  0
 22 28  1  0  0  0  0
 23 22  1  0  0  0  0
 24 20  2  0  0  0  0
 25 28  2  0  0  0  0
 25 21  1  0  0  0  0
 26 27  2  0  0  0  0
 27 29  1  0  0  0  0
 27 22  1  0  0  0  0
 28 24  1  0  0  0  0
 29 25  1  0  0  0  0
 30 32  1  0  0  0  0
 32 21  1  0  0  0  0
 32 31  1  0  0  0  0
 34 33  1  0  0  0  0
 36 37  1  0  0  0  0
 37 34  1  0  0  0  0
 37 35  1  0  0  0  0
 38 37  1  0  0  0  0
M  END
>  <MODEL>
8

>  <REMARK>
 VINA RESULT:      -7.3      3.841      4.959
  Name = 
  5 active torsions:
  status: ('A' for Active; 'I' for Inactive)
    1  A    between atoms: C_1  and  C_5
    2  A    between atoms: C_6  and  N_36
    3  A    between atoms: C_9  and  C_26
    4  A    between atoms: C_9  and  C_35
    5  A    between atoms: C_15  and  C_35
                            x       y       z     vdW  Elec       q    Type
                         _______ _______ _______ _____ _____    ______ ____

>  <TORSDO>
F 5

$$$$
=
 OpenBabel11062413003D

 38 43  0  0  1  0  0  0  0  0999 V2000
  182.6120  178.7270  142.8050 C   0  0  2  0  0  3  0  0  0  0  0  0
  184.3820  178.6480  141.0220 C   0  0  2  0  0  0  0  0  0  0  0  0
  184.5200  178.4630  139.5100 C   0  0  1  0  0  3  0  0  0  0  0  0
  185.4580  178.0290  145.3000 C   0  0  0  0  0  0  0  0  0  0  0  0
  186.8520  177.6180  143.6310 N   0  0  0  0  0  0  0  0  0  0  0  0
  183.0510  179.7040  144.9490 O   0  0  0  0  0  0  0  0  0  0  0  0
  186.6990  177.5670  144.9430 C   0  0  0  0  0  0  0  0  0  0  0  0
  188.2570  177.9030  143.3920 C   0  0  1  0  0  3  0  0  0  0  0  0
  184.8020  178.3500  144.1170 C   0  0  0  0  0  0  0  0  0  0  0  0
  188.8250  177.9260  144.7480 N   0  0  0  0  0  0  0  0  0  0  0  0
  181.3070  179.1690  143.0320 O   0  0  0  0  0  1  0  0  0  0  0  0
  185.7300  178.1340  143.0890 C   0  0  0  0  0  0  0  0  0  0  0  0
  185.7160  178.7820  141.7370 C   0  0  0  0  0  2  0  0  0  0  0  0
  187.9200  177.7550  145.6310 N   0  0  0  0  0  0  0  0  0  0  0  0
  184.1030  177.2950  140.4100 C   0  0  0  0  0  2  0  0  0  0  0  0
  185.0040  178.2560  146.5940 O   0  0  0  0  0  1  0  0  0  0  0  0
  183.4760  178.9830  144.0060 C   0  0  0  0  0  0  0  0  0  0  0  0
  183.1660  179.4030  141.5630 C   0  0  0  0  0  2  0  0  0  0  0  0
  183.3700  179.0460  138.7180 C   0  0  0  0  0  0  0  0  0  0  0  0
  182.7730  180.2660  139.1150 C   0  0  0  0  0  3  0  0  0  0  0  0
  182.8300  178.3310  137.6190 C   0  0  0  0  0  0  0  0  0  0  0  0
  180.1260  180.5030  136.5670 N   0  0  0  0  0  0  0  0  0  0  0  0
  179.4230  181.6690  136.7720 O   0  0  0  0  0  1  0  0  0  0  0  0
  181.6790  180.8010  138.4230 C   0  0  0  0  0  3  0  0  0  0  0  0
  181.7350  178.8880  136.9460 C   0  0  0  0  0  0  0  0  0  0  0  0
  178.9310  179.7870  134.7370 O   0  0  0  0  0  0  0  0  0  0  0  0
  179.8560  179.6250  135.5750 C   0  0  0  0  0  0  0  0  0  0  0  0
  181.1720  180.0990  137.3310 C   0  0  0  0  0  0  0  0  0  0  0  0
  180.9030  178.3010  135.5970 S   0  0  0  0  0  0  0  0  0  0  0  0
  184.4900  176.9900  136.3030 C   0  0  0  0  0  1  0  0  0  0  0  0
  182.7130  175.8300  137.6250 C   0  0  0  0  0  1  0  0  0  0  0  0
  183.3630  177.0630  137.2160 N   0  0  0  0  0  0  0  0  0  0  0  0
  188.9050  176.8130  142.5380 C   0  0  0  0  0  2  0  0  0  0  0  0
  189.9990  177.3610  141.6260 C   0  0  0  0  0  2  0  0  0  0  0  0
  191.4170  176.3490  143.2490 F   0  0  0  0  0  0  0  0  0  0  0  0
  192.3680  177.2520  141.4070 F   0  0  0  0  0  0  0  0  0  0  0  0
  191.3460  177.3820  142.3310 C   0  0  0  0  0  0  0  0  0  0  0  0
  191.4880  178.5850  142.9940 F   0  0  0  0  0  0  0  0  0  0  0  0
  1 11  1  1  0  0  0
  1 17  1  0  0  0  0
  2 15  1  1  0  0  0
  2 18  1  0  0  0  0
  2 13  1  0  0  0  0
  3 19  1  6  0  0  0
  3 15  1  0  0  0  0
  3  2  1  0  0  0  0
  4 16  1  0  0  0  0
  5  7  1  0  0  0  0
  7  4  2  0  0  0  0
  7 14  1  0  0  0  0
  8 33  1  6  0  0  0
  8  5  1  0  0  0  0
  8 10  1  0  0  0  0
  9  4  1  0  0  0  0
 10 14  2  0  0  0  0
 12  5  1  0  0  0  0
 12  9  2  0  0  0  0
 13 12  1  0  0  0  0
 17  9  1  0  0  0  0
 17  6  2  0  0  0  0
 18  1  1  0  0  0  0
 19 20  1  0  0  0  0
 21 19  2  0  0  0  0
 22 23  1  0  0  0  0
 22 28  1  0  0  0  0
 24 20  2  0  0  0  0
 25 28  2  0  0  0  0
 25 21  1  0  0  0  0
 26 27  2  0  0  0  0
 27 29  1  0  0  0  0
 27 22  1  0  0  0  0
 28 24  1  0  0  0  0
 29 25  1  0  0  0  0
 30 32  1  0  0  0  0
 32 21  1  0  0  0  0
 32 31  1  0  0  0  0
 34 37  1  0  0  0  0
 34 33  1  0  0  0  0
 36 37  1  0  0  0  0
 37 38  1  0  0  0  0
 37 35  1  0  0  0  0
M  END
>  <MODEL>
9

>  <REMARK>
 VINA RESULT:      -7.2      5.408      7.718
  Name = 
  5 active torsions:
  status: ('A' for Active; 'I' for Inactive)
    1  A    between atoms: C_1  and  C_5
    2  A    between atoms: C_6  and  N_36
    3  A    between atoms: C_9  and  C_26
    4  A    between atoms: C_9  and  C_35
    5  A    between atoms: C_15  and  C_35
                            x       y       z     vdW  Elec       q    Type
                         _______ _______ _______ _____ _____    ______ ____

>  <TORSDO>
F 5

$$$$
