=
 OpenBabel11062417333D

 47 50  0  0  1  0  0  0  0  0999 V2000
  180.9070  178.5380  143.3770 C   0  0  0  0  0  3  0  0  0  0  0  0
  182.4060  179.3960  144.9960 F   0  0  0  0  0  0  0  0  0  0  0  0
  182.9820  178.4100  141.5140 C   0  0  0  0  0  3  0  0  0  0  0  0
  182.1880  178.9590  143.7340 C   0  0  0  0  0  0  0  0  0  0  0  0
  180.6620  178.0470  142.0980 C   0  0  0  0  0  3  0  0  0  0  0  0
  183.2320  178.9200  142.7960 C   0  0  0  0  0  0  0  0  0  0  0  0
  181.6960  177.9650  141.1610 C   0  0  0  0  0  0  0  0  0  0  0  0
  185.2910  178.1600  143.9470 C   0  0  2  0  0  3  0  0  0  0  0  0
  184.6270  179.3010  143.1920 C   0  0  2  0  0  3  0  0  0  0  0  0
  184.7910  179.3760  144.7000 C   0  0  0  0  0  2  0  0  0  0  0  0
  187.6090  177.1350  143.7400 C   0  0  0  0  0  0  0  0  0  0  0  0
  187.1740  175.9880  144.0280 O   0  0  0  0  0  0  0  0  0  0  0  0
  186.7200  178.2440  143.6960 N   0  0  0  0  0  2  0  0  0  0  0  0
  189.0640  177.3660  143.4550 C   0  0  1  0  0  3  0  0  0  0  0  0
  191.2500  176.6690  144.5170 C   0  0  0  0  0  3  0  0  0  0  0  0
  192.2650  176.3800  148.0540 O   0  0  0  0  0  1  0  0  0  0  0  0
  191.4850  176.6030  146.9260 C   0  0  0  0  0  0  0  0  0  0  0  0
  192.0310  176.4310  145.6520 C   0  0  0  0  0  3  0  0  0  0  0  0
  189.3730  177.2370  145.9330 C   0  0  0  0  0  3  0  0  0  0  0  0
  190.1550  177.0050  147.0660 C   0  0  0  0  0  3  0  0  0  0  0  0
  189.9130  177.0720  144.6570 C   0  0  0  0  0  0  0  0  0  0  0  0
  189.5410  176.6160  142.2080 C   0  0  0  0  0  2  0  0  0  0  0  0
  188.9370  178.0620  140.4670 C   0  0  0  0  0  1  0  0  0  0  0  0
  190.0650  177.5360  141.2100 N   0  0  0  0  0  0  0  0  0  0  0  0
  190.8380  176.7340  140.2800 C   0  0  0  0  0  1  0  0  0  0  0  0
  181.3690  177.4770  139.7810 C   0  0  2  0  0  3  0  0  0  0  0  0
  180.3780  175.3210  139.3980 O   0  0  0  0  0  1  0  0  0  0  0  0
  181.6040  175.9710  139.5700 C   0  0  0  0  0  2  0  0  0  0  0  0
  182.0310  178.3600  138.7110 C   0  0  2  0  0  3  0  0  0  0  0  0
  183.0340  180.9840  138.7720 O   0  0  0  0  0  0  0  0  0  0  0  0
  179.8770  179.3950  137.8360 C   0  0  0  0  0  1  0  0  0  0  0  0
  181.8120  180.8520  138.4810 C   0  0  0  0  0  0  0  0  0  0  0  0
  181.2340  179.5410  138.3580 N   0  0  0  0  0  0  0  0  0  0  0  0
  180.9930  182.0850  138.2940 C   0  0  0  0  0  2  0  0  0  0  0  0
  180.8610  182.3730  136.8780 N   0  0  0  0  0  2  0  0  0  0  0  0
  179.6600  183.1710  136.7130 C   0  0  0  0  0  2  0  0  0  0  0  0
  180.0400  184.6350  136.7090 C   0  0  0  0  0  2  0  0  0  0  0  0
  179.5380  186.5500  138.1890 C   0  0  0  0  0  2  0  0  0  0  0  0
  178.9310  185.4670  137.3180 C   0  0  0  0  0  3  0  0  0  0  0  0
  178.9890  185.2900  138.8180 C   0  0  0  0  0  2  0  0  0  0  0  0
  182.5340  177.6120  137.5020 C   0  0  0  0  0  0  0  0  0  0  0  0
  181.6290  176.9510  136.6840 O   0  0  0  0  0  1  0  0  0  0  0  0
  183.8320  177.5710  137.1920 C   0  0  0  0  0  3  0  0  0  0  0  0
  184.8640  178.2950  137.9920 C   0  0  0  0  0  2  0  0  0  0  0  0
  186.2310  177.9280  137.5410 C   0  0  0  0  0  0  0  0  0  0  0  0
  186.4430  176.7460  136.7890 N   0  0  0  0  0  1  0  0  0  0  0  0
  187.2010  178.6930  137.7850 O   0  0  0  0  0  0  0  0  0  0  0  0
  1  4  1  0  0  0  0
  3  6  1  0  0  0  0
  4  2  1  0  0  0  0
  5  1  2  0  0  0  0
  6  4  2  0  0  0  0
  7  3  2  0  0  0  0
  7  5  1  0  0  0  0
  8 13  1  6  0  0  0
  8 10  1  0  0  0  0
  9  6  1  1  0  0  0
  9  8  1  0  0  0  0
  9 10  1  0  0  0  0
 11 12  2  0  0  0  0
 13 11  1  0  0  0  0
 14 22  1  6  0  0  0
 14 11  1  0  0  0  0
 14 21  1  0  0  0  0
 15 21  2  0  0  0  0
 15 18  1  0  0  0  0
 17 20  1  0  0  0  0
 17 16  1  0  0  0  0
 18 17  2  0  0  0  0
 19 20  2  0  0  0  0
 21 19  1  0  0  0  0
 23 24  1  0  0  0  0
 24 22  1  0  0  0  0
 25 24  1  0  0  0  0
 26 28  1  1  0  0  0
 26  7  1  0  0  0  0
 27 28  1  0  0  0  0
 29 41  1  6  0  0  0
 29 26  1  0  0  0  0
 31 33  1  0  0  0  0
 32 30  2  0  0  0  0
 33 32  1  0  0  0  0
 33 29  1  0  0  0  0
 34 32  1  0  0  0  0
 35 34  1  0  0  0  0
 36 35  1  0  0  0  0
 37 36  1  0  0  0  0
 37 39  1  0  0  0  0
 38 40  1  0  0  0  0
 39 38  1  0  0  0  0
 39 40  1  0  0  0  0
 42 41  1  0  0  0  0
 43 41  2  0  0  0  0
 43 44  1  0  0  0  0
 45 47  2  0  0  0  0
 45 44  1  0  0  0  0
 46 45  1  0  0  0  0
M  END
>  <MODEL>
1

>  <REMARK>
 VINA RESULT:      -7.3      0.000      0.000
  Name = 
  18 active torsions:
  status: ('A' for Active; 'I' for Inactive)
    1  A    between atoms: C_2  and  C_13
    2  A    between atoms: C_3  and  C_42
    3  A    between atoms: C_6  and  C_23
    4  A    between atoms: C_6  and  N_34
    5  A    between atoms: C_7  and  C_13
    6  A    between atoms: C_7  and  N_25
    7  A    between atoms: C_10  and  C_36
    8  A    between atoms: C_10  and  C_42
    9  A    between atoms: C_10  and  C_45
   10  A    between atoms: C_13  and  C_44
   11  A    between atoms: C_18  and  C_20
   12  A    between atoms: C_20  and  C_46
   13  A    between atoms: C_22  and  C_23
   14  A    between atoms: C_24  and  C_43
   15  A    between atoms: C_27  and  N_37
   16  A    between atoms: N_28  and  C_42
   17  A    between atoms: C_32  and  C_38
   18  A    between atoms: N_34  and  C_43
                            x       y       z     vdW  Elec       q    Type
                         _______ _______ _______ _____ _____    ______ ____

>  <TORSDO>
F 18

$$$$
=
 OpenBabel11062417333D

 47 50  0  0  1  0  0  0  0  0999 V2000
  185.3470  178.6430  146.7810 C   0  0  0  0  0  3  0  0  0  0  0  0
  183.1870  178.9850  145.8760 F   0  0  0  0  0  0  0  0  0  0  0  0
  186.2820  177.8570  144.2710 C   0  0  0  0  0  3  0  0  0  0  0  0
  184.4730  178.6060  145.6940 C   0  0  0  0  0  0  0  0  0  0  0  0
  186.6860  178.2960  146.6150 C   0  0  0  0  0  3  0  0  0  0  0  0
  184.9300  178.1900  144.4330 C   0  0  0  0  0  0  0  0  0  0  0  0
  187.1680  177.9150  145.3600 C   0  0  0  0  0  0  0  0  0  0  0  0
  184.7330  178.8100  142.0430 C   0  0  2  0  0  3  0  0  0  0  0  0
  184.0160  178.2170  143.2450 C   0  0  2  0  0  3  0  0  0  0  0  0
  183.7090  179.6360  142.7950 C   0  0  0  0  0  2  0  0  0  0  0  0
  184.0890  178.8480  139.5830 C   0  0  0  0  0  0  0  0  0  0  0  0
  184.5320  180.0190  139.4410 O   0  0  0  0  0  0  0  0  0  0  0  0
  184.1560  178.2100  140.8520 N   0  0  0  0  0  2  0  0  0  0  0  0
  183.4680  178.1070  138.4350 C   0  0  1  0  0  3  0  0  0  0  0  0
  185.6870  177.7390  137.2800 C   0  0  0  0  0  3  0  0  0  0  0  0
  187.2640  174.6860  135.9330 O   0  0  0  0  0  1  0  0  0  0  0  0
  186.3360  175.5310  136.5280 C   0  0  0  0  0  0  0  0  0  0  0  0
  186.6160  176.8920  136.6690 C   0  0  0  0  0  3  0  0  0  0  0  0
  184.1920  175.8650  137.5960 C   0  0  0  0  0  3  0  0  0  0  0  0
  185.1220  175.0180  136.9900 C   0  0  0  0  0  3  0  0  0  0  0  0
  184.4680  177.2250  137.7450 C   0  0  0  0  0  0  0  0  0  0  0  0
  182.2060  177.3440  138.8460 C   0  0  0  0  0  2  0  0  0  0  0  0
  180.3880  177.9470  140.1950 C   0  0  0  0  0  1  0  0  0  0  0  0
  181.0620  178.2380  138.9460 N   0  0  0  0  0  0  0  0  0  0  0  0
  180.1500  177.8550  137.8830 C   0  0  0  0  0  1  0  0  0  0  0  0
  188.6060  177.5020  145.2450 C   0  0  2  0  0  3  0  0  0  0  0  0
  189.3440  176.5280  147.3150 O   0  0  0  0  0  1  0  0  0  0  0  0
  189.4230  177.6870  146.5360 C   0  0  0  0  0  2  0  0  0  0  0  0
  189.2620  178.1280  144.0040 C   0  0  2  0  0  3  0  0  0  0  0  0
  189.0280  179.3260  141.4730 O   0  0  0  0  0  0  0  0  0  0  0  0
  188.9800  175.9120  142.7840 C   0  0  0  0  0  1  0  0  0  0  0  0
  188.8400  178.0780  141.5280 C   0  0  0  0  0  0  0  0  0  0  0  0
  189.0100  177.3740  142.7710 N   0  0  0  0  0  0  0  0  0  0  0  0
  188.4200  177.3710  140.2840 C   0  0  0  0  0  2  0  0  0  0  0  0
  188.7150  178.1980  139.1280 N   0  0  0  0  0  2  0  0  0  0  0  0
  190.0030  177.7710  138.6130 C   0  0  0  0  0  2  0  0  0  0  0  0
  189.8880  176.3430  138.1270 C   0  0  0  0  0  2  0  0  0  0  0  0
  191.6010  174.6740  137.5060 C   0  0  0  0  0  2  0  0  0  0  0  0
  191.0090  176.0260  137.1590 C   0  0  0  0  0  3  0  0  0  0  0  0
  192.2940  175.9420  137.9510 C   0  0  0  0  0  2  0  0  0  0  0  0
  190.7150  178.4930  144.1790 C   0  0  0  0  0  0  0  0  0  0  0  0
  191.0670  179.8210  144.3750 O   0  0  0  0  0  1  0  0  0  0  0  0
  191.6780  177.5690  144.1540 C   0  0  0  0  0  3  0  0  0  0  0  0
  191.3800  176.1140  143.9960 C   0  0  0  0  0  2  0  0  0  0  0  0
  192.0450  175.3230  145.0640 C   0  0  0  0  0  0  0  0  0  0  0  0
  192.4920  174.0040  144.8040 N   0  0  0  0  0  1  0  0  0  0  0  0
  192.2560  175.8410  146.1920 O   0  0  0  0  0  0  0  0  0  0  0  0
  3  6  2  0  0  0  0
  3  7  1  0  0  0  0
  4  2  1  0  0  0  0
  4  1  2  0  0  0  0
  5  1  1  0  0  0  0
  6  4  1  0  0  0  0
  7  5  2  0  0  0  0
  8 13  1  6  0  0  0
  8 10  1  0  0  0  0
  8  9  1  0  0  0  0
  9  6  1  1  0  0  0
 10  9  1  0  0  0  0
 11 13  1  0  0  0  0
 12 11  2  0  0  0  0
 14 22  1  1  0  0  0
 14 11  1  0  0  0  0
 15 21  1  0  0  0  0
 16 17  1  0  0  0  0
 17 18  1  0  0  0  0
 17 20  2  0  0  0  0
 18 15  2  0  0  0  0
 19 21  2  0  0  0  0
 20 19  1  0  0  0  0
 21 14  1  0  0  0  0
 22 24  1  0  0  0  0
 24 23  1  0  0  0  0
 25 24  1  0  0  0  0
 26  7  1  0  0  0  0
 26 28  1  1  0  0  0
 28 27  1  0  0  0  0
 29 41  1  1  0  0  0
 29 26  1  0  0  0  0
 30 32  2  0  0  0  0
 32 33  1  0  0  0  0
 33 31  1  0  0  0  0
 33 29  1  0  0  0  0
 34 32  1  0  0  0  0
 35 34  1  0  0  0  0
 36 35  1  0  0  0  0
 37 36  1  0  0  0  0
 38 40  1  0  0  0  0
 39 38  1  0  0  0  0
 39 40  1  0  0  0  0
 39 37  1  0  0  0  0
 41 42  1  0  0  0  0
 43 41  2  0  0  0  0
 44 43  1  0  0  0  0
 44 45  1  0  0  0  0
 45 47  2  0  0  0  0
 46 45  1  0  0  0  0
M  END
>  <MODEL>
2

>  <REMARK>
 VINA RESULT:      -7.0      3.286      9.518
  Name = 
  18 active torsions:
  status: ('A' for Active; 'I' for Inactive)
    1  A    between atoms: C_2  and  C_13
    2  A    between atoms: C_3  and  C_42
    3  A    between atoms: C_6  and  C_23
    4  A    between atoms: C_6  and  N_34
    5  A    between atoms: C_7  and  C_13
    6  A    between atoms: C_7  and  N_25
    7  A    between atoms: C_10  and  C_36
    8  A    between atoms: C_10  and  C_42
    9  A    between atoms: C_10  and  C_45
   10  A    between atoms: C_13  and  C_44
   11  A    between atoms: C_18  and  C_20
   12  A    between atoms: C_20  and  C_46
   13  A    between atoms: C_22  and  C_23
   14  A    between atoms: C_24  and  C_43
   15  A    between atoms: C_27  and  N_37
   16  A    between atoms: N_28  and  C_42
   17  A    between atoms: C_32  and  C_38
   18  A    between atoms: N_34  and  C_43
                            x       y       z     vdW  Elec       q    Type
                         _______ _______ _______ _____ _____    ______ ____

>  <TORSDO>
F 18

$$$$
=
 OpenBabel11062417333D

 47 50  0  0  1  0  0  0  0  0999 V2000
  185.0330  178.3340  146.5980 C   0  0  0  0  0  3  0  0  0  0  0  0
  183.0090  179.0470  145.5990 F   0  0  0  0  0  0  0  0  0  0  0  0
  186.2810  178.3560  144.1000 C   0  0  0  0  0  3  0  0  0  0  0  0
  184.3070  178.6890  145.4610 C   0  0  0  0  0  0  0  0  0  0  0  0
  186.3800  177.9980  146.4910 C   0  0  0  0  0  3  0  0  0  0  0  0
  184.9200  178.6800  144.1980 C   0  0  0  0  0  0  0  0  0  0  0  0
  187.0190  178.0200  145.2480 C   0  0  0  0  0  0  0  0  0  0  0  0
  184.0360  177.9860  141.9900 C   0  0  2  0  0  3  0  0  0  0  0  0
  184.1670  179.1310  142.9820 C   0  0  2  0  0  3  0  0  0  0  0  0
  185.0320  179.1000  141.7330 C   0  0  0  0  0  2  0  0  0  0  0  0
  182.5880  177.7440  139.9140 C   0  0  0  0  0  0  0  0  0  0  0  0
  183.5020  177.1340  139.2950 O   0  0  0  0  0  0  0  0  0  0  0  0
  182.8060  178.1940  141.2440 N   0  0  0  0  0  2  0  0  0  0  0  0
  181.2640  178.0250  139.2650 C   0  0  1  0  0  3  0  0  0  0  0  0
  182.2540  180.2870  138.7230 C   0  0  0  0  0  3  0  0  0  0  0  0
  180.6720  183.4850  137.7800 O   0  0  0  0  0  1  0  0  0  0  0  0
  180.8240  182.1570  138.1580 C   0  0  0  0  0  0  0  0  0  0  0  0
  182.1020  181.6270  138.3550 C   0  0  0  0  0  3  0  0  0  0  0  0
  179.8520  180.0120  138.7100 C   0  0  0  0  0  3  0  0  0  0  0  0
  179.6990  181.3500  138.3380 C   0  0  0  0  0  3  0  0  0  0  0  0
  181.1250  179.4750  138.9040 C   0  0  0  0  0  0  0  0  0  0  0  0
  180.9890  177.1000  138.0760 C   0  0  0  0  0  2  0  0  0  0  0  0
  179.5240  176.0660  139.5830 C   0  0  0  0  0  1  0  0  0  0  0  0
  179.6870  176.4620  138.1980 N   0  0  0  0  0  0  0  0  0  0  0  0
  179.7570  175.2370  137.4220 C   0  0  0  0  0  1  0  0  0  0  0  0
  188.4580  177.6010  145.1790 C   0  0  2  0  0  3  0  0  0  0  0  0
  189.1740  176.6380  147.2620 O   0  0  0  0  0  1  0  0  0  0  0  0
  189.2390  177.8020  146.4900 C   0  0  0  0  0  2  0  0  0  0  0  0
  189.1510  178.2060  143.9480 C   0  0  2  0  0  3  0  0  0  0  0  0
  189.0670  179.3460  141.3820 O   0  0  0  0  0  0  0  0  0  0  0  0
  188.8740  175.9680  142.7670 C   0  0  0  0  0  1  0  0  0  0  0  0
  188.8460  178.1050  141.4570 C   0  0  0  0  0  0  0  0  0  0  0  0
  188.9400  177.4280  142.7220 N   0  0  0  0  0  0  0  0  0  0  0  0
  188.4690  177.3780  140.2100 C   0  0  0  0  0  2  0  0  0  0  0  0
  187.7000  178.2550  139.3470 N   0  0  0  0  0  2  0  0  0  0  0  0
  188.3570  178.2670  138.0530 C   0  0  0  0  0  2  0  0  0  0  0  0
  187.3200  178.5070  136.9780 C   0  0  0  0  0  2  0  0  0  0  0  0
  186.7390  177.6650  134.7280 C   0  0  0  0  0  2  0  0  0  0  0  0
  187.1400  177.2630  136.1340 C   0  0  0  0  0  3  0  0  0  0  0  0
  185.6900  177.1960  135.7110 C   0  0  0  0  0  2  0  0  0  0  0  0
  190.5970  178.5790  144.1620 C   0  0  0  0  0  0  0  0  0  0  0  0
  190.9540  179.9180  144.2220 O   0  0  0  0  0  1  0  0  0  0  0  0
  191.5480  177.6520  144.2970 C   0  0  0  0  0  3  0  0  0  0  0  0
  191.2400  176.1900  144.2920 C   0  0  0  0  0  2  0  0  0  0  0  0
  192.0290  175.4840  145.3340 C   0  0  0  0  0  0  0  0  0  0  0  0
  192.2560  176.0910  146.5940 N   0  0  0  0  0  1  0  0  0  0  0  0
  192.4590  174.3200  145.1170 O   0  0  0  0  0  0  0  0  0  0  0  0
  3  6  2  0  0  0  0
  3  7  1  0  0  0  0
  4  2  1  0  0  0  0
  4  1  2  0  0  0  0
  5  1  1  0  0  0  0
  6  4  1  0  0  0  0
  7  5  2  0  0  0  0
  8 13  1  6  0  0  0
  8  9  1  0  0  0  0
  9  6  1  1  0  0  0
 10  8  1  0  0  0  0
 10  9  1  0  0  0  0
 11 13  1  0  0  0  0
 12 11  2  0  0  0  0
 14 22  1  6  0  0  0
 14 11  1  0  0  0  0
 15 21  1  0  0  0  0
 16 17  1  0  0  0  0
 17 20  2  0  0  0  0
 17 18  1  0  0  0  0
 18 15  2  0  0  0  0
 19 21  2  0  0  0  0
 20 19  1  0  0  0  0
 21 14  1  0  0  0  0
 22 24  1  0  0  0  0
 24 23  1  0  0  0  0
 25 24  1  0  0  0  0
 26  7  1  0  0  0  0
 26 28  1  1  0  0  0
 28 27  1  0  0  0  0
 29 41  1  1  0  0  0
 29 26  1  0  0  0  0
 30 32  2  0  0  0  0
 32 33  1  0  0  0  0
 33 31  1  0  0  0  0
 33 29  1  0  0  0  0
 34 32  1  0  0  0  0
 35 34  1  0  0  0  0
 36 35  1  0  0  0  0
 37 36  1  0  0  0  0
 38 40  1  0  0  0  0
 38 39  1  0  0  0  0
 39 37  1  0  0  0  0
 40 39  1  0  0  0  0
 41 42  1  0  0  0  0
 41 43  2  0  0  0  0
 44 43  1  0  0  0  0
 44 45  1  0  0  0  0
 45 46  1  0  0  0  0
 47 45  2  0  0  0  0
M  END
>  <MODEL>
3

>  <REMARK>
 VINA RESULT:      -7.0      2.485      9.591
  Name = 
  18 active torsions:
  status: ('A' for Active; 'I' for Inactive)
    1  A    between atoms: C_2  and  C_13
    2  A    between atoms: C_3  and  C_42
    3  A    between atoms: C_6  and  C_23
    4  A    between atoms: C_6  and  N_34
    5  A    between atoms: C_7  and  C_13
    6  A    between atoms: C_7  and  N_25
    7  A    between atoms: C_10  and  C_36
    8  A    between atoms: C_10  and  C_42
    9  A    between atoms: C_10  and  C_45
   10  A    between atoms: C_13  and  C_44
   11  A    between atoms: C_18  and  C_20
   12  A    between atoms: C_20  and  C_46
   13  A    between atoms: C_22  and  C_23
   14  A    between atoms: C_24  and  C_43
   15  A    between atoms: C_27  and  N_37
   16  A    between atoms: N_28  and  C_42
   17  A    between atoms: C_32  and  C_38
   18  A    between atoms: N_34  and  C_43
                            x       y       z     vdW  Elec       q    Type
                         _______ _______ _______ _____ _____    ______ ____

>  <TORSDO>
F 18

$$$$
=
 OpenBabel11062417333D

 47 50  0  0  1  0  0  0  0  0999 V2000
  182.4920  177.4920  135.8650 C   0  0  0  0  0  3  0  0  0  0  0  0
  184.4800  177.3090  134.5940 F   0  0  0  0  0  0  0  0  0  0  0  0
  183.9500  177.0990  138.2130 C   0  0  0  0  0  3  0  0  0  0  0  0
  183.8700  177.2850  135.8010 C   0  0  0  0  0  0  0  0  0  0  0  0
  181.8430  177.5110  137.0970 C   0  0  0  0  0  3  0  0  0  0  0  0
  184.6070  177.0630  136.9750 C   0  0  0  0  0  0  0  0  0  0  0  0
  182.5650  177.3300  138.2790 C   0  0  0  0  0  0  0  0  0  0  0  0
  186.7610  177.9020  137.8670 C   0  0  2  0  0  3  0  0  0  0  0  0
  186.0980  176.9130  136.9220 C   0  0  2  0  0  3  0  0  0  0  0  0
  186.7770  178.1560  136.3730 C   0  0  0  0  0  2  0  0  0  0  0  0
  189.0740  178.0330  138.9170 C   0  0  0  0  0  0  0  0  0  0  0  0
  188.9780  179.2800  139.0750 O   0  0  0  0  0  0  0  0  0  0  0  0
  188.0100  177.3080  138.3150 N   0  0  0  0  0  2  0  0  0  0  0  0
  190.3070  177.2890  139.3370 C   0  0  1  0  0  3  0  0  0  0  0  0
  191.5790  177.4690  141.5150 C   0  0  0  0  0  3  0  0  0  0  0  0
  190.5320  176.9150  145.0100 O   0  0  0  0  0  1  0  0  0  0  0  0
  190.4900  176.9930  143.6240 C   0  0  0  0  0  0  0  0  0  0  0  0
  191.6270  177.3780  142.9090 C   0  0  0  0  0  3  0  0  0  0  0  0
  189.2630  176.7770  141.5510 C   0  0  0  0  0  3  0  0  0  0  0  0
  189.3080  176.6900  142.9440 C   0  0  0  0  0  3  0  0  0  0  0  0
  190.3930  177.1660  140.8300 C   0  0  0  0  0  0  0  0  0  0  0  0
  190.4400  175.9350  138.6340 C   0  0  0  0  0  2  0  0  0  0  0  0
  191.0270  176.2210  136.3840 C   0  0  0  0  0  1  0  0  0  0  0  0
  191.5580  175.9360  137.7020 N   0  0  0  0  0  0  0  0  0  0  0  0
  192.0570  174.5730  137.6620 C   0  0  0  0  0  1  0  0  0  0  0  0
  181.8120  177.3090  139.5770 C   0  0  2  0  0  3  0  0  0  0  0  0
  180.4450  175.4190  140.1590 O   0  0  0  0  0  1  0  0  0  0  0  0
  180.4240  176.6480  139.4930 C   0  0  0  0  0  2  0  0  0  0  0  0
  181.7940  178.7010  140.2290 C   0  0  2  0  0  3  0  0  0  0  0  0
  184.5270  178.7150  140.8820 O   0  0  0  0  0  0  0  0  0  0  0  0
  181.3770  178.8140  142.7370 C   0  0  0  0  0  1  0  0  0  0  0  0
  183.7140  178.6440  141.8470 C   0  0  0  0  0  0  0  0  0  0  0  0
  182.2980  178.7030  141.6070 N   0  0  0  0  0  0  0  0  0  0  0  0
  184.2650  178.4780  143.2240 C   0  0  0  0  0  2  0  0  0  0  0  0
  185.6810  178.7950  143.2250 N   0  0  0  0  0  2  0  0  0  0  0  0
  186.2640  178.1510  144.3880 C   0  0  0  0  0  2  0  0  0  0  0  0
  185.7240  178.8110  145.6370 C   0  0  0  0  0  2  0  0  0  0  0  0
  187.1800  178.6220  147.6250 C   0  0  0  0  0  2  0  0  0  0  0  0
  186.0460  177.9720  146.8560 C   0  0  0  0  0  3  0  0  0  0  0  0
  187.4590  177.4570  146.7020 C   0  0  0  0  0  2  0  0  0  0  0  0
  180.4910  179.4460  140.0820 C   0  0  0  0  0  0  0  0  0  0  0  0
  179.3680  178.9980  140.7630 O   0  0  0  0  0  1  0  0  0  0  0  0
  180.3880  180.5340  139.3150 C   0  0  0  0  0  3  0  0  0  0  0  0
  181.5590  181.1080  138.5880 C   0  0  0  0  0  2  0  0  0  0  0  0
  181.2000  182.4040  137.9550 C   0  0  0  0  0  0  0  0  0  0  0  0
  179.8530  182.6880  137.6190 N   0  0  0  0  0  1  0  0  0  0  0  0
  182.0870  183.2760  137.7580 O   0  0  0  0  0  0  0  0  0  0  0  0
  1  5  1  0  0  0  0
  2  4  1  0  0  0  0
  3  7  1  0  0  0  0
  4  1  2  0  0  0  0
  4  6  1  0  0  0  0
  5  7  2  0  0  0  0
  6  3  2  0  0  0  0
  7 26  1  0  0  0  0
  8 13  1  6  0  0  0
  9  6  1  1  0  0  0
  9  8  1  0  0  0  0
 10  9  1  0  0  0  0
 10  8  1  0  0  0  0
 11 12  2  0  0  0  0
 11 14  1  0  0  0  0
 13 11  1  0  0  0  0
 14 22  1  6  0  0  0
 14 21  1  0  0  0  0
 15 18  1  0  0  0  0
 17 16  1  0  0  0  0
 18 17  2  0  0  0  0
 19 20  2  0  0  0  0
 20 17  1  0  0  0  0
 21 15  2  0  0  0  0
 21 19  1  0  0  0  0
 23 24  1  0  0  0  0
 24 22  1  0  0  0  0
 25 24  1  0  0  0  0
 26 28  1  6  0  0  0
 26 29  1  0  0  0  0
 28 27  1  0  0  0  0
 29 41  1  1  0  0  0
 29 33  1  0  0  0  0
 30 32  2  0  0  0  0
 32 34  1  0  0  0  0
 33 32  1  0  0  0  0
 33 31  1  0  0  0  0
 34 35  1  0  0  0  0
 35 36  1  0  0  0  0
 36 37  1  0  0  0  0
 37 39  1  0  0  0  0
 39 38  1  0  0  0  0
 40 39  1  0  0  0  0
 40 38  1  0  0  0  0
 41 42  1  0  0  0  0
 43 41  2  0  0  0  0
 44 43  1  0  0  0  0
 45 44  1  0  0  0  0
 46 45  1  0  0  0  0
 47 45  2  0  0  0  0
M  END
>  <MODEL>
4

>  <REMARK>
 VINA RESULT:      -7.0      2.652      6.697
  Name = 
  18 active torsions:
  status: ('A' for Active; 'I' for Inactive)
    1  A    between atoms: C_2  and  C_13
    2  A    between atoms: C_3  and  C_42
    3  A    between atoms: C_6  and  C_23
    4  A    between atoms: C_6  and  N_34
    5  A    between atoms: C_7  and  C_13
    6  A    between atoms: C_7  and  N_25
    7  A    between atoms: C_10  and  C_36
    8  A    between atoms: C_10  and  C_42
    9  A    between atoms: C_10  and  C_45
   10  A    between atoms: C_13  and  C_44
   11  A    between atoms: C_18  and  C_20
   12  A    between atoms: C_20  and  C_46
   13  A    between atoms: C_22  and  C_23
   14  A    between atoms: C_24  and  C_43
   15  A    between atoms: C_27  and  N_37
   16  A    between atoms: N_28  and  C_42
   17  A    between atoms: C_32  and  C_38
   18  A    between atoms: N_34  and  C_43
                            x       y       z     vdW  Elec       q    Type
                         _______ _______ _______ _____ _____    ______ ____

>  <TORSDO>
F 18

$$$$
=
 OpenBabel11062417333D

 47 50  0  0  1  0  0  0  0  0999 V2000
  181.6450  178.8830  143.8220 C   0  0  0  0  0  3  0  0  0  0  0  0
  183.3670  178.7690  145.4420 F   0  0  0  0  0  0  0  0  0  0  0  0
  183.5540  178.9380  141.7860 C   0  0  0  0  0  3  0  0  0  0  0  0
  183.0020  178.8540  144.1420 C   0  0  0  0  0  0  0  0  0  0  0  0
  181.2400  178.9310  142.4910 C   0  0  0  0  0  3  0  0  0  0  0  0
  183.9700  178.9050  143.1250 C   0  0  0  0  0  0  0  0  0  0  0  0
  182.1860  178.9440  141.4630 C   0  0  0  0  0  0  0  0  0  0  0  0
  185.9060  177.3670  143.2850 C   0  0  2  0  0  3  0  0  0  0  0  0
  185.4280  178.8010  143.4550 C   0  0  2  0  0  3  0  0  0  0  0  0
  185.6750  177.9270  144.6740 C   0  0  0  0  0  2  0  0  0  0  0  0
  187.8050  177.9240  141.6890 C   0  0  0  0  0  0  0  0  0  0  0  0
  187.0040  178.3550  140.8160 O   0  0  0  0  0  0  0  0  0  0  0  0
  187.3120  177.4160  142.9210 N   0  0  0  0  0  2  0  0  0  0  0  0
  189.2870  177.9190  141.4470 C   0  0  1  0  0  3  0  0  0  0  0  0
  190.1100  178.5760  143.7460 C   0  0  0  0  0  3  0  0  0  0  0  0
  192.0920  176.7290  146.2530 O   0  0  0  0  0  1  0  0  0  0  0  0
  191.4190  177.0330  145.0760 C   0  0  0  0  0  0  0  0  0  0  0  0
  190.7980  178.2760  144.9250 C   0  0  0  0  0  3  0  0  0  0  0  0
  190.6750  176.3960  142.8650 C   0  0  0  0  0  3  0  0  0  0  0  0
  191.3580  176.0940  144.0440 C   0  0  0  0  0  3  0  0  0  0  0  0
  190.0480  177.6340  142.7090 C   0  0  0  0  0  0  0  0  0  0  0  0
  189.6880  176.9850  140.3020 C   0  0  0  0  0  2  0  0  0  0  0  0
  189.8430  177.5290  138.0300 C   0  0  0  0  0  1  0  0  0  0  0  0
  190.4950  177.6840  139.3140 N   0  0  0  0  0  0  0  0  0  0  0  0
  191.7530  176.9650  139.2300 C   0  0  0  0  0  1  0  0  0  0  0  0
  181.7000  179.0480  140.0480 C   0  0  2  0  0  3  0  0  0  0  0  0
  181.0790  181.1600  139.0820 O   0  0  0  0  0  1  0  0  0  0  0  0
  180.5870  180.0900  139.8360 C   0  0  0  0  0  2  0  0  0  0  0  0
  181.3630  177.6610  139.4760 C   0  0  2  0  0  3  0  0  0  0  0  0
  182.5280  175.1050  139.4140 O   0  0  0  0  0  0  0  0  0  0  0  0
  182.5880  178.0760  137.2830 C   0  0  0  0  0  1  0  0  0  0  0  0
  182.8960  175.9160  138.5180 C   0  0  0  0  0  0  0  0  0  0  0  0
  182.2970  177.2210  138.4330 N   0  0  0  0  0  0  0  0  0  0  0  0
  183.9720  175.4900  137.5770 C   0  0  0  0  0  2  0  0  0  0  0  0
  183.8080  174.0840  137.2530 N   0  0  0  0  0  2  0  0  0  0  0  0
  185.0070  173.3990  137.7000 C   0  0  0  0  0  2  0  0  0  0  0  0
  185.4650  172.4510  136.6140 C   0  0  0  0  0  2  0  0  0  0  0  0
  187.6010  171.5820  135.7260 C   0  0  0  0  0  2  0  0  0  0  0  0
  186.8480  172.8340  136.1320 C   0  0  0  0  0  3  0  0  0  0  0  0
  187.8550  172.2170  137.0750 C   0  0  0  0  0  2  0  0  0  0  0  0
  179.9200  177.4780  139.0810 C   0  0  0  0  0  0  0  0  0  0  0  0
  179.4360  178.1150  137.9470 O   0  0  0  0  0  1  0  0  0  0  0  0
  179.0890  176.7130  139.7940 C   0  0  0  0  0  3  0  0  0  0  0  0
  179.5420  175.9560  140.9990 C   0  0  0  0  0  2  0  0  0  0  0  0
  179.4360  174.4920  140.7700 C   0  0  0  0  0  0  0  0  0  0  0  0
  179.2750  173.6070  141.8650 N   0  0  0  0  0  1  0  0  0  0  0  0
  179.4410  174.0360  139.5960 O   0  0  0  0  0  0  0  0  0  0  0  0
  1  4  1  0  0  0  0
  3  6  1  0  0  0  0
  4  2  1  0  0  0  0
  5  1  2  0  0  0  0
  6  4  2  0  0  0  0
  7  3  2  0  0  0  0
  7  5  1  0  0  0  0
  8 13  1  1  0  0  0
  8  9  1  0  0  0  0
  8 10  1  0  0  0  0
  9  6  1  6  0  0  0
  9 10  1  0  0  0  0
 11 13  1  0  0  0  0
 12 11  2  0  0  0  0
 14 22  1  6  0  0  0
 14 11  1  0  0  0  0
 14 21  1  0  0  0  0
 15 18  1  0  0  0  0
 17 16  1  0  0  0  0
 18 17  2  0  0  0  0
 19 20  2  0  0  0  0
 20 17  1  0  0  0  0
 21 19  1  0  0  0  0
 21 15  2  0  0  0  0
 23 24  1  0  0  0  0
 24 22  1  0  0  0  0
 25 24  1  0  0  0  0
 26 28  1  1  0  0  0
 26  7  1  0  0  0  0
 27 28  1  0  0  0  0
 29 41  1  6  0  0  0
 29 26  1  0  0  0  0
 31 33  1  0  0  0  0
 32 30  2  0  0  0  0
 33 32  1  0  0  0  0
 33 29  1  0  0  0  0
 34 32  1  0  0  0  0
 35 34  1  0  0  0  0
 35 36  1  0  0  0  0
 37 36  1  0  0  0  0
 38 39  1  0  0  0  0
 38 40  1  0  0  0  0
 39 37  1  0  0  0  0
 39 40  1  0  0  0  0
 41 43  2  0  0  0  0
 42 41  1  0  0  0  0
 43 44  1  0  0  0  0
 45 44  1  0  0  0  0
 45 46  1  0  0  0  0
 47 45  2  0  0  0  0
M  END
>  <MODEL>
5

>  <REMARK>
 VINA RESULT:      -7.0      2.690      6.137
  Name = 
  18 active torsions:
  status: ('A' for Active; 'I' for Inactive)
    1  A    between atoms: C_2  and  C_13
    2  A    between atoms: C_3  and  C_42
    3  A    between atoms: C_6  and  C_23
    4  A    between atoms: C_6  and  N_34
    5  A    between atoms: C_7  and  C_13
    6  A    between atoms: C_7  and  N_25
    7  A    between atoms: C_10  and  C_36
    8  A    between atoms: C_10  and  C_42
    9  A    between atoms: C_10  and  C_45
   10  A    between atoms: C_13  and  C_44
   11  A    between atoms: C_18  and  C_20
   12  A    between atoms: C_20  and  C_46
   13  A    between atoms: C_22  and  C_23
   14  A    between atoms: C_24  and  C_43
   15  A    between atoms: C_27  and  N_37
   16  A    between atoms: N_28  and  C_42
   17  A    between atoms: C_32  and  C_38
   18  A    between atoms: N_34  and  C_43
                            x       y       z     vdW  Elec       q    Type
                         _______ _______ _______ _____ _____    ______ ____

>  <TORSDO>
F 18

$$$$
=
 OpenBabel11062417333D

 47 50  0  0  1  0  0  0  0  0999 V2000
  180.8750  178.9240  142.8410 C   0  0  0  0  0  3  0  0  0  0  0  0
  182.2410  179.0490  144.7690 F   0  0  0  0  0  0  0  0  0  0  0  0
  183.1450  179.0000  141.2190 C   0  0  0  0  0  3  0  0  0  0  0  0
  182.1400  179.0220  143.4200 C   0  0  0  0  0  0  0  0  0  0  0  0
  180.7420  178.8560  141.4560 C   0  0  0  0  0  3  0  0  0  0  0  0
  183.2860  179.0850  142.6110 C   0  0  0  0  0  0  0  0  0  0  0  0
  181.8720  178.8780  140.6350 C   0  0  0  0  0  0  0  0  0  0  0  0
  185.3220  177.7580  143.0930 C   0  0  2  0  0  3  0  0  0  0  0  0
  184.6520  179.1160  143.2270 C   0  0  2  0  0  3  0  0  0  0  0  0
  184.7560  178.1950  144.4300 C   0  0  0  0  0  2  0  0  0  0  0  0
  187.7350  176.9570  143.1270 C   0  0  0  0  0  0  0  0  0  0  0  0
  187.3810  175.7600  143.3030 O   0  0  0  0  0  0  0  0  0  0  0  0
  186.7560  177.9830  143.0270 N   0  0  0  0  0  2  0  0  0  0  0  0
  189.1850  177.3330  143.0360 C   0  0  1  0  0  3  0  0  0  0  0  0
  191.1500  176.4970  144.3900 C   0  0  0  0  0  3  0  0  0  0  0  0
  191.8650  176.6430  148.0070 O   0  0  0  0  0  1  0  0  0  0  0  0
  191.2100  176.7930  146.7920 C   0  0  0  0  0  0  0  0  0  0  0  0
  191.8040  176.3340  145.6140 C   0  0  0  0  0  3  0  0  0  0  0  0
  189.3020  177.5670  145.5230 C   0  0  0  0  0  3  0  0  0  0  0  0
  189.9570  177.4090  146.7460 C   0  0  0  0  0  3  0  0  0  0  0  0
  189.8920  177.1150  144.3420 C   0  0  0  0  0  0  0  0  0  0  0  0
  189.8950  176.6430  141.8680 C   0  0  0  0  0  2  0  0  0  0  0  0
  189.1600  178.5020  140.6480 C   0  0  0  0  0  1  0  0  0  0  0  0
  190.2810  177.6050  140.8470 N   0  0  0  0  0  0  0  0  0  0  0  0
  190.4350  176.8530  139.6150 C   0  0  0  0  0  1  0  0  0  0  0  0
  181.6730  178.8530  139.1480 C   0  0  2  0  0  3  0  0  0  0  0  0
  181.3410  180.9230  137.9720 O   0  0  0  0  0  1  0  0  0  0  0  0
  180.6630  179.8910  138.6280 C   0  0  0  0  0  2  0  0  0  0  0  0
  181.4020  177.4240  138.6510 C   0  0  2  0  0  3  0  0  0  0  0  0
  182.9060  175.0530  138.5530 O   0  0  0  0  0  0  0  0  0  0  0  0
  182.2350  177.8400  136.2810 C   0  0  0  0  0  1  0  0  0  0  0  0
  183.0230  175.8390  137.5700 C   0  0  0  0  0  0  0  0  0  0  0  0
  182.2350  177.0400  137.5060 N   0  0  0  0  0  0  0  0  0  0  0  0
  184.0070  175.4950  136.5040 C   0  0  0  0  0  2  0  0  0  0  0  0
  185.3550  175.7270  136.9900 N   0  0  0  0  0  2  0  0  0  0  0  0
  186.2320  175.7390  135.8340 C   0  0  0  0  0  2  0  0  0  0  0  0
  187.0320  177.0230  135.8380 C   0  0  0  0  0  2  0  0  0  0  0  0
  186.7770  178.7270  137.6100 C   0  0  0  0  0  2  0  0  0  0  0  0
  187.4160  177.3990  137.2540 C   0  0  0  0  0  3  0  0  0  0  0  0
  188.2290  178.6720  137.1910 C   0  0  0  0  0  2  0  0  0  0  0  0
  179.9440  177.0960  138.4480 C   0  0  0  0  0  0  0  0  0  0  0  0
  179.2560  177.6730  137.3900 O   0  0  0  0  0  1  0  0  0  0  0  0
  179.2930  176.2600  139.2600 C   0  0  0  0  0  3  0  0  0  0  0  0
  179.9720  175.5620  140.3920 C   0  0  0  0  0  2  0  0  0  0  0  0
  179.8590  174.0880  140.2430 C   0  0  0  0  0  0  0  0  0  0  0  0
  179.7210  173.5070  138.9580 N   0  0  0  0  0  1  0  0  0  0  0  0
  179.9350  173.3450  141.2570 O   0  0  0  0  0  0  0  0  0  0  0  0
  1  4  1  0  0  0  0
  3  6  1  0  0  0  0
  4  2  1  0  0  0  0
  5  1  2  0  0  0  0
  6  4  2  0  0  0  0
  7  3  2  0  0  0  0
  7  5  1  0  0  0  0
  8 13  1  1  0  0  0
  8  9  1  0  0  0  0
  8 10  1  0  0  0  0
  9  6  1  6  0  0  0
  9 10  1  0  0  0  0
 11 12  2  0  0  0  0
 13 11  1  0  0  0  0
 14 22  1  6  0  0  0
 14 11  1  0  0  0  0
 14 21  1  0  0  0  0
 15 18  1  0  0  0  0
 17 16  1  0  0  0  0
 18 17  2  0  0  0  0
 19 20  2  0  0  0  0
 20 17  1  0  0  0  0
 21 15  2  0  0  0  0
 21 19  1  0  0  0  0
 23 24  1  0  0  0  0
 24 22  1  0  0  0  0
 25 24  1  0  0  0  0
 26 28  1  1  0  0  0
 26  7  1  0  0  0  0
 27 28  1  0  0  0  0
 29 41  1  6  0  0  0
 29 26  1  0  0  0  0
 31 33  1  0  0  0  0
 32 30  2  0  0  0  0
 33 32  1  0  0  0  0
 33 29  1  0  0  0  0
 34 35  1  0  0  0  0
 34 32  1  0  0  0  0
 36 37  1  0  0  0  0
 36 35  1  0  0  0  0
 37 39  1  0  0  0  0
 39 38  1  0  0  0  0
 40 39  1  0  0  0  0
 40 38  1  0  0  0  0
 41 43  2  0  0  0  0
 42 41  1  0  0  0  0
 43 44  1  0  0  0  0
 45 44  1  0  0  0  0
 45 47  2  0  0  0  0
 46 45  1  0  0  0  0
M  END
>  <MODEL>
6

>  <REMARK>
 VINA RESULT:      -6.6      2.439      4.948
  Name = 
  18 active torsions:
  status: ('A' for Active; 'I' for Inactive)
    1  A    between atoms: C_2  and  C_13
    2  A    between atoms: C_3  and  C_42
    3  A    between atoms: C_6  and  C_23
    4  A    between atoms: C_6  and  N_34
    5  A    between atoms: C_7  and  C_13
    6  A    between atoms: C_7  and  N_25
    7  A    between atoms: C_10  and  C_36
    8  A    between atoms: C_10  and  C_42
    9  A    between atoms: C_10  and  C_45
   10  A    between atoms: C_13  and  C_44
   11  A    between atoms: C_18  and  C_20
   12  A    between atoms: C_20  and  C_46
   13  A    between atoms: C_22  and  C_23
   14  A    between atoms: C_24  and  C_43
   15  A    between atoms: C_27  and  N_37
   16  A    between atoms: N_28  and  C_42
   17  A    between atoms: C_32  and  C_38
   18  A    between atoms: N_34  and  C_43
                            x       y       z     vdW  Elec       q    Type
                         _______ _______ _______ _____ _____    ______ ____

>  <TORSDO>
F 18

$$$$
=
 OpenBabel11062417333D

 47 50  0  0  1  0  0  0  0  0999 V2000
  185.0410  178.2440  146.6060 C   0  0  0  0  0  3  0  0  0  0  0  0
  183.0830  178.9790  145.4980 F   0  0  0  0  0  0  0  0  0  0  0  0
  186.4630  178.3960  144.2090 C   0  0  0  0  0  3  0  0  0  0  0  0
  184.3920  178.6430  145.4380 C   0  0  0  0  0  0  0  0  0  0  0  0
  186.3970  177.9300  146.5820 C   0  0  0  0  0  3  0  0  0  0  0  0
  185.0940  178.7000  144.2230 C   0  0  0  0  0  0  0  0  0  0  0  0
  187.1220  178.0160  145.3910 C   0  0  0  0  0  0  0  0  0  0  0  0
  184.7140  178.2620  141.8140 C   0  0  2  0  0  3  0  0  0  0  0  0
  184.4240  179.1970  142.9780 C   0  0  2  0  0  3  0  0  0  0  0  0
  185.4280  179.5960  141.9100 C   0  0  0  0  0  2  0  0  0  0  0  0
  183.6570  178.8060  139.5660 C   0  0  0  0  0  0  0  0  0  0  0  0
  184.7540  179.2170  139.1010 O   0  0  0  0  0  0  0  0  0  0  0  0
  183.5820  178.3330  140.9050 N   0  0  0  0  0  2  0  0  0  0  0  0
  182.4060  178.8190  138.7360 C   0  0  1  0  0  3  0  0  0  0  0  0
  182.8920  177.0050  137.0430 C   0  0  0  0  0  3  0  0  0  0  0  0
  181.4090  173.6610  136.5510 O   0  0  0  0  0  1  0  0  0  0  0  0
  181.6470  174.9280  137.0680 C   0  0  0  0  0  0  0  0  0  0  0  0
  182.6440  175.7350  136.5130 C   0  0  0  0  0  3  0  0  0  0  0  0
  181.1390  176.6640  138.6740 C   0  0  0  0  0  3  0  0  0  0  0  0
  180.8940  175.3940  138.1480 C   0  0  0  0  0  3  0  0  0  0  0  0
  182.1360  177.4740  138.1270 C   0  0  0  0  0  0  0  0  0  0  0  0
  181.1990  179.3610  139.5070 C   0  0  0  0  0  2  0  0  0  0  0  0
  181.5600  181.3940  138.4000 C   0  0  0  0  0  1  0  0  0  0  0  0
  180.5430  180.4290  138.7680 N   0  0  0  0  0  0  0  0  0  0  0  0
  179.6610  181.0950  139.7090 C   0  0  0  0  0  1  0  0  0  0  0  0
  188.5690  177.6180  145.4070 C   0  0  2  0  0  3  0  0  0  0  0  0
  189.2610  176.7210  147.5270 O   0  0  0  0  0  1  0  0  0  0  0  0
  189.2820  177.8800  146.7450 C   0  0  0  0  0  2  0  0  0  0  0  0
  189.3130  178.1880  144.1890 C   0  0  2  0  0  3  0  0  0  0  0  0
  189.0670  179.4290  141.6800 O   0  0  0  0  0  0  0  0  0  0  0  0
  188.9890  175.9960  142.9360 C   0  0  0  0  0  1  0  0  0  0  0  0
  188.8640  178.1830  141.7170 C   0  0  0  0  0  0  0  0  0  0  0  0
  189.0380  177.4570  142.9460 N   0  0  0  0  0  0  0  0  0  0  0  0
  188.4210  177.5010  140.4660 C   0  0  0  0  0  2  0  0  0  0  0  0
  187.9870  178.4920  139.4980 N   0  0  0  0  0  2  0  0  0  0  0  0
  188.5570  178.1170  138.2170 C   0  0  0  0  0  2  0  0  0  0  0  0
  188.0080  176.7670  137.8120 C   0  0  0  0  0  2  0  0  0  0  0  0
  186.6100  176.4270  135.8030 C   0  0  0  0  0  2  0  0  0  0  0  0
  186.6150  176.9160  137.2380 C   0  0  0  0  0  3  0  0  0  0  0  0
  186.6870  177.9070  136.0990 C   0  0  0  0  0  2  0  0  0  0  0  0
  190.7840  178.4320  144.4090 C   0  0  0  0  0  0  0  0  0  0  0  0
  191.2740  179.7300  144.3660 O   0  0  0  0  0  1  0  0  0  0  0  0
  191.6330  177.4310  144.6500 C   0  0  0  0  0  3  0  0  0  0  0  0
  191.1800  176.0120  144.7600 C   0  0  0  0  0  2  0  0  0  0  0  0
  192.0990  175.2330  145.6290 C   0  0  0  0  0  0  0  0  0  0  0  0
  192.7510  174.0790  145.1270 N   0  0  0  0  0  1  0  0  0  0  0  0
  192.3380  175.6230  146.8020 O   0  0  0  0  0  0  0  0  0  0  0  0
  3  6  2  0  0  0  0
  3  7  1  0  0  0  0
  4  2  1  0  0  0  0
  4  1  2  0  0  0  0
  5  1  1  0  0  0  0
  6  4  1  0  0  0  0
  7 26  1  0  0  0  0
  7  5  2  0  0  0  0
  8 13  1  6  0  0  0
  8 10  1  0  0  0  0
  8  9  1  0  0  0  0
  9  6  1  1  0  0  0
 10  9  1  0  0  0  0
 11 13  1  0  0  0  0
 12 11  2  0  0  0  0
 14 22  1  1  0  0  0
 14 11  1  0  0  0  0
 15 21  1  0  0  0  0
 16 17  1  0  0  0  0
 17 20  2  0  0  0  0
 18 15  2  0  0  0  0
 18 17  1  0  0  0  0
 20 19  1  0  0  0  0
 21 19  2  0  0  0  0
 21 14  1  0  0  0  0
 23 24  1  0  0  0  0
 24 22  1  0  0  0  0
 24 25  1  0  0  0  0
 26 28  1  1  0  0  0
 28 27  1  0  0  0  0
 29 41  1  1  0  0  0
 29 26  1  0  0  0  0
 30 32  2  0  0  0  0
 31 33  1  0  0  0  0
 32 33  1  0  0  0  0
 33 29  1  0  0  0  0
 34 32  1  0  0  0  0
 35 34  1  0  0  0  0
 36 35  1  0  0  0  0
 37 36  1  0  0  0  0
 38 40  1  0  0  0  0
 38 39  1  0  0  0  0
 39 37  1  0  0  0  0
 40 39  1  0  0  0  0
 41 43  2  0  0  0  0
 42 41  1  0  0  0  0
 43 44  1  0  0  0  0
 44 45  1  0  0  0  0
 45 47  2  0  0  0  0
 46 45  1  0  0  0  0
M  END
>  <MODEL>
7

>  <REMARK>
 VINA RESULT:      -6.6      2.383      9.518
  Name = 
  18 active torsions:
  status: ('A' for Active; 'I' for Inactive)
    1  A    between atoms: C_2  and  C_13
    2  A    between atoms: C_3  and  C_42
    3  A    between atoms: C_6  and  C_23
    4  A    between atoms: C_6  and  N_34
    5  A    between atoms: C_7  and  C_13
    6  A    between atoms: C_7  and  N_25
    7  A    between atoms: C_10  and  C_36
    8  A    between atoms: C_10  and  C_42
    9  A    between atoms: C_10  and  C_45
   10  A    between atoms: C_13  and  C_44
   11  A    between atoms: C_18  and  C_20
   12  A    between atoms: C_20  and  C_46
   13  A    between atoms: C_22  and  C_23
   14  A    between atoms: C_24  and  C_43
   15  A    between atoms: C_27  and  N_37
   16  A    between atoms: N_28  and  C_42
   17  A    between atoms: C_32  and  C_38
   18  A    between atoms: N_34  and  C_43
                            x       y       z     vdW  Elec       q    Type
                         _______ _______ _______ _____ _____    ______ ____

>  <TORSDO>
F 18

$$$$
=
 OpenBabel11062417333D

 47 50  0  0  1  0  0  0  0  0999 V2000
  186.8970  177.7650  147.4910 C   0  0  0  0  0  3  0  0  0  0  0  0
  184.5910  178.2900  147.3920 F   0  0  0  0  0  0  0  0  0  0  0  0
  187.0470  177.8730  144.7060 C   0  0  0  0  0  3  0  0  0  0  0  0
  185.7530  178.0450  146.7440 C   0  0  0  0  0  0  0  0  0  0  0  0
  188.1150  177.5480  146.8520 C   0  0  0  0  0  3  0  0  0  0  0  0
  185.8140  178.0780  145.3410 C   0  0  0  0  0  0  0  0  0  0  0  0
  188.2050  177.6130  145.4590 C   0  0  0  0  0  0  0  0  0  0  0  0
  185.0250  178.9540  143.1620 C   0  0  2  0  0  3  0  0  0  0  0  0
  184.6070  178.4500  144.5340 C   0  0  2  0  0  3  0  0  0  0  0  0
  184.5660  179.9360  144.2210 C   0  0  0  0  0  2  0  0  0  0  0  0
  183.9440  179.0020  140.8610 C   0  0  0  0  0  0  0  0  0  0  0  0
  184.9020  179.6620  140.3770 O   0  0  0  0  0  0  0  0  0  0  0  0
  183.9520  178.6360  142.2350 N   0  0  0  0  0  2  0  0  0  0  0  0
  182.7700  178.6030  140.0160 C   0  0  1  0  0  3  0  0  0  0  0  0
  183.8720  177.8850  137.8570 C   0  0  0  0  0  3  0  0  0  0  0  0
  184.2700  174.5610  136.3030 O   0  0  0  0  0  1  0  0  0  0  0  0
  183.8930  175.5560  137.1960 C   0  0  0  0  0  0  0  0  0  0  0  0
  184.2400  176.8870  136.9500 C   0  0  0  0  0  3  0  0  0  0  0  0
  182.7990  176.2230  139.2470 C   0  0  0  0  0  3  0  0  0  0  0  0
  183.1710  175.2250  138.3450 C   0  0  0  0  0  3  0  0  0  0  0  0
  183.1470  177.5540  139.0110 C   0  0  0  0  0  0  0  0  0  0  0  0
  181.5570  178.1930  140.8570 C   0  0  0  0  0  2  0  0  0  0  0  0
  180.8870  180.1330  139.7300 C   0  0  0  0  0  1  0  0  0  0  0  0
  180.4470  179.1120  140.6590 N   0  0  0  0  0  0  0  0  0  0  0  0
  180.2330  179.7750  141.9330 C   0  0  0  0  0  1  0  0  0  0  0  0
  189.5290  177.3210  144.8170 C   0  0  2  0  0  3  0  0  0  0  0  0
  191.4640  176.1720  145.6610 O   0  0  0  0  0  1  0  0  0  0  0  0
  190.7230  177.3510  145.7860 C   0  0  0  0  0  2  0  0  0  0  0  0
  189.7340  178.1790  143.5580 C   0  0  2  0  0  3  0  0  0  0  0  0
  188.6640  179.5720  141.3640 O   0  0  0  0  0  0  0  0  0  0  0  0
  189.4620  176.0870  142.1340 C   0  0  0  0  0  1  0  0  0  0  0  0
  188.6810  178.3110  141.2810 C   0  0  0  0  0  0  0  0  0  0  0  0
  189.2760  177.5240  142.3280 N   0  0  0  0  0  0  0  0  0  0  0  0
  188.0520  177.6730  140.0880 C   0  0  0  0  0  2  0  0  0  0  0  0
  188.0200  178.6200  138.9880 N   0  0  0  0  0  2  0  0  0  0  0  0
  187.7010  177.8710  137.7870 C   0  0  0  0  0  2  0  0  0  0  0  0
  188.4010  176.5310  137.8430 C   0  0  0  0  0  2  0  0  0  0  0  0
  188.6010  174.8930  136.0040 C   0  0  0  0  0  2  0  0  0  0  0  0
  187.6510  175.5120  137.0110 C   0  0  0  0  0  3  0  0  0  0  0  0
  187.6540  175.9920  135.5780 C   0  0  0  0  0  2  0  0  0  0  0  0
  191.1120  178.7770  143.4230 C   0  0  0  0  0  0  0  0  0  0  0  0
  191.4490  179.8910  144.1790 O   0  0  0  0  0  1  0  0  0  0  0  0
  192.0220  178.2600  142.5950 C   0  0  0  0  0  3  0  0  0  0  0  0
  191.7550  177.0350  141.7830 C   0  0  0  0  0  2  0  0  0  0  0  0
  192.2460  177.2100  140.3920 C   0  0  0  0  0  0  0  0  0  0  0  0
  193.6200  177.4480  140.1430 N   0  0  0  0  0  1  0  0  0  0  0  0
  191.4480  177.0990  139.4240 O   0  0  0  0  0  0  0  0  0  0  0  0
  3  6  2  0  0  0  0
  3  7  1  0  0  0  0
  4  2  1  0  0  0  0
  4  1  2  0  0  0  0
  5  1  1  0  0  0  0
  6  4  1  0  0  0  0
  7  5  2  0  0  0  0
  8 13  1  6  0  0  0
  8 10  1  0  0  0  0
  8  9  1  0  0  0  0
  9  6  1  1  0  0  0
 10  9  1  0  0  0  0
 11 13  1  0  0  0  0
 12 11  2  0  0  0  0
 14 22  1  1  0  0  0
 14 11  1  0  0  0  0
 15 21  1  0  0  0  0
 16 17  1  0  0  0  0
 17 20  2  0  0  0  0
 18 17  1  0  0  0  0
 18 15  2  0  0  0  0
 20 19  1  0  0  0  0
 21 19  2  0  0  0  0
 21 14  1  0  0  0  0
 23 24  1  0  0  0  0
 24 22  1  0  0  0  0
 24 25  1  0  0  0  0
 26  7  1  0  0  0  0
 26 28  1  1  0  0  0
 27 28  1  0  0  0  0
 29 41  1  6  0  0  0
 29 26  1  0  0  0  0
 31 33  1  0  0  0  0
 32 30  2  0  0  0  0
 32 33  1  0  0  0  0
 33 29  1  0  0  0  0
 34 32  1  0  0  0  0
 35 34  1  0  0  0  0
 36 37  1  0  0  0  0
 36 35  1  0  0  0  0
 38 39  1  0  0  0  0
 39 37  1  0  0  0  0
 40 38  1  0  0  0  0
 40 39  1  0  0  0  0
 41 42  1  0  0  0  0
 43 41  2  0  0  0  0
 44 43  1  0  0  0  0
 45 44  1  0  0  0  0
 46 45  1  0  0  0  0
 47 45  2  0  0  0  0
M  END
>  <MODEL>
8

>  <REMARK>
 VINA RESULT:      -6.6      2.836      9.127
  Name = 
  18 active torsions:
  status: ('A' for Active; 'I' for Inactive)
    1  A    between atoms: C_2  and  C_13
    2  A    between atoms: C_3  and  C_42
    3  A    between atoms: C_6  and  C_23
    4  A    between atoms: C_6  and  N_34
    5  A    between atoms: C_7  and  C_13
    6  A    between atoms: C_7  and  N_25
    7  A    between atoms: C_10  and  C_36
    8  A    between atoms: C_10  and  C_42
    9  A    between atoms: C_10  and  C_45
   10  A    between atoms: C_13  and  C_44
   11  A    between atoms: C_18  and  C_20
   12  A    between atoms: C_20  and  C_46
   13  A    between atoms: C_22  and  C_23
   14  A    between atoms: C_24  and  C_43
   15  A    between atoms: C_27  and  N_37
   16  A    between atoms: N_28  and  C_42
   17  A    between atoms: C_32  and  C_38
   18  A    between atoms: N_34  and  C_43
                            x       y       z     vdW  Elec       q    Type
                         _______ _______ _______ _____ _____    ______ ____

>  <TORSDO>
F 18

$$$$
=
 OpenBabel11062417333D

 47 50  0  0  1  0  0  0  0  0999 V2000
  188.4010  177.5360  145.9730 C   0  0  0  0  0  3  0  0  0  0  0  0
  186.2210  178.2410  146.5690 F   0  0  0  0  0  0  0  0  0  0  0  0
  187.5560  177.1240  143.3450 C   0  0  0  0  0  3  0  0  0  0  0  0
  187.0720  177.7780  145.6240 C   0  0  0  0  0  0  0  0  0  0  0  0
  189.3080  177.0980  145.0130 C   0  0  0  0  0  3  0  0  0  0  0  0
  186.6330  177.5510  144.3100 C   0  0  0  0  0  0  0  0  0  0  0  0
  188.9000  176.9020  143.6910 C   0  0  0  0  0  0  0  0  0  0  0  0
  185.2230  178.8860  142.7720 C   0  0  2  0  0  3  0  0  0  0  0  0
  185.2260  177.8770  143.9090 C   0  0  2  0  0  3  0  0  0  0  0  0
  184.8800  179.3320  144.1790 C   0  0  0  0  0  2  0  0  0  0  0  0
  183.8440  179.0950  140.6450 C   0  0  0  0  0  0  0  0  0  0  0  0
  184.7520  179.7530  140.0690 O   0  0  0  0  0  0  0  0  0  0  0  0
  184.0240  178.6520  141.9840 N   0  0  0  0  0  2  0  0  0  0  0  0
  182.5530  178.7780  139.9480 C   0  0  1  0  0  3  0  0  0  0  0  0
  183.4300  177.6070  137.8860 C   0  0  0  0  0  3  0  0  0  0  0  0
  183.1080  174.1150  136.7350 O   0  0  0  0  0  1  0  0  0  0  0  0
  182.9630  175.2620  137.5050 C   0  0  0  0  0  0  0  0  0  0  0  0
  183.5650  176.4570  137.1030 C   0  0  0  0  0  3  0  0  0  0  0  0
  182.0830  176.3690  139.4670 C   0  0  0  0  0  3  0  0  0  0  0  0
  182.2210  175.2190  138.6870 C   0  0  0  0  0  3  0  0  0  0  0  0
  182.6840  177.5650  139.0730 C   0  0  0  0  0  0  0  0  0  0  0  0
  181.3760  178.6670  140.9220 C   0  0  0  0  0  2  0  0  0  0  0  0
  180.0930  180.5090  140.2520 C   0  0  0  0  0  1  0  0  0  0  0  0
  180.1300  179.0610  140.2820 N   0  0  0  0  0  0  0  0  0  0  0  0
  179.0630  178.6370  141.1720 C   0  0  0  0  0  1  0  0  0  0  0  0
  189.9040  176.3790  142.7060 C   0  0  2  0  0  3  0  0  0  0  0  0
  191.6810  175.1780  143.7910 O   0  0  0  0  0  1  0  0  0  0  0  0
  191.3580  176.4080  143.2080 C   0  0  0  0  0  2  0  0  0  0  0  0
  189.7150  177.0300  141.3260 C   0  0  2  0  0  3  0  0  0  0  0  0
  189.5910  175.6290  138.8940 O   0  0  0  0  0  0  0  0  0  0  0  0
  192.1430  177.5020  140.7250 C   0  0  0  0  0  1  0  0  0  0  0  0
  190.7270  176.0610  139.2410 C   0  0  0  0  0  0  0  0  0  0  0  0
  190.8670  176.8490  140.4360 N   0  0  0  0  0  0  0  0  0  0  0  0
  191.9050  175.7110  138.3950 C   0  0  0  0  0  2  0  0  0  0  0  0
  191.5860  174.5640  137.5650 N   0  0  0  0  0  2  0  0  0  0  0  0
  192.8030  174.1880  136.8690 C   0  0  0  0  0  2  0  0  0  0  0  0
  193.9900  174.7620  137.6100 C   0  0  0  0  0  2  0  0  0  0  0  0
  195.8740  174.1630  139.0940 C   0  0  0  0  0  2  0  0  0  0  0  0
  194.9470  173.6570  138.0060 C   0  0  0  0  0  3  0  0  0  0  0  0
  196.3470  174.1100  137.6590 C   0  0  0  0  0  2  0  0  0  0  0  0
  189.2280  178.4570  141.3670 C   0  0  0  0  0  0  0  0  0  0  0  0
  189.8010  179.3480  142.2630 O   0  0  0  0  0  1  0  0  0  0  0  0
  188.2580  178.8900  140.5590 C   0  0  0  0  0  3  0  0  0  0  0  0
  187.6230  178.0080  139.5350 C   0  0  0  0  0  2  0  0  0  0  0  0
  187.8820  178.5220  138.1650 C   0  0  0  0  0  0  0  0  0  0  0  0
  186.8160  178.6810  137.2460 N   0  0  0  0  0  1  0  0  0  0  0  0
  189.0480  178.8630  137.8310 O   0  0  0  0  0  0  0  0  0  0  0  0
  3  7  2  0  0  0  0
  3  6  1  0  0  0  0
  4  1  1  0  0  0  0
  4  2  1  0  0  0  0
  5  1  2  0  0  0  0
  6  4  2  0  0  0  0
  7  5  1  0  0  0  0
  8 13  1  6  0  0  0
  8  9  1  0  0  0  0
  8 10  1  0  0  0  0
  9 10  1  0  0  0  0
  9  6  1  1  0  0  0
 11 13  1  0  0  0  0
 12 11  2  0  0  0  0
 14 11  1  0  0  0  0
 14 22  1  1  0  0  0
 15 21  1  0  0  0  0
 16 17  1  0  0  0  0
 17 20  2  0  0  0  0
 18 17  1  0  0  0  0
 18 15  2  0  0  0  0
 20 19  1  0  0  0  0
 21 19  2  0  0  0  0
 21 14  1  0  0  0  0
 23 24  1  0  0  0  0
 24 22  1  0  0  0  0
 24 25  1  0  0  0  0
 26 28  1  1  0  0  0
 26  7  1  0  0  0  0
 28 27  1  0  0  0  0
 29 41  1  1  0  0  0
 29 26  1  0  0  0  0
 30 32  2  0  0  0  0
 32 33  1  0  0  0  0
 33 31  1  0  0  0  0
 33 29  1  0  0  0  0
 34 32  1  0  0  0  0
 35 34  1  0  0  0  0
 36 35  1  0  0  0  0
 36 37  1  0  0  0  0
 37 39  1  0  0  0  0
 39 38  1  0  0  0  0
 40 39  1  0  0  0  0
 40 38  1  0  0  0  0
 41 42  1  0  0  0  0
 43 41  2  0  0  0  0
 44 43  1  0  0  0  0
 45 44  1  0  0  0  0
 46 45  1  0  0  0  0
 47 45  2  0  0  0  0
M  END
>  <MODEL>
9

>  <REMARK>
 VINA RESULT:      -6.6      2.814     10.287
  Name = 
  18 active torsions:
  status: ('A' for Active; 'I' for Inactive)
    1  A    between atoms: C_2  and  C_13
    2  A    between atoms: C_3  and  C_42
    3  A    between atoms: C_6  and  C_23
    4  A    between atoms: C_6  and  N_34
    5  A    between atoms: C_7  and  C_13
    6  A    between atoms: C_7  and  N_25
    7  A    between atoms: C_10  and  C_36
    8  A    between atoms: C_10  and  C_42
    9  A    between atoms: C_10  and  C_45
   10  A    between atoms: C_13  and  C_44
   11  A    between atoms: C_18  and  C_20
   12  A    between atoms: C_20  and  C_46
   13  A    between atoms: C_22  and  C_23
   14  A    between atoms: C_24  and  C_43
   15  A    between atoms: C_27  and  N_37
   16  A    between atoms: N_28  and  C_42
   17  A    between atoms: C_32  and  C_38
   18  A    between atoms: N_34  and  C_43
                            x       y       z     vdW  Elec       q    Type
                         _______ _______ _______ _____ _____    ______ ____

>  <TORSDO>
F 18

$$$$
