=
 OpenBabel11062412033D

 48 57  0  0  1  0  0  0  0  0999 V2000
  191.5490  176.4960  135.8950 C   0  0  0  0  0  2  0  0  0  0  0  0
  188.1060  175.3800  134.7050 C   0  0  0  0  0  1  0  0  0  0  0  0
  189.3590  177.9470  138.3220 C   0  0  2  0  0  3  0  0  0  0  0  0
  188.1270  177.4350  139.0700 C   0  0  0  0  0  1  0  0  0  0  0  0
  189.0340  178.3400  136.9500 N   0  0  2  0  0  0  0  0  0  0  0  0
  186.7390  177.2970  135.5220 C   0  0  1  0  0  3  0  0  0  0  0  0
  186.5650  178.3000  136.6480 C   0  0  0  0  0  2  0  0  0  0  0  0
  192.7450  175.9950  136.6470 C   0  0  0  0  0  0  0  0  0  0  0  0
  190.8500  175.9490  139.2990 C   0  0  1  0  0  3  0  0  0  0  0  0
  187.9090  176.3730  135.8430 C   0  0  2  0  0  3  0  0  0  0  0  0
  190.3580  176.8130  138.1300 C   0  0  2  0  0  0  0  0  0  0  0  0
  185.5630  176.5560  135.3860 O   0  0  0  0  0  1  0  0  0  0  0  0
  192.8490  176.2560  137.9550 C   0  0  0  0  0  3  0  0  0  0  0  0
  187.8240  179.1500  136.7570 C   0  0  0  0  0  2  0  0  0  0  0  0
  189.2050  177.1710  136.0510 C   0  0  2  0  0  3  0  0  0  0  0  0
  191.7750  177.0050  138.6960 C   0  0  2  0  0  3  0  0  0  0  0  0
  190.2670  176.2780  136.6930 C   0  0  1  0  0  3  0  0  0  0  0  0
  190.1400  176.7870  141.7370 C   0  0  0  0  0  0  0  0  0  0  0  0
  190.4700  176.4410  140.6290 C   0  0  0  0  0  0  0  0  0  0  0  0
  190.3240  176.5860  144.1480 C   0  0  0  0  0  3  0  0  0  0  0  0
  189.7000  177.1130  143.0830 C   0  0  0  0  0  0  0  0  0  0  0  0
  187.9800  178.0180  145.9340 C   0  0  0  0  0  2  0  0  0  0  0  0
  187.2340  177.4570  143.3800 C   0  0  1  0  0  0  0  0  0  0  0  0
  188.5510  178.0920  143.2230 C   0  0  2  0  0  0  0  0  0  0  0  0
  185.6040  178.5160  146.0950 C   0  0  0  0  0  2  0  0  0  0  0  0
  186.7100  177.5680  146.5530 C   0  0  0  0  0  2  0  0  0  0  0  0
  187.6830  177.9480  142.0730 N   0  0  0  0  0  2  0  0  0  0  0  0
  187.9920  177.9430  144.6180 C   0  0  2  0  0  3  0  0  0  0  0  0
  185.8250  178.0600  143.5070 C   0  0  0  0  0  0  0  0  0  0  0  0
  185.1700  178.4190  144.6470 C   0  0  0  0  0  3  0  0  0  0  0  0
  185.0780  178.0870  142.3200 O   0  0  0  0  0  0  0  0  0  0  0  0
  183.8360  178.7750  142.1890 C   0  0  0  0  0  2  0  0  0  0  0  0
  183.1570  178.3950  140.8830 C   0  0  0  0  0  2  0  0  0  0  0  0
  184.3530  179.9480  139.4940 O   0  0  0  0  0  0  0  0  0  0  0  0
  184.0850  178.5820  139.6890 C   0  0  2  0  0  3  0  0  0  0  0  0
  183.4050  179.3650  138.6350 C   0  0  0  0  0  2  0  0  0  0  0  0
  191.4070  175.6380  144.0450 C   0  0  0  0  0  0  0  0  0  0  0  0
  192.2950  174.9000  143.9560 N   0  0  0  0  0  0  0  0  0  0  0  0
  193.7250  175.1130  135.9520 C   0  0  0  0  0  2  0  0  0  0  0  0
  194.9990  174.9670  136.7660 C   0  0  0  0  0  2  0  0  0  0  0  0
  195.9410  174.5400  139.4490 C   0  0  0  0  0  2  0  0  0  0  0  0
  195.1830  173.4970  137.1690 C   0  0  2  0  0  3  0  0  0  0  0  0
  195.5070  173.2960  138.6600 C   0  0  1  0  0  3  0  0  0  0  0  0
  197.6570  174.1770  137.7840 C   0  0  0  0  0  2  0  0  0  0  0  0
  196.5880  173.1130  137.6190 C   0  0  2  0  0  0  0  0  0  0  0  0
  197.4110  174.7630  139.1570 C   0  0  0  0  0  2  0  0  0  0  0  0
  198.3950  171.8230  136.1090 C   0  0  0  0  0  1  0  0  0  0  0  0
  197.0720  171.3840  137.2800 S   0  0  0  0  0  0  0  0  0  0  0  0
  1  8  1  0  0  0  0
  1 17  1  0  0  0  0
  3  4  1  6  0  0  0
  5 14  1  1  0  0  0
  5  3  1  0  0  0  0
  6 12  1  1  0  0  0
  6 10  1  0  0  0  0
  6  7  1  0  0  0  0
  7 14  1  0  0  0  0
  8 13  2  0  0  0  0
  9 19  1  1  0  0  0
 10  2  1  6  0  0  0
 10 15  1  0  0  0  0
 11  3  1  0  0  0  0
 11 16  1  0  0  0  0
 11  9  1  0  0  0  0
 13 16  1  0  0  0  0
 15 17  1  0  0  0  0
 15  5  1  0  0  0  0
 16  9  1  0  0  0  0
 17 11  1  0  0  0  0
 18 21  1  0  0  0  0
 19 18  3  0  0  0  0
 21 24  1  0  0  0  0
 21 20  2  0  0  0  0
 22 26  1  0  0  0  0
 23 29  1  0  0  0  0
 23 28  1  0  0  0  0
 24 23  1  0  0  0  0
 24 28  1  0  0  0  0
 25 26  1  0  0  0  0
 27 24  1  0  0  0  0
 27 23  1  0  0  0  0
 28 22  1  0  0  0  0
 29 30  2  0  0  0  0
 30 25  1  0  0  0  0
 31 29  1  0  0  0  0
 32 31  1  0  0  0  0
 33 32  1  0  0  0  0
 34 35  1  0  0  0  0
 35 33  1  0  0  0  0
 36 34  1  0  0  0  0
 36 35  1  0  0  0  0
 37 20  1  0  0  0  0
 38 37  3  0  0  0  0
 39  8  1  0  0  0  0
 39 40  1  0  0  0  0
 40 42  1  0  0  0  0
 42 45  1  0  0  0  0
 42 43  1  0  0  0  0
 43 41  1  0  0  0  0
 44 46  1  0  0  0  0
 45 44  1  0  0  0  0
 45 43  1  0  0  0  0
 46 41  1  0  0  0  0
 47 48  1  0  0  0  0
 48 45  1  0  0  0  0
M  END
>  <MODEL>
1

>  <REMARK>
 VINA RESULT:      -8.1      0.000      0.000
  Name = 
  12 active torsions:
  status: ('A' for Active; 'I' for Inactive)
    1  A    between atoms: C_3  and  C_44
    2  A    between atoms: C_4  and  C_5
    3  A    between atoms: C_10  and  C_18
    4  A    between atoms: C_10  and  C_25
    5  A    between atoms: C_15  and  C_20
    6  A    between atoms: C_19  and  C_44
    7  A    between atoms: C_22  and  C_33
    8  A    between atoms: C_25  and  C_30
    9  A    between atoms: C_31  and  C_33
   10  A    between atoms: C_31  and  O_41
   11  A    between atoms: C_40  and  O_41
   12  A    between atoms: S_43  and  C_46
                            x       y       z     vdW  Elec       q    Type
                         _______ _______ _______ _____ _____    ______ ____

>  <TORSDO>
F 12

$$$$
=
 OpenBabel11062412033D

 48 57  0  0  1  0  0  0  0  0999 V2000
  191.0330  177.6830  141.3970 C   0  0  0  0  0  2  0  0  0  0  0  0
  190.8730  175.3740  138.3710 C   0  0  0  0  0  1  0  0  0  0  0  0
  188.0240  178.7190  139.7630 C   0  0  2  0  0  3  0  0  0  0  0  0
  186.8690  177.9640  139.1040 C   0  0  0  0  0  1  0  0  0  0  0  0
  189.1980  178.7780  138.8910 N   0  0  2  0  0  0  0  0  0  0  0  0
  189.6750  176.8620  136.7710 C   0  0  1  0  0  3  0  0  0  0  0  0
  188.5920  177.9170  136.6380 C   0  0  0  0  0  2  0  0  0  0  0  0
  190.7460  177.7040  142.8680 C   0  0  0  0  0  0  0  0  0  0  0  0
  187.5910  177.4630  142.0880 C   0  0  1  0  0  3  0  0  0  0  0  0
  189.7700  176.4140  138.2250 C   0  0  2  0  0  3  0  0  0  0  0  0
  188.5300  177.9410  140.9730 C   0  0  2  0  0  0  0  0  0  0  0  0
  189.3580  175.7770  135.9510 O   0  0  0  0  0  1  0  0  0  0  0  0
  189.5710  178.1780  143.2970 C   0  0  0  0  0  3  0  0  0  0  0  0
  188.9670  179.1270  137.4840 C   0  0  0  0  0  2  0  0  0  0  0  0
  190.0640  177.6010  139.1540 C   0  0  2  0  0  3  0  0  0  0  0  0
  188.5160  178.6530  142.3360 C   0  0  2  0  0  3  0  0  0  0  0  0
  189.8210  177.1960  140.6080 C   0  0  1  0  0  3  0  0  0  0  0  0
  185.0930  178.4160  142.0130 C   0  0  0  0  0  0  0  0  0  0  0  0
  186.2270  178.0040  142.0190 C   0  0  0  0  0  0  0  0  0  0  0  0
  183.1260  179.0870  143.2660 C   0  0  0  0  0  3  0  0  0  0  0  0
  183.7070  178.8460  142.0800 C   0  0  0  0  0  0  0  0  0  0  0  0
  180.6960  177.5000  141.0670 C   0  0  0  0  0  2  0  0  0  0  0  0
  183.0860  177.9140  139.8380 C   0  0  1  0  0  0  0  0  0  0  0  0
  182.9760  179.0470  140.7670 C   0  0  2  0  0  0  0  0  0  0  0  0
  180.1130  176.7880  138.8150 C   0  0  0  0  0  2  0  0  0  0  0  0
  180.3210  176.3180  140.2540 C   0  0  0  0  0  2  0  0  0  0  0  0
  183.9530  179.0880  139.7000 N   0  0  0  0  0  2  0  0  0  0  0  0
  181.8420  178.0510  140.7200 C   0  0  2  0  0  3  0  0  0  0  0  0
  182.5480  177.7160  138.4100 C   0  0  0  0  0  0  0  0  0  0  0  0
  181.3470  177.1890  138.0360 C   0  0  0  0  0  3  0  0  0  0  0  0
  183.4730  177.9590  137.3840 O   0  0  0  0  0  0  0  0  0  0  0  0
  183.7330  177.0380  136.3270 C   0  0  0  0  0  2  0  0  0  0  0  0
  184.7230  175.9770  136.7830 C   0  0  0  0  0  2  0  0  0  0  0  0
  183.3630  174.1900  137.6360 O   0  0  0  0  0  0  0  0  0  0  0  0
  184.1830  174.5690  136.5600 C   0  0  2  0  0  3  0  0  0  0  0  0
  184.6680  173.6660  137.6250 C   0  0  0  0  0  2  0  0  0  0  0  0
  183.7910  178.8870  144.5310 C   0  0  0  0  0  0  0  0  0  0  0  0
  184.3270  178.7550  145.5490 N   0  0  0  0  0  0  0  0  0  0  0  0
  191.7220  177.0810  143.8080 C   0  0  0  0  0  2  0  0  0  0  0  0
  191.4180  177.4730  145.2440 C   0  0  0  0  0  2  0  0  0  0  0  0
  189.3730  176.6590  147.0940 C   0  0  0  0  0  2  0  0  0  0  0  0
  191.8040  176.3190  146.1810 C   0  0  2  0  0  3  0  0  0  0  0  0
  190.6340  175.7850  147.0260 C   0  0  1  0  0  3  0  0  0  0  0  0
  191.1290  177.9450  148.1450 C   0  0  0  0  0  2  0  0  0  0  0  0
  191.7120  176.6280  147.6710 C   0  0  2  0  0  0  0  0  0  0  0  0
  189.6310  177.7360  148.1280 C   0  0  0  0  0  2  0  0  0  0  0  0
  193.3460  177.1730  149.7310 C   0  0  0  0  0  1  0  0  0  0  0  0
  192.8920  175.7210  148.7310 S   0  0  0  0  0  0  0  0  0  0  0  0
  1  8  1  0  0  0  0
  3  4  1  6  0  0  0
  3 11  1  0  0  0  0
  5 14  1  6  0  0  0
  5 15  1  0  0  0  0
  5  3  1  0  0  0  0
  6 12  1  6  0  0  0
  6 10  1  0  0  0  0
  7  6  1  0  0  0  0
  7 14  1  0  0  0  0
  8 13  2  0  0  0  0
  8 39  1  0  0  0  0
  9 19  1  6  0  0  0
  9 16  1  0  0  0  0
 10  2  1  6  0  0  0
 10 15  1  0  0  0  0
 11  9  1  0  0  0  0
 11 16  1  0  0  0  0
 15 17  1  0  0  0  0
 16 13  1  0  0  0  0
 17 11  1  0  0  0  0
 17  1  1  0  0  0  0
 18 19  3  0  0  0  0
 18 21  1  0  0  0  0
 20 37  1  0  0  0  0
 21 20  2  0  0  0  0
 23 28  1  0  0  0  0
 23 24  1  0  0  0  0
 24 21  1  0  0  0  0
 25 26  1  0  0  0  0
 26 22  1  0  0  0  0
 27 23  1  0  0  0  0
 27 24  1  0  0  0  0
 28 24  1  0  0  0  0
 28 22  1  0  0  0  0
 29 23  1  0  0  0  0
 30 29  2  0  0  0  0
 30 25  1  0  0  0  0
 31 29  1  0  0  0  0
 32 33  1  0  0  0  0
 32 31  1  0  0  0  0
 35 33  1  0  0  0  0
 35 36  1  0  0  0  0
 35 34  1  0  0  0  0
 36 34  1  0  0  0  0
 37 38  3  0  0  0  0
 39 40  1  0  0  0  0
 40 42  1  0  0  0  0
 41 46  1  0  0  0  0
 42 43  1  0  0  0  0
 42 45  1  0  0  0  0
 43 41  1  0  0  0  0
 43 45  1  0  0  0  0
 45 44  1  0  0  0  0
 45 48  1  0  0  0  0
 46 44  1  0  0  0  0
 48 47  1  0  0  0  0
M  END
>  <MODEL>
2

>  <REMARK>
 VINA RESULT:      -7.3      3.793      7.326
  Name = 
  12 active torsions:
  status: ('A' for Active; 'I' for Inactive)
    1  A    between atoms: C_3  and  C_44
    2  A    between atoms: C_4  and  C_5
    3  A    between atoms: C_10  and  C_18
    4  A    between atoms: C_10  and  C_25
    5  A    between atoms: C_15  and  C_20
    6  A    between atoms: C_19  and  C_44
    7  A    between atoms: C_22  and  C_33
    8  A    between atoms: C_25  and  C_30
    9  A    between atoms: C_31  and  C_33
   10  A    between atoms: C_31  and  O_41
   11  A    between atoms: C_40  and  O_41
   12  A    between atoms: S_43  and  C_46
                            x       y       z     vdW  Elec       q    Type
                         _______ _______ _______ _____ _____    ______ ____

>  <TORSDO>
F 12

$$$$
=
 OpenBabel11062412033D

 48 57  0  0  1  0  0  0  0  0999 V2000
  187.9680  178.4000  141.1210 C   0  0  0  0  0  2  0  0  0  0  0  0
  190.0670  175.9730  139.0670 C   0  0  0  0  0  1  0  0  0  0  0  0
  186.6350  178.7880  137.8250 C   0  0  2  0  0  3  0  0  0  0  0  0
  186.2750  177.8040  136.7110 C   0  0  0  0  0  1  0  0  0  0  0  0
  188.0780  179.0270  137.8900 N   0  0  2  0  0  0  0  0  0  0  0  0
  190.0270  177.1430  136.8660 C   0  0  1  0  0  3  0  0  0  0  0  0
  189.1750  177.9710  135.9230 C   0  0  0  0  0  2  0  0  0  0  0  0
  186.8000  178.4320  142.0590 C   0  0  0  0  0  0  0  0  0  0  0  0
  184.9500  177.5760  139.5150 C   0  0  1  0  0  3  0  0  0  0  0  0
  189.2100  176.7830  138.1030 C   0  0  2  0  0  3  0  0  0  0  0  0
  186.3240  178.1710  139.1830 C   0  0  2  0  0  0  0  0  0  0  0  0
  190.4410  175.9830  136.2080 O   0  0  0  0  0  1  0  0  0  0  0  0
  185.5820  178.6980  141.5740 C   0  0  0  0  0  3  0  0  0  0  0  0
  188.7730  179.2650  136.6190 C   0  0  0  0  0  2  0  0  0  0  0  0
  188.6960  178.0440  138.8150 C   0  0  2  0  0  3  0  0  0  0  0  0
  185.3520  178.9260  140.1050 C   0  0  2  0  0  3  0  0  0  0  0  0
  187.6200  177.6630  139.8320 C   0  0  1  0  0  3  0  0  0  0  0  0
  183.0080  178.0360  137.7350 C   0  0  0  0  0  0  0  0  0  0  0  0
  183.9040  177.8510  138.5220 C   0  0  0  0  0  0  0  0  0  0  0  0
  181.9450  177.6820  135.5820 C   0  0  0  0  0  3  0  0  0  0  0  0
  181.8820  178.1790  136.8280 C   0  0  0  0  0  0  0  0  0  0  0  0
  180.7300  181.3610  136.1590 C   0  0  0  0  0  2  0  0  0  0  0  0
  180.9060  179.8550  138.4160 C   0  0  1  0  0  0  0  0  0  0  0  0
  180.6410  178.8650  137.3610 C   0  0  2  0  0  0  0  0  0  0  0  0
  179.6210  182.8580  137.7240 C   0  0  0  0  0  2  0  0  0  0  0  0
  180.8590  182.6660  136.8510 C   0  0  0  0  0  2  0  0  0  0  0  0
  180.4720  178.4940  138.7500 N   0  0  0  0  0  2  0  0  0  0  0  0
  180.7220  180.3210  136.9700 C   0  0  2  0  0  3  0  0  0  0  0  0
  179.9550  180.7320  139.2470 C   0  0  0  0  0  0  0  0  0  0  0  0
  179.5050  181.9850  138.9560 C   0  0  0  0  0  3  0  0  0  0  0  0
  179.6520  180.2390  140.5260 O   0  0  0  0  0  0  0  0  0  0  0  0
  179.1750  181.0580  141.5900 C   0  0  0  0  0  2  0  0  0  0  0  0
  179.0900  180.2540  142.8780 C   0  0  0  0  0  2  0  0  0  0  0  0
  179.4610  177.8810  142.9120 O   0  0  0  0  0  0  0  0  0  0  0  0
  180.1130  179.1250  142.9060 C   0  0  2  0  0  3  0  0  0  0  0  0
  179.9600  178.3330  144.1460 C   0  0  0  0  0  2  0  0  0  0  0  0
  183.1190  177.0410  135.0410 C   0  0  0  0  0  0  0  0  0  0  0  0
  184.0780  176.5480  134.6190 N   0  0  0  0  0  0  0  0  0  0  0  0
  186.9990  178.0410  143.4840 C   0  0  0  0  0  2  0  0  0  0  0  0
  188.2740  177.2330  143.6530 C   0  0  0  0  0  2  0  0  0  0  0  0
  190.7750  178.6330  143.4220 C   0  0  0  0  0  2  0  0  0  0  0  0
  188.9420  177.6050  144.9850 C   0  0  2  0  0  3  0  0  0  0  0  0
  190.1760  178.5110  144.8310 C   0  0  1  0  0  3  0  0  0  0  0  0
  191.0530  176.3190  144.0630 C   0  0  0  0  0  2  0  0  0  0  0  0
  190.3480  177.0520  145.1880 C   0  0  2  0  0  0  0  0  0  0  0  0
  191.6420  177.4110  143.1970 C   0  0  0  0  0  2  0  0  0  0  0  0
  189.3470  177.5320  147.6330 C   0  0  0  0  0  1  0  0  0  0  0  0
  190.8110  176.7140  146.9230 S   0  0  0  0  0  0  0  0  0  0  0  0
  1  8  1  0  0  0  0
  3  4  1  6  0  0  0
  3  5  1  0  0  0  0
  3 11  1  0  0  0  0
  5 14  1  6  0  0  0
  5 15  1  0  0  0  0
  6 12  1  6  0  0  0
  6 10  1  0  0  0  0
  7 14  1  0  0  0  0
  7  6  1  0  0  0  0
  8 39  1  0  0  0  0
  9 19  1  6  0  0  0
  9 16  1  0  0  0  0
 10 15  1  0  0  0  0
 10  2  1  1  0  0  0
 11  9  1  0  0  0  0
 11 17  1  0  0  0  0
 11 16  1  0  0  0  0
 13  8  2  0  0  0  0
 15 17  1  0  0  0  0
 16 13  1  0  0  0  0
 17  1  1  0  0  0  0
 18 19  3  0  0  0  0
 20 21  2  0  0  0  0
 21 24  1  0  0  0  0
 21 18  1  0  0  0  0
 22 26  1  0  0  0  0
 22 28  1  0  0  0  0
 23 27  1  0  0  0  0
 23 29  1  0  0  0  0
 24 23  1  0  0  0  0
 24 27  1  0  0  0  0
 25 30  1  0  0  0  0
 26 25  1  0  0  0  0
 28 24  1  0  0  0  0
 28 23  1  0  0  0  0
 29 31  1  0  0  0  0
 30 29  2  0  0  0  0
 31 32  1  0  0  0  0
 32 33  1  0  0  0  0
 33 35  1  0  0  0  0
 34 36  1  0  0  0  0
 35 34  1  0  0  0  0
 35 36  1  0  0  0  0
 37 20  1  0  0  0  0
 38 37  3  0  0  0  0
 39 40  1  0  0  0  0
 40 42  1  0  0  0  0
 41 43  1  0  0  0  0
 42 45  1  0  0  0  0
 43 42  1  0  0  0  0
 43 45  1  0  0  0  0
 44 45  1  0  0  0  0
 45 48  1  0  0  0  0
 46 41  1  0  0  0  0
 46 44  1  0  0  0  0
 48 47  1  0  0  0  0
M  END
>  <MODEL>
3

>  <REMARK>
 VINA RESULT:      -7.2      4.223      8.354
  Name = 
  12 active torsions:
  status: ('A' for Active; 'I' for Inactive)
    1  A    between atoms: C_3  and  C_44
    2  A    between atoms: C_4  and  C_5
    3  A    between atoms: C_10  and  C_18
    4  A    between atoms: C_10  and  C_25
    5  A    between atoms: C_15  and  C_20
    6  A    between atoms: C_19  and  C_44
    7  A    between atoms: C_22  and  C_33
    8  A    between atoms: C_25  and  C_30
    9  A    between atoms: C_31  and  C_33
   10  A    between atoms: C_31  and  O_41
   11  A    between atoms: C_40  and  O_41
   12  A    between atoms: S_43  and  C_46
                            x       y       z     vdW  Elec       q    Type
                         _______ _______ _______ _____ _____    ______ ____

>  <TORSDO>
F 12

$$$$
=
 OpenBabel11062412033D

 48 57  0  0  1  0  0  0  0  0999 V2000
  181.3400  178.8310  141.7630 C   0  0  0  0  0  2  0  0  0  0  0  0
  179.5480  181.5760  139.8220 C   0  0  0  0  0  1  0  0  0  0  0  0
  182.2930  178.1660  138.3800 C   0  0  2  0  0  3  0  0  0  0  0  0
  182.7290  179.0550  137.2140 C   0  0  0  0  0  1  0  0  0  0  0  0
  180.8420  178.1960  138.5700 N   0  0  2  0  0  0  0  0  0  0  0  0
  179.1860  180.3920  137.6590 C   0  0  1  0  0  3  0  0  0  0  0  0
  179.7910  179.4110  136.6710 C   0  0  0  0  0  2  0  0  0  0  0  0
  182.5600  178.5980  142.6020 C   0  0  0  0  0  0  0  0  0  0  0  0
  184.3090  179.0710  139.8930 C   0  0  1  0  0  3  0  0  0  0  0  0
  180.1580  180.6120  138.8130 C   0  0  2  0  0  3  0  0  0  0  0  0
  182.8260  178.7330  139.6910 C   0  0  2  0  0  0  0  0  0  0  0  0
  178.9340  181.6000  137.0050 O   0  0  0  0  0  1  0  0  0  0  0  0
  183.6640  178.1080  142.0270 C   0  0  0  0  0  3  0  0  0  0  0  0
  180.0090  178.0740  137.3680 C   0  0  0  0  0  2  0  0  0  0  0  0
  180.4940  179.2870  139.5150 C   0  0  2  0  0  3  0  0  0  0  0  0
  183.7210  177.8240  140.5500 C   0  0  2  0  0  3  0  0  0  0  0  0
  181.7050  179.4770  140.4300 C   0  0  1  0  0  3  0  0  0  0  0  0
  185.9780  178.2100  137.9890 C   0  0  0  0  0  0  0  0  0  0  0  0
  185.1990  178.5970  138.8250 C   0  0  0  0  0  0  0  0  0  0  0  0
  186.6350  177.1400  135.9120 C   0  0  0  0  0  3  0  0  0  0  0  0
  186.9900  177.7640  137.0460 C   0  0  0  0  0  0  0  0  0  0  0  0
  189.8350  176.1110  136.0090 C   0  0  0  0  0  2  0  0  0  0  0  0
  189.0280  177.1710  138.3790 C   0  0  1  0  0  0  0  0  0  0  0  0
  188.4360  178.0720  137.3800 C   0  0  2  0  0  0  0  0  0  0  0  0
  191.8520  175.7390  137.3170 C   0  0  0  0  0  2  0  0  0  0  0  0
  190.6850  175.0540  136.6090 C   0  0  0  0  0  2  0  0  0  0  0  0
  188.5090  178.4870  138.7650 N   0  0  0  0  0  2  0  0  0  0  0  0
  189.2730  176.9140  136.8900 C   0  0  2  0  0  3  0  0  0  0  0  0
  190.4230  177.1500  139.0270 C   0  0  0  0  0  0  0  0  0  0  0  0
  191.5370  176.4950  138.5910 C   0  0  0  0  0  3  0  0  0  0  0  0
  190.5010  177.7430  140.2960 O   0  0  0  0  0  0  0  0  0  0  0  0
  191.5420  177.4640  141.2300 C   0  0  0  0  0  2  0  0  0  0  0  0
  190.9520  177.0730  142.5750 C   0  0  0  0  0  2  0  0  0  0  0  0
  191.4600  177.4950  144.8850 O   0  0  0  0  0  0  0  0  0  0  0  0
  191.2440  178.1190  143.6450 C   0  0  2  0  0  3  0  0  0  0  0  0
  190.1980  178.0820  144.6890 C   0  0  0  0  0  2  0  0  0  0  0  0
  185.2690  176.8170  135.5780 C   0  0  0  0  0  0  0  0  0  0  0  0
  184.1690  176.5860  135.2990 N   0  0  0  0  0  0  0  0  0  0  0  0
  182.5570  179.0360  144.0280 C   0  0  0  0  0  2  0  0  0  0  0  0
  183.5570  178.2350  144.8440 C   0  0  0  0  0  2  0  0  0  0  0  0
  186.2240  178.4040  143.7830 C   0  0  0  0  0  2  0  0  0  0  0  0
  184.4970  179.1960  145.5850 C   0  0  2  0  0  3  0  0  0  0  0  0
  185.8520  179.4060  144.8860 C   0  0  1  0  0  3  0  0  0  0  0  0
  186.1100  177.1230  145.8300 C   0  0  0  0  0  2  0  0  0  0  0  0
  185.7690  178.5680  146.1430 C   0  0  2  0  0  0  0  0  0  0  0  0
  186.7650  177.1650  144.4680 C   0  0  0  0  0  2  0  0  0  0  0  0
  187.6480  178.0400  147.9870 C   0  0  0  0  0  1  0  0  0  0  0  0
  186.4280  179.3500  147.6570 S   0  0  0  0  0  0  0  0  0  0  0  0
  1  8  1  0  0  0  0
  3  4  1  6  0  0  0
  3  5  1  0  0  0  0
  3 11  1  0  0  0  0
  5 14  1  6  0  0  0
  5 15  1  0  0  0  0
  6 12  1  6  0  0  0
  6 10  1  0  0  0  0
  7 14  1  0  0  0  0
  7  6  1  0  0  0  0
  8 39  1  0  0  0  0
  9 19  1  6  0  0  0
  9 16  1  0  0  0  0
 10 15  1  0  0  0  0
 10  2  1  1  0  0  0
 11  9  1  0  0  0  0
 11 17  1  0  0  0  0
 11 16  1  0  0  0  0
 13  8  2  0  0  0  0
 15 17  1  0  0  0  0
 16 13  1  0  0  0  0
 17  1  1  0  0  0  0
 18 19  3  0  0  0  0
 20 21  2  0  0  0  0
 21 24  1  0  0  0  0
 21 18  1  0  0  0  0
 22 26  1  0  0  0  0
 22 28  1  0  0  0  0
 23 27  1  0  0  0  0
 23 29  1  0  0  0  0
 24 23  1  0  0  0  0
 24 27  1  0  0  0  0
 25 30  1  0  0  0  0
 26 25  1  0  0  0  0
 28 24  1  0  0  0  0
 28 23  1  0  0  0  0
 29 31  1  0  0  0  0
 30 29  2  0  0  0  0
 31 32  1  0  0  0  0
 32 33  1  0  0  0  0
 33 35  1  0  0  0  0
 35 36  1  0  0  0  0
 35 34  1  0  0  0  0
 36 34  1  0  0  0  0
 37 20  1  0  0  0  0
 38 37  3  0  0  0  0
 39 40  1  0  0  0  0
 40 42  1  0  0  0  0
 41 46  1  0  0  0  0
 41 43  1  0  0  0  0
 42 45  1  0  0  0  0
 43 42  1  0  0  0  0
 43 45  1  0  0  0  0
 44 45  1  0  0  0  0
 45 48  1  0  0  0  0
 46 44  1  0  0  0  0
 48 47  1  0  0  0  0
M  END
>  <MODEL>
4

>  <REMARK>
 VINA RESULT:      -7.2      3.997     10.145
  Name = 
  12 active torsions:
  status: ('A' for Active; 'I' for Inactive)
    1  A    between atoms: C_3  and  C_44
    2  A    between atoms: C_4  and  C_5
    3  A    between atoms: C_10  and  C_18
    4  A    between atoms: C_10  and  C_25
    5  A    between atoms: C_15  and  C_20
    6  A    between atoms: C_19  and  C_44
    7  A    between atoms: C_22  and  C_33
    8  A    between atoms: C_25  and  C_30
    9  A    between atoms: C_31  and  C_33
   10  A    between atoms: C_31  and  O_41
   11  A    between atoms: C_40  and  O_41
   12  A    between atoms: S_43  and  C_46
                            x       y       z     vdW  Elec       q    Type
                         _______ _______ _______ _____ _____    ______ ____

>  <TORSDO>
F 12

$$$$
=
 OpenBabel11062412033D

 48 57  0  0  1  0  0  0  0  0999 V2000
  189.5470  177.7980  140.4640 C   0  0  0  0  0  2  0  0  0  0  0  0
  191.2640  179.2090  143.5580 C   0  0  0  0  0  1  0  0  0  0  0  0
  187.1130  177.2770  143.0330 C   0  0  2  0  0  3  0  0  0  0  0  0
  186.6040  178.1350  144.1920 C   0  0  0  0  0  1  0  0  0  0  0  0
  188.4080  176.6680  143.3400 N   0  0  2  0  0  0  0  0  0  0  0  0
  190.2310  177.7650  145.3070 C   0  0  1  0  0  3  0  0  0  0  0  0
  188.9550  177.0630  145.7340 C   0  0  0  0  0  2  0  0  0  0  0  0
  188.7920  178.2330  139.2450 C   0  0  0  0  0  0  0  0  0  0  0  0
  186.4000  179.1520  141.2590 C   0  0  1  0  0  3  0  0  0  0  0  0
  189.9810  178.5230  144.0070 C   0  0  2  0  0  3  0  0  0  0  0  0
  187.4220  178.1600  141.8290 C   0  0  2  0  0  0  0  0  0  0  0  0
  190.6230  178.6500  146.3130 O   0  0  0  0  0  1  0  0  0  0  0  0
  187.4540  178.2370  139.2730 C   0  0  0  0  0  3  0  0  0  0  0  0
  188.5590  176.0530  144.6640 C   0  0  0  0  0  2  0  0  0  0  0  0
  189.4950  177.5770  142.8980 C   0  0  2  0  0  3  0  0  0  0  0  0
  186.6920  177.8520  140.5110 C   0  0  2  0  0  3  0  0  0  0  0  0
  188.9370  178.3910  141.7300 C   0  0  1  0  0  3  0  0  0  0  0  0
  183.9080  178.9020  142.1980 C   0  0  0  0  0  0  0  0  0  0  0  0
  185.0430  179.0200  141.8060 C   0  0  0  0  0  0  0  0  0  0  0  0
  182.1470  178.7920  143.8640 C   0  0  0  0  0  3  0  0  0  0  0  0
  182.5120  178.7590  142.5720 C   0  0  0  0  0  0  0  0  0  0  0  0
  182.8560  177.1050  139.5640 C   0  0  0  0  0  2  0  0  0  0  0  0
  181.7590  179.4840  140.2940 C   0  0  1  0  0  0  0  0  0  0  0  0
  181.5010  178.6160  141.4520 C   0  0  2  0  0  0  0  0  0  0  0  0
  181.9290  177.7900  137.4210 C   0  0  0  0  0  2  0  0  0  0  0  0
  183.2220  177.5340  138.1930 C   0  0  0  0  0  2  0  0  0  0  0  0
  180.7830  179.8660  141.3190 N   0  0  0  0  0  2  0  0  0  0  0  0
  182.2190  178.0250  140.2630 C   0  0  2  0  0  3  0  0  0  0  0  0
  180.9780  179.6890  138.9850 C   0  0  0  0  0  0  0  0  0  0  0  0
  181.1260  179.0130  137.8090 C   0  0  0  0  0  3  0  0  0  0  0  0
  180.1330  180.8080  138.9620 O   0  0  0  0  0  0  0  0  0  0  0  0
  179.8000  181.5170  137.7700 C   0  0  0  0  0  2  0  0  0  0  0  0
  180.0970  182.9990  137.9360 C   0  0  0  0  0  2  0  0  0  0  0  0
  181.9210  184.4010  137.2450 O   0  0  0  0  0  0  0  0  0  0  0  0
  180.9130  183.5450  136.7700 C   0  0  2  0  0  3  0  0  0  0  0  0
  180.7790  185.0160  136.7020 C   0  0  0  0  0  2  0  0  0  0  0  0
  183.0890  178.9080  144.9520 C   0  0  0  0  0  0  0  0  0  0  0  0
  183.8220  179.0070  145.8430 N   0  0  0  0  0  0  0  0  0  0  0  0
  189.5450  178.7720  138.0760 C   0  0  0  0  0  2  0  0  0  0  0  0
  188.7230  178.6660  136.8040 C   0  0  0  0  0  2  0  0  0  0  0  0
  186.9870  177.9350  134.6310 C   0  0  0  0  0  2  0  0  0  0  0  0
  189.1330  177.4020  136.0340 C   0  0  2  0  0  3  0  0  0  0  0  0
  188.2960  177.1440  134.7690 C   0  0  1  0  0  3  0  0  0  0  0  0
  186.7060  176.5210  136.5710 C   0  0  0  0  0  2  0  0  0  0  0  0
  188.0920  176.2900  136.0000 C   0  0  2  0  0  0  0  0  0  0  0  0
  185.9440  177.2240  135.4690 C   0  0  0  0  0  2  0  0  0  0  0  0
  190.0890  174.8840  137.1160 C   0  0  0  0  0  1  0  0  0  0  0  0
  188.7640  174.5930  135.9020 S   0  0  0  0  0  0  0  0  0  0  0  0
  1 17  1  0  0  0  0
  3  5  1  0  0  0  0
  3  4  1  1  0  0  0
  5 14  1  1  0  0  0
  6  7  1  0  0  0  0
  6 12  1  1  0  0  0
  8 13  2  0  0  0  0
  8  1  1  0  0  0  0
  9 19  1  1  0  0  0
  9 11  1  0  0  0  0
 10  2  1  6  0  0  0
 10  6  1  0  0  0  0
 11  3  1  0  0  0  0
 13 16  1  0  0  0  0
 14  7  1  0  0  0  0
 15  5  1  0  0  0  0
 15 10  1  0  0  0  0
 16  9  1  0  0  0  0
 16 11  1  0  0  0  0
 17 11  1  0  0  0  0
 17 15  1  0  0  0  0
 18 21  1  0  0  0  0
 19 18  3  0  0  0  0
 20 37  1  0  0  0  0
 21 20  2  0  0  0  0
 22 28  1  0  0  0  0
 23 27  1  0  0  0  0
 23 24  1  0  0  0  0
 24 21  1  0  0  0  0
 25 30  1  0  0  0  0
 25 26  1  0  0  0  0
 26 22  1  0  0  0  0
 27 24  1  0  0  0  0
 28 23  1  0  0  0  0
 28 24  1  0  0  0  0
 29 23  1  0  0  0  0
 30 29  2  0  0  0  0
 31 29  1  0  0  0  0
 32 33  1  0  0  0  0
 32 31  1  0  0  0  0
 35 34  1  0  0  0  0
 35 33  1  0  0  0  0
 36 35  1  0  0  0  0
 36 34  1  0  0  0  0
 37 38  3  0  0  0  0
 39  8  1  0  0  0  0
 40 39  1  0  0  0  0
 41 43  1  0  0  0  0
 41 46  1  0  0  0  0
 42 40  1  0  0  0  0
 43 45  1  0  0  0  0
 43 42  1  0  0  0  0
 45 42  1  0  0  0  0
 45 44  1  0  0  0  0
 46 44  1  0  0  0  0
 48 45  1  0  0  0  0
 48 47  1  0  0  0  0
M  END
>  <MODEL>
5

>  <REMARK>
 VINA RESULT:      -7.1      3.957      7.891
  Name = 
  12 active torsions:
  status: ('A' for Active; 'I' for Inactive)
    1  A    between atoms: C_3  and  C_44
    2  A    between atoms: C_4  and  C_5
    3  A    between atoms: C_10  and  C_18
    4  A    between atoms: C_10  and  C_25
    5  A    between atoms: C_15  and  C_20
    6  A    between atoms: C_19  and  C_44
    7  A    between atoms: C_22  and  C_33
    8  A    between atoms: C_25  and  C_30
    9  A    between atoms: C_31  and  C_33
   10  A    between atoms: C_31  and  O_41
   11  A    between atoms: C_40  and  O_41
   12  A    between atoms: S_43  and  C_46
                            x       y       z     vdW  Elec       q    Type
                         _______ _______ _______ _____ _____    ______ ____

>  <TORSDO>
F 12

$$$$
=
 OpenBabel11062412033D

 48 57  0  0  1  0  0  0  0  0999 V2000
  181.0340  177.2760  136.6610 C   0  0  0  0  0  2  0  0  0  0  0  0
  179.3370  176.2390  139.9100 C   0  0  0  0  0  1  0  0  0  0  0  0
  182.9880  178.9470  139.1480 C   0  0  2  0  0  3  0  0  0  0  0  0
  183.5420  178.5270  140.5100 C   0  0  0  0  0  1  0  0  0  0  0  0
  181.5640  179.2770  139.2220 N   0  0  2  0  0  0  0  0  0  0  0  0
  179.8210  178.2520  141.2970 C   0  0  1  0  0  3  0  0  0  0  0  0
  180.8540  179.3210  141.6050 C   0  0  0  0  0  2  0  0  0  0  0  0
  181.9980  176.7690  135.6320 C   0  0  0  0  0  0  0  0  0  0  0  0
  184.2930  176.9460  137.9390 C   0  0  1  0  0  3  0  0  0  0  0  0
  180.3770  177.3000  140.2430 C   0  0  2  0  0  3  0  0  0  0  0  0
  183.0190  177.7630  138.1880 C   0  0  2  0  0  0  0  0  0  0  0  0
  179.5250  177.5530  142.4690 O   0  0  0  0  0  1  0  0  0  0  0  0
  183.2920  177.0970  135.7330 C   0  0  0  0  0  3  0  0  0  0  0  0
  181.1320  180.1240  140.3410 C   0  0  0  0  0  2  0  0  0  0  0  0
  180.7620  178.0550  138.9620 C   0  0  2  0  0  3  0  0  0  0  0  0
  183.8060  177.9280  136.8760 C   0  0  2  0  0  3  0  0  0  0  0  0
  181.6150  177.1550  138.0660 C   0  0  1  0  0  3  0  0  0  0  0  0
  186.5540  177.9520  138.9540 C   0  0  0  0  0  0  0  0  0  0  0  0
  185.5170  177.5240  138.5090 C   0  0  0  0  0  0  0  0  0  0  0  0
  188.8800  178.5600  138.6240 C   0  0  0  0  0  3  0  0  0  0  0  0
  187.8460  178.3810  139.4610 C   0  0  0  0  0  0  0  0  0  0  0  0
  190.3880  177.5070  141.6250 C   0  0  0  0  0  2  0  0  0  0  0  0
  187.6740  177.4840  141.7960 C   0  0  1  0  0  0  0  0  0  0  0  0
  187.9560  178.6520  140.9490 C   0  0  2  0  0  0  0  0  0  0  0  0
  190.1410  176.8210  143.9460 C   0  0  0  0  0  2  0  0  0  0  0  0
  190.5970  176.3740  142.5590 C   0  0  0  0  0  2  0  0  0  0  0  0
  186.6440  178.4970  141.5410 N   0  0  0  0  0  2  0  0  0  0  0  0
  189.1240  177.8520  141.4730 C   0  0  2  0  0  3  0  0  0  0  0  0
  187.6290  177.3270  143.3250 C   0  0  0  0  0  0  0  0  0  0  0  0
  188.6520  176.9900  144.1610 C   0  0  0  0  0  3  0  0  0  0  0  0
  186.3470  177.3810  143.8930 O   0  0  0  0  0  0  0  0  0  0  0  0
  186.0970  177.8180  145.2280 C   0  0  0  0  0  2  0  0  0  0  0  0
  185.3870  179.1620  145.2190 C   0  0  0  0  0  2  0  0  0  0  0  0
  183.3720  178.3550  144.1890 O   0  0  0  0  0  0  0  0  0  0  0  0
  183.8750  179.0010  145.3310 C   0  0  2  0  0  3  0  0  0  0  0  0
  183.2050  179.7500  144.2460 C   0  0  0  0  0  2  0  0  0  0  0  0
  188.8100  178.2920  137.2070 C   0  0  0  0  0  0  0  0  0  0  0  0
  188.7700  178.1010  136.0660 N   0  0  0  0  0  0  0  0  0  0  0  0
  181.5190  175.8100  134.5950 C   0  0  0  0  0  2  0  0  0  0  0  0
  180.3660  174.9730  135.1200 C   0  0  0  0  0  2  0  0  0  0  0  0
  179.3460  173.1400  137.0870 C   0  0  0  0  0  2  0  0  0  0  0  0
  180.6420  173.4890  134.8380 C   0  0  2  0  0  3  0  0  0  0  0  0
  179.9270  172.5280  135.8030 C   0  0  1  0  0  3  0  0  0  0  0  0
  181.7410  173.4360  137.2360 C   0  0  0  0  0  2  0  0  0  0  0  0
  181.4180  172.7500  135.9220 C   0  0  2  0  0  0  0  0  0  0  0  0
  180.4890  173.2830  138.0710 C   0  0  0  0  0  2  0  0  0  0  0  0
  183.4760  171.2930  136.8470 C   0  0  0  0  0  1  0  0  0  0  0  0
  182.4690  171.3760  135.3320 S   0  0  0  0  0  0  0  0  0  0  0  0
  1 17  1  0  0  0  0
  3  5  1  0  0  0  0
  3  4  1  1  0  0  0
  5 14  1  1  0  0  0
  6  7  1  0  0  0  0
  6 12  1  1  0  0  0
  8 13  2  0  0  0  0
  8  1  1  0  0  0  0
  9 11  1  0  0  0  0
  9 19  1  1  0  0  0
 10  2  1  6  0  0  0
 10  6  1  0  0  0  0
 11  3  1  0  0  0  0
 13 16  1  0  0  0  0
 14  7  1  0  0  0  0
 15  5  1  0  0  0  0
 15 10  1  0  0  0  0
 16  9  1  0  0  0  0
 16 11  1  0  0  0  0
 17 11  1  0  0  0  0
 17 15  1  0  0  0  0
 18 21  1  0  0  0  0
 19 18  3  0  0  0  0
 20 21  2  0  0  0  0
 21 24  1  0  0  0  0
 22 26  1  0  0  0  0
 23 29  1  0  0  0  0
 24 28  1  0  0  0  0
 24 27  1  0  0  0  0
 24 23  1  0  0  0  0
 25 30  1  0  0  0  0
 26 25  1  0  0  0  0
 27 23  1  0  0  0  0
 28 22  1  0  0  0  0
 28 23  1  0  0  0  0
 29 31  1  0  0  0  0
 29 30  2  0  0  0  0
 31 32  1  0  0  0  0
 33 32  1  0  0  0  0
 33 35  1  0  0  0  0
 34 36  1  0  0  0  0
 34 35  1  0  0  0  0
 36 35  1  0  0  0  0
 37 20  1  0  0  0  0
 38 37  3  0  0  0  0
 39 40  1  0  0  0  0
 39  8  1  0  0  0  0
 41 46  1  0  0  0  0
 42 40  1  0  0  0  0
 42 43  1  0  0  0  0
 42 45  1  0  0  0  0
 43 45  1  0  0  0  0
 43 41  1  0  0  0  0
 44 46  1  0  0  0  0
 45 44  1  0  0  0  0
 48 45  1  0  0  0  0
 48 47  1  0  0  0  0
M  END
>  <MODEL>
6

>  <REMARK>
 VINA RESULT:      -6.9      4.773      9.238
  Name = 
  12 active torsions:
  status: ('A' for Active; 'I' for Inactive)
    1  A    between atoms: C_3  and  C_44
    2  A    between atoms: C_4  and  C_5
    3  A    between atoms: C_10  and  C_18
    4  A    between atoms: C_10  and  C_25
    5  A    between atoms: C_15  and  C_20
    6  A    between atoms: C_19  and  C_44
    7  A    between atoms: C_22  and  C_33
    8  A    between atoms: C_25  and  C_30
    9  A    between atoms: C_31  and  C_33
   10  A    between atoms: C_31  and  O_41
   11  A    between atoms: C_40  and  O_41
   12  A    between atoms: S_43  and  C_46
                            x       y       z     vdW  Elec       q    Type
                         _______ _______ _______ _____ _____    ______ ____

>  <TORSDO>
F 12

$$$$
=
 OpenBabel11062412033D

 48 57  0  0  1  0  0  0  0  0999 V2000
  189.6220  178.2570  140.1360 C   0  0  0  0  0  2  0  0  0  0  0  0
  189.3510  175.4140  137.6140 C   0  0  0  0  0  1  0  0  0  0  0  0
  186.2840  178.6060  138.8990 C   0  0  2  0  0  3  0  0  0  0  0  0
  185.1660  177.6090  138.5870 C   0  0  0  0  0  1  0  0  0  0  0  0
  187.2930  178.6360  137.8390 N   0  0  2  0  0  0  0  0  0  0  0  0
  187.7220  176.4220  136.0190 C   0  0  1  0  0  3  0  0  0  0  0  0
  186.4890  177.2990  135.9020 C   0  0  0  0  0  2  0  0  0  0  0  0
  189.5590  178.5220  141.6090 C   0  0  0  0  0  0  0  0  0  0  0  0
  186.3920  177.7710  141.4410 C   0  0  1  0  0  3  0  0  0  0  0  0
  188.0980  176.2710  137.4890 C   0  0  2  0  0  3  0  0  0  0  0  0
  187.0730  178.1360  140.1150 C   0  0  2  0  0  0  0  0  0  0  0  0
  187.4480  175.1730  135.4610 O   0  0  0  0  0  1  0  0  0  0  0  0
  188.4050  178.9280  142.1510 C   0  0  0  0  0  3  0  0  0  0  0  0
  186.8050  178.6820  136.4550 C   0  0  0  0  0  2  0  0  0  0  0  0
  188.3510  177.6400  138.1410 C   0  0  2  0  0  3  0  0  0  0  0  0
  187.1600  179.0860  141.3210 C   0  0  2  0  0  3  0  0  0  0  0  0
  188.3910  177.4910  139.6620 C   0  0  1  0  0  3  0  0  0  0  0  0
  183.8020  178.4030  141.6460 C   0  0  0  0  0  0  0  0  0  0  0  0
  184.9700  178.1260  141.5200 C   0  0  0  0  0  0  0  0  0  0  0  0
  181.9760  179.0030  143.1270 C   0  0  0  0  0  3  0  0  0  0  0  0
  182.4010  178.7000  141.8900 C   0  0  0  0  0  0  0  0  0  0  0  0
  181.6790  176.0960  139.7440 C   0  0  0  0  0  2  0  0  0  0  0  0
  182.1530  178.7510  139.3960 C   0  0  1  0  0  0  0  0  0  0  0  0
  181.4680  178.6910  140.6950 C   0  0  2  0  0  0  0  0  0  0  0  0
  181.2680  176.2630  137.3520 C   0  0  0  0  0  2  0  0  0  0  0  0
  182.1980  175.6850  138.4180 C   0  0  0  0  0  2  0  0  0  0  0  0
  181.5910  179.9590  140.0080 N   0  0  0  0  0  2  0  0  0  0  0  0
  181.6960  177.3990  139.9490 C   0  0  2  0  0  3  0  0  0  0  0  0
  181.6040  178.8070  137.9610 C   0  0  0  0  0  0  0  0  0  0  0  0
  181.3170  177.7600  137.1350 C   0  0  0  0  0  3  0  0  0  0  0  0
  181.5510  180.0880  137.3910 O   0  0  0  0  0  0  0  0  0  0  0  0
  180.7550  180.4090  136.2520 C   0  0  0  0  0  2  0  0  0  0  0  0
  180.4300  181.8930  136.2370 C   0  0  0  0  0  2  0  0  0  0  0  0
  180.0790  183.7060  137.7740 O   0  0  0  0  0  0  0  0  0  0  0  0
  180.8840  182.5840  137.5180 C   0  0  2  0  0  3  0  0  0  0  0  0
  181.3460  183.9560  137.2180 C   0  0  0  0  0  2  0  0  0  0  0  0
  182.8360  179.0000  144.2850 C   0  0  0  0  0  0  0  0  0  0  0  0
  183.5120  179.0210  145.2250 N   0  0  0  0  0  0  0  0  0  0  0  0
  190.7450  178.2070  142.4570 C   0  0  0  0  0  2  0  0  0  0  0  0
  190.5040  178.6110  143.9010 C   0  0  0  0  0  2  0  0  0  0  0  0
  188.4190  176.7530  144.5820 C   0  0  0  0  0  2  0  0  0  0  0  0
  190.9270  177.4650  144.8300 C   0  0  2  0  0  3  0  0  0  0  0  0
  189.8440  176.3890  145.0240 C   0  0  1  0  0  3  0  0  0  0  0  0
  188.9560  178.2620  146.3920 C   0  0  0  0  0  2  0  0  0  0  0  0
  190.1520  177.3640  146.1390 C   0  0  2  0  0  0  0  0  0  0  0  0
  187.8020  177.5780  145.6920 C   0  0  0  0  0  2  0  0  0  0  0  0
  192.1280  175.5880  146.5270 C   0  0  0  0  0  1  0  0  0  0  0  0
  191.0880  176.6770  147.5500 S   0  0  0  0  0  0  0  0  0  0  0  0
  1  8  1  0  0  0  0
  3  4  1  6  0  0  0
  3 11  1  0  0  0  0
  5 14  1  6  0  0  0
  5 15  1  0  0  0  0
  5  3  1  0  0  0  0
  6 12  1  1  0  0  0
  6 10  1  0  0  0  0
  7  6  1  0  0  0  0
  7 14  1  0  0  0  0
  8 13  2  0  0  0  0
  8 39  1  0  0  0  0
  9 19  1  6  0  0  0
 10  2  1  6  0  0  0
 10 15  1  0  0  0  0
 11 16  1  0  0  0  0
 11  9  1  0  0  0  0
 15 17  1  0  0  0  0
 16  9  1  0  0  0  0
 16 13  1  0  0  0  0
 17 11  1  0  0  0  0
 17  1  1  0  0  0  0
 18 21  1  0  0  0  0
 19 18  3  0  0  0  0
 20 37  1  0  0  0  0
 21 20  2  0  0  0  0
 22 28  1  0  0  0  0
 23 28  1  0  0  0  0
 23 27  1  0  0  0  0
 23 24  1  0  0  0  0
 24 21  1  0  0  0  0
 25 26  1  0  0  0  0
 26 22  1  0  0  0  0
 27 24  1  0  0  0  0
 28 24  1  0  0  0  0
 29 23  1  0  0  0  0
 30 25  1  0  0  0  0
 30 29  2  0  0  0  0
 31 29  1  0  0  0  0
 32 31  1  0  0  0  0
 33 32  1  0  0  0  0
 33 35  1  0  0  0  0
 35 34  1  0  0  0  0
 36 35  1  0  0  0  0
 36 34  1  0  0  0  0
 37 38  3  0  0  0  0
 39 40  1  0  0  0  0
 40 42  1  0  0  0  0
 41 43  1  0  0  0  0
 41 46  1  0  0  0  0
 42 43  1  0  0  0  0
 42 45  1  0  0  0  0
 43 45  1  0  0  0  0
 45 44  1  0  0  0  0
 45 48  1  0  0  0  0
 46 44  1  0  0  0  0
 47 48  1  0  0  0  0
M  END
>  <MODEL>
7

>  <REMARK>
 VINA RESULT:      -6.8      4.362      7.427
  Name = 
  12 active torsions:
  status: ('A' for Active; 'I' for Inactive)
    1  A    between atoms: C_3  and  C_44
    2  A    between atoms: C_4  and  C_5
    3  A    between atoms: C_10  and  C_18
    4  A    between atoms: C_10  and  C_25
    5  A    between atoms: C_15  and  C_20
    6  A    between atoms: C_19  and  C_44
    7  A    between atoms: C_22  and  C_33
    8  A    between atoms: C_25  and  C_30
    9  A    between atoms: C_31  and  C_33
   10  A    between atoms: C_31  and  O_41
   11  A    between atoms: C_40  and  O_41
   12  A    between atoms: S_43  and  C_46
                            x       y       z     vdW  Elec       q    Type
                         _______ _______ _______ _____ _____    ______ ____

>  <TORSDO>
F 12

$$$$
=
 OpenBabel11062412033D

 48 57  0  0  1  0  0  0  0  0999 V2000
  186.9870  178.8840  143.5700 C   0  0  0  0  0  2  0  0  0  0  0  0
  188.5160  176.7300  146.3160 C   0  0  0  0  0  1  0  0  0  0  0  0
  190.2870  178.2540  142.3430 C   0  0  2  0  0  3  0  0  0  0  0  0
  191.1760  177.0100  142.3010 C   0  0  0  0  0  1  0  0  0  0  0  0
  190.2780  178.8670  143.6720 N   0  0  2  0  0  0  0  0  0  0  0  0
  190.9070  177.3910  146.0850 C   0  0  1  0  0  3  0  0  0  0  0  0
  191.9950  177.7660  145.0950 C   0  0  0  0  0  2  0  0  0  0  0  0
  186.0690  178.7940  142.3890 C   0  0  0  0  0  0  0  0  0  0  0  0
  188.3770  177.0030  140.9440 C   0  0  1  0  0  3  0  0  0  0  0  0
  189.6200  177.0820  145.3280 C   0  0  2  0  0  3  0  0  0  0  0  0
  188.8300  177.8570  142.1350 C   0  0  2  0  0  0  0  0  0  0  0  0
  191.3190  176.2730  146.8120 O   0  0  0  0  0  1  0  0  0  0  0  0
  186.5920  178.6330  141.1680 C   0  0  0  0  0  3  0  0  0  0  0  0
  191.5750  179.0220  144.3430 C   0  0  0  0  0  2  0  0  0  0  0  0
  189.1760  178.2810  144.4760 C   0  0  2  0  0  3  0  0  0  0  0  0
  188.0760  178.5000  140.9590 C   0  0  2  0  0  3  0  0  0  0  0  0
  188.0980  177.8420  143.4840 C   0  0  1  0  0  3  0  0  0  0  0  0
  190.1950  176.6170  139.0210 C   0  0  0  0  0  0  0  0  0  0  0  0
  189.4000  176.7950  139.9110 C   0  0  0  0  0  0  0  0  0  0  0  0
  192.3990  176.5680  138.0050 C   0  0  0  0  0  3  0  0  0  0  0  0
  191.0750  176.3760  137.8900 C   0  0  0  0  0  0  0  0  0  0  0  0
  188.6720  177.8860  135.9280 C   0  0  0  0  0  2  0  0  0  0  0  0
  189.0800  175.3370  136.7830 C   0  0  1  0  0  0  0  0  0  0  0  0
  190.4420  175.8650  136.6110 C   0  0  2  0  0  0  0  0  0  0  0  0
  186.8690  176.7720  134.7330 C   0  0  0  0  0  2  0  0  0  0  0  0
  187.1960  177.7700  135.8420 C   0  0  0  0  0  2  0  0  0  0  0  0
  190.2380  174.4370  136.7390 N   0  0  0  0  0  2  0  0  0  0  0  0
  189.2790  176.7710  136.2850 C   0  0  2  0  0  3  0  0  0  0  0  0
  188.1080  174.6930  135.7800 C   0  0  0  0  0  0  0  0  0  0  0  0
  187.1720  175.3140  135.0080 C   0  0  0  0  0  3  0  0  0  0  0  0
  188.0810  173.2900  135.7920 O   0  0  0  0  0  0  0  0  0  0  0  0
  187.2650  172.5280  136.6790 C   0  0  0  0  0  2  0  0  0  0  0  0
  186.1170  171.8840  135.9180 C   0  0  0  0  0  2  0  0  0  0  0  0
  184.4740  172.4050  137.5920 O   0  0  0  0  0  0  0  0  0  0  0  0
  184.7860  172.5570  136.2300 C   0  0  2  0  0  3  0  0  0  0  0  0
  183.8060  171.5520  136.6970 C   0  0  0  0  0  2  0  0  0  0  0  0
  193.0270  177.0720  139.2030 C   0  0  0  0  0  0  0  0  0  0  0  0
  193.5560  177.4640  140.1550 N   0  0  0  0  0  0  0  0  0  0  0  0
  184.5950  178.7590  142.6120 C   0  0  0  0  0  2  0  0  0  0  0  0
  183.9100  177.8800  141.5800 C   0  0  0  0  0  2  0  0  0  0  0  0
  182.5320  176.4900  139.4740 C   0  0  0  0  0  2  0  0  0  0  0  0
  182.7880  178.6740  140.8970 C   0  0  2  0  0  3  0  0  0  0  0  0
  181.9510  177.8440  139.9080 C   0  0  1  0  0  3  0  0  0  0  0  0
  184.0640  178.1660  138.6450 C   0  0  0  0  0  2  0  0  0  0  0  0
  182.9430  178.8620  139.3920 C   0  0  2  0  0  0  0  0  0  0  0  0
  183.5480  176.7680  138.3850 C   0  0  0  0  0  2  0  0  0  0  0  0
  180.8360  179.5590  137.8800 C   0  0  0  0  0  1  0  0  0  0  0  0
  182.2170  180.3980  138.7180 S   0  0  0  0  0  0  0  0  0  0  0  0
  3  4  1  1  0  0  0
  3  5  1  0  0  0  0
  5 14  1  1  0  0  0
  5 15  1  0  0  0  0
  6 12  1  6  0  0  0
  7  6  1  0  0  0  0
  8 39  1  0  0  0  0
  8  1  1  0  0  0  0
  9 19  1  6  0  0  0
  9 16  1  0  0  0  0
  9 11  1  0  0  0  0
 10  6  1  0  0  0  0
 10  2  1  1  0  0  0
 11  3  1  0  0  0  0
 11 17  1  0  0  0  0
 13  8  2  0  0  0  0
 14  7  1  0  0  0  0
 15 10  1  0  0  0  0
 16 13  1  0  0  0  0
 16 11  1  0  0  0  0
 17  1  1  0  0  0  0
 17 15  1  0  0  0  0
 18 19  3  0  0  0  0
 20 37  1  0  0  0  0
 21 20  2  0  0  0  0
 21 18  1  0  0  0  0
 22 28  1  0  0  0  0
 24 27  1  0  0  0  0
 24 23  1  0  0  0  0
 24 21  1  0  0  0  0
 25 30  1  0  0  0  0
 25 26  1  0  0  0  0
 26 22  1  0  0  0  0
 27 23  1  0  0  0  0
 28 24  1  0  0  0  0
 28 23  1  0  0  0  0
 29 31  1  0  0  0  0
 29 23  1  0  0  0  0
 30 29  2  0  0  0  0
 31 32  1  0  0  0  0
 33 35  1  0  0  0  0
 33 32  1  0  0  0  0
 35 36  1  0  0  0  0
 35 34  1  0  0  0  0
 36 34  1  0  0  0  0
 37 38  3  0  0  0  0
 40 39  1  0  0  0  0
 41 43  1  0  0  0  0
 42 40  1  0  0  0  0
 43 42  1  0  0  0  0
 44 45  1  0  0  0  0
 45 43  1  0  0  0  0
 45 42  1  0  0  0  0
 46 44  1  0  0  0  0
 46 41  1  0  0  0  0
 47 48  1  0  0  0  0
 48 45  1  0  0  0  0
M  END
>  <MODEL>
8

>  <REMARK>
 VINA RESULT:      -6.8      3.992      9.842
  Name = 
  12 active torsions:
  status: ('A' for Active; 'I' for Inactive)
    1  A    between atoms: C_3  and  C_44
    2  A    between atoms: C_4  and  C_5
    3  A    between atoms: C_10  and  C_18
    4  A    between atoms: C_10  and  C_25
    5  A    between atoms: C_15  and  C_20
    6  A    between atoms: C_19  and  C_44
    7  A    between atoms: C_22  and  C_33
    8  A    between atoms: C_25  and  C_30
    9  A    between atoms: C_31  and  C_33
   10  A    between atoms: C_31  and  O_41
   11  A    between atoms: C_40  and  O_41
   12  A    between atoms: S_43  and  C_46
                            x       y       z     vdW  Elec       q    Type
                         _______ _______ _______ _____ _____    ______ ____

>  <TORSDO>
F 12

$$$$
=
 OpenBabel11062412033D

 48 57  0  0  1  0  0  0  0  0999 V2000
  191.3640  175.9170  135.5350 C   0  0  0  0  0  2  0  0  0  0  0  0
  188.0860  174.1370  134.7620 C   0  0  0  0  0  1  0  0  0  0  0  0
  189.0110  177.6510  137.5970 C   0  0  2  0  0  3  0  0  0  0  0  0
  187.8520  177.1950  138.4850 C   0  0  0  0  0  1  0  0  0  0  0  0
  188.6400  177.6500  136.1810 N   0  0  2  0  0  0  0  0  0  0  0  0
  186.4920  176.0170  135.1240 C   0  0  1  0  0  3  0  0  0  0  0  0
  186.1950  177.2390  135.9740 C   0  0  0  0  0  2  0  0  0  0  0  0
  192.6130  175.7660  136.3490 C   0  0  0  0  0  0  0  0  0  0  0  0
  190.7390  176.1500  138.9880 C   0  0  1  0  0  3  0  0  0  0  0  0
  187.7680  175.3490  135.6260 C   0  0  2  0  0  3  0  0  0  0  0  0
  190.1440  176.6320  137.6580 C   0  0  2  0  0  0  0  0  0  0  0  0
  185.4170  175.1300  135.2110 O   0  0  0  0  0  1  0  0  0  0  0  0
  192.6840  176.3530  137.5490 C   0  0  0  0  0  3  0  0  0  0  0  0
  187.3390  178.2350  135.8330 C   0  0  0  0  0  2  0  0  0  0  0  0
  188.9540  176.3240  135.5920 C   0  0  2  0  0  3  0  0  0  0  0  0
  191.5260  177.1270  138.1160 C   0  0  2  0  0  3  0  0  0  0  0  0
  190.1190  175.7520  136.4010 C   0  0  1  0  0  3  0  0  0  0  0  0
  189.9370  177.4740  141.1690 C   0  0  0  0  0  0  0  0  0  0  0  0
  190.3010  176.9070  140.1680 C   0  0  0  0  0  0  0  0  0  0  0  0
  188.2310  178.5510  142.5180 C   0  0  0  0  0  3  0  0  0  0  0  0
  189.4790  178.0670  142.4140 C   0  0  0  0  0  0  0  0  0  0  0  0
  191.7230  175.6220  143.3580 C   0  0  0  0  0  2  0  0  0  0  0  0
  190.0230  177.2490  144.7200 C   0  0  1  0  0  0  0  0  0  0  0  0
  190.4480  178.0730  143.5800 C   0  0  2  0  0  0  0  0  0  0  0  0
  192.3310  175.0170  145.6340 C   0  0  0  0  0  2  0  0  0  0  0  0
  191.6820  174.5170  144.3460 C   0  0  0  0  0  2  0  0  0  0  0  0
  189.7990  178.6990  144.7120 N   0  0  0  0  0  2  0  0  0  0  0  0
  191.0180  176.6810  143.7060 C   0  0  2  0  0  3  0  0  0  0  0  0
  190.6680  177.0100  146.0960 C   0  0  0  0  0  0  0  0  0  0  0  0
  191.5620  176.0410  146.4420 C   0  0  0  0  0  3  0  0  0  0  0  0
  190.1460  177.7840  147.1430 O   0  0  0  0  0  0  0  0  0  0  0  0
  189.0670  177.3570  147.9720 C   0  0  0  0  0  2  0  0  0  0  0  0
  187.8610  178.2600  147.7770 C   0  0  0  0  0  2  0  0  0  0  0  0
  186.6740  178.5240  145.7050 O   0  0  0  0  0  0  0  0  0  0  0  0
  186.8590  177.6600  146.7980 C   0  0  2  0  0  3  0  0  0  0  0  0
  185.6700  178.5330  146.6890 C   0  0  0  0  0  2  0  0  0  0  0  0
  187.2950  178.5760  141.4210 C   0  0  0  0  0  0  0  0  0  0  0  0
  186.5400  178.6250  140.5440 N   0  0  0  0  0  0  0  0  0  0  0  0
  193.6950  174.8630  135.8620 C   0  0  0  0  0  2  0  0  0  0  0  0
  193.6770  173.5410  136.6090 C   0  0  0  0  0  2  0  0  0  0  0  0
  195.4400  172.7130  138.7240 C   0  0  0  0  0  2  0  0  0  0  0  0
  194.8740  172.6880  136.1670 C   0  0  2  0  0  3  0  0  0  0  0  0
  195.6900  172.1070  137.3350 C   0  0  1  0  0  3  0  0  0  0  0  0
  196.3640  174.4960  137.3780 C   0  0  0  0  0  2  0  0  0  0  0  0
  196.2460  173.2520  136.5190 C   0  0  2  0  0  0  0  0  0  0  0  0
  196.2390  173.9980  138.8020 C   0  0  0  0  0  2  0  0  0  0  0  0
  196.8860  171.1990  134.9120 C   0  0  0  0  0  1  0  0  0  0  0  0
  197.5910  172.8160  135.3620 S   0  0  0  0  0  0  0  0  0  0  0  0
  1  8  1  0  0  0  0
  1 17  1  0  0  0  0
  3 11  1  0  0  0  0
  3  4  1  1  0  0  0
  5 14  1  1  0  0  0
  5  3  1  0  0  0  0
  6 12  1  1  0  0  0
  6 10  1  0  0  0  0
  6  7  1  0  0  0  0
  8 13  2  0  0  0  0
  9 19  1  1  0  0  0
 10  2  1  6  0  0  0
 11 16  1  0  0  0  0
 11  9  1  0  0  0  0
 13 16  1  0  0  0  0
 14  7  1  0  0  0  0
 15 10  1  0  0  0  0
 15  5  1  0  0  0  0
 15 17  1  0  0  0  0
 16  9  1  0  0  0  0
 17 11  1  0  0  0  0
 18 21  1  0  0  0  0
 19 18  3  0  0  0  0
 21 20  2  0  0  0  0
 21 24  1  0  0  0  0
 22 28  1  0  0  0  0
 22 26  1  0  0  0  0
 23 29  1  0  0  0  0
 24 28  1  0  0  0  0
 24 27  1  0  0  0  0
 24 23  1  0  0  0  0
 25 30  1  0  0  0  0
 26 25  1  0  0  0  0
 27 23  1  0  0  0  0
 28 23  1  0  0  0  0
 29 30  2  0  0  0  0
 29 31  1  0  0  0  0
 31 32  1  0  0  0  0
 33 32  1  0  0  0  0
 34 36  1  0  0  0  0
 34 35  1  0  0  0  0
 35 33  1  0  0  0  0
 36 35  1  0  0  0  0
 37 20  1  0  0  0  0
 38 37  3  0  0  0  0
 39  8  1  0  0  0  0
 39 40  1  0  0  0  0
 41 46  1  0  0  0  0
 42 45  1  0  0  0  0
 42 40  1  0  0  0  0
 42 43  1  0  0  0  0
 43 41  1  0  0  0  0
 44 46  1  0  0  0  0
 45 43  1  0  0  0  0
 45 44  1  0  0  0  0
 47 48  1  0  0  0  0
 48 45  1  0  0  0  0
M  END
>  <MODEL>
9

>  <REMARK>
 VINA RESULT:      -6.5      2.068      3.945
  Name = 
  12 active torsions:
  status: ('A' for Active; 'I' for Inactive)
    1  A    between atoms: C_3  and  C_44
    2  A    between atoms: C_4  and  C_5
    3  A    between atoms: C_10  and  C_18
    4  A    between atoms: C_10  and  C_25
    5  A    between atoms: C_15  and  C_20
    6  A    between atoms: C_19  and  C_44
    7  A    between atoms: C_22  and  C_33
    8  A    between atoms: C_25  and  C_30
    9  A    between atoms: C_31  and  C_33
   10  A    between atoms: C_31  and  O_41
   11  A    between atoms: C_40  and  O_41
   12  A    between atoms: S_43  and  C_46
                            x       y       z     vdW  Elec       q    Type
                         _______ _______ _______ _____ _____    ______ ____

>  <TORSDO>
F 12

$$$$
