=
 OpenBabel11062415513D

 44 49  0  0  1  0  0  0  0  0999 V2000
  182.1120  175.5230  135.6840 C   0  0  0  0  0  2  0  0  0  0  0  0
  182.0760  179.1730  138.4450 C   0  0  2  0  0  3  0  0  0  0  0  0
  184.4250  179.7970  139.3480 N   0  0  0  0  0  2  0  0  0  0  0  0
  179.8170  175.7920  136.2540 O   0  0  0  0  0  1  0  0  0  0  0  0
  180.7140  179.7630  138.1010 C   0  0  0  0  0  2  0  0  0  0  0  0
  184.2820  176.8360  136.3890 C   0  0  0  0  0  2  0  0  0  0  0  0
  184.9570  178.4630  139.6260 C   0  0  2  0  0  3  0  0  0  0  0  0
  182.8280  176.4530  136.5950 C   0  0  2  0  0  3  0  0  0  0  0  0
  182.0050  177.8950  139.2340 C   0  0  0  0  0  0  0  0  0  0  0  0
  184.5840  177.8770  137.2990 O   0  0  0  0  0  0  0  0  0  0  0  0
  180.9630  175.0770  136.6110 C   0  0  2  0  0  0  0  0  0  0  0  0
  178.9320  177.5020  141.3900 N   0  0  0  0  0  1  0  0  0  0  0  0
  182.8180  181.4050  138.9410 O   0  0  0  0  0  0  0  0  0  0  0  0
  183.0510  176.8400  138.9870 C   0  0  1  0  0  3  0  0  0  0  0  0
  181.0440  177.5650  140.1110 C   0  0  0  0  0  3  0  0  0  0  0  0
  183.0950  180.1740  138.9610 C   0  0  0  0  0  0  0  0  0  0  0  0
  182.6510  175.8040  137.9280 C   0  0  1  0  0  0  0  0  0  0  0  0
  184.4690  177.4010  138.6370 C   0  0  2  0  0  3  0  0  0  0  0  0
  179.4040  179.4220  140.1530 N   0  0  0  0  0  0  0  0  0  0  0  0
  181.3050  175.4010  137.9590 O   0  0  0  0  0  0  0  0  0  0  0  0
  183.5360  174.5610  138.1160 C   0  0  0  0  0  1  0  0  0  0  0  0
  180.1180  180.3940  139.3420 C   0  0  0  0  0  2  0  0  0  0  0  0
  179.7980  178.2440  140.5390 C   0  0  0  0  0  0  0  0  0  0  0  0
  180.6680  173.5910  136.5050 C   0  0  0  0  0  0  0  0  0  0  0  0
  179.6920  172.9840  137.3260 C   0  0  0  0  0  0  0  0  0  0  0  0
  181.0810  171.4180  135.4970 C   0  0  0  0  0  3  0  0  0  0  0  0
  180.1090  170.8640  136.3260 C   0  0  0  0  0  3  0  0  0  0  0  0
  181.3570  172.7810  135.5890 C   0  0  0  0  0  3  0  0  0  0  0  0
  179.4430  171.6500  137.2120 N   0  0  0  0  0  0  0  0  0  0  0  0
  178.9640  173.7620  138.2810 N   0  0  0  0  0  2  0  0  0  0  0  0
  179.3500  173.7480  140.0030 S   0  0  0  0  0  1  0  0  0  0  0  0
  184.7250  178.0730  141.0810 C   0  0  0  0  0  2  0  0  0  0  0  0
  185.9660  178.8280  142.1750 P   0  0  2  0  0  0  0  0  0  0  0  0
  185.2090  179.9000  143.2420 O   0  0  0  0  0  1  0  0  0  0  0  0
  186.9460  179.5990  141.3210 O   0  0  0  0  0  0  0  0  0  0  0  0
  187.0340  177.3560  143.2610 S   0  0  0  0  0  0  0  0  0  0  0  0
  186.4500  177.9730  144.8700 C   0  0  0  0  0  2  0  0  0  0  0  0
  188.2260  178.0020  148.1850 C   0  0  0  0  0  3  0  0  0  0  0  0
  191.1810  176.8260  146.3030 C   0  0  0  0  0  1  0  0  0  0  0  0
  187.5190  177.8340  145.8960 C   0  0  0  0  0  0  0  0  0  0  0  0
  187.2520  178.1030  147.1410 N   0  0  0  0  0  0  0  0  0  0  0  0
  189.8270  177.2690  146.5730 N   0  0  0  0  0  0  0  0  0  0  0  0
  188.9020  177.4360  145.4500 C   0  0  0  0  0  2  0  0  0  0  0  0
  189.4620  177.6010  147.9150 C   0  0  0  0  0  3  0  0  0  0  0  0
  1 11  1  0  0  0  0
  2  5  1  1  0  0  0
  2 16  1  0  0  0  0
  2  9  1  0  0  0  0
  3  7  1  0  0  0  0
  5 22  1  0  0  0  0
  6  8  1  0  0  0  0
  6 10  1  0  0  0  0
  7 32  1  1  0  0  0
  8  1  1  6  0  0  0
  8 17  1  0  0  0  0
  9 15  2  0  0  0  0
 11  4  1  6  0  0  0
 11 20  1  0  0  0  0
 13 16  2  0  0  0  0
 14  9  1  6  0  0  0
 15 23  1  0  0  0  0
 16  3  1  0  0  0  0
 17 20  1  0  0  0  0
 17 21  1  1  0  0  0
 17 14  1  0  0  0  0
 18 10  1  6  0  0  0
 18 14  1  0  0  0  0
 18  7  1  0  0  0  0
 19 23  2  0  0  0  0
 22 19  1  0  0  0  0
 23 12  1  0  0  0  0
 24 11  1  0  0  0  0
 24 25  1  0  0  0  0
 25 30  1  0  0  0  0
 26 28  1  0  0  0  0
 26 27  2  0  0  0  0
 27 29  1  0  0  0  0
 28 24  2  0  0  0  0
 29 25  2  0  0  0  0
 30 31  1  0  0  0  0
 32 33  1  0  0  0  0
 33 35  2  6  0  0  0
 33 34  1  0  0  0  0
 33 36  1  0  0  0  0
 36 37  1  0  0  0  0
 37 40  1  0  0  0  0
 39 42  1  0  0  0  0
 40 41  2  0  0  0  0
 41 38  1  0  0  0  0
 42 44  1  0  0  0  0
 43 40  1  0  0  0  0
 43 42  1  0  0  0  0
 44 38  2  0  0  0  0
M  END
>  <MODEL>
1

>  <REMARK>
 VINA RESULT:      -7.3      0.000      0.000
  Name = 
  7 active torsions:
  status: ('A' for Active; 'I' for Inactive)
    1  A    between atoms: C_1  and  S_9
    2  A    between atoms: C_1  and  C_11
    3  A    between atoms: P_6  and  S_9
    4  A    between atoms: P_6  and  C_41
    5  A    between atoms: C_8  and  C_23
    6  A    between atoms: N_10  and  C_16
    7  A    between atoms: C_18  and  C_41
                            x       y       z     vdW  Elec       q    Type
                         _______ _______ _______ _____ _____    ______ ____

>  <TORSDO>
F 7

$$$$
=
 OpenBabel11062415513D

 44 49  0  0  1  0  0  0  0  0999 V2000
  183.2360  175.5700  135.1560 C   0  0  0  0  0  2  0  0  0  0  0  0
  182.1640  178.9700  138.0250 C   0  0  2  0  0  3  0  0  0  0  0  0
  184.2080  179.8970  139.3230 N   0  0  0  0  0  2  0  0  0  0  0  0
  180.8680  175.4300  135.3550 O   0  0  0  0  0  1  0  0  0  0  0  0
  180.7920  179.3580  137.4880 C   0  0  0  0  0  2  0  0  0  0  0  0
  185.0210  177.1590  136.2590 C   0  0  0  0  0  2  0  0  0  0  0  0
  184.9070  178.6480  139.6280 C   0  0  2  0  0  3  0  0  0  0  0  0
  183.6380  176.5370  136.2100 C   0  0  2  0  0  3  0  0  0  0  0  0
  182.1880  177.6460  138.7370 C   0  0  0  0  0  0  0  0  0  0  0  0
  185.0000  178.1710  137.2490 O   0  0  0  0  0  0  0  0  0  0  0  0
  182.0500  174.8850  135.8630 C   0  0  2  0  0  0  0  0  0  0  0  0
  178.9310  176.6240  140.3450 N   0  0  0  0  0  1  0  0  0  0  0  0
  182.4360  181.2530  138.7280 O   0  0  0  0  0  0  0  0  0  0  0  0
  183.4210  176.7900  138.6200 C   0  0  1  0  0  3  0  0  0  0  0  0
  181.1730  177.1080  139.4320 C   0  0  0  0  0  3  0  0  0  0  0  0
  182.9090  180.0830  138.7410 C   0  0  0  0  0  0  0  0  0  0  0  0
  183.3690  175.7780  137.4670 C   0  0  1  0  0  0  0  0  0  0  0  0
  184.7620  177.5920  138.5290 C   0  0  2  0  0  3  0  0  0  0  0  0
  179.2580  178.6750  139.2830 N   0  0  0  0  0  0  0  0  0  0  0  0
  182.1200  175.1660  137.2620 O   0  0  0  0  0  0  0  0  0  0  0  0
  184.4100  174.6820  137.7450 C   0  0  0  0  0  1  0  0  0  0  0  0
  179.9150  179.8000  138.6400 C   0  0  0  0  0  2  0  0  0  0  0  0
  179.7800  177.5500  139.6790 C   0  0  0  0  0  0  0  0  0  0  0  0
  182.0280  173.3810  135.6490 C   0  0  0  0  0  0  0  0  0  0  0  0
  180.8910  172.6150  135.9900 C   0  0  0  0  0  0  0  0  0  0  0  0
  183.1100  171.3330  134.9110 C   0  0  0  0  0  3  0  0  0  0  0  0
  181.9660  170.6190  135.2610 C   0  0  0  0  0  3  0  0  0  0  0  0
  183.1360  172.7120  135.1050 C   0  0  0  0  0  3  0  0  0  0  0  0
  180.8940  171.2680  135.7860 N   0  0  0  0  0  0  0  0  0  0  0  0
  179.7360  173.2440  136.5520 N   0  0  0  0  0  2  0  0  0  0  0  0
  179.4800  173.3660  138.2930 S   0  0  0  0  0  1  0  0  0  0  0  0
  184.5220  178.1280  141.0080 C   0  0  0  0  0  2  0  0  0  0  0  0
  185.7150  178.6640  142.2730 P   0  0  2  0  0  0  0  0  0  0  0  0
  185.3930  177.8700  143.7320 O   0  0  0  0  0  1  0  0  0  0  0  0
  185.5530  180.1510  142.4800 O   0  0  0  0  0  0  0  0  0  0  0  0
  187.7070  178.2820  141.6650 S   0  0  0  0  0  0  0  0  0  0  0  0
  187.8650  176.8230  142.7390 C   0  0  0  0  0  2  0  0  0  0  0  0
  191.3710  177.1890  144.0500 C   0  0  0  0  0  3  0  0  0  0  0  0
  189.8030  177.4380  147.3890 C   0  0  0  0  0  1  0  0  0  0  0  0
  189.0060  176.9930  143.6790 C   0  0  0  0  0  0  0  0  0  0  0  0
  190.2200  177.0370  143.2120 N   0  0  0  0  0  0  0  0  0  0  0  0
  189.9290  177.2920  145.9510 N   0  0  0  0  0  0  0  0  0  0  0  0
  188.7220  177.0520  145.1570 C   0  0  0  0  0  2  0  0  0  0  0  0
  191.2340  177.3140  145.3650 C   0  0  0  0  0  3  0  0  0  0  0  0
  1 11  1  0  0  0  0
  2  5  1  1  0  0  0
  2  9  1  0  0  0  0
  2 16  1  0  0  0  0
  3  7  1  0  0  0  0
  5 22  1  0  0  0  0
  6 10  1  0  0  0  0
  7 32  1  1  0  0  0
  8  1  1  6  0  0  0
  8  6  1  0  0  0  0
  8 17  1  0  0  0  0
  9 15  2  0  0  0  0
 11  4  1  6  0  0  0
 11 20  1  0  0  0  0
 13 16  2  0  0  0  0
 14  9  1  6  0  0  0
 15 23  1  0  0  0  0
 16  3  1  0  0  0  0
 17 21  1  1  0  0  0
 17 14  1  0  0  0  0
 18 10  1  6  0  0  0
 18 14  1  0  0  0  0
 18  7  1  0  0  0  0
 19 23  2  0  0  0  0
 20 17  1  0  0  0  0
 22 19  1  0  0  0  0
 23 12  1  0  0  0  0
 24 11  1  0  0  0  0
 24 25  1  0  0  0  0
 25 30  1  0  0  0  0
 26 28  1  0  0  0  0
 26 27  2  0  0  0  0
 27 29  1  0  0  0  0
 28 24  2  0  0  0  0
 29 25  2  0  0  0  0
 30 31  1  0  0  0  0
 32 33  1  0  0  0  0
 33 35  2  1  0  0  0
 33 34  1  0  0  0  0
 36 33  1  0  0  0  0
 36 37  1  0  0  0  0
 37 40  1  0  0  0  0
 38 44  2  0  0  0  0
 40 43  1  0  0  0  0
 41 40  2  0  0  0  0
 41 38  1  0  0  0  0
 42 39  1  0  0  0  0
 43 42  1  0  0  0  0
 44 42  1  0  0  0  0
M  END
>  <MODEL>
2

>  <REMARK>
 VINA RESULT:      -6.9      1.319      1.797
  Name = 
  7 active torsions:
  status: ('A' for Active; 'I' for Inactive)
    1  A    between atoms: C_1  and  S_9
    2  A    between atoms: C_1  and  C_11
    3  A    between atoms: P_6  and  S_9
    4  A    between atoms: P_6  and  C_41
    5  A    between atoms: C_8  and  C_23
    6  A    between atoms: N_10  and  C_16
    7  A    between atoms: C_18  and  C_41
                            x       y       z     vdW  Elec       q    Type
                         _______ _______ _______ _____ _____    ______ ____

>  <TORSDO>
F 7

$$$$
=
 OpenBabel11062415513D

 44 49  0  0  1  0  0  0  0  0999 V2000
  182.6800  178.7660  137.5830 C   0  0  0  0  0  2  0  0  0  0  0  0
  187.0320  178.1040  136.3310 C   0  0  2  0  0  3  0  0  0  0  0  0
  187.3600  176.0150  134.8300 N   0  0  0  0  0  2  0  0  0  0  0  0
  183.9240  180.1470  139.0700 O   0  0  0  0  0  1  0  0  0  0  0  0
  187.6190  179.4750  136.6440 C   0  0  0  0  0  2  0  0  0  0  0  0
  183.4060  177.1280  135.6540 C   0  0  0  0  0  2  0  0  0  0  0  0
  186.4630  175.0740  135.5000 C   0  0  2  0  0  3  0  0  0  0  0  0
  183.7100  177.9410  136.8990 C   0  0  2  0  0  3  0  0  0  0  0  0
  186.6900  177.2940  137.5510 C   0  0  0  0  0  0  0  0  0  0  0  0
  184.6360  176.6350  135.1540 O   0  0  0  0  0  0  0  0  0  0  0  0
  183.3240  178.8880  138.9790 C   0  0  2  0  0  0  0  0  0  0  0  0
  188.7510  178.0540  140.6190 N   0  0  0  0  0  1  0  0  0  0  0  0
  188.6810  177.8940  134.5940 O   0  0  0  0  0  0  0  0  0  0  0  0
  185.4870  176.3900  137.4980 C   0  0  1  0  0  3  0  0  0  0  0  0
  187.3240  177.3450  138.7330 C   0  0  0  0  0  3  0  0  0  0  0  0
  187.7610  177.3290  135.2470 C   0  0  0  0  0  0  0  0  0  0  0  0
  184.1920  177.0470  137.9940 C   0  0  1  0  0  0  0  0  0  0  0  0
  185.2220  175.7430  136.0980 C   0  0  2  0  0  3  0  0  0  0  0  0
  189.1230  179.0390  138.5380 N   0  0  0  0  0  0  0  0  0  0  0  0
  184.3340  177.8880  139.1120 O   0  0  0  0  0  0  0  0  0  0  0  0
  183.1930  175.9330  138.3460 C   0  0  0  0  0  1  0  0  0  0  0  0
  189.0490  179.3090  137.1120 C   0  0  0  0  0  2  0  0  0  0  0  0
  188.4460  178.1740  139.2350 C   0  0  0  0  0  0  0  0  0  0  0  0
  182.3140  178.7430  140.1040 C   0  0  0  0  0  0  0  0  0  0  0  0
  182.7350  178.6640  141.4510 C   0  0  0  0  0  0  0  0  0  0  0  0
  180.0170  178.5500  140.8750 C   0  0  0  0  0  3  0  0  0  0  0  0
  180.4780  178.4770  142.1870 C   0  0  0  0  0  3  0  0  0  0  0  0
  180.9380  178.6830  139.8380 C   0  0  0  0  0  3  0  0  0  0  0  0
  181.8110  178.5370  142.4440 N   0  0  0  0  0  0  0  0  0  0  0  0
  184.1260  178.7150  141.7790 N   0  0  0  0  0  2  0  0  0  0  0  0
  184.6990  179.0500  143.4140 S   0  0  0  0  0  1  0  0  0  0  0  0
  187.2200  174.2170  136.5080 C   0  0  0  0  0  2  0  0  0  0  0  0
  186.4030  172.6120  136.7580 P   0  0  2  0  0  0  0  0  0  0  0  0
  185.4450  172.6710  138.1510 O   0  0  0  0  0  1  0  0  0  0  0  0
  187.4710  171.5590  136.9440 O   0  0  0  0  0  0  0  0  0  0  0  0
  185.2180  172.0800  135.0850 S   0  0  0  0  0  0  0  0  0  0  0  0
  183.9820  171.2190  136.1050 C   0  0  0  0  0  2  0  0  0  0  0  0
  181.4700  173.9790  135.6410 C   0  0  0  0  0  3  0  0  0  0  0  0
  178.9810  171.5520  136.8980 C   0  0  0  0  0  1  0  0  0  0  0  0
  182.6930  171.9620  136.0940 C   0  0  0  0  0  0  0  0  0  0  0  0
  182.6670  173.1940  135.6740 N   0  0  0  0  0  0  0  0  0  0  0  0
  180.2580  172.1030  136.4870 N   0  0  0  0  0  0  0  0  0  0  0  0
  181.4600  171.2790  136.6260 C   0  0  0  0  0  2  0  0  0  0  0  0
  180.3120  173.4570  136.0290 C   0  0  0  0  0  3  0  0  0  0  0  0
  1 11  1  0  0  0  0
  2  5  1  1  0  0  0
  2  9  1  0  0  0  0
  3 16  1  0  0  0  0
  3  7  1  0  0  0  0
  5 22  1  0  0  0  0
  7 18  1  0  0  0  0
  7 32  1  1  0  0  0
  8  6  1  6  0  0  0
  8  1  1  0  0  0  0
  8 17  1  0  0  0  0
  9 15  2  0  0  0  0
 10  6  1  0  0  0  0
 11  4  1  1  0  0  0
 11 20  1  0  0  0  0
 11 24  1  0  0  0  0
 13 16  2  0  0  0  0
 14  9  1  6  0  0  0
 14 17  1  0  0  0  0
 15 23  1  0  0  0  0
 16  2  1  0  0  0  0
 17 21  1  1  0  0  0
 17 20  1  0  0  0  0
 18 10  1  6  0  0  0
 18 14  1  0  0  0  0
 19 23  2  0  0  0  0
 22 19  1  0  0  0  0
 23 12  1  0  0  0  0
 24 25  1  0  0  0  0
 25 30  1  0  0  0  0
 25 29  2  0  0  0  0
 26 27  2  0  0  0  0
 27 29  1  0  0  0  0
 28 24  2  0  0  0  0
 28 26  1  0  0  0  0
 30 31  1  0  0  0  0
 32 33  1  0  0  0  0
 33 35  2  1  0  0  0
 33 34  1  0  0  0  0
 36 37  1  0  0  0  0
 36 33  1  0  0  0  0
 38 41  1  0  0  0  0
 38 44  2  0  0  0  0
 40 37  1  0  0  0  0
 40 43  1  0  0  0  0
 41 40  2  0  0  0  0
 42 43  1  0  0  0  0
 42 39  1  0  0  0  0
 44 42  1  0  0  0  0
M  END
>  <MODEL>
3

>  <REMARK>
 VINA RESULT:      -6.5      3.980      8.672
  Name = 
  7 active torsions:
  status: ('A' for Active; 'I' for Inactive)
    1  A    between atoms: C_1  and  S_9
    2  A    between atoms: C_1  and  C_11
    3  A    between atoms: P_6  and  S_9
    4  A    between atoms: P_6  and  C_41
    5  A    between atoms: C_8  and  C_23
    6  A    between atoms: N_10  and  C_16
    7  A    between atoms: C_18  and  C_41
                            x       y       z     vdW  Elec       q    Type
                         _______ _______ _______ _____ _____    ______ ____

>  <TORSDO>
F 7

$$$$
=
 OpenBabel11062415513D

 44 49  0  0  1  0  0  0  0  0999 V2000
  182.5330  178.9230  137.8530 C   0  0  0  0  0  2  0  0  0  0  0  0
  186.7490  177.8910  136.4030 C   0  0  2  0  0  3  0  0  0  0  0  0
  186.8510  175.6920  135.0340 N   0  0  0  0  0  2  0  0  0  0  0  0
  183.9500  180.3120  139.1680 O   0  0  0  0  0  1  0  0  0  0  0  0
  187.4390  179.2370  136.5870 C   0  0  0  0  0  2  0  0  0  0  0  0
  183.0340  177.1180  136.0040 C   0  0  0  0  0  2  0  0  0  0  0  0
  185.9390  174.8580  135.8170 C   0  0  2  0  0  3  0  0  0  0  0  0
  183.4640  177.9890  137.1700 C   0  0  2  0  0  3  0  0  0  0  0  0
  186.4320  177.1880  137.6940 C   0  0  0  0  0  0  0  0  0  0  0  0
  184.1970  176.5130  135.4690 O   0  0  0  0  0  0  0  0  0  0  0  0
  183.2670  179.0930  139.1980 C   0  0  2  0  0  0  0  0  0  0  0  0
  188.7220  178.0050  140.5800 N   0  0  0  0  0  1  0  0  0  0  0  0
  188.2710  177.4590  134.5940 O   0  0  0  0  0  0  0  0  0  0  0  0
  185.1730  176.3640  137.7720 C   0  0  1  0  0  3  0  0  0  0  0  0
  187.1400  177.2720  138.8310 C   0  0  0  0  0  3  0  0  0  0  0  0
  187.3590  177.0000  135.3350 C   0  0  0  0  0  0  0  0  0  0  0  0
  183.9550  177.1380  138.2940 C   0  0  1  0  0  0  0  0  0  0  0  0
  184.7820  175.6470  136.4370 C   0  0  2  0  0  3  0  0  0  0  0  0
  189.0270  178.8250  138.4170 N   0  0  0  0  0  0  0  0  0  0  0  0
  184.2190  178.0380  139.3420 O   0  0  0  0  0  0  0  0  0  0  0  0
  182.9120  176.1180  138.7790 C   0  0  0  0  0  1  0  0  0  0  0  0
  188.8820  179.0060  136.9830 C   0  0  0  0  0  2  0  0  0  0  0  0
  188.3410  178.0550  139.2100 C   0  0  0  0  0  0  0  0  0  0  0  0
  182.3220  179.0890  140.3870 C   0  0  0  0  0  0  0  0  0  0  0  0
  182.8080  178.9020  141.7000 C   0  0  0  0  0  0  0  0  0  0  0  0
  180.0790  179.2680  141.3080 C   0  0  0  0  0  3  0  0  0  0  0  0
  180.6040  179.0800  142.5850 C   0  0  0  0  0  3  0  0  0  0  0  0
  180.9410  179.2720  140.2140 C   0  0  0  0  0  3  0  0  0  0  0  0
  181.9410  178.9050  142.7510 N   0  0  0  0  0  0  0  0  0  0  0  0
  184.2050  178.7060  141.9350 N   0  0  0  0  0  2  0  0  0  0  0  0
  184.8580  178.3840  143.5420 S   0  0  0  0  0  1  0  0  0  0  0  0
  186.7020  174.0200  136.8370 C   0  0  0  0  0  2  0  0  0  0  0  0
  187.9240  172.9440  136.0270 P   0  0  2  0  0  0  0  0  0  0  0  0
  187.2240  172.1990  134.6790 O   0  0  0  0  0  0  0  0  0  0  0  0
  188.3450  171.8780  137.0110 O   0  0  0  0  0  1  0  0  0  0  0  0
  189.6430  174.0350  135.4410 S   0  0  0  0  0  0  0  0  0  0  0  0
  189.9880  174.5990  137.1360 C   0  0  0  0  0  2  0  0  0  0  0  0
  193.3210  176.2390  137.7290 C   0  0  0  0  0  3  0  0  0  0  0  0
  194.7290  172.8280  137.5100 C   0  0  0  0  0  1  0  0  0  0  0  0
  191.4520  174.7830  137.3320 C   0  0  0  0  0  0  0  0  0  0  0  0
  191.9260  175.9770  137.5400 N   0  0  0  0  0  0  0  0  0  0  0  0
  193.7530  173.9000  137.5110 N   0  0  0  0  0  0  0  0  0  0  0  0
  192.3520  173.5800  137.2260 C   0  0  0  0  0  2  0  0  0  0  0  0
  194.2000  175.2430  137.7170 C   0  0  0  0  0  3  0  0  0  0  0  0
  1 11  1  0  0  0  0
  2  5  1  1  0  0  0
  2  9  1  0  0  0  0
  3 16  1  0  0  0  0
  3  7  1  0  0  0  0
  5 22  1  0  0  0  0
  7 18  1  0  0  0  0
  7 32  1  1  0  0  0
  8  6  1  6  0  0  0
  8  1  1  0  0  0  0
  8 17  1  0  0  0  0
  9 15  2  0  0  0  0
 10  6  1  0  0  0  0
 11  4  1  6  0  0  0
 11 20  1  0  0  0  0
 11 24  1  0  0  0  0
 13 16  2  0  0  0  0
 14  9  1  6  0  0  0
 14 17  1  0  0  0  0
 15 23  1  0  0  0  0
 16  2  1  0  0  0  0
 17 21  1  1  0  0  0
 17 20  1  0  0  0  0
 18 10  1  6  0  0  0
 18 14  1  0  0  0  0
 19 23  2  0  0  0  0
 22 19  1  0  0  0  0
 23 12  1  0  0  0  0
 24 25  1  0  0  0  0
 25 30  1  0  0  0  0
 25 29  2  0  0  0  0
 26 27  2  0  0  0  0
 27 29  1  0  0  0  0
 28 24  2  0  0  0  0
 28 26  1  0  0  0  0
 30 31  1  0  0  0  0
 33 34  2  6  0  0  0
 33 32  1  0  0  0  0
 33 35  1  0  0  0  0
 36 33  1  0  0  0  0
 36 37  1  0  0  0  0
 37 40  1  0  0  0  0
 39 42  1  0  0  0  0
 40 41  2  0  0  0  0
 41 38  1  0  0  0  0
 42 44  1  0  0  0  0
 43 40  1  0  0  0  0
 43 42  1  0  0  0  0
 44 38  2  0  0  0  0
M  END
>  <MODEL>
4

>  <REMARK>
 VINA RESULT:      -6.4      5.110      7.821
  Name = 
  7 active torsions:
  status: ('A' for Active; 'I' for Inactive)
    1  A    between atoms: C_1  and  S_9
    2  A    between atoms: C_1  and  C_11
    3  A    between atoms: P_6  and  S_9
    4  A    between atoms: P_6  and  C_41
    5  A    between atoms: C_8  and  C_23
    6  A    between atoms: N_10  and  C_16
    7  A    between atoms: C_18  and  C_41
                            x       y       z     vdW  Elec       q    Type
                         _______ _______ _______ _____ _____    ______ ____

>  <TORSDO>
F 7

$$$$
=
 OpenBabel11062415513D

 44 49  0  0  1  0  0  0  0  0999 V2000
  183.7790  175.5490  135.0140 C   0  0  0  0  0  2  0  0  0  0  0  0
  182.2390  178.7390  137.9110 C   0  0  2  0  0  3  0  0  0  0  0  0
  184.1040  179.7620  139.3930 N   0  0  0  0  0  2  0  0  0  0  0  0
  181.4220  175.2240  135.0280 O   0  0  0  0  0  1  0  0  0  0  0  0
  180.8840  179.0450  137.2860 C   0  0  0  0  0  2  0  0  0  0  0  0
  185.3500  177.2210  136.3050 C   0  0  0  0  0  2  0  0  0  0  0  0
  184.8730  178.5580  139.7070 C   0  0  2  0  0  3  0  0  0  0  0  0
  184.0260  176.4990  136.1290 C   0  0  2  0  0  3  0  0  0  0  0  0
  182.3130  177.3930  138.5760 C   0  0  0  0  0  0  0  0  0  0  0  0
  185.1780  178.1870  137.3260 O   0  0  0  0  0  0  0  0  0  0  0  0
  182.6020  174.7480  135.6050 C   0  0  2  0  0  0  0  0  0  0  0  0
  179.0370  176.0640  139.8950 N   0  0  0  0  0  1  0  0  0  0  0  0
  182.2810  181.0050  138.7130 O   0  0  0  0  0  0  0  0  0  0  0  0
  183.6150  176.6370  138.5230 C   0  0  1  0  0  3  0  0  0  0  0  0
  181.2950  176.7520  139.1720 C   0  0  0  0  0  3  0  0  0  0  0  0
  182.8410  179.8740  138.7210 C   0  0  0  0  0  0  0  0  0  0  0  0
  183.7260  175.6720  137.3350 C   0  0  1  0  0  0  0  0  0  0  0  0
  184.8930  177.5400  138.5630 C   0  0  2  0  0  3  0  0  0  0  0  0
  179.2810  178.1750  138.9330 N   0  0  0  0  0  0  0  0  0  0  0  0
  182.5480  174.9770  137.0140 O   0  0  0  0  0  0  0  0  0  0  0  0
  184.8260  174.6470  137.6520 C   0  0  0  0  0  1  0  0  0  0  0  0
  179.8930  179.3720  138.3830 C   0  0  0  0  0  2  0  0  0  0  0  0
  179.8580  177.0780  139.3280 C   0  0  0  0  0  0  0  0  0  0  0  0
  182.7130  173.2570  135.3370 C   0  0  0  0  0  0  0  0  0  0  0  0
  181.6230  172.3920  135.5810 C   0  0  0  0  0  0  0  0  0  0  0  0
  183.9960  171.3310  134.5940 C   0  0  0  0  0  3  0  0  0  0  0  0
  182.8950  170.5170  134.8490 C   0  0  0  0  0  3  0  0  0  0  0  0
  183.9000  172.6990  134.8380 C   0  0  0  0  0  3  0  0  0  0  0  0
  181.7450  171.0590  135.3300 N   0  0  0  0  0  0  0  0  0  0  0  0
  180.3910  172.9060  136.0940 N   0  0  0  0  0  2  0  0  0  0  0  0
  179.9370  172.7540  137.7920 S   0  0  0  0  0  1  0  0  0  0  0  0
  184.4310  177.9550  141.0340 C   0  0  0  0  0  2  0  0  0  0  0  0
  185.4490  178.5670  142.4110 P   0  0  2  0  0  0  0  0  0  0  0  0
  184.6270  178.3400  143.8720 O   0  0  0  0  0  1  0  0  0  0  0  0
  185.6840  180.0450  142.2090 O   0  0  0  0  0  0  0  0  0  0  0  0
  187.3270  177.5890  142.4760 S   0  0  0  0  0  0  0  0  0  0  0  0
  188.0360  178.6440  141.1750 C   0  0  0  0  0  2  0  0  0  0  0  0
  191.2540  177.0880  140.0020 C   0  0  0  0  0  3  0  0  0  0  0  0
  189.2570  175.7320  137.2020 C   0  0  0  0  0  1  0  0  0  0  0  0
  189.0110  177.8720  140.3570 C   0  0  0  0  0  0  0  0  0  0  0  0
  190.2540  177.8030  140.7370 N   0  0  0  0  0  0  0  0  0  0  0  0
  189.5840  176.4540  138.4170 N   0  0  0  0  0  0  0  0  0  0  0  0
  188.5370  177.2380  139.0760 C   0  0  0  0  0  2  0  0  0  0  0  0
  190.9340  176.4390  138.8890 C   0  0  0  0  0  3  0  0  0  0  0  0
  1 11  1  0  0  0  0
  2  5  1  1  0  0  0
  2  9  1  0  0  0  0
  2 16  1  0  0  0  0
  3  7  1  0  0  0  0
  5 22  1  0  0  0  0
  6 10  1  0  0  0  0
  7 32  1  1  0  0  0
  8  1  1  6  0  0  0
  8  6  1  0  0  0  0
  8 17  1  0  0  0  0
  9 15  2  0  0  0  0
 11  4  1  6  0  0  0
 11 20  1  0  0  0  0
 13 16  2  0  0  0  0
 14 18  1  0  0  0  0
 14  9  1  6  0  0  0
 15 23  1  0  0  0  0
 16  3  1  0  0  0  0
 17 21  1  1  0  0  0
 17 14  1  0  0  0  0
 18 10  1  6  0  0  0
 18  7  1  0  0  0  0
 19 23  2  0  0  0  0
 20 17  1  0  0  0  0
 22 19  1  0  0  0  0
 23 12  1  0  0  0  0
 24 25  1  0  0  0  0
 24 11  1  0  0  0  0
 25 30  1  0  0  0  0
 26 28  1  0  0  0  0
 26 27  2  0  0  0  0
 27 29  1  0  0  0  0
 28 24  2  0  0  0  0
 29 25  2  0  0  0  0
 30 31  1  0  0  0  0
 32 33  1  0  0  0  0
 33 35  2  6  0  0  0
 33 36  1  0  0  0  0
 33 34  1  0  0  0  0
 37 36  1  0  0  0  0
 38 41  1  0  0  0  0
 39 42  1  0  0  0  0
 40 41  2  0  0  0  0
 40 37  1  0  0  0  0
 42 44  1  0  0  0  0
 42 43  1  0  0  0  0
 43 40  1  0  0  0  0
 44 38  2  0  0  0  0
M  END
>  <MODEL>
5

>  <REMARK>
 VINA RESULT:      -6.3      2.849      3.584
  Name = 
  7 active torsions:
  status: ('A' for Active; 'I' for Inactive)
    1  A    between atoms: C_1  and  S_9
    2  A    between atoms: C_1  and  C_11
    3  A    between atoms: P_6  and  S_9
    4  A    between atoms: P_6  and  C_41
    5  A    between atoms: C_8  and  C_23
    6  A    between atoms: N_10  and  C_16
    7  A    between atoms: C_18  and  C_41
                            x       y       z     vdW  Elec       q    Type
                         _______ _______ _______ _____ _____    ______ ____

>  <TORSDO>
F 7

$$$$
=
 OpenBabel11062415513D

 44 49  0  0  1  0  0  0  0  0999 V2000
  189.7090  177.4100  135.8300 C   0  0  0  0  0  2  0  0  0  0  0  0
  185.1960  176.6550  135.8410 C   0  0  2  0  0  3  0  0  0  0  0  0
  183.8780  178.3490  137.2950 N   0  0  0  0  0  2  0  0  0  0  0  0
  189.4930  175.2030  134.9670 O   0  0  0  0  0  1  0  0  0  0  0  0
  185.0680  175.7430  134.6270 C   0  0  0  0  0  2  0  0  0  0  0  0
  187.9440  179.1590  136.6990 C   0  0  0  0  0  2  0  0  0  0  0  0
  184.7760  178.4550  138.4450 C   0  0  2  0  0  3  0  0  0  0  0  0
  188.3520  177.7440  136.3330 C   0  0  2  0  0  3  0  0  0  0  0  0
  185.8580  176.0050  137.0250 C   0  0  0  0  0  0  0  0  0  0  0  0
  186.5490  179.1540  136.9410 O   0  0  0  0  0  0  0  0  0  0  0  0
  189.7470  175.9030  136.1490 C   0  0  2  0  0  0  0  0  0  0  0  0
  185.4600  172.2580  137.2360 N   0  0  0  0  0  1  0  0  0  0  0  0
  182.9640  177.4240  135.3870 O   0  0  0  0  0  0  0  0  0  0  0  0
  186.7300  176.8520  137.9130 C   0  0  1  0  0  3  0  0  0  0  0  0
  185.8000  174.7020  137.3410 C   0  0  0  0  0  3  0  0  0  0  0  0
  183.9470  177.4500  136.1780 C   0  0  0  0  0  0  0  0  0  0  0  0
  188.2130  176.8450  137.5170 C   0  0  1  0  0  0  0  0  0  0  0  0
  186.2550  178.3340  138.0690 C   0  0  2  0  0  3  0  0  0  0  0  0
  184.4440  173.5740  135.6000 N   0  0  0  0  0  0  0  0  0  0  0  0
  188.7160  175.6030  137.0910 O   0  0  0  0  0  0  0  0  0  0  0  0
  189.0350  177.3130  138.7290 C   0  0  0  0  0  1  0  0  0  0  0  0
  183.9630  174.7380  134.8750 C   0  0  0  0  0  2  0  0  0  0  0  0
  185.1730  173.5340  136.6770 C   0  0  0  0  0  0  0  0  0  0  0  0
  191.0880  175.4550  136.7060 C   0  0  0  0  0  0  0  0  0  0  0  0
  191.4260  174.0850  136.7710 C   0  0  0  0  0  0  0  0  0  0  0  0
  193.2550  175.9720  137.6780 C   0  0  0  0  0  3  0  0  0  0  0  0
  193.5440  174.6110  137.7220 C   0  0  0  0  0  3  0  0  0  0  0  0
  192.0270  176.3890  137.1690 C   0  0  0  0  0  3  0  0  0  0  0  0
  192.6350  173.7070  137.2720 N   0  0  0  0  0  0  0  0  0  0  0  0
  190.5050  173.0890  136.3180 N   0  0  0  0  0  2  0  0  0  0  0  0
  190.8370  172.0590  134.9240 S   0  0  0  0  0  1  0  0  0  0  0  0
  184.3630  177.4930  139.5530 C   0  0  0  0  0  2  0  0  0  0  0  0
  183.0750  178.2180  140.6130 P   0  0  2  0  0  0  0  0  0  0  0  0
  181.7010  177.2300  140.5960 O   0  0  0  0  0  1  0  0  0  0  0  0
  182.7090  179.5740  140.0570 O   0  0  0  0  0  0  0  0  0  0  0  0
  183.7630  178.4690  142.6000 S   0  0  0  0  0  0  0  0  0  0  0  0
  185.4550  178.8750  142.0720 C   0  0  0  0  0  2  0  0  0  0  0  0
  188.5280  177.1020  143.3200 C   0  0  0  0  0  3  0  0  0  0  0  0
  187.1080  177.5970  146.6970 C   0  0  0  0  0  1  0  0  0  0  0  0
  186.4480  178.2570  142.9920 C   0  0  0  0  0  0  0  0  0  0  0  0
  187.5300  177.7240  142.5040 N   0  0  0  0  0  0  0  0  0  0  0  0
  187.2340  177.6440  145.2530 N   0  0  0  0  0  0  0  0  0  0  0  0
  186.1390  178.2160  144.4660 C   0  0  0  0  0  2  0  0  0  0  0  0
  188.3890  177.0640  144.6400 C   0  0  0  0  0  3  0  0  0  0  0  0
  1 11  1  0  0  0  0
  2  5  1  6  0  0  0
  2 16  1  0  0  0  0
  2  9  1  0  0  0  0
  3  7  1  0  0  0  0
  5 22  1  0  0  0  0
  6 10  1  0  0  0  0
  7 32  1  1  0  0  0
  8  1  1  1  0  0  0
  8  6  1  0  0  0  0
  8 17  1  0  0  0  0
  9 15  2  0  0  0  0
 11  4  1  6  0  0  0
 11 24  1  0  0  0  0
 11 20  1  0  0  0  0
 13 16  2  0  0  0  0
 14  9  1  6  0  0  0
 14 18  1  0  0  0  0
 16  3  1  0  0  0  0
 17 14  1  0  0  0  0
 17 21  1  1  0  0  0
 18 10  1  6  0  0  0
 18  7  1  0  0  0  0
 19 23  2  0  0  0  0
 20 17  1  0  0  0  0
 22 19  1  0  0  0  0
 23 12  1  0  0  0  0
 23 15  1  0  0  0  0
 24 25  1  0  0  0  0
 24 28  2  0  0  0  0
 25 29  2  0  0  0  0
 26 27  2  0  0  0  0
 28 26  1  0  0  0  0
 29 27  1  0  0  0  0
 30 25  1  0  0  0  0
 31 30  1  0  0  0  0
 32 33  1  0  0  0  0
 33 35  2  6  0  0  0
 33 36  1  0  0  0  0
 34 33  1  0  0  0  0
 37 36  1  0  0  0  0
 37 40  1  0  0  0  0
 38 44  2  0  0  0  0
 40 43  1  0  0  0  0
 41 40  2  0  0  0  0
 41 38  1  0  0  0  0
 42 39  1  0  0  0  0
 43 42  1  0  0  0  0
 44 42  1  0  0  0  0
M  END
>  <MODEL>
6

>  <REMARK>
 VINA RESULT:      -5.9      4.844      7.283
  Name = 
  7 active torsions:
  status: ('A' for Active; 'I' for Inactive)
    1  A    between atoms: C_1  and  S_9
    2  A    between atoms: C_1  and  C_11
    3  A    between atoms: P_6  and  S_9
    4  A    between atoms: P_6  and  C_41
    5  A    between atoms: C_8  and  C_23
    6  A    between atoms: N_10  and  C_16
    7  A    between atoms: C_18  and  C_41
                            x       y       z     vdW  Elec       q    Type
                         _______ _______ _______ _____ _____    ______ ____

>  <TORSDO>
F 7

$$$$
=
 OpenBabel11062415513D

 44 49  0  0  1  0  0  0  0  0999 V2000
  185.9580  176.1500  134.8770 C   0  0  0  0  0  2  0  0  0  0  0  0
  182.9770  178.3980  137.5240 C   0  0  2  0  0  3  0  0  0  0  0  0
  184.1160  179.9930  139.2210 N   0  0  0  0  0  2  0  0  0  0  0  0
  183.9200  174.9530  134.5940 O   0  0  0  0  0  1  0  0  0  0  0  0
  181.6950  178.1900  136.7290 C   0  0  0  0  0  2  0  0  0  0  0  0
  186.6020  178.2410  136.3410 C   0  0  0  0  0  2  0  0  0  0  0  0
  185.2430  179.1610  139.6410 C   0  0  2  0  0  3  0  0  0  0  0  0
  185.6860  177.0780  136.0050 C   0  0  2  0  0  3  0  0  0  0  0  0
  183.4800  177.1550  138.2070 C   0  0  0  0  0  0  0  0  0  0  0  0
  185.9520  179.0280  137.3220 O   0  0  0  0  0  0  0  0  0  0  0  0
  185.1130  174.9390  135.3210 C   0  0  2  0  0  0  0  0  0  0  0  0
  180.8250  174.6300  139.1110 N   0  0  0  0  0  1  0  0  0  0  0  0
  182.0530  180.4760  138.3030 O   0  0  0  0  0  0  0  0  0  0  0  0
  184.9670  176.9540  138.3270 C   0  0  1  0  0  3  0  0  0  0  0  0
  182.7190  176.1530  138.6740 C   0  0  0  0  0  3  0  0  0  0  0  0
  182.9980  179.6440  138.3930 C   0  0  0  0  0  0  0  0  0  0  0  0
  185.5810  176.1510  137.1710 C   0  0  1  0  0  0  0  0  0  0  0  0
  185.7880  178.2720  138.5190 C   0  0  2  0  0  3  0  0  0  0  0  0
  180.3590  176.7120  138.1680 N   0  0  0  0  0  0  0  0  0  0  0  0
  184.8060  175.0740  136.7100 O   0  0  0  0  0  0  0  0  0  0  0  0
  186.9420  175.6090  137.6350 C   0  0  0  0  0  1  0  0  0  0  0  0
  180.5290  178.0730  137.6880 C   0  0  0  0  0  2  0  0  0  0  0  0
  181.2590  175.9020  138.6430 C   0  0  0  0  0  0  0  0  0  0  0  0
  185.8170  173.6140  135.0840 C   0  0  0  0  0  0  0  0  0  0  0  0
  185.1040  172.3950  135.1290 C   0  0  0  0  0  0  0  0  0  0  0  0
  187.8330  172.3460  134.5940 C   0  0  0  0  0  3  0  0  0  0  0  0
  187.0890  171.1700  134.6480 C   0  0  0  0  0  3  0  0  0  0  0  0
  187.1930  173.5650  134.8120 C   0  0  0  0  0  3  0  0  0  0  0  0
  185.7560  171.2190  134.9090 N   0  0  0  0  0  0  0  0  0  0  0  0
  183.7010  172.3860  135.4060 N   0  0  0  0  0  2  0  0  0  0  0  0
  183.0300  171.6430  136.8590 S   0  0  0  0  0  1  0  0  0  0  0  0
  184.9080  178.3820  140.9070 C   0  0  0  0  0  2  0  0  0  0  0  0
  186.0360  178.8130  142.2680 P   0  0  2  0  0  0  0  0  0  0  0  0
  185.5080  180.2340  143.0180 O   0  0  0  0  0  1  0  0  0  0  0  0
  187.4110  179.0480  141.6880 O   0  0  0  0  0  0  0  0  0  0  0  0
  186.1630  177.2470  143.6890 S   0  0  0  0  0  0  0  0  0  0  0  0
  186.0190  178.3810  145.1030 C   0  0  0  0  0  2  0  0  0  0  0  0
  187.9230  178.0470  148.3300 C   0  0  0  0  0  3  0  0  0  0  0  0
  190.8450  177.2650  146.2060 C   0  0  0  0  0  1  0  0  0  0  0  0
  187.1320  178.1540  146.0640 C   0  0  0  0  0  0  0  0  0  0  0  0
  186.9050  178.2430  147.3430 N   0  0  0  0  0  0  0  0  0  0  0  0
  189.4860  177.6080  146.5800 N   0  0  0  0  0  0  0  0  0  0  0  0
  188.5110  177.8810  145.5220 C   0  0  0  0  0  2  0  0  0  0  0  0
  189.1620  177.7410  147.9670 C   0  0  0  0  0  3  0  0  0  0  0  0
  1 11  1  0  0  0  0
  2  5  1  1  0  0  0
  2  9  1  0  0  0  0
  2 16  1  0  0  0  0
  3  7  1  0  0  0  0
  5 22  1  0  0  0  0
  6 10  1  0  0  0  0
  7 32  1  1  0  0  0
  8  1  1  6  0  0  0
  8  6  1  0  0  0  0
  8 17  1  0  0  0  0
  9 15  2  0  0  0  0
 11  4  1  6  0  0  0
 11 20  1  0  0  0  0
 13 16  2  0  0  0  0
 14  9  1  6  0  0  0
 14 18  1  0  0  0  0
 16  3  1  0  0  0  0
 17 21  1  1  0  0  0
 17 14  1  0  0  0  0
 18 10  1  6  0  0  0
 18  7  1  0  0  0  0
 19 23  2  0  0  0  0
 20 17  1  0  0  0  0
 22 19  1  0  0  0  0
 23 15  1  0  0  0  0
 23 12  1  0  0  0  0
 24 25  1  0  0  0  0
 24 11  1  0  0  0  0
 25 30  1  0  0  0  0
 26 27  2  0  0  0  0
 26 28  1  0  0  0  0
 27 29  1  0  0  0  0
 28 24  2  0  0  0  0
 29 25  2  0  0  0  0
 30 31  1  0  0  0  0
 32 33  1  0  0  0  0
 33 35  2  6  0  0  0
 33 34  1  0  0  0  0
 33 36  1  0  0  0  0
 36 37  1  0  0  0  0
 37 40  1  0  0  0  0
 39 42  1  0  0  0  0
 40 41  2  0  0  0  0
 41 38  1  0  0  0  0
 42 44  1  0  0  0  0
 43 40  1  0  0  0  0
 43 42  1  0  0  0  0
 44 38  2  0  0  0  0
M  END
>  <MODEL>
7

>  <REMARK>
 VINA RESULT:      -5.6      2.686      3.352
  Name = 
  7 active torsions:
  status: ('A' for Active; 'I' for Inactive)
    1  A    between atoms: C_1  and  S_9
    2  A    between atoms: C_1  and  C_11
    3  A    between atoms: P_6  and  S_9
    4  A    between atoms: P_6  and  C_41
    5  A    between atoms: C_8  and  C_23
    6  A    between atoms: N_10  and  C_16
    7  A    between atoms: C_18  and  C_41
                            x       y       z     vdW  Elec       q    Type
                         _______ _______ _______ _____ _____    ______ ____

>  <TORSDO>
F 7

$$$$
=
 OpenBabel11062415513D

 44 49  0  0  1  0  0  0  0  0999 V2000
  182.8550  179.2700  138.7590 C   0  0  0  0  0  2  0  0  0  0  0  0
  186.7700  178.2250  136.6340 C   0  0  2  0  0  3  0  0  0  0  0  0
  186.5240  176.2850  134.9300 N   0  0  0  0  0  2  0  0  0  0  0  0
  184.5290  180.3220  140.0850 O   0  0  0  0  0  1  0  0  0  0  0  0
  187.5890  179.4720  136.9380 C   0  0  0  0  0  2  0  0  0  0  0  0
  182.9820  177.7740  136.5980 C   0  0  0  0  0  2  0  0  0  0  0  0
  185.6420  175.3930  135.6820 C   0  0  2  0  0  3  0  0  0  0  0  0
  183.6170  178.4050  137.8220 C   0  0  2  0  0  3  0  0  0  0  0  0
  186.5460  177.3360  137.8260 C   0  0  0  0  0  0  0  0  0  0  0  0
  184.0180  177.1930  135.8280 O   0  0  0  0  0  0  0  0  0  0  0  0
  183.7530  179.1630  140.0080 C   0  0  2  0  0  0  0  0  0  0  0  0
  189.2170  177.5050  140.4860 N   0  0  0  0  0  1  0  0  0  0  0  0
  188.0290  178.0040  134.5970 O   0  0  0  0  0  0  0  0  0  0  0  0
  185.2390  176.5950  137.9330 C   0  0  1  0  0  3  0  0  0  0  0  0
  187.3860  177.1820  138.8610 C   0  0  0  0  0  3  0  0  0  0  0  0
  187.1740  177.4880  135.3680 C   0  0  0  0  0  0  0  0  0  0  0  0
  184.1610  177.3470  138.7240 C   0  0  1  0  0  0  0  0  0  0  0  0
  184.6360  176.1400  136.5630 C   0  0  2  0  0  3  0  0  0  0  0  0
  189.3380  178.6560  138.4600 N   0  0  0  0  0  0  0  0  0  0  0  0
  184.6210  178.0390  139.8590 O   0  0  0  0  0  0  0  0  0  0  0  0
  183.0980  176.3310  139.1710 C   0  0  0  0  0  1  0  0  0  0  0  0
  189.0430  179.0850  137.1030 C   0  0  0  0  0  2  0  0  0  0  0  0
  188.6850  177.8090  139.2020 C   0  0  0  0  0  0  0  0  0  0  0  0
  182.9550  179.0210  141.2930 C   0  0  0  0  0  0  0  0  0  0  0  0
  183.6030  178.9580  142.5470 C   0  0  0  0  0  0  0  0  0  0  0  0
  180.8270  178.8190  142.4520 C   0  0  0  0  0  3  0  0  0  0  0  0
  181.5100  178.7620  143.6650 C   0  0  0  0  0  3  0  0  0  0  0  0
  181.5530  178.9490  141.2700 C   0  0  0  0  0  3  0  0  0  0  0  0
  182.8660  178.8330  143.6860 N   0  0  0  0  0  0  0  0  0  0  0  0
  185.0290  179.0210  142.6290 N   0  0  0  0  0  2  0  0  0  0  0  0
  185.9960  177.7100  143.3070 S   0  0  0  0  0  1  0  0  0  0  0  0
  186.4430  174.3470  136.4480 C   0  0  0  0  0  2  0  0  0  0  0  0
  185.5360  172.7750  136.5680 P   0  0  2  0  0  0  0  0  0  0  0  0
  185.0100  172.5400  138.1580 O   0  0  0  0  0  1  0  0  0  0  0  0
  186.4770  171.6540  136.1940 O   0  0  0  0  0  0  0  0  0  0  0  0
  183.8830  172.7360  135.2440 S   0  0  0  0  0  0  0  0  0  0  0  0
  182.6760  172.5620  136.5940 C   0  0  0  0  0  2  0  0  0  0  0  0
  179.5440  173.5470  134.7580 C   0  0  0  0  0  3  0  0  0  0  0  0
  179.0220  175.9630  137.5060 C   0  0  0  0  0  1  0  0  0  0  0  0
  181.4070  173.2580  136.2460 C   0  0  0  0  0  0  0  0  0  0  0  0
  180.7650  172.9200  135.1660 N   0  0  0  0  0  0  0  0  0  0  0  0
  179.6380  174.9190  136.7100 N   0  0  0  0  0  0  0  0  0  0  0  0
  180.9310  174.3780  137.1340 C   0  0  0  0  0  2  0  0  0  0  0  0
  179.0000  174.5050  135.4980 C   0  0  0  0  0  3  0  0  0  0  0  0
  1 11  1  0  0  0  0
  2  5  1  1  0  0  0
  2  9  1  0  0  0  0
  3 16  1  0  0  0  0
  3  7  1  0  0  0  0
  5 22  1  0  0  0  0
  7 32  1  1  0  0  0
  7 18  1  0  0  0  0
  8  6  1  6  0  0  0
  8 17  1  0  0  0  0
  8  1  1  0  0  0  0
  9 15  2  0  0  0  0
 10  6  1  0  0  0  0
 11  4  1  1  0  0  0
 11 24  1  0  0  0  0
 13 16  2  0  0  0  0
 14  9  1  6  0  0  0
 14 17  1  0  0  0  0
 15 23  1  0  0  0  0
 16  2  1  0  0  0  0
 17 21  1  1  0  0  0
 17 20  1  0  0  0  0
 18 10  1  6  0  0  0
 18 14  1  0  0  0  0
 19 23  2  0  0  0  0
 20 11  1  0  0  0  0
 22 19  1  0  0  0  0
 23 12  1  0  0  0  0
 24 25  1  0  0  0  0
 25 30  1  0  0  0  0
 25 29  2  0  0  0  0
 26 27  2  0  0  0  0
 27 29  1  0  0  0  0
 28 24  2  0  0  0  0
 28 26  1  0  0  0  0
 30 31  1  0  0  0  0
 32 33  1  0  0  0  0
 33 35  2  6  0  0  0
 33 34  1  0  0  0  0
 36 33  1  0  0  0  0
 36 37  1  0  0  0  0
 38 41  1  0  0  0  0
 38 44  2  0  0  0  0
 40 37  1  0  0  0  0
 40 43  1  0  0  0  0
 41 40  2  0  0  0  0
 42 43  1  0  0  0  0
 42 39  1  0  0  0  0
 44 42  1  0  0  0  0
M  END
>  <MODEL>
8

>  <REMARK>
 VINA RESULT:      -5.2      3.783      8.921
  Name = 
  7 active torsions:
  status: ('A' for Active; 'I' for Inactive)
    1  A    between atoms: C_1  and  S_9
    2  A    between atoms: C_1  and  C_11
    3  A    between atoms: P_6  and  S_9
    4  A    between atoms: P_6  and  C_41
    5  A    between atoms: C_8  and  C_23
    6  A    between atoms: N_10  and  C_16
    7  A    between atoms: C_18  and  C_41
                            x       y       z     vdW  Elec       q    Type
                         _______ _______ _______ _____ _____    ______ ____

>  <TORSDO>
F 7

$$$$
=
 OpenBabel11062415513D

 44 49  0  0  1  0  0  0  0  0999 V2000
  184.8190  173.3080  134.7000 C   0  0  0  0  0  2  0  0  0  0  0  0
  187.8500  176.6800  135.3210 C   0  0  2  0  0  3  0  0  0  0  0  0
  190.2420  175.8240  135.8400 N   0  0  0  0  0  2  0  0  0  0  0  0
  183.4700  175.2410  135.0300 O   0  0  0  0  0  1  0  0  0  0  0  0
  187.0870  177.8490  134.7120 C   0  0  0  0  0  2  0  0  0  0  0  0
  187.4250  172.9380  134.7050 C   0  0  0  0  0  2  0  0  0  0  0  0
  189.9290  174.7170  136.7430 C   0  0  2  0  0  3  0  0  0  0  0  0
  186.1920  173.7530  135.0510 C   0  0  2  0  0  3  0  0  0  0  0  0
  187.2900  176.2050  136.6340 C   0  0  0  0  0  0  0  0  0  0  0  0
  188.5600  173.7350  134.9950 O   0  0  0  0  0  0  0  0  0  0  0  0
  184.0040  174.1420  135.7080 C   0  0  2  0  0  0  0  0  0  0  0  0
  185.4830  178.8270  138.6580 N   0  0  0  0  0  1  0  0  0  0  0  0
  189.8840  177.7850  134.6730 O   0  0  0  0  0  0  0  0  0  0  0  0
  187.3540  174.7340  136.9510 C   0  0  1  0  0  3  0  0  0  0  0  0
  186.6670  176.9680  137.5450 C   0  0  0  0  0  3  0  0  0  0  0  0
  189.3620  176.8200  135.2970 C   0  0  0  0  0  0  0  0  0  0  0  0
  186.1030  173.9520  136.5280 C   0  0  1  0  0  0  0  0  0  0  0  0
  188.6200  174.0030  136.3930 C   0  0  2  0  0  3  0  0  0  0  0  0
  186.5770  179.2760  136.6470 N   0  0  0  0  0  0  0  0  0  0  0  0
  184.8810  174.6160  136.7310 O   0  0  0  0  0  0  0  0  0  0  0  0
  186.0760  172.6310  137.3130 C   0  0  0  0  0  1  0  0  0  0  0  0
  187.4210  179.1130  135.4760 C   0  0  0  0  0  2  0  0  0  0  0  0
  186.2900  178.4010  137.5670 C   0  0  0  0  0  0  0  0  0  0  0  0
  182.8690  173.3550  136.3390 C   0  0  0  0  0  0  0  0  0  0  0  0
  181.9540  173.9770  137.2170 C   0  0  0  0  0  0  0  0  0  0  0  0
  181.6530  171.2720  136.6460 C   0  0  0  0  0  3  0  0  0  0  0  0
  180.7750  171.9280  137.5050 C   0  0  0  0  0  3  0  0  0  0  0  0
  182.6970  171.9890  136.0650 C   0  0  0  0  0  3  0  0  0  0  0  0
  180.9410  173.2510  137.7680 N   0  0  0  0  0  0  0  0  0  0  0  0
  182.0840  175.3650  137.5350 N   0  0  0  0  0  2  0  0  0  0  0  0
  182.6000  175.9260  139.1260 S   0  0  0  0  0  1  0  0  0  0  0  0
  189.9920  175.1630  138.1990 C   0  0  0  0  0  2  0  0  0  0  0  0
  190.9620  176.6910  138.3810 P   0  0  2  0  0  0  0  0  0  0  0  0
  190.0920  177.9970  137.7480 O   0  0  0  0  0  1  0  0  0  0  0  0
  192.2460  176.5360  137.6020 O   0  0  0  0  0  0  0  0  0  0  0  0
  191.4460  177.0590  140.4100 S   0  0  0  0  0  0  0  0  0  0  0  0
  189.7070  177.0110  140.9410 C   0  0  0  0  0  2  0  0  0  0  0  0
  188.3320  177.5750  144.3960 C   0  0  0  0  0  3  0  0  0  0  0  0
  191.6690  176.5330  145.5970 C   0  0  0  0  0  1  0  0  0  0  0  0
  189.6160  177.0940  142.4240 C   0  0  0  0  0  0  0  0  0  0  0  0
  188.4970  177.4610  142.9790 N   0  0  0  0  0  0  0  0  0  0  0  0
  190.5910  176.8540  144.6820 N   0  0  0  0  0  0  0  0  0  0  0  0
  190.8480  176.8030  143.2410 C   0  0  0  0  0  2  0  0  0  0  0  0
  189.3340  177.2820  145.2160 C   0  0  0  0  0  3  0  0  0  0  0  0
  1 11  1  0  0  0  0
  2  5  1  1  0  0  0
  2  9  1  0  0  0  0
  3  7  1  0  0  0  0
  5 22  1  0  0  0  0
  6 10  1  0  0  0  0
  6  8  1  0  0  0  0
  7 32  1  1  0  0  0
  8  1  1  1  0  0  0
  8 17  1  0  0  0  0
  9 15  2  0  0  0  0
 11  4  1  6  0  0  0
 11 24  1  0  0  0  0
 11 20  1  0  0  0  0
 13 16  2  0  0  0  0
 14  9  1  6  0  0  0
 15 23  1  0  0  0  0
 16  2  1  0  0  0  0
 16  3  1  0  0  0  0
 17 20  1  0  0  0  0
 17 14  1  0  0  0  0
 17 21  1  1  0  0  0
 18 10  1  6  0  0  0
 18  7  1  0  0  0  0
 18 14  1  0  0  0  0
 19 23  2  0  0  0  0
 22 19  1  0  0  0  0
 23 12  1  0  0  0  0
 24 25  1  0  0  0  0
 25 30  1  0  0  0  0
 25 29  2  0  0  0  0
 26 27  2  0  0  0  0
 27 29  1  0  0  0  0
 28 24  2  0  0  0  0
 28 26  1  0  0  0  0
 30 31  1  0  0  0  0
 32 33  1  0  0  0  0
 33 35  2  6  0  0  0
 33 36  1  0  0  0  0
 34 33  1  0  0  0  0
 36 37  1  0  0  0  0
 37 40  1  0  0  0  0
 38 44  2  0  0  0  0
 40 41  2  0  0  0  0
 40 43  1  0  0  0  0
 41 38  1  0  0  0  0
 42 44  1  0  0  0  0
 42 39  1  0  0  0  0
 43 42  1  0  0  0  0
M  END
>  <MODEL>
9

>  <REMARK>
 VINA RESULT:      -5.2      4.029      5.393
  Name = 
  7 active torsions:
  status: ('A' for Active; 'I' for Inactive)
    1  A    between atoms: C_1  and  S_9
    2  A    between atoms: C_1  and  C_11
    3  A    between atoms: P_6  and  S_9
    4  A    between atoms: P_6  and  C_41
    5  A    between atoms: C_8  and  C_23
    6  A    between atoms: N_10  and  C_16
    7  A    between atoms: C_18  and  C_41
                            x       y       z     vdW  Elec       q    Type
                         _______ _______ _______ _____ _____    ______ ____

>  <TORSDO>
F 7

$$$$
