=
 OpenBabel11062413123D

 42 46  0  0  1  0  0  0  0  0999 V2000
  185.2930  179.0400  145.0490 C   0  0  2  0  0  3  0  0  0  0  0  0
  189.0250  179.0370  137.5150 C   0  0  0  0  0  2  0  0  0  0  0  0
  183.1790  178.5370  140.7210 C   0  0  2  0  0  3  0  0  0  0  0  0
  190.3560  178.1790  144.1840 O   0  0  0  0  0  1  0  0  0  0  0  0
  188.3100  177.3310  141.0610 C   0  0  1  0  0  3  0  0  0  0  0  0
  187.1330  178.7900  134.7220 O   0  0  0  0  0  0  0  0  0  0  0  0
  191.0490  176.8250  137.5660 O   0  0  0  0  0  0  0  0  0  0  0  0
  186.4150  177.3460  143.7620 C   0  0  0  0  0  2  0  0  0  0  0  0
  188.7790  177.5440  137.5710 C   0  0  1  0  0  0  0  0  0  0  0  0
  186.4890  177.5930  136.6760 C   0  0  2  0  0  3  0  0  0  0  0  0
  189.9390  176.7200  138.0640 C   0  0  0  0  0  0  0  0  0  0  0  0
  189.7130  175.7640  139.1940 C   0  0  0  0  0  2  0  0  0  0  0  0
  184.4560  177.9640  138.1400 C   0  0  2  0  0  3  0  0  0  0  0  0
  185.1020  178.1100  143.8780 C   0  0  2  0  0  3  0  0  0  0  0  0
  186.6220  177.8810  146.8950 C   0  0  0  0  0  1  0  0  0  0  0  0
  183.6380  179.2110  139.1280 S   0  0  0  0  0  0  0  0  0  0  0  0
  186.6760  178.7160  145.6230 C   0  0  1  0  0  3  0  0  0  0  0  0
  184.2620  178.8740  145.9800 O   0  0  0  0  0  1  0  0  0  0  0  0
  185.0420  177.1280  141.1040 O   0  0  0  0  0  0  0  0  0  0  0  0
  190.3620  176.1420  140.3900 O   0  0  0  0  0  0  0  0  0  0  0  0
  182.4020  179.7020  138.4150 O   0  0  0  0  0  0  0  0  0  0  0  0
  187.3420  177.0960  137.8360 C   0  0  0  0  0  2  0  0  0  0  0  0
  189.2700  175.8380  142.8900 C   0  0  0  0  0  1  0  0  0  0  0  0
  187.4240  177.9880  144.6050 N   0  0  2  0  0  0  0  0  0  0  0  0
  187.4670  178.2540  135.7650 C   0  0  0  0  0  0  0  0  0  0  0  0
  189.8290  177.3690  140.8640 C   0  0  2  0  0  3  0  0  0  0  0  0
  184.5620  180.3770  139.3540 O   0  0  0  0  0  0  0  0  0  0  0  0
  189.2330  177.2270  142.2680 C   0  0  1  0  0  0  0  0  0  0  0  0
  188.1210  178.9860  143.7920 C   0  0  0  0  0  2  0  0  0  0  0  0
  188.8820  178.2280  136.2250 C   0  0  1  0  0  3  0  0  0  0  0  0
  185.4600  178.6030  137.1790 C   0  0  0  0  0  2  0  0  0  0  0  0
  184.4080  178.1100  141.4660 C   0  0  0  0  0  0  0  0  0  0  0  0
  184.8840  178.9420  142.6170 C   0  0  0  0  0  2  0  0  0  0  0  0
  187.7710  178.7220  140.7810 C   0  0  0  0  0  1  0  0  0  0  0  0
  189.4230  178.4510  143.1800 C   0  0  1  0  0  3  0  0  0  0  0  0
  183.4270  177.1390  137.3800 C   0  0  0  0  0  2  0  0  0  0  0  0
  183.4290  175.7100  137.8860 C   0  0  0  0  0  2  0  0  0  0  0  0
  184.1180  174.8180  136.9020 C   0  0  0  0  0  3  0  0  0  0  0  0
  185.1920  174.3060  137.1850 O   0  0  0  0  0  0  0  0  0  0  0  0
  182.1820  177.3940  140.5560 C   0  0  0  0  0  2  0  0  0  0  0  0
  180.5620  178.9760  141.2450 O   0  0  0  0  0  0  0  0  0  0  0  0
  180.7880  177.8220  140.9020 C   0  0  0  0  0  3  0  0  0  0  0  0
  1 17  1  0  0  0  0
  1 18  1  1  0  0  0
  3 40  1  6  0  0  0
  3 32  1  0  0  0  0
  5 34  1  1  0  0  0
  5 28  1  0  0  0  0
  6 25  2  0  0  0  0
  7 11  2  0  0  0  0
  8 14  1  0  0  0  0
  9  2  1  1  0  0  0
  9 22  1  0  0  0  0
  9 11  1  0  0  0  0
 10 31  1  1  0  0  0
 10 22  1  0  0  0  0
 11 12  1  0  0  0  0
 12 20  1  0  0  0  0
 13 36  1  6  0  0  0
 13 16  1  0  0  0  0
 14 33  1  6  0  0  0
 14  1  1  0  0  0  0
 16 27  2  0  0  0  0
 16  3  1  0  0  0  0
 17 15  1  1  0  0  0
 19 32  2  0  0  0  0
 21 16  2  0  0  0  0
 24  8  1  6  0  0  0
 24 17  1  0  0  0  0
 25 30  1  0  0  0  0
 25 10  1  0  0  0  0
 26 20  1  6  0  0  0
 26  5  1  0  0  0  0
 26 28  1  0  0  0  0
 28 23  1  1  0  0  0
 28 35  1  0  0  0  0
 29 24  1  0  0  0  0
 30  2  1  1  0  0  0
 30  9  1  0  0  0  0
 31 13  1  0  0  0  0
 32 33  1  0  0  0  0
 35 29  1  0  0  0  0
 35  4  1  1  0  0  0
 36 37  1  0  0  0  0
 38 39  2  0  0  0  0
 38 37  1  0  0  0  0
 40 42  1  0  0  0  0
 42 41  2  0  0  0  0
M  END
>  <MODEL>
1

>  <REMARK>
 VINA RESULT:      -5.2      0.000      0.000
  Name = 
  5 active torsions:
  status: ('A' for Active; 'I' for Inactive)
    1  A    between atoms: C_1  and  C_14
    2  A    between atoms: C_1  and  C_25
    3  A    between atoms: C_4  and  C_21
    4  A    between atoms: C_21  and  C_34
    5  A    between atoms: C_24  and  C_25
                            x       y       z     vdW  Elec       q    Type
                         _______ _______ _______ _____ _____    ______ ____

>  <TORSDO>
F 5

$$$$
=
 OpenBabel11062413123D

 42 46  0  0  1  0  0  0  0  0999 V2000
  188.3710  178.4040  137.1300 C   0  0  2  0  0  3  0  0  0  0  0  0
  182.0950  173.4190  134.5940 C   0  0  0  0  0  2  0  0  0  0  0  0
  183.6920  178.7250  138.3340 C   0  0  2  0  0  3  0  0  0  0  0  0
  188.9240  173.6260  135.1330 O   0  0  0  0  0  1  0  0  0  0  0  0
  185.4480  174.0240  136.6870 C   0  0  1  0  0  3  0  0  0  0  0  0
  178.9310  174.0950  135.5820 O   0  0  0  0  0  0  0  0  0  0  0  0
  182.8370  170.6300  135.4090 O   0  0  0  0  0  0  0  0  0  0  0  0
  187.5520  176.2700  137.8780 C   0  0  0  0  0  2  0  0  0  0  0  0
  182.1960  172.8480  135.9920 C   0  0  1  0  0  0  0  0  0  0  0  0
  180.7330  174.4960  137.0850 C   0  0  2  0  0  3  0  0  0  0  0  0
  183.0340  171.6040  136.1180 C   0  0  0  0  0  0  0  0  0  0  0  0
  184.1340  171.5780  137.1340 C   0  0  0  0  0  2  0  0  0  0  0  0
  181.5830  176.7180  137.9510 C   0  0  2  0  0  3  0  0  0  0  0  0
  187.2640  177.7660  137.9280 C   0  0  2  0  0  3  0  0  0  0  0  0
  190.5820  177.2000  137.5560 C   0  0  0  0  0  1  0  0  0  0  0  0
  182.2280  178.2940  137.4000 S   0  0  0  0  0  0  0  0  0  0  0  0
  189.3090  177.2630  136.7230 C   0  0  1  0  0  3  0  0  0  0  0  0
  189.0110  179.3940  137.8840 O   0  0  0  0  0  1  0  0  0  0  0  0
  184.6520  176.5760  138.5790 O   0  0  0  0  0  0  0  0  0  0  0  0
  185.4260  171.5630  136.5650 O   0  0  0  0  0  0  0  0  0  0  0  0
  181.1830  179.3670  137.5790 O   0  0  0  0  0  0  0  0  0  0  0  0
  182.1080  173.8460  137.1470 C   0  0  0  0  0  2  0  0  0  0  0  0
  187.5700  172.9380  137.5890 C   0  0  0  0  0  1  0  0  0  0  0  0
  188.5790  176.0100  136.8680 N   0  0  2  0  0  0  0  0  0  0  0  0
  180.0620  173.8150  135.9410 C   0  0  0  0  0  0  0  0  0  0  0  0
  185.6520  172.7630  135.8420 C   0  0  2  0  0  3  0  0  0  0  0  0
  182.5990  178.2170  135.9440 O   0  0  0  0  0  0  0  0  0  0  0  0
  186.8580  173.5360  136.3830 C   0  0  1  0  0  0  0  0  0  0  0  0
  187.9040  175.7580  135.5940 C   0  0  0  0  0  2  0  0  0  0  0  0
  180.8750  172.7740  135.2550 C   0  0  1  0  0  3  0  0  0  0  0  0
  180.8740  175.9910  136.8080 C   0  0  0  0  0  2  0  0  0  0  0  0
  184.7620  177.7000  138.1080 C   0  0  0  0  0  0  0  0  0  0  0  0
  185.9310  178.0510  137.2410 C   0  0  0  0  0  2  0  0  0  0  0  0
  184.9340  175.1200  135.7700 C   0  0  0  0  0  1  0  0  0  0  0  0
  187.6940  174.2630  135.3160 C   0  0  1  0  0  3  0  0  0  0  0  0
  180.6450  176.9200  139.1330 C   0  0  0  0  0  2  0  0  0  0  0  0
  180.9450  175.9030  140.2160 C   0  0  0  0  0  2  0  0  0  0  0  0
  179.6940  175.1820  140.6040 C   0  0  0  0  0  3  0  0  0  0  0  0
  179.4260  175.0090  141.7850 O   0  0  0  0  0  0  0  0  0  0  0  0
  183.3590  178.8900  139.8140 C   0  0  0  0  0  2  0  0  0  0  0  0
  184.8760  178.4970  141.5870 O   0  0  0  0  0  0  0  0  0  0  0  0
  184.5800  179.1950  140.6250 C   0  0  0  0  0  3  0  0  0  0  0  0
  1 18  1  1  0  0  0
  1 14  1  0  0  0  0
  3 40  1  1  0  0  0
  5 34  1  6  0  0  0
  6 25  2  0  0  0  0
  7 11  2  0  0  0  0
  8 14  1  0  0  0  0
  9  2  1  6  0  0  0
  9 11  1  0  0  0  0
  9 22  1  0  0  0  0
 10 31  1  6  0  0  0
 10 22  1  0  0  0  0
 11 12  1  0  0  0  0
 13 36  1  1  0  0  0
 14 33  1  6  0  0  0
 16 21  2  0  0  0  0
 16 13  1  0  0  0  0
 16  3  1  0  0  0  0
 17 24  1  0  0  0  0
 17  1  1  0  0  0  0
 17 15  1  1  0  0  0
 20 12  1  0  0  0  0
 24 29  1  6  0  0  0
 24  8  1  0  0  0  0
 25 10  1  0  0  0  0
 26 28  1  0  0  0  0
 26 20  1  1  0  0  0
 26  5  1  0  0  0  0
 27 16  2  0  0  0  0
 28  5  1  0  0  0  0
 28 23  1  1  0  0  0
 30  2  1  6  0  0  0
 30 25  1  0  0  0  0
 30  9  1  0  0  0  0
 31 13  1  0  0  0  0
 32  3  1  0  0  0  0
 32 19  2  0  0  0  0
 33 32  1  0  0  0  0
 35  4  1  1  0  0  0
 35 29  1  0  0  0  0
 35 28  1  0  0  0  0
 36 37  1  0  0  0  0
 37 38  1  0  0  0  0
 38 39  2  0  0  0  0
 40 42  1  0  0  0  0
 42 41  2  0  0  0  0
M  END
>  <MODEL>
2

>  <REMARK>
 VINA RESULT:      -4.6      3.463      7.021
  Name = 
  5 active torsions:
  status: ('A' for Active; 'I' for Inactive)
    1  A    between atoms: C_1  and  C_14
    2  A    between atoms: C_1  and  C_25
    3  A    between atoms: C_4  and  C_21
    4  A    between atoms: C_21  and  C_34
    5  A    between atoms: C_24  and  C_25
                            x       y       z     vdW  Elec       q    Type
                         _______ _______ _______ _____ _____    ______ ____

>  <TORSDO>
F 5

$$$$
=
 OpenBabel11062413123D

 42 46  0  0  1  0  0  0  0  0999 V2000
  192.1990  176.7540  137.8340 C   0  0  2  0  0  3  0  0  0  0  0  0
  184.6070  179.6820  139.9490 C   0  0  0  0  0  2  0  0  0  0  0  0
  190.2920  177.0420  142.2760 C   0  0  2  0  0  3  0  0  0  0  0  0
  188.1560  177.2940  134.5940 O   0  0  0  0  0  1  0  0  0  0  0  0
  186.9300  176.9350  138.2030 C   0  0  1  0  0  3  0  0  0  0  0  0
  183.7300  179.8270  143.2130 O   0  0  0  0  0  0  0  0  0  0  0  0
  182.6060  178.0410  138.4340 O   0  0  0  0  0  0  0  0  0  0  0  0
  190.0020  175.7760  137.8650 C   0  0  0  0  0  2  0  0  0  0  0  0
  184.2690  178.2180  140.1300 C   0  0  1  0  0  0  0  0  0  0  0  0
  185.0740  178.0180  142.4460 C   0  0  2  0  0  3  0  0  0  0  0  0
  183.6040  177.5620  138.9490 C   0  0  0  0  0  0  0  0  0  0  0  0
  184.1970  176.3010  138.4000 C   0  0  0  0  0  2  0  0  0  0  0  0
  187.4880  177.5100  143.0140 C   0  0  2  0  0  3  0  0  0  0  0  0
  191.1660  176.1720  138.7640 C   0  0  2  0  0  3  0  0  0  0  0  0
  192.2610  175.4400  135.6450 C   0  0  0  0  0  1  0  0  0  0  0  0
  189.1310  178.2200  142.9580 S   0  0  0  0  0  0  0  0  0  0  0  0
  191.6320  176.5900  136.4200 C   0  0  1  0  0  3  0  0  0  0  0  0
  193.4300  176.1120  138.0060 O   0  0  0  0  0  1  0  0  0  0  0  0
  188.9090  176.0220  140.6470 O   0  0  0  0  0  0  0  0  0  0  0  0
  184.7700  176.4590  137.1180 O   0  0  0  0  0  0  0  0  0  0  0  0
  189.5690  178.6100  144.3480 O   0  0  0  0  0  0  0  0  0  0  0  0
  185.1840  177.4130  141.0520 C   0  0  0  0  0  2  0  0  0  0  0  0
  187.0890  175.2330  136.3120 C   0  0  0  0  0  1  0  0  0  0  0  0
  190.1970  176.3590  136.5370 N   0  0  2  0  0  0  0  0  0  0  0  0
  184.0660  179.1040  142.2890 C   0  0  0  0  0  0  0  0  0  0  0  0
  185.8670  177.3560  137.1840 C   0  0  2  0  0  3  0  0  0  0  0  0
  189.1320  179.4470  142.0880 O   0  0  0  0  0  0  0  0  0  0  0  0
  187.1690  176.6990  136.7180 C   0  0  1  0  0  0  0  0  0  0  0  0
  189.5500  177.6720  136.5210 C   0  0  0  0  0  2  0  0  0  0  0  0
  183.5030  179.2590  140.9200 C   0  0  1  0  0  3  0  0  0  0  0  0
  186.4220  178.5960  142.8710 C   0  0  0  0  0  2  0  0  0  0  0  0
  189.9030  176.7000  140.8690 C   0  0  0  0  0  0  0  0  0  0  0  0
  190.7110  177.2570  139.7380 C   0  0  0  0  0  2  0  0  0  0  0  0
  187.5620  178.1960  138.7640 C   0  0  0  0  0  1  0  0  0  0  0  0
  188.1260  177.6270  135.9510 C   0  0  1  0  0  3  0  0  0  0  0  0
  187.2990  176.7290  144.3060 C   0  0  0  0  0  2  0  0  0  0  0  0
  186.4990  177.5480  145.2990 C   0  0  0  0  0  2  0  0  0  0  0  0
  187.1810  177.5540  146.6290 C   0  0  0  0  0  3  0  0  0  0  0  0
  188.2970  177.0690  146.7490 O   0  0  0  0  0  0  0  0  0  0  0  0
  190.3870  175.8020  143.1610 C   0  0  0  0  0  2  0  0  0  0  0  0
  191.7140  176.1840  145.0820 O   0  0  0  0  0  0  0  0  0  0  0  0
  191.6720  175.7710  143.9310 C   0  0  0  0  0  3  0  0  0  0  0  0
  1 18  1  6  0  0  0
  1 14  1  0  0  0  0
  3 16  1  0  0  0  0
  3 40  1  1  0  0  0
  5 34  1  6  0  0  0
  7 11  2  0  0  0  0
  9  2  1  6  0  0  0
  9 30  1  0  0  0  0
  9 22  1  0  0  0  0
 10 22  1  6  0  0  0
 10 31  1  0  0  0  0
 11  9  1  0  0  0  0
 12 11  1  0  0  0  0
 13 36  1  1  0  0  0
 14  8  1  6  0  0  0
 14 33  1  0  0  0  0
 16 13  1  0  0  0  0
 16 21  2  0  0  0  0
 17 15  1  1  0  0  0
 17 24  1  0  0  0  0
 17  1  1  0  0  0  0
 19 32  2  0  0  0  0
 20 12  1  0  0  0  0
 24 29  1  1  0  0  0
 24  8  1  0  0  0  0
 25 10  1  0  0  0  0
 25  6  2  0  0  0  0
 26 20  1  1  0  0  0
 26  5  1  0  0  0  0
 27 16  2  0  0  0  0
 28 23  1  6  0  0  0
 28 26  1  0  0  0  0
 28  5  1  0  0  0  0
 30  2  1  6  0  0  0
 30 25  1  0  0  0  0
 31 13  1  0  0  0  0
 32  3  1  0  0  0  0
 33 32  1  0  0  0  0
 35  4  1  6  0  0  0
 35 29  1  0  0  0  0
 35 28  1  0  0  0  0
 36 37  1  0  0  0  0
 37 38  1  0  0  0  0
 38 39  2  0  0  0  0
 40 42  1  0  0  0  0
 42 41  2  0  0  0  0
M  END
>  <MODEL>
3

>  <REMARK>
 VINA RESULT:      -4.3      2.448      7.922
  Name = 
  5 active torsions:
  status: ('A' for Active; 'I' for Inactive)
    1  A    between atoms: C_1  and  C_14
    2  A    between atoms: C_1  and  C_25
    3  A    between atoms: C_4  and  C_21
    4  A    between atoms: C_21  and  C_34
    5  A    between atoms: C_24  and  C_25
                            x       y       z     vdW  Elec       q    Type
                         _______ _______ _______ _____ _____    ______ ____

>  <TORSDO>
F 5

$$$$
=
 OpenBabel11062413123D

 42 46  0  0  1  0  0  0  0  0999 V2000
  188.7170  172.8410  134.9280 C   0  0  2  0  0  3  0  0  0  0  0  0
  182.4340  178.0840  136.8580 C   0  0  0  0  0  2  0  0  0  0  0  0
  188.9480  176.8220  137.6760 C   0  0  2  0  0  3  0  0  0  0  0  0
  183.6400  171.7280  134.5940 O   0  0  0  0  0  1  0  0  0  0  0  0
  184.2240  174.5190  137.1480 C   0  0  1  0  0  3  0  0  0  0  0  0
  183.0770  180.8390  138.7120 O   0  0  0  0  0  0  0  0  0  0  0  0
  180.3230  176.4300  138.2000 O   0  0  0  0  0  0  0  0  0  0  0  0
  186.9900  172.8040  136.6010 C   0  0  0  0  0  2  0  0  0  0  0  0
  182.4950  177.4050  138.2090 C   0  0  1  0  0  0  0  0  0  0  0  0
  184.2610  178.8250  139.1670 C   0  0  2  0  0  3  0  0  0  0  0  0
  181.5170  176.2790  138.4070 C   0  0  0  0  0  0  0  0  0  0  0  0
  182.0340  174.9480  138.8600 C   0  0  0  0  0  2  0  0  0  0  0  0
  186.7260  178.3500  138.8380 C   0  0  2  0  0  3  0  0  0  0  0  0
  188.3320  173.4370  136.2580 C   0  0  2  0  0  3  0  0  0  0  0  0
  188.0560  170.3770  134.8350 C   0  0  0  0  0  1  0  0  0  0  0  0
  188.0070  178.3410  137.5870 S   0  0  0  0  0  0  0  0  0  0  0  0
  187.6270  171.8180  134.5940 C   0  0  1  0  0  3  0  0  0  0  0  0
  189.9950  172.2760  134.9960 O   0  0  0  0  0  1  0  0  0  0  0  0
  187.2110  175.3120  138.2300 O   0  0  0  0  0  0  0  0  0  0  0  0
  181.9410  173.9420  137.8730 O   0  0  0  0  0  0  0  0  0  0  0  0
  188.9300  179.5170  137.7890 O   0  0  0  0  0  0  0  0  0  0  0  0
  183.8580  177.3810  138.9020 C   0  0  0  0  0  2  0  0  0  0  0  0
  183.8540  172.0170  137.4580 C   0  0  0  0  0  1  0  0  0  0  0  0
  186.4640  172.1150  135.4210 N   0  0  2  0  0  0  0  0  0  0  0  0
  183.1010  179.6200  138.6730 C   0  0  0  0  0  0  0  0  0  0  0  0
  182.7620  174.2730  136.7640 C   0  0  2  0  0  3  0  0  0  0  0  0
  187.3900  178.4390  136.2180 O   0  0  0  0  0  0  0  0  0  0  0  0
  183.8230  173.2000  136.5010 C   0  0  1  0  0  0  0  0  0  0  0  0
  185.6400  173.0660  134.6740 C   0  0  0  0  0  2  0  0  0  0  0  0
  181.9740  178.8240  138.1150 C   0  0  1  0  0  3  0  0  0  0  0  0
  185.5210  179.1690  138.3750 C   0  0  0  0  0  2  0  0  0  0  0  0
  188.0520  175.6500  137.4080 C   0  0  0  0  0  0  0  0  0  0  0  0
  188.1560  174.9450  136.0910 C   0  0  0  0  0  2  0  0  0  0  0  0
  184.7850  175.5600  136.1940 C   0  0  0  0  0  1  0  0  0  0  0  0
  184.1480  172.9590  135.0170 C   0  0  1  0  0  3  0  0  0  0  0  0
  187.2790  178.8880  140.1500 C   0  0  0  0  0  2  0  0  0  0  0  0
  186.9840  177.9180  141.2770 C   0  0  0  0  0  2  0  0  0  0  0  0
  186.2590  178.6200  142.3810 C   0  0  0  0  0  3  0  0  0  0  0  0
  185.6190  179.6350  142.1480 O   0  0  0  0  0  0  0  0  0  0  0  0
  189.6590  176.7040  139.0220 C   0  0  0  0  0  2  0  0  0  0  0  0
  191.2380  175.0740  138.3550 O   0  0  0  0  0  0  0  0  0  0  0  0
  191.0490  176.1690  138.8680 C   0  0  0  0  0  3  0  0  0  0  0  0
  1 18  1  1  0  0  0
  1 14  1  0  0  0  0
  3 40  1  1  0  0  0
  5 34  1  6  0  0  0
  7 11  2  0  0  0  0
  9  2  1  6  0  0  0
  9 11  1  0  0  0  0
  9 22  1  0  0  0  0
 10 31  1  6  0  0  0
 11 12  1  0  0  0  0
 13 36  1  1  0  0  0
 14 33  1  6  0  0  0
 14  8  1  0  0  0  0
 16  3  1  0  0  0  0
 16 21  2  0  0  0  0
 16 13  1  0  0  0  0
 17 15  1  1  0  0  0
 17  1  1  0  0  0  0
 17 24  1  0  0  0  0
 20 12  1  0  0  0  0
 22 10  1  0  0  0  0
 24 29  1  6  0  0  0
 24  8  1  0  0  0  0
 25  6  2  0  0  0  0
 25 10  1  0  0  0  0
 26  5  1  0  0  0  0
 26 20  1  1  0  0  0
 27 16  2  0  0  0  0
 28 26  1  0  0  0  0
 28  5  1  0  0  0  0
 28 23  1  1  0  0  0
 29 35  1  0  0  0  0
 30  2  1  6  0  0  0
 30  9  1  0  0  0  0
 30 25  1  0  0  0  0
 31 13  1  0  0  0  0
 32  3  1  0  0  0  0
 32 19  2  0  0  0  0
 33 32  1  0  0  0  0
 35  4  1  1  0  0  0
 35 28  1  0  0  0  0
 36 37  1  0  0  0  0
 37 38  1  0  0  0  0
 39 38  2  0  0  0  0
 41 42  2  0  0  0  0
 42 40  1  0  0  0  0
M  END
>  <MODEL>
4

>  <REMARK>
 VINA RESULT:      -4.3      3.265      8.487
  Name = 
  5 active torsions:
  status: ('A' for Active; 'I' for Inactive)
    1  A    between atoms: C_1  and  C_14
    2  A    between atoms: C_1  and  C_25
    3  A    between atoms: C_4  and  C_21
    4  A    between atoms: C_21  and  C_34
    5  A    between atoms: C_24  and  C_25
                            x       y       z     vdW  Elec       q    Type
                         _______ _______ _______ _____ _____    ______ ____

>  <TORSDO>
F 5

$$$$
=
 OpenBabel11062413123D

 42 46  0  0  1  0  0  0  0  0999 V2000
  191.8820  174.7670  135.6330 C   0  0  2  0  0  3  0  0  0  0  0  0
  183.5260  174.8420  134.7020 C   0  0  0  0  0  2  0  0  0  0  0  0
  188.7850  178.1670  137.1500 C   0  0  2  0  0  3  0  0  0  0  0  0
  188.9180  170.6120  134.5940 O   0  0  0  0  0  1  0  0  0  0  0  0
  186.8470  173.3220  136.3330 C   0  0  1  0  0  3  0  0  0  0  0  0
  181.7540  177.5040  135.8060 O   0  0  0  0  0  0  0  0  0  0  0  0
  182.5010  172.3370  135.9920 O   0  0  0  0  0  0  0  0  0  0  0  0
  190.0740  173.7640  136.8610 C   0  0  0  0  0  2  0  0  0  0  0  0
  183.5190  174.4820  136.1720 C   0  0  1  0  0  0  0  0  0  0  0  0
  183.6600  176.7810  137.0360 C   0  0  2  0  0  3  0  0  0  0  0  0
  183.3980  173.0120  136.4720 C   0  0  0  0  0  0  0  0  0  0  0  0
  184.4120  172.3760  137.3740 C   0  0  0  0  0  2  0  0  0  0  0  0
  185.8620  177.9870  137.3620 C   0  0  2  0  0  3  0  0  0  0  0  0
  190.8030  175.0830  136.6360 C   0  0  2  0  0  3  0  0  0  0  0  0
  192.8800  172.4640  136.0970 C   0  0  0  0  0  1  0  0  0  0  0  0
  187.2270  178.7030  136.4520 S   0  0  0  0  0  0  0  0  0  0  0  0
  191.7960  173.2580  135.3820 C   0  0  1  0  0  3  0  0  0  0  0  0
  193.1320  175.1710  136.1150 O   0  0  0  0  0  1  0  0  0  0  0  0
  188.2130  175.9460  137.7370 O   0  0  0  0  0  0  0  0  0  0  0  0
  185.2670  171.4700  136.7090 O   0  0  0  0  0  0  0  0  0  0  0  0
  187.1450  180.2080  136.5020 O   0  0  0  0  0  0  0  0  0  0  0  0
  184.3040  175.4030  137.1070 C   0  0  0  0  0  2  0  0  0  0  0  0
  187.9460  171.2120  137.2460 C   0  0  0  0  0  1  0  0  0  0  0  0
  190.4890  172.8020  135.8390 N   0  0  2  0  0  0  0  0  0  0  0  0
  182.5030  176.5920  136.1150 C   0  0  0  0  0  0  0  0  0  0  0  0
  186.0460  172.1570  135.7430 C   0  0  2  0  0  3  0  0  0  0  0  0
  187.1740  178.2620  135.0140 O   0  0  0  0  0  0  0  0  0  0  0  0
  187.5460  172.0080  136.0110 C   0  0  1  0  0  0  0  0  0  0  0  0
  189.5720  172.9270  134.7050 C   0  0  0  0  0  2  0  0  0  0  0  0
  182.3320  175.2130  135.5830 C   0  0  1  0  0  3  0  0  0  0  0  0
  184.6470  177.7890  136.4540 C   0  0  0  0  0  2  0  0  0  0  0  0
  188.9070  176.6770  137.0420 C   0  0  0  0  0  0  0  0  0  0  0  0
  189.8400  176.0980  136.0240 C   0  0  0  0  0  2  0  0  0  0  0  0
  186.9650  174.3930  135.2620 C   0  0  0  0  0  1  0  0  0  0  0  0
  188.4240  171.9100  134.7520 C   0  0  1  0  0  3  0  0  0  0  0  0
  185.5120  178.8640  138.5560 C   0  0  0  0  0  2  0  0  0  0  0  0
  185.5840  178.0540  139.8350 C   0  0  0  0  0  2  0  0  0  0  0  0
  185.8720  178.9530  140.9960 C   0  0  0  0  0  3  0  0  0  0  0  0
  186.7030  178.6280  141.8320 O   0  0  0  0  0  0  0  0  0  0  0  0
  188.9260  178.6510  138.5900 C   0  0  0  0  0  2  0  0  0  0  0  0
  189.7600  177.6410  140.5600 O   0  0  0  0  0  0  0  0  0  0  0  0
  189.9090  177.8210  139.3590 C   0  0  0  0  0  3  0  0  0  0  0  0
  1 18  1  1  0  0  0
  1 14  1  0  0  0  0
  3 40  1  1  0  0  0
  5 34  1  6  0  0  0
  6 25  2  0  0  0  0
  7 11  2  0  0  0  0
  9  2  1  6  0  0  0
  9 11  1  0  0  0  0
  9 22  1  0  0  0  0
 10 31  1  6  0  0  0
 10 22  1  0  0  0  0
 11 12  1  0  0  0  0
 13 36  1  1  0  0  0
 14 33  1  6  0  0  0
 14  8  1  0  0  0  0
 16 21  2  0  0  0  0
 16  3  1  0  0  0  0
 16 13  1  0  0  0  0
 17  1  1  0  0  0  0
 17 24  1  0  0  0  0
 17 15  1  1  0  0  0
 20 12  1  0  0  0  0
 24 29  1  6  0  0  0
 24  8  1  0  0  0  0
 25 10  1  0  0  0  0
 26 28  1  0  0  0  0
 26  5  1  0  0  0  0
 26 20  1  1  0  0  0
 27 16  2  0  0  0  0
 28  5  1  0  0  0  0
 28 23  1  1  0  0  0
 29 35  1  0  0  0  0
 30  2  1  6  0  0  0
 30 25  1  0  0  0  0
 30  9  1  0  0  0  0
 31 13  1  0  0  0  0
 32  3  1  0  0  0  0
 32 19  2  0  0  0  0
 33 32  1  0  0  0  0
 35  4  1  1  0  0  0
 35 28  1  0  0  0  0
 36 37  1  0  0  0  0
 37 38  1  0  0  0  0
 38 39  2  0  0  0  0
 40 42  1  0  0  0  0
 42 41  2  0  0  0  0
M  END
>  <MODEL>
5

>  <REMARK>
 VINA RESULT:      -4.2      3.447      8.041
  Name = 
  5 active torsions:
  status: ('A' for Active; 'I' for Inactive)
    1  A    between atoms: C_1  and  C_14
    2  A    between atoms: C_1  and  C_25
    3  A    between atoms: C_4  and  C_21
    4  A    between atoms: C_21  and  C_34
    5  A    between atoms: C_24  and  C_25
                            x       y       z     vdW  Elec       q    Type
                         _______ _______ _______ _____ _____    ______ ____

>  <TORSDO>
F 5

$$$$
=
 OpenBabel11062413123D

 42 46  0  0  1  0  0  0  0  0999 V2000
  190.6490  176.9940  136.8130 C   0  0  2  0  0  3  0  0  0  0  0  0
  183.5860  179.5850  140.5670 C   0  0  0  0  0  2  0  0  0  0  0  0
  189.8110  177.3570  141.5680 C   0  0  2  0  0  3  0  0  0  0  0  0
  185.9390  177.1790  134.5960 O   0  0  0  0  0  1  0  0  0  0  0  0
  185.6090  176.9000  138.4000 C   0  0  1  0  0  3  0  0  0  0  0  0
  183.4840  179.8130  143.9410 O   0  0  0  0  0  0  0  0  0  0  0  0
  181.3960  177.7760  139.6070 O   0  0  0  0  0  0  0  0  0  0  0  0
  188.5850  175.9000  137.3840 C   0  0  0  0  0  2  0  0  0  0  0  0
  183.3920  178.1130  140.8620 C   0  0  1  0  0  0  0  0  0  0  0  0
  184.7240  178.0510  142.9290 C   0  0  2  0  0  3  0  0  0  0  0  0
  182.5140  177.3740  139.8870 C   0  0  0  0  0  0  0  0  0  0  0  0
  183.0420  176.1260  139.2480 C   0  0  0  0  0  2  0  0  0  0  0  0
  187.2310  177.7010  142.9290 C   0  0  2  0  0  3  0  0  0  0  0  0
  189.8990  176.3950  137.9740 C   0  0  2  0  0  3  0  0  0  0  0  0
  190.2840  175.5980  134.7060 C   0  0  0  0  0  1  0  0  0  0  0  0
  188.7680  178.4970  142.4720 S   0  0  0  0  0  0  0  0  0  0  0  0
  189.7800  176.7420  135.5760 C   0  0  1  0  0  3  0  0  0  0  0  0
  191.9250  176.4290  136.7090 O   0  0  0  0  0  1  0  0  0  0  0  0
  188.1540  176.1980  140.3370 O   0  0  0  0  0  0  0  0  0  0  0  0
  183.2900  176.2630  137.8650 O   0  0  0  0  0  0  0  0  0  0  0  0
  189.4910  178.9670  143.7100 O   0  0  0  0  0  0  0  0  0  0  0  0
  184.5450  177.3970  141.5650 C   0  0  0  0  0  2  0  0  0  0  0  0
  185.4320  175.1350  136.5700 C   0  0  0  0  0  1  0  0  0  0  0  0
  188.4290  176.4380  136.0310 N   0  0  2  0  0  0  0  0  0  0  0  0
  183.6410  179.0740  142.9840 C   0  0  0  0  0  0  0  0  0  0  0  0
  184.3140  177.2210  137.6470 C   0  0  2  0  0  3  0  0  0  0  0  0
  188.4890  179.6860  141.5930 O   0  0  0  0  0  0  0  0  0  0  0  0
  185.5110  176.6180  136.9070 C   0  0  1  0  0  0  0  0  0  0  0  0
  187.7150  177.7110  136.1330 C   0  0  0  0  0  2  0  0  0  0  0  0
  182.7670  179.1410  141.7800 C   0  0  1  0  0  3  0  0  0  0  0  0
  186.0940  178.7200  143.0110 C   0  0  0  0  0  2  0  0  0  0  0  0
  189.1280  176.9380  140.3010 C   0  0  0  0  0  0  0  0  0  0  0  0
  189.6150  177.4930  138.9980 C   0  0  0  0  0  2  0  0  0  0  0  0
  186.2730  178.2170  138.7630 C   0  0  0  0  0  1  0  0  0  0  0  0
  186.2040  177.5650  135.9130 C   0  0  1  0  0  3  0  0  0  0  0  0
  187.3970  176.9630  144.2510 C   0  0  0  0  0  2  0  0  0  0  0  0
  187.0660  177.8850  145.4070 C   0  0  0  0  0  2  0  0  0  0  0  0
  187.8860  177.5220  146.6050 C   0  0  0  0  0  3  0  0  0  0  0  0
  189.0630  177.2190  146.4730 O   0  0  0  0  0  0  0  0  0  0  0  0
  190.1870  176.1620  142.4390 C   0  0  0  0  0  2  0  0  0  0  0  0
  191.6420  175.6970  144.2460 O   0  0  0  0  0  0  0  0  0  0  0  0
  191.3010  176.4960  143.3830 C   0  0  0  0  0  3  0  0  0  0  0  0
  1 18  1  6  0  0  0
  1 14  1  0  0  0  0
  3 40  1  1  0  0  0
  3 16  1  0  0  0  0
  5 34  1  6  0  0  0
  7 11  2  0  0  0  0
  9  2  1  6  0  0  0
  9 22  1  0  0  0  0
  9 30  1  0  0  0  0
 10 22  1  6  0  0  0
 10 25  1  0  0  0  0
 10 31  1  0  0  0  0
 11  9  1  0  0  0  0
 12 11  1  0  0  0  0
 13 31  1  0  0  0  0
 13 36  1  1  0  0  0
 14  8  1  6  0  0  0
 14 33  1  0  0  0  0
 16 13  1  0  0  0  0
 16 21  2  0  0  0  0
 17 15  1  1  0  0  0
 17 24  1  0  0  0  0
 17  1  1  0  0  0  0
 20 12  1  0  0  0  0
 24 29  1  1  0  0  0
 24  8  1  0  0  0  0
 25  6  2  0  0  0  0
 26 20  1  1  0  0  0
 26  5  1  0  0  0  0
 27 16  2  0  0  0  0
 28 23  1  6  0  0  0
 28 26  1  0  0  0  0
 28  5  1  0  0  0  0
 30  2  1  6  0  0  0
 30 25  1  0  0  0  0
 32 19  2  0  0  0  0
 32  3  1  0  0  0  0
 33 32  1  0  0  0  0
 35  4  1  6  0  0  0
 35 29  1  0  0  0  0
 35 28  1  0  0  0  0
 36 37  1  0  0  0  0
 37 38  1  0  0  0  0
 39 38  2  0  0  0  0
 40 42  1  0  0  0  0
 42 41  2  0  0  0  0
M  END
>  <MODEL>
6

>  <REMARK>
 VINA RESULT:      -3.6      2.374      8.119
  Name = 
  5 active torsions:
  status: ('A' for Active; 'I' for Inactive)
    1  A    between atoms: C_1  and  C_14
    2  A    between atoms: C_1  and  C_25
    3  A    between atoms: C_4  and  C_21
    4  A    between atoms: C_21  and  C_34
    5  A    between atoms: C_24  and  C_25
                            x       y       z     vdW  Elec       q    Type
                         _______ _______ _______ _____ _____    ______ ____

>  <TORSDO>
F 5

$$$$
=
 OpenBabel11062413123D

 42 46  0  0  1  0  0  0  0  0999 V2000
  191.4350  177.1070  137.8470 C   0  0  2  0  0  3  0  0  0  0  0  0
  184.9720  180.1820  142.2590 C   0  0  0  0  0  2  0  0  0  0  0  0
  190.7330  176.8090  142.6290 C   0  0  2  0  0  3  0  0  0  0  0  0
  186.7990  178.4450  135.8860 O   0  0  0  0  0  1  0  0  0  0  0  0
  186.4760  177.5960  139.6040 C   0  0  1  0  0  3  0  0  0  0  0  0
  184.9540  179.8600  145.6270 O   0  0  0  0  0  0  0  0  0  0  0  0
  182.4920  178.9510  141.1100 O   0  0  0  0  0  0  0  0  0  0  0  0
  189.2220  176.2940  138.3180 C   0  0  0  0  0  2  0  0  0  0  0  0
  184.5320  178.7360  142.3190 C   0  0  1  0  0  0  0  0  0  0  0  0
  185.8600  178.1090  144.2920 C   0  0  2  0  0  3  0  0  0  0  0  0
  183.5280  178.3270  141.2740 C   0  0  0  0  0  0  0  0  0  0  0  0
  183.8240  177.1320  140.4210 C   0  0  0  0  0  2  0  0  0  0  0  0
  188.2690  177.3480  144.1330 C   0  0  2  0  0  3  0  0  0  0  0  0
  190.6080  176.4570  138.9270 C   0  0  2  0  0  3  0  0  0  0  0  0
  190.8090  176.1620  135.5590 C   0  0  0  0  0  1  0  0  0  0  0  0
  189.9140  177.9400  143.7480 S   0  0  0  0  0  0  0  0  0  0  0  0
  190.5210  177.2130  136.6230 C   0  0  1  0  0  3  0  0  0  0  0  0
  192.5930  176.3610  137.6010 O   0  0  0  0  0  1  0  0  0  0  0  0
  188.8870  176.1640  141.2960 O   0  0  0  0  0  0  0  0  0  0  0  0
  184.0750  177.4540  139.0690 O   0  0  0  0  0  0  0  0  0  0  0  0
  190.7230  178.0690  145.0140 O   0  0  0  0  0  0  0  0  0  0  0  0
  185.5530  177.7300  142.8490 C   0  0  0  0  0  2  0  0  0  0  0  0
  185.9740  176.2140  137.5220 C   0  0  0  0  0  1  0  0  0  0  0  0
  189.1430  177.0680  137.0780 N   0  0  2  0  0  0  0  0  0  0  0  0
  184.9690  179.2740  144.5560 C   0  0  0  0  0  0  0  0  0  0  0  0
  185.2450  178.2490  138.9680 C   0  0  2  0  0  3  0  0  0  0  0  0
  189.8330  179.2880  143.0850 O   0  0  0  0  0  0  0  0  0  0  0  0
  186.3110  177.5860  138.0910 C   0  0  1  0  0  0  0  0  0  0  0  0
  188.6600  178.4080  137.4140 C   0  0  0  0  0  2  0  0  0  0  0  0
  184.1050  179.6860  143.4170 C   0  0  1  0  0  3  0  0  0  0  0  0
  187.3250  178.5150  144.4250 C   0  0  0  0  0  2  0  0  0  0  0  0
  189.9730  176.7260  141.3400 C   0  0  0  0  0  0  0  0  0  0  0  0
  190.5310  177.4010  140.1250 C   0  0  0  0  0  2  0  0  0  0  0  0
  187.3600  178.7030  140.1490 C   0  0  0  0  0  1  0  0  0  0  0  0
  187.1430  178.5560  137.2350 C   0  0  1  0  0  3  0  0  0  0  0  0
  188.3220  176.3830  145.3100 C   0  0  0  0  0  2  0  0  0  0  0  0
  187.9830  177.1110  146.5950 C   0  0  0  0  0  2  0  0  0  0  0  0
  188.9800  176.7700  147.6570 C   0  0  0  0  0  3  0  0  0  0  0  0
  190.0850  176.3490  147.3480 O   0  0  0  0  0  0  0  0  0  0  0  0
  190.9100  175.4390  143.2800 C   0  0  0  0  0  2  0  0  0  0  0  0
  192.4310  174.4020  144.7650 O   0  0  0  0  0  0  0  0  0  0  0  0
  191.9980  175.4530  144.3090 C   0  0  0  0  0  3  0  0  0  0  0  0
  1 18  1  6  0  0  0
  1 14  1  0  0  0  0
  3 40  1  1  0  0  0
  3 16  1  0  0  0  0
  5 34  1  6  0  0  0
  7 11  2  0  0  0  0
  9  2  1  6  0  0  0
  9 22  1  0  0  0  0
  9 30  1  0  0  0  0
 10 22  1  6  0  0  0
 10 31  1  0  0  0  0
 10 25  1  0  0  0  0
 11  9  1  0  0  0  0
 12 11  1  0  0  0  0
 13 31  1  0  0  0  0
 13 36  1  1  0  0  0
 14  8  1  6  0  0  0
 14 33  1  0  0  0  0
 16 13  1  0  0  0  0
 16 21  2  0  0  0  0
 17 15  1  6  0  0  0
 17 24  1  0  0  0  0
 17  1  1  0  0  0  0
 19 32  2  0  0  0  0
 20 12  1  0  0  0  0
 24 29  1  1  0  0  0
 24  8  1  0  0  0  0
 25  6  2  0  0  0  0
 26 20  1  1  0  0  0
 26  5  1  0  0  0  0
 27 16  2  0  0  0  0
 28 23  1  6  0  0  0
 28 26  1  0  0  0  0
 28  5  1  0  0  0  0
 30  2  1  6  0  0  0
 30 25  1  0  0  0  0
 32  3  1  0  0  0  0
 33 32  1  0  0  0  0
 35  4  1  6  0  0  0
 35 29  1  0  0  0  0
 35 28  1  0  0  0  0
 36 37  1  0  0  0  0
 37 38  1  0  0  0  0
 39 38  2  0  0  0  0
 40 42  1  0  0  0  0
 42 41  2  0  0  0  0
M  END
>  <MODEL>
7

>  <REMARK>
 VINA RESULT:      -3.2      2.441      8.353
  Name = 
  5 active torsions:
  status: ('A' for Active; 'I' for Inactive)
    1  A    between atoms: C_1  and  C_14
    2  A    between atoms: C_1  and  C_25
    3  A    between atoms: C_4  and  C_21
    4  A    between atoms: C_21  and  C_34
    5  A    between atoms: C_24  and  C_25
                            x       y       z     vdW  Elec       q    Type
                         _______ _______ _______ _____ _____    ______ ____

>  <TORSDO>
F 5

$$$$
=
 OpenBabel11062413123D

 42 46  0  0  1  0  0  0  0  0999 V2000
  180.8680  178.4800  141.1190 C   0  0  2  0  0  3  0  0  0  0  0  0
  188.4160  178.8530  137.4360 C   0  0  0  0  0  2  0  0  0  0  0  0
  182.3590  176.0310  137.2160 C   0  0  2  0  0  3  0  0  0  0  0  0
  185.2280  180.2670  143.3360 O   0  0  0  0  0  1  0  0  0  0  0  0
  186.0760  177.8250  140.5120 C   0  0  1  0  0  3  0  0  0  0  0  0
  188.9860  177.0580  134.6260 O   0  0  0  0  0  0  0  0  0  0  0  0
  190.4270  178.1170  139.5340 O   0  0  0  0  0  0  0  0  0  0  0  0
  182.9750  177.4080  141.5590 C   0  0  0  0  0  2  0  0  0  0  0  0
  188.6280  177.5090  138.0970 C   0  0  1  0  0  0  0  0  0  0  0  0
  187.5940  176.1480  136.3280 C   0  0  2  0  0  3  0  0  0  0  0  0
  189.3530  177.5500  139.4160 C   0  0  0  0  0  0  0  0  0  0  0  0
  188.7250  176.8840  140.6020 C   0  0  0  0  0  2  0  0  0  0  0  0
  185.1060  175.6880  136.2360 C   0  0  2  0  0  3  0  0  0  0  0  0
  181.7620  177.3670  140.6380 C   0  0  2  0  0  3  0  0  0  0  0  0
  180.9180  178.6220  143.6670 C   0  0  0  0  0  1  0  0  0  0  0  0
  183.5320  176.4900  135.9450 S   0  0  0  0  0  0  0  0  0  0  0  0
  181.5530  179.0670  142.3570 C   0  0  1  0  0  3  0  0  0  0  0  0
  179.5820  177.9950  141.3840 O   0  0  0  0  0  1  0  0  0  0  0  0
  183.8130  175.9400  139.0820 O   0  0  0  0  0  0  0  0  0  0  0  0
  188.2900  177.7910  141.5930 O   0  0  0  0  0  0  0  0  0  0  0  0
  182.9930  176.0880  134.5950 O   0  0  0  0  0  0  0  0  0  0  0  0
  187.5740  176.4360  137.8240 C   0  0  0  0  0  2  0  0  0  0  0  0
  185.9740  177.4940  143.0370 C   0  0  0  0  0  1  0  0  0  0  0  0
  182.9500  178.6490  142.3360 N   0  0  2  0  0  0  0  0  0  0  0  0
  188.6890  177.0150  135.8080 C   0  0  0  0  0  0  0  0  0  0  0  0
  187.2600  178.6180  141.0750 C   0  0  2  0  0  3  0  0  0  0  0  0
  183.7030  177.9850  135.9740 O   0  0  0  0  0  0  0  0  0  0  0  0
  185.9640  178.4840  141.8800 C   0  0  1  0  0  0  0  0  0  0  0  0
  183.6890  179.6640  141.5850 C   0  0  0  0  0  2  0  0  0  0  0  0
  189.3890  177.8390  136.8310 C   0  0  1  0  0  3  0  0  0  0  0  0
  186.2580  176.5410  135.7030 C   0  0  0  0  0  2  0  0  0  0  0  0
  182.8540  176.4880  138.5560 C   0  0  0  0  0  0  0  0  0  0  0  0
  182.2000  177.6670  139.2060 C   0  0  0  0  0  2  0  0  0  0  0  0
  185.4880  178.6240  139.3630 C   0  0  0  0  0  1  0  0  0  0  0  0
  185.1540  179.7840  142.0270 C   0  0  1  0  0  3  0  0  0  0  0  0
  185.1140  174.3050  135.6020 C   0  0  0  0  0  2  0  0  0  0  0  0
  185.3830  173.2490  136.6560 C   0  0  0  0  0  2  0  0  0  0  0  0
  186.6680  172.5430  136.3600 C   0  0  0  0  0  3  0  0  0  0  0  0
  187.5600  172.5170  137.1950 O   0  0  0  0  0  0  0  0  0  0  0  0
  182.0900  174.5290  137.1860 C   0  0  0  0  0  2  0  0  0  0  0  0
  180.2410  173.0900  137.5110 O   0  0  0  0  0  0  0  0  0  0  0  0
  180.7160  174.2040  137.6870 C   0  0  0  0  0  3  0  0  0  0  0  0
  1 18  1  1  0  0  0
  1 17  1  0  0  0  0
  3 40  1  1  0  0  0
  3 32  1  0  0  0  0
  5 34  1  6  0  0  0
  5 26  1  0  0  0  0
  5 28  1  0  0  0  0
  6 25  2  0  0  0  0
  9  2  1  1  0  0  0
  9 11  1  0  0  0  0
 10 31  1  6  0  0  0
 10 22  1  0  0  0  0
 11  7  2  0  0  0  0
 11 12  1  0  0  0  0
 12 20  1  0  0  0  0
 13 36  1  6  0  0  0
 14 33  1  6  0  0  0
 14  1  1  0  0  0  0
 14  8  1  0  0  0  0
 16 27  2  0  0  0  0
 16 13  1  0  0  0  0
 16  3  1  0  0  0  0
 17 15  1  1  0  0  0
 21 16  2  0  0  0  0
 22  9  1  0  0  0  0
 24  8  1  6  0  0  0
 24 17  1  0  0  0  0
 25 10  1  0  0  0  0
 25 30  1  0  0  0  0
 26 20  1  1  0  0  0
 26 28  1  0  0  0  0
 28 35  1  0  0  0  0
 28 23  1  1  0  0  0
 29 35  1  0  0  0  0
 29 24  1  0  0  0  0
 30  2  1  6  0  0  0
 30  9  1  0  0  0  0
 31 13  1  0  0  0  0
 32 19  2  0  0  0  0
 32 33  1  0  0  0  0
 35  4  1  1  0  0  0
 36 37  1  0  0  0  0
 38 37  1  0  0  0  0
 38 39  2  0  0  0  0
 40 42  1  0  0  0  0
 41 42  2  0  0  0  0
M  END
>  <MODEL>
8

>  <REMARK>
 VINA RESULT:      -2.7      2.295      3.973
  Name = 
  5 active torsions:
  status: ('A' for Active; 'I' for Inactive)
    1  A    between atoms: C_1  and  C_14
    2  A    between atoms: C_1  and  C_25
    3  A    between atoms: C_4  and  C_21
    4  A    between atoms: C_21  and  C_34
    5  A    between atoms: C_24  and  C_25
                            x       y       z     vdW  Elec       q    Type
                         _______ _______ _______ _____ _____    ______ ____

>  <TORSDO>
F 5

$$$$
=
 OpenBabel11062413123D

 42 46  0  0  1  0  0  0  0  0999 V2000
  183.3340  179.3610  139.1390 C   0  0  2  0  0  3  0  0  0  0  0  0
  191.4200  178.5300  141.2850 C   0  0  0  0  0  2  0  0  0  0  0  0
  186.8980  177.4390  136.4820 C   0  0  2  0  0  3  0  0  0  0  0  0
  185.2020  179.5050  143.9980 O   0  0  0  0  0  1  0  0  0  0  0  0
  187.5700  177.5400  141.7200 C   0  0  1  0  0  3  0  0  0  0  0  0
  193.6100  177.2440  139.0500 O   0  0  0  0  0  0  0  0  0  0  0  0
  191.4720  176.9050  143.8050 O   0  0  0  0  0  0  0  0  0  0  0  0
  184.5420  177.7240  140.4200 C   0  0  0  0  0  2  0  0  0  0  0  0
  191.0570  177.0720  141.4660 C   0  0  1  0  0  0  0  0  0  0  0  0
  191.3860  176.3980  139.1230 C   0  0  2  0  0  3  0  0  0  0  0  0
  190.7180  176.6650  142.8750 C   0  0  0  0  0  0  0  0  0  0  0  0
  189.4220  175.9580  143.1270 C   0  0  0  0  0  2  0  0  0  0  0  0
  189.5720  176.6120  137.3710 C   0  0  2  0  0  3  0  0  0  0  0  0
  184.2530  178.1760  138.9940 C   0  0  2  0  0  3  0  0  0  0  0  0
  181.6810  178.9760  141.0460 C   0  0  0  0  0  1  0  0  0  0  0  0
  188.6440  177.8280  136.4410 S   0  0  0  0  0  0  0  0  0  0  0  0
  183.0530  179.4960  140.6380 C   0  0  1  0  0  3  0  0  0  0  0  0
  182.1730  179.1760  138.3800 O   0  0  0  0  0  1  0  0  0  0  0  0
  186.7290  176.6130  138.6940 O   0  0  0  0  0  0  0  0  0  0  0  0
  188.4920  176.7310  143.8570 O   0  0  0  0  0  0  0  0  0  0  0  0
  189.1200  177.8530  135.0100 O   0  0  0  0  0  0  0  0  0  0  0  0
  190.3920  176.3790  140.2760 C   0  0  0  0  0  2  0  0  0  0  0  0
  185.7910  176.7500  143.3670 C   0  0  0  0  0  1  0  0  0  0  0  0
  184.0800  178.7510  141.3560 N   0  0  2  0  0  0  0  0  0  0  0  0
  192.5990  177.0440  139.7020 C   0  0  0  0  0  0  0  0  0  0  0  0
  188.1210  177.8780  143.1090 C   0  0  2  0  0  3  0  0  0  0  0  0
  188.8410  179.1940  137.0410 O   0  0  0  0  0  0  0  0  0  0  0  0
  186.6130  177.9200  142.8430 C   0  0  1  0  0  0  0  0  0  0  0  0
  185.1900  179.6740  141.5960 C   0  0  0  0  0  2  0  0  0  0  0  0
  192.4860  177.4430  141.1310 C   0  0  1  0  0  3  0  0  0  0  0  0
  190.8340  177.2330  137.9710 C   0  0  0  0  0  2  0  0  0  0  0  0
  186.4000  177.4800  137.8960 C   0  0  0  0  0  0  0  0  0  0  0  0
  185.5500  178.6340  138.3320 C   0  0  0  0  0  2  0  0  0  0  0  0
  187.9460  178.6740  140.7830 C   0  0  0  0  0  1  0  0  0  0  0  0
  185.9900  179.3270  142.8580 C   0  0  1  0  0  3  0  0  0  0  0  0
  189.9190  175.4260  136.4820 C   0  0  0  0  0  2  0  0  0  0  0  0
  189.6510  174.1280  137.2160 C   0  0  0  0  0  2  0  0  0  0  0  0
  188.7770  173.2400  136.3880 C   0  0  0  0  0  3  0  0  0  0  0  0
  187.6990  172.8620  136.8230 O   0  0  0  0  0  0  0  0  0  0  0  0
  186.6290  176.0920  135.8180 C   0  0  0  0  0  2  0  0  0  0  0  0
  184.5560  175.0400  136.2590 O   0  0  0  0  0  0  0  0  0  0  0  0
  185.1650  175.8690  135.5940 C   0  0  0  0  0  3  0  0  0  0  0  0
  1 18  1  6  0  0  0
  1 17  1  0  0  0  0
  2  9  1  0  0  0  0
  3 40  1  1  0  0  0
  3 32  1  0  0  0  0
  5 34  1  6  0  0  0
  5 28  1  0  0  0  0
  5 26  1  0  0  0  0
  6 25  2  0  0  0  0
  9 22  1  6  0  0  0
  9 11  1  0  0  0  0
 10 31  1  6  0  0  0
 10 25  1  0  0  0  0
 10 22  1  0  0  0  0
 11 12  1  0  0  0  0
 11  7  2  0  0  0  0
 12 20  1  0  0  0  0
 13 36  1  6  0  0  0
 13 31  1  0  0  0  0
 14 33  1  1  0  0  0
 14  1  1  0  0  0  0
 14  8  1  0  0  0  0
 16  3  1  0  0  0  0
 16 27  2  0  0  0  0
 16 13  1  0  0  0  0
 17 15  1  6  0  0  0
 17 24  1  0  0  0  0
 21 16  2  0  0  0  0
 24  8  1  6  0  0  0
 24 29  1  0  0  0  0
 25 30  1  0  0  0  0
 26 20  1  1  0  0  0
 28 35  1  0  0  0  0
 28 26  1  0  0  0  0
 28 23  1  1  0  0  0
 29 35  1  0  0  0  0
 30  2  1  6  0  0  0
 30  9  1  0  0  0  0
 32 33  1  0  0  0  0
 32 19  2  0  0  0  0
 35  4  1  1  0  0  0
 36 37  1  0  0  0  0
 38 39  2  0  0  0  0
 38 37  1  0  0  0  0
 42 40  1  0  0  0  0
 42 41  2  0  0  0  0
M  END
>  <MODEL>
9

>  <REMARK>
 VINA RESULT:      -2.7      2.222      5.349
  Name = 
  5 active torsions:
  status: ('A' for Active; 'I' for Inactive)
    1  A    between atoms: C_1  and  C_14
    2  A    between atoms: C_1  and  C_25
    3  A    between atoms: C_4  and  C_21
    4  A    between atoms: C_21  and  C_34
    5  A    between atoms: C_24  and  C_25
                            x       y       z     vdW  Elec       q    Type
                         _______ _______ _______ _____ _____    ______ ____

>  <TORSDO>
F 5

$$$$
