=
 OpenBabel11062414483D

 33 38  0  0  1  0  0  0  0  0999 V2000
  191.0060  177.6110  139.7600 N   0  0  0  0  0  0  0  0  0  0  0  0
  189.7700  176.9800  139.7890 C   0  0  1  0  0  3  0  0  0  0  0  0
  189.9650  176.8370  142.1390 C   0  0  0  0  0  0  0  0  0  0  0  0
  191.2130  177.4590  142.0660 C   0  0  1  0  0  0  0  0  0  0  0  0
  189.1930  176.5720  141.0270 C   0  0  0  0  0  3  0  0  0  0  0  0
  190.1530  176.7760  143.5610 C   0  0  2  0  0  0  0  0  0  0  0  0
  191.7670  177.8630  140.8740 C   0  0  0  0  0  3  0  0  0  0  0  0
  191.4210  177.4100  143.5120 N   0  0  0  0  0  2  0  0  0  0  0  0
  184.7960  176.6660  137.3430 C   0  0  2  0  0  3  0  0  0  0  0  0
  187.1420  177.1990  137.1830 N   0  0  0  0  0  0  0  0  0  0  0  0
  187.0580  178.1360  139.2610 N   0  0  0  0  0  2  0  0  0  0  0  0
  185.8210  177.8070  137.2610 C   0  0  2  0  0  3  0  0  0  0  0  0
  183.8110  177.5160  139.4360 C   0  0  0  0  0  2  0  0  0  0  0  0
  185.9100  178.6600  138.5470 C   0  0  1  0  0  3  0  0  0  0  0  0
  187.7700  177.3710  138.2980 C   0  0  0  0  0  0  0  0  0  0  0  0
  184.6650  178.7800  139.4330 C   0  0  1  0  0  3  0  0  0  0  0  0
  184.4540  176.0400  135.7150 Cl  0  0  0  0  0  0  0  0  0  0  0  0
  189.0560  176.7780  138.5560 N   0  0  0  0  0  0  0  0  0  0  0  0
  183.8380  179.9770  138.9990 C   0  0  0  0  0  1  0  0  0  0  0  0
  183.5020  177.0820  138.0140 C   0  0  0  0  0  2  0  0  0  0  0  0
  189.6090  175.8460  137.5800 C   0  0  0  0  0  1  0  0  0  0  0  0
  188.0340  177.3170  146.4580 C   0  0  1  0  0  0  0  0  0  0  0  0
  187.7200  177.1930  144.0510 C   0  0  0  0  0  2  0  0  0  0  0  0
  187.1890  176.6750  145.3720 C   0  0  0  0  0  2  0  0  0  0  0  0
  189.1440  177.6620  144.3000 C   0  0  1  0  0  3  0  0  0  0  0  0
  188.2150  176.3270  147.6000 C   0  0  0  0  0  1  0  0  0  0  0  0
  189.3790  177.5710  145.7990 C   0  0  0  0  0  2  0  0  0  0  0  0
  187.4030  178.6440  146.9450 C   0  0  2  0  0  3  0  0  0  0  0  0
  187.6690  178.8940  148.4230 C   0  0  0  0  0  1  0  0  0  0  0  0
  185.8980  178.7190  146.7020 C   0  0  0  0  0  2  0  0  0  0  0  0
  185.6070  179.7120  145.7650 O   0  0  0  0  0  0  0  0  0  0  0  0
  183.4520  178.9770  145.7240 O   0  0  0  0  0  1  0  0  0  0  0  0
  184.6110  179.1530  144.9660 C   0  0  0  0  0  2  0  0  0  0  0  0
  1  2  1  0  0  0  0
  1  7  2  0  0  0  0
  2 18  1  1  0  0  0
  2  5  1  0  0  0  0
  4  7  1  6  0  0  0
  4  3  1  0  0  0  0
  4  8  1  0  0  0  0
  4  6  1  0  0  0  0
  5  3  2  0  0  0  0
  6  3  1  1  0  0  0
  6 25  1  0  0  0  0
  8  6  1  0  0  0  0
  9 17  1  6  0  0  0
  9 20  1  0  0  0  0
 10 15  2  0  0  0  0
 12 10  1  1  0  0  0
 12  9  1  0  0  0  0
 12 14  1  0  0  0  0
 14 11  1  1  0  0  0
 14 16  1  0  0  0  0
 15 18  1  0  0  0  0
 15 11  1  0  0  0  0
 16 19  1  6  0  0  0
 16 13  1  0  0  0  0
 20 13  1  0  0  0  0
 21 18  1  0  0  0  0
 22 28  1  0  0  0  0
 22 26  1  1  0  0  0
 23 24  1  0  0  0  0
 24 22  1  0  0  0  0
 25 23  1  1  0  0  0
 25 27  1  0  0  0  0
 27 22  1  0  0  0  0
 28 29  1  1  0  0  0
 30 28  1  0  0  0  0
 31 30  1  0  0  0  0
 33 32  1  0  0  0  0
 33 31  1  0  0  0  0
M  END
>  <MODEL>
1

>  <REMARK>
 VINA RESULT:      -7.6      0.000      0.000
  Name = 
  6 active torsions:
  status: ('A' for Active; 'I' for Inactive)
    1  A    between atoms: C_1  and  C_4
    2  A    between atoms: C_4  and  C_25
    3  A    between atoms: C_6  and  N_28
    4  A    between atoms: C_7  and  C_27
    5  A    between atoms: C_16  and  O_18
    6  A    between atoms: O_18  and  C_25
                            x       y       z     vdW  Elec       q    Type
                         _______ _______ _______ _____ _____    ______ ____

>  <TORSDO>
F 6

$$$$
=
 OpenBabel11062414483D

 33 38  0  0  1  0  0  0  0  0999 V2000
  189.2640  177.2890  135.8360 N   0  0  0  0  0  0  0  0  0  0  0  0
  189.3660  176.8460  137.1490 C   0  0  1  0  0  3  0  0  0  0  0  0
  191.1230  175.4230  136.4680 C   0  0  0  0  0  0  0  0  0  0  0  0
  190.9780  175.8800  135.1570 C   0  0  1  0  0  0  0  0  0  0  0  0
  190.3420  175.8740  137.5110 C   0  0  0  0  0  3  0  0  0  0  0  0
  192.1790  174.5770  135.9850 C   0  0  2  0  0  0  0  0  0  0  0  0
  190.0440  176.8260  134.8070 C   0  0  0  0  0  3  0  0  0  0  0  0
  192.0510  175.0310  134.6460 N   0  0  0  0  0  2  0  0  0  0  0  0
  188.0570  177.0230  142.5400 C   0  0  2  0  0  3  0  0  0  0  0  0
  188.1390  178.1330  140.4010 N   0  0  0  0  0  0  0  0  0  0  0  0
  190.1810  177.1970  140.0090 N   0  0  0  0  0  2  0  0  0  0  0  0
  188.7830  178.0890  141.7070 C   0  0  2  0  0  3  0  0  0  0  0  0
  190.1290  175.7680  142.9940 C   0  0  0  0  0  2  0  0  0  0  0  0
  190.2440  177.7220  141.3580 C   0  0  1  0  0  3  0  0  0  0  0  0
  188.9160  177.6110  139.5130 C   0  0  0  0  0  0  0  0  0  0  0  0
  191.0160  176.8070  142.3160 C   0  0  1  0  0  3  0  0  0  0  0  0
  186.5790  177.7110  143.2500 Cl  0  0  0  0  0  0  0  0  0  0  0  0
  188.4990  177.4100  138.1490 N   0  0  0  0  0  0  0  0  0  0  0  0
  191.7410  177.6430  143.3540 C   0  0  0  0  0  1  0  0  0  0  0  0
  188.9260  176.4370  143.6360 C   0  0  0  0  0  2  0  0  0  0  0  0
  187.1120  177.6850  137.7900 C   0  0  0  0  0  1  0  0  0  0  0  0
  195.6990  173.8350  136.4650 C   0  0  1  0  0  0  0  0  0  0  0  0
  193.7940  174.3140  137.8960 C   0  0  0  0  0  2  0  0  0  0  0  0
  194.9460  173.3520  137.6920 C   0  0  0  0  0  2  0  0  0  0  0  0
  193.5390  174.9900  136.5590 C   0  0  1  0  0  3  0  0  0  0  0  0
  196.2300  172.6330  135.6980 C   0  0  0  0  0  1  0  0  0  0  0  0
  194.6500  174.5420  135.6230 C   0  0  0  0  0  2  0  0  0  0  0  0
  196.8350  174.8120  136.8560 C   0  0  2  0  0  3  0  0  0  0  0  0
  197.8260  175.0190  135.7190 C   0  0  0  0  0  1  0  0  0  0  0  0
  197.6050  174.3710  138.0990 C   0  0  0  0  0  2  0  0  0  0  0  0
  198.1680  175.4770  138.7370 O   0  0  0  0  0  0  0  0  0  0  0  0
  196.4900  175.3340  140.2700 O   0  0  0  0  0  1  0  0  0  0  0  0
  197.8720  175.2850  140.0860 C   0  0  0  0  0  2  0  0  0  0  0  0
  1  2  1  0  0  0  0
  2  5  1  0  0  0  0
  2 18  1  1  0  0  0
  3  5  2  0  0  0  0
  4  7  1  6  0  0  0
  4  6  1  0  0  0  0
  4  3  1  0  0  0  0
  6  8  1  6  0  0  0
  6  3  1  0  0  0  0
  6 25  1  0  0  0  0
  7  1  2  0  0  0  0
  8  4  1  0  0  0  0
  9 17  1  1  0  0  0
  9 20  1  0  0  0  0
 12 10  1  6  0  0  0
 12  9  1  0  0  0  0
 13 20  1  0  0  0  0
 14 11  1  6  0  0  0
 14 12  1  0  0  0  0
 14 16  1  0  0  0  0
 15 11  1  0  0  0  0
 15 10  2  0  0  0  0
 16 13  1  0  0  0  0
 16 19  1  1  0  0  0
 18 15  1  0  0  0  0
 21 18  1  0  0  0  0
 22 26  1  6  0  0  0
 22 28  1  0  0  0  0
 22 24  1  0  0  0  0
 24 23  1  0  0  0  0
 25 27  1  6  0  0  0
 25 23  1  0  0  0  0
 27 22  1  0  0  0  0
 28 29  1  6  0  0  0
 28 30  1  0  0  0  0
 30 31  1  0  0  0  0
 31 33  1  0  0  0  0
 33 32  1  0  0  0  0
M  END
>  <MODEL>
2

>  <REMARK>
 VINA RESULT:      -7.5      5.410      9.482
  Name = 
  6 active torsions:
  status: ('A' for Active; 'I' for Inactive)
    1  A    between atoms: C_1  and  C_4
    2  A    between atoms: C_4  and  C_25
    3  A    between atoms: C_6  and  N_28
    4  A    between atoms: C_7  and  C_27
    5  A    between atoms: C_16  and  O_18
    6  A    between atoms: O_18  and  C_25
                            x       y       z     vdW  Elec       q    Type
                         _______ _______ _______ _____ _____    ______ ____

>  <TORSDO>
F 6

$$$$
=
 OpenBabel11062414483D

 33 38  0  0  1  0  0  0  0  0999 V2000
  182.9220  178.5550  142.6790 N   0  0  0  0  0  0  0  0  0  0  0  0
  184.1610  178.7670  142.0900 C   0  0  1  0  0  3  0  0  0  0  0  0
  185.0750  179.0360  144.2500 C   0  0  0  0  0  0  0  0  0  0  0  0
  183.8100  178.8360  144.8040 C   0  0  1  0  0  0  0  0  0  0  0  0
  185.3130  179.0110  142.8920 C   0  0  0  0  0  3  0  0  0  0  0  0
  185.5630  179.1970  145.5920 C   0  0  2  0  0  0  0  0  0  0  0  0
  182.6990  178.5890  144.0320 C   0  0  0  0  0  3  0  0  0  0  0  0
  184.2860  178.9920  146.1760 N   0  0  0  0  0  2  0  0  0  0  0  0
  182.5730  176.1470  137.4600 C   0  0  2  0  0  3  0  0  0  0  0  0
  183.3170  178.1760  138.5290 N   0  0  0  0  0  0  0  0  0  0  0  0
  181.9900  177.7040  140.3220 N   0  0  0  0  0  2  0  0  0  0  0  0
  182.1410  177.5330  137.9590 C   0  0  2  0  0  3  0  0  0  0  0  0
  180.8720  174.9800  138.8100 C   0  0  0  0  0  2  0  0  0  0  0  0
  181.1600  177.4910  139.1530 C   0  0  1  0  0  3  0  0  0  0  0  0
  183.2120  178.2210  139.8140 C   0  0  0  0  0  0  0  0  0  0  0  0
  180.2340  176.2780  139.2950 C   0  0  1  0  0  3  0  0  0  0  0  0
  183.3220  176.2850  135.8540 Cl  0  0  0  0  0  0  0  0  0  0  0  0
  184.2780  178.6970  140.6570 N   0  0  0  0  0  0  0  0  0  0  0  0
  178.9310  176.5350  138.5610 C   0  0  0  0  0  1  0  0  0  0  0  0
  181.4270  175.1550  137.4070 C   0  0  0  0  0  2  0  0  0  0  0  0
  185.5660  179.0160  140.0500 C   0  0  0  0  0  1  0  0  0  0  0  0
  188.8970  177.7680  145.4850 C   0  0  1  0  0  0  0  0  0  0  0  0
  186.6600  177.0570  144.8540 C   0  0  0  0  0  2  0  0  0  0  0  0
  188.0880  177.1550  144.3560 C   0  0  0  0  0  2  0  0  0  0  0  0
  186.5150  178.0620  145.9840 C   0  0  1  0  0  3  0  0  0  0  0  0
  189.9790  178.6620  144.8960 C   0  0  0  0  0  1  0  0  0  0  0  0
  187.9030  178.6240  146.2510 C   0  0  0  0  0  2  0  0  0  0  0  0
  189.4950  176.6720  146.4000 C   0  0  2  0  0  3  0  0  0  0  0  0
  189.1830  176.9230  147.8700 C   0  0  0  0  0  1  0  0  0  0  0  0
  191.0060  176.5170  146.2440 C   0  0  0  0  0  2  0  0  0  0  0  0
  191.6460  176.7500  147.4620 O   0  0  0  0  0  0  0  0  0  0  0  0
  193.2490  175.8150  148.7820 O   0  0  0  0  0  1  0  0  0  0  0  0
  192.4630  175.6360  147.6430 C   0  0  0  0  0  2  0  0  0  0  0  0
  1  7  2  0  0  0  0
  2 18  1  1  0  0  0
  2  1  1  0  0  0  0
  2  5  1  0  0  0  0
  3  4  1  0  0  0  0
  4  7  1  6  0  0  0
  4  6  1  0  0  0  0
  4  8  1  0  0  0  0
  5  3  2  0  0  0  0
  6  3  1  6  0  0  0
  6 25  1  0  0  0  0
  6  8  1  0  0  0  0
  9 17  1  6  0  0  0
  9 12  1  0  0  0  0
 10 15  2  0  0  0  0
 12 10  1  1  0  0  0
 12 14  1  0  0  0  0
 13 16  1  0  0  0  0
 14 16  1  0  0  0  0
 14 11  1  1  0  0  0
 15 11  1  0  0  0  0
 15 18  1  0  0  0  0
 16 19  1  6  0  0  0
 20  9  1  0  0  0  0
 20 13  1  0  0  0  0
 21 18  1  0  0  0  0
 22 26  1  6  0  0  0
 22 27  1  0  0  0  0
 22 28  1  0  0  0  0
 24 23  1  0  0  0  0
 24 22  1  0  0  0  0
 25 23  1  6  0  0  0
 25 27  1  0  0  0  0
 28 29  1  1  0  0  0
 30 28  1  0  0  0  0
 30 31  1  0  0  0  0
 31 33  1  0  0  0  0
 33 32  1  0  0  0  0
M  END
>  <MODEL>
3

>  <REMARK>
 VINA RESULT:      -7.3      3.700      5.530
  Name = 
  6 active torsions:
  status: ('A' for Active; 'I' for Inactive)
    1  A    between atoms: C_1  and  C_4
    2  A    between atoms: C_4  and  C_25
    3  A    between atoms: C_6  and  N_28
    4  A    between atoms: C_7  and  C_27
    5  A    between atoms: C_16  and  O_18
    6  A    between atoms: O_18  and  C_25
                            x       y       z     vdW  Elec       q    Type
                         _______ _______ _______ _____ _____    ______ ____

>  <TORSDO>
F 6

$$$$
=
 OpenBabel11062414483D

 33 38  0  0  1  0  0  0  0  0999 V2000
  187.1520  178.5010  136.7130 N   0  0  0  0  0  0  0  0  0  0  0  0
  187.3980  177.8310  137.9040 C   0  0  1  0  0  3  0  0  0  0  0  0
  188.9440  176.4690  136.7490 C   0  0  0  0  0  0  0  0  0  0  0  0
  188.6560  177.1550  135.5680 C   0  0  1  0  0  0  0  0  0  0  0  0
  188.3440  176.7660  137.9550 C   0  0  0  0  0  3  0  0  0  0  0  0
  189.8620  175.6730  135.9840 C   0  0  2  0  0  0  0  0  0  0  0  0
  187.7530  178.1900  135.5190 C   0  0  0  0  0  3  0  0  0  0  0  0
  189.5880  176.3590  134.7720 N   0  0  0  0  0  2  0  0  0  0  0  0
  187.1030  177.4050  143.4310 C   0  0  2  0  0  3  0  0  0  0  0  0
  186.7580  178.7260  141.4440 N   0  0  0  0  0  0  0  0  0  0  0  0
  188.7180  177.9310  140.5910 N   0  0  0  0  0  2  0  0  0  0  0  0
  187.6330  178.5820  142.6000 C   0  0  2  0  0  3  0  0  0  0  0  0
  189.2570  176.2090  143.3660 C   0  0  0  0  0  2  0  0  0  0  0  0
  189.0140  178.3200  141.9550 C   0  0  1  0  0  3  0  0  0  0  0  0
  187.3720  178.3330  140.3790 C   0  0  0  0  0  0  0  0  0  0  0  0
  189.9740  177.3510  142.6540 C   0  0  1  0  0  3  0  0  0  0  0  0
  185.7630  177.9480  144.4660 Cl  0  0  0  0  0  0  0  0  0  0  0  0
  186.7160  178.2510  139.0990 N   0  0  0  0  0  0  0  0  0  0  0  0
  190.8560  178.1120  143.6280 C   0  0  0  0  0  1  0  0  0  0  0  0
  188.1750  176.7530  144.2830 C   0  0  0  0  0  2  0  0  0  0  0  0
  185.2790  178.4940  139.0290 C   0  0  0  0  0  1  0  0  0  0  0  0
  193.2680  174.4470  136.2460 C   0  0  1  0  0  0  0  0  0  0  0  0
  191.5860  175.3000  137.7790 C   0  0  0  0  0  2  0  0  0  0  0  0
  192.5660  174.1650  137.5610 C   0  0  0  0  0  2  0  0  0  0  0  0
  191.3130  175.9150  136.4160 C   0  0  1  0  0  3  0  0  0  0  0  0
  193.5510  173.1310  135.5380 C   0  0  0  0  0  1  0  0  0  0  0  0
  192.2610  175.2450  135.4350 C   0  0  0  0  0  2  0  0  0  0  0  0
  194.5620  175.2670  136.4700 C   0  0  2  0  0  3  0  0  0  0  0  0
  194.8880  176.1560  135.2770 C   0  0  0  0  0  1  0  0  0  0  0  0
  195.7800  174.3970  136.7750 C   0  0  0  0  0  2  0  0  0  0  0  0
  196.5510  174.9800  137.7810 O   0  0  0  0  0  0  0  0  0  0  0  0
  195.8050  175.2520  139.9150 O   0  0  0  0  0  1  0  0  0  0  0  0
  196.1620  174.3170  138.9440 C   0  0  0  0  0  2  0  0  0  0  0  0
  1  2  1  0  0  0  0
  2  5  1  0  0  0  0
  2 18  1  1  0  0  0
  3  5  2  0  0  0  0
  4  7  1  6  0  0  0
  4  6  1  0  0  0  0
  4  3  1  0  0  0  0
  6  8  1  6  0  0  0
  6 25  1  0  0  0  0
  6  3  1  0  0  0  0
  7  1  2  0  0  0  0
  8  4  1  0  0  0  0
  9 20  1  0  0  0  0
  9 17  1  1  0  0  0
 12 10  1  6  0  0  0
 12  9  1  0  0  0  0
 13 20  1  0  0  0  0
 14 11  1  6  0  0  0
 14 12  1  0  0  0  0
 14 16  1  0  0  0  0
 15 11  1  0  0  0  0
 15 10  2  0  0  0  0
 16 13  1  0  0  0  0
 16 19  1  1  0  0  0
 18 15  1  0  0  0  0
 21 18  1  0  0  0  0
 22 26  1  6  0  0  0
 22 28  1  0  0  0  0
 22 24  1  0  0  0  0
 24 23  1  0  0  0  0
 25 27  1  6  0  0  0
 25 23  1  0  0  0  0
 27 22  1  0  0  0  0
 28 29  1  6  0  0  0
 28 30  1  0  0  0  0
 30 31  1  0  0  0  0
 31 33  1  0  0  0  0
 33 32  1  0  0  0  0
M  END
>  <MODEL>
4

>  <REMARK>
 VINA RESULT:      -7.2      4.671      8.986
  Name = 
  6 active torsions:
  status: ('A' for Active; 'I' for Inactive)
    1  A    between atoms: C_1  and  C_4
    2  A    between atoms: C_4  and  C_25
    3  A    between atoms: C_6  and  N_28
    4  A    between atoms: C_7  and  C_27
    5  A    between atoms: C_16  and  O_18
    6  A    between atoms: O_18  and  C_25
                            x       y       z     vdW  Elec       q    Type
                         _______ _______ _______ _____ _____    ______ ____

>  <TORSDO>
F 6

$$$$
=
 OpenBabel11062414483D

 33 38  0  0  1  0  0  0  0  0999 V2000
  188.8500  175.9130  136.7150 N   0  0  0  0  0  0  0  0  0  0  0  0
  189.9900  175.3910  137.3130 C   0  0  1  0  0  3  0  0  0  0  0  0
  189.7570  177.0010  139.0250 C   0  0  0  0  0  0  0  0  0  0  0  0
  188.6250  177.5080  138.3850 C   0  0  1  0  0  0  0  0  0  0  0  0
  190.4830  175.9360  138.5330 C   0  0  0  0  0  3  0  0  0  0  0  0
  189.5600  178.0110  140.0270 C   0  0  2  0  0  0  0  0  0  0  0  0
  188.1410  176.9770  137.2130 C   0  0  0  0  0  3  0  0  0  0  0  0
  188.4050  178.5400  139.3960 N   0  0  0  0  0  2  0  0  0  0  0  0
  194.8220  173.2240  135.6480 C   0  0  2  0  0  3  0  0  0  0  0  0
  192.5840  172.8790  136.4770 N   0  0  0  0  0  0  0  0  0  0  0  0
  192.8400  174.6630  137.8740 N   0  0  0  0  0  2  0  0  0  0  0  0
  193.9850  172.8390  136.8760 C   0  0  2  0  0  3  0  0  0  0  0  0
  195.9540  175.0690  136.8280 C   0  0  0  0  0  2  0  0  0  0  0  0
  194.0450  173.8720  138.0240 C   0  0  1  0  0  3  0  0  0  0  0  0
  192.0060  173.9000  137.0130 C   0  0  0  0  0  0  0  0  0  0  0  0
  195.3060  174.7330  138.1660 C   0  0  1  0  0  3  0  0  0  0  0  0
  195.0420  171.8100  134.5940 Cl  0  0  0  0  0  0  0  0  0  0  0  0
  190.6470  174.2640  136.7050 N   0  0  0  0  0  0  0  0  0  0  0  0
  196.3020  174.0390  139.0780 C   0  0  0  0  0  1  0  0  0  0  0  0
  196.1740  173.8060  136.0130 C   0  0  0  0  0  2  0  0  0  0  0  0
  189.9430  173.5330  135.6570 C   0  0  0  0  0  1  0  0  0  0  0  0
  190.0130  177.9300  143.6280 C   0  0  1  0  0  0  0  0  0  0  0  0
  190.2060  176.3430  141.7970 C   0  0  0  0  0  2  0  0  0  0  0  0
  190.9260  176.8820  143.0160 C   0  0  0  0  0  2  0  0  0  0  0  0
  189.1910  177.3940  141.3810 C   0  0  1  0  0  3  0  0  0  0  0  0
  190.8600  179.0510  144.2100 C   0  0  0  0  0  1  0  0  0  0  0  0
  189.2070  178.4680  142.4580 C   0  0  0  0  0  2  0  0  0  0  0  0
  189.0800  177.3040  144.6930 C   0  0  2  0  0  3  0  0  0  0  0  0
  187.6750  177.8890  144.6350 C   0  0  0  0  0  1  0  0  0  0  0  0
  189.6100  177.4520  146.1170 C   0  0  0  0  0  2  0  0  0  0  0  0
  188.5830  177.2470  147.0390 O   0  0  0  0  0  0  0  0  0  0  0  0
  187.9860  177.9200  149.1310 O   0  0  0  0  0  1  0  0  0  0  0  0
  189.0170  177.9000  148.1920 C   0  0  0  0  0  2  0  0  0  0  0  0
  1  7  2  0  0  0  0
  1  2  1  0  0  0  0
  2 18  1  1  0  0  0
  2  5  1  0  0  0  0
  4  7  1  6  0  0  0
  4  3  1  0  0  0  0
  4  8  1  0  0  0  0
  4  6  1  0  0  0  0
  5  3  2  0  0  0  0
  6  3  1  6  0  0  0
  6 25  1  0  0  0  0
  8  6  1  0  0  0  0
  9 17  1  6  0  0  0
  9 20  1  0  0  0  0
  9 12  1  0  0  0  0
 10 15  2  0  0  0  0
 12 10  1  6  0  0  0
 12 14  1  0  0  0  0
 13 16  1  0  0  0  0
 14 11  1  6  0  0  0
 14 16  1  0  0  0  0
 15 11  1  0  0  0  0
 16 19  1  1  0  0  0
 18 15  1  0  0  0  0
 20 13  1  0  0  0  0
 21 18  1  0  0  0  0
 22 26  1  1  0  0  0
 22 28  1  0  0  0  0
 23 24  1  0  0  0  0
 24 22  1  0  0  0  0
 25 23  1  1  0  0  0
 25 27  1  0  0  0  0
 27 22  1  0  0  0  0
 28 29  1  1  0  0  0
 28 30  1  0  0  0  0
 30 31  1  0  0  0  0
 31 33  1  0  0  0  0
 33 32  1  0  0  0  0
M  END
>  <MODEL>
5

>  <REMARK>
 VINA RESULT:      -7.2      3.986      6.918
  Name = 
  6 active torsions:
  status: ('A' for Active; 'I' for Inactive)
    1  A    between atoms: C_1  and  C_4
    2  A    between atoms: C_4  and  C_25
    3  A    between atoms: C_6  and  N_28
    4  A    between atoms: C_7  and  C_27
    5  A    between atoms: C_16  and  O_18
    6  A    between atoms: O_18  and  C_25
                            x       y       z     vdW  Elec       q    Type
                         _______ _______ _______ _____ _____    ______ ____

>  <TORSDO>
F 6

$$$$
=
 OpenBabel11062414483D

 33 38  0  0  1  0  0  0  0  0999 V2000
  186.3050  177.7420  143.9250 N   0  0  0  0  0  0  0  0  0  0  0  0
  185.7100  178.4450  142.8850 C   0  0  1  0  0  3  0  0  0  0  0  0
  187.7290  178.2440  141.6750 C   0  0  0  0  0  0  0  0  0  0  0  0
  188.2970  177.5570  142.7490 C   0  0  1  0  0  0  0  0  0  0  0  0
  186.4320  178.7130  141.6860 C   0  0  0  0  0  3  0  0  0  0  0  0
  188.9870  178.0930  140.9990 C   0  0  2  0  0  0  0  0  0  0  0  0
  187.6000  177.2870  143.9030 C   0  0  0  0  0  3  0  0  0  0  0  0
  189.5840  177.3880  142.0770 N   0  0  0  0  0  2  0  0  0  0  0  0
  181.0530  179.8640  140.2190 C   0  0  2  0  0  3  0  0  0  0  0  0
  182.1040  178.9110  142.1680 N   0  0  0  0  0  0  0  0  0  0  0  0
  183.6170  177.8620  140.8240 N   0  0  0  0  0  2  0  0  0  0  0  0
  181.3530  178.5600  140.9700 C   0  0  2  0  0  3  0  0  0  0  0  0
  182.1070  179.0690  138.1370 C   0  0  0  0  0  2  0  0  0  0  0  0
  182.3220  177.6160  140.2220 C   0  0  1  0  0  3  0  0  0  0  0  0
  183.3340  178.5450  142.0370 C   0  0  0  0  0  0  0  0  0  0  0  0
  182.3590  177.6710  138.6910 C   0  0  1  0  0  3  0  0  0  0  0  0
  179.6270  180.6580  140.9250 Cl  0  0  0  0  0  0  0  0  0  0  0  0
  184.3410  178.8650  143.0160 N   0  0  0  0  0  0  0  0  0  0  0  0
  181.3580  176.6860  138.1160 C   0  0  0  0  0  1  0  0  0  0  0  0
  180.8380  179.6540  138.7320 C   0  0  0  0  0  2  0  0  0  0  0  0
  183.9870  179.7430  144.1260 C   0  0  0  0  0  1  0  0  0  0  0  0
  190.5370  176.5680  138.0930 C   0  0  1  0  0  0  0  0  0  0  0  0
  188.6140  177.9930  138.5130 C   0  0  0  0  0  2  0  0  0  0  0  0
  189.8430  177.8410  137.6410 C   0  0  0  0  0  2  0  0  0  0  0  0
  188.8610  177.1810  139.7730 C   0  0  1  0  0  3  0  0  0  0  0  0
  192.0430  176.7520  137.9770 C   0  0  0  0  0  1  0  0  0  0  0  0
  190.1620  176.4250  139.5580 C   0  0  0  0  0  2  0  0  0  0  0  0
  190.0450  175.3460  137.2800 C   0  0  2  0  0  3  0  0  0  0  0  0
  191.1740  174.3690  136.9790 C   0  0  0  0  0  1  0  0  0  0  0  0
  189.3710  175.7300  135.9650 C   0  0  0  0  0  2  0  0  0  0  0  0
  188.3120  174.8640  135.6930 O   0  0  0  0  0  0  0  0  0  0  0  0
  186.4420  175.8380  136.5540 O   0  0  0  0  0  1  0  0  0  0  0  0
  187.4910  174.9560  136.8160 C   0  0  0  0  0  2  0  0  0  0  0  0
  2 18  1  6  0  0  0
  2  1  1  0  0  0  0
  3  5  2  0  0  0  0
  3  4  1  0  0  0  0
  4  7  1  1  0  0  0
  5  2  1  0  0  0  0
  6  3  1  6  0  0  0
  6  8  1  0  0  0  0
  6  4  1  0  0  0  0
  7  1  2  0  0  0  0
  8  4  1  0  0  0  0
  9 17  1  1  0  0  0
  9 12  1  0  0  0  0
 11 15  1  0  0  0  0
 12 10  1  1  0  0  0
 13 16  1  0  0  0  0
 13 20  1  0  0  0  0
 14 11  1  1  0  0  0
 14 12  1  0  0  0  0
 15 10  2  0  0  0  0
 15 18  1  0  0  0  0
 16 19  1  6  0  0  0
 16 14  1  0  0  0  0
 18 21  1  0  0  0  0
 20  9  1  0  0  0  0
 22 26  1  6  0  0  0
 22 27  1  0  0  0  0
 24 22  1  0  0  0  0
 24 23  1  0  0  0  0
 25 23  1  6  0  0  0
 25  6  1  0  0  0  0
 27 25  1  0  0  0  0
 28 29  1  6  0  0  0
 28 22  1  0  0  0  0
 30 28  1  0  0  0  0
 31 30  1  0  0  0  0
 31 33  1  0  0  0  0
 32 33  1  0  0  0  0
M  END
>  <MODEL>
6

>  <REMARK>
 VINA RESULT:      -7.0      3.922      7.100
  Name = 
  6 active torsions:
  status: ('A' for Active; 'I' for Inactive)
    1  A    between atoms: C_1  and  C_4
    2  A    between atoms: C_4  and  C_25
    3  A    between atoms: C_6  and  N_28
    4  A    between atoms: C_7  and  C_27
    5  A    between atoms: C_16  and  O_18
    6  A    between atoms: O_18  and  C_25
                            x       y       z     vdW  Elec       q    Type
                         _______ _______ _______ _____ _____    ______ ____

>  <TORSDO>
F 6

$$$$
=
 OpenBabel11062414483D

 33 38  0  0  1  0  0  0  0  0999 V2000
  188.2760  177.4920  136.2240 N   0  0  0  0  0  0  0  0  0  0  0  0
  187.4980  176.6470  137.0060 C   0  0  1  0  0  3  0  0  0  0  0  0
  189.2030  176.6900  138.6400 C   0  0  0  0  0  0  0  0  0  0  0  0
  189.9620  177.5240  137.8180 C   0  0  1  0  0  0  0  0  0  0  0  0
  187.9560  176.2190  138.2860 C   0  0  0  0  0  3  0  0  0  0  0  0
  190.2820  176.7530  139.5860 C   0  0  2  0  0  0  0  0  0  0  0  0
  189.5180  177.9470  136.5870 C   0  0  0  0  0  3  0  0  0  0  0  0
  191.0690  177.6040  138.7680 N   0  0  0  0  0  2  0  0  0  0  0  0
  182.0950  176.1580  138.1820 C   0  0  2  0  0  3  0  0  0  0  0  0
  183.8250  176.4930  136.5360 N   0  0  0  0  0  0  0  0  0  0  0  0
  184.9380  177.8430  137.9980 N   0  0  0  0  0  2  0  0  0  0  0  0
  182.7760  177.1880  137.2690 C   0  0  2  0  0  3  0  0  0  0  0  0
  182.5090  177.4840  140.2180 C   0  0  0  0  0  2  0  0  0  0  0  0
  183.5570  178.2810  138.0340 C   0  0  1  0  0  3  0  0  0  0  0  0
  184.9820  176.8510  136.9820 C   0  0  0  0  0  0  0  0  0  0  0  0
  183.0910  178.6620  139.4430 C   0  0  1  0  0  3  0  0  0  0  0  0
  180.8900  175.2320  137.2600 Cl  0  0  0  0  0  0  0  0  0  0  0  0
  186.2040  176.2410  136.5270 N   0  0  0  0  0  0  0  0  0  0  0  0
  182.0830  179.7940  139.3640 C   0  0  0  0  0  1  0  0  0  0  0  0
  181.4390  176.7870  139.3960 C   0  0  0  0  0  2  0  0  0  0  0  0
  186.1260  175.0930  135.6290 C   0  0  0  0  0  1  0  0  0  0  0  0
  190.4660  177.0320  143.2000 C   0  0  1  0  0  0  0  0  0  0  0  0
  188.7040  176.7750  141.5460 C   0  0  0  0  0  2  0  0  0  0  0  0
  189.2300  176.2220  142.8550 C   0  0  0  0  0  2  0  0  0  0  0  0
  189.8650  177.4840  140.8670 C   0  0  1  0  0  3  0  0  0  0  0  0
  191.4840  176.1280  143.8800 C   0  0  0  0  0  1  0  0  0  0  0  0
  191.0170  177.4850  141.8590 C   0  0  0  0  0  2  0  0  0  0  0  0
  190.1050  178.2520  144.0830 C   0  0  2  0  0  3  0  0  0  0  0  0
  191.1380  179.3650  143.9680 C   0  0  0  0  0  1  0  0  0  0  0  0
  189.9330  177.8970  145.5580 C   0  0  0  0  0  2  0  0  0  0  0  0
  188.5830  177.7120  145.8580 O   0  0  0  0  0  0  0  0  0  0  0  0
  189.6890  176.3870  147.3430 O   0  0  0  0  0  1  0  0  0  0  0  0
  188.5830  177.2180  147.1610 C   0  0  0  0  0  2  0  0  0  0  0  0
  1  7  2  0  0  0  0
  1  2  1  0  0  0  0
  2 18  1  1  0  0  0
  2  5  1  0  0  0  0
  4  7  1  6  0  0  0
  4  3  1  0  0  0  0
  4  8  1  0  0  0  0
  4  6  1  0  0  0  0
  5  3  2  0  0  0  0
  6  3  1  1  0  0  0
  6 25  1  0  0  0  0
  8  6  1  0  0  0  0
  9 17  1  6  0  0  0
  9 20  1  0  0  0  0
 10 15  2  0  0  0  0
 12 10  1  6  0  0  0
 12 14  1  0  0  0  0
 12  9  1  0  0  0  0
 14 11  1  1  0  0  0
 14 16  1  0  0  0  0
 15 11  1  0  0  0  0
 16 19  1  6  0  0  0
 16 13  1  0  0  0  0
 18 15  1  0  0  0  0
 20 13  1  0  0  0  0
 21 18  1  0  0  0  0
 22 26  1  1  0  0  0
 22 28  1  0  0  0  0
 23 24  1  0  0  0  0
 24 22  1  0  0  0  0
 25 23  1  1  0  0  0
 25 27  1  0  0  0  0
 27 22  1  0  0  0  0
 28 29  1  1  0  0  0
 28 30  1  0  0  0  0
 30 31  1  0  0  0  0
 31 33  1  0  0  0  0
 33 32  1  0  0  0  0
M  END
>  <MODEL>
7

>  <REMARK>
 VINA RESULT:      -7.0      2.292      3.848
  Name = 
  6 active torsions:
  status: ('A' for Active; 'I' for Inactive)
    1  A    between atoms: C_1  and  C_4
    2  A    between atoms: C_4  and  C_25
    3  A    between atoms: C_6  and  N_28
    4  A    between atoms: C_7  and  C_27
    5  A    between atoms: C_16  and  O_18
    6  A    between atoms: O_18  and  C_25
                            x       y       z     vdW  Elec       q    Type
                         _______ _______ _______ _____ _____    ______ ____

>  <TORSDO>
F 6

$$$$
=
 OpenBabel11062414483D

 33 38  0  0  1  0  0  0  0  0999 V2000
  182.9590  178.6290  142.0760 N   0  0  0  0  0  0  0  0  0  0  0  0
  184.1960  178.7570  141.4580 C   0  0  1  0  0  3  0  0  0  0  0  0
  185.1640  179.0540  143.5920 C   0  0  0  0  0  0  0  0  0  0  0  0
  183.9000  178.9380  144.1740 C   0  0  1  0  0  0  0  0  0  0  0  0
  185.3740  178.9710  142.2310 C   0  0  0  0  0  3  0  0  0  0  0  0
  185.6840  179.2370  144.9180 C   0  0  2  0  0  0  0  0  0  0  0  0
  182.7640  178.7210  143.4310 C   0  0  0  0  0  3  0  0  0  0  0  0
  184.4100  179.1170  145.5320 N   0  0  0  0  0  2  0  0  0  0  0  0
  187.5100  178.9450  137.0080 C   0  0  2  0  0  3  0  0  0  0  0  0
  185.5400  178.0550  138.0750 N   0  0  0  0  0  0  0  0  0  0  0  0
  186.6890  177.8980  140.0390 N   0  0  0  0  0  2  0  0  0  0  0  0
  186.8990  177.7080  137.6820 C   0  0  2  0  0  3  0  0  0  0  0  0
  189.4310  179.0070  138.5510 C   0  0  0  0  0  2  0  0  0  0  0  0
  187.5630  177.3370  139.0270 C   0  0  1  0  0  3  0  0  0  0  0  0
  185.4740  178.1800  139.3580 C   0  0  0  0  0  0  0  0  0  0  0  0
  189.0350  177.7060  139.2430 C   0  0  1  0  0  3  0  0  0  0  0  0
  186.9970  179.0270  135.3080 Cl  0  0  0  0  0  0  0  0  0  0  0  0
  184.2820  178.6320  140.0270 N   0  0  0  0  0  0  0  0  0  0  0  0
  189.9250  176.5670  138.7790 C   0  0  0  0  0  1  0  0  0  0  0  0
  189.0240  178.9740  137.0880 C   0  0  0  0  0  2  0  0  0  0  0  0
  183.1540  179.0880  139.2220 C   0  0  0  0  0  1  0  0  0  0  0  0
  189.0080  177.7880  145.0800 C   0  0  1  0  0  0  0  0  0  0  0  0
  186.8540  177.1420  144.1600 C   0  0  0  0  0  2  0  0  0  0  0  0
  188.3270  177.2620  143.8300 C   0  0  0  0  0  2  0  0  0  0  0  0
  186.5860  178.0690  145.3340 C   0  0  1  0  0  3  0  0  0  0  0  0
  190.1490  178.7110  144.6770 C   0  0  0  0  0  1  0  0  0  0  0  0
  187.9360  178.5980  145.7890 C   0  0  0  0  0  2  0  0  0  0  0  0
  189.5000  176.6270  145.9780 C   0  0  2  0  0  3  0  0  0  0  0  0
  189.0450  176.7900  147.4220 C   0  0  0  0  0  1  0  0  0  0  0  0
  191.0170  176.4570  145.9630 C   0  0  0  0  0  2  0  0  0  0  0  0
  191.5420  176.6760  147.2380 O   0  0  0  0  0  0  0  0  0  0  0  0
  192.9680  175.6940  148.7170 O   0  0  0  0  0  1  0  0  0  0  0  0
  192.4410  175.6270  147.4270 C   0  0  0  0  0  2  0  0  0  0  0  0
  1  7  2  0  0  0  0
  2 18  1  1  0  0  0
  2  1  1  0  0  0  0
  2  5  1  0  0  0  0
  3  4  1  0  0  0  0
  4  7  1  6  0  0  0
  4  6  1  0  0  0  0
  4  8  1  0  0  0  0
  5  3  2  0  0  0  0
  6  3  1  6  0  0  0
  6 25  1  0  0  0  0
  6  8  1  0  0  0  0
  9 17  1  6  0  0  0
  9 20  1  0  0  0  0
  9 12  1  0  0  0  0
 10 15  2  0  0  0  0
 12 10  1  1  0  0  0
 12 14  1  0  0  0  0
 13 16  1  0  0  0  0
 14 16  1  0  0  0  0
 14 11  1  1  0  0  0
 15 18  1  0  0  0  0
 15 11  1  0  0  0  0
 16 19  1  6  0  0  0
 20 13  1  0  0  0  0
 21 18  1  0  0  0  0
 22 26  1  6  0  0  0
 22 27  1  0  0  0  0
 22 28  1  0  0  0  0
 24 23  1  0  0  0  0
 24 22  1  0  0  0  0
 25 23  1  6  0  0  0
 25 27  1  0  0  0  0
 28 29  1  1  0  0  0
 30 28  1  0  0  0  0
 30 31  1  0  0  0  0
 31 33  1  0  0  0  0
 33 32  1  0  0  0  0
M  END
>  <MODEL>
8

>  <REMARK>
 VINA RESULT:      -6.9      3.021      5.456
  Name = 
  6 active torsions:
  status: ('A' for Active; 'I' for Inactive)
    1  A    between atoms: C_1  and  C_4
    2  A    between atoms: C_4  and  C_25
    3  A    between atoms: C_6  and  N_28
    4  A    between atoms: C_7  and  C_27
    5  A    between atoms: C_16  and  O_18
    6  A    between atoms: O_18  and  C_25
                            x       y       z     vdW  Elec       q    Type
                         _______ _______ _______ _____ _____    ______ ____

>  <TORSDO>
F 6

$$$$
=
 OpenBabel11062414483D

 33 38  0  0  1  0  0  0  0  0999 V2000
  186.1430  179.5840  141.8220 N   0  0  0  0  0  0  0  0  0  0  0  0
  185.4610  178.6750  142.6210 C   0  0  1  0  0  3  0  0  0  0  0  0
  187.3490  177.2590  142.5180 C   0  0  0  0  0  0  0  0  0  0  0  0
  187.9940  178.1900  141.7020 C   0  0  1  0  0  0  0  0  0  0  0  0
  186.0750  177.4500  143.0120 C   0  0  0  0  0  3  0  0  0  0  0  0
  188.5260  176.4450  142.4060 C   0  0  2  0  0  0  0  0  0  0  0  0
  187.4080  179.3780  141.3330 C   0  0  0  0  0  3  0  0  0  0  0  0
  189.2030  177.3780  141.5790 N   0  0  0  0  0  2  0  0  0  0  0  0
  180.2880  180.0770  141.1760 C   0  0  2  0  0  3  0  0  0  0  0  0
  181.7710  179.0030  142.7450 N   0  0  0  0  0  0  0  0  0  0  0  0
  182.9900  178.1740  141.0050 N   0  0  0  0  0  2  0  0  0  0  0  0
  180.7900  178.7250  141.7040 C   0  0  2  0  0  3  0  0  0  0  0  0
  180.8900  179.5460  138.8460 C   0  0  0  0  0  2  0  0  0  0  0  0
  181.6040  177.9140  140.6710 C   0  0  1  0  0  3  0  0  0  0  0  0
  182.9550  178.7210  142.3160 C   0  0  0  0  0  0  0  0  0  0  0  0
  181.3040  178.1170  139.1820 C   0  0  1  0  0  3  0  0  0  0  0  0
  179.0240  180.7170  142.2500 Cl  0  0  0  0  0  0  0  0  0  0  0  0
  184.1400  179.0030  143.0850 N   0  0  0  0  0  0  0  0  0  0  0  0
  180.2360  177.1360  138.7330 C   0  0  0  0  0  1  0  0  0  0  0  0
  179.7610  179.9980  139.7560 C   0  0  0  0  0  2  0  0  0  0  0  0
  184.0070  179.7490  144.3320 C   0  0  0  0  0  1  0  0  0  0  0  0
  191.0390  177.6700  144.7210 C   0  0  1  0  0  0  0  0  0  0  0  0
  190.5650  175.5700  143.5940 C   0  0  0  0  0  2  0  0  0  0  0  0
  191.6670  176.5670  143.8880 C   0  0  0  0  0  2  0  0  0  0  0  0
  189.2460  176.3080  143.7530 C   0  0  1  0  0  3  0  0  0  0  0  0
  191.6800  179.0000  144.3530 C   0  0  0  0  0  1  0  0  0  0  0  0
  189.5790  177.6860  144.3010 C   0  0  0  0  0  2  0  0  0  0  0  0
  191.1700  177.3700  146.2340 C   0  0  2  0  0  3  0  0  0  0  0  0
  192.0550  176.1600  146.5010 C   0  0  0  0  0  1  0  0  0  0  0  0
  189.8250  177.1490  146.9210 C   0  0  0  0  0  2  0  0  0  0  0  0
  189.7630  177.8780  148.1100 O   0  0  0  0  0  0  0  0  0  0  0  0
  187.6690  177.5220  147.2860 O   0  0  0  0  0  1  0  0  0  0  0  0
  188.4000  177.9730  148.3860 C   0  0  0  0  0  2  0  0  0  0  0  0
  1  2  1  0  0  0  0
  2  5  1  0  0  0  0
  2 18  1  1  0  0  0
  3  5  2  0  0  0  0
  4  7  1  6  0  0  0
  4  6  1  0  0  0  0
  4  3  1  0  0  0  0
  6  8  1  6  0  0  0
  6  3  1  0  0  0  0
  6 25  1  0  0  0  0
  7  1  2  0  0  0  0
  8  4  1  0  0  0  0
  9 12  1  0  0  0  0
  9 17  1  1  0  0  0
 11 15  1  0  0  0  0
 12 10  1  1  0  0  0
 13 16  1  0  0  0  0
 13 20  1  0  0  0  0
 14 11  1  6  0  0  0
 14 12  1  0  0  0  0
 15 10  2  0  0  0  0
 15 18  1  0  0  0  0
 16 19  1  1  0  0  0
 16 14  1  0  0  0  0
 18 21  1  0  0  0  0
 20  9  1  0  0  0  0
 22 26  1  6  0  0  0
 22 28  1  0  0  0  0
 23 24  1  0  0  0  0
 24 22  1  0  0  0  0
 25 23  1  6  0  0  0
 25 27  1  0  0  0  0
 27 22  1  0  0  0  0
 28 29  1  6  0  0  0
 28 30  1  0  0  0  0
 30 31  1  0  0  0  0
 31 33  1  0  0  0  0
 32 33  1  0  0  0  0
M  END
>  <MODEL>
9

>  <REMARK>
 VINA RESULT:      -6.9      3.433      5.209
  Name = 
  6 active torsions:
  status: ('A' for Active; 'I' for Inactive)
    1  A    between atoms: C_1  and  C_4
    2  A    between atoms: C_4  and  C_25
    3  A    between atoms: C_6  and  N_28
    4  A    between atoms: C_7  and  C_27
    5  A    between atoms: C_16  and  O_18
    6  A    between atoms: O_18  and  C_25
                            x       y       z     vdW  Elec       q    Type
                         _______ _______ _______ _____ _____    ______ ____

>  <TORSDO>
F 6

$$$$
