=
 OpenBabel11062412573D

 50 54  0  0  1  0  0  0  0  0999 V2000
  190.4910  176.8260  146.3990 N   0  0  0  0  0  0  0  0  0  0  0  0
  188.4960  178.0570  146.2170 C   0  0  2  0  0  3  0  0  0  0  0  0
  189.8040  177.6060  145.6230 C   0  0  0  0  0  0  0  0  0  0  0  0
  189.6060  178.9490  143.6300 O   0  0  0  0  0  1  0  0  0  0  0  0
  189.8350  176.6360  147.6170 N   0  0  0  0  0  2  0  0  0  0  0  0
  190.2740  177.9990  144.3280 N   0  0  0  0  0  0  0  0  0  0  0  0
  187.8270  177.4990  148.4980 O   0  0  0  0  0  0  0  0  0  0  0  0
  188.6440  177.4000  147.5450 C   0  0  0  0  0  0  0  0  0  0  0  0
  186.0260  177.9720  145.9560 C   0  0  0  0  0  2  0  0  0  0  0  0
  186.6050  178.4580  144.6450 C   0  0  1  0  0  3  0  0  0  0  0  0
  187.3440  177.4130  145.4610 C   0  0  1  0  0  3  0  0  0  0  0  0
  186.8250  177.0940  142.6340 O   0  0  0  0  0  0  0  0  0  0  0  0
  185.9000  177.7600  143.4760 C   0  0  2  0  0  3  0  0  0  0  0  0
  187.5490  178.0430  141.8740 C   0  0  0  0  0  2  0  0  0  0  0  0
  185.7680  179.6580  141.9660 O   0  0  0  0  0  0  0  0  0  0  0  0
  186.5960  178.9490  141.0790 C   0  0  0  0  0  2  0  0  0  0  0  0
  184.9950  178.6950  142.6400 C   0  0  2  0  0  3  0  0  0  0  0  0
  183.9140  179.3630  143.4760 C   0  0  0  0  0  2  0  0  0  0  0  0
  182.6170  178.5730  143.4000 C   0  0  1  0  0  3  0  0  0  0  0  0
  182.1250  178.3320  144.6840 O   0  0  0  0  0  1  0  0  0  0  0  0
  181.5840  179.3130  142.6000 C   0  0  0  0  0  0  0  0  0  0  0  0
  181.2520  178.9000  141.2590 N   0  0  0  0  0  0  0  0  0  0  0  0
  180.9660  180.2750  143.1380 O   0  0  0  0  0  0  0  0  0  0  0  0
  180.3360  179.7300  140.4660 C   0  0  2  0  0  3  0  0  0  0  0  0
  179.1880  178.8970  139.9240 C   0  0  0  0  0  1  0  0  0  0  0  0
  181.0170  180.5220  139.3480 C   0  0  0  0  0  2  0  0  0  0  0  0
  180.3310  181.7110  139.0800 O   0  0  0  0  0  1  0  0  0  0  0  0
  181.9350  177.7490  140.6670 C   0  0  0  0  0  2  0  0  0  0  0  0
  183.1170  178.2090  139.8300 C   0  0  0  0  0  2  0  0  0  0  0  0
  183.0740  177.5130  138.4820 C   0  0  0  0  0  1  0  0  0  0  0  0
  191.4910  177.5120  143.8260 N   0  0  0  0  0  2  0  0  0  0  0  0
  191.7130  178.1300  142.6400 O   0  0  0  0  0  0  0  0  0  0  0  0
  192.6800  177.1750  140.6980 C   0  0  0  0  0  2  0  0  0  0  0  0
  191.5310  177.1390  141.6770 C   0  0  2  0  0  3  0  0  0  0  0  0
  191.3470  177.7880  140.3170 C   0  0  2  0  0  3  0  0  0  0  0  0
  190.6320  176.8910  139.4200 N   0  0  0  0  0  0  0  0  0  0  0  0
  189.6250  177.2590  138.5320 C   0  0  0  0  0  0  0  0  0  0  0  0
  191.1510  175.6390  139.0230 N   0  0  0  0  0  0  0  0  0  0  0  0
  190.3870  175.2070  137.8930 N   0  0  0  0  0  0  0  0  0  0  0  0
  188.9920  178.3480  138.5460 O   0  0  0  0  0  0  0  0  0  0  0  0
  189.4700  176.2380  137.5970 N   0  0  0  0  0  0  0  0  0  0  0  0
  188.4540  176.1840  136.5410 C   0  0  2  0  0  3  0  0  0  0  0  0
  188.6230  177.3240  135.5430 C   0  0  0  0  0  2  0  0  0  0  0  0
  187.5020  178.1650  135.5870 O   0  0  0  0  0  1  0  0  0  0  0  0
  187.0440  176.1610  137.1320 C   0  0  0  0  0  2  0  0  0  0  0  0
  186.5150  174.8050  137.1830 N   0  0  0  0  0  2  0  0  0  0  0  0
  185.1020  174.9070  136.8430 C   0  0  0  0  0  2  0  0  0  0  0  0
  184.2640  173.9440  137.6720 C   0  0  2  0  0  3  0  0  0  0  0  0
  185.0100  172.8190  138.0210 O   0  0  0  0  0  1  0  0  0  0  0  0
  183.0160  173.5200  136.9190 C   0  0  0  0  0  1  0  0  0  0  0  0
  1  5  1  0  0  0  0
  2  3  1  6  0  0  0
  2  8  1  0  0  0  0
  3  1  2  0  0  0  0
  4  6  1  0  0  0  0
  6  3  1  0  0  0  0
  8  5  1  0  0  0  0
  8  7  2  0  0  0  0
 10 11  1  0  0  0  0
 10  9  1  1  0  0  0
 11  9  1  1  0  0  0
 11  2  1  0  0  0  0
 13 12  1  6  0  0  0
 13 10  1  0  0  0  0
 14 12  1  0  0  0  0
 15 17  1  0  0  0  0
 16 14  1  0  0  0  0
 16 15  1  0  0  0  0
 17 13  1  0  0  0  0
 17 18  1  1  0  0  0
 19 18  1  0  0  0  0
 19 20  1  1  0  0  0
 21 23  2  0  0  0  0
 21 19  1  0  0  0  0
 22 21  1  0  0  0  0
 24 25  1  6  0  0  0
 24 22  1  0  0  0  0
 26 24  1  0  0  0  0
 27 26  1  0  0  0  0
 28 22  1  0  0  0  0
 29 28  1  0  0  0  0
 30 29  1  0  0  0  0
 31  6  1  0  0  0  0
 32 31  1  0  0  0  0
 33 34  1  0  0  0  0
 34 32  1  1  0  0  0
 35 36  1  6  0  0  0
 35 33  1  0  0  0  0
 35 34  1  0  0  0  0
 37 40  2  0  0  0  0
 37 36  1  0  0  0  0
 38 36  1  0  0  0  0
 39 38  2  0  0  0  0
 41 39  1  0  0  0  0
 41 37  1  0  0  0  0
 42 43  1  6  0  0  0
 42 45  1  0  0  0  0
 42 41  1  0  0  0  0
 43 44  1  0  0  0  0
 45 46  1  0  0  0  0
 47 46  1  0  0  0  0
 47 48  1  0  0  0  0
 48 50  1  6  0  0  0
 48 49  1  0  0  0  0
M  END
>  <MODEL>
1

>  <REMARK>
 VINA RESULT:      -6.8      0.000      0.000
  Name = 
  19 active torsions:
  status: ('A' for Active; 'I' for Inactive)
    1  A    between atoms: C_1  and  C_45
    2  A    between atoms: N_4  and  C_32
    3  A    between atoms: C_5  and  C_13
    4  A    between atoms: C_9  and  O_10
    5  A    between atoms: O_10  and  N_50
    6  A    between atoms: C_12  and  C_28
    7  A    between atoms: C_13  and  C_48
    8  A    between atoms: C_14  and  C_20
    9  A    between atoms: C_14  and  N_21
   10  A    between atoms: C_15  and  C_35
   11  A    between atoms: C_16  and  C_25
   12  A    between atoms: C_18  and  C_26
   13  A    between atoms: N_19  and  C_22
   14  A    between atoms: N_19  and  C_45
   15  A    between atoms: N_21  and  C_25
   16  A    between atoms: C_22  and  C_35
   17  A    between atoms: C_35  and  N_44
   18  A    between atoms: N_38  and  N_50
   19  A    between atoms: C_47  and  C_48
                            x       y       z     vdW  Elec       q    Type
                         _______ _______ _______ _____ _____    ______ ____

>  <TORSDO>
F 19

$$$$
=
 OpenBabel11062412573D

 50 54  0  0  1  0  0  0  0  0999 V2000
  187.9680  178.3220  146.7510 N   0  0  0  0  0  0  0  0  0  0  0  0
  188.9530  177.0370  145.0460 C   0  0  2  0  0  3  0  0  0  0  0  0
  187.8040  177.8710  145.5450 C   0  0  0  0  0  0  0  0  0  0  0  0
  186.4210  177.5110  143.6030 O   0  0  0  0  0  1  0  0  0  0  0  0
  189.1780  177.8750  147.2860 N   0  0  0  0  0  2  0  0  0  0  0  0
  186.6220  178.1440  144.7830 N   0  0  0  0  0  0  0  0  0  0  0  0
  190.8630  176.4560  146.4530 O   0  0  0  0  0  0  0  0  0  0  0  0
  189.7740  177.0670  146.2880 C   0  0  0  0  0  0  0  0  0  0  0  0
  190.6910  176.8670  143.2780 C   0  0  0  0  0  2  0  0  0  0  0  0
  189.3730  177.1580  142.5930 C   0  0  1  0  0  3  0  0  0  0  0  0
  189.6830  177.7830  143.9410 C   0  0  1  0  0  3  0  0  0  0  0  0
  188.5350  179.1760  141.5090 O   0  0  0  0  0  0  0  0  0  0  0  0
  189.5760  178.2150  141.5020 C   0  0  2  0  0  3  0  0  0  0  0  0
  187.3500  178.6010  140.9910 C   0  0  0  0  0  2  0  0  0  0  0  0
  188.5610  177.0080  139.6550 O   0  0  0  0  0  0  0  0  0  0  0  0
  187.5910  178.0230  139.5880 C   0  0  0  0  0  2  0  0  0  0  0  0
  189.7500  177.6270  140.0820 C   0  0  2  0  0  3  0  0  0  0  0  0
  190.9220  176.6600  139.9890 C   0  0  0  0  0  2  0  0  0  0  0  0
  191.2130  176.3140  138.5380 C   0  0  1  0  0  3  0  0  0  0  0  0
  190.8160  177.3630  137.7050 O   0  0  0  0  0  1  0  0  0  0  0  0
  192.6740  176.0400  138.3340 C   0  0  0  0  0  0  0  0  0  0  0  0
  193.1130  174.8930  137.5770 N   0  0  0  0  0  0  0  0  0  0  0  0
  193.5210  176.8600  138.7890 O   0  0  0  0  0  0  0  0  0  0  0  0
  194.5480  174.5900  137.5150 C   0  0  2  0  0  3  0  0  0  0  0  0
  195.0250  174.5370  136.0760 C   0  0  0  0  0  1  0  0  0  0  0  0
  194.9540  173.3260  138.2770 C   0  0  0  0  0  2  0  0  0  0  0  0
  195.9770  173.5940  139.1940 O   0  0  0  0  0  1  0  0  0  0  0  0
  192.1210  173.9810  137.0060 C   0  0  0  0  0  2  0  0  0  0  0  0
  191.7660  174.4060  135.5910 C   0  0  0  0  0  2  0  0  0  0  0  0
  190.2580  174.5380  135.4740 C   0  0  0  0  0  1  0  0  0  0  0  0
  185.6030  178.9590  145.3020 N   0  0  0  0  0  2  0  0  0  0  0  0
  184.4300  178.3070  145.1120 O   0  0  0  0  0  0  0  0  0  0  0  0
  182.2820  179.2210  144.7040 C   0  0  0  0  0  2  0  0  0  0  0  0
  183.7110  179.1090  144.2280 C   0  0  2  0  0  3  0  0  0  0  0  0
  182.6260  178.2780  143.5670 C   0  0  2  0  0  3  0  0  0  0  0  0
  182.2330  178.8760  142.2980 N   0  0  0  0  0  0  0  0  0  0  0  0
  182.5620  178.3940  141.0340 C   0  0  0  0  0  0  0  0  0  0  0  0
  181.1300  179.7490  142.1770 N   0  0  0  0  0  0  0  0  0  0  0  0
  180.8220  179.8470  140.7830 N   0  0  0  0  0  0  0  0  0  0  0  0
  183.4530  177.5400  140.7800 O   0  0  0  0  0  0  0  0  0  0  0  0
  181.7050  178.9800  140.1040 N   0  0  0  0  0  0  0  0  0  0  0  0
  181.7700  178.8150  138.6490 C   0  0  2  0  0  3  0  0  0  0  0  0
  181.5370  180.1360  137.9240 C   0  0  0  0  0  2  0  0  0  0  0  0
  181.2920  179.8960  136.5650 O   0  0  0  0  0  1  0  0  0  0  0  0
  180.7970  177.7350  138.1720 C   0  0  0  0  0  2  0  0  0  0  0  0
  181.4400  176.4290  138.1250 N   0  0  0  0  0  2  0  0  0  0  0  0
  182.6380  176.5950  137.3140 C   0  0  0  0  0  2  0  0  0  0  0  0
  182.6620  175.6040  136.1580 C   0  0  2  0  0  3  0  0  0  0  0  0
  183.4250  174.4840  136.4870 O   0  0  0  0  0  1  0  0  0  0  0  0
  183.2140  176.2500  134.8990 C   0  0  0  0  0  1  0  0  0  0  0  0
  1  5  1  0  0  0  0
  2  3  1  1  0  0  0
  2  8  1  0  0  0  0
  3  1  2  0  0  0  0
  4  6  1  0  0  0  0
  6 31  1  0  0  0  0
  6  3  1  0  0  0  0
  8  7  2  0  0  0  0
  8  5  1  0  0  0  0
 10  9  1  6  0  0  0
 10 11  1  0  0  0  0
 11  9  1  1  0  0  0
 11  2  1  0  0  0  0
 13 12  1  6  0  0  0
 13 10  1  0  0  0  0
 14 12  1  0  0  0  0
 15 17  1  0  0  0  0
 16 15  1  0  0  0  0
 16 14  1  0  0  0  0
 17 18  1  1  0  0  0
 17 13  1  0  0  0  0
 19 20  1  6  0  0  0
 19 18  1  0  0  0  0
 21 19  1  0  0  0  0
 21 23  2  0  0  0  0
 22 21  1  0  0  0  0
 24 25  1  6  0  0  0
 24 22  1  0  0  0  0
 24 26  1  0  0  0  0
 26 27  1  0  0  0  0
 28 22  1  0  0  0  0
 29 28  1  0  0  0  0
 30 29  1  0  0  0  0
 32 31  1  0  0  0  0
 34 33  1  0  0  0  0
 34 32  1  1  0  0  0
 35 36  1  6  0  0  0
 35 34  1  0  0  0  0
 35 33  1  0  0  0  0
 37 36  1  0  0  0  0
 38 36  1  0  0  0  0
 39 38  2  0  0  0  0
 40 37  2  0  0  0  0
 41 39  1  0  0  0  0
 41 37  1  0  0  0  0
 42 43  1  6  0  0  0
 42 41  1  0  0  0  0
 44 43  1  0  0  0  0
 45 42  1  0  0  0  0
 46 45  1  0  0  0  0
 47 46  1  0  0  0  0
 48 50  1  6  0  0  0
 48 49  1  0  0  0  0
 48 47  1  0  0  0  0
M  END
>  <MODEL>
2

>  <REMARK>
 VINA RESULT:      -6.1      2.827      8.418
  Name = 
  19 active torsions:
  status: ('A' for Active; 'I' for Inactive)
    1  A    between atoms: C_1  and  C_45
    2  A    between atoms: N_4  and  C_32
    3  A    between atoms: C_5  and  C_13
    4  A    between atoms: C_9  and  O_10
    5  A    between atoms: O_10  and  N_50
    6  A    between atoms: C_12  and  C_28
    7  A    between atoms: C_13  and  C_48
    8  A    between atoms: C_14  and  C_20
    9  A    between atoms: C_14  and  N_21
   10  A    between atoms: C_15  and  C_35
   11  A    between atoms: C_16  and  C_25
   12  A    between atoms: C_18  and  C_26
   13  A    between atoms: N_19  and  C_22
   14  A    between atoms: N_19  and  C_45
   15  A    between atoms: N_21  and  C_25
   16  A    between atoms: C_22  and  C_35
   17  A    between atoms: C_35  and  N_44
   18  A    between atoms: N_38  and  N_50
   19  A    between atoms: C_47  and  C_48
                            x       y       z     vdW  Elec       q    Type
                         _______ _______ _______ _____ _____    ______ ____

>  <TORSDO>
F 19

$$$$
=
 OpenBabel11062412573D

 50 54  0  0  1  0  0  0  0  0999 V2000
  189.2650  177.8670  146.8140 N   0  0  0  0  0  0  0  0  0  0  0  0
  189.9500  176.7220  144.8770 C   0  0  2  0  0  3  0  0  0  0  0  0
  188.9070  177.5170  145.6170 C   0  0  0  0  0  0  0  0  0  0  0  0
  187.2310  177.3220  143.8940 O   0  0  0  0  0  1  0  0  0  0  0  0
  190.5360  177.3730  147.1140 N   0  0  0  0  0  2  0  0  0  0  0  0
  187.6240  177.8550  145.0750 N   0  0  0  0  0  0  0  0  0  0  0  0
  192.0470  176.0220  145.9140 O   0  0  0  0  0  0  0  0  0  0  0  0
  190.9550  176.6470  145.9730 C   0  0  0  0  0  0  0  0  0  0  0  0
  191.4880  176.7290  142.9250 C   0  0  0  0  0  2  0  0  0  0  0  0
  190.0880  176.9640  142.4010 C   0  0  1  0  0  3  0  0  0  0  0  0
  190.5100  177.5550  143.7350 C   0  0  1  0  0  3  0  0  0  0  0  0
  189.0520  178.9980  141.5380 O   0  0  0  0  0  0  0  0  0  0  0  0
  190.1090  178.0740  141.3440 C   0  0  2  0  0  3  0  0  0  0  0  0
  187.8240  178.4040  141.1590 C   0  0  0  0  0  2  0  0  0  0  0  0
  188.8840  176.9130  139.5970 O   0  0  0  0  0  0  0  0  0  0  0  0
  187.8860  177.8960  139.7110 C   0  0  0  0  0  2  0  0  0  0  0  0
  190.1030  177.5540  139.8870 C   0  0  2  0  0  3  0  0  0  0  0  0
  191.2770  176.6330  139.5900 C   0  0  0  0  0  2  0  0  0  0  0  0
  191.5740  176.6120  138.0990 C   0  0  1  0  0  3  0  0  0  0  0  0
  192.9500  176.7040  137.8820 O   0  0  0  0  0  1  0  0  0  0  0  0
  191.0510  175.3550  137.4660 C   0  0  0  0  0  0  0  0  0  0  0  0
  190.2220  175.4110  136.2880 N   0  0  0  0  0  0  0  0  0  0  0  0
  191.3930  174.2380  137.9490 O   0  0  0  0  0  0  0  0  0  0  0  0
  189.6250  174.1680  135.7800 C   0  0  2  0  0  3  0  0  0  0  0  0
  190.4120  173.6370  134.5960 C   0  0  0  0  0  1  0  0  0  0  0  0
  188.1360  174.2810  135.4450 C   0  0  0  0  0  2  0  0  0  0  0  0
  187.4300  173.1600  135.8950 O   0  0  0  0  0  1  0  0  0  0  0  0
  189.8800  176.7080  135.7050 C   0  0  0  0  0  2  0  0  0  0  0  0
  188.5260  177.1750  136.2130 C   0  0  0  0  0  2  0  0  0  0  0  0
  188.5300  178.6890  136.3230 C   0  0  0  0  0  1  0  0  0  0  0  0
  186.7130  178.6280  145.8120 N   0  0  0  0  0  2  0  0  0  0  0  0
  185.5030  178.0260  145.7140 O   0  0  0  0  0  0  0  0  0  0  0  0
  183.4150  179.1370  145.5570 C   0  0  0  0  0  2  0  0  0  0  0  0
  184.7470  178.8660  144.8990 C   0  0  2  0  0  3  0  0  0  0  0  0
  183.5070  178.1280  144.4290 C   0  0  2  0  0  3  0  0  0  0  0  0
  183.0000  178.7200  143.1990 N   0  0  0  0  0  0  0  0  0  0  0  0
  183.4960  178.4880  141.9180 C   0  0  0  0  0  0  0  0  0  0  0  0
  181.6960  179.2510  143.0900 N   0  0  0  0  0  0  0  0  0  0  0  0
  181.4190  179.4050  141.6950 N   0  0  0  0  0  0  0  0  0  0  0  0
  184.6040  177.9560  141.6430 O   0  0  0  0  0  0  0  0  0  0  0  0
  182.5380  178.9020  140.9950 N   0  0  0  0  0  0  0  0  0  0  0  0
  182.6960  178.9180  139.5380 C   0  0  2  0  0  3  0  0  0  0  0  0
  182.9140  180.3330  139.0130 C   0  0  0  0  0  2  0  0  0  0  0  0
  184.2750  180.5370  138.7480 O   0  0  0  0  0  1  0  0  0  0  0  0
  181.5110  178.2420  138.8470 C   0  0  0  0  0  2  0  0  0  0  0  0
  181.8790  176.9310  138.3310 N   0  0  0  0  0  2  0  0  0  0  0  0
  183.3340  176.9130  138.2680 C   0  0  0  0  0  2  0  0  0  0  0  0
  183.8210  176.4090  136.9160 C   0  0  2  0  0  3  0  0  0  0  0  0
  182.7650  175.8640  136.1860 O   0  0  0  0  0  1  0  0  0  0  0  0
  184.9190  175.3730  137.0850 C   0  0  0  0  0  1  0  0  0  0  0  0
  1  5  1  0  0  0  0
  2  3  1  1  0  0  0
  2  8  1  0  0  0  0
  3  1  2  0  0  0  0
  4  6  1  0  0  0  0
  6  3  1  0  0  0  0
  6 31  1  0  0  0  0
  7  8  2  0  0  0  0
  8  5  1  0  0  0  0
 10  9  1  6  0  0  0
 10 11  1  0  0  0  0
 11  9  1  6  0  0  0
 11  2  1  0  0  0  0
 13 12  1  6  0  0  0
 13 10  1  0  0  0  0
 14 12  1  0  0  0  0
 15 16  1  0  0  0  0
 15 17  1  0  0  0  0
 16 14  1  0  0  0  0
 17 18  1  1  0  0  0
 17 13  1  0  0  0  0
 19 20  1  1  0  0  0
 19 18  1  0  0  0  0
 21 23  2  0  0  0  0
 21 19  1  0  0  0  0
 22 21  1  0  0  0  0
 24 25  1  6  0  0  0
 24 22  1  0  0  0  0
 26 24  1  0  0  0  0
 26 27  1  0  0  0  0
 28 29  1  0  0  0  0
 28 22  1  0  0  0  0
 29 30  1  0  0  0  0
 32 31  1  0  0  0  0
 34 33  1  0  0  0  0
 34 32  1  1  0  0  0
 35 36  1  6  0  0  0
 35 34  1  0  0  0  0
 35 33  1  0  0  0  0
 37 36  1  0  0  0  0
 38 36  1  0  0  0  0
 39 38  2  0  0  0  0
 40 37  2  0  0  0  0
 41 39  1  0  0  0  0
 41 37  1  0  0  0  0
 42 45  1  6  0  0  0
 42 41  1  0  0  0  0
 43 42  1  0  0  0  0
 44 43  1  0  0  0  0
 46 45  1  0  0  0  0
 47 46  1  0  0  0  0
 48 50  1  1  0  0  0
 48 47  1  0  0  0  0
 49 48  1  0  0  0  0
M  END
>  <MODEL>
3

>  <REMARK>
 VINA RESULT:      -6.1      2.323      7.416
  Name = 
  19 active torsions:
  status: ('A' for Active; 'I' for Inactive)
    1  A    between atoms: C_1  and  C_45
    2  A    between atoms: N_4  and  C_32
    3  A    between atoms: C_5  and  C_13
    4  A    between atoms: C_9  and  O_10
    5  A    between atoms: O_10  and  N_50
    6  A    between atoms: C_12  and  C_28
    7  A    between atoms: C_13  and  C_48
    8  A    between atoms: C_14  and  C_20
    9  A    between atoms: C_14  and  N_21
   10  A    between atoms: C_15  and  C_35
   11  A    between atoms: C_16  and  C_25
   12  A    between atoms: C_18  and  C_26
   13  A    between atoms: N_19  and  C_22
   14  A    between atoms: N_19  and  C_45
   15  A    between atoms: N_21  and  C_25
   16  A    between atoms: C_22  and  C_35
   17  A    between atoms: C_35  and  N_44
   18  A    between atoms: N_38  and  N_50
   19  A    between atoms: C_47  and  C_48
                            x       y       z     vdW  Elec       q    Type
                         _______ _______ _______ _____ _____    ______ ____

>  <TORSDO>
F 19

$$$$
=
 OpenBabel11062412573D

 50 54  0  0  1  0  0  0  0  0999 V2000
  188.6730  177.1750  146.0980 N   0  0  0  0  0  0  0  0  0  0  0  0
  186.8850  178.5300  145.3940 C   0  0  2  0  0  3  0  0  0  0  0  0
  188.1660  177.8040  145.0820 C   0  0  0  0  0  0  0  0  0  0  0  0
  188.3240  178.6140  142.8170 O   0  0  0  0  0  1  0  0  0  0  0  0
  187.8950  177.3710  147.2400 N   0  0  0  0  0  2  0  0  0  0  0  0
  188.7950  177.8050  143.7950 N   0  0  0  0  0  0  0  0  0  0  0  0
  185.9530  178.6410  147.6480 O   0  0  0  0  0  0  0  0  0  0  0  0
  186.8290  178.2170  146.8480 C   0  0  0  0  0  0  0  0  0  0  0  0
  184.4300  178.5610  145.0070 C   0  0  0  0  0  2  0  0  0  0  0  0
  185.1040  178.7880  143.6700 C   0  0  1  0  0  3  0  0  0  0  0  0
  185.7260  177.8460  144.6850 C   0  0  1  0  0  3  0  0  0  0  0  0
  185.3050  177.5860  141.5560 O   0  0  0  0  0  0  0  0  0  0  0  0
  184.4070  177.9540  142.5890 C   0  0  2  0  0  3  0  0  0  0  0  0
  185.6020  178.7160  140.7570 C   0  0  0  0  0  2  0  0  0  0  0  0
  183.5060  179.7820  141.2670 O   0  0  0  0  0  0  0  0  0  0  0  0
  184.3160  179.3480  140.2030 C   0  0  0  0  0  2  0  0  0  0  0  0
  183.1510  178.6280  141.9890 C   0  0  2  0  0  3  0  0  0  0  0  0
  182.1030  178.9550  143.0430 C   0  0  0  0  0  2  0  0  0  0  0  0
  180.7090  178.6360  142.5260 C   0  0  1  0  0  3  0  0  0  0  0  0
  179.7970  178.6210  143.5840 O   0  0  0  0  0  1  0  0  0  0  0  0
  180.2720  179.6440  141.5040 C   0  0  0  0  0  0  0  0  0  0  0  0
  180.0440  179.2560  140.1340 N   0  0  0  0  0  0  0  0  0  0  0  0
  180.0530  180.8330  141.8710 O   0  0  0  0  0  0  0  0  0  0  0  0
  179.7470  180.2970  139.1410 C   0  0  2  0  0  3  0  0  0  0  0  0
  179.1910  179.6840  137.8680 C   0  0  0  0  0  1  0  0  0  0  0  0
  180.9250  181.2250  138.8360 C   0  0  0  0  0  2  0  0  0  0  0  0
  180.5130  182.3390  138.0960 O   0  0  0  0  0  1  0  0  0  0  0  0
  180.2470  177.8640  139.7330 C   0  0  0  0  0  2  0  0  0  0  0  0
  178.9350  177.0990  139.8010 C   0  0  0  0  0  2  0  0  0  0  0  0
  179.0560  175.9940  140.8350 C   0  0  0  0  0  1  0  0  0  0  0  0
  189.9750  177.0770  143.5700 N   0  0  0  0  0  2  0  0  0  0  0  0
  189.7670  176.3010  142.4790 O   0  0  0  0  0  0  0  0  0  0  0  0
  191.5830  177.6700  141.8140 C   0  0  0  0  0  2  0  0  0  0  0  0
  190.9890  176.2810  141.8110 C   0  0  2  0  0  3  0  0  0  0  0  0
  190.8960  177.1470  140.5670 C   0  0  2  0  0  3  0  0  0  0  0  0
  191.8970  176.7390  139.5910 N   0  0  0  0  0  0  0  0  0  0  0  0
  191.6670  175.9350  138.4770 C   0  0  0  0  0  0  0  0  0  0  0  0
  193.1050  177.4430  139.4000 N   0  0  0  0  0  0  0  0  0  0  0  0
  193.6580  177.0000  138.1560 N   0  0  0  0  0  0  0  0  0  0  0  0
  190.6470  175.2230  138.2800 O   0  0  0  0  0  0  0  0  0  0  0  0
  192.7360  176.0890  137.5970 N   0  0  0  0  0  0  0  0  0  0  0  0
  192.9350  175.3520  136.3450 C   0  0  2  0  0  3  0  0  0  0  0  0
  191.8490  175.6770  135.3260 C   0  0  0  0  0  2  0  0  0  0  0  0
  190.7920  174.7650  135.4490 O   0  0  0  0  0  1  0  0  0  0  0  0
  193.0310  173.8470  136.5990 C   0  0  0  0  0  2  0  0  0  0  0  0
  194.4170  173.4000  136.5970 N   0  0  0  0  0  2  0  0  0  0  0  0
  194.7870  173.2170  137.9940 C   0  0  0  0  0  2  0  0  0  0  0  0
  196.1230  173.8800  138.3020 C   0  0  2  0  0  3  0  0  0  0  0  0
  195.9690  174.8660  139.2760 O   0  0  0  0  0  1  0  0  0  0  0  0
  196.7320  174.4850  137.0490 C   0  0  0  0  0  1  0  0  0  0  0  0
  1  5  1  0  0  0  0
  2  3  1  6  0  0  0
  2  8  1  0  0  0  0
  3  1  2  0  0  0  0
  4  6  1  0  0  0  0
  6  3  1  0  0  0  0
  8  5  1  0  0  0  0
  8  7  2  0  0  0  0
 10 11  1  0  0  0  0
 10  9  1  1  0  0  0
 11  9  1  1  0  0  0
 11  2  1  0  0  0  0
 13 12  1  6  0  0  0
 13 10  1  0  0  0  0
 14 12  1  0  0  0  0
 15 17  1  0  0  0  0
 16 14  1  0  0  0  0
 16 15  1  0  0  0  0
 17 13  1  0  0  0  0
 17 18  1  1  0  0  0
 19 18  1  0  0  0  0
 19 20  1  1  0  0  0
 21 23  2  0  0  0  0
 21 19  1  0  0  0  0
 22 21  1  0  0  0  0
 24 25  1  6  0  0  0
 24 22  1  0  0  0  0
 26 24  1  0  0  0  0
 27 26  1  0  0  0  0
 28 29  1  0  0  0  0
 28 22  1  0  0  0  0
 29 30  1  0  0  0  0
 31  6  1  0  0  0  0
 32 31  1  0  0  0  0
 34 33  1  0  0  0  0
 34 32  1  1  0  0  0
 35 36  1  6  0  0  0
 35 34  1  0  0  0  0
 35 33  1  0  0  0  0
 37 36  1  0  0  0  0
 38 36  1  0  0  0  0
 39 38  2  0  0  0  0
 40 37  2  0  0  0  0
 41 39  1  0  0  0  0
 41 37  1  0  0  0  0
 42 43  1  6  0  0  0
 42 45  1  0  0  0  0
 42 41  1  0  0  0  0
 43 44  1  0  0  0  0
 46 45  1  0  0  0  0
 46 47  1  0  0  0  0
 47 48  1  0  0  0  0
 48 50  1  6  0  0  0
 48 49  1  0  0  0  0
M  END
>  <MODEL>
4

>  <REMARK>
 VINA RESULT:      -5.7      2.744      4.312
  Name = 
  19 active torsions:
  status: ('A' for Active; 'I' for Inactive)
    1  A    between atoms: C_1  and  C_45
    2  A    between atoms: N_4  and  C_32
    3  A    between atoms: C_5  and  C_13
    4  A    between atoms: C_9  and  O_10
    5  A    between atoms: O_10  and  N_50
    6  A    between atoms: C_12  and  C_28
    7  A    between atoms: C_13  and  C_48
    8  A    between atoms: C_14  and  C_20
    9  A    between atoms: C_14  and  N_21
   10  A    between atoms: C_15  and  C_35
   11  A    between atoms: C_16  and  C_25
   12  A    between atoms: C_18  and  C_26
   13  A    between atoms: N_19  and  C_22
   14  A    between atoms: N_19  and  C_45
   15  A    between atoms: N_21  and  C_25
   16  A    between atoms: C_22  and  C_35
   17  A    between atoms: C_35  and  N_44
   18  A    between atoms: N_38  and  N_50
   19  A    between atoms: C_47  and  C_48
                            x       y       z     vdW  Elec       q    Type
                         _______ _______ _______ _____ _____    ______ ____

>  <TORSDO>
F 19

$$$$
=
 OpenBabel11062412573D

 50 54  0  0  1  0  0  0  0  0999 V2000
  191.2790  176.8400  146.1060 N   0  0  0  0  0  0  0  0  0  0  0  0
  189.1560  177.8490  146.0730 C   0  0  2  0  0  3  0  0  0  0  0  0
  190.4680  177.5610  145.3950 C   0  0  0  0  0  0  0  0  0  0  0  0
  190.0130  178.9280  143.4610 O   0  0  0  0  0  1  0  0  0  0  0  0
  190.7180  176.5470  147.3510 N   0  0  0  0  0  2  0  0  0  0  0  0
  190.8180  178.0390  144.0900 N   0  0  0  0  0  0  0  0  0  0  0  0
  188.6830  177.1590  148.3670 O   0  0  0  0  0  0  0  0  0  0  0  0
  189.4500  177.1770  147.3680 C   0  0  0  0  0  0  0  0  0  0  0  0
  186.6950  177.6660  145.7760 C   0  0  0  0  0  2  0  0  0  0  0  0
  187.2880  178.0450  144.4360 C   0  0  1  0  0  3  0  0  0  0  0  0
  188.0390  177.1030  145.3600 C   0  0  1  0  0  3  0  0  0  0  0  0
  187.5630  176.3720  142.6820 O   0  0  0  0  0  0  0  0  0  0  0  0
  186.6280  177.2210  143.3250 C   0  0  2  0  0  3  0  0  0  0  0  0
  188.4190  177.1420  141.8580 C   0  0  0  0  0  2  0  0  0  0  0  0
  186.7690  178.8650  141.5420 O   0  0  0  0  0  0  0  0  0  0  0  0
  187.6090  177.9730  140.8520 C   0  0  0  0  0  2  0  0  0  0  0  0
  185.8700  178.0710  142.2770 C   0  0  2  0  0  3  0  0  0  0  0  0
  184.7800  178.9300  142.9000 C   0  0  0  0  0  2  0  0  0  0  0  0
  183.6460  179.1500  141.9130 C   0  0  1  0  0  3  0  0  0  0  0  0
  183.7460  178.2420  140.8570 O   0  0  0  0  0  1  0  0  0  0  0  0
  182.3130  178.9930  142.5830 C   0  0  0  0  0  0  0  0  0  0  0  0
  181.0890  179.0880  141.8260 N   0  0  0  0  0  0  0  0  0  0  0  0
  182.2750  178.7200  143.8160 O   0  0  0  0  0  0  0  0  0  0  0  0
  179.8070  179.0610  142.5420 C   0  0  2  0  0  3  0  0  0  0  0  0
  179.5520  180.3830  143.2420 C   0  0  0  0  0  1  0  0  0  0  0  0
  179.6570  177.8860  143.5120 C   0  0  0  0  0  2  0  0  0  0  0  0
  179.0690  178.2960  144.7140 O   0  0  0  0  0  1  0  0  0  0  0  0
  181.1470  179.3490  140.3870 C   0  0  0  0  0  2  0  0  0  0  0  0
  180.2440  178.3820  139.6390 C   0  0  0  0  0  2  0  0  0  0  0  0
  180.2720  178.7180  138.1590 C   0  0  0  0  0  1  0  0  0  0  0  0
  192.0500  177.7030  143.5070 N   0  0  0  0  0  2  0  0  0  0  0  0
  192.0610  178.2270  142.2570 O   0  0  0  0  0  0  0  0  0  0  0  0
  193.1130  177.1250  140.4420 C   0  0  0  0  0  2  0  0  0  0  0  0
  191.9500  177.1300  141.4050 C   0  0  2  0  0  3  0  0  0  0  0  0
  191.7550  177.6180  139.9810 C   0  0  2  0  0  3  0  0  0  0  0  0
  191.1070  176.5910  139.1770 N   0  0  0  0  0  0  0  0  0  0  0  0
  190.0390  176.7910  138.3060 C   0  0  0  0  0  0  0  0  0  0  0  0
  191.7370  175.3710  138.8480 N   0  0  0  0  0  0  0  0  0  0  0  0
  190.9840  174.7840  137.7820 N   0  0  0  0  0  0  0  0  0  0  0  0
  189.2990  177.8110  138.2700 O   0  0  0  0  0  0  0  0  0  0  0  0
  189.9580  175.6940  137.4510 N   0  0  0  0  0  0  0  0  0  0  0  0
  188.9190  175.4620  136.4430 C   0  0  2  0  0  3  0  0  0  0  0  0
  188.8940  176.5730  135.3990 C   0  0  0  0  0  2  0  0  0  0  0  0
  190.1650  176.7160  134.8250 O   0  0  0  0  0  1  0  0  0  0  0  0
  187.5480  175.2770  137.0950 C   0  0  0  0  0  2  0  0  0  0  0  0
  186.4890  175.2440  136.0960 N   0  0  0  0  0  2  0  0  0  0  0  0
  185.2670  175.6300  136.7880 C   0  0  0  0  0  2  0  0  0  0  0  0
  184.9980  177.1220  136.6420 C   0  0  2  0  0  3  0  0  0  0  0  0
  185.8920  177.8600  137.4170 O   0  0  0  0  0  1  0  0  0  0  0  0
  183.5720  177.4600  137.0380 C   0  0  0  0  0  1  0  0  0  0  0  0
  1  5  1  0  0  0  0
  2  3  1  6  0  0  0
  2  8  1  0  0  0  0
  3  1  2  0  0  0  0
  4  6  1  0  0  0  0
  5  8  1  0  0  0  0
  6  3  1  0  0  0  0
  8  7  2  0  0  0  0
 10 11  1  0  0  0  0
 10  9  1  1  0  0  0
 11  9  1  1  0  0  0
 11  2  1  0  0  0  0
 13 12  1  6  0  0  0
 13 10  1  0  0  0  0
 14 12  1  0  0  0  0
 15 17  1  0  0  0  0
 16 15  1  0  0  0  0
 16 14  1  0  0  0  0
 17 18  1  1  0  0  0
 17 13  1  0  0  0  0
 19 20  1  6  0  0  0
 19 21  1  0  0  0  0
 19 18  1  0  0  0  0
 21 23  2  0  0  0  0
 22 24  1  0  0  0  0
 22 21  1  0  0  0  0
 24 25  1  1  0  0  0
 24 26  1  0  0  0  0
 26 27  1  0  0  0  0
 28 22  1  0  0  0  0
 29 28  1  0  0  0  0
 30 29  1  0  0  0  0
 31  6  1  0  0  0  0
 32 31  1  0  0  0  0
 33 34  1  0  0  0  0
 34 32  1  1  0  0  0
 35 36  1  6  0  0  0
 35 33  1  0  0  0  0
 35 34  1  0  0  0  0
 37 36  1  0  0  0  0
 38 36  1  0  0  0  0
 39 38  2  0  0  0  0
 40 37  2  0  0  0  0
 41 39  1  0  0  0  0
 41 37  1  0  0  0  0
 42 43  1  6  0  0  0
 42 45  1  0  0  0  0
 42 41  1  0  0  0  0
 44 43  1  0  0  0  0
 46 47  1  0  0  0  0
 46 45  1  0  0  0  0
 48 47  1  0  0  0  0
 48 50  1  1  0  0  0
 48 49  1  0  0  0  0
M  END
>  <MODEL>
5

>  <REMARK>
 VINA RESULT:      -5.6      1.552      2.126
  Name = 
  19 active torsions:
  status: ('A' for Active; 'I' for Inactive)
    1  A    between atoms: C_1  and  C_45
    2  A    between atoms: N_4  and  C_32
    3  A    between atoms: C_5  and  C_13
    4  A    between atoms: C_9  and  O_10
    5  A    between atoms: O_10  and  N_50
    6  A    between atoms: C_12  and  C_28
    7  A    between atoms: C_13  and  C_48
    8  A    between atoms: C_14  and  C_20
    9  A    between atoms: C_14  and  N_21
   10  A    between atoms: C_15  and  C_35
   11  A    between atoms: C_16  and  C_25
   12  A    between atoms: C_18  and  C_26
   13  A    between atoms: N_19  and  C_22
   14  A    between atoms: N_19  and  C_45
   15  A    between atoms: N_21  and  C_25
   16  A    between atoms: C_22  and  C_35
   17  A    between atoms: C_35  and  N_44
   18  A    between atoms: N_38  and  N_50
   19  A    between atoms: C_47  and  C_48
                            x       y       z     vdW  Elec       q    Type
                         _______ _______ _______ _____ _____    ______ ____

>  <TORSDO>
F 19

$$$$
=
 OpenBabel11062412573D

 50 54  0  0  1  0  0  0  0  0999 V2000
  185.6570  179.0970  142.6830 N   0  0  0  0  0  0  0  0  0  0  0  0
  184.4660  178.4550  140.7600 C   0  0  2  0  0  3  0  0  0  0  0  0
  184.4890  178.7550  142.2350 C   0  0  0  0  0  0  0  0  0  0  0  0
  182.1880  178.1400  142.6130 O   0  0  0  0  0  1  0  0  0  0  0  0
  186.6090  179.0610  141.6610 N   0  0  0  0  0  2  0  0  0  0  0  0
  183.3410  178.6660  143.0890 N   0  0  0  0  0  0  0  0  0  0  0  0
  186.4860  178.4500  139.3890 O   0  0  0  0  0  0  0  0  0  0  0  0
  185.9190  178.6400  140.4980 C   0  0  0  0  0  0  0  0  0  0  0  0
  183.7500  179.3030  138.5370 C   0  0  0  0  0  2  0  0  0  0  0  0
  182.5010  178.9190  139.3000 C   0  0  1  0  0  3  0  0  0  0  0  0
  183.6800  179.5340  140.0320 C   0  0  1  0  0  3  0  0  0  0  0  0
  180.8580  180.3870  140.3480 O   0  0  0  0  0  0  0  0  0  0  0  0
  181.4250  179.9940  139.1100 C   0  0  2  0  0  3  0  0  0  0  0  0
  180.0100  179.3610  140.8310 C   0  0  0  0  0  2  0  0  0  0  0  0
  179.5510  178.5290  138.6210 O   0  0  0  0  0  0  0  0  0  0  0  0
  178.9360  179.0030  139.7930 C   0  0  0  0  0  2  0  0  0  0  0  0
  180.3100  179.5990  138.1140 C   0  0  2  0  0  3  0  0  0  0  0  0
  180.8530  179.2640  136.7320 C   0  0  0  0  0  2  0  0  0  0  0  0
  180.6720  177.7850  136.4320 C   0  0  1  0  0  3  0  0  0  0  0  0
  179.7800  177.6160  135.3710 O   0  0  0  0  0  1  0  0  0  0  0  0
  181.9840  177.1420  136.0900 C   0  0  0  0  0  0  0  0  0  0  0  0
  182.3470  175.8620  136.6470 N   0  0  0  0  0  0  0  0  0  0  0  0
  182.7470  177.7120  135.2600 O   0  0  0  0  0  0  0  0  0  0  0  0
  183.6930  175.3330  136.3910 C   0  0  2  0  0  3  0  0  0  0  0  0
  183.7190  173.8250  136.5580 C   0  0  0  0  0  1  0  0  0  0  0  0
  184.7950  175.9970  137.2200 C   0  0  0  0  0  2  0  0  0  0  0  0
  186.0620  175.7130  136.6970 O   0  0  0  0  0  1  0  0  0  0  0  0
  181.4290  175.1850  137.5630 C   0  0  0  0  0  2  0  0  0  0  0  0
  181.7200  175.5910  138.9980 C   0  0  0  0  0  2  0  0  0  0  0  0
  180.4660  175.4030  139.8330 C   0  0  0  0  0  1  0  0  0  0  0  0
  183.4310  178.9930  144.4510 N   0  0  0  0  0  2  0  0  0  0  0  0
  184.6740  179.4900  144.6650 O   0  0  0  0  0  0  0  0  0  0  0  0
  184.8400  178.2960  146.7050 C   0  0  0  0  0  2  0  0  0  0  0  0
  185.3680  178.4630  145.3000 C   0  0  2  0  0  3  0  0  0  0  0  0
  186.1450  179.0330  146.4740 C   0  0  2  0  0  3  0  0  0  0  0  0
  187.2650  178.1650  146.8100 N   0  0  0  0  0  0  0  0  0  0  0  0
  188.3110  177.8180  145.9580 C   0  0  0  0  0  0  0  0  0  0  0  0
  187.6640  177.9180  148.1410 N   0  0  0  0  0  0  0  0  0  0  0  0
  188.9730  177.3420  148.0880 N   0  0  0  0  0  0  0  0  0  0  0  0
  188.3250  177.9720  144.7080 O   0  0  0  0  0  0  0  0  0  0  0  0
  189.3570  177.3170  146.7300 N   0  0  0  0  0  0  0  0  0  0  0  0
  190.6110  176.7540  146.2200 C   0  0  2  0  0  3  0  0  0  0  0  0
  191.5640  176.3910  147.3540 C   0  0  0  0  0  2  0  0  0  0  0  0
  192.3810  175.3210  146.9650 O   0  0  0  0  0  1  0  0  0  0  0  0
  191.2710  177.6970  145.2140 C   0  0  0  0  0  2  0  0  0  0  0  0
  191.6830  176.9840  144.0130 N   0  0  0  0  0  2  0  0  0  0  0  0
  190.8520  177.4960  142.9310 C   0  0  0  0  0  2  0  0  0  0  0  0
  190.1970  176.3610  142.1550 C   0  0  2  0  0  3  0  0  0  0  0  0
  190.5130  176.4470  140.8000 O   0  0  0  0  0  1  0  0  0  0  0  0
  188.6890  176.3790  142.3340 C   0  0  0  0  0  1  0  0  0  0  0  0
  2  8  1  6  0  0  0
  2  3  1  0  0  0  0
  3  1  2  0  0  0  0
  3  6  1  0  0  0  0
  4  6  1  0  0  0  0
  5  1  1  0  0  0  0
  6 31  1  0  0  0  0
  7  8  2  0  0  0  0
  8  5  1  0  0  0  0
 10  9  1  6  0  0  0
 10 11  1  0  0  0  0
 11  9  1  6  0  0  0
 11  2  1  0  0  0  0
 12 14  1  0  0  0  0
 13 10  1  0  0  0  0
 13 12  1  1  0  0  0
 15 16  1  0  0  0  0
 16 14  1  0  0  0  0
 17 18  1  6  0  0  0
 17 15  1  0  0  0  0
 17 13  1  0  0  0  0
 19 20  1  6  0  0  0
 19 18  1  0  0  0  0
 21 19  1  0  0  0  0
 21 22  1  0  0  0  0
 22 28  1  0  0  0  0
 23 21  2  0  0  0  0
 24 25  1  1  0  0  0
 24 22  1  0  0  0  0
 24 26  1  0  0  0  0
 27 26  1  0  0  0  0
 28 29  1  0  0  0  0
 29 30  1  0  0  0  0
 31 32  1  0  0  0  0
 34 32  1  6  0  0  0
 34 35  1  0  0  0  0
 34 33  1  0  0  0  0
 35 33  1  1  0  0  0
 35 36  1  0  0  0  0
 36 38  1  0  0  0  0
 37 41  1  0  0  0  0
 37 36  1  0  0  0  0
 39 38  2  0  0  0  0
 40 37  2  0  0  0  0
 41 39  1  0  0  0  0
 42 45  1  6  0  0  0
 42 41  1  0  0  0  0
 42 43  1  0  0  0  0
 44 43  1  0  0  0  0
 46 45  1  0  0  0  0
 47 46  1  0  0  0  0
 48 50  1  6  0  0  0
 48 47  1  0  0  0  0
 49 48  1  0  0  0  0
M  END
>  <MODEL>
6

>  <REMARK>
 VINA RESULT:      -5.4      2.664      7.922
  Name = 
  19 active torsions:
  status: ('A' for Active; 'I' for Inactive)
    1  A    between atoms: C_1  and  C_45
    2  A    between atoms: N_4  and  C_32
    3  A    between atoms: C_5  and  C_13
    4  A    between atoms: C_9  and  O_10
    5  A    between atoms: O_10  and  N_50
    6  A    between atoms: C_12  and  C_28
    7  A    between atoms: C_13  and  C_48
    8  A    between atoms: C_14  and  C_20
    9  A    between atoms: C_14  and  N_21
   10  A    between atoms: C_15  and  C_35
   11  A    between atoms: C_16  and  C_25
   12  A    between atoms: C_18  and  C_26
   13  A    between atoms: N_19  and  C_22
   14  A    between atoms: N_19  and  C_45
   15  A    between atoms: N_21  and  C_25
   16  A    between atoms: C_22  and  C_35
   17  A    between atoms: C_35  and  N_44
   18  A    between atoms: N_38  and  N_50
   19  A    between atoms: C_47  and  C_48
                            x       y       z     vdW  Elec       q    Type
                         _______ _______ _______ _____ _____    ______ ____

>  <TORSDO>
F 19

$$$$
=
 OpenBabel11062412573D

 50 54  0  0  1  0  0  0  0  0999 V2000
  188.4130  177.7860  144.6260 N   0  0  0  0  0  0  0  0  0  0  0  0
  189.0710  176.7010  142.6470 C   0  0  2  0  0  3  0  0  0  0  0  0
  188.0960  177.5790  143.3860 C   0  0  0  0  0  0  0  0  0  0  0  0
  186.5340  177.7480  141.5560 O   0  0  0  0  0  1  0  0  0  0  0  0
  189.5820  177.0980  144.9600 N   0  0  0  0  0  2  0  0  0  0  0  0
  186.9120  178.1330  142.7980 N   0  0  0  0  0  0  0  0  0  0  0  0
  190.9760  175.6390  143.7450 O   0  0  0  0  0  0  0  0  0  0  0  0
  189.9770  176.4060  143.7900 C   0  0  0  0  0  0  0  0  0  0  0  0
  191.2680  177.0970  141.5560 C   0  0  0  0  0  2  0  0  0  0  0  0
  190.3050  176.6370  140.4830 C   0  0  1  0  0  3  0  0  0  0  0  0
  189.8170  177.5280  141.6110 C   0  0  1  0  0  3  0  0  0  0  0  0
  189.3030  178.2130  138.9130 O   0  0  0  0  0  0  0  0  0  0  0  0
  190.4830  177.4920  139.2230 C   0  0  2  0  0  3  0  0  0  0  0  0
  188.3240  177.3290  138.3990 C   0  0  0  0  0  2  0  0  0  0  0  0
  189.9750  175.7870  137.5700 O   0  0  0  0  0  0  0  0  0  0  0  0
  188.8660  176.5600  137.1850 C   0  0  0  0  0  2  0  0  0  0  0  0
  190.9640  176.6980  137.9870 C   0  0  2  0  0  3  0  0  0  0  0  0
  192.2840  175.9820  138.2290 C   0  0  0  0  0  2  0  0  0  0  0  0
  193.1870  176.1020  137.0110 C   0  0  1  0  0  3  0  0  0  0  0  0
  193.9570  177.2640  137.0970 O   0  0  0  0  0  1  0  0  0  0  0  0
  194.0910  174.9100  136.8940 C   0  0  0  0  0  0  0  0  0  0  0  0
  193.7870  173.8380  135.9790 N   0  0  0  0  0  0  0  0  0  0  0  0
  195.1580  174.8820  137.5720 O   0  0  0  0  0  0  0  0  0  0  0  0
  194.6270  172.6330  135.9930 C   0  0  2  0  0  3  0  0  0  0  0  0
  195.7690  172.7610  135.0010 C   0  0  0  0  0  1  0  0  0  0  0  0
  193.8540  171.3300  135.7760 C   0  0  0  0  0  2  0  0  0  0  0  0
  194.2530  170.6960  134.5940 O   0  0  0  0  0  1  0  0  0  0  0  0
  192.5780  173.9090  135.1580 C   0  0  0  0  0  2  0  0  0  0  0  0
  191.4170  173.2350  135.8700 C   0  0  0  0  0  2  0  0  0  0  0  0
  190.1900  173.2830  134.9770 C   0  0  0  0  0  1  0  0  0  0  0  0
  186.0650  178.9700  143.5410 N   0  0  0  0  0  2  0  0  0  0  0  0
  184.8830  178.3230  143.6830 O   0  0  0  0  0  0  0  0  0  0  0  0
  182.8980  179.3630  144.4540 C   0  0  0  0  0  2  0  0  0  0  0  0
  183.9130  179.2630  143.3410 C   0  0  2  0  0  3  0  0  0  0  0  0
  182.5690  178.5720  143.2040 C   0  0  2  0  0  3  0  0  0  0  0  0
  181.6830  179.3500  142.3490 N   0  0  0  0  0  0  0  0  0  0  0  0
  181.6630  179.3230  140.9570 C   0  0  0  0  0  0  0  0  0  0  0  0
  180.4640  179.8920  142.8090 N   0  0  0  0  0  0  0  0  0  0  0  0
  179.7060  180.2630  141.6530 N   0  0  0  0  0  0  0  0  0  0  0  0
  182.5610  178.8400  140.2160 O   0  0  0  0  0  0  0  0  0  0  0  0
  180.4600  179.8770  140.5240 N   0  0  0  0  0  0  0  0  0  0  0  0
  180.0750  180.1210  139.1310 C   0  0  2  0  0  3  0  0  0  0  0  0
  180.0560  178.8300  138.3210 C   0  0  0  0  0  2  0  0  0  0  0  0
  179.5130  177.7920  139.0910 O   0  0  0  0  0  1  0  0  0  0  0  0
  180.9790  181.1730  138.4850 C   0  0  0  0  0  2  0  0  0  0  0  0
  180.2600  182.4190  138.2590 N   0  0  0  0  0  2  0  0  0  0  0  0
  180.7650  182.9580  137.0040 C   0  0  0  0  0  2  0  0  0  0  0  0
  181.0830  184.4420  137.1290 C   0  0  2  0  0  3  0  0  0  0  0  0
  182.3790  184.6280  137.6090 O   0  0  0  0  0  1  0  0  0  0  0  0
  180.0900  185.1350  138.0450 C   0  0  0  0  0  1  0  0  0  0  0  0
  1  5  1  0  0  0  0
  2  3  1  1  0  0  0
  2  8  1  0  0  0  0
  3  1  2  0  0  0  0
  4  6  1  0  0  0  0
  6  3  1  0  0  0  0
  6 31  1  0  0  0  0
  7  8  2  0  0  0  0
  8  5  1  0  0  0  0
 10  9  1  1  0  0  0
 10 11  1  0  0  0  0
 11  9  1  1  0  0  0
 11  2  1  0  0  0  0
 13 12  1  6  0  0  0
 13 10  1  0  0  0  0
 14 12  1  0  0  0  0
 15 17  1  0  0  0  0
 16 15  1  0  0  0  0
 16 14  1  0  0  0  0
 17 18  1  1  0  0  0
 17 13  1  0  0  0  0
 19 20  1  1  0  0  0
 19 18  1  0  0  0  0
 21 19  1  0  0  0  0
 21 23  2  0  0  0  0
 22 24  1  0  0  0  0
 22 21  1  0  0  0  0
 24 25  1  6  0  0  0
 26 24  1  0  0  0  0
 27 26  1  0  0  0  0
 28 29  1  0  0  0  0
 28 22  1  0  0  0  0
 30 29  1  0  0  0  0
 31 32  1  0  0  0  0
 34 32  1  1  0  0  0
 34 33  1  0  0  0  0
 35 36  1  6  0  0  0
 35 34  1  0  0  0  0
 35 33  1  0  0  0  0
 36 38  1  0  0  0  0
 37 36  1  0  0  0  0
 39 38  2  0  0  0  0
 40 37  2  0  0  0  0
 41 37  1  0  0  0  0
 41 39  1  0  0  0  0
 42 43  1  6  0  0  0
 42 41  1  0  0  0  0
 43 44  1  0  0  0  0
 45 42  1  0  0  0  0
 46 45  1  0  0  0  0
 47 48  1  0  0  0  0
 47 46  1  0  0  0  0
 48 49  1  0  0  0  0
 48 50  1  1  0  0  0
M  END
>  <MODEL>
7

>  <REMARK>
 VINA RESULT:      -5.3      3.705     10.011
  Name = 
  19 active torsions:
  status: ('A' for Active; 'I' for Inactive)
    1  A    between atoms: C_1  and  C_45
    2  A    between atoms: N_4  and  C_32
    3  A    between atoms: C_5  and  C_13
    4  A    between atoms: C_9  and  O_10
    5  A    between atoms: O_10  and  N_50
    6  A    between atoms: C_12  and  C_28
    7  A    between atoms: C_13  and  C_48
    8  A    between atoms: C_14  and  C_20
    9  A    between atoms: C_14  and  N_21
   10  A    between atoms: C_15  and  C_35
   11  A    between atoms: C_16  and  C_25
   12  A    between atoms: C_18  and  C_26
   13  A    between atoms: N_19  and  C_22
   14  A    between atoms: N_19  and  C_45
   15  A    between atoms: N_21  and  C_25
   16  A    between atoms: C_22  and  C_35
   17  A    between atoms: C_35  and  N_44
   18  A    between atoms: N_38  and  N_50
   19  A    between atoms: C_47  and  C_48
                            x       y       z     vdW  Elec       q    Type
                         _______ _______ _______ _____ _____    ______ ____

>  <TORSDO>
F 19

$$$$
=
 OpenBabel11062412573D

 50 54  0  0  1  0  0  0  0  0999 V2000
  188.6510  177.6870  145.8700 N   0  0  0  0  0  0  0  0  0  0  0  0
  190.0720  176.8320  144.2030 C   0  0  2  0  0  3  0  0  0  0  0  0
  188.6850  177.1690  144.6810 C   0  0  0  0  0  0  0  0  0  0  0  0
  187.5660  176.2380  142.7580 O   0  0  0  0  0  1  0  0  0  0  0  0
  189.9360  177.7630  146.4130 N   0  0  0  0  0  2  0  0  0  0  0  0
  187.4950  176.9360  143.9160 N   0  0  0  0  0  0  0  0  0  0  0  0
  192.0470  177.0860  145.6170 O   0  0  0  0  0  0  0  0  0  0  0  0
  190.8070  177.2180  145.4390 C   0  0  0  0  0  0  0  0  0  0  0  0
  191.8290  177.3920  142.5370 C   0  0  0  0  0  2  0  0  0  0  0  0
  190.5860  176.9940  141.7700 C   0  0  1  0  0  3  0  0  0  0  0  0
  190.4620  177.7690  143.0700 C   0  0  1  0  0  3  0  0  0  0  0  0
  189.0780  178.5460  140.6450 O   0  0  0  0  0  0  0  0  0  0  0  0
  190.3670  177.9600  140.6000 C   0  0  2  0  0  3  0  0  0  0  0  0
  188.1040  177.5870  140.2780 C   0  0  0  0  0  2  0  0  0  0  0  0
  189.6610  176.3370  138.9370 O   0  0  0  0  0  0  0  0  0  0  0  0
  188.4170  176.9890  138.8980 C   0  0  0  0  0  2  0  0  0  0  0  0
  190.6190  177.3300  139.2100 C   0  0  2  0  0  3  0  0  0  0  0  0
  192.0270  176.7720  139.0680 C   0  0  0  0  0  2  0  0  0  0  0  0
  192.1610  175.9850  137.7740 C   0  0  1  0  0  3  0  0  0  0  0  0
  191.2980  176.5040  136.8060 O   0  0  0  0  0  1  0  0  0  0  0  0
  193.5700  176.0290  137.2620 C   0  0  0  0  0  0  0  0  0  0  0  0
  194.3070  174.8130  137.0200 N   0  0  0  0  0  0  0  0  0  0  0  0
  194.0890  177.1490  136.9910 O   0  0  0  0  0  0  0  0  0  0  0  0
  195.7250  174.9040  136.6470 C   0  0  2  0  0  3  0  0  0  0  0  0
  195.9360  174.4360  135.2190 C   0  0  0  0  0  1  0  0  0  0  0  0
  196.6730  174.1830  137.6080 C   0  0  0  0  0  2  0  0  0  0  0  0
  196.7780  174.8690  138.8230 O   0  0  0  0  0  1  0  0  0  0  0  0
  193.6750  173.5200  137.2840 C   0  0  0  0  0  2  0  0  0  0  0  0
  193.2090  172.8860  135.9840 C   0  0  0  0  0  2  0  0  0  0  0  0
  191.6920  172.8220  135.9760 C   0  0  0  0  0  1  0  0  0  0  0  0
  186.2360  177.3070  144.4150 N   0  0  0  0  0  2  0  0  0  0  0  0
  185.9280  178.5110  143.8750 O   0  0  0  0  0  0  0  0  0  0  0  0
  185.9350  179.3730  141.6680 C   0  0  0  0  0  2  0  0  0  0  0  0
  185.5320  178.2300  142.5690 C   0  0  2  0  0  3  0  0  0  0  0  0
  184.4960  179.2480  142.1280 C   0  0  2  0  0  3  0  0  0  0  0  0
  183.6810  178.7060  141.0490 N   0  0  0  0  0  0  0  0  0  0  0  0
  183.8540  178.9600  139.6910 C   0  0  0  0  0  0  0  0  0  0  0  0
  182.9040  177.5370  141.1960 N   0  0  0  0  0  0  0  0  0  0  0  0
  182.5410  177.1050  139.8800 N   0  0  0  0  0  0  0  0  0  0  0  0
  184.5520  179.8860  139.1980 O   0  0  0  0  0  0  0  0  0  0  0  0
  183.1630  177.9880  138.9710 N   0  0  0  0  0  0  0  0  0  0  0  0
  183.0110  177.9400  137.5140 C   0  0  2  0  0  3  0  0  0  0  0  0
  181.5920  177.5540  137.1110 C   0  0  0  0  0  2  0  0  0  0  0  0
  181.3580  177.9210  135.7790 O   0  0  0  0  0  1  0  0  0  0  0  0
  184.0460  177.0080  136.8810 C   0  0  0  0  0  2  0  0  0  0  0  0
  184.2690  175.8290  137.7060 N   0  0  0  0  0  2  0  0  0  0  0  0
  185.3000  175.0520  137.0330 C   0  0  0  0  0  2  0  0  0  0  0  0
  185.3770  173.6370  137.5910 C   0  0  2  0  0  3  0  0  0  0  0  0
  186.5260  172.9910  137.1360 O   0  0  0  0  0  1  0  0  0  0  0  0
  184.1480  172.8330  137.2060 C   0  0  0  0  0  1  0  0  0  0  0  0
  1  5  1  0  0  0  0
  2  3  1  1  0  0  0
  2  8  1  0  0  0  0
  3  1  2  0  0  0  0
  4  6  1  0  0  0  0
  6 31  1  0  0  0  0
  6  3  1  0  0  0  0
  8  7  2  0  0  0  0
  8  5  1  0  0  0  0
 10  9  1  6  0  0  0
 10 11  1  0  0  0  0
 11  9  1  1  0  0  0
 11  2  1  0  0  0  0
 13 12  1  6  0  0  0
 13 10  1  0  0  0  0
 14 12  1  0  0  0  0
 15 17  1  0  0  0  0
 16 15  1  0  0  0  0
 16 14  1  0  0  0  0
 17 18  1  1  0  0  0
 17 13  1  0  0  0  0
 19 20  1  6  0  0  0
 19 18  1  0  0  0  0
 21 19  1  0  0  0  0
 22 21  1  0  0  0  0
 22 28  1  0  0  0  0
 23 21  2  0  0  0  0
 24 25  1  6  0  0  0
 24 22  1  0  0  0  0
 24 26  1  0  0  0  0
 26 27  1  0  0  0  0
 29 28  1  0  0  0  0
 30 29  1  0  0  0  0
 32 31  1  0  0  0  0
 33 35  1  0  0  0  0
 33 34  1  0  0  0  0
 34 32  1  1  0  0  0
 35 36  1  6  0  0  0
 35 34  1  0  0  0  0
 36 38  1  0  0  0  0
 37 36  1  0  0  0  0
 39 38  2  0  0  0  0
 40 37  2  0  0  0  0
 41 37  1  0  0  0  0
 41 39  1  0  0  0  0
 42 45  1  1  0  0  0
 42 41  1  0  0  0  0
 43 42  1  0  0  0  0
 44 43  1  0  0  0  0
 45 46  1  0  0  0  0
 47 48  1  0  0  0  0
 47 46  1  0  0  0  0
 48 50  1  6  0  0  0
 49 48  1  0  0  0  0
M  END
>  <MODEL>
8

>  <REMARK>
 VINA RESULT:      -5.2      3.131      8.424
  Name = 
  19 active torsions:
  status: ('A' for Active; 'I' for Inactive)
    1  A    between atoms: C_1  and  C_45
    2  A    between atoms: N_4  and  C_32
    3  A    between atoms: C_5  and  C_13
    4  A    between atoms: C_9  and  O_10
    5  A    between atoms: O_10  and  N_50
    6  A    between atoms: C_12  and  C_28
    7  A    between atoms: C_13  and  C_48
    8  A    between atoms: C_14  and  C_20
    9  A    between atoms: C_14  and  N_21
   10  A    between atoms: C_15  and  C_35
   11  A    between atoms: C_16  and  C_25
   12  A    between atoms: C_18  and  C_26
   13  A    between atoms: N_19  and  C_22
   14  A    between atoms: N_19  and  C_45
   15  A    between atoms: N_21  and  C_25
   16  A    between atoms: C_22  and  C_35
   17  A    between atoms: C_35  and  N_44
   18  A    between atoms: N_38  and  N_50
   19  A    between atoms: C_47  and  C_48
                            x       y       z     vdW  Elec       q    Type
                         _______ _______ _______ _____ _____    ______ ____

>  <TORSDO>
F 19

$$$$
=
 OpenBabel11062412573D

 50 54  0  0  1  0  0  0  0  0999 V2000
  191.2500  176.8150  146.1550 N   0  0  0  0  0  0  0  0  0  0  0  0
  189.1330  177.8400  146.1430 C   0  0  2  0  0  3  0  0  0  0  0  0
  190.4500  177.5680  145.4650 C   0  0  0  0  0  0  0  0  0  0  0  0
  190.0200  179.0110  143.5810 O   0  0  0  0  0  1  0  0  0  0  0  0
  190.6760  176.4780  147.3830 N   0  0  0  0  0  2  0  0  0  0  0  0
  190.8140  178.0930  144.1820 N   0  0  0  0  0  0  0  0  0  0  0  0
  188.6370  177.0660  148.4050 O   0  0  0  0  0  0  0  0  0  0  0  0
  189.4120  177.1160  147.4140 C   0  0  0  0  0  0  0  0  0  0  0  0
  186.6840  177.7630  145.7320 C   0  0  0  0  0  2  0  0  0  0  0  0
  187.3560  178.0840  144.4140 C   0  0  1  0  0  3  0  0  0  0  0  0
  188.0170  177.1300  145.3920 C   0  0  1  0  0  3  0  0  0  0  0  0
  187.6440  176.3860  142.6870 O   0  0  0  0  0  0  0  0  0  0  0  0
  186.7110  177.2660  143.2900 C   0  0  2  0  0  3  0  0  0  0  0  0
  188.5460  177.1240  141.8840 C   0  0  0  0  0  2  0  0  0  0  0  0
  186.9540  178.8860  141.4970 O   0  0  0  0  0  0  0  0  0  0  0  0
  187.7910  177.9650  140.8440 C   0  0  0  0  0  2  0  0  0  0  0  0
  186.0110  178.1240  142.2100 C   0  0  2  0  0  3  0  0  0  0  0  0
  184.9250  179.0190  142.7880 C   0  0  0  0  0  2  0  0  0  0  0  0
  183.7650  179.1480  141.8130 C   0  0  1  0  0  3  0  0  0  0  0  0
  183.8680  178.1770  140.8140 O   0  0  0  0  0  1  0  0  0  0  0  0
  182.4500  179.0000  142.5200 C   0  0  0  0  0  0  0  0  0  0  0  0
  181.2190  178.8920  141.7770 N   0  0  0  0  0  0  0  0  0  0  0  0
  182.4380  178.9150  143.7810 O   0  0  0  0  0  0  0  0  0  0  0  0
  179.9460  178.8820  142.5080 C   0  0  2  0  0  3  0  0  0  0  0  0
  179.6770  180.2360  143.1390 C   0  0  0  0  0  1  0  0  0  0  0  0
  179.8270  177.7600  143.5430 C   0  0  0  0  0  2  0  0  0  0  0  0
  179.1520  178.1980  144.6880 O   0  0  0  0  0  1  0  0  0  0  0  0
  181.2520  178.9340  140.3140 C   0  0  0  0  0  2  0  0  0  0  0  0
  180.0370  179.6740  139.7800 C   0  0  0  0  0  2  0  0  0  0  0  0
  180.4720  181.0310  139.2550 C   0  0  0  0  0  1  0  0  0  0  0  0
  192.0480  177.7700  143.5970 N   0  0  0  0  0  2  0  0  0  0  0  0
  192.0710  178.3350  142.3650 O   0  0  0  0  0  0  0  0  0  0  0  0
  193.4580  177.1480  140.8560 C   0  0  0  0  0  2  0  0  0  0  0  0
  192.0860  177.2630  141.4760 C   0  0  2  0  0  3  0  0  0  0  0  0
  192.3280  177.7810  140.0700 C   0  0  2  0  0  3  0  0  0  0  0  0
  191.8220  176.8320  139.0870 N   0  0  0  0  0  0  0  0  0  0  0  0
  192.5450  176.2980  138.0230 C   0  0  0  0  0  0  0  0  0  0  0  0
  190.7000  176.0110  139.3290 N   0  0  0  0  0  0  0  0  0  0  0  0
  190.7100  174.9800  138.3360 N   0  0  0  0  0  0  0  0  0  0  0  0
  193.6400  176.7380  137.5830 O   0  0  0  0  0  0  0  0  0  0  0  0
  191.8740  175.1690  137.5600 N   0  0  0  0  0  0  0  0  0  0  0  0
  192.2470  174.3630  136.3930 C   0  0  2  0  0  3  0  0  0  0  0  0
  191.0190  173.8690  135.6370 C   0  0  0  0  0  2  0  0  0  0  0  0
  190.4230  174.9350  134.9490 O   0  0  0  0  0  1  0  0  0  0  0  0
  193.1610  173.2030  136.7930 C   0  0  0  0  0  2  0  0  0  0  0  0
  193.2260  172.1960  135.7430 N   0  0  0  0  0  2  0  0  0  0  0  0
  194.5100  172.3810  135.0810 C   0  0  0  0  0  2  0  0  0  0  0  0
  195.6650  172.1860  136.0540 C   0  0  2  0  0  3  0  0  0  0  0  0
  196.8570  172.6540  135.5010 O   0  0  0  0  0  1  0  0  0  0  0  0
  195.8140  170.7230  136.4340 C   0  0  0  0  0  1  0  0  0  0  0  0
  1  5  1  0  0  0  0
  2  3  1  6  0  0  0
  2  8  1  0  0  0  0
  3  1  2  0  0  0  0
  4  6  1  0  0  0  0
  5  8  1  0  0  0  0
  6  3  1  0  0  0  0
  8  7  2  0  0  0  0
 10 11  1  0  0  0  0
 10  9  1  1  0  0  0
 11  9  1  1  0  0  0
 11  2  1  0  0  0  0
 13 12  1  6  0  0  0
 13 10  1  0  0  0  0
 14 12  1  0  0  0  0
 15 17  1  0  0  0  0
 16 15  1  0  0  0  0
 16 14  1  0  0  0  0
 17 18  1  1  0  0  0
 17 13  1  0  0  0  0
 19 20  1  6  0  0  0
 19 21  1  0  0  0  0
 19 18  1  0  0  0  0
 21 23  2  0  0  0  0
 22 24  1  0  0  0  0
 22 21  1  0  0  0  0
 24 25  1  1  0  0  0
 24 26  1  0  0  0  0
 26 27  1  0  0  0  0
 28 22  1  0  0  0  0
 29 28  1  0  0  0  0
 30 29  1  0  0  0  0
 31  6  1  0  0  0  0
 32 31  1  0  0  0  0
 33 34  1  0  0  0  0
 34 32  1  1  0  0  0
 35 36  1  6  0  0  0
 35 33  1  0  0  0  0
 35 34  1  0  0  0  0
 36 38  1  0  0  0  0
 37 36  1  0  0  0  0
 39 38  2  0  0  0  0
 40 37  2  0  0  0  0
 41 37  1  0  0  0  0
 41 39  1  0  0  0  0
 42 43  1  1  0  0  0
 42 45  1  0  0  0  0
 42 41  1  0  0  0  0
 44 43  1  0  0  0  0
 46 45  1  0  0  0  0
 47 46  1  0  0  0  0
 47 48  1  0  0  0  0
 48 50  1  6  0  0  0
 49 48  1  0  0  0  0
M  END
>  <MODEL>
9

>  <REMARK>
 VINA RESULT:      -5.2      3.090      4.295
  Name = 
  19 active torsions:
  status: ('A' for Active; 'I' for Inactive)
    1  A    between atoms: C_1  and  C_45
    2  A    between atoms: N_4  and  C_32
    3  A    between atoms: C_5  and  C_13
    4  A    between atoms: C_9  and  O_10
    5  A    between atoms: O_10  and  N_50
    6  A    between atoms: C_12  and  C_28
    7  A    between atoms: C_13  and  C_48
    8  A    between atoms: C_14  and  C_20
    9  A    between atoms: C_14  and  N_21
   10  A    between atoms: C_15  and  C_35
   11  A    between atoms: C_16  and  C_25
   12  A    between atoms: C_18  and  C_26
   13  A    between atoms: N_19  and  C_22
   14  A    between atoms: N_19  and  C_45
   15  A    between atoms: N_21  and  C_25
   16  A    between atoms: C_22  and  C_35
   17  A    between atoms: C_35  and  N_44
   18  A    between atoms: N_38  and  N_50
   19  A    between atoms: C_47  and  C_48
                            x       y       z     vdW  Elec       q    Type
                         _______ _______ _______ _____ _____    ______ ____

>  <TORSDO>
F 19

$$$$
