=
 OpenBabel11062414313D

 31 32  0  0  1  0  0  0  0  0999 V2000
  185.5390  178.5560  143.6070 C   0  0  0  0  0  3  0  0  0  0  0  0
  184.2550  178.7560  145.6550 C   0  0  0  0  0  3  0  0  0  0  0  0
  184.8330  179.5070  144.5070 C   0  0  0  0  0  2  0  0  0  0  0  0
  187.2270  177.9360  145.3380 C   0  0  0  0  0  0  0  0  0  0  0  0
  186.6090  177.8370  143.9770 C   0  0  0  0  0  0  0  0  0  0  0  0
  185.0200  178.1160  146.5370 C   0  0  0  0  0  3  0  0  0  0  0  0
  186.4960  178.0360  146.4850 C   0  0  0  0  0  0  0  0  0  0  0  0
  187.2590  178.0680  148.0740 Cl  0  0  0  0  0  0  0  0  0  0  0  0
  190.9310  178.1130  144.9620 C   0  0  0  0  0  0  0  0  0  0  0  0
  192.2460  178.5730  144.4310 C   0  0  0  0  0  1  0  0  0  0  0  0
  189.3440  176.9930  146.1260 N   0  0  0  0  0  0  0  0  0  0  0  0
  189.6210  178.6690  144.5340 C   0  0  0  0  0  3  0  0  0  0  0  0
  190.7300  177.1620  145.8680 C   0  0  1  0  0  3  0  0  0  0  0  0
  188.7090  177.8500  145.3930 C   0  0  0  0  0  0  0  0  0  0  0  0
  192.1920  176.7220  147.8130 O   0  0  0  0  0  1  0  0  0  0  0  0
  191.7580  176.3540  146.5470 C   0  0  0  0  0  0  0  0  0  0  0  0
  192.2520  175.3330  145.9980 O   0  0  0  0  0  0  0  0  0  0  0  0
  188.1070  177.2950  142.1010 C   0  0  0  0  0  0  0  0  0  0  0  0
  187.2340  176.9180  143.0000 C   0  0  0  0  0  3  0  0  0  0  0  0
  188.9790  177.6690  141.2050 C   0  0  0  0  0  3  0  0  0  0  0  0
  189.1240  176.9210  139.9180 C   0  0  2  0  0  3  0  0  0  0  0  0
  191.4780  177.3760  140.0480 O   0  0  0  0  0  1  0  0  0  0  0  0
  190.8800  175.5770  138.7620 O   0  0  0  0  0  0  0  0  0  0  0  0
  190.5600  176.6440  139.5900 C   0  0  0  0  0  0  0  0  0  0  0  0
  188.4490  177.6480  138.8020 C   0  0  0  0  0  0  0  0  0  0  0  0
  188.6580  178.8820  138.6550 O   0  0  0  0  0  0  0  0  0  0  0  0
  187.5640  176.9530  137.9160 N   0  0  0  0  0  2  0  0  0  0  0  0
  186.8360  177.6220  136.8460 C   0  0  0  0  0  2  0  0  0  0  0  0
  185.3360  177.4670  137.0420 C   0  0  2  0  0  3  0  0  0  0  0  0
  184.8920  178.2060  138.2910 C   0  0  0  0  0  1  0  0  0  0  0  0
  185.0240  176.1150  137.1730 O   0  0  0  0  0  1  0  0  0  0  0  0
  1  5  2  0  0  0  0
  1  3  1  0  0  0  0
  2  6  2  0  0  0  0
  3  2  1  0  0  0  0
  4 14  1  0  0  0  0
  4  7  2  0  0  0  0
  5  4  1  0  0  0  0
  7  6  1  0  0  0  0
  7  8  1  0  0  0  0
  9 13  1  0  0  0  0
 10  9  1  0  0  0  0
 12  9  2  0  0  0  0
 12 14  1  0  0  0  0
 13 11  1  0  0  0  0
 13 16  1  6  0  0  0
 14 11  2  0  0  0  0
 16 15  1  0  0  0  0
 17 16  2  0  0  0  0
 18 19  2  0  0  0  0
 19  5  1  0  0  0  0
 20 18  2  0  0  0  0
 21 20  1  1  0  0  0
 23 24  2  0  0  0  0
 24 21  1  0  0  0  0
 24 22  1  0  0  0  0
 25 21  1  0  0  0  0
 26 25  2  0  0  0  0
 27 25  1  0  0  0  0
 28 29  1  0  0  0  0
 28 27  1  0  0  0  0
 29 31  1  0  0  0  0
 29 30  1  1  0  0  0
M  END
>  <MODEL>
1

>  <REMARK>
 VINA RESULT:      -8.7      0.000      0.000
  Name = 
  8 active torsions:
  status: ('A' for Active; 'I' for Inactive)
    1  A    between atoms: C_1  and  C_12
    2  A    between atoms: C_8  and  C_16
    3  A    between atoms: C_8  and  C_28
    4  A    between atoms: C_8  and  C_30
    5  A    between atoms: C_10  and  C_29
    6  A    between atoms: C_11  and  C_26
    7  A    between atoms: C_12  and  N_24
    8  A    between atoms: C_25  and  C_27
                            x       y       z     vdW  Elec       q    Type
                         _______ _______ _______ _____ _____    ______ ____

>  <TORSDO>
F 8

$$$$
=
 OpenBabel11062414313D

 31 32  0  0  1  0  0  0  0  0999 V2000
  185.4110  178.8840  143.8900 C   0  0  0  0  0  3  0  0  0  0  0  0
  184.2900  178.7300  146.0350 C   0  0  0  0  0  3  0  0  0  0  0  0
  184.7950  179.6660  144.9950 C   0  0  0  0  0  2  0  0  0  0  0  0
  187.2120  177.9570  145.3490 C   0  0  0  0  0  0  0  0  0  0  0  0
  186.4910  178.1050  144.0440 C   0  0  0  0  0  0  0  0  0  0  0  0
  185.1060  177.9390  146.7290 C   0  0  0  0  0  3  0  0  0  0  0  0
  186.5710  177.8590  146.5490 C   0  0  0  0  0  0  0  0  0  0  0  0
  187.4520  177.6060  148.0550 Cl  0  0  0  0  0  0  0  0  0  0  0  0
  190.8750  178.1320  144.6830 C   0  0  0  0  0  0  0  0  0  0  0  0
  192.1490  178.6240  144.0850 C   0  0  0  0  0  1  0  0  0  0  0  0
  189.3700  176.9290  145.8730 N   0  0  0  0  0  0  0  0  0  0  0  0
  189.5430  178.7360  144.4150 C   0  0  0  0  0  3  0  0  0  0  0  0
  190.7330  177.1070  145.5160 C   0  0  1  0  0  3  0  0  0  0  0  0
  188.6910  177.8530  145.2720 C   0  0  0  0  0  0  0  0  0  0  0  0
  192.2530  175.1730  145.2610 O   0  0  0  0  0  0  0  0  0  0  0  0
  191.8000  176.2330  146.0340 C   0  0  0  0  0  0  0  0  0  0  0  0
  192.3110  176.4310  147.1680 O   0  0  0  0  0  1  0  0  0  0  0  0
  187.5160  177.9480  141.8120 C   0  0  0  0  0  0  0  0  0  0  0  0
  187.0210  177.3670  142.8760 C   0  0  0  0  0  3  0  0  0  0  0  0
  188.0110  178.5250  140.7520 C   0  0  0  0  0  3  0  0  0  0  0  0
  187.9710  177.8450  139.4200 C   0  0  2  0  0  3  0  0  0  0  0  0
  190.1150  177.5650  138.3760 O   0  0  0  0  0  1  0  0  0  0  0  0
  189.0120  179.5120  137.8820 O   0  0  0  0  0  0  0  0  0  0  0  0
  189.0940  178.2870  138.5310 C   0  0  0  0  0  0  0  0  0  0  0  0
  186.6480  178.0520  138.7580 C   0  0  0  0  0  0  0  0  0  0  0  0
  186.4370  177.5350  137.6290 O   0  0  0  0  0  0  0  0  0  0  0  0
  185.6360  178.8410  139.3940 N   0  0  0  0  0  2  0  0  0  0  0  0
  184.3500  179.1230  138.7690 C   0  0  0  0  0  2  0  0  0  0  0  0
  183.2100  178.7990  139.7220 C   0  0  2  0  0  3  0  0  0  0  0  0
  183.7170  177.9550  140.8770 C   0  0  0  0  0  1  0  0  0  0  0  0
  182.2210  178.0950  139.0370 O   0  0  0  0  0  1  0  0  0  0  0  0
  1  5  2  0  0  0  0
  1  3  1  0  0  0  0
  2  6  2  0  0  0  0
  3  2  1  0  0  0  0
  4  7  2  0  0  0  0
  5  4  1  0  0  0  0
  7  6  1  0  0  0  0
  7  8  1  0  0  0  0
  9 13  1  0  0  0  0
 10  9  1  0  0  0  0
 12  9  2  0  0  0  0
 12 14  1  0  0  0  0
 13 11  1  0  0  0  0
 13 16  1  6  0  0  0
 14  4  1  0  0  0  0
 14 11  2  0  0  0  0
 15 16  2  0  0  0  0
 16 17  1  0  0  0  0
 18 19  2  0  0  0  0
 19  5  1  0  0  0  0
 20 18  2  0  0  0  0
 21 20  1  1  0  0  0
 22 24  1  0  0  0  0
 23 24  2  0  0  0  0
 24 21  1  0  0  0  0
 25 27  1  0  0  0  0
 25 21  1  0  0  0  0
 26 25  2  0  0  0  0
 28 27  1  0  0  0  0
 28 29  1  0  0  0  0
 29 30  1  1  0  0  0
 31 29  1  0  0  0  0
M  END
>  <MODEL>
2

>  <REMARK>
 VINA RESULT:      -8.3      1.385      1.958
  Name = 
  8 active torsions:
  status: ('A' for Active; 'I' for Inactive)
    1  A    between atoms: C_1  and  C_12
    2  A    between atoms: C_8  and  C_16
    3  A    between atoms: C_8  and  C_28
    4  A    between atoms: C_8  and  C_30
    5  A    between atoms: C_10  and  C_29
    6  A    between atoms: C_11  and  C_26
    7  A    between atoms: C_12  and  N_24
    8  A    between atoms: C_25  and  C_27
                            x       y       z     vdW  Elec       q    Type
                         _______ _______ _______ _____ _____    ______ ____

>  <TORSDO>
F 8

$$$$
=
 OpenBabel11062414313D

 31 32  0  0  1  0  0  0  0  0999 V2000
  191.4250  176.1680  144.0080 C   0  0  0  0  0  3  0  0  0  0  0  0
  192.1260  176.0190  146.3260 C   0  0  0  0  0  3  0  0  0  0  0  0
  191.7290  175.2340  145.1260 C   0  0  0  0  0  2  0  0  0  0  0  0
  189.4930  177.2060  145.2010 C   0  0  0  0  0  0  0  0  0  0  0  0
  190.4290  177.0650  144.0390 C   0  0  0  0  0  0  0  0  0  0  0  0
  191.2850  176.8540  146.9340 C   0  0  0  0  0  3  0  0  0  0  0  0
  189.9000  177.1330  146.5000 C   0  0  0  0  0  0  0  0  0  0  0  0
  188.7810  177.3840  147.8390 Cl  0  0  0  0  0  0  0  0  0  0  0  0
  186.1120  177.8170  143.7570 C   0  0  0  0  0  0  0  0  0  0  0  0
  185.0330  177.8500  142.7290 C   0  0  0  0  0  1  0  0  0  0  0  0
  187.2540  178.0590  145.6980 N   0  0  0  0  0  0  0  0  0  0  0  0
  187.4800  177.2890  143.5130 C   0  0  0  0  0  3  0  0  0  0  0  0
  186.0250  178.2460  145.0120 C   0  0  1  0  0  3  0  0  0  0  0  0
  188.0770  177.5030  144.8680 C   0  0  0  0  0  0  0  0  0  0  0  0
  184.5430  178.5070  146.9750 O   0  0  0  0  0  1  0  0  0  0  0  0
  184.8470  178.8460  145.6630 C   0  0  0  0  0  0  0  0  0  0  0  0
  184.1090  179.6610  145.0500 O   0  0  0  0  0  0  0  0  0  0  0  0
  189.8950  177.5140  141.6800 C   0  0  0  0  0  0  0  0  0  0  0  0
  190.2180  177.9490  142.8720 C   0  0  0  0  0  3  0  0  0  0  0  0
  189.5720  177.0830  140.4910 C   0  0  0  0  0  3  0  0  0  0  0  0
  189.9440  177.8580  139.2680 C   0  0  2  0  0  3  0  0  0  0  0  0
  187.6020  178.3320  139.0280 O   0  0  0  0  0  1  0  0  0  0  0  0
  189.0210  179.7110  137.8740 O   0  0  0  0  0  0  0  0  0  0  0  0
  188.7860  178.6410  138.7260 C   0  0  0  0  0  0  0  0  0  0  0  0
  190.5180  176.9580  138.2220 C   0  0  0  0  0  0  0  0  0  0  0  0
  190.0280  176.9710  137.0620 O   0  0  0  0  0  0  0  0  0  0  0  0
  191.6060  176.0820  138.5400 N   0  0  0  0  0  2  0  0  0  0  0  0
  192.1670  175.1440  137.5770 C   0  0  0  0  0  2  0  0  0  0  0  0
  193.5910  175.5360  137.2170 C   0  0  2  0  0  3  0  0  0  0  0  0
  194.5800  174.6440  137.9450 C   0  0  0  0  0  1  0  0  0  0  0  0
  193.8130  176.8620  137.5830 O   0  0  0  0  0  1  0  0  0  0  0  0
  1  5  2  0  0  0  0
  1  3  1  0  0  0  0
  2  6  2  0  0  0  0
  3  2  1  0  0  0  0
  4  7  2  0  0  0  0
  5  4  1  0  0  0  0
  7  6  1  0  0  0  0
  7  8  1  0  0  0  0
  9 13  1  0  0  0  0
 10  9  1  0  0  0  0
 12  9  2  0  0  0  0
 12 14  1  0  0  0  0
 13 16  1  6  0  0  0
 13 11  1  0  0  0  0
 14  4  1  0  0  0  0
 14 11  2  0  0  0  0
 16 15  1  0  0  0  0
 17 16  2  0  0  0  0
 18 19  2  0  0  0  0
 19  5  1  0  0  0  0
 20 18  2  0  0  0  0
 21 20  1  1  0  0  0
 23 24  2  0  0  0  0
 24 22  1  0  0  0  0
 24 21  1  0  0  0  0
 25 27  1  0  0  0  0
 25 21  1  0  0  0  0
 26 25  2  0  0  0  0
 28 27  1  0  0  0  0
 29 28  1  0  0  0  0
 29 31  1  0  0  0  0
 29 30  1  1  0  0  0
M  END
>  <MODEL>
3

>  <REMARK>
 VINA RESULT:      -8.1      2.899      5.565
  Name = 
  8 active torsions:
  status: ('A' for Active; 'I' for Inactive)
    1  A    between atoms: C_1  and  C_12
    2  A    between atoms: C_8  and  C_16
    3  A    between atoms: C_8  and  C_28
    4  A    between atoms: C_8  and  C_30
    5  A    between atoms: C_10  and  C_29
    6  A    between atoms: C_11  and  C_26
    7  A    between atoms: C_12  and  N_24
    8  A    between atoms: C_25  and  C_27
                            x       y       z     vdW  Elec       q    Type
                         _______ _______ _______ _____ _____    ______ ____

>  <TORSDO>
F 8

$$$$
=
 OpenBabel11062414313D

 31 32  0  0  1  0  0  0  0  0999 V2000
  185.3650  178.8650  143.1990 C   0  0  0  0  0  3  0  0  0  0  0  0
  183.9580  179.0720  145.1630 C   0  0  0  0  0  3  0  0  0  0  0  0
  184.6710  179.8260  144.0970 C   0  0  0  0  0  2  0  0  0  0  0  0
  186.8740  178.0340  145.0060 C   0  0  0  0  0  0  0  0  0  0  0  0
  186.3490  178.0480  143.6020 C   0  0  0  0  0  0  0  0  0  0  0  0
  184.6070  178.3330  146.0610 C   0  0  0  0  0  3  0  0  0  0  0  0
  186.0720  178.1380  146.1040 C   0  0  0  0  0  0  0  0  0  0  0  0
  186.7200  178.0360  147.7400 Cl  0  0  0  0  0  0  0  0  0  0  0  0
  190.3940  177.2570  145.9520 C   0  0  0  0  0  0  0  0  0  0  0  0
  191.5180  176.6900  146.7510 C   0  0  0  0  0  1  0  0  0  0  0  0
  189.2140  178.3670  144.3710 N   0  0  0  0  0  0  0  0  0  0  0  0
  188.9580  177.0640  146.2820 C   0  0  0  0  0  2  0  0  0  0  0  0
  190.4960  178.0050  144.8580 C   0  0  0  0  0  0  0  0  0  0  0  0
  188.3370  177.8280  145.1550 C   0  0  0  0  0  0  0  0  0  0  0  0
  192.2240  177.7120  143.1120 O   0  0  0  0  0  0  0  0  0  0  0  0
  191.7390  178.4360  144.1930 C   0  0  0  0  0  0  0  0  0  0  0  0
  192.3700  179.4510  144.5890 O   0  0  0  0  0  1  0  0  0  0  0  0
  187.8970  177.4880  141.7740 C   0  0  0  0  0  0  0  0  0  0  0  0
  186.9690  177.1280  142.6240 C   0  0  0  0  0  3  0  0  0  0  0  0
  188.8230  177.8450  140.9270 C   0  0  0  0  0  3  0  0  0  0  0  0
  188.9870  177.1280  139.6240 C   0  0  2  0  0  3  0  0  0  0  0  0
  190.6280  175.5810  138.8010 O   0  0  0  0  0  0  0  0  0  0  0  0
  191.4490  177.4010  139.9240 O   0  0  0  0  0  1  0  0  0  0  0  0
  190.3940  176.6540  139.4180 C   0  0  0  0  0  0  0  0  0  0  0  0
  188.5380  177.9860  138.4860 C   0  0  0  0  0  0  0  0  0  0  0  0
  188.8360  179.2100  138.4810 O   0  0  0  0  0  0  0  0  0  0  0  0
  187.7650  177.4240  137.4180 N   0  0  0  0  0  2  0  0  0  0  0  0
  187.2530  178.2230  136.3130 C   0  0  0  0  0  2  0  0  0  0  0  0
  186.1780  177.4620  135.5550 C   0  0  2  0  0  3  0  0  0  0  0  0
  185.0060  177.1610  136.4710 C   0  0  0  0  0  1  0  0  0  0  0  0
  186.7080  176.2640  135.0790 O   0  0  0  0  0  1  0  0  0  0  0  0
  1  5  2  0  0  0  0
  1  3  1  0  0  0  0
  2  6  2  0  0  0  0
  3  2  1  0  0  0  0
  4 14  1  0  0  0  0
  4  7  2  0  0  0  0
  5  4  1  0  0  0  0
  6  7  1  0  0  0  0
  7  8  1  0  0  0  0
  9 12  1  0  0  0  0
  9 10  1  0  0  0  0
 11 13  1  0  0  0  0
 11 14  2  0  0  0  0
 13  9  2  0  0  0  0
 14 12  1  0  0  0  0
 15 16  2  0  0  0  0
 16 17  1  0  0  0  0
 16 13  1  0  0  0  0
 18 19  2  0  0  0  0
 19  5  1  0  0  0  0
 20 18  2  0  0  0  0
 21 20  1  1  0  0  0
 22 24  2  0  0  0  0
 24 21  1  0  0  0  0
 24 23  1  0  0  0  0
 25 21  1  0  0  0  0
 26 25  2  0  0  0  0
 27 25  1  0  0  0  0
 28 27  1  0  0  0  0
 29 28  1  0  0  0  0
 29 30  1  1  0  0  0
 31 29  1  0  0  0  0
M  END
>  <MODEL>
4

>  <REMARK>
 VINA RESULT:      -7.8      1.353      1.855
  Name = 
  8 active torsions:
  status: ('A' for Active; 'I' for Inactive)
    1  A    between atoms: C_1  and  C_12
    2  A    between atoms: C_8  and  C_16
    3  A    between atoms: C_8  and  C_28
    4  A    between atoms: C_8  and  C_30
    5  A    between atoms: C_10  and  C_29
    6  A    between atoms: C_11  and  C_26
    7  A    between atoms: C_12  and  N_24
    8  A    between atoms: C_25  and  C_27
                            x       y       z     vdW  Elec       q    Type
                         _______ _______ _______ _____ _____    ______ ____

>  <TORSDO>
F 8

$$$$
=
 OpenBabel11062414313D

 31 32  0  0  1  0  0  0  0  0999 V2000
  185.5110  178.9840  142.9800 C   0  0  0  0  0  3  0  0  0  0  0  0
  184.2040  178.7810  145.0140 C   0  0  0  0  0  3  0  0  0  0  0  0
  184.8100  179.7410  144.0520 C   0  0  0  0  0  2  0  0  0  0  0  0
  187.1640  177.9830  144.5600 C   0  0  0  0  0  0  0  0  0  0  0  0
  186.5630  178.1830  143.2020 C   0  0  0  0  0  0  0  0  0  0  0  0
  184.9460  177.9560  145.7510 C   0  0  0  0  0  3  0  0  0  0  0  0
  186.4200  177.8580  145.6960 C   0  0  0  0  0  0  0  0  0  0  0  0
  187.1630  177.5440  147.2640 Cl  0  0  0  0  0  0  0  0  0  0  0  0
  190.8790  178.2360  144.3760 C   0  0  0  0  0  0  0  0  0  0  0  0
  192.2110  178.8500  144.1090 C   0  0  0  0  0  1  0  0  0  0  0  0
  189.2530  176.7660  144.9430 N   0  0  0  0  0  0  0  0  0  0  0  0
  189.5840  178.9400  144.1820 C   0  0  0  0  0  3  0  0  0  0  0  0
  190.6460  177.0010  144.8080 C   0  0  1  0  0  3  0  0  0  0  0  0
  188.6440  177.8580  144.6090 C   0  0  0  0  0  0  0  0  0  0  0  0
  192.0800  175.1060  144.1220 O   0  0  0  0  0  0  0  0  0  0  0  0
  191.6500  175.9700  145.1210 C   0  0  0  0  0  0  0  0  0  0  0  0
  192.1280  175.8560  146.2810 O   0  0  0  0  0  1  0  0  0  0  0  0
  188.0630  178.0160  141.2600 C   0  0  0  0  0  0  0  0  0  0  0  0
  187.1830  177.4730  142.0620 C   0  0  0  0  0  3  0  0  0  0  0  0
  188.9420  178.5550  140.4590 C   0  0  0  0  0  3  0  0  0  0  0  0
  189.0860  178.0810  139.0480 C   0  0  2  0  0  3  0  0  0  0  0  0
  187.6070  176.4220  138.1400 O   0  0  0  0  0  0  0  0  0  0  0  0
  186.7520  178.5410  138.2970 O   0  0  0  0  0  1  0  0  0  0  0  0
  187.7790  177.6250  138.4740 C   0  0  0  0  0  0  0  0  0  0  0  0
  190.1180  177.0050  138.9520 C   0  0  0  0  0  0  0  0  0  0  0  0
  190.3720  176.3020  139.9670 O   0  0  0  0  0  0  0  0  0  0  0  0
  190.8210  176.7840  137.7240 N   0  0  0  0  0  2  0  0  0  0  0  0
  191.8760  175.7880  137.5890 C   0  0  0  0  0  2  0  0  0  0  0  0
  193.2380  176.4590  137.5150 C   0  0  2  0  0  3  0  0  0  0  0  0
  193.8980  176.1580  136.1820 C   0  0  0  0  0  1  0  0  0  0  0  0
  194.0450  175.9810  138.5460 O   0  0  0  0  0  1  0  0  0  0  0  0
  1  5  2  0  0  0  0
  1  3  1  0  0  0  0
  2  6  2  0  0  0  0
  3  2  1  0  0  0  0
  4 14  1  0  0  0  0
  4  7  2  0  0  0  0
  5  4  1  0  0  0  0
  7  6  1  0  0  0  0
  7  8  1  0  0  0  0
  9 13  1  0  0  0  0
 10  9  1  0  0  0  0
 12  9  2  0  0  0  0
 12 14  1  0  0  0  0
 13 11  1  0  0  0  0
 13 16  1  6  0  0  0
 14 11  2  0  0  0  0
 15 16  2  0  0  0  0
 16 17  1  0  0  0  0
 18 19  2  0  0  0  0
 19  5  1  0  0  0  0
 20 18  2  0  0  0  0
 21 20  1  1  0  0  0
 22 24  2  0  0  0  0
 23 24  1  0  0  0  0
 24 21  1  0  0  0  0
 25 21  1  0  0  0  0
 25 26  2  0  0  0  0
 27 25  1  0  0  0  0
 28 27  1  0  0  0  0
 29 30  1  6  0  0  0
 29 28  1  0  0  0  0
 29 31  1  0  0  0  0
M  END
>  <MODEL>
5

>  <REMARK>
 VINA RESULT:      -7.7      1.755      3.502
  Name = 
  8 active torsions:
  status: ('A' for Active; 'I' for Inactive)
    1  A    between atoms: C_1  and  C_12
    2  A    between atoms: C_8  and  C_16
    3  A    between atoms: C_8  and  C_28
    4  A    between atoms: C_8  and  C_30
    5  A    between atoms: C_10  and  C_29
    6  A    between atoms: C_11  and  C_26
    7  A    between atoms: C_12  and  N_24
    8  A    between atoms: C_25  and  C_27
                            x       y       z     vdW  Elec       q    Type
                         _______ _______ _______ _____ _____    ______ ____

>  <TORSDO>
F 8

$$$$
=
 OpenBabel11062414313D

 31 32  0  0  1  0  0  0  0  0999 V2000
  187.5250  178.1620  145.5910 C   0  0  0  0  0  3  0  0  0  0  0  0
  188.7380  177.3830  147.5420 C   0  0  0  0  0  3  0  0  0  0  0  0
  188.2800  178.5890  146.8000 C   0  0  0  0  0  2  0  0  0  0  0  0
  189.5110  177.0560  144.5590 C   0  0  0  0  0  0  0  0  0  0  0  0
  188.0690  177.4620  144.5840 C   0  0  0  0  0  0  0  0  0  0  0  0
  189.6020  176.5160  147.0160 C   0  0  0  0  0  3  0  0  0  0  0  0
  190.1810  176.6080  145.6590 C   0  0  0  0  0  0  0  0  0  0  0  0
  191.8550  176.0630  145.5700 Cl  0  0  0  0  0  0  0  0  0  0  0  0
  191.6500  177.4990  141.5390 C   0  0  0  0  0  0  0  0  0  0  0  0
  192.8470  177.8820  140.7360 C   0  0  0  0  0  1  0  0  0  0  0  0
  189.5950  176.7560  142.1310 N   0  0  0  0  0  0  0  0  0  0  0  0
  191.5580  177.6400  143.0160 C   0  0  0  0  0  2  0  0  0  0  0  0
  190.5120  176.9930  141.0740 C   0  0  0  0  0  0  0  0  0  0  0  0
  190.1800  177.1000  143.2330 C   0  0  0  0  0  0  0  0  0  0  0  0
  189.3960  177.5880  138.9480 O   0  0  0  0  0  0  0  0  0  0  0  0
  190.1830  176.6990  139.6680 C   0  0  0  0  0  0  0  0  0  0  0  0
  190.6030  175.6530  139.1070 O   0  0  0  0  0  1  0  0  0  0  0  0
  186.3710  177.8980  142.8580 C   0  0  0  0  0  0  0  0  0  0  0  0
  187.2260  177.0870  143.4290 C   0  0  0  0  0  3  0  0  0  0  0  0
  185.5200  178.7050  142.2860 C   0  0  0  0  0  3  0  0  0  0  0  0
  184.3160  178.1720  141.5780 C   0  0  2  0  0  3  0  0  0  0  0  0
  184.5560  179.8170  139.8450 O   0  0  0  0  0  1  0  0  0  0  0  0
  183.8460  177.7470  139.1640 O   0  0  0  0  0  0  0  0  0  0  0  0
  184.2530  178.6320  140.1530 C   0  0  0  0  0  0  0  0  0  0  0  0
  183.0650  178.5310  142.3130 C   0  0  0  0  0  0  0  0  0  0  0  0
  183.1500  179.0260  143.4680 O   0  0  0  0  0  0  0  0  0  0  0  0
  181.7840  178.3020  141.7150 N   0  0  0  0  0  2  0  0  0  0  0  0
  180.5320  178.5800  142.4060 C   0  0  0  0  0  2  0  0  0  0  0  0
  179.7920  179.7250  141.7340 C   0  0  2  0  0  3  0  0  0  0  0  0
  180.3680  179.9820  140.3540 C   0  0  0  0  0  1  0  0  0  0  0  0
  179.9210  180.8770  142.5080 O   0  0  0  0  0  1  0  0  0  0  0  0
  1  3  1  0  0  0  0
  3  2  1  0  0  0  0
  4  5  1  0  0  0  0
  4  7  2  0  0  0  0
  5  1  2  0  0  0  0
  6  2  2  0  0  0  0
  7  6  1  0  0  0  0
  8  7  1  0  0  0  0
  9 12  1  0  0  0  0
 10  9  1  0  0  0  0
 11 14  2  0  0  0  0
 12 14  1  0  0  0  0
 13  9  2  0  0  0  0
 13 11  1  0  0  0  0
 14  4  1  0  0  0  0
 15 16  2  0  0  0  0
 16 13  1  0  0  0  0
 17 16  1  0  0  0  0
 18 19  2  0  0  0  0
 19  5  1  0  0  0  0
 20 18  2  0  0  0  0
 21 20  1  1  0  0  0
 21 25  1  0  0  0  0
 22 24  1  0  0  0  0
 23 24  2  0  0  0  0
 24 21  1  0  0  0  0
 25 26  2  0  0  0  0
 27 25  1  0  0  0  0
 27 28  1  0  0  0  0
 29 30  1  6  0  0  0
 29 28  1  0  0  0  0
 29 31  1  0  0  0  0
M  END
>  <MODEL>
6

>  <REMARK>
 VINA RESULT:      -7.6      3.592      5.618
  Name = 
  8 active torsions:
  status: ('A' for Active; 'I' for Inactive)
    1  A    between atoms: C_1  and  C_12
    2  A    between atoms: C_8  and  C_16
    3  A    between atoms: C_8  and  C_28
    4  A    between atoms: C_8  and  C_30
    5  A    between atoms: C_10  and  C_29
    6  A    between atoms: C_11  and  C_26
    7  A    between atoms: C_12  and  N_24
    8  A    between atoms: C_25  and  C_27
                            x       y       z     vdW  Elec       q    Type
                         _______ _______ _______ _____ _____    ______ ____

>  <TORSDO>
F 8

$$$$
=
 OpenBabel11062414313D

 31 32  0  0  1  0  0  0  0  0999 V2000
  191.2420  176.2220  144.1670 C   0  0  0  0  0  3  0  0  0  0  0  0
  192.0560  176.1460  146.4510 C   0  0  0  0  0  3  0  0  0  0  0  0
  191.5310  175.3310  145.3220 C   0  0  0  0  0  2  0  0  0  0  0  0
  189.4680  177.4820  145.3900 C   0  0  0  0  0  0  0  0  0  0  0  0
  190.3240  177.1990  144.1940 C   0  0  0  0  0  0  0  0  0  0  0  0
  191.3190  177.0800  147.0500 C   0  0  0  0  0  3  0  0  0  0  0  0
  189.9380  177.4490  146.6700 C   0  0  0  0  0  0  0  0  0  0  0  0
  188.9180  177.8660  148.0460 Cl  0  0  0  0  0  0  0  0  0  0  0  0
  185.8420  178.3430  145.3150 C   0  0  0  0  0  0  0  0  0  0  0  0
  184.4730  178.6080  145.8420 C   0  0  0  0  0  1  0  0  0  0  0  0
  187.5980  178.0480  143.9160 N   0  0  0  0  0  0  0  0  0  0  0  0
  187.0150  178.0180  146.1690 C   0  0  0  0  0  2  0  0  0  0  0  0
  186.2160  178.3490  144.0400 C   0  0  0  0  0  0  0  0  0  0  0  0
  188.0630  177.8770  145.1110 C   0  0  0  0  0  0  0  0  0  0  0  0
  185.6440  179.7110  142.0560 O   0  0  0  0  0  0  0  0  0  0  0  0
  185.3640  178.6200  142.8680 C   0  0  0  0  0  0  0  0  0  0  0  0
  184.3860  177.8780  142.5900 O   0  0  0  0  0  1  0  0  0  0  0  0
  189.8440  177.5410  141.8050 C   0  0  0  0  0  0  0  0  0  0  0  0
  190.1200  178.0300  142.9870 C   0  0  0  0  0  3  0  0  0  0  0  0
  189.5670  177.0550  140.6260 C   0  0  0  0  0  3  0  0  0  0  0  0
  189.9510  177.7940  139.3830 C   0  0  2  0  0  3  0  0  0  0  0  0
  189.0460  179.5950  138.0790 O   0  0  0  0  0  0  0  0  0  0  0  0
  187.5210  178.3410  139.2410 O   0  0  0  0  0  1  0  0  0  0  0  0
  188.8230  178.6290  138.8570 C   0  0  0  0  0  0  0  0  0  0  0  0
  190.4530  176.8510  138.3380 C   0  0  0  0  0  0  0  0  0  0  0  0
  189.8040  176.7160  137.2670 O   0  0  0  0  0  0  0  0  0  0  0  0
  191.6530  176.1000  138.5580 N   0  0  0  0  0  2  0  0  0  0  0  0
  192.1580  175.1260  137.5990 C   0  0  0  0  0  2  0  0  0  0  0  0
  193.6020  175.4310  137.2370 C   0  0  2  0  0  3  0  0  0  0  0  0
  194.2560  174.2100  136.6190 C   0  0  0  0  0  1  0  0  0  0  0  0
  194.3000  175.7940  138.3880 O   0  0  0  0  0  1  0  0  0  0  0  0
  1  5  2  0  0  0  0
  1  3  1  0  0  0  0
  2  6  2  0  0  0  0
  3  2  1  0  0  0  0
  4  7  2  0  0  0  0
  5  4  1  0  0  0  0
  7  6  1  0  0  0  0
  7  8  1  0  0  0  0
  9 10  1  0  0  0  0
  9 12  1  0  0  0  0
 11 13  1  0  0  0  0
 11 14  2  0  0  0  0
 13  9  2  0  0  0  0
 14  4  1  0  0  0  0
 14 12  1  0  0  0  0
 15 16  2  0  0  0  0
 16 13  1  0  0  0  0
 17 16  1  0  0  0  0
 18 19  2  0  0  0  0
 19  5  1  0  0  0  0
 20 18  2  0  0  0  0
 21 20  1  1  0  0  0
 22 24  2  0  0  0  0
 24 23  1  0  0  0  0
 24 21  1  0  0  0  0
 25 27  1  0  0  0  0
 25 21  1  0  0  0  0
 26 25  2  0  0  0  0
 28 27  1  0  0  0  0
 29 30  1  1  0  0  0
 29 28  1  0  0  0  0
 29 31  1  0  0  0  0
M  END
>  <MODEL>
7

>  <REMARK>
 VINA RESULT:      -7.5      3.007      5.656
  Name = 
  8 active torsions:
  status: ('A' for Active; 'I' for Inactive)
    1  A    between atoms: C_1  and  C_12
    2  A    between atoms: C_8  and  C_16
    3  A    between atoms: C_8  and  C_28
    4  A    between atoms: C_8  and  C_30
    5  A    between atoms: C_10  and  C_29
    6  A    between atoms: C_11  and  C_26
    7  A    between atoms: C_12  and  N_24
    8  A    between atoms: C_25  and  C_27
                            x       y       z     vdW  Elec       q    Type
                         _______ _______ _______ _____ _____    ______ ____

>  <TORSDO>
F 8

$$$$
=
 OpenBabel11062414313D

 31 32  0  0  1  0  0  0  0  0999 V2000
  185.3620  178.9060  145.1670 C   0  0  0  0  0  3  0  0  0  0  0  0
  185.8770  178.4540  147.4940 C   0  0  0  0  0  3  0  0  0  0  0  0
  185.6830  179.5260  146.4810 C   0  0  0  0  0  2  0  0  0  0  0  0
  187.5770  177.7660  144.9960 C   0  0  0  0  0  0  0  0  0  0  0  0
  186.2040  178.1050  144.4990 C   0  0  0  0  0  0  0  0  0  0  0  0
  186.8650  177.5650  147.4020 C   0  0  0  0  0  3  0  0  0  0  0  0
  187.8530  177.5010  146.3040 C   0  0  0  0  0  0  0  0  0  0  0  0
  189.4660  177.0280  146.8360 Cl  0  0  0  0  0  0  0  0  0  0  0  0
  190.6330  177.7460  142.8620 C   0  0  0  0  0  0  0  0  0  0  0  0
  192.0760  177.8770  142.5130 C   0  0  0  0  0  1  0  0  0  0  0  0
  188.3950  177.4300  142.7140 N   0  0  0  0  0  0  0  0  0  0  0  0
  190.0890  177.9180  144.2350 C   0  0  0  0  0  2  0  0  0  0  0  0
  189.6360  177.4700  142.0260 C   0  0  0  0  0  0  0  0  0  0  0  0
  188.6400  177.6630  143.9630 C   0  0  0  0  0  0  0  0  0  0  0  0
  190.2940  176.0460  140.1140 O   0  0  0  0  0  1  0  0  0  0  0  0
  189.7380  177.2320  140.5760 C   0  0  0  0  0  0  0  0  0  0  0  0
  189.3290  178.0850  139.7450 O   0  0  0  0  0  0  0  0  0  0  0  0
  185.1970  178.2360  142.2580 C   0  0  0  0  0  0  0  0  0  0  0  0
  185.7810  177.5390  143.1990 C   0  0  0  0  0  3  0  0  0  0  0  0
  184.6150  178.9290  141.3180 C   0  0  0  0  0  3  0  0  0  0  0  0
  183.6970  178.2710  140.3370 C   0  0  2  0  0  3  0  0  0  0  0  0
  183.5600  178.2510  137.9400 O   0  0  0  0  0  0  0  0  0  0  0  0
  184.0520  180.2750  138.8930 O   0  0  0  0  0  1  0  0  0  0  0  0
  183.7590  178.9220  138.9880 C   0  0  0  0  0  0  0  0  0  0  0  0
  182.2970  178.2440  140.8550 C   0  0  0  0  0  0  0  0  0  0  0  0
  181.4900  177.3870  140.4060 O   0  0  0  0  0  0  0  0  0  0  0  0
  181.8720  179.1890  141.8440 N   0  0  0  0  0  2  0  0  0  0  0  0
  180.5050  179.2450  142.3430 C   0  0  0  0  0  2  0  0  0  0  0  0
  180.4610  178.8990  143.8230 C   0  0  2  0  0  3  0  0  0  0  0  0
  181.8630  178.6300  144.3400 C   0  0  0  0  0  1  0  0  0  0  0  0
  179.6770  177.7620  144.0090 O   0  0  0  0  0  1  0  0  0  0  0  0
  1  3  1  0  0  0  0
  3  2  1  0  0  0  0
  4  7  2  0  0  0  0
  5  4  1  0  0  0  0
  5  1  2  0  0  0  0
  6  2  2  0  0  0  0
  7  8  1  0  0  0  0
  7  6  1  0  0  0  0
  9 12  1  0  0  0  0
 10  9  1  0  0  0  0
 11 14  2  0  0  0  0
 13 11  1  0  0  0  0
 13  9  2  0  0  0  0
 14 12  1  0  0  0  0
 14  4  1  0  0  0  0
 15 16  1  0  0  0  0
 16 13  1  0  0  0  0
 17 16  2  0  0  0  0
 18 19  2  0  0  0  0
 19  5  1  0  0  0  0
 20 18  2  0  0  0  0
 21 25  1  0  0  0  0
 21 20  1  1  0  0  0
 22 24  2  0  0  0  0
 23 24  1  0  0  0  0
 24 21  1  0  0  0  0
 25 27  1  0  0  0  0
 26 25  2  0  0  0  0
 27 28  1  0  0  0  0
 28 29  1  0  0  0  0
 29 31  1  0  0  0  0
 29 30  1  6  0  0  0
M  END
>  <MODEL>
8

>  <REMARK>
 VINA RESULT:      -7.5      3.166      5.391
  Name = 
  8 active torsions:
  status: ('A' for Active; 'I' for Inactive)
    1  A    between atoms: C_1  and  C_12
    2  A    between atoms: C_8  and  C_16
    3  A    between atoms: C_8  and  C_28
    4  A    between atoms: C_8  and  C_30
    5  A    between atoms: C_10  and  C_29
    6  A    between atoms: C_11  and  C_26
    7  A    between atoms: C_12  and  N_24
    8  A    between atoms: C_25  and  C_27
                            x       y       z     vdW  Elec       q    Type
                         _______ _______ _______ _____ _____    ______ ____

>  <TORSDO>
F 8

$$$$
=
 OpenBabel11062414313D

 31 32  0  0  1  0  0  0  0  0999 V2000
  184.9370  178.9480  144.4130 C   0  0  0  0  0  3  0  0  0  0  0  0
  185.9240  178.1740  146.4900 C   0  0  0  0  0  3  0  0  0  0  0  0
  185.5430  179.3780  145.7030 C   0  0  0  0  0  2  0  0  0  0  0  0
  187.0400  177.8640  143.6140 C   0  0  0  0  0  0  0  0  0  0  0  0
  185.6000  178.2570  143.4750 C   0  0  0  0  0  0  0  0  0  0  0  0
  186.8510  177.3170  146.0650 C   0  0  0  0  0  3  0  0  0  0  0  0
  187.5820  177.4180  144.7830 C   0  0  0  0  0  0  0  0  0  0  0  0
  189.2600  176.8890  144.8870 Cl  0  0  0  0  0  0  0  0  0  0  0  0
  188.5700  178.2820  140.2420 C   0  0  0  0  0  0  0  0  0  0  0  0
  188.6970  178.7380  138.8280 C   0  0  0  0  0  1  0  0  0  0  0  0
  188.9750  177.2830  142.2330 N   0  0  0  0  0  0  0  0  0  0  0  0
  187.4280  178.6260  141.1280 C   0  0  0  0  0  2  0  0  0  0  0  0
  189.4280  177.5160  140.9080 C   0  0  0  0  0  0  0  0  0  0  0  0
  187.8560  177.9190  142.3750 C   0  0  0  0  0  0  0  0  0  0  0  0
  191.9000  177.4710  140.8410 O   0  0  0  0  0  1  0  0  0  0  0  0
  190.6900  176.9510  140.4000 C   0  0  0  0  0  0  0  0  0  0  0  0
  190.6920  176.0020  139.5720 O   0  0  0  0  0  0  0  0  0  0  0  0
  183.7200  178.3340  141.8900 C   0  0  0  0  0  0  0  0  0  0  0  0
  184.8990  177.8780  142.2290 C   0  0  0  0  0  3  0  0  0  0  0  0
  182.5450  178.7880  141.5500 C   0  0  0  0  0  3  0  0  0  0  0  0
  181.6380  177.9870  140.6710 C   0  0  2  0  0  3  0  0  0  0  0  0
  182.7820  178.0460  138.5600 O   0  0  0  0  0  0  0  0  0  0  0  0
  182.6090  175.9840  139.5430 O   0  0  0  0  0  1  0  0  0  0  0  0
  182.3780  177.3520  139.5320 C   0  0  0  0  0  0  0  0  0  0  0  0
  180.5040  178.8230  140.1740 C   0  0  0  0  0  0  0  0  0  0  0  0
  179.4490  178.2580  139.7800 O   0  0  0  0  0  0  0  0  0  0  0  0
  180.6200  180.2500  140.1360 N   0  0  0  0  0  2  0  0  0  0  0  0
  179.5680  181.1100  139.6090 C   0  0  0  0  0  2  0  0  0  0  0  0
  180.0390  181.8200  138.3500 C   0  0  2  0  0  3  0  0  0  0  0  0
  181.5520  181.9280  138.3440 C   0  0  0  0  0  1  0  0  0  0  0  0
  179.4860  183.0990  138.3060 O   0  0  0  0  0  1  0  0  0  0  0  0
  1  3  1  0  0  0  0
  3  2  1  0  0  0  0
  4  7  2  0  0  0  0
  5  4  1  0  0  0  0
  5  1  2  0  0  0  0
  6  2  2  0  0  0  0
  7  8  1  0  0  0  0
  7  6  1  0  0  0  0
  9 13  2  0  0  0  0
  9 12  1  0  0  0  0
 10  9  1  0  0  0  0
 11 14  2  0  0  0  0
 12 14  1  0  0  0  0
 13 11  1  0  0  0  0
 14  4  1  0  0  0  0
 16 15  1  0  0  0  0
 16 13  1  0  0  0  0
 17 16  2  0  0  0  0
 18 19  2  0  0  0  0
 19  5  1  0  0  0  0
 20 18  2  0  0  0  0
 21 20  1  6  0  0  0
 22 24  2  0  0  0  0
 24 23  1  0  0  0  0
 24 21  1  0  0  0  0
 25 21  1  0  0  0  0
 26 25  2  0  0  0  0
 27 25  1  0  0  0  0
 28 27  1  0  0  0  0
 29 30  1  1  0  0  0
 29 28  1  0  0  0  0
 31 29  1  0  0  0  0
M  END
>  <MODEL>
9

>  <REMARK>
 VINA RESULT:      -7.4      3.701      5.943
  Name = 
  8 active torsions:
  status: ('A' for Active; 'I' for Inactive)
    1  A    between atoms: C_1  and  C_12
    2  A    between atoms: C_8  and  C_16
    3  A    between atoms: C_8  and  C_28
    4  A    between atoms: C_8  and  C_30
    5  A    between atoms: C_10  and  C_29
    6  A    between atoms: C_11  and  C_26
    7  A    between atoms: C_12  and  N_24
    8  A    between atoms: C_25  and  C_27
                            x       y       z     vdW  Elec       q    Type
                         _______ _______ _______ _____ _____    ______ ____

>  <TORSDO>
F 8

$$$$
