=
 OpenBabel11062417463D

 39 42  0  0  1  0  0  0  0  0999 V2000
  186.4260  178.1760  145.6590 C   0  0  0  0  0  0  0  0  0  0  0  0
  187.4940  177.5910  145.1200 C   0  0  0  0  0  3  0  0  0  0  0  0
  185.4070  178.9820  147.6500 O   0  0  0  0  0  0  0  0  0  0  0  0
  188.6520  177.6650  147.3680 C   0  0  0  0  0  3  0  0  0  0  0  0
  187.6080  178.2510  147.8730 N   0  0  0  0  0  0  0  0  0  0  0  0
  188.6640  177.1330  145.9520 C   0  0  2  0  0  3  0  0  0  0  0  0
  186.4250  178.4840  147.1010 C   0  0  0  0  0  0  0  0  0  0  0  0
  185.2970  178.5960  144.7790 C   0  0  0  0  0  2  0  0  0  0  0  0
  185.5310  178.1030  143.3610 C   0  0  0  0  0  2  0  0  0  0  0  0
  184.9100  179.0590  142.3570 C   0  0  0  0  0  2  0  0  0  0  0  0
  182.4320  178.6500  142.2320 C   0  0  0  0  0  1  0  0  0  0  0  0
  183.7780  178.3810  141.5810 C   0  0  1  0  0  3  0  0  0  0  0  0
  183.7210  178.7390  140.0850 C   0  0  1  0  0  0  0  0  0  0  0  0
  182.3600  178.7640  139.3950 C   0  0  0  0  0  2  0  0  0  0  0  0
  184.5700  179.7590  139.6510 O   0  0  0  0  0  1  0  0  0  0  0  0
  183.3790  177.6880  139.0400 C   0  0  2  0  0  0  0  0  0  0  0  0
  183.0620  176.4180  139.5280 O   0  0  0  0  0  1  0  0  0  0  0  0
  183.1390  177.4100  136.4980 C   0  0  2  0  0  3  0  0  0  0  0  0
  184.0340  177.8000  137.6610 C   0  0  2  0  0  3  0  0  0  0  0  0
  185.4480  176.8690  136.2200 C   0  0  2  0  0  3  0  0  0  0  0  0
  185.2000  177.0290  137.5940 O   0  0  0  0  0  0  0  0  0  0  0  0
  182.3440  176.3080  136.8180 O   0  0  0  0  0  1  0  0  0  0  0  0
  184.1380  176.9950  135.4610 C   0  0  0  0  0  2  0  0  0  0  0  0
  186.9470  175.5770  134.7330 C   0  0  0  0  0  2  0  0  0  0  0  0
  186.0650  175.5060  135.9620 C   0  0  0  0  0  3  0  0  0  0  0  0
  187.5700  175.5950  136.1120 C   0  0  0  0  0  2  0  0  0  0  0  0
  189.9940  177.3670  145.2260 C   0  0  1  0  0  3  0  0  0  0  0  0
  189.9760  178.5690  144.2760 C   0  0  0  0  0  2  0  0  0  0  0  0
  190.5190  178.2140  142.9720 N   0  0  0  0  0  2  0  0  0  0  0  0
  190.1590  176.8290  142.7100 C   0  0  0  0  0  2  0  0  0  0  0  0
  188.8540  176.7560  141.9260 C   0  0  0  0  0  2  0  0  0  0  0  0
  188.7190  177.9070  141.0420 N   0  0  0  0  0  0  0  0  0  0  0  0
  189.0550  179.0140  138.8930 O   0  0  0  0  0  0  0  0  0  0  0  0
  189.7210  176.8470  139.2140 O   0  0  0  0  0  1  0  0  0  0  0  0
  188.1910  179.0460  141.5410 F   0  0  0  0  0  0  0  0  0  0  0  0
  189.1870  177.8830  139.6900 C   0  0  0  0  0  0  0  0  0  0  0  0
  191.0520  177.4620  146.1360 O   0  0  0  0  0  0  0  0  0  0  0  0
  192.0330  175.6280  147.2880 C   0  0  0  0  0  1  0  0  0  0  0  0
  191.7920  176.2940  145.9490 C   0  0  0  0  0  2  0  0  0  0  0  0
  1  7  1  0  0  0  0
  2  1  2  0  0  0  0
  2  6  1  0  0  0  0
  4  5  2  0  0  0  0
  6 27  1  6  0  0  0
  6  4  1  0  0  0  0
  7  3  2  0  0  0  0
  7  5  1  0  0  0  0
  8  1  1  0  0  0  0
  9  8  1  0  0  0  0
 10  9  1  0  0  0  0
 12 11  1  1  0  0  0
 12 10  1  0  0  0  0
 13 15  1  6  0  0  0
 13 12  1  0  0  0  0
 14 13  1  0  0  0  0
 16 14  1  0  0  0  0
 16 17  1  1  0  0  0
 16 13  1  0  0  0  0
 18 22  1  1  0  0  0
 18 19  1  0  0  0  0
 19 21  1  1  0  0  0
 19 16  1  0  0  0  0
 20 25  1  1  0  0  0
 20 21  1  0  0  0  0
 23 20  1  0  0  0  0
 23 18  1  0  0  0  0
 24 25  1  0  0  0  0
 24 26  1  0  0  0  0
 25 26  1  0  0  0  0
 27 28  1  1  0  0  0
 27 37  1  0  0  0  0
 29 28  1  0  0  0  0
 30 29  1  0  0  0  0
 31 30  1  0  0  0  0
 32 35  1  0  0  0  0
 32 31  1  0  0  0  0
 33 36  2  0  0  0  0
 34 36  1  0  0  0  0
 36 32  1  0  0  0  0
 39 37  1  0  0  0  0
 39 38  1  0  0  0  0
M  END
>  <MODEL>
1

>  <REMARK>
 VINA RESULT:      -7.8      0.000      0.000
  Name = 
  15 active torsions:
  status: ('A' for Active; 'I' for Inactive)
    1  A    between atoms: C_3  and  C_13
    2  A    between atoms: C_5  and  C_7
    3  A    between atoms: C_5  and  C_13
    4  A    between atoms: C_7  and  C_38
    5  A    between atoms: C_8  and  C_38
    6  A    between atoms: C_9  and  C_32
    7  A    between atoms: C_14  and  C_22
    8  A    between atoms: C_14  and  O_25
    9  A    between atoms: C_14  and  C_36
   10  A    between atoms: C_15  and  N_16
   11  A    between atoms: C_15  and  C_18
   12  A    between atoms: C_17  and  C_26
   13  A    between atoms: C_18  and  N_27
   14  A    between atoms: C_19  and  O_25
   15  A    between atoms: C_22  and  N_27
                            x       y       z     vdW  Elec       q    Type
                         _______ _______ _______ _____ _____    ______ ____

>  <TORSDO>
F 15

$$$$
=
 OpenBabel11062417463D

 39 42  0  0  1  0  0  0  0  0999 V2000
  185.5160  178.4060  144.4090 C   0  0  0  0  0  0  0  0  0  0  0  0
  186.5650  177.8050  143.8490 C   0  0  0  0  0  3  0  0  0  0  0  0
  184.4320  179.0060  146.4370 O   0  0  0  0  0  0  0  0  0  0  0  0
  187.5610  177.4350  146.1450 C   0  0  0  0  0  3  0  0  0  0  0  0
  186.5390  178.0400  146.6730 N   0  0  0  0  0  0  0  0  0  0  0  0
  187.6280  177.1180  144.6680 C   0  0  2  0  0  3  0  0  0  0  0  0
  185.4390  178.4980  145.8780 C   0  0  0  0  0  0  0  0  0  0  0  0
  184.4950  179.0590  143.5400 C   0  0  0  0  0  2  0  0  0  0  0  0
  184.3910  178.3220  142.2150 C   0  0  0  0  0  2  0  0  0  0  0  0
  182.9960  178.4730  141.6320 C   0  0  0  0  0  2  0  0  0  0  0  0
  182.6730  176.4680  140.1470 C   0  0  0  0  0  1  0  0  0  0  0  0
  182.9470  177.9620  140.1890 C   0  0  1  0  0  3  0  0  0  0  0  0
  181.9530  178.7060  139.2790 C   0  0  1  0  0  0  0  0  0  0  0  0
  182.2260  178.7390  137.7780 C   0  0  0  0  0  2  0  0  0  0  0  0
  180.5970  178.5640  139.5830 O   0  0  0  0  0  1  0  0  0  0  0  0
  182.3360  180.0140  138.6040 C   0  0  2  0  0  0  0  0  0  0  0  0
  183.6470  180.4510  138.8100 O   0  0  0  0  0  1  0  0  0  0  0  0
  180.4330  180.8830  137.1130 C   0  0  2  0  0  3  0  0  0  0  0  0
  181.2420  181.0620  138.3860 C   0  0  2  0  0  3  0  0  0  0  0  0
  180.7980  183.1510  137.7660 C   0  0  2  0  0  3  0  0  0  0  0  0
  181.7770  182.3560  138.3860 O   0  0  0  0  0  0  0  0  0  0  0  0
  181.2440  180.4720  136.0530 O   0  0  0  0  0  1  0  0  0  0  0  0
  179.9630  182.2800  136.8430 C   0  0  0  0  0  2  0  0  0  0  0  0
  180.7450  184.4250  135.6440 C   0  0  0  0  0  2  0  0  0  0  0  0
  181.4630  184.2580  136.9680 C   0  0  0  0  0  3  0  0  0  0  0  0
  180.4840  185.3980  136.7730 C   0  0  0  0  0  2  0  0  0  0  0  0
  189.0220  177.3250  144.0630 C   0  0  1  0  0  3  0  0  0  0  0  0
  189.0030  177.9730  142.6750 C   0  0  0  0  0  2  0  0  0  0  0  0
  189.4120  177.0240  141.6490 N   0  0  0  0  0  2  0  0  0  0  0  0
  189.5570  177.7600  140.4030 C   0  0  0  0  0  2  0  0  0  0  0  0
  188.8150  177.0520  139.2750 C   0  0  0  0  0  2  0  0  0  0  0  0
  187.9330  177.9780  138.5770 N   0  0  0  0  0  0  0  0  0  0  0  0
  187.4090  179.4320  136.6880 O   0  0  0  0  0  0  0  0  0  0  0  0
  189.3530  178.2250  136.7350 O   0  0  0  0  0  1  0  0  0  0  0  0
  186.7900  178.3640  139.1860 F   0  0  0  0  0  0  0  0  0  0  0  0
  188.2740  178.5360  137.3040 C   0  0  0  0  0  0  0  0  0  0  0  0
  189.8470  178.0380  144.9400 O   0  0  0  0  0  0  0  0  0  0  0  0
  191.4610  176.7670  146.1350 C   0  0  0  0  0  1  0  0  0  0  0  0
  191.1000  177.4350  144.8250 C   0  0  0  0  0  2  0  0  0  0  0  0
  1  7  1  0  0  0  0
  2  1  2  0  0  0  0
  2  6  1  0  0  0  0
  4  5  2  0  0  0  0
  6 27  1  6  0  0  0
  6  4  1  0  0  0  0
  7  3  2  0  0  0  0
  7  5  1  0  0  0  0
  8  1  1  0  0  0  0
  9  8  1  0  0  0  0
 10  9  1  0  0  0  0
 12 11  1  1  0  0  0
 12 10  1  0  0  0  0
 13 15  1  1  0  0  0
 13 12  1  0  0  0  0
 14 16  1  0  0  0  0
 14 13  1  0  0  0  0
 16 17  1  1  0  0  0
 16 13  1  0  0  0  0
 18 22  1  6  0  0  0
 18 19  1  0  0  0  0
 19 21  1  6  0  0  0
 19 16  1  0  0  0  0
 20 25  1  6  0  0  0
 20 21  1  0  0  0  0
 23 18  1  0  0  0  0
 23 20  1  0  0  0  0
 24 26  1  0  0  0  0
 24 25  1  0  0  0  0
 26 25  1  0  0  0  0
 27 28  1  6  0  0  0
 27 37  1  0  0  0  0
 29 28  1  0  0  0  0
 30 29  1  0  0  0  0
 31 30  1  0  0  0  0
 32 35  1  0  0  0  0
 32 31  1  0  0  0  0
 33 36  2  0  0  0  0
 34 36  1  0  0  0  0
 36 32  1  0  0  0  0
 39 37  1  0  0  0  0
 39 38  1  0  0  0  0
M  END
>  <MODEL>
2

>  <REMARK>
 VINA RESULT:      -7.7      2.896      4.328
  Name = 
  15 active torsions:
  status: ('A' for Active; 'I' for Inactive)
    1  A    between atoms: C_3  and  C_13
    2  A    between atoms: C_5  and  C_7
    3  A    between atoms: C_5  and  C_13
    4  A    between atoms: C_7  and  C_38
    5  A    between atoms: C_8  and  C_38
    6  A    between atoms: C_9  and  C_32
    7  A    between atoms: C_14  and  C_22
    8  A    between atoms: C_14  and  O_25
    9  A    between atoms: C_14  and  C_36
   10  A    between atoms: C_15  and  N_16
   11  A    between atoms: C_15  and  C_18
   12  A    between atoms: C_17  and  C_26
   13  A    between atoms: C_18  and  N_27
   14  A    between atoms: C_19  and  O_25
   15  A    between atoms: C_22  and  N_27
                            x       y       z     vdW  Elec       q    Type
                         _______ _______ _______ _____ _____    ______ ____

>  <TORSDO>
F 15

$$$$
=
 OpenBabel11062417463D

 39 42  0  0  1  0  0  0  0  0999 V2000
  185.9330  178.0470  144.6040 C   0  0  0  0  0  0  0  0  0  0  0  0
  185.5330  178.4960  143.4160 C   0  0  0  0  0  3  0  0  0  0  0  0
  185.5090  177.9920  146.9430 O   0  0  0  0  0  0  0  0  0  0  0  0
  183.4760  179.4910  144.5000 C   0  0  0  0  0  3  0  0  0  0  0  0
  183.8720  179.0300  145.6490 N   0  0  0  0  0  0  0  0  0  0  0  0
  184.3370  179.4010  143.2610 C   0  0  2  0  0  3  0  0  0  0  0  0
  185.1250  178.3520  145.7990 C   0  0  0  0  0  0  0  0  0  0  0  0
  187.1320  177.1630  144.6880 C   0  0  0  0  0  2  0  0  0  0  0  0
  188.2860  177.9110  145.3320 C   0  0  0  0  0  2  0  0  0  0  0  0
  189.3120  176.9340  145.8820 C   0  0  0  0  0  2  0  0  0  0  0  0
  191.7910  176.5700  146.1030 C   0  0  0  0  0  1  0  0  0  0  0  0
  190.6850  177.1660  145.2480 C   0  0  1  0  0  3  0  0  0  0  0  0
  190.8140  176.6670  143.7970 C   0  0  1  0  0  0  0  0  0  0  0  0
  191.9690  177.1910  142.9480 C   0  0  0  0  0  2  0  0  0  0  0  0
  190.5420  175.3160  143.5720 O   0  0  0  0  0  1  0  0  0  0  0  0
  190.5350  177.5930  142.6220 C   0  0  2  0  0  0  0  0  0  0  0  0
  190.2250  178.9160  142.9440 O   0  0  0  0  0  1  0  0  0  0  0  0
  190.9380  176.6420  140.2710 C   0  0  2  0  0  3  0  0  0  0  0  0
  189.9310  176.9870  141.3530 C   0  0  2  0  0  3  0  0  0  0  0  0
  188.8190  177.3990  139.4720 C   0  0  2  0  0  3  0  0  0  0  0  0
  188.9670  177.8370  140.7990 O   0  0  0  0  0  0  0  0  0  0  0  0
  191.9420  177.6090  140.1860 O   0  0  0  0  0  1  0  0  0  0  0  0
  190.1000  176.7130  139.0300 C   0  0  0  0  0  2  0  0  0  0  0  0
  188.8580  178.2130  137.1350 C   0  0  0  0  0  2  0  0  0  0  0  0
  188.5290  178.5820  138.5670 C   0  0  0  0  0  3  0  0  0  0  0  0
  187.4180  178.2200  137.6020 C   0  0  0  0  0  2  0  0  0  0  0  0
  183.5430  179.0670  141.9920 C   0  0  1  0  0  3  0  0  0  0  0  0
  184.3950  178.4560  140.8740 C   0  0  0  0  0  2  0  0  0  0  0  0
  184.8920  179.4860  139.9720 N   0  0  0  0  0  2  0  0  0  0  0  0
  184.0420  179.4830  138.7920 C   0  0  0  0  0  2  0  0  0  0  0  0
  183.7690  178.0540  138.3350 C   0  0  0  0  0  2  0  0  0  0  0  0
  182.3420  177.8420  138.1290 N   0  0  0  0  0  0  0  0  0  0  0  0
  180.2740  176.6090  138.5320 O   0  0  0  0  0  0  0  0  0  0  0  0
  182.2230  176.0050  139.5710 O   0  0  0  0  0  1  0  0  0  0  0  0
  181.6920  178.6340  137.2480 F   0  0  0  0  0  0  0  0  0  0  0  0
  181.6310  176.7830  138.7780 C   0  0  0  0  0  0  0  0  0  0  0  0
  182.4430  178.2550  142.2870 O   0  0  0  0  0  0  0  0  0  0  0  0
  180.0730  178.2280  142.1180 C   0  0  0  0  0  1  0  0  0  0  0  0
  181.3630  178.8700  141.6530 C   0  0  0  0  0  2  0  0  0  0  0  0
  1  8  1  0  0  0  0
  1  7  1  0  0  0  0
  2  1  2  0  0  0  0
  4  5  2  0  0  0  0
  5  7  1  0  0  0  0
  6 27  1  6  0  0  0
  6  2  1  0  0  0  0
  6  4  1  0  0  0  0
  7  3  2  0  0  0  0
  8  9  1  0  0  0  0
  9 10  1  0  0  0  0
 12 10  1  0  0  0  0
 12 11  1  1  0  0  0
 13 15  1  6  0  0  0
 13 12  1  0  0  0  0
 14 13  1  0  0  0  0
 16 17  1  1  0  0  0
 16 14  1  0  0  0  0
 16 13  1  0  0  0  0
 18 22  1  6  0  0  0
 18 19  1  0  0  0  0
 19 21  1  6  0  0  0
 19 16  1  0  0  0  0
 20 25  1  6  0  0  0
 20 21  1  0  0  0  0
 23 20  1  0  0  0  0
 23 18  1  0  0  0  0
 24 26  1  0  0  0  0
 24 25  1  0  0  0  0
 26 25  1  0  0  0  0
 27 28  1  6  0  0  0
 27 37  1  0  0  0  0
 29 28  1  0  0  0  0
 30 29  1  0  0  0  0
 31 30  1  0  0  0  0
 32 31  1  0  0  0  0
 32 36  1  0  0  0  0
 33 36  2  0  0  0  0
 35 32  1  0  0  0  0
 36 34  1  0  0  0  0
 39 38  1  0  0  0  0
 39 37  1  0  0  0  0
M  END
>  <MODEL>
3

>  <REMARK>
 VINA RESULT:      -7.6      2.703      7.212
  Name = 
  15 active torsions:
  status: ('A' for Active; 'I' for Inactive)
    1  A    between atoms: C_3  and  C_13
    2  A    between atoms: C_5  and  C_7
    3  A    between atoms: C_5  and  C_13
    4  A    between atoms: C_7  and  C_38
    5  A    between atoms: C_8  and  C_38
    6  A    between atoms: C_9  and  C_32
    7  A    between atoms: C_14  and  C_22
    8  A    between atoms: C_14  and  O_25
    9  A    between atoms: C_14  and  C_36
   10  A    between atoms: C_15  and  N_16
   11  A    between atoms: C_15  and  C_18
   12  A    between atoms: C_17  and  C_26
   13  A    between atoms: C_18  and  N_27
   14  A    between atoms: C_19  and  O_25
   15  A    between atoms: C_22  and  N_27
                            x       y       z     vdW  Elec       q    Type
                         _______ _______ _______ _____ _____    ______ ____

>  <TORSDO>
F 15

$$$$
=
 OpenBabel11062417463D

 39 42  0  0  1  0  0  0  0  0999 V2000
  184.7320  178.5970  143.3440 C   0  0  0  0  0  0  0  0  0  0  0  0
  185.7360  177.7700  143.6280 C   0  0  0  0  0  3  0  0  0  0  0  0
  183.0170  179.9980  144.2100 O   0  0  0  0  0  0  0  0  0  0  0  0
  185.4320  178.2710  146.0890 C   0  0  0  0  0  3  0  0  0  0  0  0
  184.4660  179.0880  145.7920 N   0  0  0  0  0  0  0  0  0  0  0  0
  186.0940  177.4000  145.0450 C   0  0  2  0  0  3  0  0  0  0  0  0
  184.0090  179.2580  144.4450 C   0  0  0  0  0  0  0  0  0  0  0  0
  184.4240  178.9140  141.9190 C   0  0  0  0  0  2  0  0  0  0  0  0
  183.5330  177.8360  141.3260 C   0  0  0  0  0  2  0  0  0  0  0  0
  182.1320  178.3750  141.0900 C   0  0  0  0  0  2  0  0  0  0  0  0
  180.2930  178.6770  139.4000 C   0  0  0  0  0  1  0  0  0  0  0  0
  181.6610  178.0700  139.6650 C   0  0  1  0  0  3  0  0  0  0  0  0
  182.6470  178.4880  138.5600 C   0  0  1  0  0  0  0  0  0  0  0  0
  182.4410  177.9340  137.1530 C   0  0  0  0  0  2  0  0  0  0  0  0
  183.0650  179.8210  138.5640 O   0  0  0  0  0  1  0  0  0  0  0  0
  183.6430  177.4950  137.9810 C   0  0  2  0  0  0  0  0  0  0  0  0
  183.5570  176.1870  138.4640 O   0  0  0  0  0  1  0  0  0  0  0  0
  185.6430  177.2440  136.3900 C   0  0  2  0  0  3  0  0  0  0  0  0
  185.0070  178.0200  137.5290 C   0  0  2  0  0  3  0  0  0  0  0  0
  187.1800  178.1240  137.9920 C   0  0  2  0  0  3  0  0  0  0  0  0
  185.9130  178.0530  138.5960 O   0  0  0  0  0  0  0  0  0  0  0  0
  185.4220  175.8720  136.5270 O   0  0  0  0  0  1  0  0  0  0  0  0
  187.1020  177.5160  136.6020 C   0  0  0  0  0  2  0  0  0  0  0  0
  189.4940  178.1430  138.8710 C   0  0  0  0  0  2  0  0  0  0  0  0
  188.1940  177.3660  138.8300 C   0  0  0  0  0  3  0  0  0  0  0  0
  188.5510  178.1850  140.0540 C   0  0  0  0  0  2  0  0  0  0  0  0
  187.6120  177.2800  145.2260 C   0  0  1  0  0  3  0  0  0  0  0  0
  188.4050  177.4490  143.9260 C   0  0  0  0  0  2  0  0  0  0  0  0
  189.1900  176.2580  143.6330 N   0  0  0  0  0  2  0  0  0  0  0  0
  190.4640  176.6970  143.0860 C   0  0  0  0  0  2  0  0  0  0  0  0
  191.6180  176.1700  143.9320 C   0  0  0  0  0  2  0  0  0  0  0  0
  191.6680  176.8530  145.2190 N   0  0  0  0  0  0  0  0  0  0  0  0
  192.0310  176.8590  147.6330 O   0  0  0  0  0  1  0  0  0  0  0  0
  192.3150  174.9450  146.4080 O   0  0  0  0  0  0  0  0  0  0  0  0
  191.3110  178.1540  145.2730 F   0  0  0  0  0  0  0  0  0  0  0  0
  192.0190  176.1690  146.4260 C   0  0  0  0  0  0  0  0  0  0  0  0
  188.0700  178.1610  146.2120 O   0  0  0  0  0  0  0  0  0  0  0  0
  188.9030  178.1650  148.4380 C   0  0  0  0  0  1  0  0  0  0  0  0
  188.6140  177.3410  147.2010 C   0  0  0  0  0  2  0  0  0  0  0  0
  1  2  2  0  0  0  0
  1  7  1  0  0  0  0
  2  6  1  0  0  0  0
  3  7  2  0  0  0  0
  5  4  2  0  0  0  0
  6 27  1  6  0  0  0
  6  4  1  0  0  0  0
  7  5  1  0  0  0  0
  8  1  1  0  0  0  0
  9  8  1  0  0  0  0
 10  9  1  0  0  0  0
 12 11  1  6  0  0  0
 12 10  1  0  0  0  0
 13 15  1  1  0  0  0
 13 12  1  0  0  0  0
 14 16  1  0  0  0  0
 14 13  1  0  0  0  0
 16 17  1  1  0  0  0
 16 13  1  0  0  0  0
 18 22  1  1  0  0  0
 18 23  1  0  0  0  0
 18 19  1  0  0  0  0
 19 16  1  0  0  0  0
 19 21  1  1  0  0  0
 20 21  1  0  0  0  0
 20 25  1  1  0  0  0
 23 20  1  0  0  0  0
 24 26  1  0  0  0  0
 25 24  1  0  0  0  0
 25 26  1  0  0  0  0
 27 28  1  6  0  0  0
 27 37  1  0  0  0  0
 29 28  1  0  0  0  0
 30 29  1  0  0  0  0
 30 31  1  0  0  0  0
 31 32  1  0  0  0  0
 32 35  1  0  0  0  0
 32 36  1  0  0  0  0
 34 36  2  0  0  0  0
 36 33  1  0  0  0  0
 37 39  1  0  0  0  0
 39 38  1  0  0  0  0
M  END
>  <MODEL>
4

>  <REMARK>
 VINA RESULT:      -7.6      1.994      3.852
  Name = 
  15 active torsions:
  status: ('A' for Active; 'I' for Inactive)
    1  A    between atoms: C_3  and  C_13
    2  A    between atoms: C_5  and  C_7
    3  A    between atoms: C_5  and  C_13
    4  A    between atoms: C_7  and  C_38
    5  A    between atoms: C_8  and  C_38
    6  A    between atoms: C_9  and  C_32
    7  A    between atoms: C_14  and  C_22
    8  A    between atoms: C_14  and  O_25
    9  A    between atoms: C_14  and  C_36
   10  A    between atoms: C_15  and  N_16
   11  A    between atoms: C_15  and  C_18
   12  A    between atoms: C_17  and  C_26
   13  A    between atoms: C_18  and  N_27
   14  A    between atoms: C_19  and  O_25
   15  A    between atoms: C_22  and  N_27
                            x       y       z     vdW  Elec       q    Type
                         _______ _______ _______ _____ _____    ______ ____

>  <TORSDO>
F 15

$$$$
=
 OpenBabel11062417463D

 39 42  0  0  1  0  0  0  0  0999 V2000
  185.3010  178.2550  144.1170 C   0  0  0  0  0  0  0  0  0  0  0  0
  186.2480  177.7460  143.3310 C   0  0  0  0  0  3  0  0  0  0  0  0
  184.7060  178.9180  146.3210 O   0  0  0  0  0  0  0  0  0  0  0  0
  187.8580  177.7640  145.2820 C   0  0  0  0  0  3  0  0  0  0  0  0
  186.9270  178.2780  146.0300 N   0  0  0  0  0  0  0  0  0  0  0  0
  187.5850  177.3020  143.8680 C   0  0  2  0  0  3  0  0  0  0  0  0
  185.5990  178.4940  145.5410 C   0  0  0  0  0  0  0  0  0  0  0  0
  183.9960  178.6650  143.5220 C   0  0  0  0  0  2  0  0  0  0  0  0
  184.1570  178.9040  142.0300 C   0  0  0  0  0  2  0  0  0  0  0  0
  183.7130  177.6800  141.2460 C   0  0  0  0  0  2  0  0  0  0  0  0
  181.9340  179.2410  140.3950 C   0  0  0  0  0  1  0  0  0  0  0  0
  182.8510  178.0810  140.0460 C   0  0  1  0  0  3  0  0  0  0  0  0
  183.6430  178.4020  138.7650 C   0  0  1  0  0  0  0  0  0  0  0  0
  182.9610  178.1950  137.4170 C   0  0  0  0  0  2  0  0  0  0  0  0
  184.4530  179.5400  138.7970 O   0  0  0  0  0  1  0  0  0  0  0  0
  184.1140  177.2930  137.8370 C   0  0  2  0  0  0  0  0  0  0  0  0
  183.7290  175.9960  138.1840 O   0  0  0  0  0  1  0  0  0  0  0  0
  185.3820  177.1750  135.6060 C   0  0  2  0  0  3  0  0  0  0  0  0
  185.4360  177.4880  137.0910 C   0  0  2  0  0  3  0  0  0  0  0  0
  187.4510  176.6440  136.6740 C   0  0  2  0  0  3  0  0  0  0  0  0
  186.4560  176.7190  137.6640 O   0  0  0  0  0  0  0  0  0  0  0  0
  184.5840  176.0570  135.3540 O   0  0  0  0  0  1  0  0  0  0  0  0
  186.8080  176.8210  135.3090 C   0  0  0  0  0  2  0  0  0  0  0  0
  189.3850  175.3260  135.8690 C   0  0  0  0  0  2  0  0  0  0  0  0
  188.1490  175.2980  136.7440 C   0  0  0  0  0  3  0  0  0  0  0  0
  189.5190  175.4710  137.3690 C   0  0  0  0  0  2  0  0  0  0  0  0
  188.7190  177.6300  142.8900 C   0  0  1  0  0  3  0  0  0  0  0  0
  189.5120  176.4030  142.4300 C   0  0  0  0  0  2  0  0  0  0  0  0
  190.3050  175.8530  143.5210 N   0  0  0  0  0  2  0  0  0  0  0  0
  191.4440  176.7360  143.7230 C   0  0  0  0  0  2  0  0  0  0  0  0
  191.5120  177.1940  145.1750 C   0  0  0  0  0  2  0  0  0  0  0  0
  191.9610  176.1090  146.0380 N   0  0  0  0  0  0  0  0  0  0  0  0
  192.4600  175.1850  148.2420 O   0  0  0  0  0  1  0  0  0  0  0  0
  191.6330  177.3080  148.0190 O   0  0  0  0  0  0  0  0  0  0  0  0
  192.4070  174.9700  145.4640 F   0  0  0  0  0  0  0  0  0  0  0  0
  192.0040  176.2410  147.4620 C   0  0  0  0  0  0  0  0  0  0  0  0
  188.2420  178.3600  141.7970 O   0  0  0  0  0  0  0  0  0  0  0  0
  188.8410  178.5810  139.5070 C   0  0  0  0  0  1  0  0  0  0  0  0
  188.6530  177.6380  140.6760 C   0  0  0  0  0  2  0  0  0  0  0  0
  1  7  1  0  0  0  0
  2  6  1  0  0  0  0
  2  1  2  0  0  0  0
  4  5  2  0  0  0  0
  6 27  1  6  0  0  0
  6  4  1  0  0  0  0
  7  5  1  0  0  0  0
  7  3  2  0  0  0  0
  8  1  1  0  0  0  0
  9  8  1  0  0  0  0
 10  9  1  0  0  0  0
 12 11  1  1  0  0  0
 12 10  1  0  0  0  0
 13 15  1  1  0  0  0
 13 12  1  0  0  0  0
 14 16  1  0  0  0  0
 14 13  1  0  0  0  0
 16 17  1  1  0  0  0
 16 13  1  0  0  0  0
 18 22  1  1  0  0  0
 18 19  1  0  0  0  0
 19 21  1  1  0  0  0
 19 16  1  0  0  0  0
 20 25  1  6  0  0  0
 20 21  1  0  0  0  0
 23 18  1  0  0  0  0
 23 20  1  0  0  0  0
 24 25  1  0  0  0  0
 24 26  1  0  0  0  0
 25 26  1  0  0  0  0
 27 28  1  6  0  0  0
 28 29  1  0  0  0  0
 29 30  1  0  0  0  0
 30 31  1  0  0  0  0
 31 32  1  0  0  0  0
 32 36  1  0  0  0  0
 35 32  1  0  0  0  0
 36 34  2  0  0  0  0
 36 33  1  0  0  0  0
 37 27  1  0  0  0  0
 38 39  1  0  0  0  0
 39 37  1  0  0  0  0
M  END
>  <MODEL>
5

>  <REMARK>
 VINA RESULT:      -7.5      1.959      4.078
  Name = 
  15 active torsions:
  status: ('A' for Active; 'I' for Inactive)
    1  A    between atoms: C_3  and  C_13
    2  A    between atoms: C_5  and  C_7
    3  A    between atoms: C_5  and  C_13
    4  A    between atoms: C_7  and  C_38
    5  A    between atoms: C_8  and  C_38
    6  A    between atoms: C_9  and  C_32
    7  A    between atoms: C_14  and  C_22
    8  A    between atoms: C_14  and  O_25
    9  A    between atoms: C_14  and  C_36
   10  A    between atoms: C_15  and  N_16
   11  A    between atoms: C_15  and  C_18
   12  A    between atoms: C_17  and  C_26
   13  A    between atoms: C_18  and  N_27
   14  A    between atoms: C_19  and  O_25
   15  A    between atoms: C_22  and  N_27
                            x       y       z     vdW  Elec       q    Type
                         _______ _______ _______ _____ _____    ______ ____

>  <TORSDO>
F 15

$$$$
=
 OpenBabel11062417463D

 39 42  0  0  1  0  0  0  0  0999 V2000
  185.3720  178.6620  144.6470 C   0  0  0  0  0  0  0  0  0  0  0  0
  186.0380  177.9790  143.7170 C   0  0  0  0  0  3  0  0  0  0  0  0
  185.2460  179.2730  146.9410 O   0  0  0  0  0  0  0  0  0  0  0  0
  187.7960  177.3820  145.4350 C   0  0  0  0  0  3  0  0  0  0  0  0
  187.1430  178.0680  146.3250 N   0  0  0  0  0  0  0  0  0  0  0  0
  187.2430  177.1360  144.0490 C   0  0  2  0  0  3  0  0  0  0  0  0
  185.8860  178.6860  146.0280 C   0  0  0  0  0  0  0  0  0  0  0  0
  184.1810  179.4680  144.2520 C   0  0  0  0  0  2  0  0  0  0  0  0
  183.1850  178.5960  143.5070 C   0  0  0  0  0  2  0  0  0  0  0  0
  183.4330  178.6650  142.0100 C   0  0  0  0  0  2  0  0  0  0  0  0
  181.0390  179.3700  141.6950 C   0  0  0  0  0  1  0  0  0  0  0  0
  182.1380  178.4300  141.2280 C   0  0  1  0  0  3  0  0  0  0  0  0
  182.2890  178.5140  139.6980 C   0  0  1  0  0  0  0  0  0  0  0  0
  181.3320  177.7030  138.8280 C   0  0  0  0  0  2  0  0  0  0  0  0
  182.5770  179.7720  139.1640 O   0  0  0  0  0  1  0  0  0  0  0  0
  182.8080  177.3300  138.8960 C   0  0  2  0  0  0  0  0  0  0  0  0
  183.0710  176.1650  139.6200 O   0  0  0  0  0  1  0  0  0  0  0  0
  183.3160  176.7350  136.4490 C   0  0  2  0  0  3  0  0  0  0  0  0
  183.6390  177.6160  137.6430 C   0  0  2  0  0  3  0  0  0  0  0  0
  185.6130  177.3570  136.6510 C   0  0  2  0  0  3  0  0  0  0  0  0
  185.0090  177.5040  137.9110 O   0  0  0  0  0  0  0  0  0  0  0  0
  183.0580  175.4210  136.8450 O   0  0  0  0  0  1  0  0  0  0  0  0
  184.6040  176.7610  135.6840 C   0  0  0  0  0  2  0  0  0  0  0  0
  186.8330  175.4820  135.5930 C   0  0  0  0  0  2  0  0  0  0  0  0
  186.8220  176.4460  136.7610 C   0  0  0  0  0  3  0  0  0  0  0  0
  187.7460  176.6880  135.5840 C   0  0  0  0  0  2  0  0  0  0  0  0
  188.3050  177.2190  142.9460 C   0  0  1  0  0  3  0  0  0  0  0  0
  189.2640  176.0240  142.9220 C   0  0  0  0  0  2  0  0  0  0  0  0
  190.4440  176.3160  142.1210 N   0  0  0  0  0  2  0  0  0  0  0  0
  191.4420  176.8970  143.0060 C   0  0  0  0  0  2  0  0  0  0  0  0
  191.6370  176.0200  144.2380 C   0  0  0  0  0  2  0  0  0  0  0  0
  191.4980  176.8070  145.4570 N   0  0  0  0  0  0  0  0  0  0  0  0
  191.7840  177.1050  147.8630 O   0  0  0  0  0  1  0  0  0  0  0  0
  192.5190  175.2030  146.8210 O   0  0  0  0  0  0  0  0  0  0  0  0
  190.8600  177.9950  145.3900 F   0  0  0  0  0  0  0  0  0  0  0  0
  191.9580  176.3270  146.7250 C   0  0  0  0  0  0  0  0  0  0  0  0
  187.7130  177.4140  141.6940 O   0  0  0  0  0  0  0  0  0  0  0  0
  188.5340  178.3430  139.6660 C   0  0  0  0  0  1  0  0  0  0  0  0
  188.3630  178.5260  141.1590 C   0  0  0  0  0  2  0  0  0  0  0  0
  1  7  1  0  0  0  0
  2  6  1  0  0  0  0
  2  1  2  0  0  0  0
  4  5  2  0  0  0  0
  6 27  1  6  0  0  0
  6  4  1  0  0  0  0
  7  5  1  0  0  0  0
  7  3  2  0  0  0  0
  8  1  1  0  0  0  0
  9  8  1  0  0  0  0
 10  9  1  0  0  0  0
 12 11  1  1  0  0  0
 12 10  1  0  0  0  0
 13 15  1  6  0  0  0
 13 12  1  0  0  0  0
 14 16  1  0  0  0  0
 14 13  1  0  0  0  0
 16 17  1  1  0  0  0
 16 13  1  0  0  0  0
 18 22  1  1  0  0  0
 18 19  1  0  0  0  0
 19 21  1  1  0  0  0
 19 16  1  0  0  0  0
 20 25  1  1  0  0  0
 20 21  1  0  0  0  0
 23 18  1  0  0  0  0
 23 20  1  0  0  0  0
 24 25  1  0  0  0  0
 26 24  1  0  0  0  0
 26 25  1  0  0  0  0
 27 28  1  6  0  0  0
 29 28  1  0  0  0  0
 29 30  1  0  0  0  0
 30 31  1  0  0  0  0
 31 32  1  0  0  0  0
 32 36  1  0  0  0  0
 35 32  1  0  0  0  0
 36 34  2  0  0  0  0
 36 33  1  0  0  0  0
 37 27  1  0  0  0  0
 38 39  1  0  0  0  0
 39 37  1  0  0  0  0
M  END
>  <MODEL>
6

>  <REMARK>
 VINA RESULT:      -7.4      1.641      3.618
  Name = 
  15 active torsions:
  status: ('A' for Active; 'I' for Inactive)
    1  A    between atoms: C_3  and  C_13
    2  A    between atoms: C_5  and  C_7
    3  A    between atoms: C_5  and  C_13
    4  A    between atoms: C_7  and  C_38
    5  A    between atoms: C_8  and  C_38
    6  A    between atoms: C_9  and  C_32
    7  A    between atoms: C_14  and  C_22
    8  A    between atoms: C_14  and  O_25
    9  A    between atoms: C_14  and  C_36
   10  A    between atoms: C_15  and  N_16
   11  A    between atoms: C_15  and  C_18
   12  A    between atoms: C_17  and  C_26
   13  A    between atoms: C_18  and  N_27
   14  A    between atoms: C_19  and  O_25
   15  A    between atoms: C_22  and  N_27
                            x       y       z     vdW  Elec       q    Type
                         _______ _______ _______ _____ _____    ______ ____

>  <TORSDO>
F 15

$$$$
=
 OpenBabel11062417463D

 39 42  0  0  1  0  0  0  0  0999 V2000
  186.1330  178.3830  144.9550 C   0  0  0  0  0  0  0  0  0  0  0  0
  187.1720  177.7310  144.4350 C   0  0  0  0  0  3  0  0  0  0  0  0
  184.9690  178.9880  146.9370 O   0  0  0  0  0  0  0  0  0  0  0  0
  187.9980  177.2140  146.7690 C   0  0  0  0  0  3  0  0  0  0  0  0
  186.9880  177.8700  147.2590 N   0  0  0  0  0  0  0  0  0  0  0  0
  188.1340  176.9440  145.2880 C   0  0  2  0  0  3  0  0  0  0  0  0
  185.9730  178.4300  146.4190 C   0  0  0  0  0  0  0  0  0  0  0  0
  185.2140  179.1350  144.0530 C   0  0  0  0  0  2  0  0  0  0  0  0
  184.7110  178.2250  142.9450 C   0  0  0  0  0  2  0  0  0  0  0  0
  183.6830  178.9460  142.0900 C   0  0  0  0  0  2  0  0  0  0  0  0
  181.8240  178.9650  143.7840 C   0  0  0  0  0  1  0  0  0  0  0  0
  182.2660  178.4690  142.4170 C   0  0  1  0  0  3  0  0  0  0  0  0
  181.2070  178.8290  141.3590 C   0  0  1  0  0  0  0  0  0  0  0  0
  180.1010  177.8200  141.0640 C   0  0  0  0  0  2  0  0  0  0  0  0
  180.7550  180.1510  141.3480 O   0  0  0  0  0  1  0  0  0  0  0  0
  181.1670  178.1160  140.0160 C   0  0  2  0  0  0  0  0  0  0  0  0
  182.0960  177.0870  139.8390 O   0  0  0  0  0  1  0  0  0  0  0  0
  181.8380  179.5300  137.9800 C   0  0  2  0  0  3  0  0  0  0  0  0
  180.7130  178.9100  138.7890 C   0  0  2  0  0  3  0  0  0  0  0  0
  179.8260  180.8140  138.0600 C   0  0  2  0  0  3  0  0  0  0  0  0
  179.8200  179.9260  139.1500 O   0  0  0  0  0  0  0  0  0  0  0  0
  182.8460  180.0240  138.8110 O   0  0  0  0  0  1  0  0  0  0  0  0
  181.1480  180.6880  137.3240 C   0  0  0  0  0  2  0  0  0  0  0  0
  180.4280  183.1820  137.6670 C   0  0  0  0  0  2  0  0  0  0  0  0
  179.6440  182.2380  138.5540 C   0  0  0  0  0  3  0  0  0  0  0  0
  178.9310  183.0540  137.4940 C   0  0  0  0  0  2  0  0  0  0  0  0
  189.5730  177.0740  144.7750 C   0  0  1  0  0  3  0  0  0  0  0  0
  189.7220  178.0340  143.5900 C   0  0  0  0  0  2  0  0  0  0  0  0
  190.5660  177.4580  142.5530 N   0  0  0  0  0  2  0  0  0  0  0  0
  189.6890  176.8630  141.5550 C   0  0  0  0  0  2  0  0  0  0  0  0
  189.5160  177.8040  140.3680 C   0  0  0  0  0  2  0  0  0  0  0  0
  188.1260  178.2200  140.2390 N   0  0  0  0  0  0  0  0  0  0  0  0
  186.1210  178.6230  138.9050 O   0  0  0  0  0  1  0  0  0  0  0  0
  188.0240  177.7910  137.9410 O   0  0  0  0  0  0  0  0  0  0  0  0
  187.4910  178.7010  141.3300 F   0  0  0  0  0  0  0  0  0  0  0  0
  187.4410  178.1950  138.9820 C   0  0  0  0  0  0  0  0  0  0  0  0
  190.4450  177.4180  145.8130 O   0  0  0  0  0  0  0  0  0  0  0  0
  191.9960  175.9580  146.8680 C   0  0  0  0  0  1  0  0  0  0  0  0
  191.5920  176.6560  145.5870 C   0  0  0  0  0  2  0  0  0  0  0  0
  1  7  1  0  0  0  0
  2  1  2  0  0  0  0
  2  6  1  0  0  0  0
  4  5  2  0  0  0  0
  6 27  1  6  0  0  0
  6  4  1  0  0  0  0
  7  3  2  0  0  0  0
  7  5  1  0  0  0  0
  8  1  1  0  0  0  0
  9  8  1  0  0  0  0
 10 12  1  0  0  0  0
 10  9  1  0  0  0  0
 12 11  1  1  0  0  0
 13 15  1  6  0  0  0
 13 12  1  0  0  0  0
 14 13  1  0  0  0  0
 16 17  1  6  0  0  0
 16 14  1  0  0  0  0
 16 13  1  0  0  0  0
 18 19  1  0  0  0  0
 18 22  1  1  0  0  0
 19 21  1  1  0  0  0
 19 16  1  0  0  0  0
 20 25  1  1  0  0  0
 20 21  1  0  0  0  0
 23 18  1  0  0  0  0
 23 20  1  0  0  0  0
 24 25  1  0  0  0  0
 26 24  1  0  0  0  0
 26 25  1  0  0  0  0
 27 28  1  6  0  0  0
 27 37  1  0  0  0  0
 29 28  1  0  0  0  0
 30 29  1  0  0  0  0
 31 30  1  0  0  0  0
 32 31  1  0  0  0  0
 32 35  1  0  0  0  0
 33 36  1  0  0  0  0
 34 36  2  0  0  0  0
 36 32  1  0  0  0  0
 39 37  1  0  0  0  0
 39 38  1  0  0  0  0
M  END
>  <MODEL>
7

>  <REMARK>
 VINA RESULT:      -7.3      2.229      3.840
  Name = 
  15 active torsions:
  status: ('A' for Active; 'I' for Inactive)
    1  A    between atoms: C_3  and  C_13
    2  A    between atoms: C_5  and  C_7
    3  A    between atoms: C_5  and  C_13
    4  A    between atoms: C_7  and  C_38
    5  A    between atoms: C_8  and  C_38
    6  A    between atoms: C_9  and  C_32
    7  A    between atoms: C_14  and  C_22
    8  A    between atoms: C_14  and  O_25
    9  A    between atoms: C_14  and  C_36
   10  A    between atoms: C_15  and  N_16
   11  A    between atoms: C_15  and  C_18
   12  A    between atoms: C_17  and  C_26
   13  A    between atoms: C_18  and  N_27
   14  A    between atoms: C_19  and  O_25
   15  A    between atoms: C_22  and  N_27
                            x       y       z     vdW  Elec       q    Type
                         _______ _______ _______ _____ _____    ______ ____

>  <TORSDO>
F 15

$$$$
=
 OpenBabel11062417463D

 39 42  0  0  1  0  0  0  0  0999 V2000
  185.5050  178.6740  144.7640 C   0  0  0  0  0  0  0  0  0  0  0  0
  186.3700  178.1290  143.9100 C   0  0  0  0  0  3  0  0  0  0  0  0
  184.9000  178.9780  147.0430 O   0  0  0  0  0  0  0  0  0  0  0  0
  187.7760  177.3410  145.8600 C   0  0  0  0  0  3  0  0  0  0  0  0
  186.9300  177.8940  146.6780 N   0  0  0  0  0  0  0  0  0  0  0  0
  187.5200  177.2700  144.3720 C   0  0  2  0  0  3  0  0  0  0  0  0
  185.7320  178.5250  146.2130 C   0  0  0  0  0  0  0  0  0  0  0  0
  184.3830  179.5060  144.2400 C   0  0  0  0  0  2  0  0  0  0  0  0
  183.3300  178.6170  143.6020 C   0  0  0  0  0  2  0  0  0  0  0  0
  183.4610  178.6400  142.0880 C   0  0  0  0  0  2  0  0  0  0  0  0
  181.0500  179.3520  141.9890 C   0  0  0  0  0  1  0  0  0  0  0  0
  182.1030  178.4180  141.4160 C   0  0  1  0  0  3  0  0  0  0  0  0
  182.1220  178.5230  139.8810 C   0  0  1  0  0  0  0  0  0  0  0  0
  181.0840  177.7370  139.0850 C   0  0  0  0  0  2  0  0  0  0  0  0
  182.3790  179.7860  139.3410 O   0  0  0  0  0  1  0  0  0  0  0  0
  182.5550  177.3460  139.0200 C   0  0  2  0  0  0  0  0  0  0  0  0
  182.8650  176.1670  139.7030 O   0  0  0  0  0  1  0  0  0  0  0  0
  182.7430  176.8890  136.4990 C   0  0  2  0  0  3  0  0  0  0  0  0
  183.2790  177.6410  137.7040 C   0  0  2  0  0  3  0  0  0  0  0  0
  185.1010  177.2640  136.4860 C   0  0  2  0  0  3  0  0  0  0  0  0
  184.6490  177.3750  137.8120 O   0  0  0  0  0  0  0  0  0  0  0  0
  182.3890  175.5810  136.8360 O   0  0  0  0  0  1  0  0  0  0  0  0
  183.9410  176.8440  135.6000 C   0  0  0  0  0  2  0  0  0  0  0  0
  186.7220  176.1540  134.9800 C   0  0  0  0  0  2  0  0  0  0  0  0
  186.2120  176.2320  136.4040 C   0  0  0  0  0  3  0  0  0  0  0  0
  187.5100  176.9160  136.0240 C   0  0  0  0  0  2  0  0  0  0  0  0
  188.7760  177.5130  143.5260 C   0  0  1  0  0  3  0  0  0  0  0  0
  188.4840  178.1030  142.1430 C   0  0  0  0  0  2  0  0  0  0  0  0
  188.8050  177.1510  141.0890 N   0  0  0  0  0  2  0  0  0  0  0  0
  189.2560  177.9120  139.9340 C   0  0  0  0  0  2  0  0  0  0  0  0
  190.0110  177.0110  138.9640 C   0  0  0  0  0  2  0  0  0  0  0  0
  191.4410  177.0310  139.2480 N   0  0  0  0  0  0  0  0  0  0  0  0
  193.7520  176.5000  138.6690 O   0  0  0  0  0  1  0  0  0  0  0  0
  192.0340  175.9630  137.2530 O   0  0  0  0  0  0  0  0  0  0  0  0
  191.8570  177.5340  140.4300 F   0  0  0  0  0  0  0  0  0  0  0  0
  192.4010  176.4760  138.3430 C   0  0  0  0  0  0  0  0  0  0  0  0
  189.7040  178.2950  144.2220 O   0  0  0  0  0  0  0  0  0  0  0  0
  191.5160  177.1210  145.2150 C   0  0  0  0  0  1  0  0  0  0  0  0
  190.9420  177.7130  143.9460 C   0  0  0  0  0  2  0  0  0  0  0  0
  1  7  1  0  0  0  0
  2  6  1  0  0  0  0
  2  1  2  0  0  0  0
  4  5  2  0  0  0  0
  6 27  1  6  0  0  0
  6  4  1  0  0  0  0
  7  5  1  0  0  0  0
  7  3  2  0  0  0  0
  8  1  1  0  0  0  0
  9  8  1  0  0  0  0
 10  9  1  0  0  0  0
 12 11  1  1  0  0  0
 12 10  1  0  0  0  0
 13 15  1  6  0  0  0
 13 12  1  0  0  0  0
 14 13  1  0  0  0  0
 16 14  1  0  0  0  0
 16 17  1  1  0  0  0
 16 13  1  0  0  0  0
 18 22  1  1  0  0  0
 18 19  1  0  0  0  0
 19 21  1  1  0  0  0
 19 16  1  0  0  0  0
 20 25  1  1  0  0  0
 20 21  1  0  0  0  0
 23 20  1  0  0  0  0
 23 18  1  0  0  0  0
 24 26  1  0  0  0  0
 24 25  1  0  0  0  0
 26 25  1  0  0  0  0
 27 28  1  6  0  0  0
 27 37  1  0  0  0  0
 29 28  1  0  0  0  0
 30 29  1  0  0  0  0
 31 32  1  0  0  0  0
 31 30  1  0  0  0  0
 32 35  1  0  0  0  0
 34 36  2  0  0  0  0
 36 33  1  0  0  0  0
 36 32  1  0  0  0  0
 39 37  1  0  0  0  0
 39 38  1  0  0  0  0
M  END
>  <MODEL>
8

>  <REMARK>
 VINA RESULT:      -7.2      1.715      2.188
  Name = 
  15 active torsions:
  status: ('A' for Active; 'I' for Inactive)
    1  A    between atoms: C_3  and  C_13
    2  A    between atoms: C_5  and  C_7
    3  A    between atoms: C_5  and  C_13
    4  A    between atoms: C_7  and  C_38
    5  A    between atoms: C_8  and  C_38
    6  A    between atoms: C_9  and  C_32
    7  A    between atoms: C_14  and  C_22
    8  A    between atoms: C_14  and  O_25
    9  A    between atoms: C_14  and  C_36
   10  A    between atoms: C_15  and  N_16
   11  A    between atoms: C_15  and  C_18
   12  A    between atoms: C_17  and  C_26
   13  A    between atoms: C_18  and  N_27
   14  A    between atoms: C_19  and  O_25
   15  A    between atoms: C_22  and  N_27
                            x       y       z     vdW  Elec       q    Type
                         _______ _______ _______ _____ _____    ______ ____

>  <TORSDO>
F 15

$$$$
=
 OpenBabel11062417463D

 39 42  0  0  1  0  0  0  0  0999 V2000
  186.3280  177.8270  145.5760 C   0  0  0  0  0  0  0  0  0  0  0  0
  187.4260  177.2380  145.1050 C   0  0  0  0  0  3  0  0  0  0  0  0
  185.3060  178.9140  147.4260 O   0  0  0  0  0  0  0  0  0  0  0  0
  188.6440  177.8340  147.2410 C   0  0  0  0  0  3  0  0  0  0  0  0
  187.5690  178.4200  147.6770 N   0  0  0  0  0  0  0  0  0  0  0  0
  188.6580  177.0430  145.9520 C   0  0  2  0  0  3  0  0  0  0  0  0
  186.3460  178.4040  146.9320 C   0  0  0  0  0  0  0  0  0  0  0  0
  185.1390  177.9790  144.6880 C   0  0  0  0  0  2  0  0  0  0  0  0
  185.4590  178.9310  143.5480 C   0  0  0  0  0  2  0  0  0  0  0  0
  185.0140  178.3400  142.2210 C   0  0  0  0  0  2  0  0  0  0  0  0
  187.2060  178.5940  141.0130 C   0  0  0  0  0  1  0  0  0  0  0  0
  185.7440  179.0070  141.0520 C   0  0  1  0  0  3  0  0  0  0  0  0
  185.0950  178.7770  139.6750 C   0  0  1  0  0  0  0  0  0  0  0  0
  183.8400  179.5700  139.3210 C   0  0  0  0  0  2  0  0  0  0  0  0
  185.9620  178.6170  138.5920 O   0  0  0  0  0  1  0  0  0  0  0  0
  183.7560  178.0660  139.5490 C   0  0  2  0  0  0  0  0  0  0  0  0
  183.1390  177.7020  140.7480 O   0  0  0  0  0  1  0  0  0  0  0  0
  182.5350  177.7930  137.3060 C   0  0  2  0  0  3  0  0  0  0  0  0
  183.5100  177.2030  138.3090 C   0  0  2  0  0  3  0  0  0  0  0  0
  182.4730  175.4130  137.4940 C   0  0  2  0  0  3  0  0  0  0  0  0
  183.0550  175.9280  138.6650 O   0  0  0  0  0  0  0  0  0  0  0  0
  181.4710  178.4290  137.9490 O   0  0  0  0  0  1  0  0  0  0  0  0
  182.0140  176.5660  136.6190 C   0  0  0  0  0  2  0  0  0  0  0  0
  180.6300  174.0370  136.5810 C   0  0  0  0  0  2  0  0  0  0  0  0
  181.2880  174.5330  137.8510 C   0  0  0  0  0  3  0  0  0  0  0  0
  181.5430  173.1200  137.3660 C   0  0  0  0  0  2  0  0  0  0  0  0
  189.9390  177.2410  145.1310 C   0  0  1  0  0  3  0  0  0  0  0  0
  189.8100  178.2990  144.0310 C   0  0  0  0  0  2  0  0  0  0  0  0
  191.0320  178.3870  143.2440 N   0  0  0  0  0  2  0  0  0  0  0  0
  191.2320  177.0980  142.5990 C   0  0  0  0  0  2  0  0  0  0  0  0
  190.5440  177.0700  141.2380 C   0  0  0  0  0  2  0  0  0  0  0  0
  191.5250  177.1350  140.1630 N   0  0  0  0  0  0  0  0  0  0  0  0
  192.3050  176.5330  137.9300 O   0  0  0  0  0  0  0  0  0  0  0  0
  190.2820  175.7940  138.7050 O   0  0  0  0  0  1  0  0  0  0  0  0
  192.6790  177.8030  140.3810 F   0  0  0  0  0  0  0  0  0  0  0  0
  191.3300  176.4590  138.9170 C   0  0  0  0  0  0  0  0  0  0  0  0
  191.0300  177.5110  145.9630 O   0  0  0  0  0  0  0  0  0  0  0  0
  192.0270  175.9480  147.4500 C   0  0  0  0  0  1  0  0  0  0  0  0
  191.7520  176.3180  146.0080 C   0  0  0  0  0  2  0  0  0  0  0  0
  1  7  1  0  0  0  0
  2  1  2  0  0  0  0
  2  6  1  0  0  0  0
  4  5  2  0  0  0  0
  6 27  1  6  0  0  0
  6  4  1  0  0  0  0
  7  3  2  0  0  0  0
  7  5  1  0  0  0  0
  8  1  1  0  0  0  0
  9  8  1  0  0  0  0
 10  9  1  0  0  0  0
 12 11  1  6  0  0  0
 12 10  1  0  0  0  0
 13 15  1  6  0  0  0
 13 12  1  0  0  0  0
 14 16  1  0  0  0  0
 14 13  1  0  0  0  0
 16 13  1  0  0  0  0
 16 17  1  1  0  0  0
 18 22  1  1  0  0  0
 18 19  1  0  0  0  0
 19 21  1  1  0  0  0
 19 16  1  0  0  0  0
 20 25  1  1  0  0  0
 20 21  1  0  0  0  0
 23 18  1  0  0  0  0
 23 20  1  0  0  0  0
 24 26  1  0  0  0  0
 24 25  1  0  0  0  0
 26 25  1  0  0  0  0
 27 28  1  6  0  0  0
 27 37  1  0  0  0  0
 29 28  1  0  0  0  0
 30 29  1  0  0  0  0
 31 30  1  0  0  0  0
 32 35  1  0  0  0  0
 32 31  1  0  0  0  0
 33 36  2  0  0  0  0
 34 36  1  0  0  0  0
 36 32  1  0  0  0  0
 37 39  1  0  0  0  0
 39 38  1  0  0  0  0
M  END
>  <MODEL>
9

>  <REMARK>
 VINA RESULT:      -7.2      2.048      2.580
  Name = 
  15 active torsions:
  status: ('A' for Active; 'I' for Inactive)
    1  A    between atoms: C_3  and  C_13
    2  A    between atoms: C_5  and  C_7
    3  A    between atoms: C_5  and  C_13
    4  A    between atoms: C_7  and  C_38
    5  A    between atoms: C_8  and  C_38
    6  A    between atoms: C_9  and  C_32
    7  A    between atoms: C_14  and  C_22
    8  A    between atoms: C_14  and  O_25
    9  A    between atoms: C_14  and  C_36
   10  A    between atoms: C_15  and  N_16
   11  A    between atoms: C_15  and  C_18
   12  A    between atoms: C_17  and  C_26
   13  A    between atoms: C_18  and  N_27
   14  A    between atoms: C_19  and  O_25
   15  A    between atoms: C_22  and  N_27
                            x       y       z     vdW  Elec       q    Type
                         _______ _______ _______ _____ _____    ______ ____

>  <TORSDO>
F 15

$$$$
