=
 OpenBabel11062411003D

 49 56  0  0  1  0  0  0  0  0999 V2000
  194.3450  176.4710  136.7350 N   0  0  0  0  0  0  0  0  0  0  0  0
  192.4360  175.9660  137.7970 C   0  0  1  0  0  3  0  0  0  0  0  0
  194.0630  177.0600  139.0610 N   0  0  0  0  0  2  0  0  0  0  0  0
  189.3980  175.9300  138.3730 C   0  0  0  0  0  3  0  0  0  0  0  0
  193.3730  176.0290  135.7200 C   0  0  0  0  0  2  0  0  0  0  0  0
  189.5930  176.0240  136.9030 C   0  0  1  0  0  3  0  0  0  0  0  0
  193.7790  176.3110  137.8860 C   0  0  0  0  0  0  0  0  0  0  0  0
  190.3830  176.1620  139.2690 C   0  0  0  0  0  0  0  0  0  0  0  0
  192.7960  177.1220  139.8230 C   0  0  0  0  0  2  0  0  0  0  0  0
  190.7350  175.9510  136.1260 C   0  0  0  0  0  0  0  0  0  0  0  0
  191.6940  176.7660  138.8030 C   0  0  1  0  0  3  0  0  0  0  0  0
  188.7430  176.1980  135.6870 C   0  0  2  0  0  3  0  0  0  0  0  0
  189.9280  176.0980  134.8750 C   0  0  0  0  0  2  0  0  0  0  0  0
  192.1280  175.8100  136.5330 C   0  0  0  0  0  0  0  0  0  0  0  0
  187.3670  178.1020  136.8080 N   0  0  0  0  0  0  0  0  0  0  0  0
  188.2950  178.3080  134.6840 O   0  0  0  0  0  0  0  0  0  0  0  0
  188.0860  177.5600  135.6790 C   0  0  0  0  0  0  0  0  0  0  0  0
  188.9370  179.4520  137.5590 C   0  0  0  0  0  1  0  0  0  0  0  0
  187.6010  179.3940  137.1720 O   0  0  0  0  0  0  0  0  0  0  0  0
  186.2490  177.3940  137.4260 C   0  0  0  0  0  2  0  0  0  0  0  0
  183.8010  176.9790  136.7650 C   0  0  2  0  0  3  0  0  0  0  0  0
  184.6130  175.7570  136.6420 N   0  0  0  0  0  2  0  0  0  0  0  0
  185.2050  177.0630  136.3520 C   0  0  2  0  0  3  0  0  0  0  0  0
  183.5150  177.2560  138.2470 C   0  0  0  0  0  2  0  0  0  0  0  0
  181.2400  177.8810  139.1100 C   0  0  0  0  0  2  0  0  0  0  0  0
  184.3490  179.7590  139.2620 O   0  0  0  0  0  1  0  0  0  0  0  0
  182.9760  179.5230  139.3710 C   0  0  2  0  0  3  0  0  0  0  0  0
  181.3220  178.2660  140.5860 C   0  0  0  0  0  2  0  0  0  0  0  0
  182.6010  179.0740  140.7620 C   0  0  0  0  0  2  0  0  0  0  0  0
  182.5010  178.4040  138.4460 C   0  0  1  0  0  3  0  0  0  0  0  0
  190.1460  175.9680  140.6780 N   0  0  0  0  0  2  0  0  0  0  0  0
  189.8460  177.0450  141.6150 C   0  0  2  0  0  3  0  0  0  0  0  0
  191.3100  176.5280  145.6680 C   0  0  2  0  0  3  0  0  0  0  0  0
  190.5780  176.8740  142.9240 C   0  0  0  0  0  0  0  0  0  0  0  0
  191.7380  175.4190  144.7050 C   0  0  0  0  0  2  0  0  0  0  0  0
  190.9360  175.4730  143.4010 C   0  0  0  0  0  2  0  0  0  0  0  0
  190.8280  177.9560  143.6950 C   0  0  0  0  0  0  0  0  0  0  0  0
  190.3660  179.3250  143.2930 C   0  0  0  0  0  1  0  0  0  0  0  0
  191.6250  177.8430  144.9710 C   0  0  0  0  0  2  0  0  0  0  0  0
  192.8750  175.3610  147.1720 O   0  0  0  0  0  0  0  0  0  0  0  0
  192.0460  176.4310  146.9300 N   0  0  0  0  0  0  0  0  0  0  0  0
  191.8250  177.2340  147.8630 O   0  0  0  0  0  0  0  0  0  0  0  0
  187.5800  178.2090  140.9100 C   0  0  0  0  0  2  0  0  0  0  0  0
  186.9340  176.9200  143.8640 C   0  0  0  0  0  2  0  0  0  0  0  0
  185.6300  178.6920  142.5550 C   0  0  0  0  0  2  0  0  0  0  0  0
  186.0680  178.1550  143.9320 C   0  0  0  0  0  2  0  0  0  0  0  0
  188.3620  177.2430  141.7780 C   0  0  0  0  0  3  0  0  0  0  0  0
  186.7930  179.2790  141.7160 C   0  0  0  0  0  2  0  0  0  0  0  0
  187.7730  176.9090  142.8800 C   0  0  0  0  0  2  0  0  0  0  0  0
  1  7  2  0  0  0  0
  2 14  1  6  0  0  0
  2  7  1  0  0  0  0
  2 11  1  0  0  0  0
  3  9  1  0  0  0  0
  4  8  2  0  0  0  0
  5 14  1  0  0  0  0
  5  1  1  0  0  0  0
  6  4  1  6  0  0  0
  7  3  1  0  0  0  0
  8 31  1  0  0  0  0
 10 14  2  0  0  0  0
 10  6  1  0  0  0  0
 11  8  1  0  0  0  0
 11  9  1  1  0  0  0
 12 17  1  1  0  0  0
 12  6  1  0  0  0  0
 13 12  1  0  0  0  0
 13 10  1  0  0  0  0
 15 19  1  0  0  0  0
 15 20  1  0  0  0  0
 16 17  2  0  0  0  0
 17 15  1  0  0  0  0
 19 18  1  0  0  0  0
 21 24  1  1  0  0  0
 22 21  1  0  0  0  0
 23 22  1  0  0  0  0
 23 21  1  0  0  0  0
 23 20  1  1  0  0  0
 25 28  1  0  0  0  0
 27 26  1  1  0  0  0
 27 29  1  0  0  0  0
 28 29  1  0  0  0  0
 30 24  1  1  0  0  0
 30 25  1  0  0  0  0
 30 27  1  0  0  0  0
 32 31  1  6  0  0  0
 32 47  1  0  0  0  0
 32 34  1  0  0  0  0
 33 41  1  1  0  0  0
 34 36  1  0  0  0  0
 34 37  2  0  0  0  0
 35 33  1  0  0  0  0
 36 35  1  0  0  0  0
 37 39  1  0  0  0  0
 38 37  1  0  0  0  0
 39 33  1  0  0  0  0
 41 40  2  0  0  0  0
 41 42  2  0  0  0  0
 43 48  1  0  0  0  0
 43 47  1  0  0  0  0
 44 46  1  0  0  0  0
 45 46  1  0  0  0  0
 47 49  1  0  0  0  0
 48 45  1  0  0  0  0
 49 44  1  0  0  0  0
M  END
>  <MODEL>
1

>  <REMARK>
 VINA RESULT:      -7.9      0.000      0.000
  Name = 
  11 active torsions:
  status: ('A' for Active; 'I' for Inactive)
    1  A    between atoms: C_1  and  C_20
    2  A    between atoms: C_3  and  C_12
    3  A    between atoms: C_3  and  N_31
    4  A    between atoms: C_3  and  C_32
    5  A    between atoms: N_7  and  O_15
    6  A    between atoms: N_7  and  C_19
    7  A    between atoms: C_9  and  N_24
    8  A    between atoms: C_19  and  C_48
    9  A    between atoms: C_20  and  C_45
   10  A    between atoms: C_29  and  N_31
   11  A    between atoms: C_39  and  C_40
                            x       y       z     vdW  Elec       q    Type
                         _______ _______ _______ _____ _____    ______ ____

>  <TORSDO>
F 11

$$$$
=
 OpenBabel11062411003D

 49 56  0  0  1  0  0  0  0  0999 V2000
  188.8720  176.0210  137.7310 N   0  0  0  0  0  0  0  0  0  0  0  0
  187.0330  177.3030  137.7690 C   0  0  1  0  0  3  0  0  0  0  0  0
  186.9530  175.4230  136.3900 N   0  0  0  0  0  2  0  0  0  0  0  0
  184.6010  178.7940  138.9620 C   0  0  0  0  0  3  0  0  0  0  0  0
  189.0250  176.9880  138.8320 C   0  0  0  0  0  2  0  0  0  0  0  0
  185.6770  178.7620  139.9860 C   0  0  1  0  0  3  0  0  0  0  0  0
  187.7760  176.3270  137.1170 C   0  0  0  0  0  0  0  0  0  0  0  0
  184.6020  178.0130  137.8590 C   0  0  0  0  0  0  0  0  0  0  0  0
  185.5690  175.9260  136.5310 C   0  0  0  0  0  2  0  0  0  0  0  0
  186.9890  178.3320  139.9190 C   0  0  0  0  0  0  0  0  0  0  0  0
  185.6090  176.8850  137.7400 C   0  0  1  0  0  3  0  0  0  0  0  0
  185.8490  179.1580  141.4160 C   0  0  2  0  0  3  0  0  0  0  0  0
  187.2230  178.7330  141.3420 C   0  0  0  0  0  2  0  0  0  0  0  0
  187.7100  177.7170  138.8110 C   0  0  0  0  0  0  0  0  0  0  0  0
  185.2230  178.1490  143.7330 N   0  0  0  0  0  0  0  0  0  0  0  0
  183.9090  177.8470  141.8360 O   0  0  0  0  0  0  0  0  0  0  0  0
  184.9770  178.3140  142.3190 C   0  0  0  0  0  0  0  0  0  0  0  0
  183.6050  179.5050  144.3600 C   0  0  0  0  0  1  0  0  0  0  0  0
  184.1740  178.2560  144.5950 O   0  0  0  0  0  0  0  0  0  0  0  0
  186.5000  177.6540  144.2430 C   0  0  0  0  0  2  0  0  0  0  0  0
  188.0380  177.9680  146.2760 C   0  0  2  0  0  3  0  0  0  0  0  0
  186.8660  177.1390  146.6030 N   0  0  0  0  0  2  0  0  0  0  0  0
  186.7450  178.2360  145.6410 C   0  0  2  0  0  3  0  0  0  0  0  0
  189.0360  177.1410  145.4540 C   0  0  0  0  0  2  0  0  0  0  0  0
  190.9170  177.2660  147.1150 C   0  0  0  0  0  2  0  0  0  0  0  0
  191.0430  176.5530  143.5530 O   0  0  0  0  0  1  0  0  0  0  0  0
  191.5300  176.8530  144.8270 C   0  0  2  0  0  3  0  0  0  0  0  0
  191.7530  175.9890  147.0630 C   0  0  0  0  0  2  0  0  0  0  0  0
  191.8770  175.6010  145.5950 C   0  0  0  0  0  2  0  0  0  0  0  0
  190.4990  177.5790  145.6900 C   0  0  1  0  0  3  0  0  0  0  0  0
  183.5690  178.1580  136.8630 N   0  0  0  0  0  2  0  0  0  0  0  0
  182.1410  178.1380  137.1530 C   0  0  2  0  0  3  0  0  0  0  0  0
  179.9290  181.8340  137.6790 C   0  0  2  0  0  3  0  0  0  0  0  0
  181.5590  179.5300  137.2200 C   0  0  0  0  0  0  0  0  0  0  0  0
  181.3070  181.8340  138.3430 C   0  0  0  0  0  2  0  0  0  0  0  0
  181.8920  180.4200  138.4090 C   0  0  0  0  0  2  0  0  0  0  0  0
  180.6850  179.9340  136.2720 C   0  0  0  0  0  0  0  0  0  0  0  0
  180.2520  179.0170  135.1670 C   0  0  0  0  0  1  0  0  0  0  0  0
  180.1400  181.3410  136.2560 C   0  0  0  0  0  2  0  0  0  0  0  0
  179.0230  183.7890  136.4830 O   0  0  0  0  0  0  0  0  0  0  0  0
  179.3570  183.1830  137.6710 N   0  0  0  0  0  0  0  0  0  0  0  0
  179.3010  183.8610  138.7200 O   0  0  0  0  0  0  0  0  0  0  0  0
  182.0370  175.7950  138.3730 C   0  0  0  0  0  2  0  0  0  0  0  0
  180.1460  177.7470  140.2220 C   0  0  0  0  0  2  0  0  0  0  0  0
  180.2900  175.1920  140.1960 C   0  0  0  0  0  2  0  0  0  0  0  0
  179.4100  176.4410  140.3990 C   0  0  0  0  0  2  0  0  0  0  0  0
  181.8300  177.2970  138.3620 C   0  0  0  0  0  3  0  0  0  0  0  0
  180.7590  174.9890  138.7330 C   0  0  0  0  0  2  0  0  0  0  0  0
  181.0320  177.7380  139.2800 C   0  0  0  0  0  2  0  0  0  0  0  0
  1  5  1  0  0  0  0
  2  7  1  1  0  0  0
  2 14  1  0  0  0  0
  3  9  1  0  0  0  0
  3  7  1  0  0  0  0
  6  4  1  6  0  0  0
  6 12  1  0  0  0  0
  7  1  2  0  0  0  0
  8  4  2  0  0  0  0
 10  6  1  0  0  0  0
 10 13  1  0  0  0  0
 11  9  1  6  0  0  0
 11  2  1  0  0  0  0
 11  8  1  0  0  0  0
 12 17  1  1  0  0  0
 13 12  1  0  0  0  0
 14  5  1  0  0  0  0
 14 10  2  0  0  0  0
 15 20  1  0  0  0  0
 15 19  1  0  0  0  0
 16 17  2  0  0  0  0
 17 15  1  0  0  0  0
 18 19  1  0  0  0  0
 21 24  1  6  0  0  0
 21 22  1  0  0  0  0
 23 20  1  6  0  0  0
 23 21  1  0  0  0  0
 23 22  1  0  0  0  0
 27 26  1  6  0  0  0
 27 29  1  0  0  0  0
 27 30  1  0  0  0  0
 28 25  1  0  0  0  0
 29 28  1  0  0  0  0
 30 24  1  6  0  0  0
 30 25  1  0  0  0  0
 31  8  1  0  0  0  0
 32 31  1  1  0  0  0
 32 34  1  0  0  0  0
 32 47  1  0  0  0  0
 33 41  1  6  0  0  0
 33 35  1  0  0  0  0
 34 36  1  0  0  0  0
 35 36  1  0  0  0  0
 37 34  2  0  0  0  0
 38 37  1  0  0  0  0
 39 37  1  0  0  0  0
 39 33  1  0  0  0  0
 40 41  2  0  0  0  0
 41 42  2  0  0  0  0
 43 48  1  0  0  0  0
 44 46  1  0  0  0  0
 45 46  1  0  0  0  0
 47 43  1  0  0  0  0
 47 49  1  0  0  0  0
 48 45  1  0  0  0  0
 49 44  1  0  0  0  0
M  END
>  <MODEL>
2

>  <REMARK>
 VINA RESULT:      -7.1      3.182      9.847
  Name = 
  11 active torsions:
  status: ('A' for Active; 'I' for Inactive)
    1  A    between atoms: C_1  and  C_20
    2  A    between atoms: C_3  and  C_12
    3  A    between atoms: C_3  and  N_31
    4  A    between atoms: C_3  and  C_32
    5  A    between atoms: N_7  and  O_15
    6  A    between atoms: N_7  and  C_19
    7  A    between atoms: C_9  and  N_24
    8  A    between atoms: C_19  and  C_48
    9  A    between atoms: C_20  and  C_45
   10  A    between atoms: C_29  and  N_31
   11  A    between atoms: C_39  and  C_40
                            x       y       z     vdW  Elec       q    Type
                         _______ _______ _______ _____ _____    ______ ____

>  <TORSDO>
F 11

$$$$
=
 OpenBabel11062411003D

 49 56  0  0  1  0  0  0  0  0999 V2000
  192.8920  176.0160  135.4130 N   0  0  0  0  0  0  0  0  0  0  0  0
  191.5480  175.7710  137.1910 C   0  0  1  0  0  3  0  0  0  0  0  0
  193.5990  176.8120  137.5820 N   0  0  0  0  0  2  0  0  0  0  0  0
  189.0010  176.0520  138.9210 C   0  0  0  0  0  3  0  0  0  0  0  0
  191.5730  175.5830  134.9190 C   0  0  0  0  0  2  0  0  0  0  0  0
  188.5930  176.0110  137.4930 C   0  0  1  0  0  3  0  0  0  0  0  0
  192.8290  175.9990  136.7040 C   0  0  0  0  0  0  0  0  0  0  0  0
  190.2730  176.2660  139.3240 C   0  0  0  0  0  0  0  0  0  0  0  0
  192.7500  177.0480  138.7700 C   0  0  0  0  0  2  0  0  0  0  0  0
  189.3210  175.7750  136.3410 C   0  0  0  0  0  0  0  0  0  0  0  0
  191.3150  176.7110  138.3150 C   0  0  1  0  0  3  0  0  0  0  0  0
  187.3350  176.1630  136.7010 C   0  0  2  0  0  3  0  0  0  0  0  0
  188.0870  175.8930  135.5030 C   0  0  0  0  0  2  0  0  0  0  0  0
  190.7510  175.5420  136.1770 C   0  0  0  0  0  0  0  0  0  0  0  0
  185.6660  177.9350  137.6240 N   0  0  0  0  0  0  0  0  0  0  0  0
  187.4610  178.4960  136.2530 O   0  0  0  0  0  0  0  0  0  0  0  0
  186.7990  177.5740  136.8040 C   0  0  0  0  0  0  0  0  0  0  0  0
  184.5010  179.2080  138.9910 C   0  0  0  0  0  1  0  0  0  0  0  0
  185.7540  179.0470  138.4050 O   0  0  0  0  0  0  0  0  0  0  0  0
  184.3660  177.2840  137.4760 C   0  0  0  0  0  2  0  0  0  0  0  0
  182.6960  176.6550  135.6280 C   0  0  2  0  0  3  0  0  0  0  0  0
  183.9150  175.8320  135.5630 N   0  0  0  0  0  2  0  0  0  0  0  0
  183.9950  177.2310  135.9880 C   0  0  2  0  0  3  0  0  0  0  0  0
  181.8200  176.1800  136.7960 C   0  0  0  0  0  2  0  0  0  0  0  0
  180.7950  173.9090  136.4760 C   0  0  0  0  0  2  0  0  0  0  0  0
  179.2250  177.0040  137.5550 O   0  0  0  0  0  1  0  0  0  0  0  0
  179.3020  175.6800  137.1190 C   0  0  2  0  0  3  0  0  0  0  0  0
  180.0550  173.4800  137.7410 C   0  0  0  0  0  2  0  0  0  0  0  0
  179.3460  174.7160  138.2790 C   0  0  0  0  0  2  0  0  0  0  0  0
  180.5740  175.4020  136.3190 C   0  0  1  0  0  3  0  0  0  0  0  0
  190.6140  176.2080  140.7240 N   0  0  0  0  0  2  0  0  0  0  0  0
  190.1760  177.1830  141.7160 C   0  0  2  0  0  3  0  0  0  0  0  0
  191.4380  176.4990  145.8120 C   0  0  2  0  0  3  0  0  0  0  0  0
  190.8430  176.9650  143.0530 C   0  0  0  0  0  0  0  0  0  0  0  0
  191.9480  175.4530  144.8200 C   0  0  0  0  0  2  0  0  0  0  0  0
  191.2150  175.5520  143.4790 C   0  0  0  0  0  2  0  0  0  0  0  0
  191.0210  178.0130  143.8880 C   0  0  0  0  0  0  0  0  0  0  0  0
  190.5410  179.3880  143.5290 C   0  0  0  0  0  1  0  0  0  0  0  0
  191.7520  177.8560  145.1980 C   0  0  0  0  0  2  0  0  0  0  0  0
  192.8600  175.2400  147.3820 O   0  0  0  0  0  0  0  0  0  0  0  0
  192.1090  176.3580  147.1060 N   0  0  0  0  0  0  0  0  0  0  0  0
  191.8930  177.1720  148.0310 O   0  0  0  0  0  0  0  0  0  0  0  0
  187.8720  178.2430  140.9710 C   0  0  0  0  0  2  0  0  0  0  0  0
  187.1560  176.6370  143.7480 C   0  0  0  0  0  2  0  0  0  0  0  0
  185.7980  178.4270  142.5220 C   0  0  0  0  0  2  0  0  0  0  0  0
  186.1940  177.7940  143.8700 C   0  0  0  0  0  2  0  0  0  0  0  0
  188.6750  177.2580  141.7980 C   0  0  0  0  0  3  0  0  0  0  0  0
  186.9590  179.1720  141.8170 C   0  0  0  0  0  2  0  0  0  0  0  0
  188.0490  176.7800  142.8240 C   0  0  0  0  0  2  0  0  0  0  0  0
  1  7  2  0  0  0  0
  2 14  1  6  0  0  0
  2 11  1  0  0  0  0
  3  9  1  0  0  0  0
  4  8  2  0  0  0  0
  5  1  1  0  0  0  0
  5 14  1  0  0  0  0
  6  4  1  1  0  0  0
  7  2  1  0  0  0  0
  7  3  1  0  0  0  0
  8 31  1  0  0  0  0
 10  6  1  0  0  0  0
 11  9  1  1  0  0  0
 11  8  1  0  0  0  0
 12 17  1  6  0  0  0
 12  6  1  0  0  0  0
 13 10  1  0  0  0  0
 13 12  1  0  0  0  0
 14 10  2  0  0  0  0
 15 19  1  0  0  0  0
 16 17  2  0  0  0  0
 17 15  1  0  0  0  0
 19 18  1  0  0  0  0
 20 15  1  0  0  0  0
 21 23  1  0  0  0  0
 21 24  1  1  0  0  0
 22 21  1  0  0  0  0
 22 23  1  0  0  0  0
 23 20  1  1  0  0  0
 25 28  1  0  0  0  0
 27 26  1  1  0  0  0
 27 29  1  0  0  0  0
 28 29  1  0  0  0  0
 30 25  1  0  0  0  0
 30 24  1  1  0  0  0
 30 27  1  0  0  0  0
 32 31  1  6  0  0  0
 32 47  1  0  0  0  0
 32 34  1  0  0  0  0
 33 41  1  1  0  0  0
 34 36  1  0  0  0  0
 34 37  2  0  0  0  0
 35 33  1  0  0  0  0
 36 35  1  0  0  0  0
 37 39  1  0  0  0  0
 38 37  1  0  0  0  0
 39 33  1  0  0  0  0
 41 40  2  0  0  0  0
 41 42  2  0  0  0  0
 43 47  1  0  0  0  0
 43 48  1  0  0  0  0
 44 46  1  0  0  0  0
 45 46  1  0  0  0  0
 47 49  1  0  0  0  0
 48 45  1  0  0  0  0
 49 44  1  0  0  0  0
M  END
>  <MODEL>
3

>  <REMARK>
 VINA RESULT:      -7.1      1.799      2.308
  Name = 
  11 active torsions:
  status: ('A' for Active; 'I' for Inactive)
    1  A    between atoms: C_1  and  C_20
    2  A    between atoms: C_3  and  C_12
    3  A    between atoms: C_3  and  N_31
    4  A    between atoms: C_3  and  C_32
    5  A    between atoms: N_7  and  O_15
    6  A    between atoms: N_7  and  C_19
    7  A    between atoms: C_9  and  N_24
    8  A    between atoms: C_19  and  C_48
    9  A    between atoms: C_20  and  C_45
   10  A    between atoms: C_29  and  N_31
   11  A    between atoms: C_39  and  C_40
                            x       y       z     vdW  Elec       q    Type
                         _______ _______ _______ _____ _____    ______ ____

>  <TORSDO>
F 11

$$$$
=
 OpenBabel11062411003D

 49 56  0  0  1  0  0  0  0  0999 V2000
  180.0340  180.4170  143.4270 N   0  0  0  0  0  0  0  0  0  0  0  0
  180.7670  178.9120  141.9350 C   0  0  1  0  0  3  0  0  0  0  0  0
  179.0700  180.3410  141.2130 N   0  0  0  0  0  2  0  0  0  0  0  0
  182.7780  177.4100  140.1290 C   0  0  0  0  0  3  0  0  0  0  0  0
  181.2530  179.7990  143.9780 C   0  0  0  0  0  2  0  0  0  0  0  0
  183.4970  177.8720  141.3440 C   0  0  1  0  0  3  0  0  0  0  0  0
  179.7680  179.7940  142.3250 C   0  0  0  0  0  0  0  0  0  0  0  0
  181.5610  177.8730  139.7640 C   0  0  0  0  0  0  0  0  0  0  0  0
  179.6290  179.6780  140.0140 C   0  0  0  0  0  2  0  0  0  0  0  0
  183.0410  178.4730  142.5030 C   0  0  0  0  0  0  0  0  0  0  0  0
  180.9750  179.0780  140.4750 C   0  0  1  0  0  3  0  0  0  0  0  0
  184.9010  177.8860  141.8550 C   0  0  2  0  0  3  0  0  0  0  0  0
  184.4240  178.4900  143.0730 C   0  0  0  0  0  2  0  0  0  0  0  0
  181.6910  178.8910  142.8640 C   0  0  0  0  0  0  0  0  0  0  0  0
  187.2070  178.6280  140.9030 N   0  0  0  0  0  0  0  0  0  0  0  0
  185.2040  179.6180  140.2530 O   0  0  0  0  0  0  0  0  0  0  0  0
  185.7750  178.7830  141.0070 C   0  0  0  0  0  0  0  0  0  0  0  0
  188.0160  177.3710  139.2850 C   0  0  0  0  0  1  0  0  0  0  0  0
  187.7820  178.6890  139.6700 O   0  0  0  0  0  0  0  0  0  0  0  0
  188.0740  178.6330  142.0800 C   0  0  0  0  0  2  0  0  0  0  0  0
  188.0440  176.7920  143.8710 C   0  0  2  0  0  3  0  0  0  0  0  0
  189.4190  177.1840  143.5150 N   0  0  0  0  0  2  0  0  0  0  0  0
  188.3670  177.1870  142.4970 C   0  0  2  0  0  3  0  0  0  0  0  0
  187.4160  177.8780  144.7560 C   0  0  0  0  0  2  0  0  0  0  0  0
  188.2130  177.0510  146.9900 C   0  0  0  0  0  2  0  0  0  0  0  0
  185.3180  179.1040  146.2010 O   0  0  0  0  0  1  0  0  0  0  0  0
  186.1660  178.3120  146.9790 C   0  0  2  0  0  3  0  0  0  0  0  0
  188.3610  178.2180  147.9630 C   0  0  0  0  0  2  0  0  0  0  0  0
  187.1790  179.1490  147.7210 C   0  0  0  0  0  2  0  0  0  0  0  0
  186.9900  177.3370  146.1390 C   0  0  1  0  0  3  0  0  0  0  0  0
  180.8830  177.3180  138.6200 N   0  0  0  0  0  2  0  0  0  0  0  0
  181.4730  177.2050  137.2910 C   0  0  2  0  0  3  0  0  0  0  0  0
  185.1190  174.9320  136.6800 C   0  0  2  0  0  3  0  0  0  0  0  0
  182.7820  176.4530  137.3170 C   0  0  0  0  0  0  0  0  0  0  0  0
  185.3520  176.3590  137.1780 C   0  0  0  0  0  2  0  0  0  0  0  0
  184.0800  177.2050  137.0600 C   0  0  0  0  0  2  0  0  0  0  0  0
  182.7760  175.1110  137.4810 C   0  0  0  0  0  0  0  0  0  0  0  0
  181.4930  174.3450  137.6080 C   0  0  0  0  0  1  0  0  0  0  0  0
  184.0610  174.3280  137.5920 C   0  0  0  0  0  2  0  0  0  0  0  0
  187.5530  174.7670  137.0240 O   0  0  0  0  0  0  0  0  0  0  0  0
  186.3560  174.1510  136.7480 N   0  0  0  0  0  0  0  0  0  0  0  0
  186.3720  172.9460  136.4130 O   0  0  0  0  0  0  0  0  0  0  0  0
  182.0120  179.7920  137.3390 C   0  0  0  0  0  2  0  0  0  0  0  0
  180.2490  179.3900  134.5940 C   0  0  0  0  0  2  0  0  0  0  0  0
  180.8040  181.5470  135.8550 C   0  0  0  0  0  2  0  0  0  0  0  0
  179.7910  180.7740  134.9880 C   0  0  0  0  0  2  0  0  0  0  0  0
  181.5630  178.5430  136.6070 C   0  0  0  0  0  3  0  0  0  0  0  0
  180.9860  180.9580  137.2760 C   0  0  0  0  0  2  0  0  0  0  0  0
  180.9100  178.7650  135.5120 C   0  0  0  0  0  2  0  0  0  0  0  0
  1  5  1  0  0  0  0
  2  7  1  1  0  0  0
  2 14  1  0  0  0  0
  3  7  1  0  0  0  0
  6  4  1  1  0  0  0
  6 12  1  0  0  0  0
  6 10  1  0  0  0  0
  7  1  2  0  0  0  0
  8  4  2  0  0  0  0
  8 11  1  0  0  0  0
  9  3  1  0  0  0  0
 10 14  2  0  0  0  0
 10 13  1  0  0  0  0
 11  9  1  6  0  0  0
 11  2  1  0  0  0  0
 12 17  1  6  0  0  0
 12 13  1  0  0  0  0
 14  5  1  0  0  0  0
 15 17  1  0  0  0  0
 15 20  1  0  0  0  0
 16 17  2  0  0  0  0
 18 19  1  0  0  0  0
 19 15  1  0  0  0  0
 21 24  1  1  0  0  0
 22 21  1  0  0  0  0
 23 20  1  1  0  0  0
 23 22  1  0  0  0  0
 23 21  1  0  0  0  0
 25 28  1  0  0  0  0
 27 26  1  6  0  0  0
 27 29  1  0  0  0  0
 29 28  1  0  0  0  0
 30 24  1  6  0  0  0
 30 27  1  0  0  0  0
 30 25  1  0  0  0  0
 31  8  1  0  0  0  0
 32 34  1  0  0  0  0
 32 31  1  1  0  0  0
 33 41  1  1  0  0  0
 33 35  1  0  0  0  0
 33 39  1  0  0  0  0
 34 37  2  0  0  0  0
 36 35  1  0  0  0  0
 36 34  1  0  0  0  0
 37 39  1  0  0  0  0
 37 38  1  0  0  0  0
 41 40  2  0  0  0  0
 42 41  2  0  0  0  0
 44 46  1  0  0  0  0
 44 49  1  0  0  0  0
 45 48  1  0  0  0  0
 46 45  1  0  0  0  0
 47 32  1  0  0  0  0
 47 43  1  0  0  0  0
 48 43  1  0  0  0  0
 49 47  1  0  0  0  0
M  END
>  <MODEL>
4

>  <REMARK>
 VINA RESULT:      -7.0      3.725     10.038
  Name = 
  11 active torsions:
  status: ('A' for Active; 'I' for Inactive)
    1  A    between atoms: C_1  and  C_20
    2  A    between atoms: C_3  and  C_12
    3  A    between atoms: C_3  and  N_31
    4  A    between atoms: C_3  and  C_32
    5  A    between atoms: N_7  and  O_15
    6  A    between atoms: N_7  and  C_19
    7  A    between atoms: C_9  and  N_24
    8  A    between atoms: C_19  and  C_48
    9  A    between atoms: C_20  and  C_45
   10  A    between atoms: C_29  and  N_31
   11  A    between atoms: C_39  and  C_40
                            x       y       z     vdW  Elec       q    Type
                         _______ _______ _______ _____ _____    ______ ____

>  <TORSDO>
F 11

$$$$
=
 OpenBabel11062411003D

 49 56  0  0  1  0  0  0  0  0999 V2000
  190.0130  176.3890  138.6900 N   0  0  0  0  0  0  0  0  0  0  0  0
  188.0100  177.2160  138.1130 C   0  0  1  0  0  3  0  0  0  0  0  0
  188.6260  175.2040  137.1060 N   0  0  0  0  0  2  0  0  0  0  0  0
  185.1240  178.2600  138.4860 C   0  0  0  0  0  3  0  0  0  0  0  0
  189.7080  177.5010  139.6080 C   0  0  0  0  0  2  0  0  0  0  0  0
  185.9050  178.6060  139.7010 C   0  0  1  0  0  3  0  0  0  0  0  0
  189.0610  176.3570  137.8160 C   0  0  0  0  0  0  0  0  0  0  0  0
  185.5400  177.3630  137.5650 C   0  0  0  0  0  0  0  0  0  0  0  0
  187.1790  175.3950  136.8620 C   0  0  0  0  0  2  0  0  0  0  0  0
  187.2520  178.4780  139.9880 C   0  0  0  0  0  0  0  0  0  0  0  0
  186.7420  176.4870  137.8620 C   0  0  1  0  0  3  0  0  0  0  0  0
  185.6480  179.2130  141.0420 C   0  0  2  0  0  3  0  0  0  0  0  0
  187.0540  179.1030  141.3330 C   0  0  0  0  0  2  0  0  0  0  0  0
  188.3240  177.9040  139.1830 C   0  0  0  0  0  0  0  0  0  0  0  0
  184.8700  178.2090  143.3140 N   0  0  0  0  0  0  0  0  0  0  0  0
  183.7920  177.7480  141.3040 O   0  0  0  0  0  0  0  0  0  0  0  0
  184.7600  178.3180  141.8780 C   0  0  0  0  0  0  0  0  0  0  0  0
  183.1690  179.5020  143.8500 C   0  0  0  0  0  1  0  0  0  0  0  0
  183.7300  178.2450  144.0610 O   0  0  0  0  0  0  0  0  0  0  0  0
  186.1230  177.8410  143.9690 C   0  0  0  0  0  2  0  0  0  0  0  0
  187.3700  178.2530  146.1770 C   0  0  2  0  0  3  0  0  0  0  0  0
  186.1400  177.4680  146.3840 N   0  0  0  0  0  2  0  0  0  0  0  0
  186.1860  178.5040  145.3510 C   0  0  2  0  0  3  0  0  0  0  0  0
  188.4500  177.3570  145.5560 C   0  0  0  0  0  2  0  0  0  0  0  0
  190.7350  177.1240  146.5720 C   0  0  0  0  0  2  0  0  0  0  0  0
  189.8050  178.2850  143.2550 O   0  0  0  0  0  1  0  0  0  0  0  0
  190.6350  178.0380  144.3510 C   0  0  2  0  0  3  0  0  0  0  0  0
  191.6340  176.2860  145.6650 C   0  0  0  0  0  2  0  0  0  0  0  0
  191.3280  176.7030  144.2320 C   0  0  0  0  0  2  0  0  0  0  0  0
  189.8620  177.9730  145.6670 C   0  0  1  0  0  3  0  0  0  0  0  0
  184.7720  177.1400  136.3660 N   0  0  0  0  0  2  0  0  0  0  0  0
  183.4760  176.4720  136.3340 C   0  0  2  0  0  3  0  0  0  0  0  0
  180.6890  176.8270  139.6420 C   0  0  2  0  0  3  0  0  0  0  0  0
  182.6930  176.6990  137.6050 C   0  0  0  0  0  0  0  0  0  0  0  0
  181.9290  175.9890  139.9590 C   0  0  0  0  0  2  0  0  0  0  0  0
  182.6980  175.6270  138.6850 C   0  0  0  0  0  2  0  0  0  0  0  0
  181.9320  177.8090  137.7300 C   0  0  0  0  0  0  0  0  0  0  0  0
  181.8210  178.8090  136.6170 C   0  0  0  0  0  1  0  0  0  0  0  0
  181.1960  178.1160  139.0110 C   0  0  0  0  0  2  0  0  0  0  0  0
  179.0110  176.2220  141.3420 O   0  0  0  0  0  0  0  0  0  0  0  0
  179.9350  177.1210  140.8630 N   0  0  0  0  0  0  0  0  0  0  0  0
  180.0060  178.2450  141.4050 O   0  0  0  0  0  0  0  0  0  0  0  0
  182.6500  174.3470  134.9960 C   0  0  0  0  0  2  0  0  0  0  0  0
  184.6320  173.1160  137.3110 C   0  0  0  0  0  2  0  0  0  0  0  0
  182.9110  171.9100  135.8500 C   0  0  0  0  0  2  0  0  0  0  0  0
  183.6310  171.9910  137.2110 C   0  0  0  0  0  2  0  0  0  0  0  0
  183.6070  175.0190  135.9610 C   0  0  0  0  0  3  0  0  0  0  0  0
  181.9470  173.0930  135.5840 C   0  0  0  0  0  2  0  0  0  0  0  0
  184.2730  174.2060  136.7140 C   0  0  0  0  0  2  0  0  0  0  0  0
  1  5  1  0  0  0  0
  2  7  1  1  0  0  0
  2 14  1  0  0  0  0
  3  7  1  0  0  0  0
  6  4  1  6  0  0  0
  6 10  1  0  0  0  0
  6 12  1  0  0  0  0
  7  1  2  0  0  0  0
  8 11  1  0  0  0  0
  8  4  2  0  0  0  0
  9  3  1  0  0  0  0
 10 13  1  0  0  0  0
 11  9  1  6  0  0  0
 11  2  1  0  0  0  0
 12 13  1  0  0  0  0
 12 17  1  1  0  0  0
 14  5  1  0  0  0  0
 14 10  2  0  0  0  0
 15 20  1  0  0  0  0
 15 19  1  0  0  0  0
 16 17  2  0  0  0  0
 17 15  1  0  0  0  0
 18 19  1  0  0  0  0
 21 24  1  6  0  0  0
 21 22  1  0  0  0  0
 23 20  1  6  0  0  0
 23 21  1  0  0  0  0
 23 22  1  0  0  0  0
 27 26  1  6  0  0  0
 27 30  1  0  0  0  0
 28 25  1  0  0  0  0
 29 27  1  0  0  0  0
 29 28  1  0  0  0  0
 30 24  1  6  0  0  0
 30 25  1  0  0  0  0
 31  8  1  0  0  0  0
 32 31  1  1  0  0  0
 32 34  1  0  0  0  0
 33 35  1  0  0  0  0
 33 41  1  1  0  0  0
 34 37  2  0  0  0  0
 34 36  1  0  0  0  0
 36 35  1  0  0  0  0
 37 39  1  0  0  0  0
 38 37  1  0  0  0  0
 39 33  1  0  0  0  0
 41 40  2  0  0  0  0
 41 42  2  0  0  0  0
 43 48  1  0  0  0  0
 43 47  1  0  0  0  0
 45 46  1  0  0  0  0
 46 44  1  0  0  0  0
 47 32  1  0  0  0  0
 47 49  1  0  0  0  0
 48 45  1  0  0  0  0
 49 44  1  0  0  0  0
M  END
>  <MODEL>
5

>  <REMARK>
 VINA RESULT:      -7.0      3.043      8.865
  Name = 
  11 active torsions:
  status: ('A' for Active; 'I' for Inactive)
    1  A    between atoms: C_1  and  C_20
    2  A    between atoms: C_3  and  C_12
    3  A    between atoms: C_3  and  N_31
    4  A    between atoms: C_3  and  C_32
    5  A    between atoms: N_7  and  O_15
    6  A    between atoms: N_7  and  C_19
    7  A    between atoms: C_9  and  N_24
    8  A    between atoms: C_19  and  C_48
    9  A    between atoms: C_20  and  C_45
   10  A    between atoms: C_29  and  N_31
   11  A    between atoms: C_39  and  C_40
                            x       y       z     vdW  Elec       q    Type
                         _______ _______ _______ _____ _____    ______ ____

>  <TORSDO>
F 11

$$$$
=
 OpenBabel11062411003D

 49 56  0  0  1  0  0  0  0  0999 V2000
  193.1160  176.2710  135.6930 N   0  0  0  0  0  0  0  0  0  0  0  0
  191.6730  175.9220  137.3740 C   0  0  1  0  0  3  0  0  0  0  0  0
  193.6800  176.9690  137.9360 N   0  0  0  0  0  2  0  0  0  0  0  0
  189.0240  176.0870  138.9600 C   0  0  0  0  0  3  0  0  0  0  0  0
  191.8350  175.8450  135.1020 C   0  0  0  0  0  2  0  0  0  0  0  0
  188.7020  176.1100  137.5100 C   0  0  1  0  0  3  0  0  0  0  0  0
  192.9770  176.1900  136.9770 C   0  0  0  0  0  0  0  0  0  0  0  0
  190.2660  176.2970  139.4480 C   0  0  0  0  0  0  0  0  0  0  0  0
  192.7590  177.1360  139.0820 C   0  0  0  0  0  2  0  0  0  0  0  0
  189.5000  175.9390  136.3930 C   0  0  0  0  0  0  0  0  0  0  0  0
  191.3590  176.8030  138.5250 C   0  0  1  0  0  3  0  0  0  0  0  0
  187.4910  176.2840  136.6520 C   0  0  2  0  0  3  0  0  0  0  0  0
  188.3160  176.0820  135.4900 C   0  0  0  0  0  2  0  0  0  0  0  0
  190.9410  175.7330  136.3040 C   0  0  0  0  0  0  0  0  0  0  0  0
  185.6950  177.9750  137.4820 N   0  0  0  0  0  0  0  0  0  0  0  0
  187.6430  178.6440  136.3980 O   0  0  0  0  0  0  0  0  0  0  0  0
  186.9280  177.6810  136.7900 C   0  0  0  0  0  0  0  0  0  0  0  0
  184.4060  179.0100  138.9370 C   0  0  0  0  0  1  0  0  0  0  0  0
  185.6670  179.0260  138.3490 O   0  0  0  0  0  0  0  0  0  0  0  0
  184.4330  177.3340  137.1210 C   0  0  0  0  0  2  0  0  0  0  0  0
  183.9230  174.8170  137.2090 C   0  0  2  0  0  3  0  0  0  0  0  0
  182.8750  175.6090  137.8750 N   0  0  0  0  0  2  0  0  0  0  0  0
  184.2710  176.0430  137.9340 C   0  0  2  0  0  3  0  0  0  0  0  0
  183.7760  174.9510  135.6870 C   0  0  0  0  0  2  0  0  0  0  0  0
  185.6900  173.3810  135.2620 C   0  0  0  0  0  2  0  0  0  0  0  0
  182.1490  172.6400  135.6160 O   0  0  0  0  0  1  0  0  0  0  0  0
  183.4940  172.4050  135.3210 C   0  0  2  0  0  3  0  0  0  0  0  0
  185.6900  172.2560  136.2950 C   0  0  0  0  0  2  0  0  0  0  0  0
  184.2360  171.8580  136.5150 C   0  0  0  0  0  2  0  0  0  0  0  0
  184.2390  173.6830  134.9370 C   0  0  1  0  0  3  0  0  0  0  0  0
  190.5240  176.1750  140.8610 N   0  0  0  0  0  2  0  0  0  0  0  0
  190.0870  177.1420  141.8620 C   0  0  2  0  0  3  0  0  0  0  0  0
  191.3810  176.4810  145.9510 C   0  0  2  0  0  3  0  0  0  0  0  0
  190.7650  176.9210  143.1930 C   0  0  0  0  0  0  0  0  0  0  0  0
  191.8370  175.3980  144.9710 C   0  0  0  0  0  2  0  0  0  0  0  0
  191.0890  175.5030  143.6390 C   0  0  0  0  0  2  0  0  0  0  0  0
  190.9940  177.9760  144.0070 C   0  0  0  0  0  0  0  0  0  0  0  0
  190.5620  179.3620  143.6310 C   0  0  0  0  0  1  0  0  0  0  0  0
  191.7380  177.8140  145.3100 C   0  0  0  0  0  2  0  0  0  0  0  0
  191.7170  177.1340  148.3030 O   0  0  0  0  0  0  0  0  0  0  0  0
  192.0650  176.3360  147.2380 N   0  0  0  0  0  0  0  0  0  0  0  0
  193.0670  175.5970  147.3520 O   0  0  0  0  0  0  0  0  0  0  0  0
  187.7630  178.1090  141.0560 C   0  0  0  0  0  2  0  0  0  0  0  0
  187.0950  176.7380  143.9680 C   0  0  0  0  0  2  0  0  0  0  0  0
  185.7030  178.4010  142.6090 C   0  0  0  0  0  2  0  0  0  0  0  0
  186.1210  177.8910  144.0020 C   0  0  0  0  0  2  0  0  0  0  0  0
  188.5860  177.2070  141.9540 C   0  0  0  0  0  3  0  0  0  0  0  0
  186.8470  179.0970  141.8300 C   0  0  0  0  0  2  0  0  0  0  0  0
  187.9770  176.8120  143.0250 C   0  0  0  0  0  2  0  0  0  0  0  0
  1  7  2  0  0  0  0
  2 14  1  6  0  0  0
  2 11  1  0  0  0  0
  3  9  1  0  0  0  0
  4  8  2  0  0  0  0
  5  1  1  0  0  0  0
  5 14  1  0  0  0  0
  6  4  1  1  0  0  0
  7  2  1  0  0  0  0
  7  3  1  0  0  0  0
  8 31  1  0  0  0  0
 10  6  1  0  0  0  0
 11  9  1  1  0  0  0
 11  8  1  0  0  0  0
 12 17  1  6  0  0  0
 12  6  1  0  0  0  0
 13 10  1  0  0  0  0
 13 12  1  0  0  0  0
 14 10  2  0  0  0  0
 15 19  1  0  0  0  0
 16 17  2  0  0  0  0
 17 15  1  0  0  0  0
 19 18  1  0  0  0  0
 20 15  1  0  0  0  0
 21 24  1  6  0  0  0
 21 22  1  0  0  0  0
 21 23  1  0  0  0  0
 22 23  1  0  0  0  0
 23 20  1  6  0  0  0
 25 28  1  0  0  0  0
 27 26  1  1  0  0  0
 27 29  1  0  0  0  0
 28 29  1  0  0  0  0
 30 25  1  0  0  0  0
 30 27  1  0  0  0  0
 30 24  1  1  0  0  0
 32 31  1  6  0  0  0
 32 47  1  0  0  0  0
 32 34  1  0  0  0  0
 33 41  1  1  0  0  0
 34 36  1  0  0  0  0
 34 37  2  0  0  0  0
 35 33  1  0  0  0  0
 36 35  1  0  0  0  0
 37 39  1  0  0  0  0
 38 37  1  0  0  0  0
 39 33  1  0  0  0  0
 41 42  2  0  0  0  0
 41 40  2  0  0  0  0
 43 48  1  0  0  0  0
 43 47  1  0  0  0  0
 44 46  1  0  0  0  0
 45 46  1  0  0  0  0
 47 49  1  0  0  0  0
 48 45  1  0  0  0  0
 49 44  1  0  0  0  0
M  END
>  <MODEL>
6

>  <REMARK>
 VINA RESULT:      -7.0      2.096      3.109
  Name = 
  11 active torsions:
  status: ('A' for Active; 'I' for Inactive)
    1  A    between atoms: C_1  and  C_20
    2  A    between atoms: C_3  and  C_12
    3  A    between atoms: C_3  and  N_31
    4  A    between atoms: C_3  and  C_32
    5  A    between atoms: N_7  and  O_15
    6  A    between atoms: N_7  and  C_19
    7  A    between atoms: C_9  and  N_24
    8  A    between atoms: C_19  and  C_48
    9  A    between atoms: C_20  and  C_45
   10  A    between atoms: C_29  and  N_31
   11  A    between atoms: C_39  and  C_40
                            x       y       z     vdW  Elec       q    Type
                         _______ _______ _______ _____ _____    ______ ____

>  <TORSDO>
F 11

$$$$
=
 OpenBabel11062411003D

 49 56  0  0  1  0  0  0  0  0999 V2000
  186.4230  178.4590  147.0360 N   0  0  0  0  0  0  0  0  0  0  0  0
  185.8090  178.0800  144.9130 C   0  0  1  0  0  3  0  0  0  0  0  0
  184.8510  179.9370  145.9490 N   0  0  0  0  0  2  0  0  0  0  0  0
  186.1300  177.6540  141.8670 C   0  0  0  0  0  3  0  0  0  0  0  0
  187.3130  177.4190  146.4930 C   0  0  0  0  0  2  0  0  0  0  0  0
  187.3450  177.1310  142.5430 C   0  0  1  0  0  3  0  0  0  0  0  0
  185.5400  178.7060  146.1240 C   0  0  0  0  0  0  0  0  0  0  0  0
  185.2320  178.4620  142.4750 C   0  0  0  0  0  0  0  0  0  0  0  0
  184.5890  180.0570  144.4980 C   0  0  0  0  0  2  0  0  0  0  0  0
  187.6480  176.9680  143.8820 C   0  0  0  0  0  0  0  0  0  0  0  0
  185.5600  179.0620  143.8290 C   0  0  1  0  0  3  0  0  0  0  0  0
  188.6700  176.5650  142.1450 C   0  0  2  0  0  3  0  0  0  0  0  0
  188.9770  176.3730  143.5390 C   0  0  0  0  0  2  0  0  0  0  0  0
  186.8660  177.3220  145.0610 C   0  0  0  0  0  0  0  0  0  0  0  0
  189.9090  177.5200  140.0640 N   0  0  0  0  0  0  0  0  0  0  0  0
  189.7730  178.6720  142.0820 O   0  0  0  0  0  0  0  0  0  0  0  0
  189.5170  177.6100  141.4510 C   0  0  0  0  0  0  0  0  0  0  0  0
  188.4660  178.6710  138.8630 C   0  0  0  0  0  1  0  0  0  0  0  0
  189.7940  178.6280  139.2800 O   0  0  0  0  0  0  0  0  0  0  0  0
  190.6270  176.3620  139.5370 C   0  0  0  0  0  2  0  0  0  0  0  0
  190.9210  175.8440  137.0380 C   0  0  2  0  0  3  0  0  0  0  0  0
  192.1820  175.6810  137.7800 N   0  0  0  0  0  2  0  0  0  0  0  0
  191.2290  176.7200  138.1720 C   0  0  2  0  0  3  0  0  0  0  0  0
  189.9960  174.6550  137.3340 C   0  0  0  0  0  2  0  0  0  0  0  0
  189.0100  172.8920  135.8400 C   0  0  0  0  0  2  0  0  0  0  0  0
  187.4120  175.8000  137.3250 O   0  0  0  0  0  1  0  0  0  0  0  0
  187.5500  174.6880  136.4910 C   0  0  2  0  0  3  0  0  0  0  0  0
  187.7630  172.2900  136.4850 C   0  0  0  0  0  2  0  0  0  0  0  0
  187.0050  173.4390  137.1380 C   0  0  0  0  0  2  0  0  0  0  0  0
  189.0120  174.3710  136.1780 C   0  0  1  0  0  3  0  0  0  0  0  0
  184.0310  178.8640  141.7870 N   0  0  0  0  0  2  0  0  0  0  0  0
  183.1150  177.9400  141.1280 C   0  0  2  0  0  3  0  0  0  0  0  0
  183.8320  177.3060  136.8950 C   0  0  2  0  0  3  0  0  0  0  0  0
  183.5670  177.6020  139.7270 C   0  0  0  0  0  0  0  0  0  0  0  0
  184.9360  178.0920  137.6020 C   0  0  0  0  0  2  0  0  0  0  0  0
  184.4840  178.5650  138.9870 C   0  0  0  0  0  2  0  0  0  0  0  0
  183.0840  176.4960  139.1190 C   0  0  0  0  0  0  0  0  0  0  0  0
  182.0800  175.6090  139.7950 C   0  0  0  0  0  1  0  0  0  0  0  0
  183.5670  176.0770  137.7530 C   0  0  0  0  0  2  0  0  0  0  0  0
  185.3750  177.4690  134.9800 O   0  0  0  0  0  0  0  0  0  0  0  0
  184.2580  176.9060  135.5510 N   0  0  0  0  0  0  0  0  0  0  0  0
  183.5390  176.1650  134.8460 O   0  0  0  0  0  0  0  0  0  0  0  0
  181.0090  179.0960  140.0260 C   0  0  0  0  0  2  0  0  0  0  0  0
  180.3610  179.1530  143.2480 C   0  0  0  0  0  2  0  0  0  0  0  0
  179.2590  180.4780  141.3550 C   0  0  0  0  0  2  0  0  0  0  0  0
  179.6950  180.4430  142.8330 C   0  0  0  0  0  2  0  0  0  0  0  0
  181.6910  178.4220  141.2000 C   0  0  0  0  0  3  0  0  0  0  0  0
  180.4420  180.5050  140.3560 C   0  0  0  0  0  2  0  0  0  0  0  0
  181.1270  178.6330  142.3450 C   0  0  0  0  0  2  0  0  0  0  0  0
  2 14  1  1  0  0  0
  2  7  1  0  0  0  0
  3  7  1  0  0  0  0
  4  8  2  0  0  0  0
  5  1  1  0  0  0  0
  6  4  1  6  0  0  0
  6 10  1  0  0  0  0
  7  1  2  0  0  0  0
  8 11  1  0  0  0  0
  9  3  1  0  0  0  0
 10 14  2  0  0  0  0
 11  9  1  1  0  0  0
 11  2  1  0  0  0  0
 12 17  1  1  0  0  0
 12  6  1  0  0  0  0
 12 13  1  0  0  0  0
 13 10  1  0  0  0  0
 14  5  1  0  0  0  0
 15 17  1  0  0  0  0
 17 16  2  0  0  0  0
 18 19  1  0  0  0  0
 19 15  1  0  0  0  0
 20 15  1  0  0  0  0
 21 24  1  1  0  0  0
 21 22  1  0  0  0  0
 21 23  1  0  0  0  0
 22 23  1  0  0  0  0
 23 20  1  1  0  0  0
 25 30  1  0  0  0  0
 25 28  1  0  0  0  0
 27 29  1  0  0  0  0
 27 26  1  1  0  0  0
 28 29  1  0  0  0  0
 30 27  1  0  0  0  0
 30 24  1  1  0  0  0
 31  8  1  0  0  0  0
 32 47  1  0  0  0  0
 32 31  1  6  0  0  0
 33 41  1  6  0  0  0
 33 35  1  0  0  0  0
 33 39  1  0  0  0  0
 34 32  1  0  0  0  0
 35 36  1  0  0  0  0
 36 34  1  0  0  0  0
 37 34  2  0  0  0  0
 37 38  1  0  0  0  0
 39 37  1  0  0  0  0
 40 41  2  0  0  0  0
 42 41  2  0  0  0  0
 43 48  1  0  0  0  0
 43 47  1  0  0  0  0
 45 46  1  0  0  0  0
 46 44  1  0  0  0  0
 47 49  1  0  0  0  0
 48 45  1  0  0  0  0
 49 44  1  0  0  0  0
M  END
>  <MODEL>
7

>  <REMARK>
 VINA RESULT:      -6.9      2.793      8.736
  Name = 
  11 active torsions:
  status: ('A' for Active; 'I' for Inactive)
    1  A    between atoms: C_1  and  C_20
    2  A    between atoms: C_3  and  C_12
    3  A    between atoms: C_3  and  N_31
    4  A    between atoms: C_3  and  C_32
    5  A    between atoms: N_7  and  O_15
    6  A    between atoms: N_7  and  C_19
    7  A    between atoms: C_9  and  N_24
    8  A    between atoms: C_19  and  C_48
    9  A    between atoms: C_20  and  C_45
   10  A    between atoms: C_29  and  N_31
   11  A    between atoms: C_39  and  C_40
                            x       y       z     vdW  Elec       q    Type
                         _______ _______ _______ _____ _____    ______ ____

>  <TORSDO>
F 11

$$$$
=
 OpenBabel11062411003D

 49 56  0  0  1  0  0  0  0  0999 V2000
  181.2940  179.0230  143.4470 N   0  0  0  0  0  0  0  0  0  0  0  0
  183.1750  179.1300  142.2310 C   0  0  1  0  0  3  0  0  0  0  0  0
  183.4370  178.6550  144.5000 N   0  0  0  0  0  2  0  0  0  0  0  0
  185.1770  178.4370  139.9790 C   0  0  0  0  0  3  0  0  0  0  0  0
  180.9050  179.0760  142.0270 C   0  0  0  0  0  2  0  0  0  0  0  0
  183.8000  178.2280  139.4610 C   0  0  1  0  0  3  0  0  0  0  0  0
  182.5790  179.1620  143.4860 C   0  0  0  0  0  0  0  0  0  0  0  0
  185.4630  178.5760  141.2930 C   0  0  0  0  0  0  0  0  0  0  0  0
  184.7230  178.3520  143.8340 C   0  0  0  0  0  2  0  0  0  0  0  0
  182.5640  178.5060  140.0130 C   0  0  0  0  0  0  0  0  0  0  0  0
  184.3920  178.2870  142.3280 C   0  0  1  0  0  3  0  0  0  0  0  0
  183.1590  177.6980  138.2200 C   0  0  2  0  0  3  0  0  0  0  0  0
  181.8710  178.0090  138.7840 C   0  0  0  0  0  2  0  0  0  0  0  0
  182.2340  179.0530  141.3240 C   0  0  0  0  0  0  0  0  0  0  0  0
  184.0640  175.6520  136.8890 N   0  0  0  0  0  0  0  0  0  0  0  0
  183.2270  175.4710  139.0530 O   0  0  0  0  0  0  0  0  0  0  0  0
  183.4350  176.2190  138.0590 C   0  0  0  0  0  0  0  0  0  0  0  0
  186.2530  175.4130  136.8520 C   0  0  0  0  0  1  0  0  0  0  0  0
  185.0550  174.7340  137.0620 O   0  0  0  0  0  0  0  0  0  0  0  0
  183.5270  175.8580  135.5460 C   0  0  0  0  0  2  0  0  0  0  0  0
  181.7530  174.0560  135.0930 C   0  0  2  0  0  3  0  0  0  0  0  0
  182.7910  173.5770  136.0220 N   0  0  0  0  0  2  0  0  0  0  0  0
  183.1410  174.5010  134.9420 C   0  0  2  0  0  3  0  0  0  0  0  0
  180.8110  175.0170  135.8300 C   0  0  0  0  0  2  0  0  0  0  0  0
  179.3890  172.9580  135.6090 C   0  0  0  0  0  2  0  0  0  0  0  0
  179.4750  175.4120  138.2890 O   0  0  0  0  0  1  0  0  0  0  0  0
  179.0020  174.3280  137.5470 C   0  0  2  0  0  3  0  0  0  0  0  0
  179.5290  172.0840  136.8530 C   0  0  0  0  0  2  0  0  0  0  0  0
  179.5670  173.0220  138.0520 C   0  0  0  0  0  2  0  0  0  0  0  0
  179.4170  174.4010  136.0780 C   0  0  1  0  0  3  0  0  0  0  0  0
  186.8100  178.8620  141.7200 N   0  0  0  0  0  2  0  0  0  0  0  0
  187.8850  177.8780  141.7590 C   0  0  2  0  0  3  0  0  0  0  0  0
  190.2180  177.2500  145.3640 C   0  0  2  0  0  3  0  0  0  0  0  0
  188.5850  177.8610  143.0970 C   0  0  0  0  0  0  0  0  0  0  0  0
  190.4870  178.5880  144.6740 C   0  0  0  0  0  2  0  0  0  0  0  0
  189.8990  178.6130  143.2600 C   0  0  0  0  0  2  0  0  0  0  0  0
  188.0840  177.1100  144.1030 C   0  0  0  0  0  0  0  0  0  0  0  0
  186.8610  176.2650  143.9110 C   0  0  0  0  0  1  0  0  0  0  0  0
  188.7060  177.1250  145.4770 C   0  0  0  0  0  2  0  0  0  0  0  0
  192.1120  176.7430  146.8570 O   0  0  0  0  0  0  0  0  0  0  0  0
  190.8320  177.2200  146.6930 N   0  0  0  0  0  0  0  0  0  0  0  0
  190.1620  177.4830  147.7150 O   0  0  0  0  0  0  0  0  0  0  0  0
  188.4970  178.9220  139.4100 C   0  0  0  0  0  2  0  0  0  0  0  0
  190.5540  176.3770  139.7170 C   0  0  0  0  0  2  0  0  0  0  0  0
  189.9370  177.7110  137.6210 C   0  0  0  0  0  2  0  0  0  0  0  0
  190.3400  176.3500  138.2220 C   0  0  0  0  0  2  0  0  0  0  0  0
  188.8220  178.0300  140.5910 C   0  0  0  0  0  3  0  0  0  0  0  0
  188.5240  178.1850  138.0420 C   0  0  0  0  0  2  0  0  0  0  0  0
  189.7330  177.1400  140.3600 C   0  0  0  0  0  2  0  0  0  0  0  0
  1  7  2  0  0  0  0
  2 14  1  6  0  0  0
  2 11  1  0  0  0  0
  2  7  1  0  0  0  0
  4  8  2  0  0  0  0
  5  1  1  0  0  0  0
  6  4  1  6  0  0  0
  6 10  1  0  0  0  0
  7  3  1  0  0  0  0
  8 31  1  0  0  0  0
  8 11  1  0  0  0  0
  9  3  1  0  0  0  0
 10 14  2  0  0  0  0
 11  9  1  1  0  0  0
 12 17  1  1  0  0  0
 12 13  1  0  0  0  0
 12  6  1  0  0  0  0
 13 10  1  0  0  0  0
 14  5  1  0  0  0  0
 15 19  1  0  0  0  0
 15 17  1  0  0  0  0
 17 16  2  0  0  0  0
 18 19  1  0  0  0  0
 20 15  1  0  0  0  0
 21 24  1  1  0  0  0
 21 22  1  0  0  0  0
 23 21  1  0  0  0  0
 23 20  1  1  0  0  0
 23 22  1  0  0  0  0
 25 30  1  0  0  0  0
 25 28  1  0  0  0  0
 27 29  1  0  0  0  0
 27 26  1  1  0  0  0
 28 29  1  0  0  0  0
 30 24  1  1  0  0  0
 30 27  1  0  0  0  0
 32 31  1  1  0  0  0
 32 34  1  0  0  0  0
 33 39  1  0  0  0  0
 33 41  1  1  0  0  0
 34 36  1  0  0  0  0
 34 37  2  0  0  0  0
 35 33  1  0  0  0  0
 36 35  1  0  0  0  0
 37 39  1  0  0  0  0
 38 37  1  0  0  0  0
 41 40  2  0  0  0  0
 41 42  2  0  0  0  0
 43 47  1  0  0  0  0
 44 49  1  0  0  0  0
 45 48  1  0  0  0  0
 45 46  1  0  0  0  0
 46 44  1  0  0  0  0
 47 32  1  0  0  0  0
 48 43  1  0  0  0  0
 49 47  1  0  0  0  0
M  END
>  <MODEL>
8

>  <REMARK>
 VINA RESULT:      -6.7      3.247      6.708
  Name = 
  11 active torsions:
  status: ('A' for Active; 'I' for Inactive)
    1  A    between atoms: C_1  and  C_20
    2  A    between atoms: C_3  and  C_12
    3  A    between atoms: C_3  and  N_31
    4  A    between atoms: C_3  and  C_32
    5  A    between atoms: N_7  and  O_15
    6  A    between atoms: N_7  and  C_19
    7  A    between atoms: C_9  and  N_24
    8  A    between atoms: C_19  and  C_48
    9  A    between atoms: C_20  and  C_45
   10  A    between atoms: C_29  and  N_31
   11  A    between atoms: C_39  and  C_40
                            x       y       z     vdW  Elec       q    Type
                         _______ _______ _______ _____ _____    ______ ____

>  <TORSDO>
F 11

$$$$
=
 OpenBabel11062411003D

 49 56  0  0  1  0  0  0  0  0999 V2000
  194.0520  175.0320  137.2840 N   0  0  0  0  0  0  0  0  0  0  0  0
  192.2020  175.5280  138.4500 C   0  0  1  0  0  3  0  0  0  0  0  0
  194.0430  176.9190  138.7920 N   0  0  0  0  0  2  0  0  0  0  0  0
  189.2420  176.2630  138.9550 C   0  0  0  0  0  3  0  0  0  0  0  0
  192.9520  174.2130  136.7460 C   0  0  0  0  0  2  0  0  0  0  0  0
  189.3140  175.4380  137.7220 C   0  0  1  0  0  3  0  0  0  0  0  0
  193.5770  175.6670  138.3050 C   0  0  0  0  0  0  0  0  0  0  0  0
  190.3220  176.8430  139.5250 C   0  0  0  0  0  0  0  0  0  0  0  0
  192.8640  177.5970  139.3730 C   0  0  0  0  0  2  0  0  0  0  0  0
  190.3670  174.7600  137.1360 C   0  0  0  0  0  0  0  0  0  0  0  0
  191.6430  176.8620  138.7800 C   0  0  1  0  0  3  0  0  0  0  0  0
  188.3810  174.9720  136.6510 C   0  0  2  0  0  3  0  0  0  0  0  0
  189.4720  174.2460  136.0540 C   0  0  0  0  0  2  0  0  0  0  0  0
  191.7680  174.6960  137.5360 C   0  0  0  0  0  0  0  0  0  0  0  0
  187.2690  177.3130  136.4110 N   0  0  0  0  0  0  0  0  0  0  0  0
  188.1220  176.1360  134.5940 O   0  0  0  0  0  0  0  0  0  0  0  0
  187.8760  176.1380  135.8310 C   0  0  0  0  0  0  0  0  0  0  0  0
  188.5800  179.0180  136.8840 C   0  0  0  0  0  1  0  0  0  0  0  0
  187.6560  178.5380  135.9590 O   0  0  0  0  0  0  0  0  0  0  0  0
  186.1080  177.2280  137.2940 C   0  0  0  0  0  2  0  0  0  0  0  0
  183.5870  176.8840  136.9400 C   0  0  2  0  0  3  0  0  0  0  0  0
  184.2300  175.6760  137.4820 N   0  0  0  0  0  2  0  0  0  0  0  0
  184.9570  176.5390  136.5500 C   0  0  2  0  0  3  0  0  0  0  0  0
  183.4440  177.9310  138.0530 C   0  0  0  0  0  2  0  0  0  0  0  0
  180.9610  178.2950  137.9310 C   0  0  0  0  0  2  0  0  0  0  0  0
  183.5570  180.5480  139.1160 O   0  0  0  0  0  1  0  0  0  0  0  0
  182.2820  180.1470  138.7110 C   0  0  2  0  0  3  0  0  0  0  0  0
  180.4240  178.7310  139.2930 C   0  0  0  0  0  2  0  0  0  0  0  0
  181.4440  179.6960  139.8830 C   0  0  0  0  0  2  0  0  0  0  0  0
  182.3200  178.9500  137.7620 C   0  0  1  0  0  3  0  0  0  0  0  0
  190.1920  177.5600  140.7690 N   0  0  0  0  0  2  0  0  0  0  0  0
  189.5820  177.0090  141.9740 C   0  0  2  0  0  3  0  0  0  0  0  0
  185.7480  178.7610  143.0060 C   0  0  2  0  0  3  0  0  0  0  0  0
  188.1580  177.4820  142.1500 C   0  0  0  0  0  0  0  0  0  0  0  0
  186.1950  179.0450  141.5710 C   0  0  0  0  0  2  0  0  0  0  0  0
  187.6730  178.6940  141.3690 C   0  0  0  0  0  2  0  0  0  0  0  0
  187.3640  176.8770  143.0620 C   0  0  0  0  0  0  0  0  0  0  0  0
  187.8740  175.7640  143.9270 C   0  0  0  0  0  1  0  0  0  0  0  0
  185.9130  177.2640  143.2170 C   0  0  0  0  0  2  0  0  0  0  0  0
  183.9660  179.8260  144.3350 O   0  0  0  0  0  0  0  0  0  0  0  0
  184.3490  179.1510  143.1990 N   0  0  0  0  0  0  0  0  0  0  0  0
  183.4590  178.7530  142.4170 O   0  0  0  0  0  0  0  0  0  0  0  0
  191.6170  176.3300  143.5170 C   0  0  0  0  0  2  0  0  0  0  0  0
  189.8280  178.3520  145.3920 C   0  0  0  0  0  2  0  0  0  0  0  0
  191.6800  176.7250  146.0820 C   0  0  0  0  0  2  0  0  0  0  0  0
  190.3570  177.4210  146.4570 C   0  0  0  0  0  2  0  0  0  0  0  0
  190.4440  177.2320  143.1870 C   0  0  0  0  0  3  0  0  0  0  0  0
  191.5390  175.6960  144.9330 C   0  0  0  0  0  2  0  0  0  0  0  0
  190.0090  177.9360  144.1810 C   0  0  0  0  0  2  0  0  0  0  0  0
  1  7  2  0  0  0  0
  2 14  1  6  0  0  0
  2 11  1  0  0  0  0
  3  9  1  0  0  0  0
  4  8  2  0  0  0  0
  5  1  1  0  0  0  0
  5 14  1  0  0  0  0
  6  4  1  1  0  0  0
  7  2  1  0  0  0  0
  7  3  1  0  0  0  0
  8 31  1  0  0  0  0
 10 14  2  0  0  0  0
 10  6  1  0  0  0  0
 11  9  1  1  0  0  0
 11  8  1  0  0  0  0
 12 17  1  6  0  0  0
 12  6  1  0  0  0  0
 13 12  1  0  0  0  0
 13 10  1  0  0  0  0
 15 20  1  0  0  0  0
 16 17  2  0  0  0  0
 17 15  1  0  0  0  0
 19 15  1  0  0  0  0
 19 18  1  0  0  0  0
 21 22  1  0  0  0  0
 21 24  1  1  0  0  0
 23 21  1  0  0  0  0
 23 20  1  1  0  0  0
 23 22  1  0  0  0  0
 25 28  1  0  0  0  0
 27 26  1  1  0  0  0
 27 29  1  0  0  0  0
 28 29  1  0  0  0  0
 30 25  1  0  0  0  0
 30 24  1  1  0  0  0
 30 27  1  0  0  0  0
 32 31  1  6  0  0  0
 32 34  1  0  0  0  0
 32 47  1  0  0  0  0
 33 41  1  6  0  0  0
 33 39  1  0  0  0  0
 34 37  2  0  0  0  0
 35 33  1  0  0  0  0
 36 35  1  0  0  0  0
 36 34  1  0  0  0  0
 37 39  1  0  0  0  0
 37 38  1  0  0  0  0
 41 40  2  0  0  0  0
 42 41  2  0  0  0  0
 43 48  1  0  0  0  0
 44 46  1  0  0  0  0
 45 46  1  0  0  0  0
 47 43  1  0  0  0  0
 47 49  1  0  0  0  0
 48 45  1  0  0  0  0
 49 44  1  0  0  0  0
M  END
>  <MODEL>
9

>  <REMARK>
 VINA RESULT:      -6.4      2.420      3.817
  Name = 
  11 active torsions:
  status: ('A' for Active; 'I' for Inactive)
    1  A    between atoms: C_1  and  C_20
    2  A    between atoms: C_3  and  C_12
    3  A    between atoms: C_3  and  N_31
    4  A    between atoms: C_3  and  C_32
    5  A    between atoms: N_7  and  O_15
    6  A    between atoms: N_7  and  C_19
    7  A    between atoms: C_9  and  N_24
    8  A    between atoms: C_19  and  C_48
    9  A    between atoms: C_20  and  C_45
   10  A    between atoms: C_29  and  N_31
   11  A    between atoms: C_39  and  C_40
                            x       y       z     vdW  Elec       q    Type
                         _______ _______ _______ _____ _____    ______ ____

>  <TORSDO>
F 11

$$$$
