=
 OpenBabel11062416483D

 28 31  0  0  0  0  0  0  0  0999 V2000
  191.6020  177.4190  142.8380 C   0  0  0  0  0  1  0  0  0  0  0  0
  187.9260  177.9240  143.4960 C   0  0  0  0  0  0  0  0  0  0  0  0
  191.6690  176.7310  145.8380 Cl  0  0  0  0  0  0  0  0  0  0  0  0
  190.2170  177.1910  144.9420 C   0  0  0  0  0  0  0  0  0  0  0  0
  188.9710  177.2620  145.5990 C   0  0  0  0  0  0  0  0  0  0  0  0
  185.1200  178.8430  141.4310 C   0  0  0  0  0  3  0  0  0  0  0  0
  185.4580  178.0470  144.8320 C   0  0  0  0  0  3  0  0  0  0  0  0
  186.4900  178.6190  141.5230 C   0  0  0  0  0  0  0  0  0  0  0  0
  188.8680  176.9510  147.0590 C   0  0  0  0  0  1  0  0  0  0  0  0
  185.5520  178.3380  143.4760 C   0  0  0  0  0  0  0  0  0  0  0  0
  189.1620  177.8510  142.8530 C   0  0  0  0  0  3  0  0  0  0  0  0
  184.5440  178.6770  142.6490 N   0  0  0  0  0  2  0  0  0  0  0  0
  186.7530  178.2810  142.8280 C   0  0  0  0  0  0  0  0  0  0  0  0
  186.5980  177.7000  145.5010 N   0  0  0  0  0  0  0  0  0  0  0  0
  187.8200  177.6290  144.8800 C   0  0  0  0  0  0  0  0  0  0  0  0
  190.3040  177.4870  143.5670 C   0  0  0  0  0  0  0  0  0  0  0  0
  187.4370  178.6160  140.4500 N   0  0  0  0  0  2  0  0  0  0  0  0
  189.0630  175.4950  136.9920 C   0  0  0  0  0  1  0  0  0  0  0  0
  186.6710  176.2120  136.9850 C   0  0  0  0  0  2  0  0  0  0  0  0
  188.2360  177.0430  138.7820 C   0  0  0  0  0  0  0  0  0  0  0  0
  187.2900  177.9200  139.2040 C   0  0  0  0  0  0  0  0  0  0  0  0
  185.8710  177.4480  137.2590 C   0  0  0  0  0  3  0  0  0  0  0  0
  185.3580  179.3500  138.5270 O   0  0  0  0  0  1  0  0  0  0  0  0
  186.1380  178.2200  138.3130 C   0  0  0  0  0  0  0  0  0  0  0  0
  188.0130  176.3290  137.5510 N   0  0  0  0  0  0  0  0  0  0  0  0
  189.4270  176.7790  139.4860 O   0  0  0  0  0  0  0  0  0  0  0  0
  191.7900  176.6840  139.0920 C   0  0  0  0  0  1  0  0  0  0  0  0
  190.6110  177.5650  139.4440 C   0  0  0  0  0  2  0  0  0  0  0  0
  1 16  1  0  0  0  0
  2 15  1  0  0  0  0
  4  5  1  0  0  0  0
  4  3  1  0  0  0  0
  5  9  1  0  0  0  0
  6  8  2  0  0  0  0
  6 12  1  0  0  0  0
  7 14  2  0  0  0  0
  8 13  1  0  0  0  0
 10  7  1  0  0  0  0
 11  2  2  0  0  0  0
 11 16  1  0  0  0  0
 12 10  1  0  0  0  0
 13 10  2  0  0  0  0
 13  2  1  0  0  0  0
 15 14  1  0  0  0  0
 15  5  2  0  0  0  0
 16  4  2  0  0  0  0
 17  8  1  0  0  0  0
 18 25  1  0  0  0  0
 19 22  1  0  0  0  0
 19 25  1  0  0  0  0
 20 21  2  0  0  0  0
 20 26  1  0  0  0  0
 21 17  1  0  0  0  0
 22 24  2  0  0  0  0
 24 23  1  0  0  0  0
 24 21  1  0  0  0  0
 25 20  1  0  0  0  0
 27 28  1  0  0  0  0
 28 26  1  0  0  0  0
M  END
>  <MODEL>
1

>  <REMARK>
 VINA RESULT:      -8.4      0.000      0.000
  Name = 
  4 active torsions:
  status: ('A' for Active; 'I' for Inactive)
    1  A    between atoms: C_9  and  N_23
    2  A    between atoms: O_14  and  C_17
    3  A    between atoms: O_14  and  C_27
    4  A    between atoms: C_19  and  N_23
                            x       y       z     vdW  Elec       q    Type
                         _______ _______ _______ _____ _____    ______ ____

>  <TORSDO>
F 4

$$$$
=
 OpenBabel11062416483D

 28 31  0  0  1  0  0  0  0  0999 V2000
  185.9720  178.9340  146.6090 C   0  0  0  0  0  1  0  0  0  0  0  0
  188.4540  177.6320  144.0890 C   0  0  0  0  0  0  0  0  0  0  0  0
  187.9340  177.6940  148.6330 Cl  0  0  0  0  0  0  0  0  0  0  0  0
  188.1440  177.6650  146.8790 C   0  0  0  0  0  0  0  0  0  0  0  0
  189.2750  177.0430  146.3110 C   0  0  0  0  0  0  0  0  0  0  0  0
  188.6620  177.7500  140.4940 C   0  0  0  0  0  3  0  0  0  0  0  0
  190.7230  176.3950  142.9900 C   0  0  0  0  0  3  0  0  0  0  0  0
  187.9410  178.0620  141.6420 C   0  0  1  0  0  3  0  0  0  0  0  0
  190.3050  176.4030  147.1870 C   0  0  0  0  0  1  0  0  0  0  0  0
  189.7660  176.9880  142.1740 C   0  0  0  0  0  0  0  0  0  0  0  0
  187.3370  178.2450  144.6600 C   0  0  0  0  0  3  0  0  0  0  0  0
  189.7900  177.0740  140.8300 N   0  0  0  0  0  0  0  0  0  0  0  0
  188.6620  177.5860  142.7100 C   0  0  0  0  0  0  0  0  0  0  0  0
  190.5320  176.4270  144.3420 N   0  0  0  0  0  0  0  0  0  0  0  0
  189.4360  177.0240  144.9140 C   0  0  0  0  0  0  0  0  0  0  0  0
  187.1790  178.2650  146.0460 C   0  0  0  0  0  0  0  0  0  0  0  0
  186.7400  178.8380  141.7220 N   0  0  0  0  0  2  0  0  0  0  0  0
  181.9460  177.8560  141.0900 C   0  0  0  0  0  1  0  0  0  0  0  0
  183.2560  178.8770  139.2250 C   0  0  0  0  0  2  0  0  0  0  0  0
  184.3690  178.3950  141.4380 C   0  0  0  0  0  0  0  0  0  0  0  0
  185.5800  178.6750  140.8930 C   0  0  0  0  0  0  0  0  0  0  0  0
  184.6280  178.7770  138.6340 C   0  0  0  0  0  3  0  0  0  0  0  0
  186.9600  178.6390  138.8120 O   0  0  0  0  0  1  0  0  0  0  0  0
  185.7090  178.7210  139.4120 C   0  0  0  0  0  0  0  0  0  0  0  0
  183.2280  178.2960  140.5660 N   0  0  0  0  0  0  0  0  0  0  0  0
  184.1580  178.2050  142.8170 O   0  0  0  0  0  0  0  0  0  0  0  0
  182.7180  178.8230  144.6330 C   0  0  0  0  0  1  0  0  0  0  0  0
  183.8930  179.2280  143.7680 C   0  0  0  0  0  2  0  0  0  0  0  0
  2 11  2  0  0  0  0
  2 15  1  0  0  0  0
  4  3  1  0  0  0  0
  5  4  1  0  0  0  0
  5  9  1  0  0  0  0
  6 12  2  0  0  0  0
  6  8  1  0  0  0  0
  7 14  2  0  0  0  0
  8 17  1  1  0  0  0
  8 13  1  0  0  0  0
 10 13  2  0  0  0  0
 10  7  1  0  0  0  0
 11 16  1  0  0  0  0
 12 10  1  0  0  0  0
 13  2  1  0  0  0  0
 14 15  1  0  0  0  0
 15  5  2  0  0  0  0
 16  1  1  0  0  0  0
 16  4  2  0  0  0  0
 19 25  1  0  0  0  0
 20 26  1  0  0  0  0
 21 20  2  0  0  0  0
 21 17  1  0  0  0  0
 22 19  1  0  0  0  0
 22 24  2  0  0  0  0
 23 24  1  0  0  0  0
 24 21  1  0  0  0  0
 25 18  1  0  0  0  0
 25 20  1  0  0  0  0
 26 28  1  0  0  0  0
 28 27  1  0  0  0  0
M  END
>  <MODEL>
2

>  <REMARK>
 VINA RESULT:      -8.4      2.353      4.771
  Name = 
  4 active torsions:
  status: ('A' for Active; 'I' for Inactive)
    1  A    between atoms: C_9  and  N_23
    2  A    between atoms: O_14  and  C_17
    3  A    between atoms: O_14  and  C_27
    4  A    between atoms: C_19  and  N_23
                            x       y       z     vdW  Elec       q    Type
                         _______ _______ _______ _____ _____    ______ ____

>  <TORSDO>
F 4

$$$$
=
 OpenBabel11062416483D

 28 31  0  0  0  0  0  0  0  0999 V2000
  189.2250  176.3490  142.0600 C   0  0  0  0  0  1  0  0  0  0  0  0
  186.7660  177.8200  144.5080 C   0  0  0  0  0  0  0  0  0  0  0  0
  191.1080  176.3840  144.4960 Cl  0  0  0  0  0  0  0  0  0  0  0  0
  189.4320  176.9410  144.5110 C   0  0  0  0  0  0  0  0  0  0  0  0
  188.8630  177.4470  145.6980 C   0  0  0  0  0  0  0  0  0  0  0  0
  183.3200  178.8490  144.2770 C   0  0  0  0  0  3  0  0  0  0  0  0
  185.6600  178.8130  146.8910 C   0  0  0  0  0  3  0  0  0  0  0  0
  184.4440  178.3450  143.6300 C   0  0  0  0  0  0  0  0  0  0  0  0
  189.6750  177.5170  146.9530 C   0  0  0  0  0  1  0  0  0  0  0  0
  184.9060  178.7500  145.7250 C   0  0  0  0  0  0  0  0  0  0  0  0
  187.3360  177.3190  143.3370 C   0  0  0  0  0  3  0  0  0  0  0  0
  183.6160  179.1080  145.5760 N   0  0  0  0  0  2  0  0  0  0  0  0
  185.4460  178.2700  144.5660 C   0  0  0  0  0  0  0  0  0  0  0  0
  186.9560  178.3800  146.8490 N   0  0  0  0  0  0  0  0  0  0  0  0
  187.5280  177.8890  145.7020 C   0  0  0  0  0  0  0  0  0  0  0  0
  188.6600  176.8790  143.3330 C   0  0  0  0  0  0  0  0  0  0  0  0
  184.5230  177.8750  142.2800 N   0  0  0  0  0  2  0  0  0  0  0  0
  180.6850  179.3470  139.5510 C   0  0  0  0  0  1  0  0  0  0  0  0
  182.9570  180.2750  139.0930 C   0  0  0  0  0  2  0  0  0  0  0  0
  182.6200  178.6290  140.9750 C   0  0  0  0  0  0  0  0  0  0  0  0
  183.9630  178.5270  141.1310 C   0  0  0  0  0  0  0  0  0  0  0  0
  184.3780  179.8040  139.0770 C   0  0  0  0  0  3  0  0  0  0  0  0
  186.1820  178.6200  139.9880 O   0  0  0  0  0  1  0  0  0  0  0  0
  184.8530  179.0210  140.0460 C   0  0  0  0  0  0  0  0  0  0  0  0
  182.1100  179.3410  139.8320 N   0  0  0  0  0  0  0  0  0  0  0  0
  181.6850  178.0850  141.8770 O   0  0  0  0  0  0  0  0  0  0  0  0
  179.9450  177.8850  143.5150 C   0  0  0  0  0  1  0  0  0  0  0  0
  180.6600  178.8050  142.5490 C   0  0  0  0  0  2  0  0  0  0  0  0
  1 16  1  0  0  0  0
  2 13  1  0  0  0  0
  2 15  1  0  0  0  0
  3  4  1  0  0  0  0
  4  5  1  0  0  0  0
  5 15  2  0  0  0  0
  5  9  1  0  0  0  0
  6 12  1  0  0  0  0
  8  6  2  0  0  0  0
  8 13  1  0  0  0  0
 10  7  1  0  0  0  0
 11  2  2  0  0  0  0
 12 10  1  0  0  0  0
 13 10  2  0  0  0  0
 14  7  2  0  0  0  0
 15 14  1  0  0  0  0
 16 11  1  0  0  0  0
 16  4  2  0  0  0  0
 17  8  1  0  0  0  0
 18 25  1  0  0  0  0
 19 25  1  0  0  0  0
 20 21  2  0  0  0  0
 20 26  1  0  0  0  0
 21 17  1  0  0  0  0
 22 19  1  0  0  0  0
 22 24  2  0  0  0  0
 23 24  1  0  0  0  0
 24 21  1  0  0  0  0
 25 20  1  0  0  0  0
 26 28  1  0  0  0  0
 28 27  1  0  0  0  0
M  END
>  <MODEL>
3

>  <REMARK>
 VINA RESULT:      -8.3      2.707      4.890
  Name = 
  4 active torsions:
  status: ('A' for Active; 'I' for Inactive)
    1  A    between atoms: C_9  and  N_23
    2  A    between atoms: O_14  and  C_17
    3  A    between atoms: O_14  and  C_27
    4  A    between atoms: C_19  and  N_23
                            x       y       z     vdW  Elec       q    Type
                         _______ _______ _______ _____ _____    ______ ____

>  <TORSDO>
F 4

$$$$
=
 OpenBabel11062416483D

 28 31  0  0  0  0  0  0  0  0999 V2000
  184.2150  179.3730  142.8650 C   0  0  0  0  0  1  0  0  0  0  0  0
  187.6250  177.8180  142.4690 C   0  0  0  0  0  0  0  0  0  0  0  0
  184.5710  178.5180  145.8010 Cl  0  0  0  0  0  0  0  0  0  0  0  0
  185.7570  178.2430  144.5210 C   0  0  0  0  0  0  0  0  0  0  0  0
  186.9730  177.5900  144.8100 C   0  0  0  0  0  0  0  0  0  0  0  0
  189.8840  177.4210  139.6900 C   0  0  0  0  0  3  0  0  0  0  0  0
  190.0420  176.5240  143.0790 C   0  0  0  0  0  3  0  0  0  0  0  0
  188.6490  177.8680  140.1480 C   0  0  0  0  0  0  0  0  0  0  0  0
  187.2690  177.1250  146.2010 C   0  0  0  0  0  1  0  0  0  0  0  0
  189.7680  176.9540  141.7860 C   0  0  0  0  0  0  0  0  0  0  0  0
  186.4190  178.4630  142.1920 C   0  0  0  0  0  3  0  0  0  0  0  0
  190.5710  176.8450  140.7100 N   0  0  0  0  0  2  0  0  0  0  0  0
  188.5910  177.5800  141.4900 C   0  0  0  0  0  0  0  0  0  0  0  0
  189.1040  176.7450  144.0480 N   0  0  0  0  0  0  0  0  0  0  0  0
  187.9130  177.3740  143.7860 C   0  0  0  0  0  0  0  0  0  0  0  0
  185.4870  178.6770  143.2080 C   0  0  0  0  0  0  0  0  0  0  0  0
  187.6670  178.5990  139.4060 N   0  0  0  0  0  2  0  0  0  0  0  0
  186.1160  175.7580  135.6820 C   0  0  0  0  0  1  0  0  0  0  0  0
  184.4830  176.5530  137.3950 C   0  0  0  0  0  2  0  0  0  0  0  0
  186.9230  177.1600  137.5970 C   0  0  0  0  0  0  0  0  0  0  0  0
  186.6280  178.0260  138.5990 C   0  0  0  0  0  0  0  0  0  0  0  0
  184.2190  177.7830  138.2050 C   0  0  0  0  0  3  0  0  0  0  0  0
  184.9140  179.5770  139.5430 O   0  0  0  0  0  1  0  0  0  0  0  0
  185.2150  178.4460  138.7940 C   0  0  0  0  0  0  0  0  0  0  0  0
  185.8390  176.5720  136.8530 N   0  0  0  0  0  0  0  0  0  0  0  0
  188.2360  176.7920  137.2430 O   0  0  0  0  0  0  0  0  0  0  0  0
  190.1540  176.4980  135.8340 C   0  0  0  0  0  1  0  0  0  0  0  0
  189.0460  177.4330  136.2660 C   0  0  0  0  0  2  0  0  0  0  0  0
  1 16  1  0  0  0  0
  2 15  1  0  0  0  0
  4  5  1  0  0  0  0
  4  3  1  0  0  0  0
  5  9  1  0  0  0  0
  6  8  2  0  0  0  0
  6 12  1  0  0  0  0
  7 14  2  0  0  0  0
  8 13  1  0  0  0  0
 10  7  1  0  0  0  0
 11  2  2  0  0  0  0
 11 16  1  0  0  0  0
 12 10  1  0  0  0  0
 13 10  2  0  0  0  0
 13  2  1  0  0  0  0
 15 14  1  0  0  0  0
 15  5  2  0  0  0  0
 16  4  2  0  0  0  0
 17  8  1  0  0  0  0
 18 25  1  0  0  0  0
 19 22  1  0  0  0  0
 20 21  2  0  0  0  0
 21 24  1  0  0  0  0
 21 17  1  0  0  0  0
 22 24  2  0  0  0  0
 24 23  1  0  0  0  0
 25 19  1  0  0  0  0
 25 20  1  0  0  0  0
 26 20  1  0  0  0  0
 27 28  1  0  0  0  0
 28 26  1  0  0  0  0
M  END
>  <MODEL>
4

>  <REMARK>
 VINA RESULT:      -8.3      2.194      3.700
  Name = 
  4 active torsions:
  status: ('A' for Active; 'I' for Inactive)
    1  A    between atoms: C_9  and  N_23
    2  A    between atoms: O_14  and  C_17
    3  A    between atoms: O_14  and  C_27
    4  A    between atoms: C_19  and  N_23
                            x       y       z     vdW  Elec       q    Type
                         _______ _______ _______ _____ _____    ______ ____

>  <TORSDO>
F 4

$$$$
=
 OpenBabel11062416483D

 28 31  0  0  1  0  0  0  0  0999 V2000
  185.6850  178.9550  146.4190 C   0  0  0  0  0  1  0  0  0  0  0  0
  188.2530  177.7380  143.9420 C   0  0  0  0  0  0  0  0  0  0  0  0
  187.6220  177.7260  148.4720 Cl  0  0  0  0  0  0  0  0  0  0  0  0
  187.8750  177.7260  146.7230 C   0  0  0  0  0  0  0  0  0  0  0  0
  189.0320  177.1340  146.1740 C   0  0  0  0  0  0  0  0  0  0  0  0
  188.5440  177.9110  140.3540 C   0  0  0  0  0  3  0  0  0  0  0  0
  190.5720  176.5620  142.8800 C   0  0  0  0  0  3  0  0  0  0  0  0
  187.7890  178.1930  141.4890 C   0  0  1  0  0  3  0  0  0  0  0  0
  190.0530  176.5020  147.0670 C   0  0  0  0  0  1  0  0  0  0  0  0
  189.6230  177.1470  142.0500 C   0  0  0  0  0  0  0  0  0  0  0  0
  187.1100  178.3210  144.4930 C   0  0  0  0  0  3  0  0  0  0  0  0
  189.6770  177.2530  140.7090 N   0  0  0  0  0  0  0  0  0  0  0  0
  188.4940  177.7160  142.5670 C   0  0  0  0  0  0  0  0  0  0  0  0
  190.3480  176.5710  144.2280 N   0  0  0  0  0  0  0  0  0  0  0  0
  189.2260  177.1380  144.7820 C   0  0  0  0  0  0  0  0  0  0  0  0
  186.9180  178.3180  145.8750 C   0  0  0  0  0  0  0  0  0  0  0  0
  186.5710  178.9430  141.5500 N   0  0  0  0  0  2  0  0  0  0  0  0
  183.5570  178.0930  137.7380 C   0  0  0  0  0  1  0  0  0  0  0  0
  182.9540  177.2400  140.0060 C   0  0  0  0  0  2  0  0  0  0  0  0
  185.1190  178.4880  139.6580 C   0  0  0  0  0  0  0  0  0  0  0  0
  185.3090  178.5380  141.0010 C   0  0  0  0  0  0  0  0  0  0  0  0
  183.0500  177.6840  141.4320 C   0  0  0  0  0  3  0  0  0  0  0  0
  184.2000  178.6400  143.2360 O   0  0  0  0  0  1  0  0  0  0  0  0
  184.1600  178.2550  141.9010 C   0  0  0  0  0  0  0  0  0  0  0  0
  183.8510  178.0230  139.1590 N   0  0  0  0  0  0  0  0  0  0  0  0
  186.0980  178.8580  138.7160 O   0  0  0  0  0  0  0  0  0  0  0  0
  187.3560  178.7990  136.6750 C   0  0  0  0  0  1  0  0  0  0  0  0
  186.7330  177.9860  137.7890 C   0  0  0  0  0  2  0  0  0  0  0  0
  2 11  2  0  0  0  0
  2 15  1  0  0  0  0
  4  3  1  0  0  0  0
  5  4  1  0  0  0  0
  5  9  1  0  0  0  0
  6 12  2  0  0  0  0
  6  8  1  0  0  0  0
  7 14  2  0  0  0  0
  8 17  1  1  0  0  0
  8 13  1  0  0  0  0
 10 13  2  0  0  0  0
 10  7  1  0  0  0  0
 11 16  1  0  0  0  0
 12 10  1  0  0  0  0
 13  2  1  0  0  0  0
 14 15  1  0  0  0  0
 15  5  2  0  0  0  0
 16  1  1  0  0  0  0
 16  4  2  0  0  0  0
 18 25  1  0  0  0  0
 19 22  1  0  0  0  0
 20 21  2  0  0  0  0
 21 17  1  0  0  0  0
 21 24  1  0  0  0  0
 22 24  2  0  0  0  0
 24 23  1  0  0  0  0
 25 20  1  0  0  0  0
 25 19  1  0  0  0  0
 26 20  1  0  0  0  0
 27 28  1  0  0  0  0
 28 26  1  0  0  0  0
M  END
>  <MODEL>
5

>  <REMARK>
 VINA RESULT:      -8.3      2.238      4.095
  Name = 
  4 active torsions:
  status: ('A' for Active; 'I' for Inactive)
    1  A    between atoms: C_9  and  N_23
    2  A    between atoms: O_14  and  C_17
    3  A    between atoms: O_14  and  C_27
    4  A    between atoms: C_19  and  N_23
                            x       y       z     vdW  Elec       q    Type
                         _______ _______ _______ _____ _____    ______ ____

>  <TORSDO>
F 4

$$$$
=
 OpenBabel11062416483D

 28 31  0  0  0  0  0  0  0  0999 V2000
  184.8250  178.0910  143.9000 C   0  0  0  0  0  1  0  0  0  0  0  0
  188.5650  177.6480  144.0550 C   0  0  0  0  0  0  0  0  0  0  0  0
  185.0940  178.3120  146.9590 Cl  0  0  0  0  0  0  0  0  0  0  0  0
  186.4420  178.0560  145.8450 C   0  0  0  0  0  0  0  0  0  0  0  0
  187.7570  177.9380  146.3400 C   0  0  0  0  0  0  0  0  0  0  0  0
  191.1310  177.1720  141.5710 C   0  0  0  0  0  3  0  0  0  0  0  0
  191.1740  177.4280  145.0710 C   0  0  0  0  0  3  0  0  0  0  0  0
  189.7770  177.3220  141.8500 C   0  0  0  0  0  0  0  0  0  0  0  0
  188.0230  178.0280  147.8100 C   0  0  0  0  0  1  0  0  0  0  0  0
  190.9290  177.3430  143.7050 C   0  0  0  0  0  0  0  0  0  0  0  0
  187.2600  177.7650  143.5740 C   0  0  0  0  0  3  0  0  0  0  0  0
  191.8410  177.1760  142.7280 N   0  0  0  0  0  2  0  0  0  0  0  0
  189.6600  177.4460  143.2130 C   0  0  0  0  0  0  0  0  0  0  0  0
  190.1130  177.6210  145.9090 N   0  0  0  0  0  0  0  0  0  0  0  0
  188.8250  177.7340  145.4480 C   0  0  0  0  0  0  0  0  0  0  0  0
  186.2010  177.9690  144.4600 C   0  0  0  0  0  0  0  0  0  0  0  0
  188.7100  177.4480  140.9030 N   0  0  0  0  0  2  0  0  0  0  0  0
  187.2010  178.7610  136.3930 C   0  0  0  0  0  1  0  0  0  0  0  0
  189.5100  177.8660  136.7140 C   0  0  0  0  0  2  0  0  0  0  0  0
  187.9740  178.1420  138.6960 C   0  0  0  0  0  0  0  0  0  0  0  0
  188.8540  177.4650  139.4760 C   0  0  0  0  0  0  0  0  0  0  0  0
  190.2030  176.8210  137.5310 C   0  0  0  0  0  3  0  0  0  0  0  0
  190.6020  175.6830  139.5390 O   0  0  0  0  0  1  0  0  0  0  0  0
  189.9230  176.6610  138.8240 C   0  0  0  0  0  0  0  0  0  0  0  0
  188.1960  178.1730  137.2740 N   0  0  0  0  0  0  0  0  0  0  0  0
  186.8540  178.8320  139.1990 O   0  0  0  0  0  0  0  0  0  0  0  0
  184.8380  178.9440  140.4930 C   0  0  0  0  0  1  0  0  0  0  0  0
  185.5360  178.3100  139.3100 C   0  0  0  0  0  2  0  0  0  0  0  0
  1 16  1  0  0  0  0
  2 15  1  0  0  0  0
  4  5  1  0  0  0  0
  4  3  1  0  0  0  0
  5  9  1  0  0  0  0
  6  8  2  0  0  0  0
  6 12  1  0  0  0  0
  7 14  2  0  0  0  0
  8 13  1  0  0  0  0
 10  7  1  0  0  0  0
 11  2  2  0  0  0  0
 11 16  1  0  0  0  0
 12 10  1  0  0  0  0
 13 10  2  0  0  0  0
 13  2  1  0  0  0  0
 15 14  1  0  0  0  0
 15  5  2  0  0  0  0
 16  4  2  0  0  0  0
 17  8  1  0  0  0  0
 18 25  1  0  0  0  0
 19 25  1  0  0  0  0
 19 22  1  0  0  0  0
 20 26  1  0  0  0  0
 20 21  2  0  0  0  0
 21 17  1  0  0  0  0
 22 24  2  0  0  0  0
 24 21  1  0  0  0  0
 24 23  1  0  0  0  0
 25 20  1  0  0  0  0
 26 28  1  0  0  0  0
 28 27  1  0  0  0  0
M  END
>  <MODEL>
6

>  <REMARK>
 VINA RESULT:      -8.1      2.179      4.384
  Name = 
  4 active torsions:
  status: ('A' for Active; 'I' for Inactive)
    1  A    between atoms: C_9  and  N_23
    2  A    between atoms: O_14  and  C_17
    3  A    between atoms: O_14  and  C_27
    4  A    between atoms: C_19  and  N_23
                            x       y       z     vdW  Elec       q    Type
                         _______ _______ _______ _____ _____    ______ ____

>  <TORSDO>
F 4

$$$$
=
 OpenBabel11062416483D

 28 31  0  0  0  0  0  0  0  0999 V2000
  188.1230  178.2440  140.0460 C   0  0  0  0  0  1  0  0  0  0  0  0
  186.6650  178.1980  143.5210 C   0  0  0  0  0  0  0  0  0  0  0  0
  190.6360  177.1980  141.4840 Cl  0  0  0  0  0  0  0  0  0  0  0  0
  189.1060  177.5810  142.2800 C   0  0  0  0  0  0  0  0  0  0  0  0
  188.9700  177.4140  143.6740 C   0  0  0  0  0  0  0  0  0  0  0  0
  183.4310  179.0120  144.8860 C   0  0  0  0  0  3  0  0  0  0  0  0
  186.4240  177.8430  146.2970 C   0  0  0  0  0  3  0  0  0  0  0  0
  184.2540  178.9510  143.7660 C   0  0  0  0  0  0  0  0  0  0  0  0
  190.1200  176.9100  144.4900 C   0  0  0  0  0  1  0  0  0  0  0  0
  185.3560  178.3120  145.5410 C   0  0  0  0  0  0  0  0  0  0  0  0
  186.8070  178.3620  142.1420 C   0  0  0  0  0  3  0  0  0  0  0  0
  184.1240  178.6240  145.9870 N   0  0  0  0  0  2  0  0  0  0  0  0
  185.4750  178.4880  144.1920 C   0  0  0  0  0  0  0  0  0  0  0  0
  187.5970  177.5600  145.6560 N   0  0  0  0  0  0  0  0  0  0  0  0
  187.7500  177.7210  144.3010 C   0  0  0  0  0  0  0  0  0  0  0  0
  188.0190  178.0560  141.5210 C   0  0  0  0  0  0  0  0  0  0  0  0
  183.8810  179.2020  142.4070 N   0  0  0  0  0  2  0  0  0  0  0  0
  181.7300  176.7480  138.7060 C   0  0  0  0  0  1  0  0  0  0  0  0
  180.4360  177.2330  140.7860 C   0  0  0  0  0  2  0  0  0  0  0  0
  182.8470  177.9530  140.5990 C   0  0  0  0  0  0  0  0  0  0  0  0
  182.7240  178.6710  141.7440 C   0  0  0  0  0  0  0  0  0  0  0  0
  180.2940  178.3390  141.7850 C   0  0  0  0  0  3  0  0  0  0  0  0
  181.1760  179.9940  143.1890 O   0  0  0  0  0  1  0  0  0  0  0  0
  181.3630  178.9820  142.2560 C   0  0  0  0  0  0  0  0  0  0  0  0
  181.6600  177.3970  140.0040 N   0  0  0  0  0  0  0  0  0  0  0  0
  184.0770  177.7070  139.9590 O   0  0  0  0  0  0  0  0  0  0  0  0
  185.1720  177.8180  137.8280 C   0  0  0  0  0  1  0  0  0  0  0  0
  184.7370  178.5870  139.0570 C   0  0  0  0  0  2  0  0  0  0  0  0
  1 16  1  0  0  0  0
  2 13  1  0  0  0  0
  2 15  1  0  0  0  0
  3  4  1  0  0  0  0
  4  5  1  0  0  0  0
  5 15  2  0  0  0  0
  5  9  1  0  0  0  0
  6 12  1  0  0  0  0
  8 13  1  0  0  0  0
  8  6  2  0  0  0  0
 10 12  1  0  0  0  0
 10  7  1  0  0  0  0
 11  2  2  0  0  0  0
 13 10  2  0  0  0  0
 14  7  2  0  0  0  0
 15 14  1  0  0  0  0
 16 11  1  0  0  0  0
 16  4  2  0  0  0  0
 17  8  1  0  0  0  0
 18 25  1  0  0  0  0
 19 22  1  0  0  0  0
 20 21  2  0  0  0  0
 21 24  1  0  0  0  0
 21 17  1  0  0  0  0
 22 24  2  0  0  0  0
 24 23  1  0  0  0  0
 25 20  1  0  0  0  0
 25 19  1  0  0  0  0
 26 20  1  0  0  0  0
 27 28  1  0  0  0  0
 28 26  1  0  0  0  0
M  END
>  <MODEL>
7

>  <REMARK>
 VINA RESULT:      -8.0      2.739      4.662
  Name = 
  4 active torsions:
  status: ('A' for Active; 'I' for Inactive)
    1  A    between atoms: C_9  and  N_23
    2  A    between atoms: O_14  and  C_17
    3  A    between atoms: O_14  and  C_27
    4  A    between atoms: C_19  and  N_23
                            x       y       z     vdW  Elec       q    Type
                         _______ _______ _______ _____ _____    ______ ____

>  <TORSDO>
F 4

$$$$
=
 OpenBabel11062416483D

 28 31  0  0  0  0  0  0  0  0999 V2000
  191.7700  175.4470  144.2180 C   0  0  0  0  0  1  0  0  0  0  0  0
  189.3350  177.1360  141.8900 C   0  0  0  0  0  0  0  0  0  0  0  0
  189.9640  176.6600  146.3950 Cl  0  0  0  0  0  0  0  0  0  0  0  0
  189.7120  176.8500  144.6570 C   0  0  0  0  0  0  0  0  0  0  0  0
  188.6190  177.6000  144.1760 C   0  0  0  0  0  0  0  0  0  0  0  0
  189.0280  177.3300  138.3050 C   0  0  0  0  0  3  0  0  0  0  0  0
  187.1430  178.6280  140.9650 C   0  0  0  0  0  3  0  0  0  0  0  0
  189.7510  176.8710  139.4010 C   0  0  0  0  0  0  0  0  0  0  0  0
  187.6650  178.2420  145.1330 C   0  0  0  0  0  1  0  0  0  0  0  0
  188.0290  178.0330  140.0750 C   0  0  0  0  0  0  0  0  0  0  0  0
  190.4150  176.3950  142.3740 C   0  0  0  0  0  3  0  0  0  0  0  0
  187.9650  178.0600  138.7300 N   0  0  0  0  0  0  0  0  0  0  0  0
  189.0970  177.3110  140.5260 C   0  0  0  0  0  0  0  0  0  0  0  0
  187.3650  178.4700  142.3040 N   0  0  0  0  0  0  0  0  0  0  0  0
  188.4250  177.7470  142.7910 C   0  0  0  0  0  0  0  0  0  0  0  0
  190.6060  176.2490  143.7480 C   0  0  0  0  0  0  0  0  0  0  0  0
  190.8900  176.0030  139.3810 N   0  0  0  0  0  0  0  0  0  0  0  0
  191.8400  173.2890  135.3720 C   0  0  0  0  0  1  0  0  0  0  0  0
  193.0210  175.4640  135.7010 C   0  0  0  0  0  2  0  0  0  0  0  0
  191.3140  174.6830  137.3870 C   0  0  0  0  0  0  0  0  0  0  0  0
  191.6800  175.6850  138.2260 C   0  0  0  0  0  0  0  0  0  0  0  0
  193.6090  176.2610  136.8240 C   0  0  0  0  0  3  0  0  0  0  0  0
  193.5520  177.1510  138.9900 O   0  0  0  0  0  1  0  0  0  0  0  0
  192.9660  176.3920  137.9840 C   0  0  0  0  0  0  0  0  0  0  0  0
  192.1130  174.4410  136.2140 N   0  0  0  0  0  0  0  0  0  0  0  0
  190.1850  173.8660  137.5910 O   0  0  0  0  0  0  0  0  0  0  0  0
  188.2650  172.6410  136.8410 C   0  0  0  0  0  1  0  0  0  0  0  0
  188.9330  173.9960  136.9310 C   0  0  0  0  0  2  0  0  0  0  0  0
  2 11  2  0  0  0  0
  2 15  1  0  0  0  0
  4  3  1  0  0  0  0
  5  4  1  0  0  0  0
  5  9  1  0  0  0  0
  6 12  2  0  0  0  0
  6  8  1  0  0  0  0
  7 14  2  0  0  0  0
  8 13  1  0  0  0  0
 10 13  2  0  0  0  0
 10  7  1  0  0  0  0
 11 16  1  0  0  0  0
 12 10  1  0  0  0  0
 13  2  1  0  0  0  0
 14 15  1  0  0  0  0
 15  5  2  0  0  0  0
 16  1  1  0  0  0  0
 16  4  2  0  0  0  0
 17  8  2  0  0  0  0
 18 25  1  0  0  0  0
 19 25  1  0  0  0  0
 19 22  1  0  0  0  0
 20 26  1  0  0  0  0
 20 21  2  0  0  0  0
 21 17  1  0  0  0  0
 22 24  2  0  0  0  0
 24 21  1  0  0  0  0
 24 23  1  0  0  0  0
 25 20  1  0  0  0  0
 27 28  1  0  0  0  0
 28 26  1  0  0  0  0
M  END
>  <MODEL>
8

>  <REMARK>
 VINA RESULT:      -8.0      2.438      4.473
  Name = 
  4 active torsions:
  status: ('A' for Active; 'I' for Inactive)
    1  A    between atoms: C_9  and  N_23
    2  A    between atoms: O_14  and  C_17
    3  A    between atoms: O_14  and  C_27
    4  A    between atoms: C_19  and  N_23
                            x       y       z     vdW  Elec       q    Type
                         _______ _______ _______ _____ _____    ______ ____

>  <TORSDO>
F 4

$$$$
=
 OpenBabel11062416483D

 28 31  0  0  1  0  0  0  0  0999 V2000
  190.4870  177.9270  144.3900 C   0  0  0  0  0  1  0  0  0  0  0  0
  187.1370  178.2770  142.6970 C   0  0  0  0  0  0  0  0  0  0  0  0
  188.7640  177.6460  146.9250 Cl  0  0  0  0  0  0  0  0  0  0  0  0
  188.1260  177.8890  145.2960 C   0  0  0  0  0  0  0  0  0  0  0  0
  186.7340  177.9670  145.0840 C   0  0  0  0  0  0  0  0  0  0  0  0
  186.1000  178.7340  139.2770 C   0  0  0  0  0  3  0  0  0  0  0  0
  184.3590  178.4160  142.3070 C   0  0  0  0  0  3  0  0  0  0  0  0
  187.1490  178.6130  140.1830 C   0  0  1  0  0  3  0  0  0  0  0  0
  185.7860  177.8440  146.2360 C   0  0  0  0  0  1  0  0  0  0  0  0
  185.2380  178.5310  141.2360 C   0  0  0  0  0  0  0  0  0  0  0  0
  188.5140  178.2000  142.9160 C   0  0  0  0  0  3  0  0  0  0  0  0
  184.9160  178.6930  139.9390 N   0  0  0  0  0  0  0  0  0  0  0  0
  186.5890  178.4670  141.4280 C   0  0  0  0  0  0  0  0  0  0  0  0
  184.8810  178.2340  143.5570 N   0  0  0  0  0  0  0  0  0  0  0  0
  186.2330  178.1600  143.7840 C   0  0  0  0  0  0  0  0  0  0  0  0
  189.0100  178.0060  144.2050 C   0  0  0  0  0  0  0  0  0  0  0  0
  188.5460  178.5290  139.8780 N   0  0  0  0  0  2  0  0  0  0  0  0
  191.2920  174.9580  137.8660 C   0  0  0  0  0  1  0  0  0  0  0  0
  189.7790  176.3190  136.4190 C   0  0  0  0  0  2  0  0  0  0  0  0
  189.8650  176.7380  138.9050 C   0  0  0  0  0  0  0  0  0  0  0  0
  189.1180  177.8590  138.7460 C   0  0  0  0  0  0  0  0  0  0  0  0
  189.3160  177.7380  136.3030 C   0  0  0  0  0  3  0  0  0  0  0  0
  188.5430  179.7510  137.2200 O   0  0  0  0  0  1  0  0  0  0  0  0
  188.9750  178.4400  137.3840 C   0  0  0  0  0  0  0  0  0  0  0  0
  190.3700  176.0730  137.7320 N   0  0  0  0  0  0  0  0  0  0  0  0
  190.1700  176.1740  140.1600 O   0  0  0  0  0  0  0  0  0  0  0  0
  192.1550  177.5030  140.3690 C   0  0  0  0  0  1  0  0  0  0  0  0
  191.1110  176.6840  141.0960 C   0  0  0  0  0  2  0  0  0  0  0  0
  2 11  2  0  0  0  0
  2 15  1  0  0  0  0
  4  3  1  0  0  0  0
  5  4  1  0  0  0  0
  5  9  1  0  0  0  0
  6 12  2  0  0  0  0
  6  8  1  0  0  0  0
  7 14  2  0  0  0  0
  8 17  1  6  0  0  0
  8 13  1  0  0  0  0
 10 13  2  0  0  0  0
 10  7  1  0  0  0  0
 11 16  1  0  0  0  0
 12 10  1  0  0  0  0
 13  2  1  0  0  0  0
 14 15  1  0  0  0  0
 15  5  2  0  0  0  0
 16  1  1  0  0  0  0
 16  4  2  0  0  0  0
 19 25  1  0  0  0  0
 20 26  1  0  0  0  0
 21 20  2  0  0  0  0
 21 17  1  0  0  0  0
 22 19  1  0  0  0  0
 22 24  2  0  0  0  0
 23 24  1  0  0  0  0
 24 21  1  0  0  0  0
 25 18  1  0  0  0  0
 25 20  1  0  0  0  0
 26 28  1  0  0  0  0
 27 28  1  0  0  0  0
M  END
>  <MODEL>
9

>  <REMARK>
 VINA RESULT:      -8.0      1.691      2.334
  Name = 
  4 active torsions:
  status: ('A' for Active; 'I' for Inactive)
    1  A    between atoms: C_9  and  N_23
    2  A    between atoms: O_14  and  C_17
    3  A    between atoms: O_14  and  C_27
    4  A    between atoms: C_19  and  N_23
                            x       y       z     vdW  Elec       q    Type
                         _______ _______ _______ _____ _____    ______ ____

>  <TORSDO>
F 4

$$$$
