=
 OpenBabel11062412083D

 54 60  0  0  1  0  0  0  0  0999 V2000
  185.1310  180.1700  143.1710 O   0  0  0  0  0  0  0  0  0  0  0  0
  185.0160  179.4640  142.1800 C   0  0  0  0  0  0  0  0  0  0  0  0
  180.1460  177.4470  138.1990 N   0  0  0  0  0  2  0  0  0  0  0  0
  184.3850  175.8790  137.4980 C   0  0  1  0  0  3  0  0  0  0  0  0
  179.7820  176.1410  137.6780 C   0  0  0  0  0  2  0  0  0  0  0  0
  187.1080  177.0230  136.8030 C   0  0  0  0  0  2  0  0  0  0  0  0
  187.9770  178.7670  138.9430 O   0  0  0  0  0  0  0  0  0  0  0  0
  185.3150  175.1850  136.4670 C   0  0  2  0  0  3  0  0  0  0  0  0
  184.8480  177.2940  137.8270 C   0  0  0  0  0  2  0  0  0  0  0  0
  182.1440  178.2150  139.3530 C   0  0  0  0  0  2  0  0  0  0  0  0
  186.7880  178.3530  138.9790 C   0  0  0  0  0  0  0  0  0  0  0  0
  183.7050  177.4900  141.1980 C   0  0  0  0  0  2  0  0  0  0  0  0
  182.1290  176.0750  138.1920 C   0  0  2  0  0  0  0  0  0  0  0  0
  181.6010  177.4980  138.1350 C   0  0  1  0  0  3  0  0  0  0  0  0
  186.3370  176.1340  135.7990 C   0  0  2  0  0  3  0  0  0  0  0  0
  180.9160  175.1950  138.0020 C   0  0  0  0  0  2  0  0  0  0  0  0
  182.4540  177.1460  140.3880 C   0  0  2  0  0  3  0  0  0  0  0  0
  186.3350  177.2240  138.1090 C   0  0  2  0  0  3  0  0  0  0  0  0
  186.2490  179.2520  141.3270 C   0  0  2  0  0  3  0  0  0  0  0  0
  182.6770  175.8550  139.6170 C   0  0  0  0  0  2  0  0  0  0  0  0
  185.8840  178.8220  139.9830 N   0  0  0  0  0  2  0  0  0  0  0  0
  183.6460  178.8950  141.8190 C   0  0  1  0  0  3  0  0  0  0  0  0
  183.0300  175.8560  137.1040 O   0  0  0  0  0  0  0  0  0  0  0  0
  187.6380  176.6180  143.7070 C   0  0  0  0  0  3  0  0  0  0  0  0
  189.3710  177.2610  142.1440 C   0  0  0  0  0  3  0  0  0  0  0  0
  189.8070  175.6450  143.8400 F   0  0  0  0  0  0  0  0  0  0  0  0
  186.7520  177.5040  143.0880 C   0  0  0  0  0  3  0  0  0  0  0  0
  187.1720  178.2700  141.9900 C   0  0  0  0  0  0  0  0  0  0  0  0
  188.9460  176.4970  143.2350 C   0  0  0  0  0  0  0  0  0  0  0  0
  188.4840  178.1470  141.5240 C   0  0  0  0  0  3  0  0  0  0  0  0
  182.6850  178.9120  142.9720 C   0  0  0  0  0  0  0  0  0  0  0  0
  180.3390  179.2660  143.8080 C   0  0  0  0  0  1  0  0  0  0  0  0
  181.3240  179.2750  142.7420 N   0  0  0  0  0  2  0  0  0  0  0  0
  183.0750  178.5940  144.1260 O   0  0  0  0  0  0  0  0  0  0  0  0
  187.0100  174.1910  134.5940 O   0  0  0  0  0  0  0  0  0  0  0  0
  187.3000  175.3610  134.9610 C   0  0  0  0  0  0  0  0  0  0  0  0
  188.5120  175.9350  134.5940 O   0  0  0  0  0  0  0  0  0  0  0  0
  189.6470  175.2240  134.6100 O   0  0  0  0  0  0  0  0  0  0  0  0
  190.6630  176.1830  134.5960 C   0  0  0  0  0  2  0  0  0  0  0  0
  191.8860  175.6500  135.3240 C   0  0  0  0  0  2  0  0  0  0  0  0
  191.8330  176.0330  136.7610 C   0  0  0  0  0  0  0  0  0  0  0  0
  192.4750  176.6340  138.6830 C   0  0  0  0  0  3  0  0  0  0  0  0
  192.8880  176.3240  137.4780 O   0  0  0  0  0  0  0  0  0  0  0  0
  191.0950  176.5260  138.6840 C   0  0  0  0  0  3  0  0  0  0  0  0
  190.6870  176.1450  137.4570 N   0  0  0  0  0  0  0  0  0  0  0  0
  184.5760  174.4630  135.4860 O   0  0  0  0  0  0  0  0  0  0  0  0
  184.0440  173.1830  135.6880 C   0  0  0  0  0  0  0  0  0  0  0  0
  184.8110  172.2940  136.3070 C   0  0  0  0  0  2  0  0  0  0  0  0
  180.3370  173.4350  134.7060 C   0  0  0  0  0  3  0  0  0  0  0  0
  180.0050  172.1530  134.5940 C   0  0  0  0  0  3  0  0  0  0  0  0
  182.3470  171.5430  135.1660 N   0  0  0  0  0  0  0  0  0  0  0  0
  181.0160  171.0540  134.7830 C   0  0  0  0  0  2  0  0  0  0  0  0
  182.6710  172.8000  135.2660 C   0  0  0  0  0  0  0  0  0  0  0  0
  181.6760  173.8020  135.0310 N   0  0  0  0  0  2  0  0  0  0  0  0
  2  1  2  0  0  0  0
  4  9  1  6  0  0  0
  5 16  1  0  0  0  0
  5  3  1  0  0  0  0
  7 11  2  0  0  0  0
  8 46  1  6  0  0  0
  8  4  1  0  0  0  0
  9 18  1  0  0  0  0
 11 21  1  0  0  0  0
 12 22  1  0  0  0  0
 13 16  1  6  0  0  0
 13 20  1  0  0  0  0
 14 13  1  0  0  0  0
 14  3  1  0  0  0  0
 14 10  1  1  0  0  0
 15 36  1  1  0  0  0
 15  8  1  0  0  0  0
 15  6  1  0  0  0  0
 17 10  1  6  0  0  0
 17 12  1  0  0  0  0
 18  6  1  6  0  0  0
 18 11  1  0  0  0  0
 19 28  1  1  0  0  0
 19  2  1  0  0  0  0
 20 17  1  0  0  0  0
 21 19  1  0  0  0  0
 22  2  1  0  0  0  0
 22 31  1  1  0  0  0
 23  4  1  0  0  0  0
 23 13  1  0  0  0  0
 25 29  2  0  0  0  0
 27 24  2  0  0  0  0
 28 27  1  0  0  0  0
 29 24  1  0  0  0  0
 29 26  1  0  0  0  0
 30 28  2  0  0  0  0
 30 25  1  0  0  0  0
 31 34  2  0  0  0  0
 33 31  1  0  0  0  0
 33 32  1  0  0  0  0
 35 36  2  0  0  0  0
 37 38  1  0  0  0  0
 37 36  1  0  0  0  0
 39 38  1  0  0  0  0
 39 40  1  0  0  0  0
 40 41  1  0  0  0  0
 41 45  2  0  0  0  0
 41 43  1  0  0  0  0
 42 44  2  0  0  0  0
 43 42  1  0  0  0  0
 45 44  1  0  0  0  0
 46 47  1  0  0  0  0
 47 48  2  0  0  0  0
 49 54  1  0  0  0  0
 50 49  2  0  0  0  0
 50 52  1  0  0  0  0
 51 53  2  0  0  0  0
 52 51  1  0  0  0  0
 53 47  1  0  0  0  0
 54 53  1  0  0  0  0
M  END
>  <MODEL>
1

>  <REMARK>
 VINA RESULT:      -6.9      0.000      0.000
  Name = 
  11 active torsions:
  status: ('A' for Active; 'I' for Inactive)
    1  A    between atoms: C_2  and  C_40
    2  A    between atoms: O_5  and  C_12
    3  A    between atoms: O_5  and  O_25
    4  A    between atoms: C_6  and  C_51
    5  A    between atoms: C_12  and  C_34
    6  A    between atoms: C_18  and  O_25
    7  A    between atoms: C_18  and  C_40
    8  A    between atoms: C_19  and  O_35
    9  A    between atoms: C_19  and  C_43
   10  A    between atoms: C_21  and  O_35
   11  A    between atoms: C_36  and  C_48
                            x       y       z     vdW  Elec       q    Type
                         _______ _______ _______ _____ _____    ______ ____

>  <TORSDO>
F 11

$$$$
=
 OpenBabel11062412083D

 54 60  0  0  1  0  0  0  0  0999 V2000
  190.7580  177.7360  139.8700 O   0  0  0  0  0  0  0  0  0  0  0  0
  189.5420  177.8510  139.9230 C   0  0  0  0  0  0  0  0  0  0  0  0
  185.0720  180.1530  144.2060 N   0  0  0  0  0  2  0  0  0  0  0  0
  183.6370  178.2380  140.3080 C   0  0  1  0  0  3  0  0  0  0  0  0
  183.8230  179.6070  144.7100 C   0  0  0  0  0  2  0  0  0  0  0  0
  183.9110  178.7510  137.3300 C   0  0  0  0  0  2  0  0  0  0  0  0
  186.6930  178.4900  136.5760 O   0  0  0  0  0  0  0  0  0  0  0  0
  182.4260  178.0970  139.3480 C   0  0  2  0  0  3  0  0  0  0  0  0
  184.8110  178.9550  139.6490 C   0  0  0  0  0  2  0  0  0  0  0  0
  186.5010  179.4580  142.3650 C   0  0  0  0  0  2  0  0  0  0  0  0
  186.4240  178.4930  137.8070 C   0  0  0  0  0  0  0  0  0  0  0  0
  187.4880  177.3570  141.3760 C   0  0  0  0  0  2  0  0  0  0  0  0
  184.2360  178.5890  142.5730 C   0  0  2  0  0  0  0  0  0  0  0  0
  185.0930  179.8240  142.7870 C   0  0  1  0  0  3  0  0  0  0  0  0
  182.5510  178.9230  138.0460 C   0  0  2  0  0  3  0  0  0  0  0  0
  183.4930  178.3920  143.8730 C   0  0  0  0  0  2  0  0  0  0  0  0
  186.6140  177.9470  142.4850 C   0  0  2  0  0  3  0  0  0  0  0  0
  185.0200  178.3170  138.2920 C   0  0  2  0  0  3  0  0  0  0  0  0
  188.7860  177.8720  138.6120 C   0  0  2  0  0  3  0  0  0  0  0  0
  185.1990  177.4010  142.3720 C   0  0  0  0  0  2  0  0  0  0  0  0
  187.4710  178.4780  138.7800 N   0  0  0  0  0  2  0  0  0  0  0  0
  188.8650  178.0330  141.2800 C   0  0  1  0  0  3  0  0  0  0  0  0
  183.2860  178.8410  141.5350 O   0  0  0  0  0  0  0  0  0  0  0  0
  189.7160  174.4640  137.1820 C   0  0  0  0  0  3  0  0  0  0  0  0
  187.3040  174.6540  137.2610 C   0  0  0  0  0  3  0  0  0  0  0  0
  188.3370  172.6830  136.4080 F   0  0  0  0  0  0  0  0  0  0  0  0
  189.8340  175.7440  137.7310 C   0  0  0  0  0  3  0  0  0  0  0  0
  188.6850  176.4830  138.0510 C   0  0  0  0  0  0  0  0  0  0  0  0
  188.4520  173.9200  136.9480 C   0  0  0  0  0  0  0  0  0  0  0  0
  187.4220  175.9350  137.8110 C   0  0  0  0  0  3  0  0  0  0  0  0
  189.7330  177.6080  142.4270 C   0  0  0  0  0  0  0  0  0  0  0  0
  191.2170  178.2560  144.3530 C   0  0  0  0  0  1  0  0  0  0  0  0
  190.4000  178.6030  143.2040 N   0  0  0  0  0  2  0  0  0  0  0  0
  189.8580  176.3870  142.7090 O   0  0  0  0  0  0  0  0  0  0  0  0
  181.6280  177.7720  136.1740 O   0  0  0  0  0  0  0  0  0  0  0  0
  181.4370  178.5950  137.1080 C   0  0  0  0  0  0  0  0  0  0  0  0
  180.1970  179.2040  137.2690 O   0  0  0  0  0  0  0  0  0  0  0  0
  179.9540  180.4210  136.7650 O   0  0  0  0  0  0  0  0  0  0  0  0
  179.5680  181.1870  137.8670 C   0  0  0  0  0  2  0  0  0  0  0  0
  180.6970  182.1240  138.2650 C   0  0  0  0  0  2  0  0  0  0  0  0
  180.5270  183.4420  137.5960 C   0  0  0  0  0  0  0  0  0  0  0  0
  179.7270  185.3390  137.1170 C   0  0  0  0  0  3  0  0  0  0  0  0
  179.5600  184.2810  137.8720 O   0  0  0  0  0  0  0  0  0  0  0  0
  180.8600  185.1230  136.3510 C   0  0  0  0  0  3  0  0  0  0  0  0
  181.3690  183.9140  136.6600 N   0  0  0  0  0  0  0  0  0  0  0  0
  181.1920  178.3690  140.0050 O   0  0  0  0  0  0  0  0  0  0  0  0
  180.3830  177.3880  140.5940 C   0  0  0  0  0  0  0  0  0  0  0  0
  179.9880  177.5930  141.8450 C   0  0  0  0  0  2  0  0  0  0  0  0
  179.5430  173.7140  139.8410 C   0  0  0  0  0  3  0  0  0  0  0  0
  179.2400  173.7710  138.5480 C   0  0  0  0  0  3  0  0  0  0  0  0
  179.6530  176.2230  138.6070 N   0  0  0  0  0  0  0  0  0  0  0  0
  179.2300  175.0740  137.7940 C   0  0  0  0  0  2  0  0  0  0  0  0
  179.9400  176.1640  139.8750 C   0  0  0  0  0  0  0  0  0  0  0  0
  179.8890  174.9030  140.5490 N   0  0  0  0  0  2  0  0  0  0  0  0
  1  2  2  0  0  0  0
  2 22  1  0  0  0  0
  3  5  1  0  0  0  0
  4  9  1  6  0  0  0
  4 23  1  0  0  0  0
  6 15  1  0  0  0  0
  7 11  2  0  0  0  0
  8 46  1  1  0  0  0
  8  4  1  0  0  0  0
 10 17  1  0  0  0  0
 11 18  1  0  0  0  0
 11 21  1  0  0  0  0
 13 20  1  6  0  0  0
 13 14  1  0  0  0  0
 13 16  1  0  0  0  0
 14 10  1  1  0  0  0
 14  3  1  0  0  0  0
 15 36  1  6  0  0  0
 15  8  1  0  0  0  0
 16  5  1  0  0  0  0
 17 12  1  6  0  0  0
 18  6  1  6  0  0  0
 18  9  1  0  0  0  0
 19 28  1  1  0  0  0
 19 21  1  0  0  0  0
 19  2  1  0  0  0  0
 20 17  1  0  0  0  0
 22 12  1  0  0  0  0
 22 31  1  1  0  0  0
 23 13  1  0  0  0  0
 24 27  1  0  0  0  0
 25 30  2  0  0  0  0
 26 29  1  0  0  0  0
 27 28  2  0  0  0  0
 29 24  2  0  0  0  0
 29 25  1  0  0  0  0
 30 28  1  0  0  0  0
 31 34  2  0  0  0  0
 31 33  1  0  0  0  0
 33 32  1  0  0  0  0
 35 36  2  0  0  0  0
 36 37  1  0  0  0  0
 38 37  1  0  0  0  0
 38 39  1  0  0  0  0
 39 40  1  0  0  0  0
 41 43  1  0  0  0  0
 41 40  1  0  0  0  0
 42 43  1  0  0  0  0
 44 45  1  0  0  0  0
 44 42  2  0  0  0  0
 45 41  2  0  0  0  0
 46 47  1  0  0  0  0
 47 48  2  0  0  0  0
 49 54  1  0  0  0  0
 50 49  2  0  0  0  0
 51 53  2  0  0  0  0
 52 50  1  0  0  0  0
 52 51  1  0  0  0  0
 53 54  1  0  0  0  0
 53 47  1  0  0  0  0
M  END
>  <MODEL>
2

>  <REMARK>
 VINA RESULT:      -6.2      3.529      7.699
  Name = 
  11 active torsions:
  status: ('A' for Active; 'I' for Inactive)
    1  A    between atoms: C_2  and  C_40
    2  A    between atoms: O_5  and  C_12
    3  A    between atoms: O_5  and  O_25
    4  A    between atoms: C_6  and  C_51
    5  A    between atoms: C_12  and  C_34
    6  A    between atoms: C_18  and  O_25
    7  A    between atoms: C_18  and  C_40
    8  A    between atoms: C_19  and  O_35
    9  A    between atoms: C_19  and  C_43
   10  A    between atoms: C_21  and  O_35
   11  A    between atoms: C_36  and  C_48
                            x       y       z     vdW  Elec       q    Type
                         _______ _______ _______ _____ _____    ______ ____

>  <TORSDO>
F 11

$$$$
=
 OpenBabel11062412083D

 54 60  0  0  1  0  0  0  0  0999 V2000
  190.8640  177.7700  139.7860 O   0  0  0  0  0  0  0  0  0  0  0  0
  189.6470  177.8740  139.8340 C   0  0  0  0  0  0  0  0  0  0  0  0
  185.1430  180.1880  144.0760 N   0  0  0  0  0  2  0  0  0  0  0  0
  183.7370  178.2070  140.2000 C   0  0  1  0  0  3  0  0  0  0  0  0
  183.8990  179.6360  144.5850 C   0  0  0  0  0  2  0  0  0  0  0  0
  184.0130  178.6830  137.2160 C   0  0  0  0  0  2  0  0  0  0  0  0
  186.8000  178.4390  136.4720 O   0  0  0  0  0  0  0  0  0  0  0  0
  182.5300  178.0400  139.2390 C   0  0  2  0  0  3  0  0  0  0  0  0
  184.9050  178.9270  139.5350 C   0  0  0  0  0  2  0  0  0  0  0  0
  186.5840  179.4820  142.2480 C   0  0  0  0  0  2  0  0  0  0  0  0
  186.5270  178.4560  137.7020 C   0  0  0  0  0  0  0  0  0  0  0  0
  187.5940  177.3790  141.2890 C   0  0  0  0  0  2  0  0  0  0  0  0
  184.3270  178.5940  142.4620 C   0  0  2  0  0  0  0  0  0  0  0  0
  185.1710  179.8400  142.6620 C   0  0  1  0  0  3  0  0  0  0  0  0
  182.6500  178.8500  137.9270 C   0  0  2  0  0  3  0  0  0  0  0  0
  183.5830  178.4060  143.7630 C   0  0  0  0  0  2  0  0  0  0  0  0
  186.7120  177.9750  142.3880 C   0  0  2  0  0  3  0  0  0  0  0  0
  185.1240  178.2730  138.1870 C   0  0  2  0  0  3  0  0  0  0  0  0
  188.8930  177.8700  138.5210 C   0  0  2  0  0  3  0  0  0  0  0  0
  185.3020  177.4130  142.2790 C   0  0  0  0  0  2  0  0  0  0  0  0
  187.5720  178.4650  138.6780 N   0  0  0  0  0  2  0  0  0  0  0  0
  188.9640  178.0670  141.1870 C   0  0  1  0  0  3  0  0  0  0  0  0
  183.3770  178.8220  141.4190 O   0  0  0  0  0  0  0  0  0  0  0  0
  189.8620  174.4230  137.2140 C   0  0  0  0  0  3  0  0  0  0  0  0
  187.4540  174.6500  137.1300 C   0  0  0  0  0  3  0  0  0  0  0  0
  188.5090  172.6490  136.3810 F   0  0  0  0  0  0  0  0  0  0  0  0
  189.9640  175.7110  137.7480 C   0  0  0  0  0  3  0  0  0  0  0  0
  188.8080  176.4720  137.9790 C   0  0  0  0  0  0  0  0  0  0  0  0
  188.6080  173.8930  136.9060 C   0  0  0  0  0  0  0  0  0  0  0  0
  187.5550  175.9380  137.6650 C   0  0  0  0  0  3  0  0  0  0  0  0
  189.8340  177.6660  142.3410 C   0  0  0  0  0  0  0  0  0  0  0  0
  191.0750  175.8550  143.5700 C   0  0  0  0  0  1  0  0  0  0  0  0
  190.1990  176.2950  142.4990 N   0  0  0  0  0  2  0  0  0  0  0  0
  190.2510  178.5360  143.1520 O   0  0  0  0  0  0  0  0  0  0  0  0
  180.4130  179.0430  137.1260 O   0  0  0  0  0  0  0  0  0  0  0  0
  181.5420  178.4990  136.9920 C   0  0  0  0  0  0  0  0  0  0  0  0
  181.7600  177.5700  135.9790 O   0  0  0  0  0  0  0  0  0  0  0  0
  181.0410  176.4430  135.9080 O   0  0  0  0  0  0  0  0  0  0  0  0
  181.9850  175.4380  135.6880 C   0  0  0  0  0  2  0  0  0  0  0  0
  182.5710  174.9810  137.0130 C   0  0  0  0  0  2  0  0  0  0  0  0
  182.8750  173.5250  136.9630 C   0  0  0  0  0  0  0  0  0  0  0  0
  182.5900  171.4410  136.7530 C   0  0  0  0  0  3  0  0  0  0  0  0
  181.9740  172.5980  136.7540 O   0  0  0  0  0  0  0  0  0  0  0  0
  183.9340  171.6910  136.9710 C   0  0  0  0  0  3  0  0  0  0  0  0
  184.1140  173.0200  137.1030 N   0  0  0  0  0  0  0  0  0  0  0  0
  181.2920  178.3090  139.8900 O   0  0  0  0  0  0  0  0  0  0  0  0
  180.4830  177.3260  140.4760 C   0  0  0  0  0  0  0  0  0  0  0  0
  180.0330  177.5580  141.7030 C   0  0  0  0  0  2  0  0  0  0  0  0
  178.9310  174.9140  137.9190 C   0  0  0  0  0  3  0  0  0  0  0  0
  179.2150  173.7340  138.4610 C   0  0  0  0  0  3  0  0  0  0  0  0
  180.3720  174.9170  140.3170 N   0  0  0  0  0  0  0  0  0  0  0  0
  180.0170  173.6180  139.7290 C   0  0  0  0  0  2  0  0  0  0  0  0
  180.0990  176.0700  139.7780 C   0  0  0  0  0  0  0  0  0  0  0  0
  179.3710  176.1150  138.5470 N   0  0  0  0  0  2  0  0  0  0  0  0
  1  2  2  0  0  0  0
  2 22  1  0  0  0  0
  3  5  1  0  0  0  0
  4  9  1  6  0  0  0
  4 23  1  0  0  0  0
  6 15  1  0  0  0  0
  7 11  2  0  0  0  0
  8 46  1  1  0  0  0
  8  4  1  0  0  0  0
 10 17  1  0  0  0  0
 11 18  1  0  0  0  0
 11 21  1  0  0  0  0
 13 20  1  6  0  0  0
 13 14  1  0  0  0  0
 13 16  1  0  0  0  0
 14 10  1  1  0  0  0
 14  3  1  0  0  0  0
 15 36  1  6  0  0  0
 15  8  1  0  0  0  0
 16  5  1  0  0  0  0
 17 12  1  6  0  0  0
 18  6  1  6  0  0  0
 18  9  1  0  0  0  0
 19 28  1  1  0  0  0
 19 21  1  0  0  0  0
 19  2  1  0  0  0  0
 20 17  1  0  0  0  0
 22 12  1  0  0  0  0
 22 31  1  1  0  0  0
 23 13  1  0  0  0  0
 24 27  1  0  0  0  0
 25 30  2  0  0  0  0
 26 29  1  0  0  0  0
 27 28  2  0  0  0  0
 29 25  1  0  0  0  0
 29 24  2  0  0  0  0
 30 28  1  0  0  0  0
 31 33  1  0  0  0  0
 31 34  2  0  0  0  0
 33 32  1  0  0  0  0
 36 35  2  0  0  0  0
 37 36  1  0  0  0  0
 38 37  1  0  0  0  0
 39 38  1  0  0  0  0
 39 40  1  0  0  0  0
 41 40  1  0  0  0  0
 41 45  2  0  0  0  0
 42 43  1  0  0  0  0
 42 44  2  0  0  0  0
 43 41  1  0  0  0  0
 44 45  1  0  0  0  0
 46 47  1  0  0  0  0
 47 48  2  0  0  0  0
 49 50  2  0  0  0  0
 49 54  1  0  0  0  0
 50 52  1  0  0  0  0
 52 51  1  0  0  0  0
 53 51  2  0  0  0  0
 53 47  1  0  0  0  0
 54 53  1  0  0  0  0
M  END
>  <MODEL>
3

>  <REMARK>
 VINA RESULT:      -6.1      2.626      6.724
  Name = 
  11 active torsions:
  status: ('A' for Active; 'I' for Inactive)
    1  A    between atoms: C_2  and  C_40
    2  A    between atoms: O_5  and  C_12
    3  A    between atoms: O_5  and  O_25
    4  A    between atoms: C_6  and  C_51
    5  A    between atoms: C_12  and  C_34
    6  A    between atoms: C_18  and  O_25
    7  A    between atoms: C_18  and  C_40
    8  A    between atoms: C_19  and  O_35
    9  A    between atoms: C_19  and  C_43
   10  A    between atoms: C_21  and  O_35
   11  A    between atoms: C_36  and  C_48
                            x       y       z     vdW  Elec       q    Type
                         _______ _______ _______ _____ _____    ______ ____

>  <TORSDO>
F 11

$$$$
=
 OpenBabel11062412083D

 54 60  0  0  1  0  0  0  0  0999 V2000
  184.9410  180.1020  143.4530 O   0  0  0  0  0  0  0  0  0  0  0  0
  184.9220  179.4580  142.4140 C   0  0  0  0  0  0  0  0  0  0  0  0
  180.4320  177.6320  137.9270 N   0  0  0  0  0  2  0  0  0  0  0  0
  184.7430  176.1690  137.4820 C   0  0  1  0  0  3  0  0  0  0  0  0
  180.1360  176.3560  137.2970 C   0  0  0  0  0  2  0  0  0  0  0  0
  187.4910  177.3920  137.0870 C   0  0  0  0  0  2  0  0  0  0  0  0
  188.1500  179.0090  139.3960 O   0  0  0  0  0  0  0  0  0  0  0  0
  185.7670  175.5550  136.4910 C   0  0  2  0  0  3  0  0  0  0  0  0
  185.1500  177.5670  137.9360 C   0  0  0  0  0  2  0  0  0  0  0  0
  182.3140  178.3520  139.2870 C   0  0  0  0  0  2  0  0  0  0  0  0
  186.9690  178.5770  139.3080 C   0  0  0  0  0  0  0  0  0  0  0  0
  183.7330  177.5330  141.2060 C   0  0  0  0  0  2  0  0  0  0  0  0
  182.4340  176.2900  137.9980 C   0  0  2  0  0  0  0  0  0  0  0  0
  181.8850  177.7060  137.9860 C   0  0  1  0  0  3  0  0  0  0  0  0
  186.8220  176.5590  135.9690 C   0  0  2  0  0  3  0  0  0  0  0  0
  181.2580  175.4070  137.6540 C   0  0  0  0  0  2  0  0  0  0  0  0
  182.5580  177.2240  140.2760 C   0  0  2  0  0  3  0  0  0  0  0  0
  186.6100  177.5000  138.3340 C   0  0  2  0  0  3  0  0  0  0  0  0
  186.2240  179.3180  141.6550 C   0  0  2  0  0  3  0  0  0  0  0  0
  182.8690  175.9870  139.4470 C   0  0  0  0  0  2  0  0  0  0  0  0
  185.9780  178.9690  140.2610 N   0  0  0  0  0  2  0  0  0  0  0  0
  183.5960  178.8940  141.9070 C   0  0  1  0  0  3  0  0  0  0  0  0
  183.4240  176.1530  136.9770 O   0  0  0  0  0  0  0  0  0  0  0  0
  187.4740  176.5840  143.9980 C   0  0  0  0  0  3  0  0  0  0  0  0
  189.2970  177.2950  142.5720 C   0  0  0  0  0  3  0  0  0  0  0  0
  189.6350  175.6070  144.2200 F   0  0  0  0  0  0  0  0  0  0  0  0
  186.6250  177.4960  143.3650 C   0  0  0  0  0  3  0  0  0  0  0  0
  187.1080  178.3080  142.3280 C   0  0  0  0  0  0  0  0  0  0  0  0
  188.8090  176.4840  143.6010 C   0  0  0  0  0  0  0  0  0  0  0  0
  188.4460  178.2070  141.9380 C   0  0  0  0  0  3  0  0  0  0  0  0
  182.5450  178.8250  142.9750 C   0  0  0  0  0  0  0  0  0  0  0  0
  180.1610  179.2240  143.6710 C   0  0  0  0  0  1  0  0  0  0  0  0
  181.2300  179.3060  142.6930 N   0  0  0  0  0  2  0  0  0  0  0  0
  182.8180  178.3320  144.1010 O   0  0  0  0  0  0  0  0  0  0  0  0
  187.5840  174.7680  134.5940 O   0  0  0  0  0  0  0  0  0  0  0  0
  187.8640  175.8540  135.1670 C   0  0  0  0  0  0  0  0  0  0  0  0
  189.1400  176.3980  135.0610 O   0  0  0  0  0  0  0  0  0  0  0  0
  190.2310  175.6410  135.2280 O   0  0  0  0  0  0  0  0  0  0  0  0
  190.4280  175.6080  136.6100 C   0  0  0  0  0  2  0  0  0  0  0  0
  190.9920  174.2580  137.0200 C   0  0  0  0  0  2  0  0  0  0  0  0
  192.4800  174.3000  137.0050 C   0  0  0  0  0  0  0  0  0  0  0  0
  194.4640  174.7040  137.6140 C   0  0  0  0  0  3  0  0  0  0  0  0
  193.2030  174.8740  137.9330 O   0  0  0  0  0  0  0  0  0  0  0  0
  194.4940  173.9860  136.4310 C   0  0  0  0  0  3  0  0  0  0  0  0
  193.2290  173.7280  136.0450 N   0  0  0  0  0  0  0  0  0  0  0  0
  185.1240  174.8870  135.4090 O   0  0  0  0  0  0  0  0  0  0  0  0
  184.6750  173.5610  135.4610 C   0  0  0  0  0  0  0  0  0  0  0  0
  183.3630  173.3590  135.4290 C   0  0  0  0  0  2  0  0  0  0  0  0
  187.8020  171.4260  136.1170 C   0  0  0  0  0  3  0  0  0  0  0  0
  187.4560  170.2700  135.5590 C   0  0  0  0  0  3  0  0  0  0  0  0
  185.2560  171.2680  134.9670 N   0  0  0  0  0  0  0  0  0  0  0  0
  186.0970  170.0630  134.9450 C   0  0  0  0  0  2  0  0  0  0  0  0
  185.5960  172.3950  135.5220 C   0  0  0  0  0  0  0  0  0  0  0  0
  186.8860  172.5180  136.1290 N   0  0  0  0  0  2  0  0  0  0  0  0
  2  1  2  0  0  0  0
  3 14  1  0  0  0  0
  4  9  1  6  0  0  0
  5 16  1  0  0  0  0
  5  3  1  0  0  0  0
  8 46  1  6  0  0  0
  8  4  1  0  0  0  0
  9 18  1  0  0  0  0
 11  7  2  0  0  0  0
 11 21  1  0  0  0  0
 12 22  1  0  0  0  0
 13 16  1  6  0  0  0
 13 20  1  0  0  0  0
 14 13  1  0  0  0  0
 14 10  1  1  0  0  0
 15 36  1  1  0  0  0
 15  8  1  0  0  0  0
 15  6  1  0  0  0  0
 17 10  1  6  0  0  0
 17 12  1  0  0  0  0
 18  6  1  6  0  0  0
 18 11  1  0  0  0  0
 19 28  1  1  0  0  0
 19  2  1  0  0  0  0
 20 17  1  0  0  0  0
 21 19  1  0  0  0  0
 22  2  1  0  0  0  0
 22 31  1  1  0  0  0
 23  4  1  0  0  0  0
 23 13  1  0  0  0  0
 25 29  2  0  0  0  0
 27 24  2  0  0  0  0
 28 27  1  0  0  0  0
 29 24  1  0  0  0  0
 29 26  1  0  0  0  0
 30 28  2  0  0  0  0
 30 25  1  0  0  0  0
 31 34  2  0  0  0  0
 33 31  1  0  0  0  0
 33 32  1  0  0  0  0
 35 36  2  0  0  0  0
 37 36  1  0  0  0  0
 37 38  1  0  0  0  0
 38 39  1  0  0  0  0
 39 40  1  0  0  0  0
 41 40  1  0  0  0  0
 41 43  1  0  0  0  0
 42 43  1  0  0  0  0
 44 42  2  0  0  0  0
 45 44  1  0  0  0  0
 45 41  2  0  0  0  0
 46 47  1  0  0  0  0
 47 53  1  0  0  0  0
 48 47  2  0  0  0  0
 49 54  1  0  0  0  0
 50 49  2  0  0  0  0
 51 53  2  0  0  0  0
 52 51  1  0  0  0  0
 52 50  1  0  0  0  0
 53 54  1  0  0  0  0
M  END
>  <MODEL>
4

>  <REMARK>
 VINA RESULT:      -6.1      1.479      2.243
  Name = 
  11 active torsions:
  status: ('A' for Active; 'I' for Inactive)
    1  A    between atoms: C_2  and  C_40
    2  A    between atoms: O_5  and  C_12
    3  A    between atoms: O_5  and  O_25
    4  A    between atoms: C_6  and  C_51
    5  A    between atoms: C_12  and  C_34
    6  A    between atoms: C_18  and  O_25
    7  A    between atoms: C_18  and  C_40
    8  A    between atoms: C_19  and  O_35
    9  A    between atoms: C_19  and  C_43
   10  A    between atoms: C_21  and  O_35
   11  A    between atoms: C_36  and  C_48
                            x       y       z     vdW  Elec       q    Type
                         _______ _______ _______ _____ _____    ______ ____

>  <TORSDO>
F 11

$$$$
=
 OpenBabel11062412083D

 54 60  0  0  1  0  0  0  0  0999 V2000
  189.8410  178.2070  147.4430 O   0  0  0  0  0  0  0  0  0  0  0  0
  189.3970  178.1880  146.3030 C   0  0  0  0  0  0  0  0  0  0  0  0
  183.7700  179.8420  143.2640 N   0  0  0  0  0  2  0  0  0  0  0  0
  187.1310  177.9170  140.8300 C   0  0  1  0  0  3  0  0  0  0  0  0
  182.9340  179.1470  142.3010 C   0  0  0  0  0  2  0  0  0  0  0  0
  190.0000  178.5580  140.0790 C   0  0  0  0  0  2  0  0  0  0  0  0
  191.6150  178.6270  142.4800 O   0  0  0  0  0  0  0  0  0  0  0  0
  187.6640  177.6770  139.3920 C   0  0  2  0  0  3  0  0  0  0  0  0
  188.0780  178.7800  141.6560 C   0  0  0  0  0  2  0  0  0  0  0  0
  186.0120  179.3700  144.0800 C   0  0  0  0  0  2  0  0  0  0  0  0
  190.3650  178.5590  142.6240 C   0  0  0  0  0  0  0  0  0  0  0  0
  187.4030  177.4240  144.8830 C   0  0  0  0  0  2  0  0  0  0  0  0
  185.1550  178.2530  142.0930 C   0  0  2  0  0  0  0  0  0  0  0  0
  185.1420  179.5660  142.8560 C   0  0  1  0  0  3  0  0  0  0  0  0
  188.8790  178.5560  139.0130 C   0  0  2  0  0  3  0  0  0  0  0  0
  183.7030  177.9330  141.8320 C   0  0  0  0  0  2  0  0  0  0  0  0
  186.0370  177.8770  144.3640 C   0  0  2  0  0  3  0  0  0  0  0  0
  189.4710  178.2140  141.4740 C   0  0  2  0  0  3  0  0  0  0  0  0
  190.3950  178.1710  145.1650 C   0  0  2  0  0  3  0  0  0  0  0  0
  185.7300  177.1850  143.0450 C   0  0  0  0  0  2  0  0  0  0  0  0
  189.7770  178.6240  143.9250 N   0  0  0  0  0  2  0  0  0  0  0  0
  187.8860  178.2480  146.0870 C   0  0  1  0  0  3  0  0  0  0  0  0
  185.8170  178.4360  140.8400 O   0  0  0  0  0  0  0  0  0  0  0  0
  191.2700  174.7310  143.7780 C   0  0  0  0  0  3  0  0  0  0  0  0
  192.3080  174.9930  145.9490 C   0  0  0  0  0  3  0  0  0  0  0  0
  192.5700  172.9700  144.7170 F   0  0  0  0  0  0  0  0  0  0  0  0
  190.7340  176.0170  143.8810 C   0  0  0  0  0  3  0  0  0  0  0  0
  190.9870  176.7990  145.0180 C   0  0  0  0  0  0  0  0  0  0  0  0
  192.0580  174.2200  144.8120 C   0  0  0  0  0  0  0  0  0  0  0  0
  191.7720  176.2810  146.0510 C   0  0  0  0  0  3  0  0  0  0  0  0
  187.1060  177.8820  147.3140 C   0  0  0  0  0  0  0  0  0  0  0  0
  187.0500  176.7830  149.5770 C   0  0  0  0  0  1  0  0  0  0  0  0
  187.7410  177.1270  148.3470 N   0  0  0  0  0  2  0  0  0  0  0  0
  185.9080  178.2520  147.4380 O   0  0  0  0  0  0  0  0  0  0  0  0
  189.0550  178.7270  136.6430 O   0  0  0  0  0  0  0  0  0  0  0  0
  189.4340  178.1420  137.6920 C   0  0  0  0  0  0  0  0  0  0  0  0
  190.3620  177.1080  137.6260 O   0  0  0  0  0  0  0  0  0  0  0  0
  190.0460  175.8680  138.0210 O   0  0  0  0  0  0  0  0  0  0  0  0
  190.9210  175.0400  137.3140 C   0  0  0  0  0  2  0  0  0  0  0  0
  192.2210  175.7770  137.0400 C   0  0  0  0  0  2  0  0  0  0  0  0
  193.3720  175.0000  137.5750 C   0  0  0  0  0  0  0  0  0  0  0  0
  194.6800  173.3790  137.9370 C   0  0  0  0  0  3  0  0  0  0  0  0
  193.5720  173.7300  137.3300 O   0  0  0  0  0  0  0  0  0  0  0  0
  195.1700  174.5040  138.5780 C   0  0  0  0  0  3  0  0  0  0  0  0
  194.3360  175.5370  138.3440 N   0  0  0  0  0  0  0  0  0  0  0  0
  186.6320  177.7910  138.4170 O   0  0  0  0  0  0  0  0  0  0  0  0
  186.0370  176.6990  137.7710 C   0  0  0  0  0  0  0  0  0  0  0  0
  184.7340  176.5190  137.9500 C   0  0  0  0  0  2  0  0  0  0  0  0
  187.9930  175.3150  134.7660 C   0  0  0  0  0  3  0  0  0  0  0  0
  188.1230  174.0350  135.1010 C   0  0  0  0  0  3  0  0  0  0  0  0
  186.9110  174.5140  137.2190 N   0  0  0  0  0  0  0  0  0  0  0  0
  187.6120  173.5050  136.4140 C   0  0  0  0  0  2  0  0  0  0  0  0
  186.7930  175.7680  136.8910 C   0  0  0  0  0  0  0  0  0  0  0  0
  187.3390  176.2230  135.6490 N   0  0  0  0  0  2  0  0  0  0  0  0
  2  1  2  0  0  0  0
  4 23  1  0  0  0  0
  4  9  1  6  0  0  0
  5  3  1  0  0  0  0
  7 11  2  0  0  0  0
  8 46  1  6  0  0  0
  8  4  1  0  0  0  0
 10 17  1  0  0  0  0
 11 21  1  0  0  0  0
 12 22  1  0  0  0  0
 13 16  1  6  0  0  0
 13 14  1  0  0  0  0
 13 20  1  0  0  0  0
 14  3  1  0  0  0  0
 14 10  1  1  0  0  0
 15 36  1  6  0  0  0
 15  8  1  0  0  0  0
 15  6  1  0  0  0  0
 16  5  1  0  0  0  0
 17 20  1  6  0  0  0
 17 12  1  0  0  0  0
 18  6  1  6  0  0  0
 18  9  1  0  0  0  0
 18 11  1  0  0  0  0
 19 28  1  6  0  0  0
 19  2  1  0  0  0  0
 21 19  1  0  0  0  0
 22  2  1  0  0  0  0
 22 31  1  1  0  0  0
 23 13  1  0  0  0  0
 24 27  2  0  0  0  0
 24 29  1  0  0  0  0
 25 30  1  0  0  0  0
 26 29  1  0  0  0  0
 27 28  1  0  0  0  0
 28 30  2  0  0  0  0
 29 25  2  0  0  0  0
 31 34  2  0  0  0  0
 31 33  1  0  0  0  0
 33 32  1  0  0  0  0
 35 36  2  0  0  0  0
 37 36  1  0  0  0  0
 37 38  1  0  0  0  0
 39 38  1  0  0  0  0
 40 39  1  0  0  0  0
 40 41  1  0  0  0  0
 41 45  2  0  0  0  0
 42 44  2  0  0  0  0
 43 41  1  0  0  0  0
 43 42  1  0  0  0  0
 45 44  1  0  0  0  0
 47 48  2  0  0  0  0
 47 46  1  0  0  0  0
 49 50  2  0  0  0  0
 49 54  1  0  0  0  0
 50 52  1  0  0  0  0
 52 51  1  0  0  0  0
 53 51  2  0  0  0  0
 53 47  1  0  0  0  0
 54 53  1  0  0  0  0
M  END
>  <MODEL>
5

>  <REMARK>
 VINA RESULT:      -4.8      3.379      5.404
  Name = 
  11 active torsions:
  status: ('A' for Active; 'I' for Inactive)
    1  A    between atoms: C_2  and  C_40
    2  A    between atoms: O_5  and  C_12
    3  A    between atoms: O_5  and  O_25
    4  A    between atoms: C_6  and  C_51
    5  A    between atoms: C_12  and  C_34
    6  A    between atoms: C_18  and  O_25
    7  A    between atoms: C_18  and  C_40
    8  A    between atoms: C_19  and  O_35
    9  A    between atoms: C_19  and  C_43
   10  A    between atoms: C_21  and  O_35
   11  A    between atoms: C_36  and  C_48
                            x       y       z     vdW  Elec       q    Type
                         _______ _______ _______ _____ _____    ______ ____

>  <TORSDO>
F 11

$$$$
=
 OpenBabel11062412083D

 54 60  0  0  1  0  0  0  0  0999 V2000
  179.2960  178.5110  140.2910 O   0  0  0  0  0  0  0  0  0  0  0  0
  180.5180  178.4970  140.2560 C   0  0  0  0  0  0  0  0  0  0  0  0
  185.4770  177.4860  144.5010 N   0  0  0  0  0  2  0  0  0  0  0  0
  186.4460  178.6250  140.1780 C   0  0  1  0  0  3  0  0  0  0  0  0
  186.7060  178.2150  144.7660 C   0  0  0  0  0  2  0  0  0  0  0  0
  186.0020  177.4720  137.4060 C   0  0  0  0  0  2  0  0  0  0  0  0
  183.1600  177.3670  136.8690 O   0  0  0  0  0  0  0  0  0  0  0  0
  187.5660  178.6460  139.1040 C   0  0  2  0  0  3  0  0  0  0  0  0
  185.2970  177.7020  139.7900 C   0  0  0  0  0  2  0  0  0  0  0  0
  183.8610  177.6690  142.6920 C   0  0  0  0  0  2  0  0  0  0  0  0
  183.5180  177.6450  138.0450 C   0  0  0  0  0  0  0  0  0  0  0  0
  182.6210  179.4350  141.3850 C   0  0  0  0  0  2  0  0  0  0  0  0
  186.0490  178.7220  142.5110 C   0  0  2  0  0  0  0  0  0  0  0  0
  185.3230  177.5030  143.0520 C   0  0  1  0  0  3  0  0  0  0  0  0
  187.4210  177.5550  138.0170 C   0  0  2  0  0  3  0  0  0  0  0  0
  186.8640  179.2440  143.6700 C   0  0  0  0  0  2  0  0  0  0  0  0
  183.6230  179.1580  142.5080 C   0  0  2  0  0  3  0  0  0  0  0  0
  184.9320  178.0210  138.3550 C   0  0  2  0  0  3  0  0  0  0  0  0
  181.1760  178.2520  138.9150 C   0  0  2  0  0  3  0  0  0  0  0  0
  184.9710  179.7680  142.1580 C   0  0  0  0  0  2  0  0  0  0  0  0
  182.5480  177.7920  139.0850 N   0  0  0  0  0  2  0  0  0  0  0  0
  181.3070  178.6570  141.5540 C   0  0  1  0  0  3  0  0  0  0  0  0
  186.9390  178.3240  141.4670 O   0  0  0  0  0  0  0  0  0  0  0  0
  181.4700  181.8760  137.7720 C   0  0  0  0  0  3  0  0  0  0  0  0
  180.4490  180.5730  136.0060 C   0  0  0  0  0  3  0  0  0  0  0  0
  180.8080  182.9130  135.7320 F   0  0  0  0  0  0  0  0  0  0  0  0
  181.5690  180.7270  138.5610 C   0  0  0  0  0  3  0  0  0  0  0  0
  181.1110  179.4940  138.0730 C   0  0  0  0  0  0  0  0  0  0  0  0
  180.9110  181.7980  136.4950 C   0  0  0  0  0  0  0  0  0  0  0  0
  180.5480  179.4230  136.7960 C   0  0  0  0  0  3  0  0  0  0  0  0
  180.4900  179.2530  142.6630 C   0  0  0  0  0  0  0  0  0  0  0  0
  179.0470  178.9040  144.6950 C   0  0  0  0  0  1  0  0  0  0  0  0
  179.8140  178.3870  143.5760 N   0  0  0  0  0  2  0  0  0  0  0  0
  180.4160  180.5030  142.7950 O   0  0  0  0  0  0  0  0  0  0  0  0
  188.9840  178.8770  136.7970 O   0  0  0  0  0  0  0  0  0  0  0  0
  188.4290  177.7550  136.9360 C   0  0  0  0  0  0  0  0  0  0  0  0
  188.7470  176.7010  136.0840 O   0  0  0  0  0  0  0  0  0  0  0  0
  189.9010  176.0340  136.2110 O   0  0  0  0  0  0  0  0  0  0  0  0
  189.5320  174.6870  136.1910 C   0  0  0  0  0  2  0  0  0  0  0  0
  190.6110  173.8460  136.8530 C   0  0  0  0  0  2  0  0  0  0  0  0
  191.8960  174.5970  136.8840 C   0  0  0  0  0  0  0  0  0  0  0  0
  193.5460  175.6830  137.6360 C   0  0  0  0  0  3  0  0  0  0  0  0
  192.4100  175.1190  137.9690 O   0  0  0  0  0  0  0  0  0  0  0  0
  193.7220  175.4820  136.2780 C   0  0  0  0  0  3  0  0  0  0  0  0
  192.6700  174.7870  135.8010 N   0  0  0  0  0  0  0  0  0  0  0  0
  188.8650  178.6090  139.6890 O   0  0  0  0  0  0  0  0  0  0  0  0
  189.3900  177.4990  140.3650 C   0  0  0  0  0  0  0  0  0  0  0  0
  189.6830  176.4260  139.6410 C   0  0  0  0  0  2  0  0  0  0  0  0
  190.5850  178.5810  143.8540 C   0  0  0  0  0  3  0  0  0  0  0  0
  190.3010  177.5020  144.5770 C   0  0  0  0  0  3  0  0  0  0  0  0
  189.3780  176.4300  142.5320 N   0  0  0  0  0  0  0  0  0  0  0  0
  189.6180  176.3040  143.9760 C   0  0  0  0  0  3  0  0  0  0  0  0
  189.6500  177.4910  141.8290 C   0  0  0  0  0  0  0  0  0  0  0  0
  190.2600  178.6180  142.4660 N   0  0  0  0  0  0  0  0  0  0  0  0
  2  1  2  0  0  0  0
  2 22  1  0  0  0  0
  3  5  1  0  0  0  0
  4  9  1  6  0  0  0
  4 23  1  0  0  0  0
  6 15  1  0  0  0  0
  7 11  2  0  0  0  0
  8 46  1  1  0  0  0
  8  4  1  0  0  0  0
 11 18  1  0  0  0  0
 11 21  1  0  0  0  0
 12 22  1  0  0  0  0
 13 20  1  6  0  0  0
 13 14  1  0  0  0  0
 13 16  1  0  0  0  0
 14 10  1  1  0  0  0
 14  3  1  0  0  0  0
 15 36  1  6  0  0  0
 15  8  1  0  0  0  0
 16  5  1  0  0  0  0
 17 12  1  6  0  0  0
 17 10  1  0  0  0  0
 18  6  1  6  0  0  0
 18  9  1  0  0  0  0
 19 28  1  6  0  0  0
 19 21  1  0  0  0  0
 19  2  1  0  0  0  0
 20 17  1  0  0  0  0
 22 31  1  1  0  0  0
 23 13  1  0  0  0  0
 24 27  1  0  0  0  0
 25 29  1  0  0  0  0
 25 30  2  0  0  0  0
 26 29  1  0  0  0  0
 28 27  2  0  0  0  0
 29 24  2  0  0  0  0
 30 28  1  0  0  0  0
 31 34  2  0  0  0  0
 31 33  1  0  0  0  0
 33 32  1  0  0  0  0
 35 36  2  0  0  0  0
 37 38  1  0  0  0  0
 37 36  1  0  0  0  0
 39 38  1  0  0  0  0
 39 40  1  0  0  0  0
 40 41  1  0  0  0  0
 41 43  1  0  0  0  0
 42 43  1  0  0  0  0
 44 42  2  0  0  0  0
 45 44  1  0  0  0  0
 45 41  2  0  0  0  0
 46 47  1  0  0  0  0
 47 53  1  0  0  0  0
 48 47  2  0  0  0  0
 49 50  1  0  0  0  0
 51 52  1  0  0  0  0
 52 50  2  0  0  0  0
 53 54  1  0  0  0  0
 53 51  2  0  0  0  0
 54 49  2  0  0  0  0
M  END
>  <MODEL>
6

>  <REMARK>
 VINA RESULT:      -4.7      3.637      7.117
  Name = 
  11 active torsions:
  status: ('A' for Active; 'I' for Inactive)
    1  A    between atoms: C_2  and  C_40
    2  A    between atoms: O_5  and  C_12
    3  A    between atoms: O_5  and  O_25
    4  A    between atoms: C_6  and  C_51
    5  A    between atoms: C_12  and  C_34
    6  A    between atoms: C_18  and  O_25
    7  A    between atoms: C_18  and  C_40
    8  A    between atoms: C_19  and  O_35
    9  A    between atoms: C_19  and  C_43
   10  A    between atoms: C_21  and  O_35
   11  A    between atoms: C_36  and  C_48
                            x       y       z     vdW  Elec       q    Type
                         _______ _______ _______ _____ _____    ______ ____

>  <TORSDO>
F 11

$$$$
=
 OpenBabel11062412083D

 54 60  0  0  1  0  0  0  0  0999 V2000
  189.8750  178.2090  147.4210 O   0  0  0  0  0  0  0  0  0  0  0  0
  189.4320  178.1840  146.2820 C   0  0  0  0  0  0  0  0  0  0  0  0
  183.8040  179.8150  143.2330 N   0  0  0  0  0  2  0  0  0  0  0  0
  187.1690  177.8870  140.8080 C   0  0  1  0  0  3  0  0  0  0  0  0
  182.9690  179.1140  142.2720 C   0  0  0  0  0  2  0  0  0  0  0  0
  190.0380  178.5310  140.0560 C   0  0  0  0  0  2  0  0  0  0  0  0
  191.6510  178.6120  142.4580 O   0  0  0  0  0  0  0  0  0  0  0  0
  187.7040  177.6430  139.3720 C   0  0  2  0  0  3  0  0  0  0  0  0
  188.1150  178.7550  141.6320 C   0  0  0  0  0  2  0  0  0  0  0  0
  186.0460  179.3500  144.0510 C   0  0  0  0  0  2  0  0  0  0  0  0
  190.4010  178.5420  142.6010 C   0  0  0  0  0  0  0  0  0  0  0  0
  187.4400  177.4100  144.8630 C   0  0  0  0  0  2  0  0  0  0  0  0
  185.1920  178.2240  142.0690 C   0  0  2  0  0  0  0  0  0  0  0  0
  185.1760  179.5400  142.8260 C   0  0  1  0  0  3  0  0  0  0  0  0
  188.9170  178.5220  138.9900 C   0  0  2  0  0  3  0  0  0  0  0  0
  183.7410  177.8990  141.8080 C   0  0  0  0  0  2  0  0  0  0  0  0
  186.0730  177.8590  144.3410 C   0  0  2  0  0  3  0  0  0  0  0  0
  189.5090  178.1920  141.4520 C   0  0  2  0  0  3  0  0  0  0  0  0
  190.4300  178.1650  145.1440 C   0  0  2  0  0  3  0  0  0  0  0  0
  185.7690  177.1600  143.0250 C   0  0  0  0  0  2  0  0  0  0  0  0
  189.8130  178.6120  143.9020 N   0  0  0  0  0  2  0  0  0  0  0  0
  187.9210  178.2410  146.0640 C   0  0  1  0  0  3  0  0  0  0  0  0
  185.8550  178.4030  140.8150 O   0  0  0  0  0  0  0  0  0  0  0  0
  191.3070  174.7170  143.7750 C   0  0  0  0  0  3  0  0  0  0  0  0
  192.3570  174.9980  145.9380 C   0  0  0  0  0  3  0  0  0  0  0  0
  192.6180  172.9670  144.7180 F   0  0  0  0  0  0  0  0  0  0  0  0
  190.7670  176.0030  143.8720 C   0  0  0  0  0  3  0  0  0  0  0  0
  191.0250  176.7930  145.0020 C   0  0  0  0  0  0  0  0  0  0  0  0
  192.1020  174.2160  144.8080 C   0  0  0  0  0  0  0  0  0  0  0  0
  191.8180  176.2850  146.0350 C   0  0  0  0  0  3  0  0  0  0  0  0
  187.1400  177.8780  147.2930 C   0  0  0  0  0  0  0  0  0  0  0  0
  187.0840  176.7800  149.5560 C   0  0  0  0  0  1  0  0  0  0  0  0
  187.7740  177.1220  148.3250 N   0  0  0  0  0  2  0  0  0  0  0  0
  185.9440  178.2510  147.4160 O   0  0  0  0  0  0  0  0  0  0  0  0
  189.0110  178.6010  136.6100 O   0  0  0  0  0  0  0  0  0  0  0  0
  189.4740  178.1040  137.6700 C   0  0  0  0  0  0  0  0  0  0  0  0
  190.4970  177.1630  137.6190 O   0  0  0  0  0  0  0  0  0  0  0  0
  190.3270  175.9280  138.1080 O   0  0  0  0  0  0  0  0  0  0  0  0
  191.4130  175.2020  137.6150 C   0  0  0  0  0  2  0  0  0  0  0  0
  192.7070  175.9390  137.9190 C   0  0  0  0  0  2  0  0  0  0  0  0
  193.8240  174.9680  138.0790 C   0  0  0  0  0  0  0  0  0  0  0  0
  194.9550  173.1920  137.8950 C   0  0  0  0  0  3  0  0  0  0  0  0
  193.8140  173.7570  137.5830 O   0  0  0  0  0  0  0  0  0  0  0  0
  195.6890  174.1200  138.6140 C   0  0  0  0  0  3  0  0  0  0  0  0
  194.9670  175.2520  138.7280 N   0  0  0  0  0  0  0  0  0  0  0  0
  186.6720  177.7510  138.3950 O   0  0  0  0  0  0  0  0  0  0  0  0
  186.1080  176.6570  137.7240 C   0  0  0  0  0  0  0  0  0  0  0  0
  186.9410  175.7550  137.2200 C   0  0  0  0  0  2  0  0  0  0  0  0
  182.6860  174.9580  137.3110 C   0  0  0  0  0  3  0  0  0  0  0  0
  181.8830  176.0090  137.1760 C   0  0  0  0  0  3  0  0  0  0  0  0
  183.8590  177.4950  137.4410 N   0  0  0  0  0  0  0  0  0  0  0  0
  182.4020  177.4180  137.2670 C   0  0  0  0  0  2  0  0  0  0  0  0
  184.6410  176.4630  137.5810 C   0  0  0  0  0  0  0  0  0  0  0  0
  184.0820  175.1470  137.5290 N   0  0  0  0  0  2  0  0  0  0  0  0
  2  1  2  0  0  0  0
  4 23  1  0  0  0  0
  4  9  1  6  0  0  0
  5  3  1  0  0  0  0
  7 11  2  0  0  0  0
  8 46  1  6  0  0  0
  8  4  1  0  0  0  0
 10 17  1  0  0  0  0
 11 21  1  0  0  0  0
 12 22  1  0  0  0  0
 13 16  1  6  0  0  0
 13 14  1  0  0  0  0
 13 20  1  0  0  0  0
 14  3  1  0  0  0  0
 14 10  1  1  0  0  0
 15 36  1  6  0  0  0
 15  8  1  0  0  0  0
 15  6  1  0  0  0  0
 16  5  1  0  0  0  0
 17 20  1  6  0  0  0
 17 12  1  0  0  0  0
 18  6  1  6  0  0  0
 18  9  1  0  0  0  0
 18 11  1  0  0  0  0
 19 28  1  6  0  0  0
 19  2  1  0  0  0  0
 21 19  1  0  0  0  0
 22  2  1  0  0  0  0
 22 31  1  1  0  0  0
 23 13  1  0  0  0  0
 24 27  2  0  0  0  0
 24 29  1  0  0  0  0
 25 30  1  0  0  0  0
 26 29  1  0  0  0  0
 27 28  1  0  0  0  0
 28 30  2  0  0  0  0
 29 25  2  0  0  0  0
 31 34  2  0  0  0  0
 31 33  1  0  0  0  0
 33 32  1  0  0  0  0
 35 36  2  0  0  0  0
 37 36  1  0  0  0  0
 37 38  1  0  0  0  0
 39 40  1  0  0  0  0
 39 38  1  0  0  0  0
 40 41  1  0  0  0  0
 41 45  2  0  0  0  0
 42 44  2  0  0  0  0
 43 42  1  0  0  0  0
 43 41  1  0  0  0  0
 44 45  1  0  0  0  0
 47 46  1  0  0  0  0
 48 47  2  0  0  0  0
 49 54  1  0  0  0  0
 50 52  1  0  0  0  0
 50 49  2  0  0  0  0
 51 53  2  0  0  0  0
 52 51  1  0  0  0  0
 53 47  1  0  0  0  0
 54 53  1  0  0  0  0
M  END
>  <MODEL>
7

>  <REMARK>
 VINA RESULT:      -4.7      3.177      5.240
  Name = 
  11 active torsions:
  status: ('A' for Active; 'I' for Inactive)
    1  A    between atoms: C_2  and  C_40
    2  A    between atoms: O_5  and  C_12
    3  A    between atoms: O_5  and  O_25
    4  A    between atoms: C_6  and  C_51
    5  A    between atoms: C_12  and  C_34
    6  A    between atoms: C_18  and  O_25
    7  A    between atoms: C_18  and  C_40
    8  A    between atoms: C_19  and  O_35
    9  A    between atoms: C_19  and  C_43
   10  A    between atoms: C_21  and  O_35
   11  A    between atoms: C_36  and  C_48
                            x       y       z     vdW  Elec       q    Type
                         _______ _______ _______ _____ _____    ______ ____

>  <TORSDO>
F 11

$$$$
=
 OpenBabel11062412083D

 54 60  0  0  1  0  0  0  0  0999 V2000
  189.9800  178.1550  147.4980 O   0  0  0  0  0  0  0  0  0  0  0  0
  189.5120  178.1510  146.3690 C   0  0  0  0  0  0  0  0  0  0  0  0
  183.8400  179.8890  143.4640 N   0  0  0  0  0  2  0  0  0  0  0  0
  187.1290  177.9550  140.9420 C   0  0  1  0  0  3  0  0  0  0  0  0
  182.9760  179.2110  142.5130 C   0  0  0  0  0  2  0  0  0  0  0  0
  189.9880  178.5760  140.1360 C   0  0  0  0  0  2  0  0  0  0  0  0
  191.6540  178.6060  142.5040 O   0  0  0  0  0  0  0  0  0  0  0  0
  187.6300  177.7240  139.4910 C   0  0  2  0  0  3  0  0  0  0  0  0
  188.1020  178.8010  141.7560 C   0  0  0  0  0  2  0  0  0  0  0  0
  186.0940  179.3870  144.2280 C   0  0  0  0  0  2  0  0  0  0  0  0
  190.4060  178.5490  142.6730 C   0  0  0  0  0  0  0  0  0  0  0  0
  187.4820  177.4210  144.9840 C   0  0  0  0  0  2  0  0  0  0  0  0
  185.1840  178.2980  142.2490 C   0  0  2  0  0  0  0  0  0  0  0  0
  185.1990  179.6040  143.0250 C   0  0  1  0  0  3  0  0  0  0  0  0
  188.8450  178.5950  139.0950 C   0  0  2  0  0  3  0  0  0  0  0  0
  183.7240  177.9940  142.0160 C   0  0  0  0  0  2  0  0  0  0  0  0
  186.1090  177.8920  144.4980 C   0  0  2  0  0  3  0  0  0  0  0  0
  189.4860  178.2240  141.5390 C   0  0  2  0  0  3  0  0  0  0  0  0
  190.4860  178.1360  145.2100 C   0  0  2  0  0  3  0  0  0  0  0  0
  185.7690  177.2150  143.1790 C   0  0  0  0  0  2  0  0  0  0  0  0
  189.8470  178.6070  143.9870 N   0  0  0  0  0  2  0  0  0  0  0  0
  187.9980  178.2290  146.1840 C   0  0  1  0  0  3  0  0  0  0  0  0
  185.8220  178.4860  140.9850 O   0  0  0  0  0  0  0  0  0  0  0  0
  191.2520  174.6780  143.8020 C   0  0  0  0  0  3  0  0  0  0  0  0
  192.4360  174.9580  145.8950 C   0  0  0  0  0  3  0  0  0  0  0  0
  192.6060  172.9210  144.6690 F   0  0  0  0  0  0  0  0  0  0  0  0
  190.7280  175.9670  143.9270 C   0  0  0  0  0  3  0  0  0  0  0  0
  191.0610  176.7600  145.0360 C   0  0  0  0  0  0  0  0  0  0  0  0
  192.1060  174.1740  144.7850 C   0  0  0  0  0  0  0  0  0  0  0  0
  191.9130  176.2490  146.0190 C   0  0  0  0  0  3  0  0  0  0  0  0
  187.2400  177.8580  147.4250 C   0  0  0  0  0  0  0  0  0  0  0  0
  187.1830  176.6360  149.6230 C   0  0  0  0  0  1  0  0  0  0  0  0
  187.8490  176.9930  148.3840 N   0  0  0  0  0  2  0  0  0  0  0  0
  186.0850  178.3190  147.6230 O   0  0  0  0  0  0  0  0  0  0  0  0
  189.2190  178.9530  136.7680 O   0  0  0  0  0  0  0  0  0  0  0  0
  189.3680  178.1880  137.7580 C   0  0  0  0  0  0  0  0  0  0  0  0
  190.0130  176.9640  137.6120 O   0  0  0  0  0  0  0  0  0  0  0  0
  191.2630  176.8930  137.1380 O   0  0  0  0  0  0  0  0  0  0  0  0
  191.9460  176.1030  138.0640 C   0  0  0  0  0  2  0  0  0  0  0  0
  192.4270  174.8250  137.3970 C   0  0  0  0  0  2  0  0  0  0  0  0
  191.2660  174.0500  136.8800 C   0  0  0  0  0  0  0  0  0  0  0  0
  189.3810  173.0960  136.8210 C   0  0  0  0  0  3  0  0  0  0  0  0
  190.2040  173.7650  137.5910 O   0  0  0  0  0  0  0  0  0  0  0  0
  189.9840  172.9780  135.5800 C   0  0  0  0  0  3  0  0  0  0  0  0
  191.1850  173.5890  135.6200 N   0  0  0  0  0  0  0  0  0  0  0  0
  186.5790  177.8580  138.5390 O   0  0  0  0  0  0  0  0  0  0  0  0
  185.9970  176.7810  137.8550 C   0  0  0  0  0  0  0  0  0  0  0  0
  186.8160  175.9190  137.2660 C   0  0  0  0  0  2  0  0  0  0  0  0
  182.2180  177.2850  138.3390 C   0  0  0  0  0  3  0  0  0  0  0  0
  181.7330  176.1600  137.8240 C   0  0  0  0  0  3  0  0  0  0  0  0
  184.0570  175.4560  137.2910 N   0  0  0  0  0  0  0  0  0  0  0  0
  182.6280  175.1240  137.2000 C   0  0  0  0  0  2  0  0  0  0  0  0
  184.5280  176.5630  137.7880 C   0  0  0  0  0  0  0  0  0  0  0  0
  183.6230  177.5300  138.3280 N   0  0  0  0  0  2  0  0  0  0  0  0
  2  1  2  0  0  0  0
  4 23  1  0  0  0  0
  4  9  1  6  0  0  0
  5  3  1  0  0  0  0
  7 11  2  0  0  0  0
  8 46  1  6  0  0  0
  8  4  1  0  0  0  0
 10 17  1  0  0  0  0
 11 21  1  0  0  0  0
 12 22  1  0  0  0  0
 13 16  1  6  0  0  0
 13 14  1  0  0  0  0
 13 20  1  0  0  0  0
 14  3  1  0  0  0  0
 14 10  1  1  0  0  0
 15 36  1  6  0  0  0
 15  8  1  0  0  0  0
 15  6  1  0  0  0  0
 16  5  1  0  0  0  0
 17 20  1  6  0  0  0
 17 12  1  0  0  0  0
 18  6  1  6  0  0  0
 18  9  1  0  0  0  0
 18 11  1  0  0  0  0
 19 28  1  6  0  0  0
 19  2  1  0  0  0  0
 21 19  1  0  0  0  0
 22  2  1  0  0  0  0
 22 31  1  1  0  0  0
 23 13  1  0  0  0  0
 24 27  2  0  0  0  0
 24 29  1  0  0  0  0
 25 30  1  0  0  0  0
 26 29  1  0  0  0  0
 27 28  1  0  0  0  0
 28 30  2  0  0  0  0
 29 25  2  0  0  0  0
 31 34  2  0  0  0  0
 31 33  1  0  0  0  0
 33 32  1  0  0  0  0
 35 36  2  0  0  0  0
 37 36  1  0  0  0  0
 38 37  1  0  0  0  0
 38 39  1  0  0  0  0
 40 39  1  0  0  0  0
 41 40  1  0  0  0  0
 41 43  1  0  0  0  0
 42 43  1  0  0  0  0
 44 45  1  0  0  0  0
 44 42  2  0  0  0  0
 45 41  2  0  0  0  0
 47 46  1  0  0  0  0
 48 47  2  0  0  0  0
 50 49  2  0  0  0  0
 51 53  2  0  0  0  0
 52 51  1  0  0  0  0
 52 50  1  0  0  0  0
 53 47  1  0  0  0  0
 53 54  1  0  0  0  0
 54 49  1  0  0  0  0
M  END
>  <MODEL>
8

>  <REMARK>
 VINA RESULT:      -4.5      3.139      5.308
  Name = 
  11 active torsions:
  status: ('A' for Active; 'I' for Inactive)
    1  A    between atoms: C_2  and  C_40
    2  A    between atoms: O_5  and  C_12
    3  A    between atoms: O_5  and  O_25
    4  A    between atoms: C_6  and  C_51
    5  A    between atoms: C_12  and  C_34
    6  A    between atoms: C_18  and  O_25
    7  A    between atoms: C_18  and  C_40
    8  A    between atoms: C_19  and  O_35
    9  A    between atoms: C_19  and  C_43
   10  A    between atoms: C_21  and  O_35
   11  A    between atoms: C_36  and  C_48
                            x       y       z     vdW  Elec       q    Type
                         _______ _______ _______ _____ _____    ______ ____

>  <TORSDO>
F 11

$$$$
=
 OpenBabel11062412083D

 54 60  0  0  1  0  0  0  0  0999 V2000
  179.2070  178.4840  139.9690 O   0  0  0  0  0  0  0  0  0  0  0  0
  180.4290  178.4730  139.9570 C   0  0  0  0  0  0  0  0  0  0  0  0
  185.3130  177.5030  144.2980 N   0  0  0  0  0  2  0  0  0  0  0  0
  186.3580  178.6150  139.9860 C   0  0  1  0  0  3  0  0  0  0  0  0
  186.5340  178.2370  144.5810 C   0  0  0  0  0  2  0  0  0  0  0  0
  185.9670  177.4420  137.2150 C   0  0  0  0  0  2  0  0  0  0  0  0
  183.1350  177.3260  136.6260 O   0  0  0  0  0  0  0  0  0  0  0  0
  187.4970  178.6310  138.9320 C   0  0  2  0  0  3  0  0  0  0  0  0
  185.2180  177.6870  139.5830 C   0  0  0  0  0  2  0  0  0  0  0  0
  183.7290  177.6700  142.4590 C   0  0  0  0  0  2  0  0  0  0  0  0
  183.4710  177.6130  137.8070 C   0  0  0  0  0  0  0  0  0  0  0  0
  182.5090  179.4240  141.1180 C   0  0  0  0  0  2  0  0  0  0  0  0
  185.9180  178.7270  142.3110 C   0  0  2  0  0  0  0  0  0  0  0  0
  185.1850  177.5100  142.8470 C   0  0  1  0  0  3  0  0  0  0  0  0
  187.3740  177.5330  137.8510 C   0  0  2  0  0  3  0  0  0  0  0  0
  186.7100  179.2590  143.4810 C   0  0  0  0  0  2  0  0  0  0  0  0
  183.4910  179.1570  142.2610 C   0  0  2  0  0  3  0  0  0  0  0  0
  184.8790  177.9940  138.1390 C   0  0  2  0  0  3  0  0  0  0  0  0
  181.1120  178.2200  138.6290 C   0  0  2  0  0  3  0  0  0  0  0  0
  184.8440  179.7680  141.9310 C   0  0  0  0  0  2  0  0  0  0  0  0
  182.4820  177.7640  138.8280 N   0  0  0  0  0  2  0  0  0  0  0  0
  181.1940  178.6440  141.2680 C   0  0  1  0  0  3  0  0  0  0  0  0
  186.8280  178.3240  141.2850 O   0  0  0  0  0  0  0  0  0  0  0  0
  181.3110  181.8550  137.4990 C   0  0  0  0  0  3  0  0  0  0  0  0
  180.5440  180.4950  135.6500 C   0  0  0  0  0  3  0  0  0  0  0  0
  180.7940  182.8510  135.3990 F   0  0  0  0  0  0  0  0  0  0  0  0
  181.3960  180.7140  138.3020 C   0  0  0  0  0  3  0  0  0  0  0  0
  181.0590  179.4560  137.7780 C   0  0  0  0  0  0  0  0  0  0  0  0
  180.8850  181.7450  136.1740 C   0  0  0  0  0  0  0  0  0  0  0  0
  180.6300  179.3530  136.4530 C   0  0  0  0  0  3  0  0  0  0  0  0
  180.3560  179.2450  142.3580 C   0  0  0  0  0  0  0  0  0  0  0  0
  178.9880  178.9180  144.4440 C   0  0  0  0  0  1  0  0  0  0  0  0
  179.7700  178.3900  143.3410 N   0  0  0  0  0  2  0  0  0  0  0  0
  180.1850  180.4910  142.4110 O   0  0  0  0  0  0  0  0  0  0  0  0
  188.9250  178.8620  136.6220 O   0  0  0  0  0  0  0  0  0  0  0  0
  188.4020  177.7280  136.7860 C   0  0  0  0  0  0  0  0  0  0  0  0
  188.7720  176.6570  135.9790 O   0  0  0  0  0  0  0  0  0  0  0  0
  188.8080  175.4080  136.4590 O   0  0  0  0  0  0  0  0  0  0  0  0
  188.7880  174.5940  135.3250 C   0  0  0  0  0  2  0  0  0  0  0  0
  187.4670  174.7590  134.5940 C   0  0  0  0  0  2  0  0  0  0  0  0
  186.4690  173.7860  135.1160 C   0  0  0  0  0  0  0  0  0  0  0  0
  185.6280  171.9640  135.7810 C   0  0  0  0  0  3  0  0  0  0  0  0
  186.7150  172.5120  135.2930 O   0  0  0  0  0  0  0  0  0  0  0  0
  184.6820  172.9670  135.9040 C   0  0  0  0  0  3  0  0  0  0  0  0
  185.2200  174.1280  135.4820 N   0  0  0  0  0  0  0  0  0  0  0  0
  188.7850  178.6020  139.5410 O   0  0  0  0  0  0  0  0  0  0  0  0
  189.3510  177.4610  140.1260 C   0  0  0  0  0  0  0  0  0  0  0  0
  189.5480  176.4070  139.3440 C   0  0  0  0  0  2  0  0  0  0  0  0
  190.3370  178.5470  143.6780 C   0  0  0  0  0  3  0  0  0  0  0  0
  190.6410  177.3800  144.2370 C   0  0  0  0  0  3  0  0  0  0  0  0
  190.0580  176.2550  142.0980 N   0  0  0  0  0  0  0  0  0  0  0  0
  190.4920  176.0810  143.4910 C   0  0  0  0  0  3  0  0  0  0  0  0
  189.7530  177.3990  141.5570 C   0  0  0  0  0  0  0  0  0  0  0  0
  189.8730  178.5960  142.3310 N   0  0  0  0  0  0  0  0  0  0  0  0
  2  1  2  0  0  0  0
  2 22  1  0  0  0  0
  3  5  1  0  0  0  0
  4  9  1  6  0  0  0
  4 23  1  0  0  0  0
  6 15  1  0  0  0  0
  7 11  2  0  0  0  0
  8 46  1  1  0  0  0
  8  4  1  0  0  0  0
 11 18  1  0  0  0  0
 11 21  1  0  0  0  0
 12 22  1  0  0  0  0
 13 20  1  6  0  0  0
 13 14  1  0  0  0  0
 13 16  1  0  0  0  0
 14 10  1  1  0  0  0
 14  3  1  0  0  0  0
 15 36  1  6  0  0  0
 15  8  1  0  0  0  0
 16  5  1  0  0  0  0
 17 12  1  6  0  0  0
 17 10  1  0  0  0  0
 18  6  1  6  0  0  0
 18  9  1  0  0  0  0
 19 28  1  6  0  0  0
 19 21  1  0  0  0  0
 19  2  1  0  0  0  0
 20 17  1  0  0  0  0
 22 31  1  1  0  0  0
 23 13  1  0  0  0  0
 24 27  1  0  0  0  0
 25 29  1  0  0  0  0
 25 30  2  0  0  0  0
 26 29  1  0  0  0  0
 28 27  2  0  0  0  0
 29 24  2  0  0  0  0
 30 28  1  0  0  0  0
 31 34  2  0  0  0  0
 31 33  1  0  0  0  0
 33 32  1  0  0  0  0
 35 36  2  0  0  0  0
 37 38  1  0  0  0  0
 37 36  1  0  0  0  0
 39 38  1  0  0  0  0
 40 41  1  0  0  0  0
 40 39  1  0  0  0  0
 41 43  1  0  0  0  0
 41 45  2  0  0  0  0
 42 44  2  0  0  0  0
 43 42  1  0  0  0  0
 45 44  1  0  0  0  0
 46 47  1  0  0  0  0
 47 53  1  0  0  0  0
 48 47  2  0  0  0  0
 49 50  1  0  0  0  0
 51 52  1  0  0  0  0
 52 50  2  0  0  0  0
 53 51  2  0  0  0  0
 53 54  1  0  0  0  0
 54 49  2  0  0  0  0
M  END
>  <MODEL>
9

>  <REMARK>
 VINA RESULT:      -4.3      3.121      7.424
  Name = 
  11 active torsions:
  status: ('A' for Active; 'I' for Inactive)
    1  A    between atoms: C_2  and  C_40
    2  A    between atoms: O_5  and  C_12
    3  A    between atoms: O_5  and  O_25
    4  A    between atoms: C_6  and  C_51
    5  A    between atoms: C_12  and  C_34
    6  A    between atoms: C_18  and  O_25
    7  A    between atoms: C_18  and  C_40
    8  A    between atoms: C_19  and  O_35
    9  A    between atoms: C_19  and  C_43
   10  A    between atoms: C_21  and  O_35
   11  A    between atoms: C_36  and  C_48
                            x       y       z     vdW  Elec       q    Type
                         _______ _______ _______ _____ _____    ______ ____

>  <TORSDO>
F 11

$$$$
