=
 OpenBabel11062414463D

 33 36  0  0  1  0  0  0  0  0999 V2000
  182.4160  177.9730  138.2030 O   0  0  0  0  0  0  0  0  0  0  0  0
  185.2360  178.3360  138.7790 N   0  0  0  0  0  0  0  0  0  0  0  0
  183.3150  177.4510  137.4940 C   0  0  0  0  0  0  0  0  0  0  0  0
  182.9350  176.6360  136.3790 N   0  0  0  0  0  0  0  0  0  0  0  0
  183.8070  175.9610  135.6890 C   0  0  0  0  0  0  0  0  0  0  0  0
  183.3720  175.1640  134.5940 N   0  0  0  0  0  1  0  0  0  0  0  0
  185.6980  176.7540  137.0410 C   0  0  0  0  0  0  0  0  0  0  0  0
  184.7600  177.5880  137.8210 C   0  0  0  0  0  0  0  0  0  0  0  0
  185.2420  175.9970  136.0350 C   0  0  0  0  0  3  0  0  0  0  0  0
  184.1930  180.4040  139.0860 O   0  0  0  0  0  0  0  0  0  0  0  0
  184.5480  179.3010  139.5860 C   0  0  0  0  0  0  0  0  0  0  0  0
  185.4810  178.9230  141.8570 C   0  0  0  0  0  3  0  0  0  0  0  0
  182.9390  178.6320  142.9690 C   0  0  0  0  0  3  0  0  0  0  0  0
  184.3540  179.0380  141.0290 C   0  0  0  0  0  0  0  0  0  0  0  0
  181.9480  178.9850  140.8470 F   0  0  0  0  0  0  0  0  0  0  0  0
  184.0700  178.5220  143.7790 C   0  0  0  0  0  3  0  0  0  0  0  0
  183.0720  178.8870  141.6000 C   0  0  0  0  0  0  0  0  0  0  0  0
  185.3420  178.6660  143.2230 C   0  0  0  0  0  3  0  0  0  0  0  0
  187.0970  176.7910  137.3530 N   0  0  0  0  0  2  0  0  0  0  0  0
  189.0860  177.8470  141.7990 C   0  0  0  0  0  3  0  0  0  0  0  0
  188.6320  178.8140  138.2340 N   0  0  0  0  0  2  0  0  0  0  0  0
  189.0880  176.0170  136.1120 C   0  0  0  0  0  2  0  0  0  0  0  0
  190.9420  177.0660  138.1100 O   0  0  0  0  0  0  0  0  0  0  0  0
  188.9000  178.4410  136.8480 C   0  0  0  0  0  2  0  0  0  0  0  0
  190.2940  177.3050  139.3290 C   0  0  0  0  0  0  0  0  0  0  0  0
  190.9370  175.8300  137.4830 N   0  0  0  0  0  0  0  0  0  0  0  0
  189.5990  175.4220  137.3410 N   0  0  0  0  0  2  0  0  0  0  0  0
  190.7610  176.6880  140.4970 C   0  0  0  0  0  3  0  0  0  0  0  0
  189.1960  178.1890  139.3960 C   0  0  0  0  0  0  0  0  0  0  0  0
  191.5440  174.9380  138.3010 O   0  0  0  0  0  1  0  0  0  0  0  0
  188.1400  177.1810  136.4060 C   0  0  2  0  0  3  0  0  0  0  0  0
  190.1590  176.9560  141.7280 C   0  0  0  0  0  3  0  0  0  0  0  0
  188.6080  178.4580  140.6380 C   0  0  0  0  0  3  0  0  0  0  0  0
  2 11  1  0  0  0  0
  3  8  1  0  0  0  0
  3  1  2  0  0  0  0
  4  3  1  0  0  0  0
  5  9  1  0  0  0  0
  5  4  2  0  0  0  0
  6  5  1  0  0  0  0
  7 19  1  0  0  0  0
  7  8  1  0  0  0  0
  8  2  2  0  0  0  0
  9  7  2  0  0  0  0
 10 11  2  0  0  0  0
 11 14  1  0  0  0  0
 12 18  1  0  0  0  0
 13 16  1  0  0  0  0
 14 17  1  0  0  0  0
 14 12  2  0  0  0  0
 15 17  1  0  0  0  0
 17 13  2  0  0  0  0
 18 16  2  0  0  0  0
 21 29  1  0  0  0  0
 22 31  1  0  0  0  0
 22 27  1  0  0  0  0
 23 25  1  0  0  0  0
 24 21  1  0  0  0  0
 25 29  2  0  0  0  0
 25 28  1  0  0  0  0
 26 23  1  0  0  0  0
 26 30  1  0  0  0  0
 27 26  1  0  0  0  0
 28 32  2  0  0  0  0
 29 33  1  0  0  0  0
 31 24  1  0  0  0  0
 31 19  1  1  0  0  0
 32 20  1  0  0  0  0
 33 20  2  0  0  0  0
M  END
>  <MODEL>
1

>  <REMARK>
 VINA RESULT:      -8.3      0.000      0.000
  Name = 
  4 active torsions:
  status: ('A' for Active; 'I' for Inactive)
    1  A    between atoms: N_1  and  C_24
    2  A    between atoms: N_1  and  C_29
    3  A    between atoms: N_6  and  C_21
    4  A    between atoms: C_13  and  C_21
                            x       y       z     vdW  Elec       q    Type
                         _______ _______ _______ _____ _____    ______ ____

>  <TORSDO>
F 4

$$$$
=
 OpenBabel11062414463D

 33 36  0  0  1  0  0  0  0  0999 V2000
  190.5230  177.6250  143.4180 O   0  0  0  0  0  0  0  0  0  0  0  0
  188.2880  177.0700  141.6540 N   0  0  0  0  0  0  0  0  0  0  0  0
  190.6810  177.4080  142.1890 C   0  0  0  0  0  0  0  0  0  0  0  0
  192.0020  177.4540  141.6380 N   0  0  0  0  0  0  0  0  0  0  0  0
  192.2200  177.3730  140.3580 C   0  0  0  0  0  0  0  0  0  0  0  0
  193.5530  177.4290  139.8660 N   0  0  0  0  0  1  0  0  0  0  0  0
  189.8320  177.1530  139.8260 C   0  0  0  0  0  0  0  0  0  0  0  0
  189.5310  177.1810  141.2720 C   0  0  0  0  0  0  0  0  0  0  0  0
  191.1000  177.2360  139.4050 C   0  0  0  0  0  3  0  0  0  0  0  0
  188.2170  176.0730  143.7660 O   0  0  0  0  0  0  0  0  0  0  0  0
  187.7680  176.9570  142.9860 C   0  0  0  0  0  0  0  0  0  0  0  0
  185.7700  178.3200  142.4170 C   0  0  0  0  0  3  0  0  0  0  0  0
  185.3140  178.9620  145.0940 C   0  0  0  0  0  3  0  0  0  0  0  0
  186.6340  177.8120  143.4000 C   0  0  0  0  0  0  0  0  0  0  0  0
  187.2000  177.6840  145.7430 F   0  0  0  0  0  0  0  0  0  0  0  0
  184.4640  179.4580  144.1030 C   0  0  0  0  0  3  0  0  0  0  0  0
  186.3960  178.1440  144.7510 C   0  0  0  0  0  0  0  0  0  0  0  0
  184.6930  179.1380  142.7640 C   0  0  0  0  0  3  0  0  0  0  0  0
  188.7580  177.0040  138.8870 N   0  0  0  0  0  2  0  0  0  0  0  0
  187.9120  172.4470  137.0530 C   0  0  0  0  0  3  0  0  0  0  0  0
  189.3370  175.8460  136.5320 N   0  0  0  0  0  2  0  0  0  0  0  0
  187.0800  178.3330  137.6530 C   0  0  0  0  0  2  0  0  0  0  0  0
  186.5760  176.2020  135.7200 O   0  0  0  0  0  0  0  0  0  0  0  0
  189.0310  177.2690  136.4210 C   0  0  0  0  0  2  0  0  0  0  0  0
  187.0230  174.9650  136.1990 C   0  0  0  0  0  0  0  0  0  0  0  0
  185.6700  176.9950  136.4070 N   0  0  0  0  0  0  0  0  0  0  0  0
  186.1690  177.1970  137.7060 N   0  0  0  0  0  2  0  0  0  0  0  0
  186.1280  173.8920  136.2960 C   0  0  0  0  0  3  0  0  0  0  0  0
  188.3770  174.7790  136.5540 C   0  0  0  0  0  0  0  0  0  0  0  0
  184.5100  176.3060  136.5250 O   0  0  0  0  0  1  0  0  0  0  0  0
  188.5400  177.8840  137.7400 C   0  0  2  0  0  3  0  0  0  0  0  0
  186.5690  172.6380  136.7220 C   0  0  0  0  0  3  0  0  0  0  0  0
  188.8100  173.5140  136.9700 C   0  0  0  0  0  3  0  0  0  0  0  0
  2 11  1  0  0  0  0
  3  1  2  0  0  0  0
  4  3  1  0  0  0  0
  5  4  2  0  0  0  0
  6  5  1  0  0  0  0
  7  8  1  0  0  0  0
  8  2  2  0  0  0  0
  8  3  1  0  0  0  0
  9  7  2  0  0  0  0
  9  5  1  0  0  0  0
 11 14  1  0  0  0  0
 11 10  2  0  0  0  0
 12 18  2  0  0  0  0
 12 14  1  0  0  0  0
 14 17  2  0  0  0  0
 16 13  2  0  0  0  0
 17 13  1  0  0  0  0
 17 15  1  0  0  0  0
 18 16  1  0  0  0  0
 19  7  1  0  0  0  0
 21 29  1  0  0  0  0
 22 27  1  0  0  0  0
 22 31  1  0  0  0  0
 23 25  1  0  0  0  0
 23 26  1  0  0  0  0
 24 21  1  0  0  0  0
 24 31  1  0  0  0  0
 25 28  2  0  0  0  0
 25 29  1  0  0  0  0
 26 30  1  0  0  0  0
 26 27  1  0  0  0  0
 28 32  1  0  0  0  0
 29 33  2  0  0  0  0
 31 19  1  1  0  0  0
 32 20  2  0  0  0  0
 33 20  1  0  0  0  0
M  END
>  <MODEL>
2

>  <REMARK>
 VINA RESULT:      -7.9      2.976      6.083
  Name = 
  4 active torsions:
  status: ('A' for Active; 'I' for Inactive)
    1  A    between atoms: N_1  and  C_24
    2  A    between atoms: N_1  and  C_29
    3  A    between atoms: N_6  and  C_21
    4  A    between atoms: C_13  and  C_21
                            x       y       z     vdW  Elec       q    Type
                         _______ _______ _______ _____ _____    ______ ____

>  <TORSDO>
F 4

$$$$
=
 OpenBabel11062414463D

 33 36  0  0  1  0  0  0  0  0999 V2000
  187.4370  178.5840  138.3310 O   0  0  0  0  0  0  0  0  0  0  0  0
  189.5210  177.0990  139.6980 N   0  0  0  0  0  0  0  0  0  0  0  0
  187.3800  178.3340  139.5630 C   0  0  0  0  0  0  0  0  0  0  0  0
  186.2610  178.8120  140.3190 N   0  0  0  0  0  0  0  0  0  0  0  0
  186.2070  178.7050  141.6140 C   0  0  0  0  0  0  0  0  0  0  0  0
  185.0720  179.2020  142.3140 N   0  0  0  0  0  1  0  0  0  0  0  0
  188.3870  177.5820  141.7510 C   0  0  0  0  0  0  0  0  0  0  0  0
  188.4750  177.6230  140.2770 C   0  0  0  0  0  0  0  0  0  0  0  0
  187.3120  178.0860  142.3720 C   0  0  0  0  0  3  0  0  0  0  0  0
  190.2300  177.8750  137.6120 O   0  0  0  0  0  0  0  0  0  0  0  0
  189.7720  176.9200  138.2980 C   0  0  0  0  0  0  0  0  0  0  0  0
  188.0640  175.4730  137.2190 C   0  0  0  0  0  3  0  0  0  0  0  0
  189.9030  173.4110  136.8330 C   0  0  0  0  0  3  0  0  0  0  0  0
  189.3900  175.6480  137.6460 C   0  0  0  0  0  0  0  0  0  0  0  0
  191.6050  174.7110  137.8430 F   0  0  0  0  0  0  0  0  0  0  0  0
  188.5810  173.2530  136.4140 C   0  0  0  0  0  3  0  0  0  0  0  0
  190.3120  174.5980  137.4480 C   0  0  0  0  0  0  0  0  0  0  0  0
  187.6610  174.2840  136.6080 C   0  0  0  0  0  3  0  0  0  0  0  0
  189.4440  176.9690  142.5020 N   0  0  0  0  0  2  0  0  0  0  0  0
  187.6620  177.4980  147.1270 C   0  0  0  0  0  3  0  0  0  0  0  0
  189.7110  178.8990  144.3540 N   0  0  0  0  0  2  0  0  0  0  0  0
  191.8050  176.4050  142.9630 C   0  0  0  0  0  2  0  0  0  0  0  0
  191.6270  177.2340  145.7580 O   0  0  0  0  0  0  0  0  0  0  0  0
  190.9040  178.7110  143.5320 C   0  0  0  0  0  2  0  0  0  0  0  0
  190.2950  177.3020  146.1840 C   0  0  0  0  0  0  0  0  0  0  0  0
  192.1890  176.0880  145.2180 N   0  0  0  0  0  0  0  0  0  0  0  0
  191.3780  175.6710  144.1480 N   0  0  0  0  0  2  0  0  0  0  0  0
  189.8810  176.5520  147.2930 C   0  0  0  0  0  3  0  0  0  0  0  0
  189.3720  178.1440  145.5270 C   0  0  0  0  0  0  0  0  0  0  0  0
  192.1470  175.1130  146.1570 O   0  0  0  0  0  1  0  0  0  0  0  0
  190.8030  177.5000  142.5930 C   0  0  2  0  0  3  0  0  0  0  0  0
  188.5690  176.6480  147.7630 C   0  0  0  0  0  3  0  0  0  0  0  0
  188.0630  178.2400  146.0140 C   0  0  0  0  0  3  0  0  0  0  0  0
  1  3  2  0  0  0  0
  2  8  2  0  0  0  0
  3  8  1  0  0  0  0
  3  4  1  0  0  0  0
  4  5  2  0  0  0  0
  5  6  1  0  0  0  0
  5  9  1  0  0  0  0
  7  9  2  0  0  0  0
  7 19  1  0  0  0  0
  8  7  1  0  0  0  0
 10 11  2  0  0  0  0
 11  2  1  0  0  0  0
 12 14  1  0  0  0  0
 13 17  1  0  0  0  0
 14 11  1  0  0  0  0
 16 18  1  0  0  0  0
 16 13  2  0  0  0  0
 17 14  2  0  0  0  0
 17 15  1  0  0  0  0
 18 12  2  0  0  0  0
 20 32  1  0  0  0  0
 21 29  1  0  0  0  0
 22 27  1  0  0  0  0
 23 25  1  0  0  0  0
 24 21  1  0  0  0  0
 25 28  1  0  0  0  0
 26 23  1  0  0  0  0
 26 30  1  0  0  0  0
 27 26  1  0  0  0  0
 28 32  2  0  0  0  0
 29 33  1  0  0  0  0
 29 25  2  0  0  0  0
 31 19  1  1  0  0  0
 31 22  1  0  0  0  0
 31 24  1  0  0  0  0
 33 20  2  0  0  0  0
M  END
>  <MODEL>
3

>  <REMARK>
 VINA RESULT:      -7.8      4.402      7.109
  Name = 
  4 active torsions:
  status: ('A' for Active; 'I' for Inactive)
    1  A    between atoms: N_1  and  C_24
    2  A    between atoms: N_1  and  C_29
    3  A    between atoms: N_6  and  C_21
    4  A    between atoms: C_13  and  C_21
                            x       y       z     vdW  Elec       q    Type
                         _______ _______ _______ _____ _____    ______ ____

>  <TORSDO>
F 4

$$$$
=
 OpenBabel11062414463D

 33 36  0  0  1  0  0  0  0  0999 V2000
  182.9310  179.2760  143.1340 O   0  0  0  0  0  0  0  0  0  0  0  0
  184.5070  177.9190  141.1110 N   0  0  0  0  0  0  0  0  0  0  0  0
  182.3990  178.6660  142.1710 C   0  0  0  0  0  0  0  0  0  0  0  0
  180.9690  178.6230  142.0780 N   0  0  0  0  0  0  0  0  0  0  0  0
  180.3570  177.9000  141.1880 C   0  0  0  0  0  0  0  0  0  0  0  0
  178.9350  177.8920  141.1460 N   0  0  0  0  0  1  0  0  0  0  0  0
  182.4550  177.0730  140.2140 C   0  0  0  0  0  0  0  0  0  0  0  0
  183.2030  177.9210  141.1650 C   0  0  0  0  0  0  0  0  0  0  0  0
  181.1150  177.0750  140.2270 C   0  0  0  0  0  3  0  0  0  0  0  0
  185.6860  179.9070  141.4540 O   0  0  0  0  0  0  0  0  0  0  0  0
  185.4330  178.7340  141.8430 C   0  0  0  0  0  0  0  0  0  0  0  0
  185.6090  178.2500  144.2740 C   0  0  0  0  0  3  0  0  0  0  0  0
  188.0730  176.9830  143.9510 C   0  0  0  0  0  3  0  0  0  0  0  0
  186.1660  178.1520  142.9890 C   0  0  0  0  0  0  0  0  0  0  0  0
  188.0010  177.3910  141.6190 F   0  0  0  0  0  0  0  0  0  0  0  0
  187.5050  177.0870  145.2210 C   0  0  0  0  0  3  0  0  0  0  0  0
  187.4140  177.5120  142.8360 C   0  0  0  0  0  0  0  0  0  0  0  0
  186.2730  177.7220  145.3830 C   0  0  0  0  0  3  0  0  0  0  0  0
  183.1750  176.2780  139.2630 N   0  0  0  0  0  2  0  0  0  0  0  0
  187.8090  177.8920  138.3860 C   0  0  0  0  0  3  0  0  0  0  0  0
  184.2530  177.7590  137.2960 N   0  0  0  0  0  2  0  0  0  0  0  0
  182.9770  174.4690  137.5920 C   0  0  0  0  0  2  0  0  0  0  0  0
  185.3490  175.3410  136.1270 O   0  0  0  0  0  0  0  0  0  0  0  0
  183.1700  176.8890  136.8440 C   0  0  0  0  0  2  0  0  0  0  0  0
  186.1500  176.1800  136.9110 C   0  0  0  0  0  0  0  0  0  0  0  0
  184.9820  174.0640  136.5210 N   0  0  0  0  0  0  0  0  0  0  0  0
  184.3870  174.1560  137.7910 N   0  0  0  0  0  2  0  0  0  0  0  0
  187.4910  175.8440  137.1410 C   0  0  0  0  0  3  0  0  0  0  0  0
  185.6290  177.3780  137.4450 C   0  0  0  0  0  0  0  0  0  0  0  0
  186.1080  173.3240  136.6590 O   0  0  0  0  0  1  0  0  0  0  0  0
  182.6740  175.9290  137.9350 C   0  0  2  0  0  3  0  0  0  0  0  0
  188.3180  176.6950  137.8770 C   0  0  0  0  0  3  0  0  0  0  0  0
  186.4710  178.2290  138.1720 C   0  0  0  0  0  3  0  0  0  0  0  0
  2  8  2  0  0  0  0
  2 11  1  0  0  0  0
  3  1  2  0  0  0  0
  4  3  1  0  0  0  0
  5  4  2  0  0  0  0
  6  5  1  0  0  0  0
  7  9  2  0  0  0  0
  7  8  1  0  0  0  0
  8  3  1  0  0  0  0
  9  5  1  0  0  0  0
 10 11  2  0  0  0  0
 11 14  1  0  0  0  0
 12 18  1  0  0  0  0
 13 16  1  0  0  0  0
 14 12  2  0  0  0  0
 15 17  1  0  0  0  0
 16 18  2  0  0  0  0
 17 14  1  0  0  0  0
 17 13  2  0  0  0  0
 19  7  1  0  0  0  0
 21 29  1  0  0  0  0
 22 27  1  0  0  0  0
 22 31  1  0  0  0  0
 23 26  1  0  0  0  0
 23 25  1  0  0  0  0
 24 21  1  0  0  0  0
 24 31  1  0  0  0  0
 25 28  2  0  0  0  0
 25 29  1  0  0  0  0
 26 30  1  0  0  0  0
 26 27  1  0  0  0  0
 28 32  1  0  0  0  0
 29 33  2  0  0  0  0
 31 19  1  1  0  0  0
 32 20  2  0  0  0  0
 33 20  1  0  0  0  0
M  END
>  <MODEL>
4

>  <REMARK>
 VINA RESULT:      -7.5      3.116      5.001
  Name = 
  4 active torsions:
  status: ('A' for Active; 'I' for Inactive)
    1  A    between atoms: N_1  and  C_24
    2  A    between atoms: N_1  and  C_29
    3  A    between atoms: N_6  and  C_21
    4  A    between atoms: C_13  and  C_21
                            x       y       z     vdW  Elec       q    Type
                         _______ _______ _______ _____ _____    ______ ____

>  <TORSDO>
F 4

$$$$
=
 OpenBabel11062414463D

 33 36  0  0  1  0  0  0  0  0999 V2000
  185.2570  179.4780  139.3150 O   0  0  0  0  0  0  0  0  0  0  0  0
  187.6300  177.8770  139.7890 N   0  0  0  0  0  0  0  0  0  0  0  0
  185.5260  179.0010  140.4480 C   0  0  0  0  0  0  0  0  0  0  0  0
  184.6440  179.2720  141.5450 N   0  0  0  0  0  0  0  0  0  0  0  0
  184.9310  178.9250  142.7640 C   0  0  0  0  0  0  0  0  0  0  0  0
  184.0190  179.2240  143.8140 N   0  0  0  0  0  1  0  0  0  0  0  0
  187.0740  177.9110  142.1180 C   0  0  0  0  0  0  0  0  0  0  0  0
  186.7720  178.2290  140.7070 C   0  0  0  0  0  0  0  0  0  0  0  0
  186.1990  178.2360  143.0780 C   0  0  0  0  0  3  0  0  0  0  0  0
  187.8380  179.0370  137.7720 O   0  0  0  0  0  0  0  0  0  0  0  0
  187.5050  177.9740  138.3630 C   0  0  0  0  0  0  0  0  0  0  0  0
  185.5400  176.9710  137.2190 C   0  0  0  0  0  3  0  0  0  0  0  0
  186.9640  174.6610  136.5710 C   0  0  0  0  0  3  0  0  0  0  0  0
  186.8840  176.8620  137.6100 C   0  0  0  0  0  0  0  0  0  0  0  0
  188.8960  175.5280  137.6330 F   0  0  0  0  0  0  0  0  0  0  0  0
  185.6280  174.7850  136.1890 C   0  0  0  0  0  3  0  0  0  0  0  0
  187.5960  175.6890  137.2790 C   0  0  0  0  0  0  0  0  0  0  0  0
  184.9150  175.9400  136.5150 C   0  0  0  0  0  3  0  0  0  0  0  0
  188.2920  177.2270  142.4390 N   0  0  0  0  0  2  0  0  0  0  0  0
  188.8030  177.4390  147.3920 C   0  0  0  0  0  3  0  0  0  0  0  0
  189.5940  178.9200  144.0710 N   0  0  0  0  0  2  0  0  0  0  0  0
  190.5200  176.3980  141.7650 C   0  0  0  0  0  2  0  0  0  0  0  0
  191.6950  176.9460  144.3820 O   0  0  0  0  0  0  0  0  0  0  0  0
  190.2700  178.7070  142.7940 C   0  0  0  0  0  2  0  0  0  0  0  0
  190.7060  177.0940  145.3630 C   0  0  0  0  0  0  0  0  0  0  0  0
  191.8080  175.8140  143.5900 N   0  0  0  0  0  0  0  0  0  0  0  0
  190.5640  175.5880  142.9770 N   0  0  0  0  0  2  0  0  0  0  0  0
  190.7260  176.2760  146.5000 C   0  0  0  0  0  3  0  0  0  0  0  0
  189.7080  178.0840  145.2310 C   0  0  0  0  0  0  0  0  0  0  0  0
  192.0560  174.7550  144.3980 O   0  0  0  0  0  1  0  0  0  0  0  0
  189.6100  177.6150  141.9390 C   0  0  2  0  0  3  0  0  0  0  0  0
  189.7780  176.4450  147.5110 C   0  0  0  0  0  3  0  0  0  0  0  0
  188.7690  178.2520  146.2570 C   0  0  0  0  0  3  0  0  0  0  0  0
  1  3  2  0  0  0  0
  2  8  2  0  0  0  0
  3  8  1  0  0  0  0
  3  4  1  0  0  0  0
  4  5  2  0  0  0  0
  5  9  1  0  0  0  0
  5  6  1  0  0  0  0
  7 19  1  0  0  0  0
  7  9  2  0  0  0  0
  8  7  1  0  0  0  0
 10 11  2  0  0  0  0
 11  2  1  0  0  0  0
 12 14  1  0  0  0  0
 13 17  1  0  0  0  0
 14 11  1  0  0  0  0
 16 18  1  0  0  0  0
 16 13  2  0  0  0  0
 17 14  2  0  0  0  0
 17 15  1  0  0  0  0
 18 12  2  0  0  0  0
 20 32  1  0  0  0  0
 21 29  1  0  0  0  0
 22 31  1  0  0  0  0
 22 27  1  0  0  0  0
 23 25  1  0  0  0  0
 24 21  1  0  0  0  0
 25 28  1  0  0  0  0
 26 23  1  0  0  0  0
 26 30  1  0  0  0  0
 27 26  1  0  0  0  0
 28 32  2  0  0  0  0
 29 25  2  0  0  0  0
 29 33  1  0  0  0  0
 31 19  1  1  0  0  0
 31 24  1  0  0  0  0
 33 20  2  0  0  0  0
M  END
>  <MODEL>
5

>  <REMARK>
 VINA RESULT:      -7.5      3.863      6.145
  Name = 
  4 active torsions:
  status: ('A' for Active; 'I' for Inactive)
    1  A    between atoms: N_1  and  C_24
    2  A    between atoms: N_1  and  C_29
    3  A    between atoms: N_6  and  C_21
    4  A    between atoms: C_13  and  C_21
                            x       y       z     vdW  Elec       q    Type
                         _______ _______ _______ _____ _____    ______ ____

>  <TORSDO>
F 4

$$$$
=
 OpenBabel11062414463D

 33 36  0  0  1  0  0  0  0  0999 V2000
  182.8930  178.6050  141.7690 O   0  0  0  0  0  0  0  0  0  0  0  0
  185.5310  178.4670  140.5690 N   0  0  0  0  0  0  0  0  0  0  0  0
  183.0560  178.4160  140.5350 C   0  0  0  0  0  0  0  0  0  0  0  0
  181.9060  178.2450  139.6990 N   0  0  0  0  0  0  0  0  0  0  0  0
  182.0070  177.9140  138.4450 C   0  0  0  0  0  0  0  0  0  0  0  0
  180.8300  177.7520  137.6630 N   0  0  0  0  0  1  0  0  0  0  0  0
  184.4620  177.8540  138.5160 C   0  0  0  0  0  0  0  0  0  0  0  0
  184.4090  178.2870  139.9270 C   0  0  0  0  0  0  0  0  0  0  0  0
  183.3270  177.6880  137.8240 C   0  0  0  0  0  3  0  0  0  0  0  0
  185.2870  180.1280  142.1940 O   0  0  0  0  0  0  0  0  0  0  0  0
  185.7320  178.9870  141.8910 C   0  0  0  0  0  0  0  0  0  0  0  0
  187.8250  177.7760  142.4630 C   0  0  0  0  0  3  0  0  0  0  0  0
  186.9070  177.1890  145.0320 C   0  0  0  0  0  3  0  0  0  0  0  0
  186.5530  178.2240  142.8560 C   0  0  0  0  0  0  0  0  0  0  0  0
  184.8760  178.3240  144.5880 F   0  0  0  0  0  0  0  0  0  0  0  0
  188.1690  176.7530  144.6260 C   0  0  0  0  0  3  0  0  0  0  0  0
  186.0970  177.9200  144.1560 C   0  0  0  0  0  0  0  0  0  0  0  0
  188.6280  177.0450  143.3410 C   0  0  0  0  0  3  0  0  0  0  0  0
  185.7360  177.6470  137.8920 N   0  0  0  0  0  2  0  0  0  0  0  0
  190.3250  177.5700  139.8350 C   0  0  0  0  0  3  0  0  0  0  0  0
  188.0060  178.9450  137.2700 N   0  0  0  0  0  2  0  0  0  0  0  0
  186.0780  176.3570  135.8120 C   0  0  0  0  0  2  0  0  0  0  0  0
  188.9880  176.5360  135.9870 O   0  0  0  0  0  0  0  0  0  0  0  0
  187.1800  178.6270  136.1080 C   0  0  0  0  0  2  0  0  0  0  0  0
  189.3990  176.8720  137.2830 C   0  0  0  0  0  0  0  0  0  0  0  0
  188.1920  175.4350  135.7100 N   0  0  0  0  0  0  0  0  0  0  0  0
  187.0420  175.5180  136.5130 N   0  0  0  0  0  2  0  0  0  0  0  0
  190.2860  176.0320  137.9700 C   0  0  0  0  0  3  0  0  0  0  0  0
  188.9550  178.0650  137.8910 C   0  0  0  0  0  0  0  0  0  0  0  0
  188.8650  174.3220  136.0860 O   0  0  0  0  0  1  0  0  0  0  0  0
  185.9720  177.7430  136.4520 C   0  0  2  0  0  3  0  0  0  0  0  0
  190.7470  176.3780  139.2420 C   0  0  0  0  0  3  0  0  0  0  0  0
  189.4320  178.4070  139.1620 C   0  0  0  0  0  3  0  0  0  0  0  0
  2 11  1  0  0  0  0
  3  1  2  0  0  0  0
  4  3  1  0  0  0  0
  5  4  2  0  0  0  0
  6  5  1  0  0  0  0
  7  8  1  0  0  0  0
  8  3  1  0  0  0  0
  8  2  2  0  0  0  0
  9  5  1  0  0  0  0
  9  7  2  0  0  0  0
 11 10  2  0  0  0  0
 11 14  1  0  0  0  0
 12 14  2  0  0  0  0
 12 18  1  0  0  0  0
 14 17  1  0  0  0  0
 16 13  1  0  0  0  0
 17 15  1  0  0  0  0
 17 13  2  0  0  0  0
 18 16  2  0  0  0  0
 19  7  1  0  0  0  0
 21 29  1  0  0  0  0
 22 31  1  0  0  0  0
 22 27  1  0  0  0  0
 23 25  1  0  0  0  0
 24 31  1  0  0  0  0
 24 21  1  0  0  0  0
 25 29  2  0  0  0  0
 25 28  1  0  0  0  0
 26 23  1  0  0  0  0
 26 30  1  0  0  0  0
 26 27  1  0  0  0  0
 28 32  2  0  0  0  0
 29 33  1  0  0  0  0
 31 19  1  1  0  0  0
 32 20  1  0  0  0  0
 33 20  2  0  0  0  0
M  END
>  <MODEL>
6

>  <REMARK>
 VINA RESULT:      -7.4      2.170      3.109
  Name = 
  4 active torsions:
  status: ('A' for Active; 'I' for Inactive)
    1  A    between atoms: N_1  and  C_24
    2  A    between atoms: N_1  and  C_29
    3  A    between atoms: N_6  and  C_21
    4  A    between atoms: C_13  and  C_21
                            x       y       z     vdW  Elec       q    Type
                         _______ _______ _______ _____ _____    ______ ____

>  <TORSDO>
F 4

$$$$
=
 OpenBabel11062414463D

 33 36  0  0  1  0  0  0  0  0999 V2000
  181.3510  176.9680  139.2800 O   0  0  0  0  0  0  0  0  0  0  0  0
  184.0940  177.8940  139.0960 N   0  0  0  0  0  0  0  0  0  0  0  0
  182.1740  176.4620  138.4740 C   0  0  0  0  0  0  0  0  0  0  0  0
  181.7500  175.3820  137.6330 N   0  0  0  0  0  0  0  0  0  0  0  0
  182.5820  174.7280  136.8780 C   0  0  0  0  0  0  0  0  0  0  0  0
  182.1060  173.6610  136.0660 N   0  0  0  0  0  1  0  0  0  0  0  0
  184.5060  176.0810  137.5870 C   0  0  0  0  0  0  0  0  0  0  0  0
  183.5960  176.8960  138.4190 C   0  0  0  0  0  0  0  0  0  0  0  0
  184.0190  175.0680  136.8600 C   0  0  0  0  0  3  0  0  0  0  0  0
  182.8150  179.8390  139.2960 O   0  0  0  0  0  0  0  0  0  0  0  0
  183.4010  178.8820  139.8720 C   0  0  0  0  0  0  0  0  0  0  0  0
  184.7180  178.6270  141.9640 C   0  0  0  0  0  3  0  0  0  0  0  0
  182.4420  178.8990  143.5540 C   0  0  0  0  0  3  0  0  0  0  0  0
  183.4730  178.8290  141.3490 C   0  0  0  0  0  0  0  0  0  0  0  0
  181.0970  179.1580  141.6220 F   0  0  0  0  0  0  0  0  0  0  0  0
  183.6890  178.6990  144.1500 C   0  0  0  0  0  3  0  0  0  0  0  0
  182.3270  178.9640  142.1620 C   0  0  0  0  0  0  0  0  0  0  0  0
  184.8270  178.5610  143.3540 C   0  0  0  0  0  3  0  0  0  0  0  0
  185.9010  176.4080  137.5450 N   0  0  0  0  0  2  0  0  0  0  0  0
  188.8530  177.7100  141.3440 C   0  0  0  0  0  3  0  0  0  0  0  0
  187.3140  178.6300  138.0830 N   0  0  0  0  0  2  0  0  0  0  0  0
  187.5690  175.9530  135.7800 C   0  0  0  0  0  2  0  0  0  0  0  0
  189.7280  177.2500  137.2590 O   0  0  0  0  0  0  0  0  0  0  0  0
  187.2460  178.3140  136.6580 C   0  0  0  0  0  2  0  0  0  0  0  0
  189.4090  177.3780  138.6170 C   0  0  0  0  0  0  0  0  0  0  0  0
  189.7280  176.0330  136.5950 N   0  0  0  0  0  0  0  0  0  0  0  0
  188.4740  175.4300  136.7960 N   0  0  0  0  0  2  0  0  0  0  0  0
  190.2580  176.8270  139.5850 C   0  0  0  0  0  3  0  0  0  0  0  0
  188.2560  178.0860  139.0190 C   0  0  0  0  0  0  0  0  0  0  0  0
  190.6550  175.2350  137.1770 O   0  0  0  0  0  1  0  0  0  0  0  0
  186.5820  176.9590  136.3740 C   0  0  2  0  0  3  0  0  0  0  0  0
  189.9820  176.9910  140.9440 C   0  0  0  0  0  3  0  0  0  0  0  0
  187.9960  178.2530  140.3850 C   0  0  0  0  0  3  0  0  0  0  0  0
  2 11  1  0  0  0  0
  3  1  2  0  0  0  0
  4  3  1  0  0  0  0
  5  4  2  0  0  0  0
  6  5  1  0  0  0  0
  7  8  1  0  0  0  0
  8  3  1  0  0  0  0
  8  2  2  0  0  0  0
  9  5  1  0  0  0  0
  9  7  2  0  0  0  0
 10 11  2  0  0  0  0
 11 14  1  0  0  0  0
 12 18  1  0  0  0  0
 13 16  1  0  0  0  0
 14 12  2  0  0  0  0
 14 17  1  0  0  0  0
 15 17  1  0  0  0  0
 17 13  2  0  0  0  0
 18 16  2  0  0  0  0
 19  7  1  0  0  0  0
 21 29  1  0  0  0  0
 22 31  1  0  0  0  0
 22 27  1  0  0  0  0
 23 25  1  0  0  0  0
 24 21  1  0  0  0  0
 25 29  2  0  0  0  0
 25 28  1  0  0  0  0
 26 27  1  0  0  0  0
 26 30  1  0  0  0  0
 26 23  1  0  0  0  0
 28 32  2  0  0  0  0
 29 33  1  0  0  0  0
 31 24  1  0  0  0  0
 31 19  1  1  0  0  0
 32 20  1  0  0  0  0
 33 20  2  0  0  0  0
M  END
>  <MODEL>
7

>  <REMARK>
 VINA RESULT:      -7.3      1.314      1.389
  Name = 
  4 active torsions:
  status: ('A' for Active; 'I' for Inactive)
    1  A    between atoms: N_1  and  C_24
    2  A    between atoms: N_1  and  C_29
    3  A    between atoms: N_6  and  C_21
    4  A    between atoms: C_13  and  C_21
                            x       y       z     vdW  Elec       q    Type
                         _______ _______ _______ _____ _____    ______ ____

>  <TORSDO>
F 4

$$$$
=
 OpenBabel11062414463D

 33 36  0  0  1  0  0  0  0  0999 V2000
  186.0730  179.1120  138.1240 O   0  0  0  0  0  0  0  0  0  0  0  0
  187.8460  178.2890  140.2670 N   0  0  0  0  0  0  0  0  0  0  0  0
  185.6420  178.7930  139.2620 C   0  0  0  0  0  0  0  0  0  0  0  0
  184.2330  178.8550  139.5140 N   0  0  0  0  0  0  0  0  0  0  0  0
  183.7360  178.6690  140.7010 C   0  0  0  0  0  0  0  0  0  0  0  0
  182.3280  178.7470  140.8950 N   0  0  0  0  0  1  0  0  0  0  0  0
  185.9390  178.2840  141.7160 C   0  0  0  0  0  0  0  0  0  0  0  0
  186.5530  178.4270  140.3800 C   0  0  0  0  0  0  0  0  0  0  0  0
  184.6120  178.3920  141.8570 C   0  0  0  0  0  3  0  0  0  0  0  0
  189.0180  179.3560  138.5510 O   0  0  0  0  0  0  0  0  0  0  0  0
  188.6440  178.2720  139.0750 C   0  0  0  0  0  0  0  0  0  0  0  0
  187.9030  176.3360  137.7050 C   0  0  0  0  0  3  0  0  0  0  0  0
  190.4240  175.1470  137.8310 C   0  0  0  0  0  3  0  0  0  0  0  0
  188.9310  176.9820  138.4100 C   0  0  0  0  0  0  0  0  0  0  0  0
  191.2310  176.9480  139.1400 F   0  0  0  0  0  0  0  0  0  0  0  0
  189.3910  174.5190  137.1330 C   0  0  0  0  0  3  0  0  0  0  0  0
  190.2020  176.3710  138.4700 C   0  0  0  0  0  0  0  0  0  0  0  0
  188.1300  175.1130  137.0710 C   0  0  0  0  0  3  0  0  0  0  0  0
  186.7740  177.9970  142.8450 N   0  0  0  0  0  2  0  0  0  0  0  0
  191.7370  178.4340  142.7040 C   0  0  0  0  0  3  0  0  0  0  0  0
  188.7680  176.1950  142.8490 N   0  0  0  0  0  2  0  0  0  0  0  0
  186.4170  177.3870  145.2130 C   0  0  0  0  0  2  0  0  0  0  0  0
  189.2400  176.7780  145.6510 O   0  0  0  0  0  0  0  0  0  0  0  0
  187.6130  175.7870  143.6440 C   0  0  0  0  0  2  0  0  0  0  0  0
  190.0440  177.3530  144.6580 C   0  0  0  0  0  0  0  0  0  0  0  0
  188.3700  177.5160  146.4380 N   0  0  0  0  0  0  0  0  0  0  0  0
  187.5310  178.2520  145.5840 N   0  0  0  0  0  2  0  0  0  0  0  0
  191.0790  178.2240  145.0210 C   0  0  0  0  0  3  0  0  0  0  0  0
  189.8410  177.0360  143.2980 C   0  0  0  0  0  0  0  0  0  0  0  0
  189.0990  178.4080  147.1520 O   0  0  0  0  0  1  0  0  0  0  0  0
  186.5510  176.8890  143.7730 C   0  0  2  0  0  3  0  0  0  0  0  0
  191.9230  178.7650  144.0480 C   0  0  0  0  0  3  0  0  0  0  0  0
  190.7000  177.5760  142.3330 C   0  0  0  0  0  3  0  0  0  0  0  0
  1  3  2  0  0  0  0
  2  8  2  0  0  0  0
  3  4  1  0  0  0  0
  3  8  1  0  0  0  0
  4  5  2  0  0  0  0
  5  6  1  0  0  0  0
  5  9  1  0  0  0  0
  7  9  2  0  0  0  0
  7 19  1  0  0  0  0
  8  7  1  0  0  0  0
 10 11  2  0  0  0  0
 11  2  1  0  0  0  0
 12 14  1  0  0  0  0
 13 17  1  0  0  0  0
 14 17  2  0  0  0  0
 14 11  1  0  0  0  0
 16 13  2  0  0  0  0
 17 15  1  0  0  0  0
 18 16  1  0  0  0  0
 18 12  2  0  0  0  0
 20 32  1  0  0  0  0
 21 29  1  0  0  0  0
 21 24  1  0  0  0  0
 22 27  1  0  0  0  0
 23 26  1  0  0  0  0
 24 31  1  0  0  0  0
 25 28  1  0  0  0  0
 25 23  1  0  0  0  0
 26 30  1  0  0  0  0
 27 26  1  0  0  0  0
 29 25  2  0  0  0  0
 31 19  1  6  0  0  0
 31 22  1  0  0  0  0
 32 28  2  0  0  0  0
 33 20  2  0  0  0  0
 33 29  1  0  0  0  0
M  END
>  <MODEL>
8

>  <REMARK>
 VINA RESULT:      -7.3      4.021      6.521
  Name = 
  4 active torsions:
  status: ('A' for Active; 'I' for Inactive)
    1  A    between atoms: N_1  and  C_24
    2  A    between atoms: N_1  and  C_29
    3  A    between atoms: N_6  and  C_21
    4  A    between atoms: C_13  and  C_21
                            x       y       z     vdW  Elec       q    Type
                         _______ _______ _______ _____ _____    ______ ____

>  <TORSDO>
F 4

$$$$
=
 OpenBabel11062414463D

 33 36  0  0  1  0  0  0  0  0999 V2000
  185.0680  179.0330  138.3530 O   0  0  0  0  0  0  0  0  0  0  0  0
  187.6140  178.3730  139.5790 N   0  0  0  0  0  0  0  0  0  0  0  0
  185.1740  178.7890  139.5830 C   0  0  0  0  0  0  0  0  0  0  0  0
  184.0050  178.8560  140.4090 N   0  0  0  0  0  0  0  0  0  0  0  0
  184.0670  178.7470  141.7030 C   0  0  0  0  0  0  0  0  0  0  0  0
  182.8740  178.8270  142.4740 N   0  0  0  0  0  1  0  0  0  0  0  0
  186.5060  178.4510  141.7000 C   0  0  0  0  0  0  0  0  0  0  0  0
  186.4870  178.5070  140.2240 C   0  0  0  0  0  0  0  0  0  0  0  0
  185.3610  178.5570  142.3880 C   0  0  0  0  0  3  0  0  0  0  0  0
  187.8810  179.3290  137.4640 O   0  0  0  0  0  0  0  0  0  0  0  0
  187.8290  178.2810  138.1640 C   0  0  0  0  0  0  0  0  0  0  0  0
  186.7500  176.1190  137.5840 C   0  0  0  0  0  3  0  0  0  0  0  0
  189.0360  175.2120  136.2660 C   0  0  0  0  0  3  0  0  0  0  0  0
  187.8800  176.9500  137.5200 C   0  0  0  0  0  0  0  0  0  0  0  0
  190.1530  177.2400  136.7630 F   0  0  0  0  0  0  0  0  0  0  0  0
  187.9030  174.3990  136.3370 C   0  0  0  0  0  3  0  0  0  0  0  0
  189.0320  176.4810  136.8530 C   0  0  0  0  0  0  0  0  0  0  0  0
  186.7610  174.8520  136.9980 C   0  0  0  0  0  3  0  0  0  0  0  0
  187.7510  178.2490  142.3800 N   0  0  0  0  0  2  0  0  0  0  0  0
  191.7450  177.1640  139.6020 C   0  0  0  0  0  3  0  0  0  0  0  0
  189.0640  175.9560  141.8830 N   0  0  0  0  0  2  0  0  0  0  0  0
  188.7070  178.1300  144.6560 C   0  0  0  0  0  2  0  0  0  0  0  0
  191.1320  176.7800  143.7430 O   0  0  0  0  0  0  0  0  0  0  0  0
  188.5160  176.0320  143.2350 C   0  0  0  0  0  2  0  0  0  0  0  0
  191.3110  176.9360  142.3620 C   0  0  0  0  0  0  0  0  0  0  0  0
  190.9990  177.8510  144.6120 N   0  0  0  0  0  0  0  0  0  0  0  0
  189.9590  178.6680  144.1380 N   0  0  0  0  0  2  0  0  0  0  0  0
  192.4960  177.5040  141.8760 C   0  0  0  0  0  3  0  0  0  0  0  0
  190.3230  176.4970  141.4550 C   0  0  0  0  0  0  0  0  0  0  0  0
  192.1390  178.5810  144.5600 O   0  0  0  0  0  1  0  0  0  0  0  0
  187.9160  177.4070  143.5640 C   0  0  2  0  0  3  0  0  0  0  0  0
  192.7130  177.6190  140.5010 C   0  0  0  0  0  3  0  0  0  0  0  0
  190.5570  176.6080  140.0800 C   0  0  0  0  0  3  0  0  0  0  0  0
  1  3  2  0  0  0  0
  2  8  2  0  0  0  0
  3  8  1  0  0  0  0
  3  4  1  0  0  0  0
  4  5  2  0  0  0  0
  5  9  1  0  0  0  0
  5  6  1  0  0  0  0
  7 19  1  0  0  0  0
  7  9  2  0  0  0  0
  8  7  1  0  0  0  0
 10 11  2  0  0  0  0
 11  2  1  0  0  0  0
 13 16  2  0  0  0  0
 13 17  1  0  0  0  0
 14 12  1  0  0  0  0
 14 11  1  0  0  0  0
 15 17  1  0  0  0  0
 16 18  1  0  0  0  0
 17 14  2  0  0  0  0
 18 12  2  0  0  0  0
 20 33  2  0  0  0  0
 20 32  1  0  0  0  0
 21 24  1  0  0  0  0
 23 26  1  0  0  0  0
 24 31  1  0  0  0  0
 25 23  1  0  0  0  0
 27 26  1  0  0  0  0
 27 22  1  0  0  0  0
 28 25  1  0  0  0  0
 29 21  1  0  0  0  0
 29 25  2  0  0  0  0
 30 26  1  0  0  0  0
 31 19  1  6  0  0  0
 31 22  1  0  0  0  0
 32 28  2  0  0  0  0
 33 29  1  0  0  0  0
M  END
>  <MODEL>
9

>  <REMARK>
 VINA RESULT:      -7.3      3.433      6.024
  Name = 
  4 active torsions:
  status: ('A' for Active; 'I' for Inactive)
    1  A    between atoms: N_1  and  C_24
    2  A    between atoms: N_1  and  C_29
    3  A    between atoms: N_6  and  C_21
    4  A    between atoms: C_13  and  C_21
                            x       y       z     vdW  Elec       q    Type
                         _______ _______ _______ _____ _____    ______ ____

>  <TORSDO>
F 4

$$$$
