=
 OpenBabel11062412203D

 43 48  0  0  1  0  0  0  0  0999 V2000
  188.5290  178.4030  139.8060 C   0  0  0  0  0  0  0  0  0  0  0  0
  186.4770  178.4730  141.1020 C   0  0  0  0  0  3  0  0  0  0  0  0
  187.1410  178.6150  139.8830 C   0  0  0  0  0  3  0  0  0  0  0  0
  187.1920  178.1190  142.2500 C   0  0  0  0  0  3  0  0  0  0  0  0
  188.5840  177.9360  142.1930 C   0  0  0  0  0  0  0  0  0  0  0  0
  189.2400  178.0680  140.9620 C   0  0  0  0  0  3  0  0  0  0  0  0
  189.2220  178.4430  138.5510 N   0  0  0  0  0  2  0  0  0  0  0  0
  191.2740  175.6100  137.0810 N   0  0  0  0  0  0  0  0  0  0  0  0
  190.1740  174.7290  136.6400 C   0  0  2  0  0  0  0  0  0  0  0  0
  189.2170  177.6110  136.2060 C   0  0  0  0  0  2  0  0  0  0  0  0
  189.4980  177.2940  137.6940 C   0  0  1  0  0  3  0  0  0  0  0  0
  190.8650  176.6660  138.0290 C   0  0  1  0  0  3  0  0  0  0  0  0
  189.2310  175.4000  135.6500 C   0  0  2  0  0  3  0  0  0  0  0  0
  189.5170  173.9450  137.5740 F   0  0  0  0  0  0  0  0  0  0  0  0
  190.1880  174.3070  135.1900 C   0  0  0  0  0  2  0  0  0  0  0  0
  189.7420  176.6610  135.3000 O   0  0  0  0  0  0  0  0  0  0  0  0
  190.8200  176.1810  139.3300 F   0  0  0  0  0  0  0  0  0  0  0  0
  192.5110  174.9320  137.5140 C   0  0  0  0  0  2  0  0  0  0  0  0
  194.9960  174.7600  137.0530 C   0  0  0  0  0  0  0  0  0  0  0  0
  195.3220  173.6890  138.4390 S   0  0  0  0  0  0  0  0  0  0  0  0
  193.6230  176.0560  135.5460 C   0  0  0  0  0  3  0  0  0  0  0  0
  194.7630  176.3790  134.7950 C   0  0  0  0  0  3  0  0  0  0  0  0
  196.0220  175.9000  135.1850 C   0  0  0  0  0  3  0  0  0  0  0  0
  193.7300  175.2470  136.6880 C   0  0  0  0  0  0  0  0  0  0  0  0
  197.1040  174.0620  138.2600 C   0  0  0  0  0  2  0  0  0  0  0  0
  197.3860  174.5360  136.8320 C   0  0  0  0  0  2  0  0  0  0  0  0
  196.1160  175.0960  136.3200 C   0  0  0  0  0  0  0  0  0  0  0  0
  189.3720  177.4870  143.4000 C   0  0  2  0  0  3  0  0  0  0  0  0
  188.3230  175.3760  142.8500 O   0  0  0  0  0  1  0  0  0  0  0  0
  189.3940  175.9550  143.5320 C   0  0  1  0  0  3  0  0  0  0  0  0
  190.7020  175.3630  143.0400 C   0  0  0  0  0  1  0  0  0  0  0  0
  188.9080  178.1360  144.7160 C   0  0  1  0  0  3  0  0  0  0  0  0
  185.8570  178.1320  146.1180 C   0  0  0  0  0  3  0  0  0  0  0  0
  186.3680  179.1640  147.0770 C   0  0  0  0  0  2  0  0  0  0  0  0
  188.5220  178.2140  147.9080 C   0  0  0  0  0  2  0  0  0  0  0  0
  188.6420  176.9650  147.0390 C   0  0  0  0  0  2  0  0  0  0  0  0
  188.1300  177.1500  145.6030 C   0  0  1  0  0  3  0  0  0  0  0  0
  186.6320  177.2470  145.4770 C   0  0  0  0  0  3  0  0  0  0  0  0
  187.0740  178.5260  148.2600 C   0  0  0  0  0  2  0  0  0  0  0  0
  189.9950  178.7280  145.4210 O   0  0  0  0  0  0  0  0  0  0  0  0
  192.0390  179.1440  144.1910 O   0  0  0  0  0  0  0  0  0  0  0  0
  191.3180  178.3980  145.1150 C   0  0  0  0  0  0  0  0  0  0  0  0
  191.8620  177.4130  145.6780 O   0  0  0  0  0  1  0  0  0  0  0  0
  1  3  2  0  0  0  0
  1  6  1  0  0  0  0
  2  4  2  0  0  0  0
  3  2  1  0  0  0  0
  5  4  1  0  0  0  0
  5 28  1  0  0  0  0
  6  5  2  0  0  0  0
  7  1  1  0  0  0  0
  8 18  1  0  0  0  0
  8 12  1  0  0  0  0
  9  8  1  0  0  0  0
  9 14  1  1  0  0  0
 10 11  1  0  0  0  0
 11 12  1  0  0  0  0
 11  7  1  1  0  0  0
 12 17  1  1  0  0  0
 13 15  1  6  0  0  0
 13  9  1  0  0  0  0
 15  9  1  0  0  0  0
 16 13  1  0  0  0  0
 16 10  1  0  0  0  0
 19 20  1  0  0  0  0
 21 24  2  0  0  0  0
 22 23  2  0  0  0  0
 22 21  1  0  0  0  0
 23 27  1  0  0  0  0
 24 19  1  0  0  0  0
 24 18  1  0  0  0  0
 25 20  1  0  0  0  0
 26 25  1  0  0  0  0
 27 26  1  0  0  0  0
 27 19  2  0  0  0  0
 28 30  1  1  0  0  0
 28 32  1  0  0  0  0
 29 30  1  0  0  0  0
 30 31  1  6  0  0  0
 32 40  1  1  0  0  0
 33 34  1  0  0  0  0
 34 39  1  0  0  0  0
 35 39  1  0  0  0  0
 36 35  1  0  0  0  0
 37 32  1  1  0  0  0
 37 36  1  0  0  0  0
 38 37  1  0  0  0  0
 38 33  2  0  0  0  0
 41 42  2  0  0  0  0
 42 40  1  0  0  0  0
 42 43  1  0  0  0  0
M  END
>  <MODEL>
1

>  <REMARK>
 VINA RESULT:      -8.1      0.000      0.000
  Name = 
  10 active torsions:
  status: ('A' for Active; 'I' for Inactive)
    1  A    between atoms: O_1  and  C_9
    2  A    between atoms: O_1  and  C_17
    3  A    between atoms: N_3  and  C_30
    4  A    between atoms: C_9  and  C_20
    5  A    between atoms: C_9  and  C_29
    6  A    between atoms: C_10  and  N_13
    7  A    between atoms: N_13  and  C_23
    8  A    between atoms: C_15  and  C_29
    9  A    between atoms: C_28  and  C_30
   10  A    between atoms: C_29  and  C_31
                            x       y       z     vdW  Elec       q    Type
                         _______ _______ _______ _____ _____    ______ ____

>  <TORSDO>
F 10

$$$$
=
 OpenBabel11062412203D

 43 48  0  0  1  0  0  0  0  0999 V2000
  187.3210  178.4630  140.2030 C   0  0  0  0  0  0  0  0  0  0  0  0
  185.6670  178.5630  141.9770 C   0  0  0  0  0  3  0  0  0  0  0  0
  185.9990  178.6800  140.6260 C   0  0  0  0  0  3  0  0  0  0  0  0
  186.6520  178.2290  142.9110 C   0  0  0  0  0  3  0  0  0  0  0  0
  187.9840  178.0420  142.5050 C   0  0  0  0  0  0  0  0  0  0  0  0
  188.3050  178.1490  141.1460 C   0  0  0  0  0  3  0  0  0  0  0  0
  187.6720  178.4770  138.8120 N   0  0  0  0  0  2  0  0  0  0  0  0
  189.2470  176.3080  136.1250 N   0  0  0  0  0  0  0  0  0  0  0  0
  188.7830  174.9860  136.5900 C   0  0  2  0  0  0  0  0  0  0  0  0
  186.5240  176.9710  137.1980 C   0  0  0  0  0  2  0  0  0  0  0  0
  187.8280  177.3010  137.9610 C   0  0  1  0  0  3  0  0  0  0  0  0
  189.1230  177.3850  137.1290 C   0  0  1  0  0  3  0  0  0  0  0  0
  187.2660  174.8790  136.6740 C   0  0  2  0  0  3  0  0  0  0  0  0
  189.4320  174.3750  137.6510 F   0  0  0  0  0  0  0  0  0  0  0  0
  188.0360  174.1410  135.5860 C   0  0  0  0  0  2  0  0  0  0  0  0
  186.6870  176.0440  136.1430 O   0  0  0  0  0  0  0  0  0  0  0  0
  190.2060  177.3850  138.0000 F   0  0  0  0  0  0  0  0  0  0  0  0
  190.5600  176.3330  135.4520 C   0  0  0  0  0  2  0  0  0  0  0  0
  192.3480  174.8400  136.4450 C   0  0  0  0  0  0  0  0  0  0  0  0
  192.8240  176.0090  137.7020 S   0  0  0  0  0  0  0  0  0  0  0  0
  191.0390  174.0080  134.5940 C   0  0  0  0  0  3  0  0  0  0  0  0
  191.7740  172.8140  134.6180 C   0  0  0  0  0  3  0  0  0  0  0  0
  192.8060  172.6410  135.5520 C   0  0  0  0  0  3  0  0  0  0  0  0
  191.3240  175.0370  135.5040 C   0  0  0  0  0  0  0  0  0  0  0  0
  194.3540  175.0410  137.9700 C   0  0  0  0  0  2  0  0  0  0  0  0
  194.1440  173.6070  137.4780 C   0  0  0  0  0  2  0  0  0  0  0  0
  193.0800  173.6700  136.4530 C   0  0  0  0  0  0  0  0  0  0  0  0
  189.0550  177.6150  143.4800 C   0  0  2  0  0  3  0  0  0  0  0  0
  188.0720  175.4490  143.0300 O   0  0  0  0  0  1  0  0  0  0  0  0
  189.2110  176.0860  143.5240 C   0  0  1  0  0  3  0  0  0  0  0  0
  190.4370  175.6200  142.7600 C   0  0  0  0  0  1  0  0  0  0  0  0
  188.8590  178.1790  144.8980 C   0  0  1  0  0  3  0  0  0  0  0  0
  186.1430  178.0860  146.8720 C   0  0  0  0  0  3  0  0  0  0  0  0
  186.8480  179.0510  147.7760 C   0  0  0  0  0  2  0  0  0  0  0  0
  189.1090  178.0460  148.1020 C   0  0  0  0  0  2  0  0  0  0  0  0
  189.0390  176.8570  147.1470 C   0  0  0  0  0  2  0  0  0  0  0  0
  188.2560  177.1370  145.8560 C   0  0  1  0  0  3  0  0  0  0  0  0
  186.7650  177.2450  146.0350 C   0  0  0  0  0  3  0  0  0  0  0  0
  187.7640  178.3350  148.7520 C   0  0  0  0  0  2  0  0  0  0  0  0
  190.0660  178.7290  145.4160 O   0  0  0  0  0  0  0  0  0  0  0  0
  191.9650  177.2290  145.5050 O   0  0  0  0  0  1  0  0  0  0  0  0
  191.3110  178.3150  144.9360 C   0  0  0  0  0  0  0  0  0  0  0  0
  191.8490  178.9340  143.9810 O   0  0  0  0  0  0  0  0  0  0  0  0
  1  3  2  0  0  0  0
  1  6  1  0  0  0  0
  2  4  2  0  0  0  0
  3  2  1  0  0  0  0
  5  4  1  0  0  0  0
  5 28  1  0  0  0  0
  6  5  2  0  0  0  0
  7  1  1  0  0  0  0
  8  9  1  0  0  0  0
  8 12  1  0  0  0  0
  9 13  1  0  0  0  0
  9 14  1  1  0  0  0
 10 11  1  0  0  0  0
 11  7  1  6  0  0  0
 12 11  1  0  0  0  0
 12 17  1  1  0  0  0
 13 15  1  6  0  0  0
 15  9  1  0  0  0  0
 16 13  1  0  0  0  0
 16 10  1  0  0  0  0
 18 24  1  0  0  0  0
 18  8  1  0  0  0  0
 19 27  1  0  0  0  0
 19 20  1  0  0  0  0
 20 25  1  0  0  0  0
 21 22  2  0  0  0  0
 21 24  1  0  0  0  0
 22 23  1  0  0  0  0
 23 27  2  0  0  0  0
 24 19  2  0  0  0  0
 26 25  1  0  0  0  0
 27 26  1  0  0  0  0
 28 30  1  1  0  0  0
 28 32  1  0  0  0  0
 29 30  1  0  0  0  0
 30 31  1  6  0  0  0
 32 40  1  1  0  0  0
 33 34  1  0  0  0  0
 34 39  1  0  0  0  0
 35 39  1  0  0  0  0
 36 35  1  0  0  0  0
 37 32  1  1  0  0  0
 37 38  1  0  0  0  0
 37 36  1  0  0  0  0
 38 33  2  0  0  0  0
 42 40  1  0  0  0  0
 42 41  1  0  0  0  0
 43 42  2  0  0  0  0
M  END
>  <MODEL>
2

>  <REMARK>
 VINA RESULT:      -7.8      1.588      2.127
  Name = 
  10 active torsions:
  status: ('A' for Active; 'I' for Inactive)
    1  A    between atoms: O_1  and  C_9
    2  A    between atoms: O_1  and  C_17
    3  A    between atoms: N_3  and  C_30
    4  A    between atoms: C_9  and  C_20
    5  A    between atoms: C_9  and  C_29
    6  A    between atoms: C_10  and  N_13
    7  A    between atoms: N_13  and  C_23
    8  A    between atoms: C_15  and  C_29
    9  A    between atoms: C_28  and  C_30
   10  A    between atoms: C_29  and  C_31
                            x       y       z     vdW  Elec       q    Type
                         _______ _______ _______ _____ _____    ______ ____

>  <TORSDO>
F 10

$$$$
=
 OpenBabel11062412203D

 43 48  0  0  1  0  0  0  0  0999 V2000
  187.0430  178.6150  140.6280 C   0  0  0  0  0  0  0  0  0  0  0  0
  188.9240  177.6700  139.4180 C   0  0  0  0  0  3  0  0  0  0  0  0
  187.6770  178.2980  139.4140 C   0  0  0  0  0  3  0  0  0  0  0  0
  189.5440  177.3570  140.6310 C   0  0  0  0  0  3  0  0  0  0  0  0
  188.9070  177.6400  141.8510 C   0  0  0  0  0  0  0  0  0  0  0  0
  187.6610  178.2810  141.8370 C   0  0  0  0  0  3  0  0  0  0  0  0
  185.8110  179.3490  140.6570 N   0  0  0  0  0  2  0  0  0  0  0  0
  182.3930  179.1450  139.0220 N   0  0  0  0  0  0  0  0  0  0  0  0
  182.1370  177.7010  139.1960 C   0  0  2  0  0  0  0  0  0  0  0  0
  183.6660  178.6260  141.6890 C   0  0  0  0  0  2  0  0  0  0  0  0
  184.4860  178.7990  140.3890 C   0  0  1  0  0  3  0  0  0  0  0  0
  183.8010  179.5410  139.2250 C   0  0  1  0  0  3  0  0  0  0  0  0
  182.1630  177.2590  140.6530 C   0  0  2  0  0  3  0  0  0  0  0  0
  182.7470  176.7960  138.3420 F   0  0  0  0  0  0  0  0  0  0  0  0
  180.8480  177.3220  139.8860 C   0  0  0  0  0  2  0  0  0  0  0  0
  182.2880  178.3890  141.4800 O   0  0  0  0  0  0  0  0  0  0  0  0
  184.5500  179.3380  138.0720 F   0  0  0  0  0  0  0  0  0  0  0  0
  181.8160  179.7630  137.8130 C   0  0  0  0  0  2  0  0  0  0  0  0
  180.3100  181.6440  137.0320 C   0  0  0  0  0  0  0  0  0  0  0  0
  180.7560  181.4770  135.3160 S   0  0  0  0  0  0  0  0  0  0  0  0
  180.3240  181.0660  139.3770 C   0  0  0  0  0  3  0  0  0  0  0  0
  179.3980  182.0890  139.6290 C   0  0  0  0  0  3  0  0  0  0  0  0
  178.9390  182.8980  138.5790 C   0  0  0  0  0  3  0  0  0  0  0  0
  180.7940  180.8370  138.0750 C   0  0  0  0  0  0  0  0  0  0  0  0
  180.0210  183.1230  135.0040 C   0  0  0  0  0  2  0  0  0  0  0  0
  179.0070  183.4470  136.1040 C   0  0  0  0  0  2  0  0  0  0  0  0
  179.4130  182.6610  137.2890 C   0  0  0  0  0  0  0  0  0  0  0  0
  189.5810  177.3750  143.1760 C   0  0  2  0  0  3  0  0  0  0  0  0
  188.7020  175.1500  142.8020 O   0  0  0  0  0  1  0  0  0  0  0  0
  189.6960  175.8700  143.4680 C   0  0  1  0  0  3  0  0  0  0  0  0
  191.0640  175.3250  143.1010 C   0  0  0  0  0  1  0  0  0  0  0  0
  188.9250  178.1070  144.3590 C   0  0  1  0  0  3  0  0  0  0  0  0
  185.7180  178.0390  145.3560 C   0  0  0  0  0  3  0  0  0  0  0  0
  186.0460  179.1830  146.2680 C   0  0  0  0  0  2  0  0  0  0  0  0
  188.1150  178.4460  147.4540 C   0  0  0  0  0  2  0  0  0  0  0  0
  188.4120  177.1340  146.7320 C   0  0  0  0  0  2  0  0  0  0  0  0
  188.0850  177.1570  145.2310 C   0  0  1  0  0  3  0  0  0  0  0  0
  186.6150  177.1510  144.9070 C   0  0  0  0  0  3  0  0  0  0  0  0
  186.6200  178.6980  147.5870 C   0  0  0  0  0  2  0  0  0  0  0  0
  189.8850  178.8170  145.1340 O   0  0  0  0  0  0  0  0  0  0  0  0
  191.7820  177.4670  145.7970 O   0  0  0  0  0  1  0  0  0  0  0  0
  191.2460  178.5110  145.0540 C   0  0  0  0  0  0  0  0  0  0  0  0
  191.9950  179.1910  144.3060 O   0  0  0  0  0  0  0  0  0  0  0  0
  1  7  1  0  0  0  0
  1  6  1  0  0  0  0
  2  4  2  0  0  0  0
  3  2  1  0  0  0  0
  3  1  2  0  0  0  0
  4  5  1  0  0  0  0
  5 28  1  0  0  0  0
  6  5  2  0  0  0  0
  8  9  1  0  0  0  0
  8 12  1  0  0  0  0
  9 14  1  6  0  0  0
  9 15  1  0  0  0  0
  9 13  1  0  0  0  0
 11  7  1  1  0  0  0
 11 10  1  0  0  0  0
 12 17  1  6  0  0  0
 12 11  1  0  0  0  0
 13 15  1  1  0  0  0
 13 16  1  0  0  0  0
 16 10  1  0  0  0  0
 18 24  1  0  0  0  0
 18  8  1  0  0  0  0
 19 27  2  0  0  0  0
 19 24  1  0  0  0  0
 20 19  1  0  0  0  0
 21 22  1  0  0  0  0
 23 22  2  0  0  0  0
 24 21  2  0  0  0  0
 25 20  1  0  0  0  0
 25 26  1  0  0  0  0
 26 27  1  0  0  0  0
 27 23  1  0  0  0  0
 28 30  1  1  0  0  0
 28 32  1  0  0  0  0
 29 30  1  0  0  0  0
 30 31  1  6  0  0  0
 32 40  1  1  0  0  0
 33 34  1  0  0  0  0
 34 39  1  0  0  0  0
 35 39  1  0  0  0  0
 36 35  1  0  0  0  0
 37 32  1  1  0  0  0
 37 36  1  0  0  0  0
 38 37  1  0  0  0  0
 38 33  2  0  0  0  0
 42 40  1  0  0  0  0
 42 41  1  0  0  0  0
 43 42  2  0  0  0  0
M  END
>  <MODEL>
3

>  <REMARK>
 VINA RESULT:      -7.8      5.350      9.240
  Name = 
  10 active torsions:
  status: ('A' for Active; 'I' for Inactive)
    1  A    between atoms: O_1  and  C_9
    2  A    between atoms: O_1  and  C_17
    3  A    between atoms: N_3  and  C_30
    4  A    between atoms: C_9  and  C_20
    5  A    between atoms: C_9  and  C_29
    6  A    between atoms: C_10  and  N_13
    7  A    between atoms: N_13  and  C_23
    8  A    between atoms: C_15  and  C_29
    9  A    between atoms: C_28  and  C_30
   10  A    between atoms: C_29  and  C_31
                            x       y       z     vdW  Elec       q    Type
                         _______ _______ _______ _____ _____    ______ ____

>  <TORSDO>
F 10

$$$$
=
 OpenBabel11062412203D

 43 48  0  0  1  0  0  0  0  0999 V2000
  184.1670  175.9920  136.8510 C   0  0  0  0  0  0  0  0  0  0  0  0
  184.8770  177.1390  134.8310 C   0  0  0  0  0  3  0  0  0  0  0  0
  183.8850  176.8410  135.7670 C   0  0  0  0  0  3  0  0  0  0  0  0
  186.1560  176.5910  134.9730 C   0  0  0  0  0  3  0  0  0  0  0  0
  186.4420  175.7150  136.0340 C   0  0  0  0  0  0  0  0  0  0  0  0
  185.4430  175.4330  136.9750 C   0  0  0  0  0  3  0  0  0  0  0  0
  183.2000  175.7490  137.8810 N   0  0  0  0  0  2  0  0  0  0  0  0
  183.1980  178.3720  140.6230 N   0  0  0  0  0  0  0  0  0  0  0  0
  182.0110  179.1450  140.2060 C   0  0  2  0  0  0  0  0  0  0  0  0
  181.4160  176.2070  139.5550 C   0  0  0  0  0  2  0  0  0  0  0  0
  182.6290  176.7580  138.7680 C   0  0  1  0  0  3  0  0  0  0  0  0
  183.7280  177.4650  139.5850 C   0  0  1  0  0  3  0  0  0  0  0  0
  180.7420  178.3050  140.1400 C   0  0  2  0  0  3  0  0  0  0  0  0
  182.1220  180.0470  139.1600 F   0  0  0  0  0  0  0  0  0  0  0  0
  180.9310  179.3380  141.2450 C   0  0  0  0  0  2  0  0  0  0  0  0
  181.0090  177.0180  140.6380 O   0  0  0  0  0  0  0  0  0  0  0  0
  184.5630  178.1440  138.7050 F   0  0  0  0  0  0  0  0  0  0  0  0
  184.2710  179.1410  141.2830 C   0  0  0  0  0  2  0  0  0  0  0  0
  185.5870  178.3520  143.2980 C   0  0  0  0  0  0  0  0  0  0  0  0
  187.0500  177.9560  142.3640 S   0  0  0  0  0  0  0  0  0  0  0  0
  183.3460  179.1900  143.6310 C   0  0  0  0  0  3  0  0  0  0  0  0
  183.4600  178.9300  145.0050 C   0  0  0  0  0  3  0  0  0  0  0  0
  184.6360  178.3690  145.5210 C   0  0  0  0  0  3  0  0  0  0  0  0
  184.4080  178.8970  142.7620 C   0  0  0  0  0  0  0  0  0  0  0  0
  187.6600  176.9940  143.7960 C   0  0  0  0  0  2  0  0  0  0  0  0
  186.9720  177.4860  145.0720 C   0  0  0  0  0  2  0  0  0  0  0  0
  185.6860  178.0830  144.6480 C   0  0  0  0  0  0  0  0  0  0  0  0
  187.8310  175.1630  136.2510 C   0  0  2  0  0  3  0  0  0  0  0  0
  187.4220  172.9120  135.4600 O   0  0  0  0  0  1  0  0  0  0  0  0
  187.8050  173.6610  136.5740 C   0  0  1  0  0  3  0  0  0  0  0  0
  189.1440  173.1700  137.0930 C   0  0  0  0  0  1  0  0  0  0  0  0
  188.6410  175.9300  137.3110 C   0  0  1  0  0  3  0  0  0  0  0  0
  190.5930  175.6420  134.5940 C   0  0  0  0  0  3  0  0  0  0  0  0
  191.3410  174.5680  135.3240 C   0  0  0  0  0  2  0  0  0  0  0  0
  191.8280  175.5730  137.5570 C   0  0  0  0  0  2  0  0  0  0  0  0
  191.0680  176.8930  137.4530 C   0  0  0  0  0  2  0  0  0  0  0  0
  189.7460  176.7950  136.6790 C   0  0  1  0  0  3  0  0  0  0  0  0
  189.8990  176.6200  135.1910 C   0  0  0  0  0  3  0  0  0  0  0  0
  192.4200  175.1490  136.2200 C   0  0  0  0  0  2  0  0  0  0  0  0
  187.7960  176.7000  138.1600 O   0  0  0  0  0  0  0  0  0  0  0  0
  188.6290  178.7190  139.2070 O   0  0  0  0  0  1  0  0  0  0  0  0
  187.8960  178.0930  138.2060 C   0  0  0  0  0  0  0  0  0  0  0  0
  187.3120  178.7890  137.3360 O   0  0  0  0  0  0  0  0  0  0  0  0
  1  6  1  0  0  0  0
  1  7  1  0  0  0  0
  2  4  2  0  0  0  0
  2  3  1  0  0  0  0
  3  1  2  0  0  0  0
  4  5  1  0  0  0  0
  5 28  1  0  0  0  0
  5  6  2  0  0  0  0
  8 18  1  0  0  0  0
  9 14  1  6  0  0  0
  9  8  1  0  0  0  0
  9 15  1  0  0  0  0
 10 16  1  0  0  0  0
 11  7  1  1  0  0  0
 11 10  1  0  0  0  0
 11 12  1  0  0  0  0
 12 17  1  6  0  0  0
 12  8  1  0  0  0  0
 13  9  1  0  0  0  0
 13 16  1  0  0  0  0
 13 15  1  1  0  0  0
 18 24  1  0  0  0  0
 19 27  1  0  0  0  0
 20 19  1  0  0  0  0
 20 25  1  0  0  0  0
 21 22  2  0  0  0  0
 22 23  1  0  0  0  0
 24 19  2  0  0  0  0
 24 21  1  0  0  0  0
 25 26  1  0  0  0  0
 27 26  1  0  0  0  0
 27 23  2  0  0  0  0
 28 30  1  1  0  0  0
 28 32  1  0  0  0  0
 29 30  1  0  0  0  0
 30 31  1  6  0  0  0
 32 40  1  6  0  0  0
 33 38  2  0  0  0  0
 33 34  1  0  0  0  0
 34 39  1  0  0  0  0
 36 35  1  0  0  0  0
 37 32  1  1  0  0  0
 37 36  1  0  0  0  0
 38 37  1  0  0  0  0
 39 35  1  0  0  0  0
 40 42  1  0  0  0  0
 42 41  1  0  0  0  0
 43 42  2  0  0  0  0
M  END
>  <MODEL>
4

>  <REMARK>
 VINA RESULT:      -7.8      4.275      9.963
  Name = 
  10 active torsions:
  status: ('A' for Active; 'I' for Inactive)
    1  A    between atoms: O_1  and  C_9
    2  A    between atoms: O_1  and  C_17
    3  A    between atoms: N_3  and  C_30
    4  A    between atoms: C_9  and  C_20
    5  A    between atoms: C_9  and  C_29
    6  A    between atoms: C_10  and  N_13
    7  A    between atoms: N_13  and  C_23
    8  A    between atoms: C_15  and  C_29
    9  A    between atoms: C_28  and  C_30
   10  A    between atoms: C_29  and  C_31
                            x       y       z     vdW  Elec       q    Type
                         _______ _______ _______ _____ _____    ______ ____

>  <TORSDO>
F 10

$$$$
=
 OpenBabel11062412203D

 43 48  0  0  1  0  0  0  0  0999 V2000
  186.5120  178.7650  140.8880 C   0  0  0  0  0  0  0  0  0  0  0  0
  188.2820  177.8590  139.4940 C   0  0  0  0  0  3  0  0  0  0  0  0
  187.0390  178.4840  139.6150 C   0  0  0  0  0  3  0  0  0  0  0  0
  189.0040  177.5120  140.6400 C   0  0  0  0  0  3  0  0  0  0  0  0
  188.4730  177.7590  141.9170 C   0  0  0  0  0  0  0  0  0  0  0  0
  187.2320  178.3970  142.0290 C   0  0  0  0  0  3  0  0  0  0  0  0
  185.2870  179.4950  141.0440 N   0  0  0  0  0  2  0  0  0  0  0  0
  182.6220  177.2640  139.5200 N   0  0  0  0  0  0  0  0  0  0  0  0
  181.4470  178.1370  139.7150 C   0  0  2  0  0  0  0  0  0  0  0  0
  183.8180  179.9830  139.0960 C   0  0  0  0  0  2  0  0  0  0  0  0
  184.0170  179.1750  140.4000 C   0  0  1  0  0  3  0  0  0  0  0  0
  183.8060  177.6500  140.3150 C   0  0  1  0  0  3  0  0  0  0  0  0
  181.5910  179.4940  139.0400 C   0  0  2  0  0  3  0  0  0  0  0  0
  180.8580  178.2110  140.9670 F   0  0  0  0  0  0  0  0  0  0  0  0
  180.6280  178.4510  138.4860 C   0  0  0  0  0  2  0  0  0  0  0  0
  182.7690  179.5120  138.2740 O   0  0  0  0  0  0  0  0  0  0  0  0
  183.7280  177.1440  141.6070 F   0  0  0  0  0  0  0  0  0  0  0  0
  182.3670  175.8120  139.5830 C   0  0  0  0  0  2  0  0  0  0  0  0
  181.4220  174.5390  137.6080 C   0  0  0  0  0  0  0  0  0  0  0  0
  179.7300  174.6880  138.1420 S   0  0  0  0  0  0  0  0  0  0  0  0
  183.8070  174.9110  137.7150 C   0  0  0  0  0  3  0  0  0  0  0  0
  183.9650  174.2000  136.5160 C   0  0  0  0  0  3  0  0  0  0  0  0
  182.8490  173.6490  135.8710 C   0  0  0  0  0  3  0  0  0  0  0  0
  182.5320  175.0820  138.2770 C   0  0  0  0  0  0  0  0  0  0  0  0
  179.2790  173.3690  136.9560 C   0  0  0  0  0  2  0  0  0  0  0  0
  180.3390  173.2880  135.8550 C   0  0  0  0  0  2  0  0  0  0  0  0
  181.5870  173.8250  136.4380 C   0  0  0  0  0  0  0  0  0  0  0  0
  189.2590  177.4570  143.1710 C   0  0  2  0  0  3  0  0  0  0  0  0
  188.3100  175.2540  142.8440 O   0  0  0  0  0  1  0  0  0  0  0  0
  189.3750  175.9450  143.4230 C   0  0  1  0  0  3  0  0  0  0  0  0
  190.6920  175.3870  142.9150 C   0  0  0  0  0  1  0  0  0  0  0  0
  188.7230  178.1740  144.4220 C   0  0  1  0  0  3  0  0  0  0  0  0
  185.7860  178.2790  146.0470 C   0  0  0  0  0  3  0  0  0  0  0  0
  186.4050  179.2850  146.9690 C   0  0  0  0  0  2  0  0  0  0  0  0
  188.5770  178.2490  147.6350 C   0  0  0  0  0  2  0  0  0  0  0  0
  188.5850  177.0010  146.7550 C   0  0  0  0  0  2  0  0  0  0  0  0
  187.9740  177.2130  145.3620 C   0  0  1  0  0  3  0  0  0  0  0  0
  186.4770  177.3680  145.3480 C   0  0  0  0  0  3  0  0  0  0  0  0
  187.1720  178.6140  148.0940 C   0  0  0  0  0  2  0  0  0  0  0  0
  189.7550  178.8780  145.1070 O   0  0  0  0  0  0  0  0  0  0  0  0
  191.8010  177.6280  145.4490 O   0  0  0  0  0  1  0  0  0  0  0  0
  191.1010  178.6470  144.8140 C   0  0  0  0  0  0  0  0  0  0  0  0
  191.6900  179.3730  143.9710 O   0  0  0  0  0  0  0  0  0  0  0  0
  1  7  1  0  0  0  0
  1  6  1  0  0  0  0
  2  3  1  0  0  0  0
  2  4  2  0  0  0  0
  3  1  2  0  0  0  0
  4  5  1  0  0  0  0
  5  6  2  0  0  0  0
  5 28  1  0  0  0  0
  8 18  1  0  0  0  0
  8  9  1  0  0  0  0
  8 12  1  0  0  0  0
  9 14  1  1  0  0  0
 10 11  1  0  0  0  0
 11  7  1  6  0  0  0
 12 11  1  0  0  0  0
 12 17  1  1  0  0  0
 13 15  1  6  0  0  0
 13  9  1  0  0  0  0
 15  9  1  0  0  0  0
 16 13  1  0  0  0  0
 16 10  1  0  0  0  0
 19 20  1  0  0  0  0
 19 24  1  0  0  0  0
 21 24  2  0  0  0  0
 22 21  1  0  0  0  0
 23 27  1  0  0  0  0
 23 22  2  0  0  0  0
 24 18  1  0  0  0  0
 25 20  1  0  0  0  0
 26 27  1  0  0  0  0
 26 25  1  0  0  0  0
 27 19  2  0  0  0  0
 28 30  1  1  0  0  0
 28 32  1  0  0  0  0
 29 30  1  0  0  0  0
 30 31  1  6  0  0  0
 32 40  1  1  0  0  0
 33 34  1  0  0  0  0
 34 39  1  0  0  0  0
 35 39  1  0  0  0  0
 36 35  1  0  0  0  0
 37 32  1  1  0  0  0
 37 36  1  0  0  0  0
 38 37  1  0  0  0  0
 38 33  2  0  0  0  0
 42 40  1  0  0  0  0
 42 41  1  0  0  0  0
 43 42  2  0  0  0  0
M  END
>  <MODEL>
5

>  <REMARK>
 VINA RESULT:      -7.5      5.192      7.935
  Name = 
  10 active torsions:
  status: ('A' for Active; 'I' for Inactive)
    1  A    between atoms: O_1  and  C_9
    2  A    between atoms: O_1  and  C_17
    3  A    between atoms: N_3  and  C_30
    4  A    between atoms: C_9  and  C_20
    5  A    between atoms: C_9  and  C_29
    6  A    between atoms: C_10  and  N_13
    7  A    between atoms: N_13  and  C_23
    8  A    between atoms: C_15  and  C_29
    9  A    between atoms: C_28  and  C_30
   10  A    between atoms: C_29  and  C_31
                            x       y       z     vdW  Elec       q    Type
                         _______ _______ _______ _____ _____    ______ ____

>  <TORSDO>
F 10

$$$$
=
 OpenBabel11062412203D

 43 48  0  0  1  0  0  0  0  0999 V2000
  189.3590  177.1160  138.8200 C   0  0  0  0  0  0  0  0  0  0  0  0
  189.7620  175.2050  137.3780 C   0  0  0  0  0  3  0  0  0  0  0  0
  190.2100  176.1010  138.3500 C   0  0  0  0  0  3  0  0  0  0  0  0
  188.4640  175.3180  136.8700 C   0  0  0  0  0  3  0  0  0  0  0  0
  187.6150  176.3480  137.3080 C   0  0  0  0  0  0  0  0  0  0  0  0
  188.0690  177.2340  138.2940 C   0  0  0  0  0  3  0  0  0  0  0  0
  189.7550  177.9870  139.8890 N   0  0  0  0  0  2  0  0  0  0  0  0
  189.1920  176.8720  143.4720 N   0  0  0  0  0  0  0  0  0  0  0  0
  190.4720  176.1730  143.7040 C   0  0  2  0  0  0  0  0  0  0  0  0
  191.0980  178.5750  141.9000 C   0  0  0  0  0  2  0  0  0  0  0  0
  190.1320  177.5660  141.2350 C   0  0  1  0  0  3  0  0  0  0  0  0
  188.8950  177.1420  142.0510 C   0  0  1  0  0  3  0  0  0  0  0  0
  191.6870  177.0700  143.5090 C   0  0  2  0  0  3  0  0  0  0  0  0
  190.6500  174.8970  143.1940 F   0  0  0  0  0  0  0  0  0  0  0  0
  191.2750  176.6150  144.9040 C   0  0  0  0  0  2  0  0  0  0  0  0
  191.2610  178.3920  143.2920 O   0  0  0  0  0  0  0  0  0  0  0  0
  188.3230  176.0320  141.4390 F   0  0  0  0  0  0  0  0  0  0  0  0
  188.0200  176.3280  144.1860 C   0  0  0  0  0  2  0  0  0  0  0  0
  187.4860  177.7530  146.2100 C   0  0  0  0  0  0  0  0  0  0  0  0
  188.8870  177.1880  147.1530 S   0  0  0  0  0  0  0  0  0  0  0  0
  186.0570  177.9130  144.2690 C   0  0  0  0  0  3  0  0  0  0  0  0
  185.2530  178.8420  144.9450 C   0  0  0  0  0  3  0  0  0  0  0  0
  185.5620  179.2160  146.2600 C   0  0  0  0  0  3  0  0  0  0  0  0
  187.1790  177.3540  144.8990 C   0  0  0  0  0  0  0  0  0  0  0  0
  188.1060  177.8800  148.6570 C   0  0  0  0  0  2  0  0  0  0  0  0
  187.1040  178.9660  148.2590 C   0  0  0  0  0  2  0  0  0  0  0  0
  186.6800  178.6550  146.8760 C   0  0  0  0  0  0  0  0  0  0  0  0
  186.1870  176.4530  136.8290 C   0  0  2  0  0  3  0  0  0  0  0  0
  187.2290  178.1700  135.4770 O   0  0  0  0  0  1  0  0  0  0  0  0
  186.0010  177.6120  135.8360 C   0  0  1  0  0  3  0  0  0  0  0  0
  185.2460  177.1770  134.5940 C   0  0  0  0  0  1  0  0  0  0  0  0
  185.1590  176.5480  137.9700 C   0  0  1  0  0  3  0  0  0  0  0  0
  184.9410  178.7250  140.5170 C   0  0  0  0  0  3  0  0  0  0  0  0
  183.8710  177.8470  141.0910 C   0  0  0  0  0  2  0  0  0  0  0  0
  182.3170  177.4470  139.1780 C   0  0  0  0  0  2  0  0  0  0  0  0
  183.0750  178.1260  138.0410 C   0  0  0  0  0  2  0  0  0  0  0  0
  184.6010  177.9730  138.1270 C   0  0  1  0  0  3  0  0  0  0  0  0
  185.2550  178.7810  139.2160 C   0  0  0  0  0  3  0  0  0  0  0  0
  182.5080  178.1700  140.5040 C   0  0  0  0  0  2  0  0  0  0  0  0
  184.1150  175.5910  137.8160 O   0  0  0  0  0  0  0  0  0  0  0  0
  185.3030  173.4850  137.9430 O   0  0  0  0  0  1  0  0  0  0  0  0
  184.3770  174.3120  137.3200 C   0  0  0  0  0  0  0  0  0  0  0  0
  183.7720  173.9040  136.2940 O   0  0  0  0  0  0  0  0  0  0  0  0
  1  7  1  0  0  0  0
  2  3  2  0  0  0  0
  3  1  1  0  0  0  0
  4  5  2  0  0  0  0
  4  2  1  0  0  0  0
  5  6  1  0  0  0  0
  6  1  2  0  0  0  0
  8  9  1  0  0  0  0
  8 18  1  0  0  0  0
  9 14  1  6  0  0  0
  9 15  1  0  0  0  0
 10 16  1  0  0  0  0
 11  7  1  6  0  0  0
 11 10  1  0  0  0  0
 11 12  1  0  0  0  0
 12 17  1  6  0  0  0
 12  8  1  0  0  0  0
 13  9  1  0  0  0  0
 13 15  1  1  0  0  0
 16 13  1  0  0  0  0
 18 24  1  0  0  0  0
 19 27  1  0  0  0  0
 19 20  1  0  0  0  0
 20 25  1  0  0  0  0
 21 24  1  0  0  0  0
 21 22  2  0  0  0  0
 22 23  1  0  0  0  0
 23 27  2  0  0  0  0
 24 19  2  0  0  0  0
 26 25  1  0  0  0  0
 27 26  1  0  0  0  0
 28 30  1  6  0  0  0
 28  5  1  0  0  0  0
 28 32  1  0  0  0  0
 29 30  1  0  0  0  0
 30 31  1  6  0  0  0
 32 40  1  6  0  0  0
 33 34  1  0  0  0  0
 35 39  1  0  0  0  0
 36 37  1  0  0  0  0
 36 35  1  0  0  0  0
 37 32  1  1  0  0  0
 37 38  1  0  0  0  0
 38 33  2  0  0  0  0
 39 34  1  0  0  0  0
 42 40  1  0  0  0  0
 42 41  1  0  0  0  0
 43 42  2  0  0  0  0
M  END
>  <MODEL>
6

>  <REMARK>
 VINA RESULT:      -7.5      3.625      9.234
  Name = 
  10 active torsions:
  status: ('A' for Active; 'I' for Inactive)
    1  A    between atoms: O_1  and  C_9
    2  A    between atoms: O_1  and  C_17
    3  A    between atoms: N_3  and  C_30
    4  A    between atoms: C_9  and  C_20
    5  A    between atoms: C_9  and  C_29
    6  A    between atoms: C_10  and  N_13
    7  A    between atoms: N_13  and  C_23
    8  A    between atoms: C_15  and  C_29
    9  A    between atoms: C_28  and  C_30
   10  A    between atoms: C_29  and  C_31
                            x       y       z     vdW  Elec       q    Type
                         _______ _______ _______ _____ _____    ______ ____

>  <TORSDO>
F 10

$$$$
=
 OpenBabel11062412203D

 43 48  0  0  1  0  0  0  0  0999 V2000
  187.7650  178.4090  137.8050 C   0  0  0  0  0  0  0  0  0  0  0  0
  187.8290  177.8820  135.4360 C   0  0  0  0  0  3  0  0  0  0  0  0
  188.4370  178.4220  136.5700 C   0  0  0  0  0  3  0  0  0  0  0  0
  186.5490  177.3270  135.5270 C   0  0  0  0  0  3  0  0  0  0  0  0
  185.8540  177.3370  136.7480 C   0  0  0  0  0  0  0  0  0  0  0  0
  186.4780  177.8700  137.8840 C   0  0  0  0  0  3  0  0  0  0  0  0
  188.4030  178.8640  139.0060 N   0  0  0  0  0  2  0  0  0  0  0  0
  189.6670  178.0540  142.4920 N   0  0  0  0  0  0  0  0  0  0  0  0
  189.2270  176.6470  142.5790 C   0  0  2  0  0  0  0  0  0  0  0  0
  190.0590  177.1270  139.6650 C   0  0  0  0  0  2  0  0  0  0  0  0
  188.8680  178.0140  140.0980 C   0  0  1  0  0  3  0  0  0  0  0  0
  189.0360  178.8230  141.3990 C   0  0  1  0  0  3  0  0  0  0  0  0
  189.8100  175.7690  141.4800 C   0  0  2  0  0  3  0  0  0  0  0  0
  187.8980  176.3680  142.8520 F   0  0  0  0  0  0  0  0  0  0  0  0
  190.2890  175.6280  142.9200 C   0  0  0  0  0  2  0  0  0  0  0  0
  190.7440  176.5110  140.7360 O   0  0  0  0  0  0  0  0  0  0  0  0
  187.7900  179.3050  141.7820 F   0  0  0  0  0  0  0  0  0  0  0  0
  189.6770  178.8080  143.7600 C   0  0  0  0  0  2  0  0  0  0  0  0
  189.0620  177.7370  145.9710 C   0  0  0  0  0  0  0  0  0  0  0  0
  187.3570  178.2470  145.9040 S   0  0  0  0  0  0  0  0  0  0  0  0
  191.3230  177.4980  145.1550 C   0  0  0  0  0  3  0  0  0  0  0  0
  191.6550  176.7690  146.3070 C   0  0  0  0  0  3  0  0  0  0  0  0
  190.6890  176.5370  147.2970 C   0  0  0  0  0  3  0  0  0  0  0  0
  190.0230  177.9950  144.9790 C   0  0  0  0  0  0  0  0  0  0  0  0
  187.2090  177.8580  147.6860 C   0  0  0  0  0  2  0  0  0  0  0  0
  188.2990  176.8590  148.0830 C   0  0  0  0  0  2  0  0  0  0  0  0
  189.3990  177.0350  147.1110 C   0  0  0  0  0  0  0  0  0  0  0  0
  184.5000  176.6850  136.8920 C   0  0  2  0  0  3  0  0  0  0  0  0
  182.9150  178.1700  137.9630 O   0  0  0  0  0  1  0  0  0  0  0  0
  183.7960  177.1110  138.1910 C   0  0  1  0  0  3  0  0  0  0  0  0
  183.0580  175.9550  138.8400 C   0  0  0  0  0  1  0  0  0  0  0  0
  184.5390  175.1510  136.7770 C   0  0  1  0  0  3  0  0  0  0  0  0
  181.9630  176.1240  134.8540 C   0  0  0  0  0  3  0  0  0  0  0  0
  181.0520  175.5650  135.9050 C   0  0  0  0  0  2  0  0  0  0  0  0
  181.9580  173.2800  136.3460 C   0  0  0  0  0  2  0  0  0  0  0  0
  183.2200  173.2980  135.4870 C   0  0  0  0  0  2  0  0  0  0  0  0
  183.9340  174.6570  135.4510 C   0  0  1  0  0  3  0  0  0  0  0  0
  183.2250  175.7200  134.6550 C   0  0  0  0  0  3  0  0  0  0  0  0
  180.8260  174.0760  135.7120 C   0  0  0  0  0  2  0  0  0  0  0  0
  185.8550  174.6440  136.9720 O   0  0  0  0  0  0  0  0  0  0  0  0
  187.1900  172.6370  137.2040 O   0  0  0  0  0  0  0  0  0  0  0  0
  186.0650  173.3820  137.5350 C   0  0  0  0  0  0  0  0  0  0  0  0
  185.2250  172.9120  138.3450 O   0  0  0  0  0  1  0  0  0  0  0  0
  1  6  1  0  0  0  0
  1  7  1  0  0  0  0
  2  4  2  0  0  0  0
  2  3  1  0  0  0  0
  3  1  2  0  0  0  0
  4  5  1  0  0  0  0
  5 28  1  0  0  0  0
  5  6  2  0  0  0  0
  8  9  1  0  0  0  0
  8 18  1  0  0  0  0
  9 14  1  1  0  0  0
  9 15  1  0  0  0  0
 10 11  1  0  0  0  0
 10 16  1  0  0  0  0
 11  7  1  6  0  0  0
 11 12  1  0  0  0  0
 12 17  1  1  0  0  0
 12  8  1  0  0  0  0
 13  9  1  0  0  0  0
 13 15  1  1  0  0  0
 16 13  1  0  0  0  0
 18 24  1  0  0  0  0
 19 27  1  0  0  0  0
 20 19  1  0  0  0  0
 20 25  1  0  0  0  0
 21 22  2  0  0  0  0
 22 23  1  0  0  0  0
 24 21  1  0  0  0  0
 24 19  2  0  0  0  0
 25 26  1  0  0  0  0
 27 23  2  0  0  0  0
 27 26  1  0  0  0  0
 28 32  1  1  0  0  0
 28 30  1  0  0  0  0
 29 30  1  0  0  0  0
 30 31  1  6  0  0  0
 32 40  1  6  0  0  0
 33 34  1  0  0  0  0
 36 35  1  0  0  0  0
 37 36  1  0  0  0  0
 37 32  1  1  0  0  0
 38 33  2  0  0  0  0
 38 37  1  0  0  0  0
 39 34  1  0  0  0  0
 39 35  1  0  0  0  0
 40 42  1  0  0  0  0
 41 42  2  0  0  0  0
 42 43  1  0  0  0  0
M  END
>  <MODEL>
7

>  <REMARK>
 VINA RESULT:      -7.4      4.488      9.451
  Name = 
  10 active torsions:
  status: ('A' for Active; 'I' for Inactive)
    1  A    between atoms: O_1  and  C_9
    2  A    between atoms: O_1  and  C_17
    3  A    between atoms: N_3  and  C_30
    4  A    between atoms: C_9  and  C_20
    5  A    between atoms: C_9  and  C_29
    6  A    between atoms: C_10  and  N_13
    7  A    between atoms: N_13  and  C_23
    8  A    between atoms: C_15  and  C_29
    9  A    between atoms: C_28  and  C_30
   10  A    between atoms: C_29  and  C_31
                            x       y       z     vdW  Elec       q    Type
                         _______ _______ _______ _____ _____    ______ ____

>  <TORSDO>
F 10

$$$$
=
 OpenBabel11062412203D

 43 48  0  0  1  0  0  0  0  0999 V2000
  185.4010  178.7910  142.2790 C   0  0  0  0  0  0  0  0  0  0  0  0
  183.9920  178.6270  144.2500 C   0  0  0  0  0  3  0  0  0  0  0  0
  185.2610  178.6220  143.6680 C   0  0  0  0  0  3  0  0  0  0  0  0
  182.8580  178.7990  143.4500 C   0  0  0  0  0  3  0  0  0  0  0  0
  182.9830  178.9360  142.0570 C   0  0  0  0  0  0  0  0  0  0  0  0
  184.2610  178.9440  141.4840 C   0  0  0  0  0  3  0  0  0  0  0  0
  186.6940  178.8920  141.6660 N   0  0  0  0  0  2  0  0  0  0  0  0
  190.0370  177.1460  141.2480 N   0  0  0  0  0  0  0  0  0  0  0  0
  190.5750  177.3430  142.6090 C   0  0  2  0  0  0  0  0  0  0  0  0
  187.5530  176.9190  142.9160 C   0  0  0  0  0  2  0  0  0  0  0  0
  187.8960  178.1830  142.0920 C   0  0  1  0  0  3  0  0  0  0  0  0
  188.8820  178.0060  140.9200 C   0  0  1  0  0  3  0  0  0  0  0  0
  189.6880  176.7500  143.6960 C   0  0  2  0  0  3  0  0  0  0  0  0
  191.1110  178.5740  142.9540 F   0  0  0  0  0  0  0  0  0  0  0  0
  191.0230  176.1030  143.3450 C   0  0  0  0  0  2  0  0  0  0  0  0
  188.6380  176.0320  143.1000 O   0  0  0  0  0  0  0  0  0  0  0  0
  189.2970  179.2640  140.5010 F   0  0  0  0  0  0  0  0  0  0  0  0
  191.0300  177.1190  140.1570 C   0  0  0  0  0  2  0  0  0  0  0  0
  191.4070  176.1900  137.8310 C   0  0  0  0  0  0  0  0  0  0  0  0
  193.1840  176.2060  137.9610 S   0  0  0  0  0  0  0  0  0  0  0  0
  189.1400  176.4790  138.6120 C   0  0  0  0  0  3  0  0  0  0  0  0
  188.6620  176.0100  137.3790 C   0  0  0  0  0  3  0  0  0  0  0  0
  189.5620  175.6430  136.3680 C   0  0  0  0  0  3  0  0  0  0  0  0
  190.5190  176.5800  138.8470 C   0  0  0  0  0  0  0  0  0  0  0  0
  193.2800  176.0050  136.1450 C   0  0  0  0  0  2  0  0  0  0  0  0
  191.9760  175.3940  135.6280 C   0  0  0  0  0  2  0  0  0  0  0  0
  190.9320  175.7460  136.6140 C   0  0  0  0  0  0  0  0  0  0  0  0
  181.7820  179.1920  141.1780 C   0  0  2  0  0  3  0  0  0  0  0  0
  180.0470  180.4980  142.2470 O   0  0  0  0  0  1  0  0  0  0  0  0
  180.4730  179.1960  141.9840 C   0  0  1  0  0  3  0  0  0  0  0  0
  179.3730  178.4220  141.2810 C   0  0  0  0  0  1  0  0  0  0  0  0
  181.6780  178.2290  139.9820 C   0  0  1  0  0  3  0  0  0  0  0  0
  181.2340  181.3080  138.7170 C   0  0  0  0  0  3  0  0  0  0  0  0
  179.7840  180.9650  138.5610 C   0  0  0  0  0  2  0  0  0  0  0  0
  179.8010  178.7440  137.4210 C   0  0  0  0  0  2  0  0  0  0  0  0
  181.2960  178.4380  137.4030 C   0  0  0  0  0  2  0  0  0  0  0  0
  182.0470  178.9150  138.6550 C   0  0  1  0  0  3  0  0  0  0  0  0
  182.2250  180.4070  138.7530 C   0  0  0  0  0  3  0  0  0  0  0  0
  179.5210  180.2310  137.2580 C   0  0  0  0  0  2  0  0  0  0  0  0
  182.4440  177.0470  140.1920 O   0  0  0  0  0  0  0  0  0  0  0  0
  180.9370  175.2480  139.5960 O   0  0  0  0  0  1  0  0  0  0  0  0
  182.1720  175.8760  139.4810 C   0  0  0  0  0  0  0  0  0  0  0  0
  183.0540  175.3790  138.7330 O   0  0  0  0  0  0  0  0  0  0  0  0
  1  3  1  0  0  0  0
  3  2  2  0  0  0  0
  4  2  1  0  0  0  0
  5  4  2  0  0  0  0
  6  5  1  0  0  0  0
  6  1  2  0  0  0  0
  7  1  1  0  0  0  0
  8  9  1  0  0  0  0
  9 14  1  1  0  0  0
  9 15  1  0  0  0  0
  9 13  1  0  0  0  0
 10 16  1  0  0  0  0
 11  7  1  6  0  0  0
 11 10  1  0  0  0  0
 12 17  1  1  0  0  0
 12  8  1  0  0  0  0
 12 11  1  0  0  0  0
 13 15  1  1  0  0  0
 16 13  1  0  0  0  0
 18  8  1  0  0  0  0
 19 20  1  0  0  0  0
 19 24  1  0  0  0  0
 21 24  2  0  0  0  0
 22 21  1  0  0  0  0
 23 27  1  0  0  0  0
 23 22  2  0  0  0  0
 24 18  1  0  0  0  0
 25 20  1  0  0  0  0
 26 25  1  0  0  0  0
 26 27  1  0  0  0  0
 27 19  2  0  0  0  0
 28 32  1  6  0  0  0
 28 30  1  0  0  0  0
 28  5  1  0  0  0  0
 30 31  1  6  0  0  0
 30 29  1  0  0  0  0
 32 40  1  1  0  0  0
 33 38  2  0  0  0  0
 34 33  1  0  0  0  0
 36 35  1  0  0  0  0
 36 37  1  0  0  0  0
 37 38  1  0  0  0  0
 37 32  1  1  0  0  0
 39 35  1  0  0  0  0
 39 34  1  0  0  0  0
 42 41  1  0  0  0  0
 42 40  1  0  0  0  0
 43 42  2  0  0  0  0
M  END
>  <MODEL>
8

>  <REMARK>
 VINA RESULT:      -7.3      4.503      7.876
  Name = 
  10 active torsions:
  status: ('A' for Active; 'I' for Inactive)
    1  A    between atoms: O_1  and  C_9
    2  A    between atoms: O_1  and  C_17
    3  A    between atoms: N_3  and  C_30
    4  A    between atoms: C_9  and  C_20
    5  A    between atoms: C_9  and  C_29
    6  A    between atoms: C_10  and  N_13
    7  A    between atoms: N_13  and  C_23
    8  A    between atoms: C_15  and  C_29
    9  A    between atoms: C_28  and  C_30
   10  A    between atoms: C_29  and  C_31
                            x       y       z     vdW  Elec       q    Type
                         _______ _______ _______ _____ _____    ______ ____

>  <TORSDO>
F 10

$$$$
=
 OpenBabel11062412203D

 43 48  0  0  1  0  0  0  0  0999 V2000
  187.2320  178.2230  137.8250 C   0  0  0  0  0  0  0  0  0  0  0  0
  186.8460  177.8610  135.4550 C   0  0  0  0  0  3  0  0  0  0  0  0
  187.5600  178.4790  136.4820 C   0  0  0  0  0  3  0  0  0  0  0  0
  185.8000  176.9840  135.7620 C   0  0  0  0  0  3  0  0  0  0  0  0
  185.4410  176.7450  137.0990 C   0  0  0  0  0  0  0  0  0  0  0  0
  186.1730  177.3600  138.1230 C   0  0  0  0  0  3  0  0  0  0  0  0
  188.0110  178.7640  138.9000 N   0  0  0  0  0  2  0  0  0  0  0  0
  189.4850  178.1430  142.3420 N   0  0  0  0  0  0  0  0  0  0  0  0
  189.2850  176.6820  142.4220 C   0  0  2  0  0  0  0  0  0  0  0  0
  189.9480  177.3180  139.4940 C   0  0  0  0  0  2  0  0  0  0  0  0
  188.6390  177.9920  139.9690 C   0  0  1  0  0  3  0  0  0  0  0  0
  188.7070  178.8060  141.2760 C   0  0  1  0  0  3  0  0  0  0  0  0
  189.9750  175.9220  141.2970 C   0  0  2  0  0  3  0  0  0  0  0  0
  188.0280  176.1850  142.7240 F   0  0  0  0  0  0  0  0  0  0  0  0
  190.5090  175.8490  142.7220 C   0  0  0  0  0  2  0  0  0  0  0  0
  190.7540  176.8140  140.5400 O   0  0  0  0  0  0  0  0  0  0  0  0
  187.4090  179.0740  141.6960 F   0  0  0  0  0  0  0  0  0  0  0  0
  189.4050  178.8780  143.6190 C   0  0  0  0  0  2  0  0  0  0  0  0
  188.9490  177.7520  145.8420 C   0  0  0  0  0  0  0  0  0  0  0  0
  187.2020  178.0980  145.8190 S   0  0  0  0  0  0  0  0  0  0  0  0
  191.2020  177.7280  144.9700 C   0  0  0  0  0  3  0  0  0  0  0  0
  191.6300  177.0340  146.1120 C   0  0  0  0  0  3  0  0  0  0  0  0
  190.7150  176.7120  147.1240 C   0  0  0  0  0  3  0  0  0  0  0  0
  189.8560  178.1000  144.8270 C   0  0  0  0  0  0  0  0  0  0  0  0
  187.1370  177.6970  147.6030 C   0  0  0  0  0  2  0  0  0  0  0  0
  188.3250  176.8060  147.9700 C   0  0  0  0  0  2  0  0  0  0  0  0
  189.3800  177.0850  146.9710 C   0  0  0  0  0  0  0  0  0  0  0  0
  184.3620  175.7530  137.4620 C   0  0  2  0  0  3  0  0  0  0  0  0
  184.9390  173.5630  136.6050 O   0  0  0  0  0  1  0  0  0  0  0  0
  184.1630  174.6970  136.3620 C   0  0  1  0  0  3  0  0  0  0  0  0
  182.7040  174.3050  136.2120 C   0  0  0  0  0  1  0  0  0  0  0  0
  183.0200  176.4080  137.8330 C   0  0  1  0  0  3  0  0  0  0  0  0
  180.1950  176.3160  139.6450 C   0  0  0  0  0  3  0  0  0  0  0  0
  180.0510  177.7830  139.3750 C   0  0  0  0  0  2  0  0  0  0  0  0
  182.2910  178.7310  139.9340 C   0  0  0  0  0  2  0  0  0  0  0  0
  183.0810  177.4580  140.2270 C   0  0  0  0  0  2  0  0  0  0  0  0
  182.7040  176.2680  139.3320 C   0  0  1  0  0  3  0  0  0  0  0  0
  181.3610  175.6560  139.6300 C   0  0  0  0  0  3  0  0  0  0  0  0
  180.8380  178.6150  140.3720 C   0  0  0  0  0  2  0  0  0  0  0  0
  182.9670  177.7670  137.4110 O   0  0  0  0  0  0  0  0  0  0  0  0
  182.3280  177.5430  135.0860 O   0  0  0  0  0  0  0  0  0  0  0  0
  182.1780  178.1550  136.3240 C   0  0  0  0  0  0  0  0  0  0  0  0
  181.3270  179.0710  136.4660 O   0  0  0  0  0  1  0  0  0  0  0  0
  1  6  1  0  0  0  0
  1  7  1  0  0  0  0
  2  4  2  0  0  0  0
  2  3  1  0  0  0  0
  3  1  2  0  0  0  0
  4  5  1  0  0  0  0
  5 28  1  0  0  0  0
  5  6  2  0  0  0  0
  8  9  1  0  0  0  0
  8 18  1  0  0  0  0
  9 15  1  0  0  0  0
  9 14  1  1  0  0  0
 10 11  1  0  0  0  0
 10 16  1  0  0  0  0
 11  7  1  6  0  0  0
 11 12  1  0  0  0  0
 12 17  1  1  0  0  0
 12  8  1  0  0  0  0
 13  9  1  0  0  0  0
 13 15  1  1  0  0  0
 16 13  1  0  0  0  0
 18 24  1  0  0  0  0
 19 27  1  0  0  0  0
 20 19  1  0  0  0  0
 20 25  1  0  0  0  0
 21 22  2  0  0  0  0
 22 23  1  0  0  0  0
 24 21  1  0  0  0  0
 24 19  2  0  0  0  0
 25 26  1  0  0  0  0
 27 23  2  0  0  0  0
 27 26  1  0  0  0  0
 28 30  1  6  0  0  0
 28 32  1  0  0  0  0
 30 31  1  1  0  0  0
 30 29  1  0  0  0  0
 32 40  1  1  0  0  0
 34 33  1  0  0  0  0
 34 39  1  0  0  0  0
 35 36  1  0  0  0  0
 35 39  1  0  0  0  0
 37 32  1  6  0  0  0
 37 38  1  0  0  0  0
 37 36  1  0  0  0  0
 38 33  2  0  0  0  0
 41 42  2  0  0  0  0
 42 43  1  0  0  0  0
 42 40  1  0  0  0  0
M  END
>  <MODEL>
9

>  <REMARK>
 VINA RESULT:      -7.3      4.511      8.999
  Name = 
  10 active torsions:
  status: ('A' for Active; 'I' for Inactive)
    1  A    between atoms: O_1  and  C_9
    2  A    between atoms: O_1  and  C_17
    3  A    between atoms: N_3  and  C_30
    4  A    between atoms: C_9  and  C_20
    5  A    between atoms: C_9  and  C_29
    6  A    between atoms: C_10  and  N_13
    7  A    between atoms: N_13  and  C_23
    8  A    between atoms: C_15  and  C_29
    9  A    between atoms: C_28  and  C_30
   10  A    between atoms: C_29  and  C_31
                            x       y       z     vdW  Elec       q    Type
                         _______ _______ _______ _____ _____    ______ ____

>  <TORSDO>
F 10

$$$$
