=
 OpenBabel11062416573D

 62 67  0  0  1  0  0  0  0  0999 V2000
  186.9210  178.1290  142.5210 C   0  0  0  0  0  0  0  0  0  0  0  0
  187.1270  178.1420  143.7610 O   0  0  0  0  0  0  0  0  0  0  0  0
  187.9000  177.5850  141.6280 N   0  0  0  0  0  2  0  0  0  0  0  0
  183.9850  178.1420  140.5410 C   0  0  1  0  0  3  0  0  0  0  0  0
  184.4700  178.2880  142.8790 C   0  0  2  0  0  3  0  0  0  0  0  0
  185.6320  178.6660  141.9840 C   0  0  2  0  0  3  0  0  0  0  0  0
  185.3840  178.1880  140.6850 O   0  0  0  0  0  0  0  0  0  0  0  0
  183.3700  177.9620  141.9160 C   0  0  0  0  0  2  0  0  0  0  0  0
  183.9830  179.7500  143.9310 P   0  0  1  0  0  0  0  0  0  0  0  0
  182.3110  179.8120  143.4680 O   0  0  0  0  0  1  0  0  0  0  0  0
  184.8980  178.8320  146.2880 O   0  0  0  0  0  1  0  0  0  0  0  0
  183.7160  178.8470  145.5410 C   0  0  0  0  0  2  0  0  0  0  0  0
  183.4890  179.4180  139.8510 C   0  0  1  0  0  3  0  0  0  0  0  0
  184.3480  179.7110  138.6260 C   0  0  0  0  0  1  0  0  0  0  0  0
  181.9960  179.3560  139.4940 C   0  0  1  0  0  3  0  0  0  0  0  0
  181.1470  180.6620  137.4640 C   0  0  0  0  0  1  0  0  0  0  0  0
  180.3290  181.2270  139.7450 C   0  0  0  0  0  1  0  0  0  0  0  0
  181.5040  180.7080  138.9420 C   0  0  0  0  0  3  0  0  0  0  0  0
  181.7090  178.2280  138.6080 N   0  0  0  0  0  2  0  0  0  0  0  0
  180.4120  177.6750  138.9690 C   0  0  0  0  0  2  0  0  0  0  0  0
  179.9430  176.7840  137.9150 N   0  0  0  0  0  2  0  0  0  0  0  0
  180.1770  172.8270  136.9850 C   0  0  0  0  0  0  0  0  0  0  0  0
  179.9650  173.0750  138.2820 C   0  0  0  0  0  3  0  0  0  0  0  0
  180.6550  175.5160  138.0300 C   0  0  2  0  0  3  0  0  0  0  0  0
  181.1580  175.0620  136.6420 C   0  0  0  0  0  2  0  0  0  0  0  0
  180.2750  173.9780  136.0250 C   0  0  0  0  0  2  0  0  0  0  0  0
  179.7550  174.4890  138.7620 C   0  0  2  0  0  3  0  0  0  0  0  0
  181.1520  175.0750  140.6030 F   0  0  0  0  0  0  0  0  0  0  0  0
  179.7680  173.3270  140.8500 F   0  0  0  0  0  0  0  0  0  0  0  0
  179.9000  174.5810  140.2840 C   0  0  0  0  0  0  0  0  0  0  0  0
  178.9310  175.4190  140.8080 F   0  0  0  0  0  0  0  0  0  0  0  0
  179.1390  170.7650  136.2970 N   0  0  0  0  0  1  0  0  0  0  0  0
  180.4110  171.4280  136.5250 C   0  0  0  0  0  2  0  0  0  0  0  0
  189.1060  176.9000  142.0780 C   0  0  2  0  0  0  0  0  0  0  0  0
  190.3110  177.8220  142.1400 C   0  0  2  0  0  3  0  0  0  0  0  0
  190.2370  176.7360  141.0610 C   0  0  2  0  0  3  0  0  0  0  0  0
  188.9600  175.8380  143.1610 C   0  0  0  0  0  1  0  0  0  0  0  0
  189.3410  178.4200  139.6580 O   0  0  0  0  0  0  0  0  0  0  0  0
  189.9730  177.3780  139.7250 C   0  0  0  0  0  0  0  0  0  0  0  0
  190.4720  176.7090  138.4740 C   0  0  1  0  0  3  0  0  0  0  0  0
  192.3080  175.0350  136.6500 C   0  0  2  0  0  3  0  0  0  0  0  0
  193.0270  176.6190  138.2630 C   0  0  0  0  0  2  0  0  0  0  0  0
  193.8090  174.8150  136.7320 C   0  0  2  0  0  3  0  0  0  0  0  0
  193.2360  176.2180  136.8320 C   0  0  1  0  0  3  0  0  0  0  0  0
  191.7040  174.7250  137.8870 O   0  0  0  0  0  0  0  0  0  0  0  0
  191.7660  175.8920  138.6710 C   0  0  2  0  0  3  0  0  0  0  0  0
  194.3800  174.6330  135.3330 C   0  0  0  0  0  2  0  0  0  0  0  0
  195.7500  175.2890  135.2050 C   0  0  0  0  0  2  0  0  0  0  0  0
  196.7440  174.4320  135.6760 O   0  0  0  0  0  1  0  0  0  0  0  0
  189.3510  175.8500  137.8950 C   0  0  0  0  0  2  0  0  0  0  0  0
  188.3770  176.6650  137.1810 N   0  0  0  0  0  2  0  0  0  0  0  0
  187.9630  175.9330  135.9880 C   0  0  0  0  0  2  0  0  0  0  0  0
  184.5150  174.3360  135.8290 C   0  0  0  0  0  3  0  0  0  0  0  0
  184.6510  173.3610  136.8190 C   0  0  0  0  0  0  0  0  0  0  0  0
  186.7920  175.0330  136.2520 C   0  0  0  0  0  0  0  0  0  0  0  0
  185.8620  173.2390  137.5020 C   0  0  0  0  0  3  0  0  0  0  0  0
  186.8970  174.0720  137.2100 N   0  0  0  0  0  0  0  0  0  0  0  0
  183.6180  172.5290  137.1070 F   0  0  0  0  0  0  0  0  0  0  0  0
  185.5850  175.1840  135.5490 C   0  0  0  0  0  3  0  0  0  0  0  0
  191.3670  177.4390  143.1730 C   0  0  0  0  0  2  0  0  0  0  0  0
  191.2760  178.2790  144.2870 O   0  0  0  0  0  0  0  0  0  0  0  0
  190.6910  179.4530  143.8090 C   0  0  0  0  0  1  0  0  0  0  0  0
  1  2  2  0  0  0  0
  3 34  1  0  0  0  0
  3  1  1  0  0  0  0
  4 13  1  1  0  0  0
  4  7  1  0  0  0  0
  4  8  1  0  0  0  0
  5  9  1  1  0  0  0
  6  1  1  1  0  0  0
  6  5  1  0  0  0  0
  7  6  1  0  0  0  0
  8  5  1  0  0  0  0
  9 10  1  6  0  0  0
  9 12  1  0  0  0  0
 12 11  1  0  0  0  0
 13 14  1  6  0  0  0
 15 19  1  6  0  0  0
 15 13  1  0  0  0  0
 16 18  1  0  0  0  0
 18 15  1  0  0  0  0
 18 17  1  0  0  0  0
 19 20  1  0  0  0  0
 21 20  1  0  0  0  0
 22 23  2  0  0  0  0
 23 27  1  0  0  0  0
 24 21  1  6  0  0  0
 24 27  1  0  0  0  0
 25 24  1  0  0  0  0
 26 25  1  0  0  0  0
 26 22  1  0  0  0  0
 27 30  1  1  0  0  0
 30 28  1  0  0  0  0
 30 31  1  0  0  0  0
 30 29  1  0  0  0  0
 32 33  1  0  0  0  0
 33 22  1  0  0  0  0
 34 35  1  0  0  0  0
 34 37  1  1  0  0  0
 35 60  1  1  0  0  0
 36 39  1  6  0  0  0
 36 34  1  0  0  0  0
 36 35  1  0  0  0  0
 38 39  2  0  0  0  0
 40 50  1  1  0  0  0
 40 39  1  0  0  0  0
 41 43  1  0  0  0  0
 41 44  1  0  0  0  0
 41 45  1  1  0  0  0
 42 46  1  0  0  0  0
 43 47  1  6  0  0  0
 43 44  1  0  0  0  0
 44 42  1  1  0  0  0
 45 46  1  0  0  0  0
 46 40  1  6  0  0  0
 48 47  1  0  0  0  0
 48 49  1  0  0  0  0
 51 50  1  0  0  0  0
 52 55  1  0  0  0  0
 52 51  1  0  0  0  0
 53 54  1  0  0  0  0
 54 58  1  0  0  0  0
 54 56  2  0  0  0  0
 55 57  2  0  0  0  0
 57 56  1  0  0  0  0
 59 53  2  0  0  0  0
 59 55  1  0  0  0  0
 60 61  1  0  0  0  0
 62 61  1  0  0  0  0
M  END
>  <MODEL>
1

>  <REMARK>
 VINA RESULT:      -5.9      0.000      0.000
  Name = 
  24 active torsions:
  status: ('A' for Active; 'I' for Inactive)
    1  A    between atoms: C_1  and  C_30
    2  A    between atoms: P_2  and  C_10
    3  A    between atoms: P_2  and  C_31
    4  A    between atoms: C_3  and  C_47
    5  A    between atoms: C_4  and  C_60
    6  A    between atoms: N_8  and  C_12
    7  A    between atoms: N_8  and  C_29
    8  A    between atoms: N_9  and  C_12
    9  A    between atoms: N_9  and  C_23
   10  A    between atoms: C_14  and  C_39
   11  A    between atoms: C_15  and  C_46
   12  A    between atoms: C_15  and  C_53
   13  A    between atoms: C_15  and  C_62
   14  A    between atoms: O_16  and  C_32
   15  A    between atoms: C_20  and  C_47
   16  A    between atoms: C_29  and  C_30
   17  A    between atoms: C_29  and  C_52
   18  A    between atoms: C_32  and  C_40
   19  A    between atoms: C_33  and  N_57
   20  A    between atoms: C_34  and  N_35
   21  A    between atoms: C_34  and  C_37
   22  A    between atoms: N_35  and  C_46
   23  A    between atoms: C_42  and  C_62
   24  A    between atoms: C_45  and  C_55
                            x       y       z     vdW  Elec       q    Type
                         _______ _______ _______ _____ _____    ______ ____

>  <TORSDO>
F 24

$$$$
=
 OpenBabel11062416573D

 62 67  0  0  1  0  0  0  0  0999 V2000
  182.8160  176.3990  138.5730 C   0  0  0  0  0  0  0  0  0  0  0  0
  182.5720  175.8970  139.7000 O   0  0  0  0  0  0  0  0  0  0  0  0
  182.3290  177.7030  138.2380 N   0  0  0  0  0  2  0  0  0  0  0  0
  185.4140  174.2450  137.5020 C   0  0  1  0  0  3  0  0  0  0  0  0
  183.0300  174.2750  137.3070 C   0  0  2  0  0  3  0  0  0  0  0  0
  183.6420  175.6310  137.5910 C   0  0  2  0  0  3  0  0  0  0  0  0
  184.9550  175.4520  138.0610 O   0  0  0  0  0  0  0  0  0  0  0  0
  184.2130  173.3600  137.2260 C   0  0  0  0  0  2  0  0  0  0  0  0
  182.1420  174.3140  135.6660 P   0  0  1  0  0  0  0  0  0  0  0  0
  183.0510  173.0560  134.8900 O   0  0  0  0  0  1  0  0  0  0  0  0
  179.4930  173.8430  135.6720 O   0  0  0  0  0  1  0  0  0  0  0  0
  180.6780  173.2550  136.1270 C   0  0  0  0  0  2  0  0  0  0  0  0
  186.2200  174.5330  136.2300 C   0  0  1  0  0  3  0  0  0  0  0  0
  186.1310  176.0160  135.8850 C   0  0  0  0  0  1  0  0  0  0  0  0
  187.6800  174.0630  136.3350 C   0  0  1  0  0  3  0  0  0  0  0  0
  187.9310  171.5300  136.5980 C   0  0  0  0  0  1  0  0  0  0  0  0
  186.7970  172.4720  134.5940 C   0  0  0  0  0  1  0  0  0  0  0  0
  187.8740  172.7050  135.6340 C   0  0  0  0  0  3  0  0  0  0  0  0
  188.6040  175.0960  135.8680 N   0  0  0  0  0  2  0  0  0  0  0  0
  189.3560  175.5940  137.0100 C   0  0  0  0  0  2  0  0  0  0  0  0
  190.3220  174.5920  137.4420 N   0  0  0  0  0  2  0  0  0  0  0  0
  194.0260  173.2410  136.4290 C   0  0  0  0  0  0  0  0  0  0  0  0
  194.0310  174.3670  137.1520 C   0  0  0  0  0  3  0  0  0  0  0  0
  191.5590  174.7870  136.6940 C   0  0  2  0  0  3  0  0  0  0  0  0
  191.7280  173.6650  135.6470 C   0  0  0  0  0  2  0  0  0  0  0  0
  192.7150  172.5890  136.0960 C   0  0  0  0  0  2  0  0  0  0  0  0
  192.7390  174.9320  137.6860 C   0  0  2  0  0  3  0  0  0  0  0  0
  193.6890  176.4050  139.3020 F   0  0  0  0  0  0  0  0  0  0  0  0
  191.6930  176.9470  138.4330 F   0  0  0  0  0  0  0  0  0  0  0  0
  192.9230  176.3810  138.1520 C   0  0  0  0  0  0  0  0  0  0  0  0
  193.5500  177.1250  137.1680 F   0  0  0  0  0  0  0  0  0  0  0  0
  195.4350  171.2990  136.2160 N   0  0  0  0  0  1  0  0  0  0  0  0
  195.3060  172.7060  135.8810 C   0  0  0  0  0  2  0  0  0  0  0  0
  181.6560  178.5790  139.1890 C   0  0  2  0  0  0  0  0  0  0  0  0
  181.8110  180.0490  138.8410 C   0  0  2  0  0  3  0  0  0  0  0  0
  182.5380  179.4740  140.0610 C   0  0  2  0  0  3  0  0  0  0  0  0
  180.3210  178.1170  139.7630 C   0  0  0  0  0  1  0  0  0  0  0  0
  184.4200  179.5330  138.6250 O   0  0  0  0  0  0  0  0  0  0  0  0
  184.0110  179.3770  139.7650 C   0  0  0  0  0  0  0  0  0  0  0  0
  184.9690  179.0590  140.8800 C   0  0  1  0  0  3  0  0  0  0  0  0
  185.5560  178.6590  143.8790 C   0  0  2  0  0  3  0  0  0  0  0  0
  183.4120  178.9820  142.9170 C   0  0  0  0  0  2  0  0  0  0  0  0
  184.5970  178.3590  145.0190 C   0  0  2  0  0  3  0  0  0  0  0  0
  184.2890  179.4720  144.0330 C   0  0  1  0  0  3  0  0  0  0  0  0
  185.3820  177.7210  142.8390 O   0  0  0  0  0  0  0  0  0  0  0  0
  184.3540  178.2160  142.0160 C   0  0  2  0  0  3  0  0  0  0  0  0
  185.1120  178.9900  146.3040 C   0  0  0  0  0  2  0  0  0  0  0  0
  186.5090  178.4880  146.6450 C   0  0  0  0  0  2  0  0  0  0  0  0
  186.6360  177.1400  146.3130 O   0  0  0  0  0  1  0  0  0  0  0  0
  186.2050  178.3860  140.2900 C   0  0  0  0  0  2  0  0  0  0  0  0
  187.4290  178.9800  140.8100 N   0  0  0  0  0  2  0  0  0  0  0  0
  188.5390  178.0970  140.4710 C   0  0  0  0  0  2  0  0  0  0  0  0
  191.4210  176.9310  142.6630 C   0  0  0  0  0  3  0  0  0  0  0  0
  190.8440  177.0810  143.9260 C   0  0  0  0  0  0  0  0  0  0  0  0
  189.3730  177.7480  141.6690 C   0  0  0  0  0  0  0  0  0  0  0  0
  189.5410  177.5690  144.0330 C   0  0  0  0  0  3  0  0  0  0  0  0
  188.8370  177.8860  142.9130 N   0  0  0  0  0  0  0  0  0  0  0  0
  191.5490  176.7670  145.0420 F   0  0  0  0  0  0  0  0  0  0  0  0
  190.6810  177.2550  141.5280 C   0  0  0  0  0  3  0  0  0  0  0  0
  180.6720  180.9500  139.3070 C   0  0  0  0  0  2  0  0  0  0  0  0
  180.7150  182.1700  138.6260 O   0  0  0  0  0  0  0  0  0  0  0  0
  180.4300  181.8540  137.2970 C   0  0  0  0  0  1  0  0  0  0  0  0
  1  2  2  0  0  0  0
  3  1  1  0  0  0  0
  3 34  1  0  0  0  0
  4 13  1  6  0  0  0
  4  7  1  0  0  0  0
  5  9  1  6  0  0  0
  5  6  1  0  0  0  0
  6  7  1  0  0  0  0
  6  1  1  1  0  0  0
  8  5  1  0  0  0  0
  8  4  1  0  0  0  0
  9 10  1  6  0  0  0
  9 12  1  0  0  0  0
 11 12  1  0  0  0  0
 13 14  1  1  0  0  0
 13 15  1  0  0  0  0
 15 18  1  6  0  0  0
 17 18  1  0  0  0  0
 18 16  1  0  0  0  0
 19 15  1  0  0  0  0
 19 20  1  0  0  0  0
 20 21  1  0  0  0  0
 22 23  2  0  0  0  0
 23 27  1  0  0  0  0
 24 21  1  1  0  0  0
 24 27  1  0  0  0  0
 25 26  1  0  0  0  0
 25 24  1  0  0  0  0
 26 22  1  0  0  0  0
 27 30  1  6  0  0  0
 30 29  1  0  0  0  0
 30 28  1  0  0  0  0
 31 30  1  0  0  0  0
 33 32  1  0  0  0  0
 33 22  1  0  0  0  0
 34 37  1  1  0  0  0
 34 36  1  0  0  0  0
 35 34  1  0  0  0  0
 35 60  1  1  0  0  0
 35 36  1  0  0  0  0
 36 39  1  6  0  0  0
 38 39  2  0  0  0  0
 39 40  1  0  0  0  0
 40 50  1  6  0  0  0
 41 45  1  6  0  0  0
 41 44  1  0  0  0  0
 41 43  1  0  0  0  0
 43 47  1  1  0  0  0
 44 42  1  6  0  0  0
 44 43  1  0  0  0  0
 46 40  1  6  0  0  0
 46 45  1  0  0  0  0
 46 42  1  0  0  0  0
 47 48  1  0  0  0  0
 49 48  1  0  0  0  0
 50 51  1  0  0  0  0
 52 51  1  0  0  0  0
 52 55  1  0  0  0  0
 53 54  1  0  0  0  0
 54 56  2  0  0  0  0
 54 58  1  0  0  0  0
 55 57  2  0  0  0  0
 57 56  1  0  0  0  0
 59 55  1  0  0  0  0
 59 53  2  0  0  0  0
 61 60  1  0  0  0  0
 62 61  1  0  0  0  0
M  END
>  <MODEL>
2

>  <REMARK>
 VINA RESULT:      -5.9      4.212     10.362
  Name = 
  24 active torsions:
  status: ('A' for Active; 'I' for Inactive)
    1  A    between atoms: C_1  and  C_30
    2  A    between atoms: P_2  and  C_10
    3  A    between atoms: P_2  and  C_31
    4  A    between atoms: C_3  and  C_47
    5  A    between atoms: C_4  and  C_60
    6  A    between atoms: N_8  and  C_12
    7  A    between atoms: N_8  and  C_29
    8  A    between atoms: N_9  and  C_12
    9  A    between atoms: N_9  and  C_23
   10  A    between atoms: C_14  and  C_39
   11  A    between atoms: C_15  and  C_46
   12  A    between atoms: C_15  and  C_53
   13  A    between atoms: C_15  and  C_62
   14  A    between atoms: O_16  and  C_32
   15  A    between atoms: C_20  and  C_47
   16  A    between atoms: C_29  and  C_30
   17  A    between atoms: C_29  and  C_52
   18  A    between atoms: C_32  and  C_40
   19  A    between atoms: C_33  and  N_57
   20  A    between atoms: C_34  and  N_35
   21  A    between atoms: C_34  and  C_37
   22  A    between atoms: N_35  and  C_46
   23  A    between atoms: C_42  and  C_62
   24  A    between atoms: C_45  and  C_55
                            x       y       z     vdW  Elec       q    Type
                         _______ _______ _______ _____ _____    ______ ____

>  <TORSDO>
F 24

$$$$
=
 OpenBabel11062416573D

 62 67  0  0  1  0  0  0  0  0999 V2000
  186.8550  178.2130  142.3860 C   0  0  0  0  0  0  0  0  0  0  0  0
  187.1040  178.2580  143.6180 O   0  0  0  0  0  0  0  0  0  0  0  0
  187.8080  177.6600  141.4720 N   0  0  0  0  0  2  0  0  0  0  0  0
  183.9060  178.2040  140.4250 C   0  0  1  0  0  3  0  0  0  0  0  0
  184.4020  178.2530  142.7650 C   0  0  2  0  0  3  0  0  0  0  0  0
  185.5410  178.7230  141.8840 C   0  0  2  0  0  3  0  0  0  0  0  0
  185.3040  178.3010  140.5640 O   0  0  0  0  0  0  0  0  0  0  0  0
  183.3090  177.9300  141.7930 C   0  0  0  0  0  2  0  0  0  0  0  0
  183.8630  179.6390  143.8920 P   0  0  1  0  0  0  0  0  0  0  0  0
  182.1510  179.4310  143.6990 O   0  0  0  0  0  1  0  0  0  0  0  0
  185.1320  179.1590  146.2150 O   0  0  0  0  0  1  0  0  0  0  0  0
  183.9980  178.7330  145.5170 C   0  0  0  0  0  2  0  0  0  0  0  0
  183.3540  179.4910  139.8030 C   0  0  1  0  0  3  0  0  0  0  0  0
  184.3020  179.9910  138.7190 C   0  0  0  0  0  1  0  0  0  0  0  0
  181.9220  179.3240  139.2700 C   0  0  1  0  0  3  0  0  0  0  0  0
  180.9330  181.3700  138.0950 C   0  0  0  0  0  1  0  0  0  0  0  0
  179.7800  180.3830  140.0660 C   0  0  0  0  0  1  0  0  0  0  0  0
  181.1240  180.6340  139.4120 C   0  0  0  0  0  3  0  0  0  0  0  0
  181.9230  178.7890  137.9080 N   0  0  0  0  0  2  0  0  0  0  0  0
  180.9790  177.6840  137.8450 C   0  0  0  0  0  2  0  0  0  0  0  0
  181.6710  176.4260  138.1010 N   0  0  0  0  0  2  0  0  0  0  0  0
  179.8060  172.9720  137.0210 C   0  0  0  0  0  0  0  0  0  0  0  0
  181.1380  172.9400  136.8950 C   0  0  0  0  0  3  0  0  0  0  0  0
  181.3110  175.4780  137.0520 C   0  0  2  0  0  3  0  0  0  0  0  0
  179.7770  175.4320  136.8810 C   0  0  0  0  0  2  0  0  0  0  0  0
  179.1500  174.2120  137.5550 C   0  0  0  0  0  2  0  0  0  0  0  0
  181.9730  174.1100  137.3510 C   0  0  2  0  0  3  0  0  0  0  0  0
  183.4540  173.0350  135.8230 F   0  0  0  0  0  0  0  0  0  0  0  0
  184.2860  173.7060  137.7960 F   0  0  0  0  0  0  0  0  0  0  0  0
  183.3950  174.0240  136.7870 C   0  0  0  0  0  0  0  0  0  0  0  0
  183.7610  175.2340  136.2250 F   0  0  0  0  0  0  0  0  0  0  0  0
  179.8210  170.6370  136.4270 N   0  0  0  0  0  1  0  0  0  0  0  0
  178.9880  171.8210  136.5420 C   0  0  0  0  0  2  0  0  0  0  0  0
  189.0380  177.0010  141.8930 C   0  0  2  0  0  0  0  0  0  0  0  0
  190.2400  177.9270  141.8550 C   0  0  2  0  0  3  0  0  0  0  0  0
  190.1190  176.7930  140.8310 C   0  0  2  0  0  3  0  0  0  0  0  0
  188.9500  175.9890  143.0300 C   0  0  0  0  0  1  0  0  0  0  0  0
  189.4030  178.5260  139.3850 O   0  0  0  0  0  0  0  0  0  0  0  0
  189.7880  177.3710  139.4820 C   0  0  0  0  0  0  0  0  0  0  0  0
  189.9090  176.5060  138.2570 C   0  0  1  0  0  3  0  0  0  0  0  0
  188.6580  174.8340  135.9900 C   0  0  2  0  0  3  0  0  0  0  0  0
  187.4630  176.1120  137.5920 C   0  0  0  0  0  2  0  0  0  0  0  0
  187.2320  174.8320  135.4660 C   0  0  2  0  0  3  0  0  0  0  0  0
  187.4980  174.7510  136.9590 C   0  0  1  0  0  3  0  0  0  0  0  0
  189.1720  176.1490  135.9930 O   0  0  0  0  0  0  0  0  0  0  0  0
  188.7920  176.7280  137.2170 C   0  0  2  0  0  3  0  0  0  0  0  0
  186.8680  173.4400  134.9720 C   0  0  0  0  0  2  0  0  0  0  0  0
  186.8070  172.4430  136.1230 C   0  0  0  0  0  2  0  0  0  0  0  0
  187.7020  171.3960  135.9070 O   0  0  0  0  0  1  0  0  0  0  0  0
  191.2920  176.7100  137.6450 C   0  0  0  0  0  2  0  0  0  0  0  0
  192.1230  175.5260  137.8130 N   0  0  0  0  0  2  0  0  0  0  0  0
  192.5020  175.0480  136.4870 C   0  0  0  0  0  2  0  0  0  0  0  0
  196.2690  174.6060  136.7750 C   0  0  0  0  0  3  0  0  0  0  0  0
  196.6940  175.4620  135.7570 C   0  0  0  0  0  0  0  0  0  0  0  0
  193.9780  175.1660  136.2400 C   0  0  0  0  0  0  0  0  0  0  0  0
  195.7470  176.1500  134.9960 C   0  0  0  0  0  3  0  0  0  0  0  0
  194.4200  175.9920  135.2530 N   0  0  0  0  0  0  0  0  0  0  0  0
  198.0180  175.6160  135.5010 F   0  0  0  0  0  0  0  0  0  0  0  0
  194.9060  174.4640  137.0270 C   0  0  0  0  0  3  0  0  0  0  0  0
  191.3470  177.5960  142.8510 C   0  0  0  0  0  2  0  0  0  0  0  0
  191.6400  178.7170  143.6330 O   0  0  0  0  0  0  0  0  0  0  0  0
  190.6480  178.7460  144.6130 C   0  0  0  0  0  1  0  0  0  0  0  0
  1  2  2  0  0  0  0
  3 34  1  0  0  0  0
  3  1  1  0  0  0  0
  4 13  1  1  0  0  0
  4  7  1  0  0  0  0
  4  8  1  0  0  0  0
  5  9  1  1  0  0  0
  6  1  1  1  0  0  0
  6  5  1  0  0  0  0
  7  6  1  0  0  0  0
  8  5  1  0  0  0  0
  9 10  1  6  0  0  0
  9 12  1  0  0  0  0
 12 11  1  0  0  0  0
 13 14  1  6  0  0  0
 15 19  1  6  0  0  0
 15 18  1  0  0  0  0
 15 13  1  0  0  0  0
 16 18  1  0  0  0  0
 18 17  1  0  0  0  0
 20 19  1  0  0  0  0
 20 21  1  0  0  0  0
 22 26  1  0  0  0  0
 23 22  2  0  0  0  0
 23 27  1  0  0  0  0
 24 27  1  0  0  0  0
 24 21  1  1  0  0  0
 25 24  1  0  0  0  0
 25 26  1  0  0  0  0
 27 30  1  6  0  0  0
 28 30  1  0  0  0  0
 30 29  1  0  0  0  0
 31 30  1  0  0  0  0
 32 33  1  0  0  0  0
 33 22  1  0  0  0  0
 34 37  1  1  0  0  0
 35 34  1  0  0  0  0
 35 60  1  1  0  0  0
 36 39  1  6  0  0  0
 36 35  1  0  0  0  0
 36 34  1  0  0  0  0
 38 39  2  0  0  0  0
 40 50  1  6  0  0  0
 40 39  1  0  0  0  0
 41 45  1  1  0  0  0
 41 44  1  0  0  0  0
 43 47  1  6  0  0  0
 43 41  1  0  0  0  0
 43 44  1  0  0  0  0
 44 42  1  1  0  0  0
 45 46  1  0  0  0  0
 46 42  1  0  0  0  0
 46 40  1  1  0  0  0
 47 48  1  0  0  0  0
 49 48  1  0  0  0  0
 50 51  1  0  0  0  0
 52 51  1  0  0  0  0
 53 59  1  0  0  0  0
 54 53  2  0  0  0  0
 55 52  1  0  0  0  0
 55 59  2  0  0  0  0
 56 57  2  0  0  0  0
 56 54  1  0  0  0  0
 57 55  1  0  0  0  0
 58 54  1  0  0  0  0
 60 61  1  0  0  0  0
 61 62  1  0  0  0  0
M  END
>  <MODEL>
3

>  <REMARK>
 VINA RESULT:      -5.9      2.474      4.785
  Name = 
  24 active torsions:
  status: ('A' for Active; 'I' for Inactive)
    1  A    between atoms: C_1  and  C_30
    2  A    between atoms: P_2  and  C_10
    3  A    between atoms: P_2  and  C_31
    4  A    between atoms: C_3  and  C_47
    5  A    between atoms: C_4  and  C_60
    6  A    between atoms: N_8  and  C_12
    7  A    between atoms: N_8  and  C_29
    8  A    between atoms: N_9  and  C_12
    9  A    between atoms: N_9  and  C_23
   10  A    between atoms: C_14  and  C_39
   11  A    between atoms: C_15  and  C_46
   12  A    between atoms: C_15  and  C_53
   13  A    between atoms: C_15  and  C_62
   14  A    between atoms: O_16  and  C_32
   15  A    between atoms: C_20  and  C_47
   16  A    between atoms: C_29  and  C_30
   17  A    between atoms: C_29  and  C_52
   18  A    between atoms: C_32  and  C_40
   19  A    between atoms: C_33  and  N_57
   20  A    between atoms: C_34  and  N_35
   21  A    between atoms: C_34  and  C_37
   22  A    between atoms: N_35  and  C_46
   23  A    between atoms: C_42  and  C_62
   24  A    between atoms: C_45  and  C_55
                            x       y       z     vdW  Elec       q    Type
                         _______ _______ _______ _____ _____    ______ ____

>  <TORSDO>
F 24

$$$$
=
 OpenBabel11062416573D

 62 67  0  0  1  0  0  0  0  0999 V2000
  184.8220  178.9280  138.8740 C   0  0  0  0  0  0  0  0  0  0  0  0
  184.4840  180.1320  138.7440 O   0  0  0  0  0  0  0  0  0  0  0  0
  183.8310  177.9140  139.0810 N   0  0  0  0  0  2  0  0  0  0  0  0
  187.7820  177.1900  139.7430 C   0  0  1  0  0  3  0  0  0  0  0  0
  186.4940  177.4810  137.7480 C   0  0  2  0  0  3  0  0  0  0  0  0
  186.2680  178.5570  138.7890 C   0  0  2  0  0  3  0  0  0  0  0  0
  186.7500  178.1030  140.0300 O   0  0  0  0  0  0  0  0  0  0  0  0
  187.5190  176.5870  138.3760 C   0  0  0  0  0  2  0  0  0  0  0  0
  187.1850  178.2450  136.1910 P   0  0  1  0  0  0  0  0  0  0  0  0
  188.0010  179.5820  136.9410 O   0  0  0  0  0  1  0  0  0  0  0  0
  189.6090  177.7550  135.1310 O   0  0  0  0  0  1  0  0  0  0  0  0
  188.6930  177.1630  136.0070 C   0  0  0  0  0  2  0  0  0  0  0  0
  189.1390  177.9000  139.8050 C   0  0  1  0  0  3  0  0  0  0  0  0
  189.0370  179.1320  140.6990 C   0  0  0  0  0  1  0  0  0  0  0  0
  190.2750  176.9680  140.2550 C   0  0  1  0  0  3  0  0  0  0  0  0
  192.7830  177.0830  139.7570 C   0  0  0  0  0  1  0  0  0  0  0  0
  191.3090  175.5970  138.4120 C   0  0  0  0  0  1  0  0  0  0  0  0
  191.3850  176.8960  139.1880 C   0  0  0  0  0  3  0  0  0  0  0  0
  190.7690  177.3350  141.5820 N   0  0  0  0  0  2  0  0  0  0  0  0
  190.2160  176.4040  142.5540 C   0  0  0  0  0  2  0  0  0  0  0  0
  190.2970  176.9780  143.8910 N   0  0  0  0  0  2  0  0  0  0  0  0
  186.5160  178.0930  144.9090 C   0  0  0  0  0  0  0  0  0  0  0  0
  187.3700  178.0440  145.9380 C   0  0  0  0  0  3  0  0  0  0  0  0
  189.0570  176.6810  144.6000 C   0  0  2  0  0  3  0  0  0  0  0  0
  187.8950  176.5300  143.5940 C   0  0  0  0  0  2  0  0  0  0  0  0
  187.0130  177.7760  143.5280 C   0  0  0  0  0  2  0  0  0  0  0  0
  188.8280  177.7450  145.7020 C   0  0  2  0  0  3  0  0  0  0  0  0
  190.8930  177.2490  146.7860 F   0  0  0  0  0  0  0  0  0  0  0  0
  189.0550  176.1700  147.4850 F   0  0  0  0  0  0  0  0  0  0  0  0
  189.5350  177.3770  147.0100 C   0  0  0  0  0  0  0  0  0  0  0  0
  189.3190  178.3570  147.9640 F   0  0  0  0  0  0  0  0  0  0  0  0
  184.6290  179.4760  144.3360 N   0  0  0  0  0  1  0  0  0  0  0  0
  185.0700  178.3620  145.1570 C   0  0  0  0  0  2  0  0  0  0  0  0
  182.3970  178.1670  139.0180 C   0  0  2  0  0  0  0  0  0  0  0  0
  181.6120  177.3300  140.0120 C   0  0  2  0  0  3  0  0  0  0  0  0
  181.5080  177.0290  138.5130 C   0  0  2  0  0  3  0  0  0  0  0  0
  181.9360  179.5980  138.7660 C   0  0  0  0  0  1  0  0  0  0  0  0
  182.8680  175.1770  139.0850 O   0  0  0  0  0  0  0  0  0  0  0  0
  182.2430  175.7520  138.2070 C   0  0  0  0  0  0  0  0  0  0  0  0
  182.2220  175.2040  136.8060 C   0  0  1  0  0  3  0  0  0  0  0  0
  180.9610  173.0390  135.0120 C   0  0  2  0  0  3  0  0  0  0  0  0
  180.0510  173.8590  137.0430 C   0  0  0  0  0  2  0  0  0  0  0  0
  179.5590  172.4550  135.0440 C   0  0  2  0  0  3  0  0  0  0  0  0
  180.3650  172.5790  136.3240 C   0  0  1  0  0  3  0  0  0  0  0  0
  180.8990  174.4470  134.9430 O   0  0  0  0  0  0  0  0  0  0  0  0
  180.8060  174.9130  136.2670 C   0  0  2  0  0  3  0  0  0  0  0  0
  179.5960  171.0010  134.5960 C   0  0  0  0  0  2  0  0  0  0  0  0
  179.4110  170.0550  135.7760 C   0  0  0  0  0  2  0  0  0  0  0  0
  178.9370  170.7500  136.8870 O   0  0  0  0  0  1  0  0  0  0  0  0
  182.9830  176.1610  135.8930 C   0  0  0  0  0  2  0  0  0  0  0  0
  184.3110  175.6500  135.5830 N   0  0  0  0  0  2  0  0  0  0  0  0
  184.2720  174.1960  135.6840 C   0  0  0  0  0  2  0  0  0  0  0  0
  187.6110  172.9300  136.9940 C   0  0  0  0  0  3  0  0  0  0  0  0
  188.1990  172.5090  135.8000 C   0  0  0  0  0  0  0  0  0  0  0  0
  185.6450  173.5930  135.7520 C   0  0  0  0  0  0  0  0  0  0  0  0
  187.4910  172.6340  134.6030 C   0  0  0  0  0  3  0  0  0  0  0  0
  186.2420  173.1720  134.6030 N   0  0  0  0  0  0  0  0  0  0  0  0
  189.4440  171.9690  135.8020 F   0  0  0  0  0  0  0  0  0  0  0  0
  186.3330  173.4850  136.9720 C   0  0  0  0  0  3  0  0  0  0  0  0
  180.3060  177.9530  140.4960 C   0  0  0  0  0  2  0  0  0  0  0  0
  180.3580  178.1640  141.8770 O   0  0  0  0  0  0  0  0  0  0  0  0
  180.2700  179.5470  142.0370 C   0  0  0  0  0  1  0  0  0  0  0  0
  1  3  1  0  0  0  0
  2  1  2  0  0  0  0
  4 13  1  6  0  0  0
  4  7  1  0  0  0  0
  5  9  1  6  0  0  0
  5  8  1  0  0  0  0
  5  6  1  0  0  0  0
  6  1  1  1  0  0  0
  6  7  1  0  0  0  0
  8  4  1  0  0  0  0
  9 10  1  1  0  0  0
 11 12  1  0  0  0  0
 12  9  1  0  0  0  0
 13 15  1  0  0  0  0
 13 14  1  1  0  0  0
 15 18  1  6  0  0  0
 15 19  1  0  0  0  0
 17 18  1  0  0  0  0
 18 16  1  0  0  0  0
 19 20  1  0  0  0  0
 20 21  1  0  0  0  0
 22 33  1  0  0  0  0
 22 23  2  0  0  0  0
 24 21  1  6  0  0  0
 24 27  1  0  0  0  0
 25 24  1  0  0  0  0
 26 25  1  0  0  0  0
 26 22  1  0  0  0  0
 27 23  1  0  0  0  0
 27 30  1  1  0  0  0
 28 30  1  0  0  0  0
 30 29  1  0  0  0  0
 30 31  1  0  0  0  0
 32 33  1  0  0  0  0
 34 37  1  6  0  0  0
 34  3  1  0  0  0  0
 34 35  1  0  0  0  0
 35 60  1  6  0  0  0
 36 39  1  1  0  0  0
 36 34  1  0  0  0  0
 36 35  1  0  0  0  0
 39 38  2  0  0  0  0
 40 50  1  6  0  0  0
 40 39  1  0  0  0  0
 41 45  1  1  0  0  0
 41 43  1  0  0  0  0
 41 44  1  0  0  0  0
 43 47  1  6  0  0  0
 43 44  1  0  0  0  0
 44 42  1  1  0  0  0
 45 46  1  0  0  0  0
 46 40  1  1  0  0  0
 46 42  1  0  0  0  0
 47 48  1  0  0  0  0
 48 49  1  0  0  0  0
 51 52  1  0  0  0  0
 51 50  1  0  0  0  0
 52 55  1  0  0  0  0
 54 58  1  0  0  0  0
 54 53  2  0  0  0  0
 55 59  2  0  0  0  0
 56 57  2  0  0  0  0
 56 54  1  0  0  0  0
 57 55  1  0  0  0  0
 59 53  1  0  0  0  0
 60 61  1  0  0  0  0
 61 62  1  0  0  0  0
M  END
>  <MODEL>
4

>  <REMARK>
 VINA RESULT:      -5.7      3.929      9.815
  Name = 
  24 active torsions:
  status: ('A' for Active; 'I' for Inactive)
    1  A    between atoms: C_1  and  C_30
    2  A    between atoms: P_2  and  C_10
    3  A    between atoms: P_2  and  C_31
    4  A    between atoms: C_3  and  C_47
    5  A    between atoms: C_4  and  C_60
    6  A    between atoms: N_8  and  C_12
    7  A    between atoms: N_8  and  C_29
    8  A    between atoms: N_9  and  C_12
    9  A    between atoms: N_9  and  C_23
   10  A    between atoms: C_14  and  C_39
   11  A    between atoms: C_15  and  C_46
   12  A    between atoms: C_15  and  C_53
   13  A    between atoms: C_15  and  C_62
   14  A    between atoms: O_16  and  C_32
   15  A    between atoms: C_20  and  C_47
   16  A    between atoms: C_29  and  C_30
   17  A    between atoms: C_29  and  C_52
   18  A    between atoms: C_32  and  C_40
   19  A    between atoms: C_33  and  N_57
   20  A    between atoms: C_34  and  N_35
   21  A    between atoms: C_34  and  C_37
   22  A    between atoms: N_35  and  C_46
   23  A    between atoms: C_42  and  C_62
   24  A    between atoms: C_45  and  C_55
                            x       y       z     vdW  Elec       q    Type
                         _______ _______ _______ _____ _____    ______ ____

>  <TORSDO>
F 24

$$$$
=
 OpenBabel11062416573D

 62 67  0  0  1  0  0  0  0  0999 V2000
  185.2990  178.6710  139.0700 C   0  0  0  0  0  0  0  0  0  0  0  0
  185.3690  179.3910  140.0990 O   0  0  0  0  0  0  0  0  0  0  0  0
  184.0280  178.3560  138.4900 N   0  0  0  0  0  2  0  0  0  0  0  0
  188.1120  176.5540  138.6910 C   0  0  1  0  0  3  0  0  0  0  0  0
  186.2520  177.1870  137.3250 C   0  0  2  0  0  3  0  0  0  0  0  0
  186.5570  178.1640  138.4410 C   0  0  2  0  0  3  0  0  0  0  0  0
  187.3820  177.5340  139.3900 O   0  0  0  0  0  0  0  0  0  0  0  0
  187.3020  176.1290  137.4810 C   0  0  0  0  0  2  0  0  0  0  0  0
  186.4430  178.0350  135.6740 P   0  0  1  0  0  0  0  0  0  0  0  0
  187.3470  179.4080  136.2310 O   0  0  0  0  0  1  0  0  0  0  0  0
  189.0210  177.9050  134.9150 O   0  0  0  0  0  1  0  0  0  0  0  0
  187.9070  177.0680  135.0420 C   0  0  0  0  0  2  0  0  0  0  0  0
  189.4850  177.1100  138.2980 C   0  0  1  0  0  3  0  0  0  0  0  0
  189.4870  178.6290  138.4340 C   0  0  0  0  0  1  0  0  0  0  0  0
  190.6330  176.4690  139.0950 C   0  0  1  0  0  3  0  0  0  0  0  0
  191.1680  175.6330  136.7360 C   0  0  0  0  0  1  0  0  0  0  0  0
  192.9440  176.6920  138.1190 C   0  0  0  0  0  1  0  0  0  0  0  0
  191.6830  175.8530  138.1500 C   0  0  0  0  0  3  0  0  0  0  0  0
  191.2010  177.4110  140.0590 N   0  0  0  0  0  2  0  0  0  0  0  0
  190.1730  177.7550  141.0300 C   0  0  0  0  0  2  0  0  0  0  0  0
  190.2000  176.8060  142.1360 N   0  0  0  0  0  2  0  0  0  0  0  0
  190.7470  176.8940  146.1700 C   0  0  0  0  0  0  0  0  0  0  0  0
  189.4690  177.0010  145.7860 C   0  0  0  0  0  3  0  0  0  0  0  0
  190.1340  177.5530  143.3880 C   0  0  2  0  0  3  0  0  0  0  0  0
  191.5480  177.7110  143.9870 C   0  0  0  0  0  2  0  0  0  0  0  0
  191.8140  176.7280  145.1270 C   0  0  0  0  0  2  0  0  0  0  0  0
  189.1010  176.8840  144.3290 C   0  0  2  0  0  3  0  0  0  0  0  0
  186.8360  176.3250  143.8390 F   0  0  0  0  0  0  0  0  0  0  0  0
  187.6620  178.2200  142.9670 F   0  0  0  0  0  0  0  0  0  0  0  0
  187.6790  177.3950  144.0770 C   0  0  0  0  0  0  0  0  0  0  0  0
  187.2230  178.1040  145.1740 F   0  0  0  0  0  0  0  0  0  0  0  0
  192.2720  176.2330  147.9130 N   0  0  0  0  0  1  0  0  0  0  0  0
  191.1030  177.0390  147.6100 C   0  0  0  0  0  2  0  0  0  0  0  0
  182.7700  178.9370  138.9450 C   0  0  2  0  0  0  0  0  0  0  0  0
  182.2720  178.3140  140.2370 C   0  0  2  0  0  3  0  0  0  0  0  0
  181.5350  178.0360  138.9220 C   0  0  2  0  0  3  0  0  0  0  0  0
  182.5650  180.4350  138.7460 C   0  0  0  0  0  1  0  0  0  0  0  0
  182.2970  175.8210  139.2710 O   0  0  0  0  0  0  0  0  0  0  0  0
  181.8040  176.6200  138.4890 C   0  0  0  0  0  0  0  0  0  0  0  0
  181.4850  176.2050  137.0790 C   0  0  1  0  0  3  0  0  0  0  0  0
  183.5730  174.9050  135.2220 C   0  0  2  0  0  3  0  0  0  0  0  0
  183.1370  174.2820  137.4690 C   0  0  0  0  0  2  0  0  0  0  0  0
  184.3450  173.6080  135.3970 C   0  0  2  0  0  3  0  0  0  0  0  0
  184.2650  174.6090  136.5360 C   0  0  1  0  0  3  0  0  0  0  0  0
  182.1890  174.6680  135.3650 O   0  0  0  0  0  0  0  0  0  0  0  0
  181.9020  174.7600  136.7390 C   0  0  2  0  0  3  0  0  0  0  0  0
  185.7150  173.7330  134.7480 C   0  0  0  0  0  2  0  0  0  0  0  0
  186.6120  172.5570  135.1160 C   0  0  0  0  0  2  0  0  0  0  0  0
  187.4320  172.8900  136.1930 O   0  0  0  0  0  1  0  0  0  0  0  0
  179.9980  176.4320  136.8240 C   0  0  0  0  0  2  0  0  0  0  0  0
  179.6780  177.8530  136.7910 N   0  0  0  0  0  2  0  0  0  0  0  0
  180.3330  178.4370  135.6260 C   0  0  0  0  0  2  0  0  0  0  0  0
  180.7960  182.0840  134.6520 C   0  0  0  0  0  3  0  0  0  0  0  0
  180.2290  182.7090  135.7640 C   0  0  0  0  0  0  0  0  0  0  0  0
  180.2950  179.9370  135.6450 C   0  0  0  0  0  0  0  0  0  0  0  0
  179.7000  181.9290  136.7950 C   0  0  0  0  0  3  0  0  0  0  0  0
  179.7460  180.5730  136.7170 N   0  0  0  0  0  0  0  0  0  0  0  0
  180.1810  184.0630  135.8390 F   0  0  0  0  0  0  0  0  0  0  0  0
  180.8400  180.6930  134.5940 C   0  0  0  0  0  3  0  0  0  0  0  0
  181.4210  179.2290  141.1120 C   0  0  0  0  0  2  0  0  0  0  0  0
  181.3390  178.7130  142.4080 O   0  0  0  0  0  0  0  0  0  0  0  0
  182.5830  178.9740  142.9820 C   0  0  0  0  0  1  0  0  0  0  0  0
  1  2  2  0  0  0  0
  3 34  1  0  0  0  0
  3  1  1  0  0  0  0
  4 13  1  6  0  0  0
  4  7  1  0  0  0  0
  5  9  1  6  0  0  0
  5  8  1  0  0  0  0
  5  6  1  0  0  0  0
  6  1  1  1  0  0  0
  6  7  1  0  0  0  0
  8  4  1  0  0  0  0
  9 10  1  1  0  0  0
 11 12  1  0  0  0  0
 12  9  1  0  0  0  0
 13 14  1  1  0  0  0
 13 15  1  0  0  0  0
 15 18  1  6  0  0  0
 15 19  1  0  0  0  0
 16 18  1  0  0  0  0
 17 18  1  0  0  0  0
 19 20  1  0  0  0  0
 20 21  1  0  0  0  0
 22 33  1  0  0  0  0
 23 22  2  0  0  0  0
 24 21  1  6  0  0  0
 24 25  1  0  0  0  0
 24 27  1  0  0  0  0
 25 26  1  0  0  0  0
 26 22  1  0  0  0  0
 27 30  1  1  0  0  0
 27 23  1  0  0  0  0
 28 30  1  0  0  0  0
 29 30  1  0  0  0  0
 30 31  1  0  0  0  0
 33 32  1  0  0  0  0
 34 37  1  6  0  0  0
 34 35  1  0  0  0  0
 35 60  1  1  0  0  0
 36 39  1  6  0  0  0
 36 34  1  0  0  0  0
 36 35  1  0  0  0  0
 39 38  2  0  0  0  0
 40 50  1  1  0  0  0
 40 39  1  0  0  0  0
 41 45  1  1  0  0  0
 41 43  1  0  0  0  0
 41 44  1  0  0  0  0
 43 47  1  6  0  0  0
 43 44  1  0  0  0  0
 44 42  1  1  0  0  0
 45 46  1  0  0  0  0
 46 40  1  1  0  0  0
 46 42  1  0  0  0  0
 47 48  1  0  0  0  0
 48 49  1  0  0  0  0
 51 50  1  0  0  0  0
 52 55  1  0  0  0  0
 52 51  1  0  0  0  0
 53 54  1  0  0  0  0
 54 58  1  0  0  0  0
 54 56  2  0  0  0  0
 55 57  2  0  0  0  0
 57 56  1  0  0  0  0
 59 53  2  0  0  0  0
 59 55  1  0  0  0  0
 60 61  1  0  0  0  0
 61 62  1  0  0  0  0
M  END
>  <MODEL>
5

>  <REMARK>
 VINA RESULT:      -5.7      3.613      9.771
  Name = 
  24 active torsions:
  status: ('A' for Active; 'I' for Inactive)
    1  A    between atoms: C_1  and  C_30
    2  A    between atoms: P_2  and  C_10
    3  A    between atoms: P_2  and  C_31
    4  A    between atoms: C_3  and  C_47
    5  A    between atoms: C_4  and  C_60
    6  A    between atoms: N_8  and  C_12
    7  A    between atoms: N_8  and  C_29
    8  A    between atoms: N_9  and  C_12
    9  A    between atoms: N_9  and  C_23
   10  A    between atoms: C_14  and  C_39
   11  A    between atoms: C_15  and  C_46
   12  A    between atoms: C_15  and  C_53
   13  A    between atoms: C_15  and  C_62
   14  A    between atoms: O_16  and  C_32
   15  A    between atoms: C_20  and  C_47
   16  A    between atoms: C_29  and  C_30
   17  A    between atoms: C_29  and  C_52
   18  A    between atoms: C_32  and  C_40
   19  A    between atoms: C_33  and  N_57
   20  A    between atoms: C_34  and  N_35
   21  A    between atoms: C_34  and  C_37
   22  A    between atoms: N_35  and  C_46
   23  A    between atoms: C_42  and  C_62
   24  A    between atoms: C_45  and  C_55
                            x       y       z     vdW  Elec       q    Type
                         _______ _______ _______ _____ _____    ______ ____

>  <TORSDO>
F 24

$$$$
=
 OpenBabel11062416573D

 62 67  0  0  1  0  0  0  0  0999 V2000
  184.0740  176.9040  137.4720 C   0  0  0  0  0  0  0  0  0  0  0  0
  183.0560  177.3410  136.8770 O   0  0  0  0  0  0  0  0  0  0  0  0
  184.1840  177.0080  138.8960 N   0  0  0  0  0  2  0  0  0  0  0  0
  185.5330  175.2890  134.6790 C   0  0  1  0  0  3  0  0  0  0  0  0
  185.9800  177.2800  135.9270 C   0  0  2  0  0  3  0  0  0  0  0  0
  185.1630  176.2520  136.6800 C   0  0  2  0  0  3  0  0  0  0  0  0
  184.6380  175.3230  135.7640 O   0  0  0  0  0  0  0  0  0  0  0  0
  186.2440  176.6270  134.6050 C   0  0  0  0  0  2  0  0  0  0  0  0
  187.5910  177.5830  136.8200 P   0  0  1  0  0  0  0  0  0  0  0  0
  188.6500  177.2830  135.4790 O   0  0  0  0  0  1  0  0  0  0  0  0
  188.6030  179.9690  137.5410 O   0  0  0  0  0  1  0  0  0  0  0  0
  187.6220  179.4430  136.6940 C   0  0  0  0  0  2  0  0  0  0  0  0
  186.5160  174.1250  134.8490 C   0  0  1  0  0  3  0  0  0  0  0  0
  187.9410  174.6100  134.6040 C   0  0  0  0  0  1  0  0  0  0  0  0
  186.3820  173.4320  136.2150 C   0  0  1  0  0  3  0  0  0  0  0  0
  185.6880  171.0200  135.7200 C   0  0  0  0  0  1  0  0  0  0  0  0
  184.5860  172.2850  137.5580 C   0  0  0  0  0  1  0  0  0  0  0  0
  185.2430  172.3940  136.1970 C   0  0  0  0  0  3  0  0  0  0  0  0
  187.6620  172.8830  136.6590 N   0  0  0  0  0  2  0  0  0  0  0  0
  188.6300  173.9670  136.7310 C   0  0  0  0  0  2  0  0  0  0  0  0
  189.8920  173.4690  137.2650 N   0  0  0  0  0  2  0  0  0  0  0  0
  193.8910  174.1080  136.8510 C   0  0  0  0  0  0  0  0  0  0  0  0
  193.2600  175.0330  137.5840 C   0  0  0  0  0  3  0  0  0  0  0  0
  190.9760  174.2880  136.7340 C   0  0  2  0  0  3  0  0  0  0  0  0
  191.8000  173.4790  135.7100 C   0  0  0  0  0  2  0  0  0  0  0  0
  193.1090  172.9530  136.2970 C   0  0  0  0  0  2  0  0  0  0  0  0
  191.7960  174.8760  137.9090 C   0  0  2  0  0  3  0  0  0  0  0  0
  192.0730  176.7730  139.3260 F   0  0  0  0  0  0  0  0  0  0  0  0
  190.0030  175.9490  139.0670 F   0  0  0  0  0  0  0  0  0  0  0  0
  191.2020  176.1910  138.4230 C   0  0  0  0  0  0  0  0  0  0  0  0
  190.9840  177.0630  137.3710 F   0  0  0  0  0  0  0  0  0  0  0  0
  195.8480  173.0770  135.8960 N   0  0  0  0  0  1  0  0  0  0  0  0
  195.3330  174.2870  136.5120 C   0  0  0  0  0  2  0  0  0  0  0  0
  183.1050  177.4830  139.7530 C   0  0  2  0  0  0  0  0  0  0  0  0
  182.6260  178.8730  139.3740 C   0  0  2  0  0  3  0  0  0  0  0  0
  183.4120  178.6660  140.6720 C   0  0  2  0  0  3  0  0  0  0  0  0
  182.0660  176.4690  140.2170 C   0  0  0  0  0  1  0  0  0  0  0  0
  185.0980  179.8480  139.5010 O   0  0  0  0  0  0  0  0  0  0  0  0
  184.7960  179.2370  140.5150 C   0  0  0  0  0  0  0  0  0  0  0  0
  185.8120  179.0230  141.6040 C   0  0  1  0  0  3  0  0  0  0  0  0
  186.5380  178.4120  144.5360 C   0  0  2  0  0  3  0  0  0  0  0  0
  184.3530  178.3820  143.6140 C   0  0  0  0  0  2  0  0  0  0  0  0
  185.6900  177.7850  145.6300 C   0  0  2  0  0  3  0  0  0  0  0  0
  185.1310  178.9140  144.7820 C   0  0  1  0  0  3  0  0  0  0  0  0
  186.5420  177.5860  143.3920 O   0  0  0  0  0  0  0  0  0  0  0  0
  185.4140  177.9430  142.6310 C   0  0  2  0  0  3  0  0  0  0  0  0
  186.0890  178.3570  146.9820 C   0  0  0  0  0  2  0  0  0  0  0  0
  187.4230  177.7910  147.4510 C   0  0  0  0  0  2  0  0  0  0  0  0
  188.0130  178.6450  148.3810 O   0  0  0  0  0  1  0  0  0  0  0  0
  187.1620  178.7170  140.9640 C   0  0  0  0  0  2  0  0  0  0  0  0
  187.7910  177.5590  141.5860 N   0  0  0  0  0  2  0  0  0  0  0  0
  189.2370  177.7200  141.4840 C   0  0  0  0  0  2  0  0  0  0  0  0
  191.4250  178.4800  144.5010 C   0  0  0  0  0  3  0  0  0  0  0  0
  191.1700  177.3500  145.2800 C   0  0  0  0  0  0  0  0  0  0  0  0
  189.9160  177.6190  142.8190 C   0  0  0  0  0  0  0  0  0  0  0  0
  190.2840  176.3780  144.8110 C   0  0  0  0  0  3  0  0  0  0  0  0
  189.6830  176.5290  143.6000 N   0  0  0  0  0  0  0  0  0  0  0  0
  191.7680  177.2020  146.4880 F   0  0  0  0  0  0  0  0  0  0  0  0
  190.8050  178.6130  143.2600 C   0  0  0  0  0  3  0  0  0  0  0  0
  181.1670  179.1690  139.7050 C   0  0  0  0  0  2  0  0  0  0  0  0
  180.7050  180.2360  138.9300 O   0  0  0  0  0  0  0  0  0  0  0  0
  181.5630  180.2850  137.8310 C   0  0  0  0  0  1  0  0  0  0  0  0
  1  3  1  0  0  0  0
  2  1  2  0  0  0  0
  3 34  1  0  0  0  0
  4 13  1  1  0  0  0
  4  7  1  0  0  0  0
  5  6  1  0  0  0  0
  5  9  1  1  0  0  0
  6  1  1  6  0  0  0
  7  6  1  0  0  0  0
  8  4  1  0  0  0  0
  8  5  1  0  0  0  0
  9 10  1  6  0  0  0
 12  9  1  0  0  0  0
 12 11  1  0  0  0  0
 13 14  1  1  0  0  0
 13 15  1  0  0  0  0
 15 18  1  6  0  0  0
 15 19  1  0  0  0  0
 16 18  1  0  0  0  0
 18 17  1  0  0  0  0
 19 20  1  0  0  0  0
 20 21  1  0  0  0  0
 22 23  2  0  0  0  0
 23 27  1  0  0  0  0
 24 21  1  1  0  0  0
 24 27  1  0  0  0  0
 25 26  1  0  0  0  0
 25 24  1  0  0  0  0
 26 22  1  0  0  0  0
 27 30  1  6  0  0  0
 30 29  1  0  0  0  0
 30 28  1  0  0  0  0
 31 30  1  0  0  0  0
 32 33  1  0  0  0  0
 33 22  1  0  0  0  0
 34 37  1  1  0  0  0
 34 36  1  0  0  0  0
 35 60  1  1  0  0  0
 35 34  1  0  0  0  0
 35 36  1  0  0  0  0
 36 39  1  6  0  0  0
 38 39  2  0  0  0  0
 39 40  1  0  0  0  0
 40 50  1  6  0  0  0
 41 45  1  6  0  0  0
 41 44  1  0  0  0  0
 41 43  1  0  0  0  0
 43 47  1  1  0  0  0
 44 42  1  6  0  0  0
 44 43  1  0  0  0  0
 46 40  1  6  0  0  0
 46 45  1  0  0  0  0
 46 42  1  0  0  0  0
 47 48  1  0  0  0  0
 48 49  1  0  0  0  0
 50 51  1  0  0  0  0
 52 51  1  0  0  0  0
 52 55  1  0  0  0  0
 53 54  1  0  0  0  0
 54 58  1  0  0  0  0
 55 59  1  0  0  0  0
 55 57  2  0  0  0  0
 56 54  2  0  0  0  0
 57 56  1  0  0  0  0
 59 53  2  0  0  0  0
 61 60  1  0  0  0  0
 62 61  1  0  0  0  0
M  END
>  <MODEL>
6

>  <REMARK>
 VINA RESULT:      -5.2      3.852     10.050
  Name = 
  24 active torsions:
  status: ('A' for Active; 'I' for Inactive)
    1  A    between atoms: C_1  and  C_30
    2  A    between atoms: P_2  and  C_10
    3  A    between atoms: P_2  and  C_31
    4  A    between atoms: C_3  and  C_47
    5  A    between atoms: C_4  and  C_60
    6  A    between atoms: N_8  and  C_12
    7  A    between atoms: N_8  and  C_29
    8  A    between atoms: N_9  and  C_12
    9  A    between atoms: N_9  and  C_23
   10  A    between atoms: C_14  and  C_39
   11  A    between atoms: C_15  and  C_46
   12  A    between atoms: C_15  and  C_53
   13  A    between atoms: C_15  and  C_62
   14  A    between atoms: O_16  and  C_32
   15  A    between atoms: C_20  and  C_47
   16  A    between atoms: C_29  and  C_30
   17  A    between atoms: C_29  and  C_52
   18  A    between atoms: C_32  and  C_40
   19  A    between atoms: C_33  and  N_57
   20  A    between atoms: C_34  and  N_35
   21  A    between atoms: C_34  and  C_37
   22  A    between atoms: N_35  and  C_46
   23  A    between atoms: C_42  and  C_62
   24  A    between atoms: C_45  and  C_55
                            x       y       z     vdW  Elec       q    Type
                         _______ _______ _______ _____ _____    ______ ____

>  <TORSDO>
F 24

$$$$
=
 OpenBabel11062416573D

 62 67  0  0  1  0  0  0  0  0999 V2000
  184.1900  178.4830  143.1680 C   0  0  0  0  0  0  0  0  0  0  0  0
  183.8560  178.6640  144.3670 O   0  0  0  0  0  0  0  0  0  0  0  0
  185.4710  177.9290  142.8470 N   0  0  0  0  0  2  0  0  0  0  0  0
  182.4490  178.0440  140.1160 C   0  0  1  0  0  3  0  0  0  0  0  0
  181.8310  178.3450  142.4080 C   0  0  2  0  0  3  0  0  0  0  0  0
  183.2270  178.8300  142.0770 C   0  0  2  0  0  3  0  0  0  0  0  0
  183.6280  178.2730  140.8500 O   0  0  0  0  0  0  0  0  0  0  0  0
  181.3080  177.8440  141.0970 C   0  0  0  0  0  2  0  0  0  0  0  0
  180.7910  179.7760  143.0030 P   0  0  1  0  0  0  0  0  0  0  0  0
  179.5890  179.7140  141.7520 O   0  0  0  0  0  1  0  0  0  0  0  0
  179.6910  177.5130  143.9550 O   0  0  0  0  0  1  0  0  0  0  0  0
  179.7940  178.8670  144.2900 C   0  0  0  0  0  2  0  0  0  0  0  0
  182.1900  179.2180  139.1650 C   0  0  1  0  0  3  0  0  0  0  0  0
  183.4840  179.9920  138.9350 C   0  0  0  0  0  1  0  0  0  0  0  0
  181.5520  178.7750  137.8390 C   0  0  1  0  0  3  0  0  0  0  0  0
  180.7950  179.9800  135.7120 C   0  0  0  0  0  1  0  0  0  0  0  0
  179.2580  179.7990  137.6600 C   0  0  0  0  0  1  0  0  0  0  0  0
  180.7060  179.9100  137.2290 C   0  0  0  0  0  3  0  0  0  0  0  0
  182.5560  178.2410  136.9190 N   0  0  0  0  0  2  0  0  0  0  0  0
  182.4330  176.7910  136.8920 C   0  0  0  0  0  2  0  0  0  0  0  0
  183.5270  176.1870  137.6420 N   0  0  0  0  0  2  0  0  0  0  0  0
  186.4360  173.4040  137.0330 C   0  0  0  0  0  0  0  0  0  0  0  0
  186.7980  174.6550  136.7240 C   0  0  0  0  0  3  0  0  0  0  0  0
  184.3790  175.4560  136.7100 C   0  0  2  0  0  3  0  0  0  0  0  0
  184.0480  173.9490  136.7580 C   0  0  0  0  0  2  0  0  0  0  0  0
  185.0610  173.1540  137.5820 C   0  0  0  0  0  2  0  0  0  0  0  0
  185.8620  175.8050  136.9900 C   0  0  2  0  0  3  0  0  0  0  0  0
  187.6850  177.0730  136.1230 F   0  0  0  0  0  0  0  0  0  0  0  0
  185.9200  178.1940  136.9360 F   0  0  0  0  0  0  0  0  0  0  0  0
  186.3070  177.0640  136.2390 C   0  0  0  0  0  0  0  0  0  0  0  0
  185.7410  177.0950  134.9760 F   0  0  0  0  0  0  0  0  0  0  0  0
  188.7280  172.7510  136.6820 N   0  0  0  0  0  1  0  0  0  0  0  0
  187.3590  172.2700  136.7400 C   0  0  0  0  0  2  0  0  0  0  0  0
  186.4000  177.4180  143.8480 C   0  0  2  0  0  0  0  0  0  0  0  0
  187.3260  178.4930  144.3880 C   0  0  2  0  0  3  0  0  0  0  0  0
  187.8830  177.3940  143.4770 C   0  0  2  0  0  3  0  0  0  0  0  0
  185.8890  176.3600  144.8190 C   0  0  0  0  0  1  0  0  0  0  0  0
  187.3720  178.6630  141.5440 O   0  0  0  0  0  0  0  0  0  0  0  0
  188.1980  177.9770  142.1250 C   0  0  0  0  0  0  0  0  0  0  0  0
  189.5290  177.6850  141.4870 C   0  0  1  0  0  3  0  0  0  0  0  0
  191.0380  176.5750  139.0400 C   0  0  2  0  0  3  0  0  0  0  0  0
  188.7400  177.1590  139.1040 C   0  0  0  0  0  2  0  0  0  0  0  0
  190.6080  176.5230  137.5830 C   0  0  2  0  0  3  0  0  0  0  0  0
  189.6630  176.0560  138.6760 C   0  0  1  0  0  3  0  0  0  0  0  0
  190.9200  177.8920  139.5330 O   0  0  0  0  0  0  0  0  0  0  0  0
  189.5960  178.0370  139.9860 C   0  0  2  0  0  3  0  0  0  0  0  0
  191.2070  175.2940  136.9140 C   0  0  0  0  0  2  0  0  0  0  0  0
  190.9920  175.3260  135.4060 C   0  0  0  0  0  2  0  0  0  0  0  0
  191.2500  174.0730  134.8520 O   0  0  0  0  0  1  0  0  0  0  0  0
  190.6210  178.3970  142.2780 C   0  0  0  0  0  2  0  0  0  0  0  0
  191.7640  177.5240  142.5050 N   0  0  0  0  0  2  0  0  0  0  0  0
  191.2640  176.2400  142.9860 C   0  0  0  0  0  2  0  0  0  0  0  0
  191.3200  176.7930  146.7490 C   0  0  0  0  0  3  0  0  0  0  0  0
  192.0250  175.6580  147.1530 C   0  0  0  0  0  0  0  0  0  0  0  0
  191.5070  176.0500  144.4550 C   0  0  0  0  0  0  0  0  0  0  0  0
  192.4520  174.7360  146.1940 C   0  0  0  0  0  3  0  0  0  0  0  0
  192.1900  174.9510  144.8770 N   0  0  0  0  0  0  0  0  0  0  0  0
  192.2830  175.4440  148.4680 F   0  0  0  0  0  0  0  0  0  0  0  0
  191.0680  176.9980  145.3940 C   0  0  0  0  0  3  0  0  0  0  0  0
  187.8190  178.2690  145.8140 C   0  0  0  0  0  2  0  0  0  0  0  0
  187.1970  179.1700  146.6840 O   0  0  0  0  0  0  0  0  0  0  0  0
  186.3400  178.3910  147.4610 C   0  0  0  0  0  1  0  0  0  0  0  0
  1  2  2  0  0  0  0
  3  1  1  0  0  0  0
  3 34  1  0  0  0  0
  4 13  1  6  0  0  0
  4  7  1  0  0  0  0
  4  8  1  0  0  0  0
  5  9  1  6  0  0  0
  6  5  1  0  0  0  0
  6  1  1  1  0  0  0
  7  6  1  0  0  0  0
  8  5  1  0  0  0  0
  9 10  1  6  0  0  0
  9 12  1  0  0  0  0
 11 12  1  0  0  0  0
 13 14  1  6  0  0  0
 15 19  1  6  0  0  0
 15 13  1  0  0  0  0
 16 18  1  0  0  0  0
 18 17  1  0  0  0  0
 18 15  1  0  0  0  0
 20 19  1  0  0  0  0
 20 21  1  0  0  0  0
 22 26  1  0  0  0  0
 23 27  1  0  0  0  0
 23 22  2  0  0  0  0
 24 25  1  0  0  0  0
 24 27  1  0  0  0  0
 24 21  1  1  0  0  0
 25 26  1  0  0  0  0
 27 30  1  6  0  0  0
 28 30  1  0  0  0  0
 30 29  1  0  0  0  0
 31 30  1  0  0  0  0
 32 33  1  0  0  0  0
 33 22  1  0  0  0  0
 34 35  1  0  0  0  0
 34 37  1  1  0  0  0
 35 60  1  1  0  0  0
 36 39  1  6  0  0  0
 36 34  1  0  0  0  0
 36 35  1  0  0  0  0
 38 39  2  0  0  0  0
 40 39  1  0  0  0  0
 40 50  1  1  0  0  0
 41 45  1  1  0  0  0
 42 46  1  0  0  0  0
 43 47  1  6  0  0  0
 43 44  1  0  0  0  0
 43 41  1  0  0  0  0
 44 41  1  0  0  0  0
 44 42  1  1  0  0  0
 45 46  1  0  0  0  0
 46 40  1  1  0  0  0
 48 47  1  0  0  0  0
 49 48  1  0  0  0  0
 50 51  1  0  0  0  0
 51 52  1  0  0  0  0
 52 55  1  0  0  0  0
 53 54  1  0  0  0  0
 54 58  1  0  0  0  0
 55 57  2  0  0  0  0
 55 59  1  0  0  0  0
 56 54  2  0  0  0  0
 57 56  1  0  0  0  0
 59 53  2  0  0  0  0
 60 61  1  0  0  0  0
 61 62  1  0  0  0  0
M  END
>  <MODEL>
7

>  <REMARK>
 VINA RESULT:      -5.2      3.186      5.961
  Name = 
  24 active torsions:
  status: ('A' for Active; 'I' for Inactive)
    1  A    between atoms: C_1  and  C_30
    2  A    between atoms: P_2  and  C_10
    3  A    between atoms: P_2  and  C_31
    4  A    between atoms: C_3  and  C_47
    5  A    between atoms: C_4  and  C_60
    6  A    between atoms: N_8  and  C_12
    7  A    between atoms: N_8  and  C_29
    8  A    between atoms: N_9  and  C_12
    9  A    between atoms: N_9  and  C_23
   10  A    between atoms: C_14  and  C_39
   11  A    between atoms: C_15  and  C_46
   12  A    between atoms: C_15  and  C_53
   13  A    between atoms: C_15  and  C_62
   14  A    between atoms: O_16  and  C_32
   15  A    between atoms: C_20  and  C_47
   16  A    between atoms: C_29  and  C_30
   17  A    between atoms: C_29  and  C_52
   18  A    between atoms: C_32  and  C_40
   19  A    between atoms: C_33  and  N_57
   20  A    between atoms: C_34  and  N_35
   21  A    between atoms: C_34  and  C_37
   22  A    between atoms: N_35  and  C_46
   23  A    between atoms: C_42  and  C_62
   24  A    between atoms: C_45  and  C_55
                            x       y       z     vdW  Elec       q    Type
                         _______ _______ _______ _____ _____    ______ ____

>  <TORSDO>
F 24

$$$$
=
 OpenBabel11062416573D

 62 67  0  0  1  0  0  0  0  0999 V2000
  188.1170  176.5550  136.2770 C   0  0  0  0  0  0  0  0  0  0  0  0
  188.4790  177.4010  135.4200 O   0  0  0  0  0  0  0  0  0  0  0  0
  189.0780  175.9490  137.1500 N   0  0  0  0  0  2  0  0  0  0  0  0
  184.6240  177.0460  135.9770 C   0  0  1  0  0  3  0  0  0  0  0  0
  186.1970  175.4290  135.1810 C   0  0  2  0  0  3  0  0  0  0  0  0
  186.6690  176.2020  136.3950 C   0  0  2  0  0  3  0  0  0  0  0  0
  185.8760  177.3530  136.5420 O   0  0  0  0  0  0  0  0  0  0  0  0
  184.8270  175.9770  134.9200 C   0  0  0  0  0  2  0  0  0  0  0  0
  186.0870  173.6120  135.5940 P   0  0  1  0  0  0  0  0  0  0  0  0
  187.7820  173.2550  135.4890 O   0  0  0  0  0  1  0  0  0  0  0  0
  184.9480  173.0260  137.9600 O   0  0  0  0  0  1  0  0  0  0  0  0
  186.0230  173.7610  137.4520 C   0  0  0  0  0  2  0  0  0  0  0  0
  183.6540  176.5930  137.0740 C   0  0  1  0  0  3  0  0  0  0  0  0
  183.7160  177.5600  138.2520 C   0  0  0  0  0  1  0  0  0  0  0  0
  182.2160  176.4210  136.5590 C   0  0  1  0  0  3  0  0  0  0  0  0
  180.3400  174.8150  137.2310 C   0  0  0  0  0  1  0  0  0  0  0  0
  182.0830  175.4620  138.8850 C   0  0  0  0  0  1  0  0  0  0  0  0
  181.2850  175.9190  137.6800 C   0  0  0  0  0  3  0  0  0  0  0  0
  181.7360  177.6400  135.9090 N   0  0  0  0  0  2  0  0  0  0  0  0
  180.7100  178.2400  136.7490 C   0  0  0  0  0  2  0  0  0  0  0  0
  181.1870  179.5090  137.2830 N   0  0  0  0  0  2  0  0  0  0  0  0
  179.9600  183.3350  136.6190 C   0  0  0  0  0  0  0  0  0  0  0  0
  179.8120  182.9210  137.8840 C   0  0  0  0  0  3  0  0  0  0  0  0
  180.0970  180.4770  137.2210 C   0  0  2  0  0  3  0  0  0  0  0  0
  179.9470  181.0170  135.7820 C   0  0  0  0  0  2  0  0  0  0  0  0
  180.5670  182.4030  135.6100 C   0  0  0  0  0  2  0  0  0  0  0  0
  180.3140  181.5630  138.3030 C   0  0  2  0  0  3  0  0  0  0  0  0
  178.9440  180.0220  139.5000 F   0  0  0  0  0  0  0  0  0  0  0  0
  178.9310  182.1670  140.1560 F   0  0  0  0  0  0  0  0  0  0  0  0
  179.7260  181.1520  139.6570 C   0  0  0  0  0  0  0  0  0  0  0  0
  180.7400  180.8850  140.5600 F   0  0  0  0  0  0  0  0  0  0  0  0
  179.7340  185.6530  137.2320 N   0  0  0  0  0  1  0  0  0  0  0  0
  179.4340  184.6680  136.2080 C   0  0  0  0  0  2  0  0  0  0  0  0
  190.4780  176.3520  137.2090 C   0  0  2  0  0  0  0  0  0  0  0  0
  191.1570  175.9180  138.4960 C   0  0  2  0  0  3  0  0  0  0  0  0
  190.8600  177.4020  138.2540 C   0  0  2  0  0  3  0  0  0  0  0  0
  191.2880  176.3010  135.9190 C   0  0  0  0  0  1  0  0  0  0  0  0
  188.8860  178.6190  138.7330 O   0  0  0  0  0  0  0  0  0  0  0  0
  189.7270  177.8360  139.1450 C   0  0  0  0  0  0  0  0  0  0  0  0
  189.6580  177.3190  140.5560 C   0  0  1  0  0  3  0  0  0  0  0  0
  190.3010  177.0830  143.5610 C   0  0  2  0  0  3  0  0  0  0  0  0
  191.8720  177.5100  141.8360 C   0  0  0  0  0  2  0  0  0  0  0  0
  191.5700  177.4590  144.3090 C   0  0  2  0  0  3  0  0  0  0  0  0
  191.6480  176.6360  143.0350 C   0  0  1  0  0  3  0  0  0  0  0  0
  189.8460  178.1790  142.7970 O   0  0  0  0  0  0  0  0  0  0  0  0
  190.5150  178.1160  141.5610 C   0  0  2  0  0  3  0  0  0  0  0  0
  191.7650  176.5240  145.4920 C   0  0  0  0  0  2  0  0  0  0  0  0
  190.9330  176.9660  146.6900 C   0  0  0  0  0  2  0  0  0  0  0  0
  191.6850  176.8860  147.8600 O   0  0  0  0  0  1  0  0  0  0  0  0
  188.1950  177.2640  140.9880 C   0  0  0  0  0  2  0  0  0  0  0  0
  187.5480  178.5580  140.8280 N   0  0  0  0  0  2  0  0  0  0  0  0
  186.1430  178.4090  141.1890 C   0  0  0  0  0  2  0  0  0  0  0  0
  184.5810  179.0520  144.5970 C   0  0  0  0  0  3  0  0  0  0  0  0
  185.6120  178.6080  145.4270 C   0  0  0  0  0  0  0  0  0  0  0  0
  185.9270  178.4760  142.6730 C   0  0  0  0  0  0  0  0  0  0  0  0
  186.7810  178.0990  144.8580 C   0  0  0  0  0  3  0  0  0  0  0  0
  186.9160  178.0470  143.5060 N   0  0  0  0  0  0  0  0  0  0  0  0
  185.4750  178.6580  146.7760 F   0  0  0  0  0  0  0  0  0  0  0  0
  184.7400  178.9960  143.2140 C   0  0  0  0  0  3  0  0  0  0  0  0
  192.6590  175.6770  138.3870 C   0  0  0  0  0  2  0  0  0  0  0  0
  192.9300  174.8060  137.3270 O   0  0  0  0  0  0  0  0  0  0  0  0
  194.0510  174.0810  137.7310 C   0  0  0  0  0  1  0  0  0  0  0  0
  1  3  1  0  0  0  0
  2  1  2  0  0  0  0
  3 34  1  0  0  0  0
  4  7  1  0  0  0  0
  4 13  1  1  0  0  0
  5  9  1  1  0  0  0
  5  6  1  0  0  0  0
  6  1  1  6  0  0  0
  6  7  1  0  0  0  0
  8  5  1  0  0  0  0
  8  4  1  0  0  0  0
  9 10  1  1  0  0  0
  9 12  1  0  0  0  0
 12 11  1  0  0  0  0
 13 14  1  1  0  0  0
 15 19  1  1  0  0  0
 15 13  1  0  0  0  0
 15 18  1  0  0  0  0
 16 18  1  0  0  0  0
 18 17  1  0  0  0  0
 19 20  1  0  0  0  0
 20 21  1  0  0  0  0
 22 23  2  0  0  0  0
 23 27  1  0  0  0  0
 24 21  1  6  0  0  0
 24 27  1  0  0  0  0
 25 24  1  0  0  0  0
 26 25  1  0  0  0  0
 26 22  1  0  0  0  0
 27 30  1  1  0  0  0
 28 30  1  0  0  0  0
 30 29  1  0  0  0  0
 30 31  1  0  0  0  0
 33 22  1  0  0  0  0
 33 32  1  0  0  0  0
 34 37  1  6  0  0  0
 34 36  1  0  0  0  0
 34 35  1  0  0  0  0
 35 60  1  6  0  0  0
 36 35  1  0  0  0  0
 36 39  1  1  0  0  0
 38 39  2  0  0  0  0
 39 40  1  0  0  0  0
 40 50  1  1  0  0  0
 41 45  1  6  0  0  0
 41 43  1  0  0  0  0
 43 47  1  1  0  0  0
 44 42  1  6  0  0  0
 44 41  1  0  0  0  0
 44 43  1  0  0  0  0
 46 40  1  6  0  0  0
 46 42  1  0  0  0  0
 46 45  1  0  0  0  0
 47 48  1  0  0  0  0
 48 49  1  0  0  0  0
 51 50  1  0  0  0  0
 51 52  1  0  0  0  0
 52 55  1  0  0  0  0
 53 54  1  0  0  0  0
 54 58  1  0  0  0  0
 55 59  1  0  0  0  0
 55 57  2  0  0  0  0
 56 54  2  0  0  0  0
 57 56  1  0  0  0  0
 59 53  2  0  0  0  0
 61 62  1  0  0  0  0
 61 60  1  0  0  0  0
M  END
>  <MODEL>
8

>  <REMARK>
 VINA RESULT:      -5.1      3.230      7.583
  Name = 
  24 active torsions:
  status: ('A' for Active; 'I' for Inactive)
    1  A    between atoms: C_1  and  C_30
    2  A    between atoms: P_2  and  C_10
    3  A    between atoms: P_2  and  C_31
    4  A    between atoms: C_3  and  C_47
    5  A    between atoms: C_4  and  C_60
    6  A    between atoms: N_8  and  C_12
    7  A    between atoms: N_8  and  C_29
    8  A    between atoms: N_9  and  C_12
    9  A    between atoms: N_9  and  C_23
   10  A    between atoms: C_14  and  C_39
   11  A    between atoms: C_15  and  C_46
   12  A    between atoms: C_15  and  C_53
   13  A    between atoms: C_15  and  C_62
   14  A    between atoms: O_16  and  C_32
   15  A    between atoms: C_20  and  C_47
   16  A    between atoms: C_29  and  C_30
   17  A    between atoms: C_29  and  C_52
   18  A    between atoms: C_32  and  C_40
   19  A    between atoms: C_33  and  N_57
   20  A    between atoms: C_34  and  N_35
   21  A    between atoms: C_34  and  C_37
   22  A    between atoms: N_35  and  C_46
   23  A    between atoms: C_42  and  C_62
   24  A    between atoms: C_45  and  C_55
                            x       y       z     vdW  Elec       q    Type
                         _______ _______ _______ _____ _____    ______ ____

>  <TORSDO>
F 24

$$$$
=
 OpenBabel11062416573D

 62 67  0  0  1  0  0  0  0  0999 V2000
  190.7490  176.1130  138.3670 C   0  0  0  0  0  0  0  0  0  0  0  0
  191.9440  176.3920  138.0910 O   0  0  0  0  0  0  0  0  0  0  0  0
  190.2240  176.3810  139.6720 N   0  0  0  0  0  2  0  0  0  0  0  0
  187.8310  175.7660  136.3920 C   0  0  1  0  0  3  0  0  0  0  0  0
  190.1540  176.1360  135.9580 C   0  0  2  0  0  3  0  0  0  0  0  0
  189.8710  175.5190  137.3110 C   0  0  2  0  0  3  0  0  0  0  0  0
  188.5120  175.6980  137.6220 O   0  0  0  0  0  0  0  0  0  0  0  0
  188.7970  176.2770  135.3400 C   0  0  0  0  0  2  0  0  0  0  0  0
  191.1990  174.9720  134.9400 P   0  0  1  0  0  0  0  0  0  0  0  0
  192.7250  175.7570  135.1980 O   0  0  0  0  0  1  0  0  0  0  0  0
  192.8000  173.4140  136.4390 O   0  0  0  0  0  1  0  0  0  0  0  0
  191.4360  173.6350  136.2180 C   0  0  0  0  0  2  0  0  0  0  0  0
  187.2670  174.3860  136.0320 C   0  0  1  0  0  3  0  0  0  0  0  0
  187.8750  173.3250  136.9420 C   0  0  0  0  0  1  0  0  0  0  0  0
  185.7310  174.3480  136.0670 C   0  0  1  0  0  3  0  0  0  0  0  0
  184.3730  172.5070  137.2130 C   0  0  0  0  0  1  0  0  0  0  0  0
  184.4370  172.6490  134.7300 C   0  0  0  0  0  1  0  0  0  0  0  0
  185.2140  172.8980  136.0080 C   0  0  0  0  0  3  0  0  0  0  0  0
  185.2070  175.1060  137.2030 N   0  0  0  0  0  2  0  0  0  0  0  0
  184.1160  175.9480  136.7340 C   0  0  0  0  0  2  0  0  0  0  0  0
  184.0070  177.1310  137.5770 N   0  0  0  0  0  2  0  0  0  0  0  0
  180.4150  175.3110  138.1830 C   0  0  0  0  0  0  0  0  0  0  0  0
  180.3250  176.5780  137.7590 C   0  0  0  0  0  3  0  0  0  0  0  0
  182.7630  177.0470  138.3350 C   0  0  2  0  0  3  0  0  0  0  0  0
  182.6820  175.6920  139.0720 C   0  0  0  0  0  2  0  0  0  0  0  0
  181.7720  174.6930  138.3590 C   0  0  0  0  0  2  0  0  0  0  0  0
  181.5690  177.3480  137.3960 C   0  0  2  0  0  3  0  0  0  0  0  0
  179.9210  179.0700  137.4360 F   0  0  0  0  0  0  0  0  0  0  0  0
  181.6780  179.3310  136.0660 F   0  0  0  0  0  0  0  0  0  0  0  0
  181.2790  178.8490  137.2990 C   0  0  0  0  0  0  0  0  0  0  0  0
  181.9560  179.5340  138.2930 F   0  0  0  0  0  0  0  0  0  0  0  0
  179.2550  174.1760  139.9620 N   0  0  0  0  0  1  0  0  0  0  0  0
  179.1810  174.5680  138.5660 C   0  0  0  0  0  2  0  0  0  0  0  0
  190.9610  177.1010  140.7040 C   0  0  2  0  0  0  0  0  0  0  0  0
  190.6240  176.6210  142.1040 C   0  0  2  0  0  3  0  0  0  0  0  0
  190.1540  178.0030  141.6390 C   0  0  2  0  0  3  0  0  0  0  0  0
  192.4050  177.4880  140.4080 C   0  0  0  0  0  1  0  0  0  0  0  0
  188.2110  178.2560  140.3090 O   0  0  0  0  0  0  0  0  0  0  0  0
  188.6670  177.9730  141.4060 C   0  0  0  0  0  0  0  0  0  0  0  0
  187.7490  177.6180  142.5430 C   0  0  1  0  0  3  0  0  0  0  0  0
  187.0290  177.4640  145.5360 C   0  0  2  0  0  3  0  0  0  0  0  0
  189.0320  178.3610  144.6360 C   0  0  0  0  0  2  0  0  0  0  0  0
  187.6880  178.1450  146.7240 C   0  0  2  0  0  3  0  0  0  0  0  0
  188.5340  177.4190  145.6930 C   0  0  1  0  0  3  0  0  0  0  0  0
  186.6940  178.4200  144.5530 O   0  0  0  0  0  0  0  0  0  0  0  0
  187.8320  178.5830  143.7430 C   0  0  2  0  0  3  0  0  0  0  0  0
  187.5730  177.2580  147.9540 C   0  0  0  0  0  2  0  0  0  0  0  0
  188.3090  177.8630  149.1430 C   0  0  0  0  0  2  0  0  0  0  0  0
  189.4250  178.5780  148.7100 O   0  0  0  0  0  1  0  0  0  0  0  0
  186.3230  177.5110  142.0090 C   0  0  0  0  0  2  0  0  0  0  0  0
  185.5760  178.7370  142.2500 N   0  0  0  0  0  2  0  0  0  0  0  0
  184.3820  178.7120  141.4120 C   0  0  0  0  0  2  0  0  0  0  0  0
  181.9590  178.8930  144.3380 C   0  0  0  0  0  3  0  0  0  0  0  0
  180.7450  178.7710  143.6590 C   0  0  0  0  0  0  0  0  0  0  0  0
  183.1180  178.7500  142.2210 C   0  0  0  0  0  0  0  0  0  0  0  0
  180.7450  178.6480  142.2680 C   0  0  0  0  0  3  0  0  0  0  0  0
  181.9200  178.6360  141.5840 N   0  0  0  0  0  0  0  0  0  0  0  0
  179.5730  178.7860  144.3430 F   0  0  0  0  0  0  0  0  0  0  0  0
  183.1530  178.8710  143.6200 C   0  0  0  0  0  3  0  0  0  0  0  0
  191.7400  176.7830  143.1310 C   0  0  0  0  0  2  0  0  0  0  0  0
  191.4370  176.0570  144.2870 O   0  0  0  0  0  0  0  0  0  0  0  0
  191.3350  174.7310  143.8670 C   0  0  0  0  0  1  0  0  0  0  0  0
  1  3  1  0  0  0  0
  2  1  2  0  0  0  0
  3 34  1  0  0  0  0
  4 13  1  6  0  0  0
  4  7  1  0  0  0  0
  5  9  1  6  0  0  0
  5  6  1  0  0  0  0
  6  7  1  0  0  0  0
  6  1  1  1  0  0  0
  8  5  1  0  0  0  0
  8  4  1  0  0  0  0
  9 10  1  1  0  0  0
  9 12  1  0  0  0  0
 12 11  1  0  0  0  0
 13 15  1  0  0  0  0
 13 14  1  1  0  0  0
 15 18  1  1  0  0  0
 15 19  1  0  0  0  0
 17 18  1  0  0  0  0
 18 16  1  0  0  0  0
 20 19  1  0  0  0  0
 20 21  1  0  0  0  0
 22 26  1  0  0  0  0
 22 33  1  0  0  0  0
 23 22  2  0  0  0  0
 24 21  1  6  0  0  0
 24 25  1  0  0  0  0
 26 25  1  0  0  0  0
 27 30  1  1  0  0  0
 27 23  1  0  0  0  0
 27 24  1  0  0  0  0
 29 30  1  0  0  0  0
 30 28  1  0  0  0  0
 30 31  1  0  0  0  0
 33 32  1  0  0  0  0
 34 37  1  6  0  0  0
 34 36  1  0  0  0  0
 34 35  1  0  0  0  0
 35 60  1  1  0  0  0
 36 39  1  6  0  0  0
 36 35  1  0  0  0  0
 38 39  2  0  0  0  0
 39 40  1  0  0  0  0
 40 50  1  6  0  0  0
 41 45  1  6  0  0  0
 41 44  1  0  0  0  0
 41 43  1  0  0  0  0
 43 47  1  1  0  0  0
 44 42  1  6  0  0  0
 44 43  1  0  0  0  0
 46 40  1  6  0  0  0
 46 45  1  0  0  0  0
 46 42  1  0  0  0  0
 47 48  1  0  0  0  0
 49 48  1  0  0  0  0
 50 51  1  0  0  0  0
 52 55  1  0  0  0  0
 52 51  1  0  0  0  0
 54 53  1  0  0  0  0
 54 58  1  0  0  0  0
 55 59  1  0  0  0  0
 56 54  2  0  0  0  0
 57 55  2  0  0  0  0
 57 56  1  0  0  0  0
 59 53  2  0  0  0  0
 60 61  1  0  0  0  0
 62 61  1  0  0  0  0
M  END
>  <MODEL>
9

>  <REMARK>
 VINA RESULT:      -4.9      3.115      7.930
  Name = 
  24 active torsions:
  status: ('A' for Active; 'I' for Inactive)
    1  A    between atoms: C_1  and  C_30
    2  A    between atoms: P_2  and  C_10
    3  A    between atoms: P_2  and  C_31
    4  A    between atoms: C_3  and  C_47
    5  A    between atoms: C_4  and  C_60
    6  A    between atoms: N_8  and  C_12
    7  A    between atoms: N_8  and  C_29
    8  A    between atoms: N_9  and  C_12
    9  A    between atoms: N_9  and  C_23
   10  A    between atoms: C_14  and  C_39
   11  A    between atoms: C_15  and  C_46
   12  A    between atoms: C_15  and  C_53
   13  A    between atoms: C_15  and  C_62
   14  A    between atoms: O_16  and  C_32
   15  A    between atoms: C_20  and  C_47
   16  A    between atoms: C_29  and  C_30
   17  A    between atoms: C_29  and  C_52
   18  A    between atoms: C_32  and  C_40
   19  A    between atoms: C_33  and  N_57
   20  A    between atoms: C_34  and  N_35
   21  A    between atoms: C_34  and  C_37
   22  A    between atoms: N_35  and  C_46
   23  A    between atoms: C_42  and  C_62
   24  A    between atoms: C_45  and  C_55
                            x       y       z     vdW  Elec       q    Type
                         _______ _______ _______ _____ _____    ______ ____

>  <TORSDO>
F 24

$$$$
