=
 OpenBabel11062412343D

 33 35  0  0  1  0  0  0  0  0999 V2000
  186.3310  178.5730  140.8330 N   0  0  0  0  0  0  0  0  0  0  0  0
  182.9340  178.2760  139.1100 C   0  0  0  0  0  1  0  0  0  0  0  0
  184.4400  178.5370  142.4920 C   0  0  0  0  0  0  0  0  0  0  0  0
  185.9100  178.8200  142.2290 C   0  0  1  0  0  3  0  0  0  0  0  0
  185.0050  178.8570  144.9130 C   0  0  0  0  0  2  0  0  0  0  0  0
  183.9240  178.4800  143.9020 C   0  0  0  0  0  2  0  0  0  0  0  0
  186.2710  178.0280  144.7080 C   0  0  1  0  0  3  0  0  0  0  0  0
  186.7510  178.1040  143.2750 C   0  0  0  0  0  0  0  0  0  0  0  0
  185.3390  178.5080  139.7910 C   0  0  0  0  0  0  0  0  0  0  0  0
  183.5610  178.3700  141.5060 C   0  0  0  0  0  3  0  0  0  0  0  0
  187.8190  177.5900  142.9810 O   0  0  0  0  0  0  0  0  0  0  0  0
  183.9560  178.3980  140.1370 N   0  0  0  0  0  0  0  0  0  0  0  0
  185.6820  178.5510  138.5760 O   0  0  0  0  0  0  0  0  0  0  0  0
  187.7260  178.8370  140.4670 C   0  0  0  0  0  2  0  0  0  0  0  0
  188.3920  177.6220  139.8190 C   0  0  1  0  0  3  0  0  0  0  0  0
  188.9310  179.5510  137.9630 O   0  0  0  0  0  1  0  0  0  0  0  0
  188.9380  178.0490  138.1410 P   0  0  0  0  0  0  0  0  0  0  0  0
  187.8920  177.3460  137.0130 O   0  0  0  0  0  0  0  0  0  0  0  0
  190.5040  177.4610  137.8900 O   0  0  0  0  0  1  0  0  0  0  0  0
  190.4300  176.7570  141.2290 N   0  0  0  0  0  0  0  0  0  0  0  0
  189.5320  177.1400  140.6060 C   0  0  0  0  0  0  0  0  0  0  0  0
  187.3040  178.5050  145.6200 N   0  0  0  0  0  2  0  0  0  0  0  0
  190.9200  176.4300  146.6390 C   0  0  0  0  0  0  0  0  0  0  0  0
  190.7410  176.9090  145.2080 C   0  0  0  0  0  0  0  0  0  0  0  0
  189.2600  177.1050  144.8520 C   0  0  0  0  0  2  0  0  0  0  0  0
  191.2690  175.9870  144.3220 F   0  0  0  0  0  0  0  0  0  0  0  0
  188.8220  177.5500  147.2330 C   0  0  0  0  0  3  0  0  0  0  0  0
  188.4770  177.7590  145.9570 C   0  0  0  0  0  0  0  0  0  0  0  0
  190.0300  176.7850  147.5750 C   0  0  0  0  0  3  0  0  0  0  0  0
  191.4060  178.1130  145.0500 F   0  0  0  0  0  0  0  0  0  0  0  0
  192.7440  176.0420  148.1170 O   0  0  0  0  0  0  0  0  0  0  0  0
  192.1400  175.7160  147.0620 C   0  0  0  0  0  0  0  0  0  0  0  0
  192.6210  174.6860  146.3180 F   0  0  0  0  0  0  0  0  0  0  0  0
  1  4  1  0  0  0  0
  2 12  1  0  0  0  0
  3  6  1  0  0  0  0
  4  3  1  6  0  0  0
  4  8  1  0  0  0  0
  6  5  1  0  0  0  0
  7  5  1  0  0  0  0
  7 22  1  1  0  0  0
  8  7  1  0  0  0  0
  9 12  1  0  0  0  0
  9  1  1  0  0  0  0
 10  3  2  0  0  0  0
 11  8  2  0  0  0  0
 12 10  1  0  0  0  0
 13  9  2  0  0  0  0
 14  1  1  0  0  0  0
 15 14  1  1  0  0  0
 15 21  1  0  0  0  0
 16 17  1  0  0  0  0
 17 15  1  0  0  0  0
 18 17  2  0  0  0  0
 19 17  1  0  0  0  0
 21 20  3  0  0  0  0
 22 28  1  0  0  0  0
 23 32  1  0  0  0  0
 23 29  2  0  0  0  0
 24 23  1  0  0  0  0
 25 24  1  0  0  0  0
 25 28  1  0  0  0  0
 26 24  1  0  0  0  0
 27 29  1  0  0  0  0
 28 27  2  0  0  0  0
 30 24  1  0  0  0  0
 32 31  2  0  0  0  0
 33 32  1  0  0  0  0
M  END
>  <MODEL>
1

>  <REMARK>
 VINA RESULT:      -9.4      0.000      0.000
  Name = 
  7 active torsions:
  status: ('A' for Active; 'I' for Inactive)
    1  A    between atoms: C_1  and  C_21
    2  A    between atoms: C_2  and  N_3
    3  A    between atoms: C_2  and  C_9
    4  A    between atoms: N_5  and  C_22
    5  A    between atoms: N_5  and  C_27
    6  A    between atoms: C_9  and  P_11
    7  A    between atoms: C_9  and  C_23
                            x       y       z     vdW  Elec       q    Type
                         _______ _______ _______ _____ _____    ______ ____

>  <TORSDO>
F 7

$$$$
=
 OpenBabel11062412343D

 33 35  0  0  1  0  0  0  0  0999 V2000
  189.6790  176.8970  137.1650 N   0  0  0  0  0  0  0  0  0  0  0  0
  193.3940  176.0070  137.0730 C   0  0  0  0  0  1  0  0  0  0  0  0
  190.6880  176.8510  139.4690 C   0  0  0  0  0  0  0  0  0  0  0  0
  189.4270  176.8680  138.6220 C   0  0  1  0  0  3  0  0  0  0  0  0
  189.1560  177.2070  141.4210 C   0  0  0  0  0  2  0  0  0  0  0  0
  190.6040  177.0920  140.9490 C   0  0  0  0  0  2  0  0  0  0  0  0
  188.3880  178.2440  140.6030 C   0  0  1  0  0  3  0  0  0  0  0  0
  188.5060  177.9720  139.1200 C   0  0  0  0  0  0  0  0  0  0  0  0
  190.9680  176.4990  136.6570 C   0  0  0  0  0  0  0  0  0  0  0  0
  191.8870  176.5880  138.9520 C   0  0  0  0  0  3  0  0  0  0  0  0
  187.8490  178.6450  138.3410 O   0  0  0  0  0  0  0  0  0  0  0  0
  192.0690  176.3550  137.5580 N   0  0  0  0  0  0  0  0  0  0  0  0
  191.1300  176.2730  135.4260 O   0  0  0  0  0  0  0  0  0  0  0  0
  188.5290  176.8920  136.2550 C   0  0  0  0  0  2  0  0  0  0  0  0
  187.6190  175.6850  136.4830 C   0  0  1  0  0  3  0  0  0  0  0  0
  185.8620  177.1730  135.0150 O   0  0  0  0  0  0  0  0  0  0  0  0
  185.8990  176.1420  136.1200 P   0  0  0  0  0  0  0  0  0  0  0  0
  185.1820  176.7830  137.5110 O   0  0  0  0  0  1  0  0  0  0  0  0
  185.0410  174.7680  135.6340 O   0  0  0  0  0  1  0  0  0  0  0  0
  188.3270  173.6330  135.0070 N   0  0  0  0  0  0  0  0  0  0  0  0
  188.0140  174.5390  135.6560 C   0  0  0  0  0  0  0  0  0  0  0  0
  186.9890  178.2330  141.0170 N   0  0  0  0  0  2  0  0  0  0  0  0
  185.5730  178.6100  145.0500 C   0  0  0  0  0  0  0  0  0  0  0  0
  184.6930  179.1260  143.9250 C   0  0  0  0  0  0  0  0  0  0  0  0
  185.5070  179.4450  142.6630 C   0  0  0  0  0  2  0  0  0  0  0  0
  184.0450  180.2840  144.3130 F   0  0  0  0  0  0  0  0  0  0  0  0
  187.1390  177.7460  143.3750 C   0  0  0  0  0  3  0  0  0  0  0  0
  186.5560  178.4090  142.3690 C   0  0  0  0  0  0  0  0  0  0  0  0
  186.6880  177.9270  144.7620 C   0  0  0  0  0  3  0  0  0  0  0  0
  183.7450  178.1650  143.6180 F   0  0  0  0  0  0  0  0  0  0  0  0
  185.7230  179.4870  147.2580 O   0  0  0  0  0  0  0  0  0  0  0  0
  185.1480  178.7010  146.4600 C   0  0  0  0  0  0  0  0  0  0  0  0
  184.1180  177.9400  146.9130 F   0  0  0  0  0  0  0  0  0  0  0  0
  1  4  1  0  0  0  0
  2 12  1  0  0  0  0
  3  6  1  0  0  0  0
  4  8  1  1  0  0  0
  4  3  1  0  0  0  0
  6  5  1  0  0  0  0
  7 22  1  1  0  0  0
  7  5  1  0  0  0  0
  8  7  1  0  0  0  0
  9  1  1  0  0  0  0
  9 12  1  0  0  0  0
 10  3  2  0  0  0  0
 11  8  2  0  0  0  0
 12 10  1  0  0  0  0
 13  9  2  0  0  0  0
 14 15  1  0  0  0  0
 14  1  1  0  0  0  0
 15 21  1  6  0  0  0
 16 17  2  0  0  0  0
 17 15  1  0  0  0  0
 17 18  1  0  0  0  0
 19 17  1  0  0  0  0
 20 21  3  0  0  0  0
 22 28  1  0  0  0  0
 23 32  1  0  0  0  0
 24 26  1  0  0  0  0
 24 23  1  0  0  0  0
 25 24  1  0  0  0  0
 27 29  1  0  0  0  0
 28 25  1  0  0  0  0
 28 27  2  0  0  0  0
 29 23  2  0  0  0  0
 30 24  1  0  0  0  0
 32 33  1  0  0  0  0
 32 31  2  0  0  0  0
M  END
>  <MODEL>
2

>  <REMARK>
 VINA RESULT:      -9.3      4.016      6.405
  Name = 
  7 active torsions:
  status: ('A' for Active; 'I' for Inactive)
    1  A    between atoms: C_1  and  C_21
    2  A    between atoms: C_2  and  N_3
    3  A    between atoms: C_2  and  C_9
    4  A    between atoms: N_5  and  C_22
    5  A    between atoms: N_5  and  C_27
    6  A    between atoms: C_9  and  P_11
    7  A    between atoms: C_9  and  C_23
                            x       y       z     vdW  Elec       q    Type
                         _______ _______ _______ _____ _____    ______ ____

>  <TORSDO>
F 7

$$$$
=
 OpenBabel11062412343D

 33 35  0  0  1  0  0  0  0  0999 V2000
  186.6280  178.1700  137.9090 N   0  0  0  0  0  0  0  0  0  0  0  0
  189.5760  177.9220  135.4920 C   0  0  0  0  0  1  0  0  0  0  0  0
  188.7720  177.6110  139.1010 C   0  0  0  0  0  0  0  0  0  0  0  0
  187.2540  177.6820  139.1570 C   0  0  1  0  0  3  0  0  0  0  0  0
  188.6520  177.1490  141.5620 C   0  0  0  0  0  2  0  0  0  0  0  0
  189.5620  177.3970  140.3600 C   0  0  0  0  0  2  0  0  0  0  0  0
  187.6010  178.2490  141.6980 C   0  0  1  0  0  3  0  0  0  0  0  0
  186.8350  178.4390  140.4070 C   0  0  0  0  0  0  0  0  0  0  0  0
  187.3740  178.1370  136.6770 C   0  0  0  0  0  0  0  0  0  0  0  0
  189.4450  177.6950  137.9560 C   0  0  0  0  0  3  0  0  0  0  0  0
  185.8810  179.2010  140.3930 O   0  0  0  0  0  0  0  0  0  0  0  0
  188.7850  177.9070  136.7110 N   0  0  0  0  0  0  0  0  0  0  0  0
  186.7920  178.3060  135.5700 O   0  0  0  0  0  0  0  0  0  0  0  0
  185.1650  178.2550  137.8480 C   0  0  0  0  0  2  0  0  0  0  0  0
  184.5030  176.8810  137.9570 C   0  0  1  0  0  3  0  0  0  0  0  0
  183.3070  177.2160  140.3880 O   0  0  0  0  0  1  0  0  0  0  0  0
  182.9740  177.0170  138.9270 P   0  0  0  0  0  0  0  0  0  0  0  0
  182.0650  175.6030  138.7460 O   0  0  0  0  0  1  0  0  0  0  0  0
  182.0700  178.3350  138.3730 O   0  0  0  0  0  0  0  0  0  0  0  0
  183.9770  175.8630  135.5960 N   0  0  0  0  0  0  0  0  0  0  0  0
  184.2070  176.3100  136.6380 C   0  0  0  0  0  0  0  0  0  0  0  0
  186.6920  177.9050  142.7860 N   0  0  0  0  0  2  0  0  0  0  0  0
  187.9620  177.8120  146.8840 C   0  0  0  0  0  0  0  0  0  0  0  0
  188.9890  177.5240  145.8040 C   0  0  0  0  0  0  0  0  0  0  0  0
  188.3310  177.0430  144.5030 C   0  0  0  0  0  2  0  0  0  0  0  0
  189.8650  176.5390  146.2230 F   0  0  0  0  0  0  0  0  0  0  0  0
  186.3220  178.3170  145.1340 C   0  0  0  0  0  3  0  0  0  0  0  0
  187.0890  177.8160  144.1580 C   0  0  0  0  0  0  0  0  0  0  0  0
  186.7350  178.2270  146.5420 C   0  0  0  0  0  3  0  0  0  0  0  0
  189.7070  178.6790  145.5450 F   0  0  0  0  0  0  0  0  0  0  0  0
  189.3840  178.3620  148.7120 O   0  0  0  0  0  0  0  0  0  0  0  0
  188.3280  177.8040  148.3140 C   0  0  0  0  0  0  0  0  0  0  0  0
  187.5200  177.1990  149.2220 F   0  0  0  0  0  0  0  0  0  0  0  0
  1  4  1  0  0  0  0
  2 12  1  0  0  0  0
  3  6  1  0  0  0  0
  4  3  1  6  0  0  0
  4  8  1  0  0  0  0
  5  7  1  0  0  0  0
  6  5  1  0  0  0  0
  7 22  1  1  0  0  0
  8  7  1  0  0  0  0
  9 12  1  0  0  0  0
  9  1  1  0  0  0  0
 10  3  2  0  0  0  0
 11  8  2  0  0  0  0
 12 10  1  0  0  0  0
 13  9  2  0  0  0  0
 14  1  1  0  0  0  0
 14 15  1  0  0  0  0
 15 21  1  6  0  0  0
 15 17  1  0  0  0  0
 17 16  1  0  0  0  0
 18 17  1  0  0  0  0
 19 17  2  0  0  0  0
 20 21  3  0  0  0  0
 22 28  1  0  0  0  0
 23 32  1  0  0  0  0
 24 26  1  0  0  0  0
 24 23  1  0  0  0  0
 25 24  1  0  0  0  0
 27 29  1  0  0  0  0
 28 25  1  0  0  0  0
 28 27  2  0  0  0  0
 29 23  2  0  0  0  0
 30 24  1  0  0  0  0
 32 31  2  0  0  0  0
 32 33  1  0  0  0  0
M  END
>  <MODEL>
3

>  <REMARK>
 VINA RESULT:      -9.2      2.950      4.951
  Name = 
  7 active torsions:
  status: ('A' for Active; 'I' for Inactive)
    1  A    between atoms: C_1  and  C_21
    2  A    between atoms: C_2  and  N_3
    3  A    between atoms: C_2  and  C_9
    4  A    between atoms: N_5  and  C_22
    5  A    between atoms: N_5  and  C_27
    6  A    between atoms: C_9  and  P_11
    7  A    between atoms: C_9  and  C_23
                            x       y       z     vdW  Elec       q    Type
                         _______ _______ _______ _____ _____    ______ ____

>  <TORSDO>
F 7

$$$$
=
 OpenBabel11062412343D

 33 35  0  0  1  0  0  0  0  0999 V2000
  187.7050  177.4300  144.3990 N   0  0  0  0  0  0  0  0  0  0  0  0
  187.8750  178.3750  148.0970 C   0  0  0  0  0  1  0  0  0  0  0  0
  185.5240  178.3730  145.2260 C   0  0  0  0  0  0  0  0  0  0  0  0
  186.2610  177.6130  144.1350 C   0  0  1  0  0  3  0  0  0  0  0  0
  183.5870  178.4010  143.6350 C   0  0  0  0  0  2  0  0  0  0  0  0
  184.1270  178.8700  144.9840 C   0  0  0  0  0  2  0  0  0  0  0  0
  184.5480  178.7500  142.5010 C   0  0  1  0  0  3  0  0  0  0  0  0
  185.9440  178.2410  142.7870 C   0  0  0  0  0  0  0  0  0  0  0  0
  188.2080  177.5750  145.7410 C   0  0  0  0  0  0  0  0  0  0  0  0
  186.0580  178.5900  146.4260 C   0  0  0  0  0  3  0  0  0  0  0  0
  186.7980  178.3390  141.9200 O   0  0  0  0  0  0  0  0  0  0  0  0
  187.3800  178.1640  146.7470 N   0  0  0  0  0  0  0  0  0  0  0  0
  189.3710  177.1830  146.0350 O   0  0  0  0  0  0  0  0  0  0  0  0
  188.5060  176.6900  143.4190 C   0  0  0  0  0  2  0  0  0  0  0  0
  189.4770  177.5980  142.6640 C   0  0  1  0  0  3  0  0  0  0  0  0
  192.1030  177.2890  141.9830 O   0  0  0  0  0  0  0  0  0  0  0  0
  191.1790  177.2340  143.1790 P   0  0  0  0  0  0  0  0  0  0  0  0
  191.2420  175.6900  143.8660 O   0  0  0  0  0  1  0  0  0  0  0  0
  191.6780  178.3740  144.3250 O   0  0  0  0  0  1  0  0  0  0  0  0
  189.2550  177.3210  140.0630 N   0  0  0  0  0  0  0  0  0  0  0  0
  189.3520  177.4410  141.2100 C   0  0  0  0  0  0  0  0  0  0  0  0
  184.0410  178.1820  141.2570 N   0  0  0  0  0  2  0  0  0  0  0  0
  181.1820  180.2870  138.8460 C   0  0  0  0  0  0  0  0  0  0  0  0
  180.6850  179.5500  140.0770 C   0  0  0  0  0  0  0  0  0  0  0  0
  181.6450  178.4290  140.4990 C   0  0  0  0  0  2  0  0  0  0  0  0
  179.4500  178.9770  139.8290 F   0  0  0  0  0  0  0  0  0  0  0  0
  183.4790  179.7170  139.4830 C   0  0  0  0  0  3  0  0  0  0  0  0
  183.0900  178.8350  140.4110 C   0  0  0  0  0  0  0  0  0  0  0  0
  182.4980  180.3890  138.6190 C   0  0  0  0  0  3  0  0  0  0  0  0
  180.5570  180.4500  141.1210 F   0  0  0  0  0  0  0  0  0  0  0  0
  180.5070  181.1920  136.7510 O   0  0  0  0  0  0  0  0  0  0  0  0
  180.2570  181.0370  137.9750 C   0  0  0  0  0  0  0  0  0  0  0  0
  179.1140  181.5630  138.4850 F   0  0  0  0  0  0  0  0  0  0  0  0
  1  9  1  0  0  0  0
  3 10  2  0  0  0  0
  4  8  1  6  0  0  0
  4  1  1  0  0  0  0
  4  3  1  0  0  0  0
  5  6  1  0  0  0  0
  6  3  1  0  0  0  0
  7 22  1  6  0  0  0
  7  8  1  0  0  0  0
  7  5  1  0  0  0  0
  9 13  2  0  0  0  0
  9 12  1  0  0  0  0
 10 12  1  0  0  0  0
 11  8  2  0  0  0  0
 12  2  1  0  0  0  0
 14  1  1  0  0  0  0
 15 21  1  6  0  0  0
 15 17  1  0  0  0  0
 15 14  1  0  0  0  0
 16 17  2  0  0  0  0
 17 18  1  0  0  0  0
 17 19  1  0  0  0  0
 20 21  3  0  0  0  0
 23 24  1  0  0  0  0
 24 25  1  0  0  0  0
 24 30  1  0  0  0  0
 26 24  1  0  0  0  0
 27 28  2  0  0  0  0
 28 25  1  0  0  0  0
 28 22  1  0  0  0  0
 29 23  2  0  0  0  0
 29 27  1  0  0  0  0
 31 32  2  0  0  0  0
 32 33  1  0  0  0  0
 32 23  1  0  0  0  0
M  END
>  <MODEL>
4

>  <REMARK>
 VINA RESULT:      -9.2      4.663      8.565
  Name = 
  7 active torsions:
  status: ('A' for Active; 'I' for Inactive)
    1  A    between atoms: C_1  and  C_21
    2  A    between atoms: C_2  and  N_3
    3  A    between atoms: C_2  and  C_9
    4  A    between atoms: N_5  and  C_22
    5  A    between atoms: N_5  and  C_27
    6  A    between atoms: C_9  and  P_11
    7  A    between atoms: C_9  and  C_23
                            x       y       z     vdW  Elec       q    Type
                         _______ _______ _______ _____ _____    ______ ____

>  <TORSDO>
F 7

$$$$
=
 OpenBabel11062412343D

 33 35  0  0  1  0  0  0  0  0999 V2000
  190.0660  177.0140  136.9890 N   0  0  0  0  0  0  0  0  0  0  0  0
  187.0670  177.6270  134.7030 C   0  0  0  0  0  1  0  0  0  0  0  0
  188.0970  177.9360  138.2540 C   0  0  0  0  0  0  0  0  0  0  0  0
  189.5870  177.6360  138.2420 C   0  0  1  0  0  3  0  0  0  0  0  0
  188.4140  178.4600  140.6850 C   0  0  0  0  0  2  0  0  0  0  0  0
  187.4150  178.3130  139.5390 C   0  0  0  0  0  2  0  0  0  0  0  0
  189.2920  177.2170  140.8190 C   0  0  1  0  0  3  0  0  0  0  0  0
  189.9510  176.8670  139.5030 C   0  0  0  0  0  0  0  0  0  0  0  0
  189.2700  177.1180  135.7930 C   0  0  0  0  0  0  0  0  0  0  0  0
  187.3590  177.9160  137.1460 C   0  0  0  0  0  3  0  0  0  0  0  0
  190.7770  175.9680  139.4770 O   0  0  0  0  0  0  0  0  0  0  0  0
  187.9130  177.5620  135.8820 N   0  0  0  0  0  0  0  0  0  0  0  0
  189.7610  176.8230  134.6680 O   0  0  0  0  0  0  0  0  0  0  0  0
  191.4930  176.7040  136.8630 C   0  0  0  0  0  2  0  0  0  0  0  0
  191.7320  175.3250  136.2470 C   0  0  1  0  0  3  0  0  0  0  0  0
  193.5570  173.9320  137.7250 O   0  0  0  0  0  1  0  0  0  0  0  0
  193.4590  174.8290  136.5120 P   0  0  0  0  0  0  0  0  0  0  0  0
  194.4090  176.2070  136.7530 O   0  0  0  0  0  1  0  0  0  0  0  0
  194.0210  173.9960  135.1510 O   0  0  0  0  0  0  0  0  0  0  0  0
  190.1210  173.5150  137.2580 N   0  0  0  0  0  0  0  0  0  0  0  0
  190.8310  174.3120  136.8100 C   0  0  0  0  0  0  0  0  0  0  0  0
  190.2980  177.4560  141.8480 N   0  0  0  0  0  2  0  0  0  0  0  0
  189.6290  177.2810  146.0830 C   0  0  0  0  0  0  0  0  0  0  0  0
  191.0070  176.9240  145.5550 C   0  0  0  0  0  0  0  0  0  0  0  0
  190.9600  176.4870  144.0840 C   0  0  0  0  0  2  0  0  0  0  0  0
  191.5490  175.8830  146.2870 F   0  0  0  0  0  0  0  0  0  0  0  0
  188.9590  177.8930  143.8070 C   0  0  0  0  0  3  0  0  0  0  0  0
  190.0450  177.3410  143.2520 C   0  0  0  0  0  0  0  0  0  0  0  0
  188.7050  177.7760  145.2500 C   0  0  0  0  0  3  0  0  0  0  0  0
  191.8340  178.0280  145.6710 F   0  0  0  0  0  0  0  0  0  0  0  0
  188.2890  176.6840  147.9580 O   0  0  0  0  0  0  0  0  0  0  0  0
  189.3290  177.2490  147.5280 C   0  0  0  0  0  0  0  0  0  0  0  0
  190.1820  177.8230  148.4150 F   0  0  0  0  0  0  0  0  0  0  0  0
  1  4  1  0  0  0  0
  2 12  1  0  0  0  0
  3  6  1  0  0  0  0
  4  3  1  6  0  0  0
  4  8  1  0  0  0  0
  5  7  1  0  0  0  0
  6  5  1  0  0  0  0
  7 22  1  1  0  0  0
  8  7  1  0  0  0  0
  9 12  1  0  0  0  0
  9  1  1  0  0  0  0
 10  3  2  0  0  0  0
 11  8  2  0  0  0  0
 12 10  1  0  0  0  0
 13  9  2  0  0  0  0
 14  1  1  0  0  0  0
 15 17  1  0  0  0  0
 15 21  1  1  0  0  0
 15 14  1  0  0  0  0
 17 18  1  0  0  0  0
 17 16  1  0  0  0  0
 19 17  2  0  0  0  0
 21 20  3  0  0  0  0
 22 28  1  0  0  0  0
 23 32  1  0  0  0  0
 24 30  1  0  0  0  0
 24 23  1  0  0  0  0
 24 26  1  0  0  0  0
 25 24  1  0  0  0  0
 27 29  1  0  0  0  0
 28 27  2  0  0  0  0
 28 25  1  0  0  0  0
 29 23  2  0  0  0  0
 32 31  2  0  0  0  0
 32 33  1  0  0  0  0
M  END
>  <MODEL>
5

>  <REMARK>
 VINA RESULT:      -9.1      3.354      4.900
  Name = 
  7 active torsions:
  status: ('A' for Active; 'I' for Inactive)
    1  A    between atoms: C_1  and  C_21
    2  A    between atoms: C_2  and  N_3
    3  A    between atoms: C_2  and  C_9
    4  A    between atoms: N_5  and  C_22
    5  A    between atoms: N_5  and  C_27
    6  A    between atoms: C_9  and  P_11
    7  A    between atoms: C_9  and  C_23
                            x       y       z     vdW  Elec       q    Type
                         _______ _______ _______ _____ _____    ______ ____

>  <TORSDO>
F 7

$$$$
=
 OpenBabel11062412343D

 33 35  0  0  1  0  0  0  0  0999 V2000
  188.5750  177.0370  137.1040 N   0  0  0  0  0  0  0  0  0  0  0  0
  191.9110  176.0900  135.5000 C   0  0  0  0  0  1  0  0  0  0  0  0
  190.3610  176.6300  138.8290 C   0  0  0  0  0  0  0  0  0  0  0  0
  188.8800  176.7990  138.5320 C   0  0  1  0  0  3  0  0  0  0  0  0
  189.6960  176.7280  141.2440 C   0  0  0  0  0  2  0  0  0  0  0  0
  190.8520  176.6520  140.2480 C   0  0  0  0  0  2  0  0  0  0  0  0
  188.7600  177.8910  140.9180 C   0  0  1  0  0  3  0  0  0  0  0  0
  188.2970  177.8370  139.4780 C   0  0  0  0  0  0  0  0  0  0  0  0
  189.5490  176.6900  136.1000 C   0  0  0  0  0  0  0  0  0  0  0  0
  191.2590  176.4200  137.8680 C   0  0  0  0  0  3  0  0  0  0  0  0
  187.4510  178.6320  139.1000 O   0  0  0  0  0  0  0  0  0  0  0  0
  190.8920  176.3910  136.4910 N   0  0  0  0  0  0  0  0  0  0  0  0
  189.2250  176.6440  134.8810 O   0  0  0  0  0  0  0  0  0  0  0  0
  187.1730  177.1920  136.7050 C   0  0  0  0  0  2  0  0  0  0  0  0
  186.3290  175.9730  137.0800 C   0  0  1  0  0  3  0  0  0  0  0  0
  183.7800  175.3520  137.8360 O   0  0  0  0  0  1  0  0  0  0  0  0
  184.5780  176.4470  137.1660 P   0  0  0  0  0  0  0  0  0  0  0  0
  183.9850  176.6970  135.6020 O   0  0  0  0  0  0  0  0  0  0  0  0
  184.4240  177.8780  138.0550 O   0  0  0  0  0  1  0  0  0  0  0  0
  186.6390  174.0100  135.3650 N   0  0  0  0  0  0  0  0  0  0  0  0
  186.5010  174.8740  136.1220 C   0  0  0  0  0  0  0  0  0  0  0  0
  187.6180  177.8490  141.8240 N   0  0  0  0  0  2  0  0  0  0  0  0
  188.0060  177.5570  146.0890 C   0  0  0  0  0  0  0  0  0  0  0  0
  189.2700  177.5460  145.2460 C   0  0  0  0  0  0  0  0  0  0  0  0
  188.9920  177.0960  143.8050 C   0  0  0  0  0  2  0  0  0  0  0  0
  190.2020  176.6770  145.7870 F   0  0  0  0  0  0  0  0  0  0  0  0
  186.7020  177.9620  144.0530 C   0  0  0  0  0  3  0  0  0  0  0  0
  187.7310  177.6900  143.2420 C   0  0  0  0  0  0  0  0  0  0  0  0
  186.8240  177.8010  145.5100 C   0  0  0  0  0  3  0  0  0  0  0  0
  189.8080  178.8210  145.2250 F   0  0  0  0  0  0  0  0  0  0  0  0
  187.9490  178.4960  148.2750 O   0  0  0  0  0  0  0  0  0  0  0  0
  188.0640  177.4660  147.5600 C   0  0  0  0  0  0  0  0  0  0  0  0
  188.2340  176.2610  148.1640 F   0  0  0  0  0  0  0  0  0  0  0  0
  1  4  1  0  0  0  0
  2 12  1  0  0  0  0
  3  6  1  0  0  0  0
  4  3  1  6  0  0  0
  4  8  1  0  0  0  0
  6  5  1  0  0  0  0
  7  5  1  0  0  0  0
  7 22  1  1  0  0  0
  8  7  1  0  0  0  0
  9 12  1  0  0  0  0
  9  1  1  0  0  0  0
 10  3  2  0  0  0  0
 11  8  2  0  0  0  0
 12 10  1  0  0  0  0
 13  9  2  0  0  0  0
 14 15  1  0  0  0  0
 14  1  1  0  0  0  0
 15 21  1  6  0  0  0
 15 17  1  0  0  0  0
 17 16  1  0  0  0  0
 17 19  1  0  0  0  0
 18 17  2  0  0  0  0
 20 21  3  0  0  0  0
 22 28  1  0  0  0  0
 23 32  1  0  0  0  0
 24 26  1  0  0  0  0
 24 23  1  0  0  0  0
 25 24  1  0  0  0  0
 27 29  1  0  0  0  0
 28 25  1  0  0  0  0
 28 27  2  0  0  0  0
 29 23  2  0  0  0  0
 30 24  1  0  0  0  0
 32 33  1  0  0  0  0
 32 31  2  0  0  0  0
M  END
>  <MODEL>
6

>  <REMARK>
 VINA RESULT:      -9.1      3.237      5.379
  Name = 
  7 active torsions:
  status: ('A' for Active; 'I' for Inactive)
    1  A    between atoms: C_1  and  C_21
    2  A    between atoms: C_2  and  N_3
    3  A    between atoms: C_2  and  C_9
    4  A    between atoms: N_5  and  C_22
    5  A    between atoms: N_5  and  C_27
    6  A    between atoms: C_9  and  P_11
    7  A    between atoms: C_9  and  C_23
                            x       y       z     vdW  Elec       q    Type
                         _______ _______ _______ _____ _____    ______ ____

>  <TORSDO>
F 7

$$$$
=
 OpenBabel11062412343D

 33 35  0  0  1  0  0  0  0  0999 V2000
  185.0810  176.7640  136.8500 N   0  0  0  0  0  0  0  0  0  0  0  0
  184.9520  173.6830  134.5940 C   0  0  0  0  0  1  0  0  0  0  0  0
  187.2910  175.5640  136.7760 C   0  0  0  0  0  0  0  0  0  0  0  0
  186.4150  176.5960  137.4660 C   0  0  1  0  0  3  0  0  0  0  0  0
  189.1310  176.4130  138.2520 C   0  0  0  0  0  2  0  0  0  0  0  0
  188.7530  175.4720  137.1100 C   0  0  0  0  0  2  0  0  0  0  0  0
  188.6730  177.8430  137.9670 C   0  0  1  0  0  3  0  0  0  0  0  0
  187.1990  177.8900  137.6260 C   0  0  0  0  0  0  0  0  0  0  0  0
  184.5610  175.7340  135.9880 C   0  0  0  0  0  0  0  0  0  0  0  0
  186.8030  174.6920  135.8960 C   0  0  0  0  0  3  0  0  0  0  0  0
  186.6590  178.9760  137.4890 O   0  0  0  0  0  0  0  0  0  0  0  0
  185.4320  174.7060  135.5080 N   0  0  0  0  0  0  0  0  0  0  0  0
  183.3430  175.7300  135.6560 O   0  0  0  0  0  0  0  0  0  0  0  0
  184.1480  177.7200  137.4530 C   0  0  0  0  0  2  0  0  0  0  0  0
  183.8910  177.4210  138.9310 C   0  0  1  0  0  3  0  0  0  0  0  0
  184.3530  180.0880  139.2860 O   0  0  0  0  0  0  0  0  0  0  0  0
  183.4870  178.9620  139.8030 P   0  0  0  0  0  0  0  0  0  0  0  0
  183.7590  178.7590  141.4590 O   0  0  0  0  0  1  0  0  0  0  0  0
  181.8590  179.3440  139.5490 O   0  0  0  0  0  1  0  0  0  0  0  0
  181.9540  175.6780  139.2500 N   0  0  0  0  0  0  0  0  0  0  0  0
  182.8070  176.4480  139.1110 C   0  0  0  0  0  0  0  0  0  0  0  0
  188.9550  178.6720  139.1330 N   0  0  0  0  0  2  0  0  0  0  0  0
  188.0390  177.7220  143.2170 C   0  0  0  0  0  0  0  0  0  0  0  0
  189.4960  177.7260  142.7850 C   0  0  0  0  0  0  0  0  0  0  0  0
  189.6440  177.5200  141.2710 C   0  0  0  0  0  2  0  0  0  0  0  0
  190.1880  176.7100  143.4190 F   0  0  0  0  0  0  0  0  0  0  0  0
  187.4200  178.5350  140.9890 C   0  0  0  0  0  3  0  0  0  0  0  0
  188.6330  178.2970  140.4750 C   0  0  0  0  0  0  0  0  0  0  0  0
  187.0940  178.1510  142.3700 C   0  0  0  0  0  3  0  0  0  0  0  0
  190.0650  178.9390  143.1320 F   0  0  0  0  0  0  0  0  0  0  0  0
  188.3680  177.7790  145.5730 O   0  0  0  0  0  0  0  0  0  0  0  0
  187.6510  177.4110  144.6060 C   0  0  0  0  0  0  0  0  0  0  0  0
  186.5040  176.7300  144.8580 F   0  0  0  0  0  0  0  0  0  0  0  0
  1 14  1  0  0  0  0
  1  4  1  0  0  0  0
  2 12  1  0  0  0  0
  3  6  1  0  0  0  0
  4  3  1  6  0  0  0
  4  8  1  0  0  0  0
  6  5  1  0  0  0  0
  7  5  1  0  0  0  0
  7 22  1  1  0  0  0
  8  7  1  0  0  0  0
  9  1  1  0  0  0  0
 10  3  2  0  0  0  0
 11  8  2  0  0  0  0
 12 10  1  0  0  0  0
 12  9  1  0  0  0  0
 13  9  2  0  0  0  0
 15 14  1  6  0  0  0
 15 21  1  0  0  0  0
 15 17  1  0  0  0  0
 16 17  2  0  0  0  0
 17 18  1  0  0  0  0
 19 17  1  0  0  0  0
 21 20  3  0  0  0  0
 22 28  1  0  0  0  0
 23 32  1  0  0  0  0
 24 30  1  0  0  0  0
 24 23  1  0  0  0  0
 24 26  1  0  0  0  0
 25 24  1  0  0  0  0
 27 29  1  0  0  0  0
 28 27  2  0  0  0  0
 28 25  1  0  0  0  0
 29 23  2  0  0  0  0
 32 33  1  0  0  0  0
 32 31  2  0  0  0  0
M  END
>  <MODEL>
7

>  <REMARK>
 VINA RESULT:      -9.1      3.336      6.022
  Name = 
  7 active torsions:
  status: ('A' for Active; 'I' for Inactive)
    1  A    between atoms: C_1  and  C_21
    2  A    between atoms: C_2  and  N_3
    3  A    between atoms: C_2  and  C_9
    4  A    between atoms: N_5  and  C_22
    5  A    between atoms: N_5  and  C_27
    6  A    between atoms: C_9  and  P_11
    7  A    between atoms: C_9  and  C_23
                            x       y       z     vdW  Elec       q    Type
                         _______ _______ _______ _____ _____    ______ ____

>  <TORSDO>
F 7

$$$$
=
 OpenBabel11062412343D

 33 35  0  0  1  0  0  0  0  0999 V2000
  188.3810  178.1800  143.4870 N   0  0  0  0  0  0  0  0  0  0  0  0
  187.5930  177.6780  147.1920 C   0  0  0  0  0  1  0  0  0  0  0  0
  185.9040  178.0660  143.9100 C   0  0  0  0  0  0  0  0  0  0  0  0
  187.0350  178.0190  142.8960 C   0  0  1  0  0  3  0  0  0  0  0  0
  184.3770  178.1220  141.9230 C   0  0  0  0  0  2  0  0  0  0  0  0
  184.4810  178.1870  143.4450 C   0  0  0  0  0  2  0  0  0  0  0  0
  185.3090  179.1340  141.2590 C   0  0  1  0  0  3  0  0  0  0  0  0
  186.7290  178.9840  141.7610 C   0  0  0  0  0  0  0  0  0  0  0  0
  188.5720  177.9520  144.8970 C   0  0  0  0  0  0  0  0  0  0  0  0
  186.1190  177.9640  145.2200 C   0  0  0  0  0  3  0  0  0  0  0  0
  187.6130  179.6430  141.2370 O   0  0  0  0  0  0  0  0  0  0  0  0
  187.4340  177.8540  145.7580 N   0  0  0  0  0  0  0  0  0  0  0  0
  189.7340  177.8350  145.3760 O   0  0  0  0  0  0  0  0  0  0  0  0
  189.5460  178.1270  142.5980 C   0  0  0  0  0  2  0  0  0  0  0  0
  189.6240  176.8080  141.8280 C   0  0  1  0  0  3  0  0  0  0  0  0
  190.6150  175.7610  139.5100 O   0  0  0  0  0  1  0  0  0  0  0  0
  190.5240  177.0640  140.2710 P   0  0  0  0  0  0  0  0  0  0  0  0
  192.0820  177.6280  140.6070 O   0  0  0  0  0  1  0  0  0  0  0  0
  189.7080  178.2080  139.3300 O   0  0  0  0  0  0  0  0  0  0  0  0
  190.7970  174.9260  143.2320 N   0  0  0  0  0  0  0  0  0  0  0  0
  190.2780  175.7550  142.6140 C   0  0  0  0  0  0  0  0  0  0  0  0
  185.2560  178.9510  139.8130 N   0  0  0  0  0  2  0  0  0  0  0  0
  181.5160  178.5490  137.7450 C   0  0  0  0  0  0  0  0  0  0  0  0
  182.2590  177.2860  138.1450 C   0  0  0  0  0  0  0  0  0  0  0  0
  183.7600  177.5440  138.3430 C   0  0  0  0  0  2  0  0  0  0  0  0
  182.1240  176.3180  137.1670 F   0  0  0  0  0  0  0  0  0  0  0  0
  183.2090  179.8700  138.9280 C   0  0  0  0  0  3  0  0  0  0  0  0
  184.0400  178.8310  139.0690 C   0  0  0  0  0  0  0  0  0  0  0  0
  181.9580  179.7410  138.1660 C   0  0  0  0  0  3  0  0  0  0  0  0
  181.7260  176.8050  139.3280 F   0  0  0  0  0  0  0  0  0  0  0  0
  179.8820  179.3970  136.2370 O   0  0  0  0  0  0  0  0  0  0  0  0
  180.2230  178.4870  137.0380 C   0  0  0  0  0  0  0  0  0  0  0  0
  179.3860  177.4360  137.2370 F   0  0  0  0  0  0  0  0  0  0  0  0
  1  9  1  0  0  0  0
  3 10  2  0  0  0  0
  4  8  1  6  0  0  0
  4  1  1  0  0  0  0
  4  3  1  0  0  0  0
  5  6  1  0  0  0  0
  6  3  1  0  0  0  0
  7 22  1  6  0  0  0
  7  8  1  0  0  0  0
  7  5  1  0  0  0  0
  9 13  2  0  0  0  0
  9 12  1  0  0  0  0
 10 12  1  0  0  0  0
 11  8  2  0  0  0  0
 12  2  1  0  0  0  0
 14  1  1  0  0  0  0
 15 14  1  1  0  0  0
 15 21  1  0  0  0  0
 16 17  1  0  0  0  0
 17 18  1  0  0  0  0
 17 15  1  0  0  0  0
 19 17  2  0  0  0  0
 21 20  3  0  0  0  0
 23 24  1  0  0  0  0
 23 29  2  0  0  0  0
 24 25  1  0  0  0  0
 24 30  1  0  0  0  0
 25 28  1  0  0  0  0
 26 24  1  0  0  0  0
 27 28  2  0  0  0  0
 28 22  1  0  0  0  0
 29 27  1  0  0  0  0
 31 32  2  0  0  0  0
 32 33  1  0  0  0  0
 32 23  1  0  0  0  0
M  END
>  <MODEL>
8

>  <REMARK>
 VINA RESULT:      -9.1      4.238      8.225
  Name = 
  7 active torsions:
  status: ('A' for Active; 'I' for Inactive)
    1  A    between atoms: C_1  and  C_21
    2  A    between atoms: C_2  and  N_3
    3  A    between atoms: C_2  and  C_9
    4  A    between atoms: N_5  and  C_22
    5  A    between atoms: N_5  and  C_27
    6  A    between atoms: C_9  and  P_11
    7  A    between atoms: C_9  and  C_23
                            x       y       z     vdW  Elec       q    Type
                         _______ _______ _______ _____ _____    ______ ____

>  <TORSDO>
F 7

$$$$
=
 OpenBabel11062412343D

 33 35  0  0  1  0  0  0  0  0999 V2000
  188.3540  177.2100  145.6320 N   0  0  0  0  0  0  0  0  0  0  0  0
  191.2110  176.7660  148.1300 C   0  0  0  0  0  1  0  0  0  0  0  0
  190.6020  177.5360  144.5510 C   0  0  0  0  0  0  0  0  0  0  0  0
  189.0960  177.7090  144.4540 C   0  0  1  0  0  3  0  0  0  0  0  0
  190.6490  178.2410  142.1460 C   0  0  0  0  0  2  0  0  0  0  0  0
  191.4640  177.7420  143.3380 C   0  0  0  0  0  2  0  0  0  0  0  0
  189.4480  177.3360  141.8770 C   0  0  1  0  0  3  0  0  0  0  0  0
  188.6130  177.1470  143.1250 C   0  0  0  0  0  0  0  0  0  0  0  0
  189.0490  177.0090  146.8780 C   0  0  0  0  0  0  0  0  0  0  0  0
  191.2110  177.2400  145.6970 C   0  0  0  0  0  3  0  0  0  0  0  0
  187.5540  176.5460  143.0420 O   0  0  0  0  0  0  0  0  0  0  0  0
  190.4790  177.0180  146.9000 N   0  0  0  0  0  0  0  0  0  0  0  0
  188.4060  176.8300  147.9490 O   0  0  0  0  0  0  0  0  0  0  0  0
  186.8950  177.3490  145.6510 C   0  0  0  0  0  2  0  0  0  0  0  0
  186.4560  178.8130  145.6450 C   0  0  1  0  0  3  0  0  0  0  0  0
  184.8520  177.8800  143.6420 O   0  0  0  0  0  0  0  0  0  0  0  0
  184.9380  178.9910  144.6640 P   0  0  0  0  0  0  0  0  0  0  0  0
  184.9520  180.4840  143.8710 O   0  0  0  0  0  1  0  0  0  0  0  0
  183.5930  178.9160  145.6870 O   0  0  0  0  0  1  0  0  0  0  0  0
  186.0560  179.7260  148.0740 N   0  0  0  0  0  0  0  0  0  0  0  0
  186.2330  179.3220  147.0040 C   0  0  0  0  0  0  0  0  0  0  0  0
  188.6450  177.9190  140.8080 N   0  0  0  0  0  2  0  0  0  0  0  0
  189.1300  176.9600  136.6530 C   0  0  0  0  0  0  0  0  0  0  0  0
  188.2460  178.1380  137.0230 C   0  0  0  0  0  0  0  0  0  0  0  0
  187.7190  178.0270  138.4610 C   0  0  0  0  0  2  0  0  0  0  0  0
  187.1540  178.2050  136.1780 F   0  0  0  0  0  0  0  0  0  0  0  0
  189.7250  176.7140  139.0180 C   0  0  0  0  0  3  0  0  0  0  0  0
  188.7650  177.5510  139.4300 C   0  0  0  0  0  0  0  0  0  0  0  0
  189.8470  176.3420  137.6010 C   0  0  0  0  0  3  0  0  0  0  0  0
  188.9780  179.3060  136.9010 F   0  0  0  0  0  0  0  0  0  0  0  0
  188.4560  175.9660  134.5980 O   0  0  0  0  0  0  0  0  0  0  0  0
  189.3480  176.5770  135.2450 C   0  0  0  0  0  0  0  0  0  0  0  0
  190.5150  176.8890  134.6240 F   0  0  0  0  0  0  0  0  0  0  0  0
  1 14  1  0  0  0  0
  1  9  1  0  0  0  0
  3 10  2  0  0  0  0
  4  8  1  6  0  0  0
  4  3  1  0  0  0  0
  4  1  1  0  0  0  0
  5  6  1  0  0  0  0
  6  3  1  0  0  0  0
  7 22  1  6  0  0  0
  7  5  1  0  0  0  0
  7  8  1  0  0  0  0
  9 12  1  0  0  0  0
  9 13  2  0  0  0  0
 10 12  1  0  0  0  0
 11  8  2  0  0  0  0
 12  2  1  0  0  0  0
 15 14  1  1  0  0  0
 15 21  1  0  0  0  0
 16 17  2  0  0  0  0
 17 15  1  0  0  0  0
 17 19  1  0  0  0  0
 18 17  1  0  0  0  0
 21 20  3  0  0  0  0
 23 24  1  0  0  0  0
 23 29  2  0  0  0  0
 24 25  1  0  0  0  0
 25 28  1  0  0  0  0
 26 24  1  0  0  0  0
 27 28  2  0  0  0  0
 28 22  1  0  0  0  0
 29 27  1  0  0  0  0
 30 24  1  0  0  0  0
 31 32  2  0  0  0  0
 32 23  1  0  0  0  0
 33 32  1  0  0  0  0
M  END
>  <MODEL>
9

>  <REMARK>
 VINA RESULT:      -9.0      4.178      8.345
  Name = 
  7 active torsions:
  status: ('A' for Active; 'I' for Inactive)
    1  A    between atoms: C_1  and  C_21
    2  A    between atoms: C_2  and  N_3
    3  A    between atoms: C_2  and  C_9
    4  A    between atoms: N_5  and  C_22
    5  A    between atoms: N_5  and  C_27
    6  A    between atoms: C_9  and  P_11
    7  A    between atoms: C_9  and  C_23
                            x       y       z     vdW  Elec       q    Type
                         _______ _______ _______ _____ _____    ______ ____

>  <TORSDO>
F 7

$$$$
