=
 OpenBabel11062417233D

 45 51  0  0  1  0  0  0  0  0999 V2000
  190.0100  176.5590  138.6260 O   0  0  0  0  0  0  0  0  0  0  0  0
  190.3720  176.1100  136.2390 C   0  0  0  0  0  2  0  0  0  0  0  0
  188.5620  173.7850  136.0490 S   0  0  0  0  0  0  0  0  0  0  0  0
  187.6540  175.3370  135.9030 C   0  0  1  0  0  3  0  0  0  0  0  0
  186.3670  175.5490  136.6800 C   0  0  1  0  0  3  0  0  0  0  0  0
  189.6860  176.9840  137.3300 C   0  0  1  0  0  3  0  0  0  0  0  0
  187.7160  175.8740  137.3190 C   0  0  2  0  0  3  0  0  0  0  0  0
  190.1570  174.6080  136.3880 C   0  0  0  0  0  0  0  0  0  0  0  0
  191.3040  173.7790  136.6170 S   0  0  0  0  0  0  0  0  0  0  0  0
  188.2820  177.1450  137.1670 O   0  0  0  0  0  0  0  0  0  0  0  0
  185.6280  177.0100  134.9250 F   0  0  0  0  0  0  0  0  0  0  0  0
  185.5620  176.8070  136.2920 C   0  0  1  0  0  3  0  0  0  0  0  0
  184.1070  176.8490  136.7580 C   0  0  0  0  0  2  0  0  0  0  0  0
  183.9950  177.5400  137.9710 O   0  0  0  0  0  0  0  0  0  0  0  0
  182.6930  177.3010  138.4260 C   0  0  0  0  0  2  0  0  0  0  0  0
  182.3010  178.2570  139.5480 C   0  0  1  0  0  3  0  0  0  0  0  0
  182.8880  179.6410  139.3120 C   0  0  0  0  0  2  0  0  0  0  0  0
  181.9530  180.4770  138.4680 C   0  0  0  0  0  1  0  0  0  0  0  0
  180.9070  178.3330  139.6490 O   0  0  0  0  0  0  0  0  0  0  0  0
  180.5950  177.6790  140.8420 C   0  0  0  0  0  2  0  0  0  0  0  0
  179.9870  178.5720  143.0660 C   0  0  0  0  0  2  0  0  0  0  0  0
  180.2220  179.7480  142.1450 C   0  0  0  0  0  2  0  0  0  0  0  0
  179.5690  178.4890  141.6110 C   0  0  0  0  0  3  0  0  0  0  0  0
  190.1810  177.7320  139.3610 C   0  0  0  0  0  2  0  0  0  0  0  0
  190.5340  176.0240  140.9710 O   0  0  0  0  0  1  0  0  0  0  0  0
  190.3490  177.3970  140.8330 C   0  0  2  0  0  3  0  0  0  0  0  0
  189.1080  177.8060  141.6040 C   0  0  0  0  0  2  0  0  0  0  0  0
  189.2030  177.3110  143.0320 C   0  0  0  0  0  2  0  0  0  0  0  0
  190.0570  178.2650  143.8380 C   0  0  0  0  0  2  0  0  0  0  0  0
  189.6400  178.2120  145.2950 C   0  0  1  0  0  3  0  0  0  0  0  0
  190.8290  177.0880  146.8480 C   0  0  0  0  0  0  0  0  0  0  0  0
  189.6140  176.4810  147.1550 O   0  0  0  0  0  0  0  0  0  0  0  0
  188.4070  177.4310  145.4230 C   0  0  1  0  0  3  0  0  0  0  0  0
  191.7590  176.1400  147.6210 C   0  0  0  0  0  2  0  0  0  0  0  0
  189.7700  176.7610  145.7970 C   0  0  1  0  0  0  0  0  0  0  0  0
  191.9350  176.2540  146.1740 C   0  0  0  0  0  2  0  0  0  0  0  0
  187.5830  178.0240  146.5690 C   0  0  0  0  0  2  0  0  0  0  0  0
  186.0980  177.7380  146.3770 C   0  0  0  0  0  2  0  0  0  0  0  0
  185.7490  178.6780  141.7150 O   0  0  0  0  0  0  0  0  0  0  0  0
  183.7190  178.9600  142.8930 C   0  0  0  0  0  2  0  0  0  0  0  0
  185.5300  178.5130  145.1970 C   0  0  1  0  0  3  0  0  0  0  0  0
  185.7880  177.7650  143.8890 C   0  0  0  0  0  2  0  0  0  0  0  0
  183.4910  179.6100  144.2560 C   0  0  0  0  0  2  0  0  0  0  0  0
  185.1430  178.5040  142.7580 C   0  0  0  0  0  0  0  0  0  0  0  0
  184.0300  178.7360  145.3880 C   0  0  0  0  0  2  0  0  0  0  0  0
  1 24  1  0  0  0  0
  2  8  1  0  0  0  0
  2  6  1  0  0  0  0
  3  8  1  0  0  0  0
  4  3  1  1  0  0  0
  4  5  1  0  0  0  0
  4  7  1  0  0  0  0
  5 12  1  6  0  0  0
  5  7  1  0  0  0  0
  6  1  1  1  0  0  0
  7 10  1  6  0  0  0
  8  9  2  0  0  0  0
 10  6  1  0  0  0  0
 12 11  1  6  0  0  0
 12 13  1  0  0  0  0
 13 14  1  0  0  0  0
 14 15  1  0  0  0  0
 16 15  1  6  0  0  0
 16 19  1  0  0  0  0
 17 16  1  0  0  0  0
 18 17  1  0  0  0  0
 19 20  1  0  0  0  0
 20 23  1  0  0  0  0
 22 21  1  0  0  0  0
 23 22  1  0  0  0  0
 23 21  1  0  0  0  0
 24 26  1  0  0  0  0
 26 25  1  6  0  0  0
 26 27  1  0  0  0  0
 27 28  1  0  0  0  0
 28 29  1  0  0  0  0
 30 29  1  6  0  0  0
 30 33  1  0  0  0  0
 30 35  1  0  0  0  0
 31 32  1  0  0  0  0
 31 34  1  0  0  0  0
 33 35  1  0  0  0  0
 33 37  1  1  0  0  0
 35 31  1  0  0  0  0
 35 32  1  1  0  0  0
 36 31  1  0  0  0  0
 36 34  1  0  0  0  0
 38 37  1  0  0  0  0
 39 44  2  0  0  0  0
 40 43  1  0  0  0  0
 41 45  1  0  0  0  0
 41 38  1  1  0  0  0
 42 41  1  0  0  0  0
 43 45  1  0  0  0  0
 44 40  1  0  0  0  0
 44 42  1  0  0  0  0
M  END
>  <MODEL>
1

>  <REMARK>
 VINA RESULT:      -7.4      0.000      0.000
  Name = 
  19 active torsions:
  status: ('A' for Active; 'I' for Inactive)
    1  A    between atoms: C_2  and  O_12
    2  A    between atoms: C_2  and  C_14
    3  A    between atoms: C_2  and  C_15
    4  A    between atoms: C_4  and  C_35
    5  A    between atoms: C_5  and  C_11
    6  A    between atoms: C_5  and  C_38
    7  A    between atoms: O_6  and  C_26
    8  A    between atoms: O_6  and  C_38
    9  A    between atoms: O_9  and  C_14
   10  A    between atoms: O_9  and  C_44
   11  A    between atoms: C_11  and  C_34
   12  A    between atoms: O_12  and  C_30
   13  A    between atoms: C_13  and  C_23
   14  A    between atoms: C_13  and  C_44
   15  A    between atoms: C_22  and  C_31
   16  A    between atoms: C_29  and  C_31
   17  A    between atoms: C_29  and  C_32
   18  A    between atoms: C_30  and  C_45
   19  A    between atoms: C_34  and  C_35
                            x       y       z     vdW  Elec       q    Type
                         _______ _______ _______ _____ _____    ______ ____

>  <TORSDO>
F 19

$$$$
=
 OpenBabel11062417233D

 45 51  0  0  1  0  0  0  0  0999 V2000
  188.8490  177.3570  139.4960 O   0  0  0  0  0  0  0  0  0  0  0  0
  190.1190  177.5230  137.4010 C   0  0  0  0  0  2  0  0  0  0  0  0
  189.3750  174.8720  136.3370 S   0  0  0  0  0  0  0  0  0  0  0  0
  188.1020  176.1010  135.9860 C   0  0  1  0  0  3  0  0  0  0  0  0
  186.6380  175.7790  136.2250 C   0  0  1  0  0  3  0  0  0  0  0  0
  188.8560  177.9280  138.2160 C   0  0  1  0  0  3  0  0  0  0  0  0
  187.5010  176.3340  137.3570 C   0  0  2  0  0  3  0  0  0  0  0  0
  190.3870  176.0240  137.3290 C   0  0  0  0  0  0  0  0  0  0  0  0
  191.5980  175.5240  137.9090 S   0  0  0  0  0  0  0  0  0  0  0  0
  187.6210  177.7160  137.5410 O   0  0  0  0  0  0  0  0  0  0  0  0
  186.3150  177.8620  135.0770 F   0  0  0  0  0  0  0  0  0  0  0  0
  185.6360  176.8100  135.6650 C   0  0  1  0  0  3  0  0  0  0  0  0
  184.5740  176.2710  134.7080 C   0  0  0  0  0  2  0  0  0  0  0  0
  183.9470  175.1410  135.2470 O   0  0  0  0  0  0  0  0  0  0  0  0
  183.1560  175.6120  136.3010 C   0  0  0  0  0  2  0  0  0  0  0  0
  182.9120  174.5330  137.3520 C   0  0  1  0  0  3  0  0  0  0  0  0
  184.1510  173.6690  137.5400 C   0  0  0  0  0  2  0  0  0  0  0  0
  183.8800  172.2500  137.0960 C   0  0  0  0  0  1  0  0  0  0  0  0
  182.5420  175.1220  138.5670 O   0  0  0  0  0  0  0  0  0  0  0  0
  183.3100  176.2830  138.6540 C   0  0  0  0  0  2  0  0  0  0  0  0
  182.7190  178.4860  139.6090 C   0  0  0  0  0  2  0  0  0  0  0  0
  181.5500  177.5550  139.8360 C   0  0  0  0  0  2  0  0  0  0  0  0
  182.9660  177.0250  139.9310 C   0  0  0  0  0  3  0  0  0  0  0  0
  188.3470  178.3520  140.3350 C   0  0  0  0  0  2  0  0  0  0  0  0
  189.0490  176.6510  141.8340 O   0  0  0  0  0  1  0  0  0  0  0  0
  188.5290  177.9430  141.7860 C   0  0  2  0  0  3  0  0  0  0  0  0
  187.1920  177.9610  142.5040 C   0  0  0  0  0  2  0  0  0  0  0  0
  186.1100  178.4470  141.5630 C   0  0  0  0  0  2  0  0  0  0  0  0
  185.2070  179.4160  142.2960 C   0  0  0  0  0  2  0  0  0  0  0  0
  184.6980  178.7710  143.5700 C   0  0  1  0  0  3  0  0  0  0  0  0
  182.4970  178.5260  144.0010 C   0  0  0  0  0  0  0  0  0  0  0  0
  182.7940  179.1510  145.2100 O   0  0  0  0  0  0  0  0  0  0  0  0
  185.0020  179.6370  144.7130 C   0  0  1  0  0  3  0  0  0  0  0  0
  180.9660  178.6300  144.0620 C   0  0  0  0  0  2  0  0  0  0  0  0
  183.5480  179.6270  144.1370 C   0  0  1  0  0  0  0  0  0  0  0  0
  181.6600  179.2820  142.9520 C   0  0  0  0  0  2  0  0  0  0  0  0
  185.2790  178.7470  145.9270 C   0  0  0  0  0  2  0  0  0  0  0  0
  186.1500  177.5560  145.5420 C   0  0  0  0  0  2  0  0  0  0  0  0
  190.6690  176.5820  146.7120 O   0  0  0  0  0  0  0  0  0  0  0  0
  189.6170  178.1030  148.1830 C   0  0  0  0  0  2  0  0  0  0  0  0
  187.2610  177.3310  146.5570 C   0  0  1  0  0  3  0  0  0  0  0  0
  188.6310  177.4320  145.8860 C   0  0  0  0  0  2  0  0  0  0  0  0
  188.2030  178.0480  148.7590 C   0  0  0  0  0  2  0  0  0  0  0  0
  189.7040  177.2950  146.9200 C   0  0  0  0  0  0  0  0  0  0  0  0
  187.1540  178.3520  147.6890 C   0  0  0  0  0  2  0  0  0  0  0  0
  1 24  1  0  0  0  0
  2  6  1  0  0  0  0
  3  8  1  0  0  0  0
  4  5  1  0  0  0  0
  4  3  1  1  0  0  0
  4  7  1  0  0  0  0
  5 12  1  6  0  0  0
  5  7  1  0  0  0  0
  6  1  1  1  0  0  0
  7 10  1  6  0  0  0
  8  2  1  0  0  0  0
  8  9  2  0  0  0  0
 10  6  1  0  0  0  0
 12 11  1  6  0  0  0
 13 14  1  0  0  0  0
 13 12  1  0  0  0  0
 14 15  1  0  0  0  0
 16 15  1  6  0  0  0
 16 17  1  0  0  0  0
 16 19  1  0  0  0  0
 18 17  1  0  0  0  0
 19 20  1  0  0  0  0
 20 23  1  0  0  0  0
 21 22  1  0  0  0  0
 21 23  1  0  0  0  0
 22 23  1  0  0  0  0
 24 26  1  0  0  0  0
 26 25  1  6  0  0  0
 26 27  1  0  0  0  0
 28 29  1  0  0  0  0
 28 27  1  0  0  0  0
 30 29  1  6  0  0  0
 30 35  1  0  0  0  0
 30 33  1  0  0  0  0
 31 34  1  0  0  0  0
 31 35  1  0  0  0  0
 31 32  1  0  0  0  0
 33 37  1  1  0  0  0
 35 33  1  0  0  0  0
 35 32  1  1  0  0  0
 36 31  1  0  0  0  0
 36 34  1  0  0  0  0
 38 37  1  0  0  0  0
 39 44  2  0  0  0  0
 40 43  1  0  0  0  0
 41 38  1  6  0  0  0
 41 45  1  0  0  0  0
 42 41  1  0  0  0  0
 42 44  1  0  0  0  0
 44 40  1  0  0  0  0
 45 43  1  0  0  0  0
M  END
>  <MODEL>
2

>  <REMARK>
 VINA RESULT:      -7.4      1.791      4.825
  Name = 
  19 active torsions:
  status: ('A' for Active; 'I' for Inactive)
    1  A    between atoms: C_2  and  O_12
    2  A    between atoms: C_2  and  C_14
    3  A    between atoms: C_2  and  C_15
    4  A    between atoms: C_4  and  C_35
    5  A    between atoms: C_5  and  C_11
    6  A    between atoms: C_5  and  C_38
    7  A    between atoms: O_6  and  C_26
    8  A    between atoms: O_6  and  C_38
    9  A    between atoms: O_9  and  C_14
   10  A    between atoms: O_9  and  C_44
   11  A    between atoms: C_11  and  C_34
   12  A    between atoms: O_12  and  C_30
   13  A    between atoms: C_13  and  C_23
   14  A    between atoms: C_13  and  C_44
   15  A    between atoms: C_22  and  C_31
   16  A    between atoms: C_29  and  C_31
   17  A    between atoms: C_29  and  C_32
   18  A    between atoms: C_30  and  C_45
   19  A    between atoms: C_34  and  C_35
                            x       y       z     vdW  Elec       q    Type
                         _______ _______ _______ _____ _____    ______ ____

>  <TORSDO>
F 19

$$$$
=
 OpenBabel11062417233D

 45 51  0  0  1  0  0  0  0  0999 V2000
  189.0620  176.8640  139.9190 O   0  0  0  0  0  0  0  0  0  0  0  0
  189.9230  177.9500  137.8920 C   0  0  0  0  0  2  0  0  0  0  0  0
  189.6170  175.6250  136.0990 S   0  0  0  0  0  0  0  0  0  0  0  0
  188.0680  176.5350  136.2640 C   0  0  1  0  0  3  0  0  0  0  0  0
  186.7650  175.7950  136.5040 C   0  0  1  0  0  3  0  0  0  0  0  0
  188.7450  177.7640  138.8920 C   0  0  1  0  0  3  0  0  0  0  0  0
  187.6520  176.1970  137.6810 C   0  0  2  0  0  3  0  0  0  0  0  0
  190.4960  176.6570  137.3220 C   0  0  0  0  0  0  0  0  0  0  0  0
  191.8620  176.3370  137.6130 S   0  0  0  0  0  0  0  0  0  0  0  0
  187.4960  177.4490  138.2870 O   0  0  0  0  0  0  0  0  0  0  0  0
  185.6720  177.6530  135.4510 F   0  0  0  0  0  0  0  0  0  0  0  0
  185.4880  176.6520  136.3870 C   0  0  1  0  0  3  0  0  0  0  0  0
  184.1900  175.8970  136.0990 C   0  0  0  0  0  2  0  0  0  0  0  0
  183.0790  176.6570  136.4850 O   0  0  0  0  0  0  0  0  0  0  0  0
  182.9890  176.5200  137.8740 C   0  0  0  0  0  2  0  0  0  0  0  0
  182.3770  177.7560  138.5270 C   0  0  1  0  0  3  0  0  0  0  0  0
  181.9630  178.7760  137.4750 C   0  0  0  0  0  2  0  0  0  0  0  0
  180.6950  179.4850  137.8950 C   0  0  0  0  0  1  0  0  0  0  0  0
  181.2740  177.3900  139.3080 O   0  0  0  0  0  0  0  0  0  0  0  0
  181.1530  176.0100  139.1350 C   0  0  0  0  0  2  0  0  0  0  0  0
  179.7180  174.3960  140.3400 C   0  0  0  0  0  2  0  0  0  0  0  0
  179.4130  175.7750  140.8770 C   0  0  0  0  0  2  0  0  0  0  0  0
  179.7200  175.5900  139.4060 C   0  0  0  0  0  3  0  0  0  0  0  0
  189.6510  177.6410  140.9160 C   0  0  0  0  0  2  0  0  0  0  0  0
  190.3830  175.7040  142.0750 O   0  0  0  0  0  1  0  0  0  0  0  0
  190.8310  176.8990  141.5180 C   0  0  2  0  0  3  0  0  0  0  0  0
  191.4730  177.7390  142.6070 C   0  0  0  0  0  2  0  0  0  0  0  0
  190.9760  177.2870  143.9650 C   0  0  0  0  0  2  0  0  0  0  0  0
  190.3830  178.4690  144.7010 C   0  0  0  0  0  2  0  0  0  0  0  0
  188.9260  178.1920  145.0130 C   0  0  1  0  0  3  0  0  0  0  0  0
  188.1510  178.0600  147.1280 C   0  0  0  0  0  0  0  0  0  0  0  0
  187.6190  176.8390  146.7220 O   0  0  0  0  0  0  0  0  0  0  0  0
  188.5930  176.8190  144.6220 C   0  0  1  0  0  3  0  0  0  0  0  0
  187.9660  177.8960  148.6440 C   0  0  0  0  0  2  0  0  0  0  0  0
  188.8480  177.1350  146.1320 C   0  0  1  0  0  0  0  0  0  0  0  0
  189.3220  178.0730  148.1280 C   0  0  0  0  0  2  0  0  0  0  0  0
  187.1370  176.7970  144.1500 C   0  0  0  0  0  2  0  0  0  0  0  0
  186.8800  177.8950  143.1230 C   0  0  0  0  0  2  0  0  0  0  0  0
  182.4610  179.1520  141.8450 O   0  0  0  0  0  0  0  0  0  0  0  0
  182.6950  178.7340  144.1600 C   0  0  0  0  0  2  0  0  0  0  0  0
  185.5500  178.5900  143.3740 C   0  0  1  0  0  3  0  0  0  0  0  0
  184.4830  178.0780  142.4070 C   0  0  0  0  0  2  0  0  0  0  0  0
  183.8260  179.1570  145.0940 C   0  0  0  0  0  2  0  0  0  0  0  0
  183.1680  178.7130  142.7350 C   0  0  0  0  0  0  0  0  0  0  0  0
  185.1030  178.3630  144.8190 C   0  0  0  0  0  2  0  0  0  0  0  0
  1 24  1  0  0  0  0
  2  6  1  0  0  0  0
  3  8  1  0  0  0  0
  4  3  1  6  0  0  0
  4  5  1  0  0  0  0
  4  7  1  0  0  0  0
  5 12  1  1  0  0  0
  5  7  1  0  0  0  0
  6  1  1  1  0  0  0
  7 10  1  1  0  0  0
  8  9  2  0  0  0  0
  8  2  1  0  0  0  0
 10  6  1  0  0  0  0
 12 11  1  6  0  0  0
 13 12  1  0  0  0  0
 13 14  1  0  0  0  0
 14 15  1  0  0  0  0
 15 16  1  0  0  0  0
 16 17  1  6  0  0  0
 16 19  1  0  0  0  0
 17 18  1  0  0  0  0
 20 19  1  0  0  0  0
 20 23  1  0  0  0  0
 21 22  1  0  0  0  0
 23 21  1  0  0  0  0
 23 22  1  0  0  0  0
 24 26  1  0  0  0  0
 26 25  1  1  0  0  0
 26 27  1  0  0  0  0
 27 28  1  0  0  0  0
 28 29  1  0  0  0  0
 30 29  1  6  0  0  0
 30 35  1  0  0  0  0
 31 36  1  0  0  0  0
 31 34  1  0  0  0  0
 32 31  1  0  0  0  0
 33 37  1  1  0  0  0
 33 30  1  0  0  0  0
 33 35  1  0  0  0  0
 35 32  1  6  0  0  0
 35 31  1  0  0  0  0
 36 34  1  0  0  0  0
 38 37  1  0  0  0  0
 39 44  2  0  0  0  0
 40 43  1  0  0  0  0
 41 38  1  6  0  0  0
 41 45  1  0  0  0  0
 42 44  1  0  0  0  0
 42 41  1  0  0  0  0
 44 40  1  0  0  0  0
 45 43  1  0  0  0  0
M  END
>  <MODEL>
3

>  <REMARK>
 VINA RESULT:      -7.4      1.691      2.235
  Name = 
  19 active torsions:
  status: ('A' for Active; 'I' for Inactive)
    1  A    between atoms: C_2  and  O_12
    2  A    between atoms: C_2  and  C_14
    3  A    between atoms: C_2  and  C_15
    4  A    between atoms: C_4  and  C_35
    5  A    between atoms: C_5  and  C_11
    6  A    between atoms: C_5  and  C_38
    7  A    between atoms: O_6  and  C_26
    8  A    between atoms: O_6  and  C_38
    9  A    between atoms: O_9  and  C_14
   10  A    between atoms: O_9  and  C_44
   11  A    between atoms: C_11  and  C_34
   12  A    between atoms: O_12  and  C_30
   13  A    between atoms: C_13  and  C_23
   14  A    between atoms: C_13  and  C_44
   15  A    between atoms: C_22  and  C_31
   16  A    between atoms: C_29  and  C_31
   17  A    between atoms: C_29  and  C_32
   18  A    between atoms: C_30  and  C_45
   19  A    between atoms: C_34  and  C_35
                            x       y       z     vdW  Elec       q    Type
                         _______ _______ _______ _____ _____    ______ ____

>  <TORSDO>
F 19

$$$$
=
 OpenBabel11062417233D

 45 51  0  0  1  0  0  0  0  0999 V2000
  189.3130  177.2580  138.2220 O   0  0  0  0  0  0  0  0  0  0  0  0
  189.1610  177.6270  135.7980 C   0  0  0  0  0  2  0  0  0  0  0  0
  188.0580  174.9750  135.1160 S   0  0  0  0  0  0  0  0  0  0  0  0
  186.7590  176.1080  135.6490 C   0  0  1  0  0  3  0  0  0  0  0  0
  185.7060  175.6540  136.6420 C   0  0  1  0  0  3  0  0  0  0  0  0
  188.5670  177.8860  137.2140 C   0  0  1  0  0  3  0  0  0  0  0  0
  187.0340  176.2260  137.1350 C   0  0  2  0  0  3  0  0  0  0  0  0
  189.4040  176.1600  135.4600 C   0  0  0  0  0  0  0  0  0  0  0  0
  190.7510  175.7370  135.2120 S   0  0  0  0  0  0  0  0  0  0  0  0
  187.1780  177.6030  137.3370 O   0  0  0  0  0  0  0  0  0  0  0  0
  184.1580  177.1780  135.6210 F   0  0  0  0  0  0  0  0  0  0  0  0
  184.5200  176.6230  136.8350 C   0  0  1  0  0  3  0  0  0  0  0  0
  183.2880  176.0530  137.5380 C   0  0  0  0  0  2  0  0  0  0  0  0
  183.0560  176.7190  138.7480 O   0  0  0  0  0  0  0  0  0  0  0  0
  182.5520  177.9760  138.4000 C   0  0  0  0  0  2  0  0  0  0  0  0
  181.2690  178.3020  139.1590 C   0  0  1  0  0  3  0  0  0  0  0  0
  181.1520  177.4520  140.4160 C   0  0  0  0  0  2  0  0  0  0  0  0
  179.7910  176.7960  140.4890 C   0  0  0  0  0  1  0  0  0  0  0  0
  181.2380  179.6620  139.4880 O   0  0  0  0  0  0  0  0  0  0  0  0
  180.2530  180.2100  138.6650 C   0  0  0  0  0  2  0  0  0  0  0  0
  180.2980  182.4710  137.6650 C   0  0  0  0  0  2  0  0  0  0  0  0
  181.6530  182.2130  138.2830 C   0  0  0  0  0  2  0  0  0  0  0  0
  180.9040  181.0820  137.6080 C   0  0  0  0  0  3  0  0  0  0  0  0
  189.4370  178.2110  139.2310 C   0  0  0  0  0  2  0  0  0  0  0  0
  190.3790  176.2700  140.2190 O   0  0  0  0  0  1  0  0  0  0  0  0
  189.9070  177.5470  140.5130 C   0  0  2  0  0  3  0  0  0  0  0  0
  188.7540  177.4320  141.4930 C   0  0  0  0  0  2  0  0  0  0  0  0
  189.2400  176.8180  142.7890 C   0  0  0  0  0  2  0  0  0  0  0  0
  190.1830  177.7820  143.4770 C   0  0  0  0  0  2  0  0  0  0  0  0
  189.7290  178.0030  144.9060 C   0  0  1  0  0  3  0  0  0  0  0  0
  190.8460  177.1510  146.6720 C   0  0  0  0  0  0  0  0  0  0  0  0
  189.6070  176.6380  147.0470 O   0  0  0  0  0  0  0  0  0  0  0  0
  188.4710  177.2870  145.1370 C   0  0  1  0  0  3  0  0  0  0  0  0
  191.7290  176.3380  147.6300 C   0  0  0  0  0  2  0  0  0  0  0  0
  189.8040  176.6640  145.6660 C   0  0  1  0  0  0  0  0  0  0  0  0
  191.9440  176.1840  146.1920 C   0  0  0  0  0  2  0  0  0  0  0  0
  187.6360  178.0960  146.1310 C   0  0  0  0  0  2  0  0  0  0  0  0
  186.1580  177.7380  146.0220 C   0  0  0  0  0  2  0  0  0  0  0  0
  185.6040  179.4610  141.6100 O   0  0  0  0  0  0  0  0  0  0  0  0
  183.5670  179.1490  142.7680 C   0  0  0  0  0  2  0  0  0  0  0  0
  185.4500  178.6060  144.9930 C   0  0  1  0  0  3  0  0  0  0  0  0
  185.8260  178.1770  143.5750 C   0  0  0  0  0  2  0  0  0  0  0  0
  183.2370  179.4790  144.2220 C   0  0  0  0  0  2  0  0  0  0  0  0
  185.0490  178.9880  142.5860 C   0  0  0  0  0  0  0  0  0  0  0  0
  183.9350  178.5180  145.1840 C   0  0  0  0  0  2  0  0  0  0  0  0
  1 24  1  0  0  0  0
  2  6  1  0  0  0  0
  3  8  1  0  0  0  0
  4  3  1  6  0  0  0
  4  5  1  0  0  0  0
  4  7  1  0  0  0  0
  5 12  1  1  0  0  0
  5  7  1  0  0  0  0
  6 10  1  0  0  0  0
  6  1  1  1  0  0  0
  7 10  1  1  0  0  0
  8  2  1  0  0  0  0
  9  8  2  0  0  0  0
 12 11  1  6  0  0  0
 12 13  1  0  0  0  0
 13 14  1  0  0  0  0
 15 14  1  0  0  0  0
 16 15  1  1  0  0  0
 16 19  1  0  0  0  0
 16 17  1  0  0  0  0
 17 18  1  0  0  0  0
 20 19  1  0  0  0  0
 21 22  1  0  0  0  0
 23 21  1  0  0  0  0
 23 22  1  0  0  0  0
 23 20  1  0  0  0  0
 24 26  1  0  0  0  0
 26 25  1  6  0  0  0
 26 27  1  0  0  0  0
 27 28  1  0  0  0  0
 28 29  1  0  0  0  0
 30 29  1  6  0  0  0
 30 33  1  0  0  0  0
 30 35  1  0  0  0  0
 31 32  1  0  0  0  0
 31 34  1  0  0  0  0
 33 35  1  0  0  0  0
 33 37  1  1  0  0  0
 35 31  1  0  0  0  0
 35 32  1  1  0  0  0
 36 31  1  0  0  0  0
 36 34  1  0  0  0  0
 38 37  1  0  0  0  0
 39 44  2  0  0  0  0
 40 43  1  0  0  0  0
 41 45  1  0  0  0  0
 41 38  1  1  0  0  0
 42 41  1  0  0  0  0
 43 45  1  0  0  0  0
 44 40  1  0  0  0  0
 44 42  1  0  0  0  0
M  END
>  <MODEL>
4

>  <REMARK>
 VINA RESULT:      -7.2      1.208      1.972
  Name = 
  19 active torsions:
  status: ('A' for Active; 'I' for Inactive)
    1  A    between atoms: C_2  and  O_12
    2  A    between atoms: C_2  and  C_14
    3  A    between atoms: C_2  and  C_15
    4  A    between atoms: C_4  and  C_35
    5  A    between atoms: C_5  and  C_11
    6  A    between atoms: C_5  and  C_38
    7  A    between atoms: O_6  and  C_26
    8  A    between atoms: O_6  and  C_38
    9  A    between atoms: O_9  and  C_14
   10  A    between atoms: O_9  and  C_44
   11  A    between atoms: C_11  and  C_34
   12  A    between atoms: O_12  and  C_30
   13  A    between atoms: C_13  and  C_23
   14  A    between atoms: C_13  and  C_44
   15  A    between atoms: C_22  and  C_31
   16  A    between atoms: C_29  and  C_31
   17  A    between atoms: C_29  and  C_32
   18  A    between atoms: C_30  and  C_45
   19  A    between atoms: C_34  and  C_35
                            x       y       z     vdW  Elec       q    Type
                         _______ _______ _______ _____ _____    ______ ____

>  <TORSDO>
F 19

$$$$
=
 OpenBabel11062417233D

 45 51  0  0  1  0  0  0  0  0999 V2000
  188.9290  177.2330  139.1010 O   0  0  0  0  0  0  0  0  0  0  0  0
  189.9740  176.9590  136.8960 C   0  0  0  0  0  2  0  0  0  0  0  0
  188.7070  174.3750  136.2360 S   0  0  0  0  0  0  0  0  0  0  0  0
  187.6140  175.7590  135.8530 C   0  0  1  0  0  3  0  0  0  0  0  0
  186.1530  175.7170  136.2600 C   0  0  1  0  0  3  0  0  0  0  0  0
  188.8860  177.6560  137.7660 C   0  0  1  0  0  3  0  0  0  0  0  0
  187.2100  176.2340  137.2340 C   0  0  2  0  0  3  0  0  0  0  0  0
  189.9910  175.4370  136.9840 C   0  0  0  0  0  0  0  0  0  0  0  0
  191.1640  174.8030  137.5100 S   0  0  0  0  0  0  0  0  0  0  0  0
  187.5670  177.5870  137.2360 O   0  0  0  0  0  0  0  0  0  0  0  0
  185.9080  177.4270  134.5940 F   0  0  0  0  0  0  0  0  0  0  0  0
  185.2710  176.8380  135.6720 C   0  0  1  0  0  3  0  0  0  0  0  0
  183.8450  176.4470  135.2870 C   0  0  0  0  0  2  0  0  0  0  0  0
  182.9900  176.5410  136.3930 O   0  0  0  0  0  0  0  0  0  0  0  0
  183.2930  177.7620  137.0050 C   0  0  0  0  0  2  0  0  0  0  0  0
  182.7720  177.8220  138.4380 C   0  0  1  0  0  3  0  0  0  0  0  0
  183.0540  179.1820  139.0610 C   0  0  0  0  0  2  0  0  0  0  0  0
  181.8440  180.0800  138.9440 C   0  0  0  0  0  1  0  0  0  0  0  0
  181.3990  177.5540  138.4610 O   0  0  0  0  0  0  0  0  0  0  0  0
  181.2540  176.4900  139.3530 C   0  0  0  0  0  2  0  0  0  0  0  0
  179.5660  176.5690  141.1580 C   0  0  0  0  0  2  0  0  0  0  0  0
  179.1990  177.6220  140.1370 C   0  0  0  0  0  2  0  0  0  0  0  0
  179.7850  176.3010  139.6820 C   0  0  0  0  0  3  0  0  0  0  0  0
  188.3520  178.2730  139.8310 C   0  0  0  0  0  2  0  0  0  0  0  0
  189.2520  176.9180  141.5590 O   0  0  0  0  0  1  0  0  0  0  0  0
  188.8190  178.2110  141.2740 C   0  0  2  0  0  3  0  0  0  0  0  0
  187.6740  178.5620  142.2070 C   0  0  0  0  0  2  0  0  0  0  0  0
  186.3520  178.3700  141.4940 C   0  0  0  0  0  2  0  0  0  0  0  0
  185.3140  179.2830  142.1090 C   0  0  0  0  0  2  0  0  0  0  0  0
  184.7870  178.6640  143.3890 C   0  0  1  0  0  3  0  0  0  0  0  0
  182.5810  178.5220  143.8400 C   0  0  0  0  0  0  0  0  0  0  0  0
  182.9180  179.1350  145.0450 O   0  0  0  0  0  0  0  0  0  0  0  0
  185.1410  179.5170  144.5270 C   0  0  1  0  0  3  0  0  0  0  0  0
  181.0570  178.6980  143.9140 C   0  0  0  0  0  2  0  0  0  0  0  0
  183.6830  179.5730  143.9640 C   0  0  1  0  0  0  0  0  0  0  0  0
  181.7710  179.3150  142.7970 C   0  0  0  0  0  2  0  0  0  0  0  0
  185.3870  178.6160  145.7400 C   0  0  0  0  0  2  0  0  0  0  0  0
  186.3160  177.4610  145.3820 C   0  0  0  0  0  2  0  0  0  0  0  0
  190.8550  176.8920  146.7310 O   0  0  0  0  0  0  0  0  0  0  0  0
  189.5610  178.1450  148.2620 C   0  0  0  0  0  2  0  0  0  0  0  0
  187.3950  177.2690  146.4380 C   0  0  1  0  0  3  0  0  0  0  0  0
  188.7750  177.5830  145.8610 C   0  0  0  0  0  2  0  0  0  0  0  0
  188.1370  177.8810  148.7450 C   0  0  0  0  0  2  0  0  0  0  0  0
  189.8040  177.4720  146.9420 C   0  0  0  0  0  0  0  0  0  0  0  0
  187.1140  178.1630  147.6450 C   0  0  0  0  0  2  0  0  0  0  0  0
  1 24  1  0  0  0  0
  2  8  1  0  0  0  0
  2  6  1  0  0  0  0
  3  8  1  0  0  0  0
  4  3  1  1  0  0  0
  4  5  1  0  0  0  0
  4  7  1  0  0  0  0
  5 12  1  6  0  0  0
  5  7  1  0  0  0  0
  6  1  1  1  0  0  0
  7 10  1  6  0  0  0
  8  9  2  0  0  0  0
 10  6  1  0  0  0  0
 12 11  1  6  0  0  0
 13 12  1  0  0  0  0
 13 14  1  0  0  0  0
 14 15  1  0  0  0  0
 16 15  1  6  0  0  0
 16 19  1  0  0  0  0
 16 17  1  0  0  0  0
 18 17  1  0  0  0  0
 19 20  1  0  0  0  0
 20 23  1  0  0  0  0
 22 21  1  0  0  0  0
 23 22  1  0  0  0  0
 23 21  1  0  0  0  0
 24 26  1  0  0  0  0
 26 25  1  1  0  0  0
 26 27  1  0  0  0  0
 28 29  1  0  0  0  0
 28 27  1  0  0  0  0
 30 29  1  6  0  0  0
 30 35  1  0  0  0  0
 30 33  1  0  0  0  0
 31 34  1  0  0  0  0
 31 35  1  0  0  0  0
 31 32  1  0  0  0  0
 33 37  1  1  0  0  0
 35 33  1  0  0  0  0
 35 32  1  1  0  0  0
 36 31  1  0  0  0  0
 36 34  1  0  0  0  0
 38 37  1  0  0  0  0
 39 44  2  0  0  0  0
 40 43  1  0  0  0  0
 41 38  1  6  0  0  0
 41 45  1  0  0  0  0
 42 41  1  0  0  0  0
 42 44  1  0  0  0  0
 44 40  1  0  0  0  0
 45 43  1  0  0  0  0
M  END
>  <MODEL>
5

>  <REMARK>
 VINA RESULT:      -7.1      1.442      4.309
  Name = 
  19 active torsions:
  status: ('A' for Active; 'I' for Inactive)
    1  A    between atoms: C_2  and  O_12
    2  A    between atoms: C_2  and  C_14
    3  A    between atoms: C_2  and  C_15
    4  A    between atoms: C_4  and  C_35
    5  A    between atoms: C_5  and  C_11
    6  A    between atoms: C_5  and  C_38
    7  A    between atoms: O_6  and  C_26
    8  A    between atoms: O_6  and  C_38
    9  A    between atoms: O_9  and  C_14
   10  A    between atoms: O_9  and  C_44
   11  A    between atoms: C_11  and  C_34
   12  A    between atoms: O_12  and  C_30
   13  A    between atoms: C_13  and  C_23
   14  A    between atoms: C_13  and  C_44
   15  A    between atoms: C_22  and  C_31
   16  A    between atoms: C_29  and  C_31
   17  A    between atoms: C_29  and  C_32
   18  A    between atoms: C_30  and  C_45
   19  A    between atoms: C_34  and  C_35
                            x       y       z     vdW  Elec       q    Type
                         _______ _______ _______ _____ _____    ______ ____

>  <TORSDO>
F 19

$$$$
=
 OpenBabel11062417233D

 45 51  0  0  1  0  0  0  0  0999 V2000
  188.9030  176.8320  140.1380 O   0  0  0  0  0  0  0  0  0  0  0  0
  190.1370  178.0740  138.4150 C   0  0  0  0  0  2  0  0  0  0  0  0
  190.0980  175.9480  136.3670 S   0  0  0  0  0  0  0  0  0  0  0  0
  188.5670  176.9020  136.3520 C   0  0  1  0  0  3  0  0  0  0  0  0
  187.2250  176.1970  136.2840 C   0  0  1  0  0  3  0  0  0  0  0  0
  188.7950  177.8410  139.1710 C   0  0  1  0  0  3  0  0  0  0  0  0
  187.8970  176.4460  137.6320 C   0  0  2  0  0  3  0  0  0  0  0  0
  190.7700  176.8190  137.8250 C   0  0  0  0  0  0  0  0  0  0  0  0
  192.0550  176.4150  138.3140 S   0  0  0  0  0  0  0  0  0  0  0  0
  187.6660  177.6390  138.3280 O   0  0  0  0  0  0  0  0  0  0  0  0
  186.3730  178.1750  135.2230 F   0  0  0  0  0  0  0  0  0  0  0  0
  186.0090  177.1150  136.0350 C   0  0  1  0  0  3  0  0  0  0  0  0
  184.7540  176.4400  135.4820 C   0  0  0  0  0  2  0  0  0  0  0  0
  183.6000  177.0340  136.0090 O   0  0  0  0  0  0  0  0  0  0  0  0
  183.1390  176.1590  136.9970 C   0  0  0  0  0  2  0  0  0  0  0  0
  182.2030  176.8560  137.9800 C   0  0  1  0  0  3  0  0  0  0  0  0
  182.0560  176.0440  139.2590 C   0  0  0  0  0  2  0  0  0  0  0  0
  180.6960  176.2710  139.8780 C   0  0  0  0  0  1  0  0  0  0  0  0
  182.6820  178.1390  138.2720 O   0  0  0  0  0  0  0  0  0  0  0  0
  181.6310  178.9980  137.9490 C   0  0  0  0  0  2  0  0  0  0  0  0
  181.5540  181.4510  138.2520 C   0  0  0  0  0  2  0  0  0  0  0  0
  180.2620  180.8790  138.7890 C   0  0  0  0  0  2  0  0  0  0  0  0
  181.5580  180.1160  138.9720 C   0  0  0  0  0  3  0  0  0  0  0  0
  189.3640  177.4770  141.2860 C   0  0  0  0  0  2  0  0  0  0  0  0
  190.3190  175.6660  142.4860 O   0  0  0  0  0  1  0  0  0  0  0  0
  190.6420  176.8160  141.7700 C   0  0  2  0  0  3  0  0  0  0  0  0
  191.4060  177.7630  142.6780 C   0  0  0  0  0  2  0  0  0  0  0  0
  190.4430  178.7150  143.3550 C   0  0  0  0  0  2  0  0  0  0  0  0
  190.3780  178.3960  144.8330 C   0  0  0  0  0  2  0  0  0  0  0  0
  188.9380  178.1450  145.2350 C   0  0  1  0  0  3  0  0  0  0  0  0
  188.2760  178.1220  147.3920 C   0  0  0  0  0  0  0  0  0  0  0  0
  187.7190  176.8850  147.0750 O   0  0  0  0  0  0  0  0  0  0  0  0
  188.5790  176.7570  144.9300 C   0  0  1  0  0  3  0  0  0  0  0  0
  188.1710  178.0330  148.9220 C   0  0  0  0  0  2  0  0  0  0  0  0
  188.9160  177.1450  146.4070 C   0  0  1  0  0  0  0  0  0  0  0  0
  189.4990  178.1750  148.3270 C   0  0  0  0  0  2  0  0  0  0  0  0
  187.1010  176.7220  144.5370 C   0  0  0  0  0  2  0  0  0  0  0  0
  186.6590  178.0600  143.9540 C   0  0  0  0  0  2  0  0  0  0  0  0
  181.9500  178.6510  144.4210 O   0  0  0  0  0  0  0  0  0  0  0  0
  182.7490  179.0920  142.2400 C   0  0  0  0  0  2  0  0  0  0  0  0
  185.2330  177.9930  143.4280 C   0  0  1  0  0  3  0  0  0  0  0  0
  184.2980  178.8320  144.2980 C   0  0  0  0  0  2  0  0  0  0  0  0
  183.7720  178.3050  141.4230 C   0  0  0  0  0  2  0  0  0  0  0  0
  182.9230  178.8200  143.7070 C   0  0  0  0  0  0  0  0  0  0  0  0
  185.1840  178.4820  141.9800 C   0  0  0  0  0  2  0  0  0  0  0  0
  1 24  1  0  0  0  0
  2  6  1  0  0  0  0
  3  8  1  0  0  0  0
  4  3  1  6  0  0  0
  4  7  1  0  0  0  0
  5 12  1  1  0  0  0
  5  4  1  0  0  0  0
  5  7  1  0  0  0  0
  6  1  1  1  0  0  0
  7 10  1  1  0  0  0
  8  9  2  0  0  0  0
  8  2  1  0  0  0  0
 10  6  1  0  0  0  0
 12 11  1  6  0  0  0
 13 14  1  0  0  0  0
 13 12  1  0  0  0  0
 14 15  1  0  0  0  0
 16 15  1  6  0  0  0
 16 19  1  0  0  0  0
 16 17  1  0  0  0  0
 17 18  1  0  0  0  0
 20 19  1  0  0  0  0
 20 23  1  0  0  0  0
 21 22  1  0  0  0  0
 21 23  1  0  0  0  0
 22 23  1  0  0  0  0
 24 26  1  0  0  0  0
 26 25  1  1  0  0  0
 26 27  1  0  0  0  0
 27 28  1  0  0  0  0
 28 29  1  0  0  0  0
 30 29  1  6  0  0  0
 30 35  1  0  0  0  0
 31 36  1  0  0  0  0
 31 34  1  0  0  0  0
 32 31  1  0  0  0  0
 33 37  1  1  0  0  0
 33 30  1  0  0  0  0
 33 35  1  0  0  0  0
 35 32  1  6  0  0  0
 35 31  1  0  0  0  0
 36 34  1  0  0  0  0
 38 37  1  0  0  0  0
 40 44  1  0  0  0  0
 41 38  1  1  0  0  0
 41 42  1  0  0  0  0
 43 45  1  0  0  0  0
 43 40  1  0  0  0  0
 44 42  1  0  0  0  0
 44 39  2  0  0  0  0
 45 41  1  0  0  0  0
M  END
>  <MODEL>
6

>  <REMARK>
 VINA RESULT:      -7.1      1.803      2.643
  Name = 
  19 active torsions:
  status: ('A' for Active; 'I' for Inactive)
    1  A    between atoms: C_2  and  O_12
    2  A    between atoms: C_2  and  C_14
    3  A    between atoms: C_2  and  C_15
    4  A    between atoms: C_4  and  C_35
    5  A    between atoms: C_5  and  C_11
    6  A    between atoms: C_5  and  C_38
    7  A    between atoms: O_6  and  C_26
    8  A    between atoms: O_6  and  C_38
    9  A    between atoms: O_9  and  C_14
   10  A    between atoms: O_9  and  C_44
   11  A    between atoms: C_11  and  C_34
   12  A    between atoms: O_12  and  C_30
   13  A    between atoms: C_13  and  C_23
   14  A    between atoms: C_13  and  C_44
   15  A    between atoms: C_22  and  C_31
   16  A    between atoms: C_29  and  C_31
   17  A    between atoms: C_29  and  C_32
   18  A    between atoms: C_30  and  C_45
   19  A    between atoms: C_34  and  C_35
                            x       y       z     vdW  Elec       q    Type
                         _______ _______ _______ _____ _____    ______ ____

>  <TORSDO>
F 19

$$$$
=
 OpenBabel11062417233D

 45 51  0  0  1  0  0  0  0  0999 V2000
  188.9360  177.4960  136.6500 O   0  0  0  0  0  0  0  0  0  0  0  0
  189.9840  175.3200  137.0960 C   0  0  0  0  0  2  0  0  0  0  0  0
  192.4810  176.3760  138.2640 S   0  0  0  0  0  0  0  0  0  0  0  0
  191.1620  176.3030  139.4930 C   0  0  1  0  0  3  0  0  0  0  0  0
  190.9080  177.4800  140.4160 C   0  0  1  0  0  3  0  0  0  0  0  0
  188.9350  176.3920  137.5140 C   0  0  1  0  0  3  0  0  0  0  0  0
  190.2470  177.4240  139.0410 C   0  0  2  0  0  3  0  0  0  0  0  0
  191.3990  175.8490  136.8910 C   0  0  0  0  0  0  0  0  0  0  0  0
  191.9760  175.7480  135.5830 S   0  0  0  0  0  0  0  0  0  0  0  0
  189.0080  176.7950  138.8780 O   0  0  0  0  0  0  0  0  0  0  0  0
  190.1780  175.9730  142.1360 F   0  0  0  0  0  0  0  0  0  0  0  0
  189.9230  177.2110  141.5730 C   0  0  1  0  0  3  0  0  0  0  0  0
  189.8540  178.2780  142.6650 C   0  0  0  0  0  2  0  0  0  0  0  0
  190.9600  178.1850  143.5200 O   0  0  0  0  0  0  0  0  0  0  0  0
  190.4400  178.2040  144.8180 C   0  0  0  0  0  2  0  0  0  0  0  0
  190.3710  176.8040  145.4210 C   0  0  1  0  0  3  0  0  0  0  0  0
  191.7320  176.1240  145.3700 C   0  0  0  0  0  2  0  0  0  0  0  0
  192.1540  175.6800  146.7520 C   0  0  0  0  0  1  0  0  0  0  0  0
  189.9120  176.8710  146.7410 O   0  0  0  0  0  0  0  0  0  0  0  0
  188.5440  177.1260  146.6340 C   0  0  0  0  0  2  0  0  0  0  0  0
  188.7030  178.2530  148.8300 C   0  0  0  0  0  2  0  0  0  0  0  0
  187.3680  178.6140  148.2210 C   0  0  0  0  0  2  0  0  0  0  0  0
  187.9370  177.2250  148.0210 C   0  0  0  0  0  3  0  0  0  0  0  0
  188.0430  177.1620  135.6320 C   0  0  0  0  0  2  0  0  0  0  0  0
  186.9300  178.8940  136.8120 O   0  0  0  0  0  1  0  0  0  0  0  0
  186.7790  177.9920  135.7620 C   0  0  2  0  0  3  0  0  0  0  0  0
  185.5920  177.0920  136.0550 C   0  0  0  0  0  2  0  0  0  0  0  0
  185.1350  177.2920  137.4850 C   0  0  0  0  0  2  0  0  0  0  0  0
  183.6720  176.9250  137.5990 C   0  0  0  0  0  2  0  0  0  0  0  0
  183.2090  177.1260  139.0290 C   0  0  1  0  0  3  0  0  0  0  0  0
  181.3450  176.1470  139.8410 C   0  0  0  0  0  0  0  0  0  0  0  0
  180.9930  177.4350  140.2350 O   0  0  0  0  0  0  0  0  0  0  0  0
  182.7680  178.5120  139.2110 C   0  0  1  0  0  3  0  0  0  0  0  0
  179.9830  175.4660  140.0470 C   0  0  0  0  0  2  0  0  0  0  0  0
  181.6910  177.3930  139.0280 C   0  0  1  0  0  0  0  0  0  0  0  0
  180.5580  175.4710  138.7020 C   0  0  0  0  0  2  0  0  0  0  0  0
  183.1000  178.9340  140.6450 C   0  0  0  0  0  2  0  0  0  0  0  0
  184.6080  179.0020  140.8580 C   0  0  0  0  0  2  0  0  0  0  0  0
  183.4300  179.2300  145.4730 O   0  0  0  0  0  0  0  0  0  0  0  0
  185.3630  177.9370  145.0510 C   0  0  0  0  0  2  0  0  0  0  0  0
  184.9580  179.0590  142.3370 C   0  0  1  0  0  3  0  0  0  0  0  0
  183.7390  178.7160  143.1930 C   0  0  0  0  0  2  0  0  0  0  0  0
  186.5230  178.2390  144.1060 C   0  0  0  0  0  2  0  0  0  0  0  0
  184.1340  178.6930  144.6360 C   0  0  0  0  0  0  0  0  0  0  0  0
  186.1030  178.0930  142.6430 C   0  0  0  0  0  2  0  0  0  0  0  0
  2  6  1  0  0  0  0
  4  3  1  6  0  0  0
  4  5  1  0  0  0  0
  5 12  1  1  0  0  0
  6  1  1  6  0  0  0
  6 10  1  0  0  0  0
  7 10  1  1  0  0  0
  7  4  1  0  0  0  0
  7  5  1  0  0  0  0
  8  2  1  0  0  0  0
  8  3  1  0  0  0  0
  9  8  2  0  0  0  0
 12 11  1  1  0  0  0
 12 13  1  0  0  0  0
 13 14  1  0  0  0  0
 14 15  1  0  0  0  0
 16 15  1  1  0  0  0
 16 19  1  0  0  0  0
 17 16  1  0  0  0  0
 17 18  1  0  0  0  0
 20 19  1  0  0  0  0
 20 23  1  0  0  0  0
 22 21  1  0  0  0  0
 23 22  1  0  0  0  0
 23 21  1  0  0  0  0
 24 26  1  0  0  0  0
 24  1  1  0  0  0  0
 26 27  1  0  0  0  0
 26 25  1  1  0  0  0
 27 28  1  0  0  0  0
 28 29  1  0  0  0  0
 30 29  1  6  0  0  0
 30 33  1  0  0  0  0
 31 34  1  0  0  0  0
 31 32  1  0  0  0  0
 33 37  1  1  0  0  0
 35 30  1  0  0  0  0
 35 33  1  0  0  0  0
 35 31  1  0  0  0  0
 35 32  1  1  0  0  0
 36 31  1  0  0  0  0
 36 34  1  0  0  0  0
 37 38  1  0  0  0  0
 41 38  1  6  0  0  0
 41 45  1  0  0  0  0
 41 42  1  0  0  0  0
 42 44  1  0  0  0  0
 43 40  1  0  0  0  0
 44 40  1  0  0  0  0
 44 39  2  0  0  0  0
 45 43  1  0  0  0  0
M  END
>  <MODEL>
7

>  <REMARK>
 VINA RESULT:      -7.0      2.203      7.891
  Name = 
  19 active torsions:
  status: ('A' for Active; 'I' for Inactive)
    1  A    between atoms: C_2  and  O_12
    2  A    between atoms: C_2  and  C_14
    3  A    between atoms: C_2  and  C_15
    4  A    between atoms: C_4  and  C_35
    5  A    between atoms: C_5  and  C_11
    6  A    between atoms: C_5  and  C_38
    7  A    between atoms: O_6  and  C_26
    8  A    between atoms: O_6  and  C_38
    9  A    between atoms: O_9  and  C_14
   10  A    between atoms: O_9  and  C_44
   11  A    between atoms: C_11  and  C_34
   12  A    between atoms: O_12  and  C_30
   13  A    between atoms: C_13  and  C_23
   14  A    between atoms: C_13  and  C_44
   15  A    between atoms: C_22  and  C_31
   16  A    between atoms: C_29  and  C_31
   17  A    between atoms: C_29  and  C_32
   18  A    between atoms: C_30  and  C_45
   19  A    between atoms: C_34  and  C_35
                            x       y       z     vdW  Elec       q    Type
                         _______ _______ _______ _____ _____    ______ ____

>  <TORSDO>
F 19

$$$$
=
 OpenBabel11062417233D

 45 51  0  0  1  0  0  0  0  0999 V2000
  189.0430  177.5050  138.7610 O   0  0  0  0  0  0  0  0  0  0  0  0
  189.4040  177.8470  136.3560 C   0  0  0  0  0  2  0  0  0  0  0  0
  188.2280  175.2900  135.4660 S   0  0  0  0  0  0  0  0  0  0  0  0
  186.9550  176.5390  135.7340 C   0  0  1  0  0  3  0  0  0  0  0  0
  185.6900  176.1940  136.4990 C   0  0  1  0  0  3  0  0  0  0  0  0
  188.5690  178.1800  137.6270 C   0  0  1  0  0  3  0  0  0  0  0  0
  186.9410  176.6570  137.2450 C   0  0  2  0  0  3  0  0  0  0  0  0
  189.5790  176.3600  136.0700 C   0  0  0  0  0  0  0  0  0  0  0  0
  190.9050  175.8180  136.0920 S   0  0  0  0  0  0  0  0  0  0  0  0
  187.1630  178.0200  137.4730 O   0  0  0  0  0  0  0  0  0  0  0  0
  183.9770  177.2730  135.2110 F   0  0  0  0  0  0  0  0  0  0  0  0
  184.5800  177.2640  136.4560 C   0  0  1  0  0  3  0  0  0  0  0  0
  183.5170  177.1810  137.5520 C   0  0  0  0  0  2  0  0  0  0  0  0
  182.2410  177.0340  136.9940 O   0  0  0  0  0  0  0  0  0  0  0  0
  181.4290  177.9640  137.6520 C   0  0  0  0  0  2  0  0  0  0  0  0
  181.4390  179.3200  136.9530 C   0  0  1  0  0  3  0  0  0  0  0  0
  181.1050  179.1710  135.4750 C   0  0  0  0  0  2  0  0  0  0  0  0
  179.6170  178.9860  135.2840 C   0  0  0  0  0  1  0  0  0  0  0  0
  180.5290  180.1850  137.5710 O   0  0  0  0  0  0  0  0  0  0  0  0
  181.3080  181.2250  138.0800 C   0  0  0  0  0  2  0  0  0  0  0  0
  180.8090  183.1180  136.5700 C   0  0  0  0  0  2  0  0  0  0  0  0
  179.5090  182.4040  136.8610 C   0  0  0  0  0  2  0  0  0  0  0  0
  180.5560  182.5350  137.9470 C   0  0  0  0  0  3  0  0  0  0  0  0
  188.4600  178.1600  139.8450 C   0  0  0  0  0  2  0  0  0  0  0  0
  189.7180  176.6080  141.1260 O   0  0  0  0  0  1  0  0  0  0  0  0
  189.2950  177.9350  141.0930 C   0  0  2  0  0  3  0  0  0  0  0  0
  188.4650  178.2170  142.3320 C   0  0  0  0  0  2  0  0  0  0  0  0
  187.8530  176.9310  142.8460 C   0  0  0  0  0  2  0  0  0  0  0  0
  188.2000  176.7600  144.3080 C   0  0  0  0  0  2  0  0  0  0  0  0
  187.6550  177.9320  145.1000 C   0  0  1  0  0  3  0  0  0  0  0  0
  188.2450  178.3170  147.2440 C   0  0  0  0  0  0  0  0  0  0  0  0
  186.8730  178.3590  147.4810 O   0  0  0  0  0  0  0  0  0  0  0  0
  186.2240  177.7310  145.3490 C   0  0  1  0  0  3  0  0  0  0  0  0
  188.7250  178.2300  148.7000 C   0  0  0  0  0  2  0  0  0  0  0  0
  187.2410  177.4370  146.5010 C   0  0  1  0  0  0  0  0  0  0  0  0
  189.0650  177.1350  147.7930 C   0  0  0  0  0  2  0  0  0  0  0  0
  185.5430  179.1020  145.3520 C   0  0  0  0  0  2  0  0  0  0  0  0
  184.0570  178.9740  145.0360 C   0  0  0  0  0  2  0  0  0  0  0  0
  181.2560  178.1320  141.2700 O   0  0  0  0  0  0  0  0  0  0  0  0
  183.3770  179.0030  140.6970 C   0  0  0  0  0  2  0  0  0  0  0  0
  183.8310  178.5520  143.5920 C   0  0  1  0  0  3  0  0  0  0  0  0
  182.4480  178.9930  143.1130 C   0  0  0  0  0  2  0  0  0  0  0  0
  184.7440  178.6320  141.2660 C   0  0  0  0  0  2  0  0  0  0  0  0
  182.2870  178.6450  141.6660 C   0  0  0  0  0  0  0  0  0  0  0  0
  184.9130  179.1510  142.6940 C   0  0  0  0  0  2  0  0  0  0  0  0
  1 24  1  0  0  0  0
  2  6  1  0  0  0  0
  3  8  1  0  0  0  0
  4  3  1  1  0  0  0
  4  5  1  0  0  0  0
  4  7  1  0  0  0  0
  5 12  1  6  0  0  0
  5  7  1  0  0  0  0
  6  1  1  1  0  0  0
  7 10  1  6  0  0  0
  8  9  2  0  0  0  0
  8  2  1  0  0  0  0
 10  6  1  0  0  0  0
 12 11  1  6  0  0  0
 12 13  1  0  0  0  0
 14 13  1  0  0  0  0
 14 15  1  0  0  0  0
 16 17  1  6  0  0  0
 16 19  1  0  0  0  0
 16 15  1  0  0  0  0
 18 17  1  0  0  0  0
 19 20  1  0  0  0  0
 21 22  1  0  0  0  0
 21 23  1  0  0  0  0
 22 23  1  0  0  0  0
 23 20  1  0  0  0  0
 24 26  1  0  0  0  0
 26 25  1  1  0  0  0
 26 27  1  0  0  0  0
 27 28  1  0  0  0  0
 28 29  1  0  0  0  0
 30 29  1  6  0  0  0
 30 33  1  0  0  0  0
 30 35  1  0  0  0  0
 31 32  1  0  0  0  0
 31 36  1  0  0  0  0
 31 34  1  0  0  0  0
 33 37  1  1  0  0  0
 33 35  1  0  0  0  0
 35 31  1  0  0  0  0
 35 32  1  6  0  0  0
 36 34  1  0  0  0  0
 38 37  1  0  0  0  0
 39 44  2  0  0  0  0
 40 43  1  0  0  0  0
 40 44  1  0  0  0  0
 41 38  1  1  0  0  0
 42 41  1  0  0  0  0
 43 45  1  0  0  0  0
 44 42  1  0  0  0  0
 45 41  1  0  0  0  0
M  END
>  <MODEL>
8

>  <REMARK>
 VINA RESULT:      -6.9      1.844      3.001
  Name = 
  19 active torsions:
  status: ('A' for Active; 'I' for Inactive)
    1  A    between atoms: C_2  and  O_12
    2  A    between atoms: C_2  and  C_14
    3  A    between atoms: C_2  and  C_15
    4  A    between atoms: C_4  and  C_35
    5  A    between atoms: C_5  and  C_11
    6  A    between atoms: C_5  and  C_38
    7  A    between atoms: O_6  and  C_26
    8  A    between atoms: O_6  and  C_38
    9  A    between atoms: O_9  and  C_14
   10  A    between atoms: O_9  and  C_44
   11  A    between atoms: C_11  and  C_34
   12  A    between atoms: O_12  and  C_30
   13  A    between atoms: C_13  and  C_23
   14  A    between atoms: C_13  and  C_44
   15  A    between atoms: C_22  and  C_31
   16  A    between atoms: C_29  and  C_31
   17  A    between atoms: C_29  and  C_32
   18  A    between atoms: C_30  and  C_45
   19  A    between atoms: C_34  and  C_35
                            x       y       z     vdW  Elec       q    Type
                         _______ _______ _______ _____ _____    ______ ____

>  <TORSDO>
F 19

$$$$
=
 OpenBabel11062417233D

 45 51  0  0  1  0  0  0  0  0999 V2000
  184.9810  177.8510  138.7170 O   0  0  0  0  0  0  0  0  0  0  0  0
  183.4360  179.7210  139.1010 C   0  0  0  0  0  2  0  0  0  0  0  0
  181.7470  178.3650  141.1060 S   0  0  0  0  0  0  0  0  0  0  0  0
  183.2260  179.0690  141.8630 C   0  0  1  0  0  3  0  0  0  0  0  0
  184.0470  178.2550  142.8450 C   0  0  1  0  0  3  0  0  0  0  0  0
  184.8370  179.0910  139.3560 C   0  0  1  0  0  3  0  0  0  0  0  0
  184.3140  178.1500  141.3450 C   0  0  2  0  0  3  0  0  0  0  0  0
  182.2530  178.8100  139.4090 C   0  0  0  0  0  0  0  0  0  0  0  0
  181.3840  178.4410  138.3310 S   0  0  0  0  0  0  0  0  0  0  0  0
  185.2170  179.0220  140.7250 O   0  0  0  0  0  0  0  0  0  0  0  0
  184.6580  180.2800  143.9790 F   0  0  0  0  0  0  0  0  0  0  0  0
  185.1400  179.0400  143.6010 C   0  0  1  0  0  3  0  0  0  0  0  0
  185.7700  178.3350  144.8020 C   0  0  0  0  0  2  0  0  0  0  0  0
  186.6850  177.3610  144.3810 O   0  0  0  0  0  0  0  0  0  0  0  0
  187.7760  178.0640  143.8600 C   0  0  0  0  0  2  0  0  0  0  0  0
  189.0970  177.3600  144.1530 C   0  0  1  0  0  3  0  0  0  0  0  0
  190.2280  178.3670  144.2990 C   0  0  0  0  0  2  0  0  0  0  0  0
  191.4210  177.9490  143.4690 C   0  0  0  0  0  1  0  0  0  0  0  0
  188.9820  176.5880  145.3150 O   0  0  0  0  0  0  0  0  0  0  0  0
  189.6780  177.3010  146.2910 C   0  0  0  0  0  2  0  0  0  0  0  0
  189.0160  178.2710  148.4680 C   0  0  0  0  0  2  0  0  0  0  0  0
  187.7720  177.7140  147.8130 C   0  0  0  0  0  2  0  0  0  0  0  0
  189.0950  176.9920  147.6570 C   0  0  0  0  0  3  0  0  0  0  0  0
  185.6690  178.1280  137.5360 C   0  0  0  0  0  2  0  0  0  0  0  0
  185.0790  175.8390  137.3220 O   0  0  0  0  0  1  0  0  0  0  0  0
  185.6800  176.8980  136.6460 C   0  0  2  0  0  3  0  0  0  0  0  0
  187.1090  176.5160  136.3040 C   0  0  0  0  0  2  0  0  0  0  0  0
  187.8220  177.6970  135.6800 C   0  0  0  0  0  2  0  0  0  0  0  0
  189.3180  177.5040  135.8090 C   0  0  0  0  0  2  0  0  0  0  0  0
  189.6100  176.5460  136.9470 C   0  0  1  0  0  3  0  0  0  0  0  0
  189.2600  177.0970  139.1070 C   0  0  0  0  0  0  0  0  0  0  0  0
  190.5790  176.6900  139.2920 O   0  0  0  0  0  0  0  0  0  0  0  0
  191.0570  176.3390  137.0550 C   0  0  1  0  0  3  0  0  0  0  0  0
  189.0500  177.8070  140.4530 C   0  0  0  0  0  2  0  0  0  0  0  0
  190.3540  177.3080  138.0620 C   0  0  1  0  0  0  0  0  0  0  0  0
  188.9120  178.5930  139.2270 C   0  0  0  0  0  2  0  0  0  0  0  0
  191.3010  174.9020  137.5220 C   0  0  0  0  0  2  0  0  0  0  0  0
  191.8990  174.0580  136.4020 C   0  0  0  0  0  2  0  0  0  0  0  0
  196.0090  174.8890  138.6730 O   0  0  0  0  0  0  0  0  0  0  0  0
  195.8910  172.7470  137.6800 C   0  0  0  0  0  2  0  0  0  0  0  0
  193.4050  173.9110  136.5610 C   0  0  1  0  0  3  0  0  0  0  0  0
  193.8370  174.2930  137.9770 C   0  0  0  0  0  2  0  0  0  0  0  0
  195.3510  172.3630  136.3050 C   0  0  0  0  0  2  0  0  0  0  0  0
  195.3060  174.0540  138.1310 C   0  0  0  0  0  0  0  0  0  0  0  0
  193.8280  172.4750  136.2530 C   0  0  0  0  0  2  0  0  0  0  0  0
  2  6  1  0  0  0  0
  2  8  1  0  0  0  0
  4  3  1  6  0  0  0
  4  5  1  0  0  0  0
  5 12  1  1  0  0  0
  6  1  1  1  0  0  0
  6 10  1  0  0  0  0
  7 10  1  1  0  0  0
  7  4  1  0  0  0  0
  7  5  1  0  0  0  0
  8  3  1  0  0  0  0
  9  8  2  0  0  0  0
 12 11  1  1  0  0  0
 12 13  1  0  0  0  0
 14 13  1  0  0  0  0
 15 14  1  0  0  0  0
 16 15  1  1  0  0  0
 16 17  1  0  0  0  0
 16 19  1  0  0  0  0
 18 17  1  0  0  0  0
 19 20  1  0  0  0  0
 20 23  1  0  0  0  0
 22 21  1  0  0  0  0
 23 22  1  0  0  0  0
 23 21  1  0  0  0  0
 24  1  1  0  0  0  0
 26 25  1  1  0  0  0
 26 24  1  0  0  0  0
 27 26  1  0  0  0  0
 28 29  1  0  0  0  0
 28 27  1  0  0  0  0
 30 29  1  6  0  0  0
 30 33  1  0  0  0  0
 30 35  1  0  0  0  0
 31 36  1  0  0  0  0
 31 32  1  0  0  0  0
 31 34  1  0  0  0  0
 33 37  1  1  0  0  0
 33 35  1  0  0  0  0
 35 31  1  0  0  0  0
 35 32  1  1  0  0  0
 36 34  1  0  0  0  0
 38 37  1  0  0  0  0
 40 44  1  0  0  0  0
 41 38  1  1  0  0  0
 41 42  1  0  0  0  0
 42 44  1  0  0  0  0
 43 40  1  0  0  0  0
 44 39  2  0  0  0  0
 45 43  1  0  0  0  0
 45 41  1  0  0  0  0
M  END
>  <MODEL>
9

>  <REMARK>
 VINA RESULT:      -6.8      3.415      9.382
  Name = 
  19 active torsions:
  status: ('A' for Active; 'I' for Inactive)
    1  A    between atoms: C_2  and  O_12
    2  A    between atoms: C_2  and  C_14
    3  A    between atoms: C_2  and  C_15
    4  A    between atoms: C_4  and  C_35
    5  A    between atoms: C_5  and  C_11
    6  A    between atoms: C_5  and  C_38
    7  A    between atoms: O_6  and  C_26
    8  A    between atoms: O_6  and  C_38
    9  A    between atoms: O_9  and  C_14
   10  A    between atoms: O_9  and  C_44
   11  A    between atoms: C_11  and  C_34
   12  A    between atoms: O_12  and  C_30
   13  A    between atoms: C_13  and  C_23
   14  A    between atoms: C_13  and  C_44
   15  A    between atoms: C_22  and  C_31
   16  A    between atoms: C_29  and  C_31
   17  A    between atoms: C_29  and  C_32
   18  A    between atoms: C_30  and  C_45
   19  A    between atoms: C_34  and  C_35
                            x       y       z     vdW  Elec       q    Type
                         _______ _______ _______ _____ _____    ______ ____

>  <TORSDO>
F 19

$$$$
