=
 OpenBabel11062414003D

 49 52  0  0  1  0  0  0  0  0999 V2000
  185.3440  178.1370  142.0320 O   0  0  0  0  0  1  0  0  0  0  0  0
  187.2860  177.5890  145.0240 C   0  0  0  0  0  3  0  0  0  0  0  0
  184.5870  178.3650  144.2900 C   0  0  2  0  0  3  0  0  0  0  0  0
  186.3800  178.0120  146.0450 N   0  0  0  0  0  2  0  0  0  0  0  0
  185.0640  178.4580  145.7170 C   0  0  0  0  0  0  0  0  0  0  0  0
  186.9980  177.7380  143.7280 C   0  0  0  0  0  0  0  0  0  0  0  0
  184.2910  178.8310  146.6390 O   0  0  0  0  0  0  0  0  0  0  0  0
  185.7600  178.5100  143.3100 C   0  0  1  0  0  3  0  0  0  0  0  0
  188.0590  177.3240  142.7490 C   0  0  2  0  0  3  0  0  0  0  0  0
  191.1700  177.4090  144.9090 C   0  0  0  0  0  3  0  0  0  0  0  0
  189.3550  176.9090  143.3810 C   0  0  0  0  0  0  0  0  0  0  0  0
  191.7980  176.2090  144.5610 C   0  0  0  0  0  3  0  0  0  0  0  0
  191.2070  175.3570  143.6220 C   0  0  0  0  0  3  0  0  0  0  0  0
  189.9900  175.7070  143.0310 C   0  0  0  0  0  3  0  0  0  0  0  0
  189.9520  177.7590  144.3190 C   0  0  0  0  0  3  0  0  0  0  0  0
  188.1840  178.2110  141.5410 C   0  0  0  0  0  0  0  0  0  0  0  0
  188.2890  179.4240  141.6560 O   0  0  0  0  0  0  0  0  0  0  0  0
  188.1560  177.5940  140.1800 C   0  0  0  0  0  2  0  0  0  0  0  0
  188.9700  178.4200  139.1900 C   0  0  0  0  0  2  0  0  0  0  0  0
  190.8050  176.8430  138.9680 C   0  0  0  0  0  3  0  0  0  0  0  0
  189.8450  177.5470  138.3530 C   0  0  0  0  0  0  0  0  0  0  0  0
  192.6440  174.2780  137.3440 C   0  0  0  0  0  3  0  0  0  0  0  0
  192.9780  176.3670  137.9390 C   0  0  0  0  0  3  0  0  0  0  0  0
  193.5880  175.2930  137.3140 C   0  0  0  0  0  3  0  0  0  0  0  0
  191.5330  174.7280  137.9550 N   0  0  0  0  0  0  0  0  0  0  0  0
  191.7480  175.9810  138.3140 N   0  0  0  0  0  0  0  0  0  0  0  0
  188.3720  176.6320  136.5860 C   0  0  0  0  0  1  0  0  0  0  0  0
  189.5900  177.4880  136.8790 C   0  0  0  0  0  2  0  0  0  0  0  0
  183.5300  179.4160  143.9670 C   0  0  0  0  0  2  0  0  0  0  0  0
  181.3420  179.0270  141.1230 C   0  0  0  0  0  3  0  0  0  0  0  0
  181.8020  178.9080  142.3440 C   0  0  0  0  0  0  0  0  0  0  0  0
  182.2560  178.7660  143.5560 C   0  0  0  0  0  3  0  0  0  0  0  0
  180.2050  178.2050  140.5810 C   0  0  2  0  0  3  0  0  0  0  0  0
  179.0550  178.2220  141.5700 C   0  0  0  0  0  1  0  0  0  0  0  0
  180.5930  176.7610  140.2700 C   0  0  0  0  0  2  0  0  0  0  0  0
  180.2910  176.4140  138.8190 C   0  0  2  0  0  3  0  0  0  0  0  0
  179.6040  175.0650  138.7450 C   0  0  0  0  0  1  0  0  0  0  0  0
  183.4110  175.6400  136.8240 C   0  0  1  0  0  3  0  0  0  0  0  0
  182.3380  175.2280  137.8450 C   0  0  0  0  0  2  0  0  0  0  0  0
  183.4250  177.1890  136.7740 C   0  0  1  0  0  3  0  0  0  0  0  0
  181.5150  176.4050  138.0240 N   0  0  0  0  0  0  0  0  0  0  0  0
  182.1230  177.5180  137.3920 C   0  0  0  0  0  0  0  0  0  0  0  0
  181.6050  178.6670  137.3690 O   0  0  0  0  0  0  0  0  0  0  0  0
  185.4110  174.7290  135.8610 O   0  0  0  0  0  1  0  0  0  0  0  0
  184.7620  174.9610  137.0770 C   0  0  2  0  0  3  0  0  0  0  0  0
  185.7990  172.9440  137.6240 C   0  0  0  0  0  1  0  0  0  0  0  0
  184.5670  173.6960  137.7650 N   0  0  0  0  0  2  0  0  0  0  0  0
  184.4960  177.7880  137.5930 C   0  0  0  0  0  0  0  0  0  0  0  0
  185.3700  178.2780  138.2630 C   0  0  0  0  0  3  0  0  0  0  0  0
  2  4  1  0  0  0  0
  3 29  1  6  0  0  0
  3  5  1  0  0  0  0
  5  4  1  0  0  0  0
  5  7  2  0  0  0  0
  6  2  2  0  0  0  0
  8  1  1  6  0  0  0
  8  6  1  0  0  0  0
  8  3  1  0  0  0  0
  9 16  1  6  0  0  0
  9 11  1  0  0  0  0
  9  6  1  0  0  0  0
 11 15  1  0  0  0  0
 12 10  1  0  0  0  0
 13 12  2  0  0  0  0
 14 11  2  0  0  0  0
 14 13  1  0  0  0  0
 15 10  2  0  0  0  0
 16 17  2  0  0  0  0
 18 16  1  0  0  0  0
 19 18  1  0  0  0  0
 21 20  2  0  0  0  0
 21 19  1  0  0  0  0
 22 25  2  0  0  0  0
 23 26  1  0  0  0  0
 24 22  1  0  0  0  0
 24 23  2  0  0  0  0
 25 26  1  0  0  0  0
 26 20  1  0  0  0  0
 27 28  1  0  0  0  0
 28 21  1  0  0  0  0
 30 31  2  0  0  0  0
 31 32  2  0  0  0  0
 32 29  1  0  0  0  0
 33 30  1  0  0  0  0
 33 34  1  1  0  0  0
 35 33  1  0  0  0  0
 36 37  1  1  0  0  0
 36 35  1  0  0  0  0
 38 45  1  1  0  0  0
 38 39  1  0  0  0  0
 39 41  1  0  0  0  0
 40 38  1  0  0  0  0
 40 42  1  0  0  0  0
 40 48  1  1  0  0  0
 41 36  1  0  0  0  0
 42 41  1  0  0  0  0
 43 42  2  0  0  0  0
 45 44  1  6  0  0  0
 45 47  1  0  0  0  0
 46 47  1  0  0  0  0
 48 49  3  0  0  0  0
M  END
>  <MODEL>
1

>  <REMARK>
 VINA RESULT:      -7.9      0.000      0.000
  Name = 
  17 active torsions:
  status: ('A' for Active; 'I' for Inactive)
    1  A    between atoms: C_4  and  C_17
    2  A    between atoms: C_5  and  C_8
    3  A    between atoms: C_5  and  C_13
    4  A    between atoms: C_5  and  C_31
    5  A    between atoms: C_6  and  C_42
    6  A    between atoms: C_6  and  C_48
    7  A    between atoms: C_7  and  C_26
    8  A    between atoms: C_8  and  C_48
    9  A    between atoms: C_9  and  C_45
   10  A    between atoms: C_11  and  C_41
   11  A    between atoms: C_16  and  N_18
   12  A    between atoms: C_16  and  C_39
   13  A    between atoms: C_26  and  C_39
   14  A    between atoms: C_29  and  N_38
   15  A    between atoms: C_34  and  C_41
   16  A    between atoms: C_37  and  C_42
   17  A    between atoms: N_44  and  C_45
                            x       y       z     vdW  Elec       q    Type
                         _______ _______ _______ _____ _____    ______ ____

>  <TORSDO>
F 17

$$$$
=
 OpenBabel11062414003D

 49 52  0  0  1  0  0  0  0  0999 V2000
  187.4300  177.7960  143.0290 O   0  0  0  0  0  1  0  0  0  0  0  0
  188.4570  177.7020  146.4880 C   0  0  0  0  0  3  0  0  0  0  0  0
  186.0350  178.1290  144.9440 C   0  0  2  0  0  3  0  0  0  0  0  0
  187.2630  178.1110  147.1600 N   0  0  0  0  0  2  0  0  0  0  0  0
  186.0690  178.3880  146.4290 C   0  0  0  0  0  0  0  0  0  0  0  0
  188.5460  177.7130  145.1550 C   0  0  0  0  0  0  0  0  0  0  0  0
  185.0360  178.7530  147.0500 O   0  0  0  0  0  0  0  0  0  0  0  0
  187.4270  178.3150  144.3240 C   0  0  1  0  0  3  0  0  0  0  0  0
  189.8740  177.3330  144.5650 C   0  0  2  0  0  3  0  0  0  0  0  0
  192.4530  174.9460  145.9780 C   0  0  0  0  0  3  0  0  0  0  0  0
  190.8140  176.6760  145.5310 C   0  0  0  0  0  0  0  0  0  0  0  0
  192.5560  175.3800  147.3030 C   0  0  0  0  0  3  0  0  0  0  0  0
  191.7870  176.4620  147.7460 C   0  0  0  0  0  3  0  0  0  0  0  0
  190.9160  177.1060  146.8630 C   0  0  0  0  0  3  0  0  0  0  0  0
  191.5840  175.5910  145.0940 C   0  0  0  0  0  3  0  0  0  0  0  0
  190.4890  178.3750  143.6710 C   0  0  0  0  0  0  0  0  0  0  0  0
  190.5500  179.5460  144.0150 O   0  0  0  0  0  0  0  0  0  0  0  0
  191.0130  177.9670  142.3320 C   0  0  0  0  0  2  0  0  0  0  0  0
  190.2280  176.7840  141.7770 C   0  0  0  0  0  2  0  0  0  0  0  0
  188.8810  177.9500  140.1250 C   0  0  0  0  0  3  0  0  0  0  0  0
  189.8210  177.0250  140.3610 C   0  0  0  0  0  0  0  0  0  0  0  0
  188.1650  179.0660  136.8320 C   0  0  0  0  0  3  0  0  0  0  0  0
  187.1660  177.8610  138.3760 C   0  0  0  0  0  3  0  0  0  0  0  0
  187.0060  178.3490  137.0900 C   0  0  0  0  0  3  0  0  0  0  0  0
  188.9690  179.0050  137.9090 N   0  0  0  0  0  0  0  0  0  0  0  0
  188.3550  178.2850  138.8320 N   0  0  0  0  0  0  0  0  0  0  0  0
  191.8800  176.8050  139.0030 C   0  0  0  0  0  1  0  0  0  0  0  0
  190.5000  176.2400  139.2820 C   0  0  0  0  0  2  0  0  0  0  0  0
  185.0400  179.0340  144.2240 C   0  0  0  0  0  2  0  0  0  0  0  0
  181.5170  179.5840  143.6650 C   0  0  0  0  0  3  0  0  0  0  0  0
  182.6520  178.9470  143.8150 C   0  0  0  0  0  0  0  0  0  0  0  0
  183.7750  178.3010  143.9460 C   0  0  0  0  0  3  0  0  0  0  0  0
  180.2640  178.9350  143.1450 C   0  0  2  0  0  3  0  0  0  0  0  0
  179.9300  177.7280  144.0000 C   0  0  0  0  0  1  0  0  0  0  0  0
  180.3600  178.5140  141.6790 C   0  0  0  0  0  2  0  0  0  0  0  0
  180.7920  179.6810  140.8030 C   0  0  2  0  0  3  0  0  0  0  0  0
  179.5850  180.5230  140.4370 C   0  0  0  0  0  1  0  0  0  0  0  0
  181.8930  178.6590  137.3300 C   0  0  1  0  0  3  0  0  0  0  0  0
  180.7830  179.0120  138.3330 C   0  0  0  0  0  2  0  0  0  0  0  0
  183.1350  178.2330  138.1540 C   0  0  1  0  0  3  0  0  0  0  0  0
  181.4610  179.2030  139.5980 N   0  0  0  0  0  0  0  0  0  0  0  0
  182.8100  178.7800  139.4880 C   0  0  0  0  0  0  0  0  0  0  0  0
  183.6370  178.8610  140.4350 O   0  0  0  0  0  0  0  0  0  0  0  0
  181.2520  178.3430  135.0400 O   0  0  0  0  0  1  0  0  0  0  0  0
  181.4270  177.6730  136.2540 C   0  0  2  0  0  3  0  0  0  0  0  0
  179.9540  175.9330  135.7560 C   0  0  0  0  0  1  0  0  0  0  0  0
  180.1700  177.0580  136.6460 N   0  0  0  0  0  2  0  0  0  0  0  0
  183.2800  176.7690  138.2730 C   0  0  0  0  0  0  0  0  0  0  0  0
  183.3990  175.5730  138.3690 C   0  0  0  0  0  3  0  0  0  0  0  0
  2  4  1  0  0  0  0
  3 29  1  6  0  0  0
  3  5  1  0  0  0  0
  5  7  2  0  0  0  0
  5  4  1  0  0  0  0
  6  2  2  0  0  0  0
  8  1  1  6  0  0  0
  8  3  1  0  0  0  0
  8  6  1  0  0  0  0
  9 16  1  1  0  0  0
  9  6  1  0  0  0  0
  9 11  1  0  0  0  0
 10 12  1  0  0  0  0
 11 14  2  0  0  0  0
 12 13  2  0  0  0  0
 14 13  1  0  0  0  0
 15 11  1  0  0  0  0
 15 10  2  0  0  0  0
 16 17  2  0  0  0  0
 18 16  1  0  0  0  0
 19 18  1  0  0  0  0
 20 21  2  0  0  0  0
 21 19  1  0  0  0  0
 22 24  1  0  0  0  0
 22 25  2  0  0  0  0
 23 26  1  0  0  0  0
 24 23  2  0  0  0  0
 25 26  1  0  0  0  0
 26 20  1  0  0  0  0
 27 28  1  0  0  0  0
 28 21  1  0  0  0  0
 30 31  2  0  0  0  0
 31 32  2  0  0  0  0
 32 29  1  0  0  0  0
 33 30  1  0  0  0  0
 33 34  1  1  0  0  0
 35 33  1  0  0  0  0
 36 37  1  6  0  0  0
 36 35  1  0  0  0  0
 38 45  1  6  0  0  0
 38 40  1  0  0  0  0
 38 39  1  0  0  0  0
 39 41  1  0  0  0  0
 40 48  1  1  0  0  0
 40 42  1  0  0  0  0
 41 36  1  0  0  0  0
 42 41  1  0  0  0  0
 42 43  2  0  0  0  0
 45 44  1  6  0  0  0
 45 47  1  0  0  0  0
 46 47  1  0  0  0  0
 48 49  3  0  0  0  0
M  END
>  <MODEL>
2

>  <REMARK>
 VINA RESULT:      -7.6      2.229      3.617
  Name = 
  17 active torsions:
  status: ('A' for Active; 'I' for Inactive)
    1  A    between atoms: C_4  and  C_17
    2  A    between atoms: C_5  and  C_8
    3  A    between atoms: C_5  and  C_13
    4  A    between atoms: C_5  and  C_31
    5  A    between atoms: C_6  and  C_42
    6  A    between atoms: C_6  and  C_48
    7  A    between atoms: C_7  and  C_26
    8  A    between atoms: C_8  and  C_48
    9  A    between atoms: C_9  and  C_45
   10  A    between atoms: C_11  and  C_41
   11  A    between atoms: C_16  and  N_18
   12  A    between atoms: C_16  and  C_39
   13  A    between atoms: C_26  and  C_39
   14  A    between atoms: C_29  and  N_38
   15  A    between atoms: C_34  and  C_41
   16  A    between atoms: C_37  and  C_42
   17  A    between atoms: N_44  and  C_45
                            x       y       z     vdW  Elec       q    Type
                         _______ _______ _______ _____ _____    ______ ____

>  <TORSDO>
F 17

$$$$
=
 OpenBabel11062414003D

 49 52  0  0  1  0  0  0  0  0999 V2000
  187.2770  177.8920  143.1120 O   0  0  0  0  0  1  0  0  0  0  0  0
  188.2860  177.7210  146.5730 C   0  0  0  0  0  3  0  0  0  0  0  0
  185.8630  178.1320  145.0270 C   0  0  2  0  0  3  0  0  0  0  0  0
  187.0790  178.0800  147.2490 N   0  0  0  0  0  2  0  0  0  0  0  0
  185.8820  178.3480  146.5200 C   0  0  0  0  0  0  0  0  0  0  0  0
  188.3820  177.7740  145.2420 C   0  0  0  0  0  0  0  0  0  0  0  0
  184.8360  178.6680  147.1440 O   0  0  0  0  0  0  0  0  0  0  0  0
  187.2530  178.3720  144.4220 C   0  0  1  0  0  3  0  0  0  0  0  0
  189.7230  177.4450  144.6490 C   0  0  2  0  0  3  0  0  0  0  0  0
  192.4370  175.1790  146.0070 C   0  0  0  0  0  3  0  0  0  0  0  0
  190.6810  176.8030  145.6070 C   0  0  0  0  0  0  0  0  0  0  0  0
  192.4630  175.5350  147.3590 C   0  0  0  0  0  3  0  0  0  0  0  0
  191.5980  176.5250  147.8390 C   0  0  0  0  0  3  0  0  0  0  0  0
  190.7070  177.1550  146.9660 C   0  0  0  0  0  3  0  0  0  0  0  0
  191.5470  175.8100  145.1340 C   0  0  0  0  0  3  0  0  0  0  0  0
  190.3070  178.5210  143.7740 C   0  0  0  0  0  0  0  0  0  0  0  0
  191.1140  179.3250  144.2160 O   0  0  0  0  0  0  0  0  0  0  0  0
  189.8700  178.6140  142.3470 C   0  0  0  0  0  2  0  0  0  0  0  0
  190.2110  177.3370  141.5880 C   0  0  0  0  0  2  0  0  0  0  0  0
  188.6180  177.7930  139.8100 C   0  0  0  0  0  3  0  0  0  0  0  0
  189.8760  177.4670  140.1400 C   0  0  0  0  0  0  0  0  0  0  0  0
  187.6960  178.7140  136.5090 C   0  0  0  0  0  3  0  0  0  0  0  0
  187.4670  176.9590  137.8130 C   0  0  0  0  0  3  0  0  0  0  0  0
  187.1710  177.4310  136.5450 C   0  0  0  0  0  3  0  0  0  0  0  0
  188.2730  178.9880  137.6930 N   0  0  0  0  0  0  0  0  0  0  0  0
  188.1220  177.9300  138.4710 N   0  0  0  0  0  0  0  0  0  0  0  0
  190.8730  175.8550  138.5470 C   0  0  0  0  0  1  0  0  0  0  0  0
  190.9650  177.2500  139.1360 C   0  0  0  0  0  2  0  0  0  0  0  0
  184.8490  179.0320  144.3280 C   0  0  0  0  0  2  0  0  0  0  0  0
  181.4470  179.6150  143.2730 C   0  0  0  0  0  3  0  0  0  0  0  0
  182.4870  179.0030  143.7830 C   0  0  0  0  0  0  0  0  0  0  0  0
  183.5150  178.3750  144.2780 C   0  0  0  0  0  3  0  0  0  0  0  0
  180.1450  178.9270  142.9710 C   0  0  2  0  0  3  0  0  0  0  0  0
  179.3910  178.6850  144.2650 C   0  0  0  0  0  1  0  0  0  0  0  0
  180.3140  177.6060  142.2220 C   0  0  0  0  0  2  0  0  0  0  0  0
  179.7840  177.7140  140.7990 C   0  0  2  0  0  3  0  0  0  0  0  0
  178.9310  176.5020  140.4760 C   0  0  0  0  0  1  0  0  0  0  0  0
  182.4550  177.3020  138.1500 C   0  0  1  0  0  3  0  0  0  0  0  0
  181.4540  176.6980  139.1480 C   0  0  0  0  0  2  0  0  0  0  0  0
  182.7410  178.7540  138.6120 C   0  0  1  0  0  3  0  0  0  0  0  0
  180.8830  177.8300  139.8450 N   0  0  0  0  0  0  0  0  0  0  0  0
  181.6020  179.0070  139.5210 C   0  0  0  0  0  0  0  0  0  0  0  0
  181.3000  180.1460  139.9680 O   0  0  0  0  0  0  0  0  0  0  0  0
  183.9800  176.3490  136.5620 O   0  0  0  0  0  1  0  0  0  0  0  0
  183.6820  176.4120  137.9260 C   0  0  2  0  0  3  0  0  0  0  0  0
  183.3160  174.2050  137.2630 C   0  0  0  0  0  1  0  0  0  0  0  0
  183.4250  175.0700  138.4230 N   0  0  0  0  0  2  0  0  0  0  0  0
  183.9910  178.8830  139.3840 C   0  0  0  0  0  0  0  0  0  0  0  0
  185.0140  178.9870  140.0140 C   0  0  0  0  0  3  0  0  0  0  0  0
  2  4  1  0  0  0  0
  3 29  1  6  0  0  0
  3  5  1  0  0  0  0
  5  7  2  0  0  0  0
  5  4  1  0  0  0  0
  6  2  2  0  0  0  0
  8  1  1  6  0  0  0
  8  3  1  0  0  0  0
  8  6  1  0  0  0  0
  9 16  1  1  0  0  0
  9  6  1  0  0  0  0
  9 11  1  0  0  0  0
 10 12  1  0  0  0  0
 11 14  2  0  0  0  0
 12 13  2  0  0  0  0
 14 13  1  0  0  0  0
 15 11  1  0  0  0  0
 15 10  2  0  0  0  0
 16 17  2  0  0  0  0
 18 16  1  0  0  0  0
 19 18  1  0  0  0  0
 20 21  2  0  0  0  0
 21 19  1  0  0  0  0
 22 24  1  0  0  0  0
 22 25  2  0  0  0  0
 23 26  1  0  0  0  0
 24 23  2  0  0  0  0
 25 26  1  0  0  0  0
 26 20  1  0  0  0  0
 27 28  1  0  0  0  0
 28 21  1  0  0  0  0
 30 31  2  0  0  0  0
 31 32  2  0  0  0  0
 32 29  1  0  0  0  0
 33 30  1  0  0  0  0
 33 34  1  1  0  0  0
 35 33  1  0  0  0  0
 36 37  1  6  0  0  0
 36 35  1  0  0  0  0
 38 45  1  1  0  0  0
 38 40  1  0  0  0  0
 38 39  1  0  0  0  0
 39 41  1  0  0  0  0
 40 48  1  1  0  0  0
 40 42  1  0  0  0  0
 41 36  1  0  0  0  0
 42 41  1  0  0  0  0
 42 43  2  0  0  0  0
 45 44  1  6  0  0  0
 45 47  1  0  0  0  0
 46 47  1  0  0  0  0
 48 49  3  0  0  0  0
M  END
>  <MODEL>
3

>  <REMARK>
 VINA RESULT:      -7.6      1.929      3.001
  Name = 
  17 active torsions:
  status: ('A' for Active; 'I' for Inactive)
    1  A    between atoms: C_4  and  C_17
    2  A    between atoms: C_5  and  C_8
    3  A    between atoms: C_5  and  C_13
    4  A    between atoms: C_5  and  C_31
    5  A    between atoms: C_6  and  C_42
    6  A    between atoms: C_6  and  C_48
    7  A    between atoms: C_7  and  C_26
    8  A    between atoms: C_8  and  C_48
    9  A    between atoms: C_9  and  C_45
   10  A    between atoms: C_11  and  C_41
   11  A    between atoms: C_16  and  N_18
   12  A    between atoms: C_16  and  C_39
   13  A    between atoms: C_26  and  C_39
   14  A    between atoms: C_29  and  N_38
   15  A    between atoms: C_34  and  C_41
   16  A    between atoms: C_37  and  C_42
   17  A    between atoms: N_44  and  C_45
                            x       y       z     vdW  Elec       q    Type
                         _______ _______ _______ _____ _____    ______ ____

>  <TORSDO>
F 17

$$$$
=
 OpenBabel11062414003D

 49 52  0  0  1  0  0  0  0  0999 V2000
  184.2690  178.9710  141.5840 O   0  0  0  0  0  1  0  0  0  0  0  0
  180.8160  178.1900  140.8860 C   0  0  0  0  0  3  0  0  0  0  0  0
  182.4400  179.0820  143.1210 C   0  0  2  0  0  3  0  0  0  0  0  0
  180.2240  178.2870  142.1830 N   0  0  0  0  0  2  0  0  0  0  0  0
  181.0040  178.6640  143.3180 C   0  0  0  0  0  0  0  0  0  0  0  0
  182.1360  178.2950  140.7110 C   0  0  0  0  0  0  0  0  0  0  0  0
  180.4550  178.7340  144.4490 O   0  0  0  0  0  0  0  0  0  0  0  0
  183.0580  178.3620  141.9140 C   0  0  1  0  0  3  0  0  0  0  0  0
  182.6480  178.1020  139.3120 C   0  0  2  0  0  3  0  0  0  0  0  0
  180.6930  178.9380  136.1770 C   0  0  0  0  0  3  0  0  0  0  0  0
  181.9160  178.8950  138.2700 C   0  0  0  0  0  0  0  0  0  0  0  0
  180.5750  180.3290  136.2710 C   0  0  0  0  0  3  0  0  0  0  0  0
  181.1280  181.0050  137.3630 C   0  0  0  0  0  3  0  0  0  0  0  0
  181.8000  180.2910  138.3590 C   0  0  0  0  0  3  0  0  0  0  0  0
  181.3630  178.2230  137.1740 C   0  0  0  0  0  3  0  0  0  0  0  0
  182.9530  176.6760  138.9420 C   0  0  0  0  0  0  0  0  0  0  0  0
  182.2970  175.7510  139.3990 O   0  0  0  0  0  0  0  0  0  0  0  0
  184.0930  176.3930  138.0170 C   0  0  0  0  0  2  0  0  0  0  0  0
  183.7570  175.2420  137.0750 C   0  0  0  0  0  2  0  0  0  0  0  0
  185.9300  174.6400  136.1670 C   0  0  0  0  0  3  0  0  0  0  0  0
  184.9030  174.2930  136.9560 C   0  0  0  0  0  0  0  0  0  0  0  0
  189.1380  173.1790  135.7600 C   0  0  0  0  0  3  0  0  0  0  0  0
  187.0440  172.5450  135.5550 C   0  0  0  0  0  3  0  0  0  0  0  0
  188.3460  172.0880  135.4370 C   0  0  0  0  0  3  0  0  0  0  0  0
  188.3470  174.2270  136.0530 N   0  0  0  0  0  0  0  0  0  0  0  0
  187.0920  173.8360  135.9190 N   0  0  0  0  0  0  0  0  0  0  0  0
  183.7660  172.1080  137.2050 C   0  0  0  0  0  1  0  0  0  0  0  0
  184.8550  173.0190  137.7400 C   0  0  0  0  0  2  0  0  0  0  0  0
  183.2920  178.8130  144.3570 C   0  0  0  0  0  2  0  0  0  0  0  0
  186.4780  177.7170  145.6510 C   0  0  0  0  0  3  0  0  0  0  0  0
  185.5970  178.2280  144.8260 C   0  0  0  0  0  0  0  0  0  0  0  0
  184.7300  178.7220  143.9890 C   0  0  0  0  0  3  0  0  0  0  0  0
  187.8870  177.3740  145.2520 C   0  0  2  0  0  3  0  0  0  0  0  0
  188.8420  177.8260  146.3400 C   0  0  0  0  0  1  0  0  0  0  0  0
  188.3060  177.9840  143.9160 C   0  0  0  0  0  2  0  0  0  0  0  0
  188.1050  176.9960  142.7770 C   0  0  2  0  0  3  0  0  0  0  0  0
  188.6550  175.6390  143.1710 C   0  0  0  0  0  1  0  0  0  0  0  0
  189.1240  178.5750  139.4930 C   0  0  1  0  0  3  0  0  0  0  0  0
  188.0370  178.1100  140.4740 C   0  0  0  0  0  2  0  0  0  0  0  0
  190.4190  177.7980  139.8430 C   0  0  1  0  0  3  0  0  0  0  0  0
  188.7520  177.4710  141.5580 N   0  0  0  0  0  0  0  0  0  0  0  0
  190.1170  177.3150  141.2070 C   0  0  0  0  0  0  0  0  0  0  0  0
  190.9750  176.8100  141.9800 O   0  0  0  0  0  0  0  0  0  0  0  0
  189.0800  179.6600  137.3530 O   0  0  0  0  0  1  0  0  0  0  0  0
  188.6710  178.5070  138.0300 C   0  0  2  0  0  3  0  0  0  0  0  0
  186.8850  178.2030  136.5610 C   0  0  0  0  0  1  0  0  0  0  0  0
  187.2240  178.3970  137.9580 N   0  0  0  0  0  2  0  0  0  0  0  0
  190.6480  176.6290  138.9730 C   0  0  0  0  0  0  0  0  0  0  0  0
  190.8350  175.6730  138.2620 C   0  0  0  0  0  3  0  0  0  0  0  0
  2  4  1  0  0  0  0
  3  5  1  0  0  0  0
  3 29  1  1  0  0  0
  4  5  1  0  0  0  0
  5  7  2  0  0  0  0
  6  2  2  0  0  0  0
  6  8  1  0  0  0  0
  8  1  1  6  0  0  0
  8  3  1  0  0  0  0
  9 16  1  6  0  0  0
  9  6  1  0  0  0  0
 10 12  2  0  0  0  0
 10 15  1  0  0  0  0
 11 14  1  0  0  0  0
 11  9  1  0  0  0  0
 12 13  1  0  0  0  0
 13 14  2  0  0  0  0
 15 11  2  0  0  0  0
 16 17  2  0  0  0  0
 18 16  1  0  0  0  0
 19 18  1  0  0  0  0
 20 21  2  0  0  0  0
 21 19  1  0  0  0  0
 21 28  1  0  0  0  0
 22 25  2  0  0  0  0
 23 26  1  0  0  0  0
 24 23  2  0  0  0  0
 24 22  1  0  0  0  0
 26 25  1  0  0  0  0
 26 20  1  0  0  0  0
 27 28  1  0  0  0  0
 31 30  2  0  0  0  0
 32 29  1  0  0  0  0
 32 31  2  0  0  0  0
 33 30  1  0  0  0  0
 33 34  1  1  0  0  0
 35 33  1  0  0  0  0
 36 37  1  1  0  0  0
 36 35  1  0  0  0  0
 38 45  1  6  0  0  0
 38 40  1  0  0  0  0
 38 39  1  0  0  0  0
 39 41  1  0  0  0  0
 40 48  1  6  0  0  0
 40 42  1  0  0  0  0
 41 36  1  0  0  0  0
 42 41  1  0  0  0  0
 42 43  2  0  0  0  0
 45 44  1  6  0  0  0
 46 47  1  0  0  0  0
 47 45  1  0  0  0  0
 49 48  3  0  0  0  0
M  END
>  <MODEL>
4

>  <REMARK>
 VINA RESULT:      -7.3      2.425      7.505
  Name = 
  17 active torsions:
  status: ('A' for Active; 'I' for Inactive)
    1  A    between atoms: C_4  and  C_17
    2  A    between atoms: C_5  and  C_8
    3  A    between atoms: C_5  and  C_13
    4  A    between atoms: C_5  and  C_31
    5  A    between atoms: C_6  and  C_42
    6  A    between atoms: C_6  and  C_48
    7  A    between atoms: C_7  and  C_26
    8  A    between atoms: C_8  and  C_48
    9  A    between atoms: C_9  and  C_45
   10  A    between atoms: C_11  and  C_41
   11  A    between atoms: C_16  and  N_18
   12  A    between atoms: C_16  and  C_39
   13  A    between atoms: C_26  and  C_39
   14  A    between atoms: C_29  and  N_38
   15  A    between atoms: C_34  and  C_41
   16  A    between atoms: C_37  and  C_42
   17  A    between atoms: N_44  and  C_45
                            x       y       z     vdW  Elec       q    Type
                         _______ _______ _______ _____ _____    ______ ____

>  <TORSDO>
F 17

$$$$
=
 OpenBabel11062414003D

 49 52  0  0  1  0  0  0  0  0999 V2000
  188.7200  175.7880  142.4500 O   0  0  0  0  0  1  0  0  0  0  0  0
  191.5230  177.8740  141.5480 C   0  0  0  0  0  3  0  0  0  0  0  0
  190.3950  176.6480  143.9260 C   0  0  2  0  0  3  0  0  0  0  0  0
  192.0770  178.1920  142.8270 N   0  0  0  0  0  2  0  0  0  0  0  0
  191.5120  177.6570  144.0230 C   0  0  0  0  0  0  0  0  0  0  0  0
  190.3770  177.1980  141.4320 C   0  0  0  0  0  0  0  0  0  0  0  0
  192.0180  177.9610  145.1350 O   0  0  0  0  0  0  0  0  0  0  0  0
  189.5500  176.8880  142.6660 C   0  0  1  0  0  3  0  0  0  0  0  0
  189.8560  176.9880  140.0380 C   0  0  2  0  0  3  0  0  0  0  0  0
  191.3750  174.7350  137.3990 C   0  0  0  0  0  3  0  0  0  0  0  0
  190.8540  176.3950  139.0890 C   0  0  0  0  0  0  0  0  0  0  0  0
  192.6870  175.2160  137.3270 C   0  0  0  0  0  3  0  0  0  0  0  0
  193.0850  176.2850  138.1360 C   0  0  0  0  0  3  0  0  0  0  0  0
  192.1720  176.8710  139.0170 C   0  0  0  0  0  3  0  0  0  0  0  0
  190.4620  175.3220  138.2790 C   0  0  0  0  0  3  0  0  0  0  0  0
  189.0420  178.1280  139.4910 C   0  0  0  0  0  0  0  0  0  0  0  0
  188.2010  178.6910  140.1770 O   0  0  0  0  0  0  0  0  0  0  0  0
  189.2540  178.5590  138.0750 C   0  0  0  0  0  2  0  0  0  0  0  0
  187.9270  178.6700  137.3330 C   0  0  0  0  0  2  0  0  0  0  0  0
  186.9970  176.4300  137.1770 C   0  0  0  0  0  3  0  0  0  0  0  0
  187.6410  177.4280  136.5560 C   0  0  0  0  0  0  0  0  0  0  0  0
  185.7360  173.6370  135.3860 C   0  0  0  0  0  3  0  0  0  0  0  0
  187.3570  174.0330  136.8170 C   0  0  0  0  0  3  0  0  0  0  0  0
  186.7800  173.0250  136.0620 C   0  0  0  0  0  3  0  0  0  0  0  0
  185.6960  174.9390  135.7240 N   0  0  0  0  0  0  0  0  0  0  0  0
  186.6700  175.1630  136.5890 N   0  0  0  0  0  0  0  0  0  0  0  0
  189.4020  176.6670  134.9910 C   0  0  0  0  0  1  0  0  0  0  0  0
  188.0650  177.3740  135.1210 C   0  0  0  0  0  2  0  0  0  0  0  0
  189.4870  176.6730  145.1510 C   0  0  0  0  0  2  0  0  0  0  0  0
  186.0200  177.5930  144.7540 C   0  0  0  0  0  3  0  0  0  0  0  0
  187.3130  177.7200  144.9250 C   0  0  0  0  0  0  0  0  0  0  0  0
  188.5940  177.8620  145.1130 C   0  0  0  0  0  3  0  0  0  0  0  0
  185.0420  178.7170  144.9490 C   0  0  2  0  0  3  0  0  0  0  0  0
  184.5000  178.6740  146.3640 C   0  0  0  0  0  1  0  0  0  0  0  0
  183.8820  178.6940  143.9540 C   0  0  0  0  0  2  0  0  0  0  0  0
  184.3680  178.3430  142.5560 C   0  0  2  0  0  3  0  0  0  0  0  0
  185.2850  179.4350  142.0420 C   0  0  0  0  0  1  0  0  0  0  0  0
  181.8890  177.3420  139.8780 C   0  0  1  0  0  3  0  0  0  0  0  0
  183.3280  177.4010  140.4160 C   0  0  0  0  0  2  0  0  0  0  0  0
  181.0820  178.4460  140.6070 C   0  0  1  0  0  3  0  0  0  0  0  0
  183.2410  178.1570  141.6470 N   0  0  0  0  0  0  0  0  0  0  0  0
  181.9520  178.7340  141.7670 C   0  0  0  0  0  0  0  0  0  0  0  0
  181.5930  179.4230  142.7600 O   0  0  0  0  0  0  0  0  0  0  0  0
  180.9680  176.3560  137.8940 O   0  0  0  0  0  1  0  0  0  0  0  0
  181.8280  177.3600  138.3470 C   0  0  2  0  0  3  0  0  0  0  0  0
  183.0470  177.3590  136.3580 C   0  0  0  0  0  1  0  0  0  0  0  0
  183.1520  177.1450  137.7890 N   0  0  0  0  0  2  0  0  0  0  0  0
  180.9400  179.6820  139.8130 C   0  0  0  0  0  0  0  0  0  0  0  0
  180.8240  180.6910  139.1630 C   0  0  0  0  0  3  0  0  0  0  0  0
  2  4  1  0  0  0  0
  3  5  1  0  0  0  0
  3 29  1  1  0  0  0
  4  5  1  0  0  0  0
  5  7  2  0  0  0  0
  6  2  2  0  0  0  0
  6  8  1  0  0  0  0
  8  1  1  6  0  0  0
  8  3  1  0  0  0  0
  9 16  1  6  0  0  0
  9  6  1  0  0  0  0
 10 15  1  0  0  0  0
 11  9  1  0  0  0  0
 12 10  2  0  0  0  0
 12 13  1  0  0  0  0
 13 14  2  0  0  0  0
 14 11  1  0  0  0  0
 15 11  2  0  0  0  0
 16 17  2  0  0  0  0
 18 16  1  0  0  0  0
 19 18  1  0  0  0  0
 21 20  2  0  0  0  0
 21 19  1  0  0  0  0
 22 25  2  0  0  0  0
 22 24  1  0  0  0  0
 24 23  2  0  0  0  0
 25 26  1  0  0  0  0
 26 23  1  0  0  0  0
 26 20  1  0  0  0  0
 27 28  1  0  0  0  0
 28 21  1  0  0  0  0
 30 31  2  0  0  0  0
 30 33  1  0  0  0  0
 31 32  2  0  0  0  0
 32 29  1  0  0  0  0
 33 34  1  1  0  0  0
 35 33  1  0  0  0  0
 36 37  1  6  0  0  0
 36 35  1  0  0  0  0
 38 45  1  6  0  0  0
 38 39  1  0  0  0  0
 38 40  1  0  0  0  0
 39 41  1  0  0  0  0
 40 48  1  6  0  0  0
 40 42  1  0  0  0  0
 41 42  1  0  0  0  0
 41 36  1  0  0  0  0
 42 43  2  0  0  0  0
 45 44  1  6  0  0  0
 46 47  1  0  0  0  0
 47 45  1  0  0  0  0
 49 48  3  0  0  0  0
M  END
>  <MODEL>
5

>  <REMARK>
 VINA RESULT:      -7.2      2.250      5.381
  Name = 
  17 active torsions:
  status: ('A' for Active; 'I' for Inactive)
    1  A    between atoms: C_4  and  C_17
    2  A    between atoms: C_5  and  C_8
    3  A    between atoms: C_5  and  C_13
    4  A    between atoms: C_5  and  C_31
    5  A    between atoms: C_6  and  C_42
    6  A    between atoms: C_6  and  C_48
    7  A    between atoms: C_7  and  C_26
    8  A    between atoms: C_8  and  C_48
    9  A    between atoms: C_9  and  C_45
   10  A    between atoms: C_11  and  C_41
   11  A    between atoms: C_16  and  N_18
   12  A    between atoms: C_16  and  C_39
   13  A    between atoms: C_26  and  C_39
   14  A    between atoms: C_29  and  N_38
   15  A    between atoms: C_34  and  C_41
   16  A    between atoms: C_37  and  C_42
   17  A    between atoms: N_44  and  C_45
                            x       y       z     vdW  Elec       q    Type
                         _______ _______ _______ _____ _____    ______ ____

>  <TORSDO>
F 17

$$$$
=
 OpenBabel11062414003D

 49 52  0  0  1  0  0  0  0  0999 V2000
  189.0490  176.7970  139.2330 O   0  0  0  0  0  1  0  0  0  0  0  0
  192.3720  177.5360  140.4290 C   0  0  0  0  0  3  0  0  0  0  0  0
  191.1010  176.4590  138.0520 C   0  0  2  0  0  3  0  0  0  0  0  0
  193.1870  176.9990  139.3850 N   0  0  0  0  0  0  0  0  0  0  0  0
  192.5980  176.4070  138.2280 C   0  0  0  0  0  0  0  0  0  0  0  0
  191.0470  177.3690  140.4370 C   0  0  1  0  0  3  0  0  0  0  0  0
  193.3430  175.9360  137.3280 O   0  0  0  0  0  0  0  0  0  0  0  0
  190.3910  176.4610  139.4130 C   0  0  1  0  0  3  0  0  0  0  0  0
  190.3060  177.9140  141.6240 C   0  0  2  0  0  3  0  0  0  0  0  0
  191.4600  177.7960  145.2300 C   0  0  0  0  0  3  0  0  0  0  0  0
  190.7700  177.3730  142.9450 C   0  0  0  0  0  0  0  0  0  0  0  0
  191.6810  176.4280  145.4200 C   0  0  0  0  0  3  0  0  0  0  0  0
  191.4490  175.5300  144.3730 C   0  0  0  0  0  3  0  0  0  0  0  0
  190.9980  176.0020  143.1370 C   0  0  0  0  0  3  0  0  0  0  0  0
  191.0070  178.2680  143.9950 C   0  0  0  0  0  3  0  0  0  0  0  0
  188.8140  178.0010  141.4510 C   0  0  0  0  0  0  0  0  0  0  0  0
  188.3150  178.7840  140.6560 O   0  0  0  0  0  0  0  0  0  0  0  0
  187.9330  177.1280  142.2850 C   0  0  0  0  0  2  0  0  0  0  0  0
  186.6890  177.8830  142.7390 C   0  0  0  0  0  2  0  0  0  0  0  0
  187.7100  177.7000  144.9370 C   0  0  0  0  0  3  0  0  0  0  0  0
  186.5920  177.9150  144.2280 C   0  0  0  0  0  0  0  0  0  0  0  0
  188.3020  177.1030  148.3850 C   0  0  0  0  0  3  0  0  0  0  0  0
  187.2330  178.5910  147.1700 C   0  0  0  0  0  3  0  0  0  0  0  0
  187.5380  178.2570  148.4780 C   0  0  0  0  0  3  0  0  0  0  0  0
  188.4400  176.7710  147.0880 N   0  0  0  0  0  0  0  0  0  0  0  0
  187.7880  177.6670  146.3690 N   0  0  0  0  0  0  0  0  0  0  0  0
  184.2960  178.7380  143.8060 C   0  0  0  0  0  1  0  0  0  0  0  0
  185.2610  178.2060  144.8480 C   0  0  0  0  0  2  0  0  0  0  0  0
  190.5790  175.2950  137.2150 C   0  0  0  0  0  2  0  0  0  0  0  0
  187.0880  175.8410  136.4810 C   0  0  0  0  0  3  0  0  0  0  0  0
  188.3870  175.8040  136.3140 C   0  0  0  0  0  0  0  0  0  0  0  0
  189.6780  175.7890  136.1400 C   0  0  0  0  0  3  0  0  0  0  0  0
  186.1510  176.5480  135.5420 C   0  0  2  0  0  3  0  0  0  0  0  0
  186.7630  177.8700  135.1200 C   0  0  0  0  0  1  0  0  0  0  0  0
  184.7640  176.7920  136.1360 C   0  0  0  0  0  2  0  0  0  0  0  0
  184.6110  176.0830  137.4740 C   0  0  2  0  0  3  0  0  0  0  0  0
  183.7010  174.8800  137.3170 C   0  0  0  0  0  1  0  0  0  0  0  0
  182.7970  177.8550  140.2830 C   0  0  1  0  0  3  0  0  0  0  0  0
  182.8830  176.7190  139.2500 C   0  0  0  0  0  2  0  0  0  0  0  0
  183.7270  178.9920  139.7890 C   0  0  1  0  0  3  0  0  0  0  0  0
  184.0800  176.9930  138.4840 N   0  0  0  0  0  0  0  0  0  0  0  0
  184.5750  178.2800  138.8100 C   0  0  0  0  0  0  0  0  0  0  0  0
  185.6260  178.7630  138.3080 O   0  0  0  0  0  0  0  0  0  0  0  0
  181.2820  178.7680  141.9030 O   0  0  0  0  0  1  0  0  0  0  0  0
  181.3540  178.2560  140.6050 C   0  0  2  0  0  3  0  0  0  0  0  0
  179.3700  177.4920  139.6430 C   0  0  0  0  0  1  0  0  0  0  0  0
  180.4760  177.1020  140.4970 N   0  0  0  0  0  2  0  0  0  0  0  0
  183.0060  180.0700  139.0860 C   0  0  0  0  0  0  0  0  0  0  0  0
  182.4150  180.9510  138.5120 C   0  0  0  0  0  3  0  0  0  0  0  0
  2  6  1  0  0  0  0
  3 29  1  6  0  0  0
  3  5  1  0  0  0  0
  3  8  1  0  0  0  0
  4  2  2  0  0  0  0
  5  4  1  0  0  0  0
  6  9  1  1  0  0  0
  7  5  2  0  0  0  0
  8  1  1  6  0  0  0
  8  6  1  0  0  0  0
  9 16  1  6  0  0  0
  9 11  1  0  0  0  0
 10 12  1  0  0  0  0
 11 14  2  0  0  0  0
 11 15  1  0  0  0  0
 13 12  2  0  0  0  0
 14 13  1  0  0  0  0
 15 10  2  0  0  0  0
 16 18  1  0  0  0  0
 17 16  2  0  0  0  0
 18 19  1  0  0  0  0
 19 21  1  0  0  0  0
 20 26  1  0  0  0  0
 21 28  1  0  0  0  0
 21 20  2  0  0  0  0
 22 24  1  0  0  0  0
 23 24  2  0  0  0  0
 25 22  2  0  0  0  0
 26 25  1  0  0  0  0
 26 23  1  0  0  0  0
 27 28  1  0  0  0  0
 31 30  2  0  0  0  0
 32 31  2  0  0  0  0
 32 29  1  0  0  0  0
 33 34  1  1  0  0  0
 33 35  1  0  0  0  0
 33 30  1  0  0  0  0
 35 36  1  0  0  0  0
 36 37  1  6  0  0  0
 36 41  1  0  0  0  0
 38 45  1  6  0  0  0
 39 38  1  0  0  0  0
 40 48  1  6  0  0  0
 40 38  1  0  0  0  0
 41 42  1  0  0  0  0
 41 39  1  0  0  0  0
 42 40  1  0  0  0  0
 43 42  2  0  0  0  0
 45 44  1  1  0  0  0
 46 47  1  0  0  0  0
 47 45  1  0  0  0  0
 49 48  3  0  0  0  0
M  END
>  <MODEL>
6

>  <REMARK>
 VINA RESULT:      -7.2      2.263      7.057
  Name = 
  17 active torsions:
  status: ('A' for Active; 'I' for Inactive)
    1  A    between atoms: C_4  and  C_17
    2  A    between atoms: C_5  and  C_8
    3  A    between atoms: C_5  and  C_13
    4  A    between atoms: C_5  and  C_31
    5  A    between atoms: C_6  and  C_42
    6  A    between atoms: C_6  and  C_48
    7  A    between atoms: C_7  and  C_26
    8  A    between atoms: C_8  and  C_48
    9  A    between atoms: C_9  and  C_45
   10  A    between atoms: C_11  and  C_41
   11  A    between atoms: C_16  and  N_18
   12  A    between atoms: C_16  and  C_39
   13  A    between atoms: C_26  and  C_39
   14  A    between atoms: C_29  and  N_38
   15  A    between atoms: C_34  and  C_41
   16  A    between atoms: C_37  and  C_42
   17  A    between atoms: N_44  and  C_45
                            x       y       z     vdW  Elec       q    Type
                         _______ _______ _______ _____ _____    ______ ____

>  <TORSDO>
F 17

$$$$
=
 OpenBabel11062414003D

 49 52  0  0  1  0  0  0  0  0999 V2000
  187.2190  177.2990  143.1880 O   0  0  0  0  0  1  0  0  0  0  0  0
  188.2790  177.7730  146.6050 C   0  0  0  0  0  3  0  0  0  0  0  0
  185.8330  177.8910  145.0450 C   0  0  2  0  0  3  0  0  0  0  0  0
  187.0820  178.2520  147.2200 N   0  0  0  0  0  2  0  0  0  0  0  0
  185.8740  178.3810  146.4710 C   0  0  0  0  0  0  0  0  0  0  0  0
  188.3560  177.5770  145.2850 C   0  0  0  0  0  0  0  0  0  0  0  0
  184.8370  178.8130  147.0410 O   0  0  0  0  0  0  0  0  0  0  0  0
  187.2140  178.0130  144.3860 C   0  0  1  0  0  3  0  0  0  0  0  0
  189.6880  177.1430  144.7440 C   0  0  2  0  0  3  0  0  0  0  0  0
  191.4970  176.7610  148.0500 C   0  0  0  0  0  3  0  0  0  0  0  0
  190.6420  176.6360  145.7850 C   0  0  0  0  0  0  0  0  0  0  0  0
  192.4300  175.7610  147.7570 C   0  0  0  0  0  3  0  0  0  0  0  0
  192.4730  175.1980  146.4780 C   0  0  0  0  0  3  0  0  0  0  0  0
  191.5830  175.6370  145.4920 C   0  0  0  0  0  3  0  0  0  0  0  0
  190.6060  177.1980  147.0660 C   0  0  0  0  0  3  0  0  0  0  0  0
  190.2840  178.0670  143.7170 C   0  0  0  0  0  0  0  0  0  0  0  0
  190.4930  179.2440  143.9710 O   0  0  0  0  0  0  0  0  0  0  0  0
  190.6010  177.5330  142.3570 C   0  0  0  0  0  2  0  0  0  0  0  0
  189.6470  178.0990  141.3120 C   0  0  0  0  0  2  0  0  0  0  0  0
  190.9760  176.7460  139.7930 C   0  0  0  0  0  3  0  0  0  0  0  0
  189.8450  177.4380  139.9890 C   0  0  0  0  0  0  0  0  0  0  0  0
  191.4570  174.6230  136.9900 C   0  0  0  0  0  3  0  0  0  0  0  0
  192.1210  176.6180  137.6300 C   0  0  0  0  0  3  0  0  0  0  0  0
  192.2260  175.7070  136.5930 C   0  0  0  0  0  3  0  0  0  0  0  0
  190.9260  174.8790  138.1990 N   0  0  0  0  0  0  0  0  0  0  0  0
  191.3370  176.0770  138.5760 N   0  0  0  0  0  0  0  0  0  0  0  0
  189.0170  178.7640  138.0680 C   0  0  0  0  0  1  0  0  0  0  0  0
  188.7630  177.5640  138.9620 C   0  0  0  0  0  2  0  0  0  0  0  0
  184.8070  178.6470  144.2060 C   0  0  0  0  0  2  0  0  0  0  0  0
  182.7810  178.2870  141.2420 C   0  0  0  0  0  3  0  0  0  0  0  0
  183.8330  178.2530  142.0220 C   0  0  0  0  0  0  0  0  0  0  0  0
  184.8910  178.2310  142.7800 C   0  0  0  0  0  3  0  0  0  0  0  0
  182.8480  178.1160  139.7490 C   0  0  2  0  0  3  0  0  0  0  0  0
  183.8460  179.1030  139.1740 C   0  0  0  0  0  1  0  0  0  0  0  0
  181.4980  178.2900  139.0560 C   0  0  0  0  0  2  0  0  0  0  0  0
  181.0140  176.9740  138.4660 C   0  0  2  0  0  3  0  0  0  0  0  0
  180.7580  175.9750  139.5770 C   0  0  0  0  0  1  0  0  0  0  0  0
  183.4350  174.9440  136.3840 C   0  0  1  0  0  3  0  0  0  0  0  0
  182.6210  175.1480  137.6710 C   0  0  0  0  0  2  0  0  0  0  0  0
  183.5880  176.3330  135.7140 C   0  0  1  0  0  3  0  0  0  0  0  0
  181.9890  176.4410  137.5190 N   0  0  0  0  0  0  0  0  0  0  0  0
  182.5240  177.1070  136.3880 C   0  0  0  0  0  0  0  0  0  0  0  0
  182.1330  178.2430  136.0070 O   0  0  0  0  0  0  0  0  0  0  0  0
  185.1720  173.5980  135.4200 O   0  0  0  0  0  1  0  0  0  0  0  0
  184.7330  174.1630  136.6210 C   0  0  2  0  0  3  0  0  0  0  0  0
  184.2660  171.8880  136.8460 C   0  0  0  0  0  1  0  0  0  0  0  0
  184.5120  173.1070  137.5940 N   0  0  0  0  0  2  0  0  0  0  0  0
  184.8850  176.9760  135.9980 C   0  0  0  0  0  0  0  0  0  0  0  0
  185.9450  177.5030  136.2300 C   0  0  0  0  0  3  0  0  0  0  0  0
  2  4  1  0  0  0  0
  3 29  1  6  0  0  0
  3  5  1  0  0  0  0
  5  7  2  0  0  0  0
  5  4  1  0  0  0  0
  6  2  2  0  0  0  0
  8  1  1  6  0  0  0
  8  3  1  0  0  0  0
  8  6  1  0  0  0  0
  9 16  1  1  0  0  0
  9  6  1  0  0  0  0
  9 11  1  0  0  0  0
 11 15  1  0  0  0  0
 12 10  1  0  0  0  0
 13 12  2  0  0  0  0
 14 11  2  0  0  0  0
 14 13  1  0  0  0  0
 15 10  2  0  0  0  0
 16 17  2  0  0  0  0
 18 16  1  0  0  0  0
 19 18  1  0  0  0  0
 20 21  2  0  0  0  0
 21 19  1  0  0  0  0
 22 25  2  0  0  0  0
 23 26  1  0  0  0  0
 24 22  1  0  0  0  0
 24 23  2  0  0  0  0
 25 26  1  0  0  0  0
 26 20  1  0  0  0  0
 27 28  1  0  0  0  0
 28 21  1  0  0  0  0
 30 31  2  0  0  0  0
 31 32  2  0  0  0  0
 32 29  1  0  0  0  0
 33 34  1  6  0  0  0
 33 30  1  0  0  0  0
 35 33  1  0  0  0  0
 36 35  1  0  0  0  0
 36 37  1  1  0  0  0
 38 45  1  1  0  0  0
 38 39  1  0  0  0  0
 40 48  1  1  0  0  0
 40 38  1  0  0  0  0
 40 42  1  0  0  0  0
 41 39  1  0  0  0  0
 41 36  1  0  0  0  0
 42 41  1  0  0  0  0
 43 42  2  0  0  0  0
 45 44  1  6  0  0  0
 45 47  1  0  0  0  0
 46 47  1  0  0  0  0
 48 49  3  0  0  0  0
M  END
>  <MODEL>
7

>  <REMARK>
 VINA RESULT:      -7.1      1.569      2.150
  Name = 
  17 active torsions:
  status: ('A' for Active; 'I' for Inactive)
    1  A    between atoms: C_4  and  C_17
    2  A    between atoms: C_5  and  C_8
    3  A    between atoms: C_5  and  C_13
    4  A    between atoms: C_5  and  C_31
    5  A    between atoms: C_6  and  C_42
    6  A    between atoms: C_6  and  C_48
    7  A    between atoms: C_7  and  C_26
    8  A    between atoms: C_8  and  C_48
    9  A    between atoms: C_9  and  C_45
   10  A    between atoms: C_11  and  C_41
   11  A    between atoms: C_16  and  N_18
   12  A    between atoms: C_16  and  C_39
   13  A    between atoms: C_26  and  C_39
   14  A    between atoms: C_29  and  N_38
   15  A    between atoms: C_34  and  C_41
   16  A    between atoms: C_37  and  C_42
   17  A    between atoms: N_44  and  C_45
                            x       y       z     vdW  Elec       q    Type
                         _______ _______ _______ _____ _____    ______ ____

>  <TORSDO>
F 17

$$$$
=
 OpenBabel11062414003D

 49 52  0  0  1  0  0  0  0  0999 V2000
  183.7600  179.3960  138.6950 O   0  0  0  0  0  1  0  0  0  0  0  0
  181.3480  176.7550  138.2140 C   0  0  0  0  0  3  0  0  0  0  0  0
  184.2220  177.1360  138.0620 C   0  0  2  0  0  3  0  0  0  0  0  0
  182.1670  175.6980  137.7070 N   0  0  0  0  0  0  0  0  0  0  0  0
  183.5760  175.8680  137.5610 C   0  0  0  0  0  0  0  0  0  0  0  0
  181.8390  177.9790  138.4210 C   0  0  1  0  0  3  0  0  0  0  0  0
  184.2690  174.9210  137.1060 O   0  0  0  0  0  0  0  0  0  0  0  0
  183.2480  178.3190  137.9710 C   0  0  1  0  0  3  0  0  0  0  0  0
  180.8660  179.0260  138.8850 C   0  0  2  0  0  3  0  0  0  0  0  0
  181.2330  182.6520  137.8500 C   0  0  0  0  0  3  0  0  0  0  0  0
  180.8440  180.2660  138.0400 C   0  0  0  0  0  0  0  0  0  0  0  0
  180.7830  182.6230  136.5260 C   0  0  0  0  0  3  0  0  0  0  0  0
  180.3610  181.4170  135.9570 C   0  0  0  0  0  3  0  0  0  0  0  0
  180.3880  180.2410  136.7130 C   0  0  0  0  0  3  0  0  0  0  0  0
  181.2620  181.4760  138.6060 C   0  0  0  0  0  3  0  0  0  0  0  0
  180.8470  179.2570  140.3710 C   0  0  0  0  0  0  0  0  0  0  0  0
  180.0390  180.0180  140.8830 O   0  0  0  0  0  0  0  0  0  0  0  0
  181.8520  178.5550  141.2280 C   0  0  0  0  0  2  0  0  0  0  0  0
  181.7740  179.0420  142.6700 C   0  0  0  0  0  2  0  0  0  0  0  0
  183.1040  179.0700  144.7040 C   0  0  0  0  0  3  0  0  0  0  0  0
  183.0510  178.7810  143.3960 C   0  0  0  0  0  0  0  0  0  0  0  0
  185.5690  178.2720  147.1300 C   0  0  0  0  0  3  0  0  0  0  0  0
  185.4630  179.4290  145.2640 C   0  0  0  0  0  3  0  0  0  0  0  0
  186.3340  179.0450  146.2690 C   0  0  0  0  0  3  0  0  0  0  0  0
  184.3100  178.2030  146.6590 N   0  0  0  0  0  0  0  0  0  0  0  0
  184.2570  178.9080  145.5420 N   0  0  0  0  0  0  0  0  0  0  0  0
  185.0770  179.2870  142.0650 C   0  0  0  0  0  1  0  0  0  0  0  0
  184.1950  178.1900  142.6320 C   0  0  0  0  0  2  0  0  0  0  0  0
  185.4960  177.4750  137.2930 C   0  0  0  0  0  2  0  0  0  0  0  0
  189.1010  177.3870  137.1390 C   0  0  0  0  0  3  0  0  0  0  0  0
  187.8800  177.1010  137.5200 C   0  0  0  0  0  0  0  0  0  0  0  0
  186.6740  176.8190  137.9220 C   0  0  0  0  0  3  0  0  0  0  0  0
  190.3280  176.9510  137.8890 C   0  0  2  0  0  3  0  0  0  0  0  0
  190.8560  175.6630  137.2860 C   0  0  0  0  0  1  0  0  0  0  0  0
  190.0900  176.7550  139.3850 C   0  0  0  0  0  2  0  0  0  0  0  0
  190.9630  177.6930  140.2050 C   0  0  2  0  0  3  0  0  0  0  0  0
  192.3680  177.1320  140.3040 C   0  0  0  0  0  1  0  0  0  0  0  0
  190.2140  178.0880  143.8930 C   0  0  1  0  0  3  0  0  0  0  0  0
  191.1140  177.5760  142.7570 C   0  0  0  0  0  2  0  0  0  0  0  0
  188.7990  178.3000  143.2960 C   0  0  1  0  0  3  0  0  0  0  0  0
  190.4010  177.8930  141.5370 N   0  0  0  0  0  0  0  0  0  0  0  0
  189.0890  178.3290  141.8470 C   0  0  0  0  0  0  0  0  0  0  0  0
  188.2590  178.6960  140.9720 O   0  0  0  0  0  0  0  0  0  0  0  0
  189.7010  177.8820  146.2270 O   0  0  0  0  0  1  0  0  0  0  0  0
  190.2920  177.2160  145.1500 C   0  0  2  0  0  3  0  0  0  0  0  0
  191.6820  176.2790  146.7730 C   0  0  0  0  0  1  0  0  0  0  0  0
  191.6780  176.9200  145.4710 N   0  0  0  0  0  2  0  0  0  0  0  0
  187.8800  177.1790  143.5660 C   0  0  0  0  0  0  0  0  0  0  0  0
  187.1280  176.2620  143.7860 C   0  0  0  0  0  3  0  0  0  0  0  0
  2  6  1  0  0  0  0
  3 29  1  6  0  0  0
  4  2  2  0  0  0  0
  5  4  1  0  0  0  0
  5  3  1  0  0  0  0
  6  9  1  6  0  0  0
  7  5  2  0  0  0  0
  8  3  1  0  0  0  0
  8  6  1  0  0  0  0
  8  1  1  1  0  0  0
  9 16  1  1  0  0  0
 10 15  1  0  0  0  0
 11 15  2  0  0  0  0
 11  9  1  0  0  0  0
 12 10  2  0  0  0  0
 13 12  1  0  0  0  0
 13 14  2  0  0  0  0
 14 11  1  0  0  0  0
 16 17  2  0  0  0  0
 16 18  1  0  0  0  0
 18 19  1  0  0  0  0
 19 21  1  0  0  0  0
 20 26  1  0  0  0  0
 21 20  2  0  0  0  0
 23 26  1  0  0  0  0
 23 24  2  0  0  0  0
 24 22  1  0  0  0  0
 25 22  2  0  0  0  0
 26 25  1  0  0  0  0
 27 28  1  0  0  0  0
 28 21  1  0  0  0  0
 29 32  1  0  0  0  0
 30 31  2  0  0  0  0
 30 33  1  0  0  0  0
 31 32  2  0  0  0  0
 33 34  1  6  0  0  0
 33 35  1  0  0  0  0
 35 36  1  0  0  0  0
 36 37  1  1  0  0  0
 36 41  1  0  0  0  0
 38 45  1  1  0  0  0
 39 38  1  0  0  0  0
 40 48  1  6  0  0  0
 40 38  1  0  0  0  0
 41 42  1  0  0  0  0
 41 39  1  0  0  0  0
 42 40  1  0  0  0  0
 43 42  2  0  0  0  0
 45 47  1  0  0  0  0
 45 44  1  1  0  0  0
 47 46  1  0  0  0  0
 48 49  3  0  0  0  0
M  END
>  <MODEL>
8

>  <REMARK>
 VINA RESULT:      -7.0      2.367      9.843
  Name = 
  17 active torsions:
  status: ('A' for Active; 'I' for Inactive)
    1  A    between atoms: C_4  and  C_17
    2  A    between atoms: C_5  and  C_8
    3  A    between atoms: C_5  and  C_13
    4  A    between atoms: C_5  and  C_31
    5  A    between atoms: C_6  and  C_42
    6  A    between atoms: C_6  and  C_48
    7  A    between atoms: C_7  and  C_26
    8  A    between atoms: C_8  and  C_48
    9  A    between atoms: C_9  and  C_45
   10  A    between atoms: C_11  and  C_41
   11  A    between atoms: C_16  and  N_18
   12  A    between atoms: C_16  and  C_39
   13  A    between atoms: C_26  and  C_39
   14  A    between atoms: C_29  and  N_38
   15  A    between atoms: C_34  and  C_41
   16  A    between atoms: C_37  and  C_42
   17  A    between atoms: N_44  and  C_45
                            x       y       z     vdW  Elec       q    Type
                         _______ _______ _______ _____ _____    ______ ____

>  <TORSDO>
F 17

$$$$
=
 OpenBabel11062414003D

 49 52  0  0  1  0  0  0  0  0999 V2000
  187.3260  177.4460  143.1250 O   0  0  0  0  0  1  0  0  0  0  0  0
  188.3190  177.8860  146.5670 C   0  0  0  0  0  3  0  0  0  0  0  0
  185.8830  177.8640  144.9870 C   0  0  2  0  0  3  0  0  0  0  0  0
  187.0830  178.2480  147.1850 N   0  0  0  0  0  2  0  0  0  0  0  0
  185.8740  178.3070  146.4290 C   0  0  0  0  0  0  0  0  0  0  0  0
  188.4210  177.7420  145.2430 C   0  0  0  0  0  0  0  0  0  0  0  0
  184.8020  178.6350  147.0020 O   0  0  0  0  0  0  0  0  0  0  0  0
  187.2550  178.1170  144.3460 C   0  0  1  0  0  3  0  0  0  0  0  0
  189.7880  177.4330  144.7010 C   0  0  2  0  0  3  0  0  0  0  0  0
  191.5780  176.6390  147.9430 C   0  0  0  0  0  3  0  0  0  0  0  0
  190.7070  176.7710  145.6840 C   0  0  0  0  0  0  0  0  0  0  0  0
  192.4350  175.6040  147.5560 C   0  0  0  0  0  3  0  0  0  0  0  0
  192.4320  175.1510  146.2330 C   0  0  0  0  0  3  0  0  0  0  0  0
  191.5720  175.7360  145.2980 C   0  0  0  0  0  3  0  0  0  0  0  0
  190.7170  177.2220  147.0100 C   0  0  0  0  0  3  0  0  0  0  0  0
  190.4040  178.5320  143.8790 C   0  0  0  0  0  0  0  0  0  0  0  0
  191.1050  179.3900  144.3950 O   0  0  0  0  0  0  0  0  0  0  0  0
  190.1320  178.5800  142.4100 C   0  0  0  0  0  2  0  0  0  0  0  0
  190.6110  177.3050  141.7240 C   0  0  0  0  0  2  0  0  0  0  0  0
  189.1510  177.7370  139.8300 C   0  0  0  0  0  3  0  0  0  0  0  0
  190.3660  177.3620  140.2530 C   0  0  0  0  0  0  0  0  0  0  0  0
  188.3090  178.5660  136.4830 C   0  0  0  0  0  3  0  0  0  0  0  0
  188.3580  176.7560  137.7280 C   0  0  0  0  0  3  0  0  0  0  0  0
  188.0660  177.2010  136.4500 C   0  0  0  0  0  3  0  0  0  0  0  0
  188.7220  178.9110  137.7160 N   0  0  0  0  0  0  0  0  0  0  0  0
  188.7400  177.8160  138.4570 N   0  0  0  0  0  0  0  0  0  0  0  0
  192.8270  177.3560  139.9760 C   0  0  0  0  0  1  0  0  0  0  0  0
  191.4950  177.0200  139.3310 C   0  0  0  0  0  2  0  0  0  0  0  0
  184.8070  178.5640  144.1630 C   0  0  0  0  0  2  0  0  0  0  0  0
  183.0990  178.0180  141.0310 C   0  0  0  0  0  3  0  0  0  0  0  0
  184.0810  178.1950  141.8800 C   0  0  0  0  0  0  0  0  0  0  0  0
  185.0670  178.3880  142.7090 C   0  0  0  0  0  3  0  0  0  0  0  0
  183.2700  178.0790  139.5390 C   0  0  2  0  0  3  0  0  0  0  0  0
  184.0050  179.3520  139.1670 C   0  0  0  0  0  1  0  0  0  0  0  0
  181.9500  178.0060  138.7720 C   0  0  0  0  0  2  0  0  0  0  0  0
  182.1780  178.1690  137.2760 C   0  0  2  0  0  3  0  0  0  0  0  0
  180.9640  178.8180  136.6390 C   0  0  0  0  0  1  0  0  0  0  0  0
  182.1340  174.7620  135.6320 C   0  0  1  0  0  3  0  0  0  0  0  0
  181.4420  175.8600  136.4540 C   0  0  0  0  0  2  0  0  0  0  0  0
  183.6620  174.9950  135.7510 C   0  0  1  0  0  3  0  0  0  0  0  0
  182.4510  176.8800  136.6500 N   0  0  0  0  0  0  0  0  0  0  0  0
  183.7140  176.3940  136.2270 C   0  0  0  0  0  0  0  0  0  0  0  0
  184.7660  177.0860  136.2600 O   0  0  0  0  0  0  0  0  0  0  0  0
  180.7940  172.8840  134.9740 O   0  0  0  0  0  1  0  0  0  0  0  0
  181.6370  173.3550  135.9840 C   0  0  2  0  0  3  0  0  0  0  0  0
  180.4280  172.0330  137.4780 C   0  0  0  0  0  1  0  0  0  0  0  0
  180.9100  173.3810  137.2420 N   0  0  0  0  0  2  0  0  0  0  0  0
  184.3050  174.1340  136.7620 C   0  0  0  0  0  0  0  0  0  0  0  0
  184.8300  173.4300  137.5880 C   0  0  0  0  0  3  0  0  0  0  0  0
  2  4  1  0  0  0  0
  3 29  1  6  0  0  0
  3  5  1  0  0  0  0
  5  7  2  0  0  0  0
  5  4  1  0  0  0  0
  6  2  2  0  0  0  0
  8  1  1  6  0  0  0
  8  3  1  0  0  0  0
  8  6  1  0  0  0  0
  9 16  1  1  0  0  0
  9  6  1  0  0  0  0
  9 11  1  0  0  0  0
 11 15  1  0  0  0  0
 12 10  1  0  0  0  0
 13 12  2  0  0  0  0
 14 11  2  0  0  0  0
 14 13  1  0  0  0  0
 15 10  2  0  0  0  0
 16 17  2  0  0  0  0
 18 16  1  0  0  0  0
 19 18  1  0  0  0  0
 20 21  2  0  0  0  0
 21 19  1  0  0  0  0
 22 25  2  0  0  0  0
 23 26  1  0  0  0  0
 24 22  1  0  0  0  0
 24 23  2  0  0  0  0
 25 26  1  0  0  0  0
 26 20  1  0  0  0  0
 28 27  1  0  0  0  0
 28 21  1  0  0  0  0
 30 31  2  0  0  0  0
 31 32  2  0  0  0  0
 32 29  1  0  0  0  0
 33 34  1  1  0  0  0
 33 30  1  0  0  0  0
 35 33  1  0  0  0  0
 36 37  1  6  0  0  0
 36 35  1  0  0  0  0
 38 40  1  0  0  0  0
 38 45  1  1  0  0  0
 38 39  1  0  0  0  0
 39 41  1  0  0  0  0
 40 42  1  0  0  0  0
 40 48  1  1  0  0  0
 41 36  1  0  0  0  0
 42 43  2  0  0  0  0
 42 41  1  0  0  0  0
 45 44  1  6  0  0  0
 45 47  1  0  0  0  0
 47 46  1  0  0  0  0
 48 49  3  0  0  0  0
M  END
>  <MODEL>
9

>  <REMARK>
 VINA RESULT:      -7.0      2.111      3.389
  Name = 
  17 active torsions:
  status: ('A' for Active; 'I' for Inactive)
    1  A    between atoms: C_4  and  C_17
    2  A    between atoms: C_5  and  C_8
    3  A    between atoms: C_5  and  C_13
    4  A    between atoms: C_5  and  C_31
    5  A    between atoms: C_6  and  C_42
    6  A    between atoms: C_6  and  C_48
    7  A    between atoms: C_7  and  C_26
    8  A    between atoms: C_8  and  C_48
    9  A    between atoms: C_9  and  C_45
   10  A    between atoms: C_11  and  C_41
   11  A    between atoms: C_16  and  N_18
   12  A    between atoms: C_16  and  C_39
   13  A    between atoms: C_26  and  C_39
   14  A    between atoms: C_29  and  N_38
   15  A    between atoms: C_34  and  C_41
   16  A    between atoms: C_37  and  C_42
   17  A    between atoms: N_44  and  C_45
                            x       y       z     vdW  Elec       q    Type
                         _______ _______ _______ _____ _____    ______ ____

>  <TORSDO>
F 17

$$$$
