=
 OpenBabel11062414163D

 60 68  0  0  1  0  0  0  0  0999 V2000
  183.3950  178.2420  142.3210 C   0  0  0  0  0  2  0  0  0  0  0  0
  184.4280  178.2820  143.4510 C   0  0  2  0  0  3  0  0  0  0  0  0
  182.7460  179.5680  144.6040 F   0  0  0  0  0  0  0  0  0  0  0  0
  184.7340  180.5370  144.1590 F   0  0  0  0  0  0  0  0  0  0  0  0
  184.5950  178.9650  145.7580 F   0  0  0  0  0  0  0  0  0  0  0  0
  184.1150  179.3480  144.5150 C   0  0  0  0  0  0  0  0  0  0  0  0
  185.7520  178.5100  142.8690 N   0  0  0  0  0  2  0  0  0  0  0  0
  186.7960  177.7480  143.5690 C   0  0  2  0  0  0  0  0  0  0  0  0
  186.2820  176.5210  144.0040 O   0  0  0  0  0  1  0  0  0  0  0  0
  187.2700  178.5110  144.7170 N   0  0  0  0  0  1  0  0  0  0  0  0
  187.9530  177.4750  142.5810 C   0  0  2  0  0  3  0  0  0  0  0  0
  190.0370  176.4050  143.3910 N   0  0  0  0  0  0  0  0  0  0  0  0
  192.0230  175.2600  143.9070 F   0  0  0  0  0  0  0  0  0  0  0  0
  189.3460  177.5600  143.1630 C   0  0  0  0  0  0  0  0  0  0  0  0
  191.3590  176.4200  143.7110 C   0  0  0  0  0  0  0  0  0  0  0  0
  190.0150  178.7900  143.2400 C   0  0  0  0  0  3  0  0  0  0  0  0
  191.3640  178.8250  143.5820 C   0  0  0  0  0  3  0  0  0  0  0  0
  192.0460  177.6340  143.8110 C   0  0  0  0  0  3  0  0  0  0  0  0
  187.8640  178.3490  141.4220 N   0  0  0  0  0  2  0  0  0  0  0  0
  187.5860  177.5280  140.3200 N   0  0  0  0  0  2  0  0  0  0  0  0
  189.0990  176.4680  136.0460 O   0  0  0  0  0  0  0  0  0  0  0  0
  191.4120  176.2750  137.8900 C   0  0  0  0  0  2  0  0  0  0  0  0
  190.9050  177.3340  139.9820 C   0  0  0  0  0  2  0  0  0  0  0  0
  192.0690  176.8290  139.1350 C   0  0  0  0  0  2  0  0  0  0  0  0
  189.6870  176.6860  139.5030 N   0  0  2  0  0  0  0  0  0  0  0  0
  190.0030  176.2610  138.2030 N   0  0  0  0  0  0  0  0  0  0  0  0
  188.6400  177.7140  139.3310 C   0  0  1  0  0  3  0  0  0  0  0  0
  189.0490  176.7180  137.2780 C   0  0  0  0  0  0  0  0  0  0  0  0
  188.0270  177.5360  137.9350 C   0  0  2  0  0  3  0  0  0  0  0  0
  187.8580  178.8860  137.2570 C   0  0  0  0  0  2  0  0  0  0  0  0
  188.9530  179.6940  137.5870 O   0  0  0  0  0  1  0  0  0  0  0  0
  184.0360  177.7660  141.0320 C   0  0  0  0  0  2  0  0  0  0  0  0
  182.2960  179.4470  139.8350 S   0  0  0  0  0  0  0  0  0  0  0  0
  183.9830  178.8350  139.9560 C   0  0  2  0  0  3  0  0  0  0  0  0
  184.3060  178.2360  138.6070 C   0  0  0  0  0  2  0  0  0  0  0  0
  183.1390  177.5130  138.1320 N   0  0  0  0  0  2  0  0  0  0  0  0
  181.9630  178.3320  138.4360 C   0  0  1  0  0  3  0  0  0  0  0  0
  180.9650  176.6960  139.9880 N   0  0  0  0  0  0  0  0  0  0  0  0
  180.4690  176.4180  137.7450 C   0  0  0  0  0  0  0  0  0  0  0  0
  180.7440  177.4650  138.7710 C   0  0  2  0  0  3  0  0  0  0  0  0
  180.4840  175.0700  138.3560 C   0  0  2  0  0  3  0  0  0  0  0  0
  180.3520  172.0160  135.5800 C   0  0  2  0  0  0  0  0  0  0  0  0
  181.8550  172.8400  134.9130 S   0  0  0  0  0  0  0  0  0  0  0  0
  179.8030  170.7520  135.0550 C   0  0  0  0  0  2  0  0  0  0  0  0
  180.7870  175.4290  139.7720 C   0  0  0  0  0  0  0  0  0  0  0  0
  180.2310  176.5840  136.4460 C   0  0  0  0  0  0  0  0  0  0  0  0
  181.2280  172.9900  137.1910 C   0  0  1  0  0  3  0  0  0  0  0  0
  181.4690  174.1260  136.1350 C   0  0  1  0  0  0  0  0  0  0  0  0
  181.6290  174.3080  137.6860 C   0  0  1  0  0  3  0  0  0  0  0  0
  179.2730  172.0090  134.6730 O   0  0  0  0  0  0  0  0  0  0  0  0
  179.9760  172.5000  136.8360 O   0  0  0  0  0  0  0  0  0  0  0  0
  179.9930  175.0760  135.4780 S   0  0  0  0  0  0  0  0  0  0  0  0
  180.7560  174.5110  140.8210 O   0  0  0  0  0  0  0  0  0  0  0  0
  179.5280  173.8670  141.1420 C   0  0  0  0  0  1  0  0  0  0  0  0
  178.9360  178.2710  135.3480 O   0  0  0  0  0  1  0  0  0  0  0  0
  180.2120  177.9640  135.8330 C   0  0  2  0  0  3  0  0  0  0  0  0
  181.2920  178.2400  134.7780 C   0  0  2  0  0  3  0  0  0  0  0  0
  182.3310  177.3170  134.9210 O   0  0  0  0  0  1  0  0  0  0  0  0
  181.8500  179.6660  134.7980 C   0  0  0  0  0  2  0  0  0  0  0  0
  180.9740  180.5410  135.4480 O   0  0  0  0  0  1  0  0  0  0  0  0
  2  1  1  6  0  0  0
  2  6  1  0  0  0  0
  4  6  1  0  0  0  0
  6  3  1  0  0  0  0
  6  5  1  0  0  0  0
  7  2  1  0  0  0  0
  7  8  1  0  0  0  0
  8  9  1  1  0  0  0
  8 10  1  0  0  0  0
 11 19  1  6  0  0  0
 11 14  1  0  0  0  0
 11  8  1  0  0  0  0
 12 15  1  0  0  0  0
 14 16  1  0  0  0  0
 14 12  2  0  0  0  0
 15 18  2  0  0  0  0
 15 13  1  0  0  0  0
 16 17  2  0  0  0  0
 17 18  1  0  0  0  0
 20 19  1  0  0  0  0
 21 28  2  0  0  0  0
 22 26  1  0  0  0  0
 22 24  1  0  0  0  0
 24 23  1  0  0  0  0
 25 23  1  6  0  0  0
 26 25  1  0  0  0  0
 27 25  1  0  0  0  0
 27 20  1  1  0  0  0
 28 29  1  0  0  0  0
 28 26  1  0  0  0  0
 29 30  1  6  0  0  0
 29 27  1  0  0  0  0
 30 31  1  0  0  0  0
 32  1  1  0  0  0  0
 33 34  1  0  0  0  0
 34 32  1  1  0  0  0
 35 34  1  0  0  0  0
 36 35  1  0  0  0  0
 37 36  1  1  0  0  0
 37 40  1  0  0  0  0
 37 33  1  0  0  0  0
 40 39  1  6  0  0  0
 40 38  1  0  0  0  0
 41 39  1  6  0  0  0
 41 45  1  0  0  0  0
 42 44  1  1  0  0  0
 42 51  1  0  0  0  0
 43 42  1  0  0  0  0
 45 38  2  0  0  0  0
 45 53  1  0  0  0  0
 46 39  2  0  0  0  0
 47 51  1  1  0  0  0
 47 49  1  0  0  0  0
 48 43  1  6  0  0  0
 48 47  1  0  0  0  0
 48 49  1  0  0  0  0
 49 41  1  0  0  0  0
 50 44  1  0  0  0  0
 50 42  1  0  0  0  0
 52 48  1  0  0  0  0
 52 46  1  0  0  0  0
 53 54  1  0  0  0  0
 55 56  1  0  0  0  0
 56 46  1  0  0  0  0
 57 59  1  0  0  0  0
 57 58  1  0  0  0  0
 57 56  1  0  0  0  0
 59 60  1  0  0  0  0
M  END
>  <MODEL>
1

>  <REMARK>
 VINA RESULT:      -5.9      0.000      0.000
  Name = 
  17 active torsions:
  status: ('A' for Active; 'I' for Inactive)
    1  A    between atoms: N_2  and  N_36
    2  A    between atoms: N_2  and  C_43
    3  A    between atoms: C_5  and  C_45
    4  A    between atoms: C_5  and  C_59
    5  A    between atoms: C_8  and  C_28
    6  A    between atoms: C_8  and  N_55
    7  A    between atoms: O_14  and  C_32
    8  A    between atoms: C_15  and  C_28
    9  A    between atoms: C_16  and  C_50
   10  A    between atoms: C_22  and  C_45
   11  A    between atoms: C_25  and  C_27
   12  A    between atoms: C_25  and  C_31
   13  A    between atoms: C_28  and  N_36
   14  A    between atoms: C_31  and  C_34
   15  A    between atoms: C_38  and  C_51
   16  A    between atoms: C_44  and  C_59
   17  A    between atoms: N_55  and  C_59
                            x       y       z     vdW  Elec       q    Type
                         _______ _______ _______ _____ _____    ______ ____

>  <TORSDO>
F 17

$$$$
=
 OpenBabel11062414163D

 60 68  0  0  1  0  0  0  0  0999 V2000
  183.0640  179.0090  141.9550 C   0  0  0  0  0  2  0  0  0  0  0  0
  183.8210  178.4260  143.1520 C   0  0  2  0  0  3  0  0  0  0  0  0
  183.0930  180.1920  144.6240 F   0  0  0  0  0  0  0  0  0  0  0  0
  184.0030  178.3350  145.5260 F   0  0  0  0  0  0  0  0  0  0  0  0
  181.9380  178.2480  144.6480 F   0  0  0  0  0  0  0  0  0  0  0  0
  183.1960  178.8120  144.5040 C   0  0  0  0  0  0  0  0  0  0  0  0
  185.2150  178.8670  143.0850 N   0  0  0  0  0  2  0  0  0  0  0  0
  185.8170  178.5820  141.7740 C   0  0  2  0  0  0  0  0  0  0  0  0
  186.1240  179.7800  141.1190 O   0  0  0  0  0  1  0  0  0  0  0  0
  184.8820  177.8100  140.9650 N   0  0  0  0  0  1  0  0  0  0  0  0
  187.1270  177.7920  141.9950 C   0  0  2  0  0  3  0  0  0  0  0  0
  187.0320  177.6110  144.4650 N   0  0  0  0  0  0  0  0  0  0  0  0
  186.8660  177.1700  146.7670 F   0  0  0  0  0  0  0  0  0  0  0  0
  187.7620  177.9410  143.3590 C   0  0  0  0  0  0  0  0  0  0  0  0
  187.6080  177.5220  145.6940 C   0  0  0  0  0  0  0  0  0  0  0  0
  189.1380  178.1750  143.4850 C   0  0  0  0  0  3  0  0  0  0  0  0
  189.7400  178.1040  144.7390 C   0  0  0  0  0  3  0  0  0  0  0  0
  188.9750  177.7670  145.8510 C   0  0  0  0  0  3  0  0  0  0  0  0
  188.1090  178.1180  140.9720 N   0  0  0  0  0  2  0  0  0  0  0  0
  188.7950  176.9300  140.6800 N   0  0  0  0  0  2  0  0  0  0  0  0
  189.6100  175.7380  136.2540 O   0  0  0  0  0  0  0  0  0  0  0  0
  192.2280  175.9090  137.6330 C   0  0  0  0  0  2  0  0  0  0  0  0
  191.9970  177.0510  139.7300 C   0  0  0  0  0  2  0  0  0  0  0  0
  193.0360  176.6110  138.7040 C   0  0  0  0  0  2  0  0  0  0  0  0
  190.7930  176.2520  139.5220 N   0  0  2  0  0  0  0  0  0  0  0  0
  190.9110  175.7730  138.2090 N   0  0  0  0  0  0  0  0  0  0  0  0
  189.6220  177.1540  139.5020 C   0  0  1  0  0  3  0  0  0  0  0  0
  189.7590  176.0660  137.4600 C   0  0  0  0  0  0  0  0  0  0  0  0
  188.7880  176.8190  138.2580 C   0  0  2  0  0  3  0  0  0  0  0  0
  188.3470  178.0950  137.5590 C   0  0  0  0  0  2  0  0  0  0  0  0
  187.1670  178.5500  138.1580 O   0  0  0  0  0  1  0  0  0  0  0  0
  181.6540  178.4560  141.8980 C   0  0  0  0  0  2  0  0  0  0  0  0
  179.0390  178.7520  141.2930 S   0  0  0  0  0  0  0  0  0  0  0  0
  180.6530  179.5220  141.4920 C   0  0  2  0  0  3  0  0  0  0  0  0
  181.0130  180.0910  140.1400 C   0  0  0  0  0  2  0  0  0  0  0  0
  180.6120  179.1390  139.1180 N   0  0  0  0  0  2  0  0  0  0  0  0
  179.2960  178.6200  139.4950 C   0  0  1  0  0  3  0  0  0  0  0  0
  179.2560  176.2630  140.2200 N   0  0  0  0  0  0  0  0  0  0  0  0
  180.1930  176.6840  138.1470 C   0  0  0  0  0  0  0  0  0  0  0  0
  179.1260  177.1550  139.0760 C   0  0  2  0  0  3  0  0  0  0  0  0
  180.9020  175.5140  138.7140 C   0  0  2  0  0  3  0  0  0  0  0  0
  184.2730  174.4530  136.5790 C   0  0  2  0  0  0  0  0  0  0  0  0
  184.7720  176.1930  136.9060 S   0  0  0  0  0  0  0  0  0  0  0  0
  185.1280  173.4640  135.8970 C   0  0  0  0  0  2  0  0  0  0  0  0
  180.1730  175.3700  140.0070 C   0  0  0  0  0  0  0  0  0  0  0  0
  180.5270  177.1820  136.9590 C   0  0  0  0  0  0  0  0  0  0  0  0
  183.3160  174.9970  138.3400 C   0  0  1  0  0  3  0  0  0  0  0  0
  183.0950  176.3540  137.5830 C   0  0  1  0  0  0  0  0  0  0  0  0
  182.3570  175.9460  138.9070 C   0  0  1  0  0  3  0  0  0  0  0  0
  184.1110  174.1690  135.2080 O   0  0  0  0  0  0  0  0  0  0  0  0
  183.1640  174.0520  137.3310 O   0  0  0  0  0  0  0  0  0  0  0  0
  181.9200  176.3920  136.1220 S   0  0  0  0  0  0  0  0  0  0  0  0
  180.3500  174.2920  140.8740 O   0  0  0  0  0  0  0  0  0  0  0  0
  179.2940  173.9310  141.7560 C   0  0  0  0  0  1  0  0  0  0  0  0
  178.9310  177.9730  135.3600 O   0  0  0  0  0  1  0  0  0  0  0  0
  179.7940  178.3720  136.3860 C   0  0  2  0  0  3  0  0  0  0  0  0
  180.6750  179.5500  135.9490 C   0  0  2  0  0  3  0  0  0  0  0  0
  181.8840  179.5140  136.6460 O   0  0  0  0  0  1  0  0  0  0  0  0
  180.0200  180.9260  136.1060 C   0  0  0  0  0  2  0  0  0  0  0  0
  180.7460  181.9100  135.4280 O   0  0  0  0  0  1  0  0  0  0  0  0
  2  1  1  6  0  0  0
  2  6  1  0  0  0  0
  6  3  1  0  0  0  0
  6  5  1  0  0  0  0
  6  4  1  0  0  0  0
  7  2  1  0  0  0  0
  8 10  1  6  0  0  0
  8 11  1  0  0  0  0
  8  7  1  0  0  0  0
  9  8  1  0  0  0  0
 11 19  1  6  0  0  0
 11 14  1  0  0  0  0
 12 15  1  0  0  0  0
 14 16  1  0  0  0  0
 14 12  2  0  0  0  0
 15 18  2  0  0  0  0
 15 13  1  0  0  0  0
 16 17  2  0  0  0  0
 17 18  1  0  0  0  0
 20 19  1  0  0  0  0
 21 28  2  0  0  0  0
 22 26  1  0  0  0  0
 22 24  1  0  0  0  0
 24 23  1  0  0  0  0
 25 23  1  6  0  0  0
 26 25  1  0  0  0  0
 27 25  1  0  0  0  0
 27 20  1  1  0  0  0
 28 26  1  0  0  0  0
 28 29  1  0  0  0  0
 29 30  1  6  0  0  0
 29 27  1  0  0  0  0
 30 31  1  0  0  0  0
 32  1  1  0  0  0  0
 33 34  1  0  0  0  0
 34 32  1  6  0  0  0
 35 34  1  0  0  0  0
 36 35  1  0  0  0  0
 37 36  1  1  0  0  0
 37 33  1  0  0  0  0
 40 39  1  6  0  0  0
 40 37  1  0  0  0  0
 40 38  1  0  0  0  0
 41 39  1  6  0  0  0
 41 49  1  0  0  0  0
 41 45  1  0  0  0  0
 42 44  1  1  0  0  0
 42 43  1  0  0  0  0
 42 51  1  0  0  0  0
 43 48  1  0  0  0  0
 45 38  2  0  0  0  0
 45 53  1  0  0  0  0
 46 39  2  0  0  0  0
 47 51  1  6  0  0  0
 47 49  1  0  0  0  0
 48 52  1  6  0  0  0
 48 47  1  0  0  0  0
 48 49  1  0  0  0  0
 50 44  1  0  0  0  0
 50 42  1  0  0  0  0
 52 46  1  0  0  0  0
 53 54  1  0  0  0  0
 55 56  1  0  0  0  0
 56 46  1  0  0  0  0
 57 59  1  0  0  0  0
 57 56  1  0  0  0  0
 57 58  1  0  0  0  0
 60 59  1  0  0  0  0
M  END
>  <MODEL>
2

>  <REMARK>
 VINA RESULT:      -5.0      2.295      2.665
  Name = 
  17 active torsions:
  status: ('A' for Active; 'I' for Inactive)
    1  A    between atoms: N_2  and  N_36
    2  A    between atoms: N_2  and  C_43
    3  A    between atoms: C_5  and  C_45
    4  A    between atoms: C_5  and  C_59
    5  A    between atoms: C_8  and  C_28
    6  A    between atoms: C_8  and  N_55
    7  A    between atoms: O_14  and  C_32
    8  A    between atoms: C_15  and  C_28
    9  A    between atoms: C_16  and  C_50
   10  A    between atoms: C_22  and  C_45
   11  A    between atoms: C_25  and  C_27
   12  A    between atoms: C_25  and  C_31
   13  A    between atoms: C_28  and  N_36
   14  A    between atoms: C_31  and  C_34
   15  A    between atoms: C_38  and  C_51
   16  A    between atoms: C_44  and  C_59
   17  A    between atoms: N_55  and  C_59
                            x       y       z     vdW  Elec       q    Type
                         _______ _______ _______ _____ _____    ______ ____

>  <TORSDO>
F 17

$$$$
=
 OpenBabel11062414163D

 60 68  0  0  1  0  0  0  0  0999 V2000
  183.8820  178.7360  141.1360 C   0  0  0  0  0  2  0  0  0  0  0  0
  184.3580  178.1400  142.4640 C   0  0  2  0  0  3  0  0  0  0  0  0
  182.5330  179.2550  143.5770 F   0  0  0  0  0  0  0  0  0  0  0  0
  184.6080  180.1190  143.7680 F   0  0  0  0  0  0  0  0  0  0  0  0
  184.0870  178.2270  144.8590 F   0  0  0  0  0  0  0  0  0  0  0  0
  183.8820  178.9410  143.6880 C   0  0  0  0  0  0  0  0  0  0  0  0
  185.8190  178.0540  142.4430 N   0  0  0  0  0  2  0  0  0  0  0  0
  186.3900  178.7160  141.2610 C   0  0  2  0  0  0  0  0  0  0  0  0
  186.1730  180.0970  141.3350 O   0  0  0  0  0  1  0  0  0  0  0  0
  185.7610  178.1890  140.0560 N   0  0  0  0  0  1  0  0  0  0  0  0
  187.9140  178.4580  141.2380 C   0  0  2  0  0  3  0  0  0  0  0  0
  188.0030  178.5820  138.7640 N   0  0  0  0  0  0  0  0  0  0  0  0
  188.1290  178.9770  136.4520 F   0  0  0  0  0  0  0  0  0  0  0  0
  188.4840  178.0160  139.9100 C   0  0  0  0  0  0  0  0  0  0  0  0
  188.6140  178.3850  137.5650 C   0  0  0  0  0  0  0  0  0  0  0  0
  189.6450  177.2310  139.8570 C   0  0  0  0  0  3  0  0  0  0  0  0
  190.2730  177.0060  138.6350 C   0  0  0  0  0  3  0  0  0  0  0  0
  189.7620  177.5920  137.4810 C   0  0  0  0  0  3  0  0  0  0  0  0
  188.2930  177.5010  142.2650 N   0  0  0  0  0  2  0  0  0  0  0  0
  189.0840  178.1970  143.1910 N   0  0  0  0  0  2  0  0  0  0  0  0
  188.9990  177.9940  147.8420 O   0  0  0  0  0  0  0  0  0  0  0  0
  191.4150  176.5430  146.9250 C   0  0  0  0  0  2  0  0  0  0  0  0
  191.2770  176.0880  144.5740 C   0  0  0  0  0  2  0  0  0  0  0  0
  192.0190  175.6770  145.8410 C   0  0  0  0  0  2  0  0  0  0  0  0
  190.6730  177.3960  144.8110 N   0  0  2  0  0  0  0  0  0  0  0  0
  190.6150  177.5080  146.2090 N   0  0  0  0  0  0  0  0  0  0  0  0
  189.2640  177.3560  144.3670 C   0  0  1  0  0  3  0  0  0  0  0  0
  189.3150  177.8310  146.6350 C   0  0  0  0  0  0  0  0  0  0  0  0
  188.3940  177.9180  145.4990 C   0  0  2  0  0  3  0  0  0  0  0  0
  187.1620  177.0500  145.6990 C   0  0  0  0  0  2  0  0  0  0  0  0
  186.3150  177.6780  146.6200 O   0  0  0  0  0  1  0  0  0  0  0  0
  182.3950  178.5060  140.9540 C   0  0  0  0  0  2  0  0  0  0  0  0
  179.9660  179.3530  140.1340 S   0  0  0  0  0  0  0  0  0  0  0  0
  181.7310  179.6800  140.2580 C   0  0  2  0  0  3  0  0  0  0  0  0
  182.2330  179.7990  138.8390 C   0  0  0  0  0  2  0  0  0  0  0  0
  181.5810  178.7830  138.0320 N   0  0  0  0  0  2  0  0  0  0  0  0
  180.1730  178.7430  138.4320 C   0  0  1  0  0  3  0  0  0  0  0  0
  179.7050  176.6320  139.6170 N   0  0  0  0  0  0  0  0  0  0  0  0
  180.3600  176.4440  137.4060 C   0  0  0  0  0  0  0  0  0  0  0  0
  179.6000  177.3240  138.3400 C   0  0  2  0  0  3  0  0  0  0  0  0
  180.8600  175.2420  138.1100 C   0  0  2  0  0  3  0  0  0  0  0  0
  183.4920  173.0020  135.8500 C   0  0  2  0  0  0  0  0  0  0  0  0
  184.4290  174.5820  135.7570 S   0  0  0  0  0  0  0  0  0  0  0  0
  183.9690  171.7270  135.2850 C   0  0  0  0  0  2  0  0  0  0  0  0
  180.3410  175.5080  139.4820 C   0  0  0  0  0  0  0  0  0  0  0  0
  180.5990  176.6340  136.1110 C   0  0  0  0  0  0  0  0  0  0  0  0
  182.9920  174.0610  137.5650 C   0  0  1  0  0  3  0  0  0  0  0  0
  182.9710  175.2830  136.5810 C   0  0  1  0  0  0  0  0  0  0  0  0
  182.3870  175.3070  138.0380 C   0  0  1  0  0  3  0  0  0  0  0  0
  183.0450  172.5470  134.5940 O   0  0  0  0  0  0  0  0  0  0  0  0
  182.4600  173.0340  136.7930 O   0  0  0  0  0  0  0  0  0  0  0  0
  181.6130  175.3820  135.2920 S   0  0  0  0  0  0  0  0  0  0  0  0
  180.4030  174.5810  140.5220 O   0  0  0  0  0  0  0  0  0  0  0  0
  179.5940  174.7780  141.6750 C   0  0  0  0  0  1  0  0  0  0  0  0
  178.9620  177.5440  134.6200 O   0  0  0  0  0  1  0  0  0  0  0  0
  180.0790  177.8610  135.4000 C   0  0  2  0  0  3  0  0  0  0  0  0
  181.1170  178.6540  134.5940 C   0  0  2  0  0  3  0  0  0  0  0  0
  182.4000  178.2010  134.9090 O   0  0  0  0  0  1  0  0  0  0  0  0
  181.0370  180.1730  134.7760 C   0  0  0  0  0  2  0  0  0  0  0  0
  179.7140  180.5920  134.9440 O   0  0  0  0  0  1  0  0  0  0  0  0
  2  1  1  6  0  0  0
  2  6  1  0  0  0  0
  3  6  1  0  0  0  0
  6  4  1  0  0  0  0
  6  5  1  0  0  0  0
  7  2  1  0  0  0  0
  8 10  1  6  0  0  0
  8  9  1  0  0  0  0
  8  7  1  0  0  0  0
 11  8  1  0  0  0  0
 11 19  1  1  0  0  0
 12 14  1  0  0  0  0
 13 15  1  0  0  0  0
 14 11  1  0  0  0  0
 15 12  2  0  0  0  0
 16 14  2  0  0  0  0
 17 16  1  0  0  0  0
 18 15  1  0  0  0  0
 18 17  2  0  0  0  0
 19 20  1  0  0  0  0
 23 24  1  0  0  0  0
 24 22  1  0  0  0  0
 25 23  1  1  0  0  0
 25 26  1  0  0  0  0
 26 28  1  0  0  0  0
 26 22  1  0  0  0  0
 27 20  1  6  0  0  0
 27 25  1  0  0  0  0
 27 29  1  0  0  0  0
 28 21  2  0  0  0  0
 29 30  1  1  0  0  0
 29 28  1  0  0  0  0
 30 31  1  0  0  0  0
 32  1  1  0  0  0  0
 33 34  1  0  0  0  0
 34 32  1  6  0  0  0
 35 34  1  0  0  0  0
 36 35  1  0  0  0  0
 37 36  1  1  0  0  0
 37 33  1  0  0  0  0
 40 39  1  6  0  0  0
 40 37  1  0  0  0  0
 40 38  1  0  0  0  0
 41 39  1  6  0  0  0
 41 45  1  0  0  0  0
 42 44  1  1  0  0  0
 42 51  1  0  0  0  0
 43 42  1  0  0  0  0
 43 48  1  0  0  0  0
 45 38  2  0  0  0  0
 45 53  1  0  0  0  0
 46 39  2  0  0  0  0
 47 51  1  6  0  0  0
 47 49  1  0  0  0  0
 48 52  1  6  0  0  0
 48 47  1  0  0  0  0
 48 49  1  0  0  0  0
 49 41  1  0  0  0  0
 50 44  1  0  0  0  0
 50 42  1  0  0  0  0
 52 46  1  0  0  0  0
 53 54  1  0  0  0  0
 55 56  1  0  0  0  0
 56 46  1  0  0  0  0
 57 59  1  0  0  0  0
 57 58  1  0  0  0  0
 57 56  1  0  0  0  0
 59 60  1  0  0  0  0
M  END
>  <MODEL>
3

>  <REMARK>
 VINA RESULT:      -4.7      2.334      4.430
  Name = 
  17 active torsions:
  status: ('A' for Active; 'I' for Inactive)
    1  A    between atoms: N_2  and  N_36
    2  A    between atoms: N_2  and  C_43
    3  A    between atoms: C_5  and  C_45
    4  A    between atoms: C_5  and  C_59
    5  A    between atoms: C_8  and  C_28
    6  A    between atoms: C_8  and  N_55
    7  A    between atoms: O_14  and  C_32
    8  A    between atoms: C_15  and  C_28
    9  A    between atoms: C_16  and  C_50
   10  A    between atoms: C_22  and  C_45
   11  A    between atoms: C_25  and  C_27
   12  A    between atoms: C_25  and  C_31
   13  A    between atoms: C_28  and  N_36
   14  A    between atoms: C_31  and  C_34
   15  A    between atoms: C_38  and  C_51
   16  A    between atoms: C_44  and  C_59
   17  A    between atoms: N_55  and  C_59
                            x       y       z     vdW  Elec       q    Type
                         _______ _______ _______ _____ _____    ______ ____

>  <TORSDO>
F 17

$$$$
=
 OpenBabel11062414163D

 60 68  0  0  1  0  0  0  0  0999 V2000
  183.0600  178.9800  141.5200 C   0  0  0  0  0  2  0  0  0  0  0  0
  184.1360  178.6590  142.5610 C   0  0  2  0  0  3  0  0  0  0  0  0
  182.6700  178.3880  144.4560 F   0  0  0  0  0  0  0  0  0  0  0  0
  183.4110  180.4570  143.9470 F   0  0  0  0  0  0  0  0  0  0  0  0
  184.8210  178.9620  144.8540 F   0  0  0  0  0  0  0  0  0  0  0  0
  183.7550  179.1140  143.9810 C   0  0  0  0  0  0  0  0  0  0  0  0
  185.3940  179.2800  142.1440 N   0  0  0  0  0  2  0  0  0  0  0  0
  186.2960  178.3120  141.5010 C   0  0  2  0  0  0  0  0  0  0  0  0
  185.7480  177.8840  140.2860 O   0  0  0  0  0  1  0  0  0  0  0  0
  186.4870  177.1650  142.3790 N   0  0  0  0  0  1  0  0  0  0  0  0
  187.6450  179.0100  141.2140 C   0  0  2  0  0  3  0  0  0  0  0  0
  188.3490  178.6430  138.8660 N   0  0  0  0  0  0  0  0  0  0  0  0
  189.0510  178.5760  136.6250 F   0  0  0  0  0  0  0  0  0  0  0  0
  188.5250  178.3380  140.1850 C   0  0  0  0  0  0  0  0  0  0  0  0
  189.2380  178.2380  137.9200 C   0  0  0  0  0  0  0  0  0  0  0  0
  189.6560  177.6090  140.5800 C   0  0  0  0  0  3  0  0  0  0  0  0
  190.5670  177.1730  139.6220 C   0  0  0  0  0  3  0  0  0  0  0  0
  190.3650  177.4960  138.2830 C   0  0  0  0  0  3  0  0  0  0  0  0
  188.4020  179.2010  142.4420 N   0  0  0  0  0  2  0  0  0  0  0  0
  188.5120  177.9400  143.0460 N   0  0  0  0  0  2  0  0  0  0  0  0
  192.0180  176.3280  145.6520 O   0  0  0  0  0  0  0  0  0  0  0  0
  189.7150  176.8230  147.4520 C   0  0  0  0  0  2  0  0  0  0  0  0
  188.0650  178.1690  146.3500 C   0  0  0  0  0  2  0  0  0  0  0  0
  188.5060  177.6890  147.7280 C   0  0  0  0  0  2  0  0  0  0  0  0
  188.6470  177.2740  145.3540 N   0  0  2  0  0  0  0  0  0  0  0  0
  189.7220  176.6630  146.0180 N   0  0  0  0  0  0  0  0  0  0  0  0
  189.2620  178.0880  144.2860 C   0  0  1  0  0  3  0  0  0  0  0  0
  190.9100  176.7950  145.2790 C   0  0  0  0  0  0  0  0  0  0  0  0
  190.6860  177.5650  144.0530 C   0  0  2  0  0  3  0  0  0  0  0  0
  191.6600  178.7250  143.9250 C   0  0  0  0  0  2  0  0  0  0  0  0
  190.9560  179.9230  144.0950 O   0  0  0  0  0  1  0  0  0  0  0  0
  181.7130  178.4490  141.9680 C   0  0  0  0  0  2  0  0  0  0  0  0
  179.0540  178.5730  141.5170 S   0  0  0  0  0  0  0  0  0  0  0  0
  180.6070  179.4590  141.7230 C   0  0  2  0  0  3  0  0  0  0  0  0
  180.8450  180.1910  140.4240 C   0  0  0  0  0  2  0  0  0  0  0  0
  180.4690  179.3160  139.3260 N   0  0  0  0  0  2  0  0  0  0  0  0
  179.2230  178.6480  139.7060 C   0  0  1  0  0  3  0  0  0  0  0  0
  179.3400  176.2330  140.1940 N   0  0  0  0  0  0  0  0  0  0  0  0
  180.2490  176.9190  138.1800 C   0  0  0  0  0  0  0  0  0  0  0  0
  179.1520  177.2240  139.1420 C   0  0  2  0  0  3  0  0  0  0  0  0
  181.0340  175.7490  138.6340 C   0  0  2  0  0  3  0  0  0  0  0  0
  184.4720  175.1320  136.4310 C   0  0  2  0  0  0  0  0  0  0  0  0
  184.8520  176.8600  136.9310 S   0  0  0  0  0  0  0  0  0  0  0  0
  185.3920  174.2750  135.6600 C   0  0  0  0  0  2  0  0  0  0  0  0
  180.3150  175.4280  139.9010 C   0  0  0  0  0  0  0  0  0  0  0  0
  180.5500  177.5540  137.0490 C   0  0  0  0  0  0  0  0  0  0  0  0
  183.4780  175.4340  138.2290 C   0  0  1  0  0  3  0  0  0  0  0  0
  183.1680  176.8410  137.6080 C   0  0  1  0  0  0  0  0  0  0  0  0
  182.4570  176.2560  138.8800 C   0  0  1  0  0  3  0  0  0  0  0  0
  184.3300  174.9750  135.0370 O   0  0  0  0  0  0  0  0  0  0  0  0
  183.3910  174.5860  137.1300 O   0  0  0  0  0  0  0  0  0  0  0  0
  181.9950  176.9450  136.1490 S   0  0  0  0  0  0  0  0  0  0  0  0
  180.5640  174.2840  140.6580 O   0  0  0  0  0  0  0  0  0  0  0  0
  179.4650  173.5610  141.2020 C   0  0  0  0  0  1  0  0  0  0  0  0
  178.9410  178.4040  135.4940 O   0  0  0  0  0  1  0  0  0  0  0  0
  179.7390  178.7430  136.5910 C   0  0  2  0  0  3  0  0  0  0  0  0
  180.5340  180.0300  136.3280 C   0  0  2  0  0  3  0  0  0  0  0  0
  180.0700  181.0460  137.1670 O   0  0  0  0  0  1  0  0  0  0  0  0
  180.5120  180.5020  134.8720 C   0  0  0  0  0  2  0  0  0  0  0  0
  181.5980  181.3390  134.5970 O   0  0  0  0  0  1  0  0  0  0  0  0
  1 32  1  0  0  0  0
  2  1  1  6  0  0  0
  2  6  1  0  0  0  0
  4  6  1  0  0  0  0
  6  3  1  0  0  0  0
  6  5  1  0  0  0  0
  7  2  1  0  0  0  0
  8  9  1  6  0  0  0
  8  7  1  0  0  0  0
  8 10  1  0  0  0  0
 11  8  1  0  0  0  0
 11 19  1  1  0  0  0
 12 14  1  0  0  0  0
 13 15  1  0  0  0  0
 14 16  2  0  0  0  0
 14 11  1  0  0  0  0
 15 18  1  0  0  0  0
 15 12  2  0  0  0  0
 17 16  1  0  0  0  0
 18 17  2  0  0  0  0
 19 20  1  0  0  0  0
 22 24  1  0  0  0  0
 23 24  1  0  0  0  0
 25 26  1  0  0  0  0
 25 23  1  1  0  0  0
 26 22  1  0  0  0  0
 27 20  1  6  0  0  0
 27 25  1  0  0  0  0
 28 21  2  0  0  0  0
 28 26  1  0  0  0  0
 29 30  1  1  0  0  0
 29 27  1  0  0  0  0
 29 28  1  0  0  0  0
 30 31  1  0  0  0  0
 33 34  1  0  0  0  0
 34 32  1  6  0  0  0
 35 34  1  0  0  0  0
 36 35  1  0  0  0  0
 37 36  1  1  0  0  0
 37 33  1  0  0  0  0
 40 39  1  6  0  0  0
 40 37  1  0  0  0  0
 40 38  1  0  0  0  0
 41 39  1  1  0  0  0
 41 49  1  0  0  0  0
 41 45  1  0  0  0  0
 42 44  1  1  0  0  0
 42 43  1  0  0  0  0
 42 51  1  0  0  0  0
 43 48  1  0  0  0  0
 45 38  2  0  0  0  0
 45 53  1  0  0  0  0
 46 39  2  0  0  0  0
 47 51  1  6  0  0  0
 47 49  1  0  0  0  0
 48 52  1  6  0  0  0
 48 47  1  0  0  0  0
 48 49  1  0  0  0  0
 50 44  1  0  0  0  0
 50 42  1  0  0  0  0
 52 46  1  0  0  0  0
 53 54  1  0  0  0  0
 55 56  1  0  0  0  0
 56 46  1  0  0  0  0
 57 56  1  0  0  0  0
 57 58  1  0  0  0  0
 59 57  1  0  0  0  0
 60 59  1  0  0  0  0
M  END
>  <MODEL>
4

>  <REMARK>
 VINA RESULT:      -4.3      2.654      4.559
  Name = 
  17 active torsions:
  status: ('A' for Active; 'I' for Inactive)
    1  A    between atoms: N_2  and  N_36
    2  A    between atoms: N_2  and  C_43
    3  A    between atoms: C_5  and  C_45
    4  A    between atoms: C_5  and  C_59
    5  A    between atoms: C_8  and  C_28
    6  A    between atoms: C_8  and  N_55
    7  A    between atoms: O_14  and  C_32
    8  A    between atoms: C_15  and  C_28
    9  A    between atoms: C_16  and  C_50
   10  A    between atoms: C_22  and  C_45
   11  A    between atoms: C_25  and  C_27
   12  A    between atoms: C_25  and  C_31
   13  A    between atoms: C_28  and  N_36
   14  A    between atoms: C_31  and  C_34
   15  A    between atoms: C_38  and  C_51
   16  A    between atoms: C_44  and  C_59
   17  A    between atoms: N_55  and  C_59
                            x       y       z     vdW  Elec       q    Type
                         _______ _______ _______ _____ _____    ______ ____

>  <TORSDO>
F 17

$$$$
=
 OpenBabel11062414163D

 60 68  0  0  1  0  0  0  0  0999 V2000
  184.2010  178.7220  141.1950 C   0  0  0  0  0  2  0  0  0  0  0  0
  184.5440  178.1720  142.5820 C   0  0  2  0  0  3  0  0  0  0  0  0
  184.7540  178.7020  144.9250 F   0  0  0  0  0  0  0  0  0  0  0  0
  182.9050  179.3780  143.8240 F   0  0  0  0  0  0  0  0  0  0  0  0
  184.8660  180.4030  143.4390 F   0  0  0  0  0  0  0  0  0  0  0  0
  184.2730  179.1800  143.7130 C   0  0  0  0  0  0  0  0  0  0  0  0
  185.9470  177.7570  142.5890 N   0  0  0  0  0  2  0  0  0  0  0  0
  186.6810  178.2880  141.4310 C   0  0  2  0  0  0  0  0  0  0  0  0
  186.9570  179.6470  141.6220 O   0  0  0  0  0  1  0  0  0  0  0  0
  185.8780  178.1200  140.2260 N   0  0  0  0  0  1  0  0  0  0  0  0
  188.0200  177.5270  141.3040 C   0  0  2  0  0  3  0  0  0  0  0  0
  189.6050  178.6880  142.8140 N   0  0  0  0  0  0  0  0  0  0  0  0
  190.9120  179.9920  144.2680 F   0  0  0  0  0  0  0  0  0  0  0  0
  188.9070  177.5510  142.5280 C   0  0  0  0  0  0  0  0  0  0  0  0
  190.2490  178.8450  144.0020 C   0  0  0  0  0  0  0  0  0  0  0  0
  188.8320  176.5280  143.4840 C   0  0  0  0  0  3  0  0  0  0  0  0
  189.4990  176.6660  144.6980 C   0  0  0  0  0  3  0  0  0  0  0  0
  190.2050  177.8340  144.9670 C   0  0  0  0  0  3  0  0  0  0  0  0
  188.7770  177.9970  140.1540 N   0  0  0  0  0  2  0  0  0  0  0  0
  188.9880  176.8830  139.3280 N   0  0  0  0  0  2  0  0  0  0  0  0
  190.0620  176.7540  134.8000 O   0  0  0  0  0  0  0  0  0  0  0  0
  192.5080  176.0570  136.3220 C   0  0  0  0  0  2  0  0  0  0  0  0
  192.2480  176.6350  138.6360 C   0  0  0  0  0  2  0  0  0  0  0  0
  193.3020  176.2880  137.5900 C   0  0  0  0  0  2  0  0  0  0  0  0
  190.9560  176.1620  138.1460 N   0  0  2  0  0  0  0  0  0  0  0  0
  191.1330  176.0290  136.7600 N   0  0  0  0  0  0  0  0  0  0  0  0
  189.9630  177.2440  138.3080 C   0  0  1  0  0  3  0  0  0  0  0  0
  190.1330  176.7210  136.0560 C   0  0  0  0  0  0  0  0  0  0  0  0
  189.2230  177.4110  136.9740 C   0  0  2  0  0  3  0  0  0  0  0  0
  189.0800  178.8850  136.6300 C   0  0  0  0  0  2  0  0  0  0  0  0
  187.7200  179.2160  136.6280 O   0  0  0  0  0  1  0  0  0  0  0  0
  182.7150  178.5940  140.9260 C   0  0  0  0  0  2  0  0  0  0  0  0
  180.4010  179.6360  140.0020 S   0  0  0  0  0  0  0  0  0  0  0  0
  182.1930  179.7640  140.1120 C   0  0  2  0  0  3  0  0  0  0  0  0
  182.7050  179.6850  138.6930 C   0  0  0  0  0  2  0  0  0  0  0  0
  181.9360  178.6780  137.9810 N   0  0  0  0  0  2  0  0  0  0  0  0
  180.5340  178.8430  138.3680 C   0  0  1  0  0  3  0  0  0  0  0  0
  179.9490  176.8560  139.7070 N   0  0  0  0  0  0  0  0  0  0  0  0
  180.3570  176.4950  137.4580 C   0  0  0  0  0  0  0  0  0  0  0  0
  179.7970  177.4990  138.4080 C   0  0  2  0  0  3  0  0  0  0  0  0
  180.7860  175.2740  138.1780 C   0  0  2  0  0  3  0  0  0  0  0  0
  182.9120  172.6420  135.8120 C   0  0  2  0  0  0  0  0  0  0  0  0
  184.0080  174.0950  135.5450 S   0  0  0  0  0  0  0  0  0  0  0  0
  183.1840  171.2960  135.2760 C   0  0  0  0  0  2  0  0  0  0  0  0
  180.4370  175.6600  139.5760 C   0  0  0  0  0  0  0  0  0  0  0  0
  180.4890  176.5980  136.1380 C   0  0  0  0  0  0  0  0  0  0  0  0
  182.7060  173.8270  137.5040 C   0  0  1  0  0  3  0  0  0  0  0  0
  182.7270  174.9990  136.4610 C   0  0  1  0  0  0  0  0  0  0  0  0
  182.2950  175.1560  137.9620 C   0  0  1  0  0  3  0  0  0  0  0  0
  182.2950  172.1880  134.6290 O   0  0  0  0  0  0  0  0  0  0  0  0
  181.9880  172.8370  136.8430 O   0  0  0  0  0  0  0  0  0  0  0  0
  181.2690  175.2000  135.3000 S   0  0  0  0  0  0  0  0  0  0  0  0
  180.4960  174.7790  140.6550 O   0  0  0  0  0  0  0  0  0  0  0  0
  179.3560  173.9850  140.9630 C   0  0  0  0  0  1  0  0  0  0  0  0
  178.9320  177.5770  134.6060 O   0  0  0  0  0  1  0  0  0  0  0  0
  180.0430  177.8450  135.4120 C   0  0  2  0  0  3  0  0  0  0  0  0
  181.1360  178.5860  134.6290 C   0  0  2  0  0  3  0  0  0  0  0  0
  182.3910  178.2380  135.1330 O   0  0  0  0  0  1  0  0  0  0  0  0
  180.9820  180.1100  134.6110 C   0  0  0  0  0  2  0  0  0  0  0  0
  179.7120  180.4940  135.0530 O   0  0  0  0  0  1  0  0  0  0  0  0
  2  1  1  6  0  0  0
  2  7  1  0  0  0  0
  2  6  1  0  0  0  0
  5  6  1  0  0  0  0
  6  4  1  0  0  0  0
  6  3  1  0  0  0  0
  8 10  1  6  0  0  0
  8  9  1  0  0  0  0
  8  7  1  0  0  0  0
 11 19  1  6  0  0  0
 11  8  1  0  0  0  0
 11 14  1  0  0  0  0
 12 15  1  0  0  0  0
 14 12  2  0  0  0  0
 14 16  1  0  0  0  0
 15 13  1  0  0  0  0
 15 18  2  0  0  0  0
 16 17  2  0  0  0  0
 17 18  1  0  0  0  0
 20 19  1  0  0  0  0
 21 28  2  0  0  0  0
 22 26  1  0  0  0  0
 22 24  1  0  0  0  0
 24 23  1  0  0  0  0
 25 27  1  0  0  0  0
 25 23  1  1  0  0  0
 26 25  1  0  0  0  0
 27 20  1  1  0  0  0
 28 26  1  0  0  0  0
 28 29  1  0  0  0  0
 29 30  1  6  0  0  0
 29 27  1  0  0  0  0
 31 30  1  0  0  0  0
 32  1  1  0  0  0  0
 33 34  1  0  0  0  0
 34 32  1  1  0  0  0
 35 34  1  0  0  0  0
 36 35  1  0  0  0  0
 37 36  1  1  0  0  0
 37 40  1  0  0  0  0
 37 33  1  0  0  0  0
 40 39  1  6  0  0  0
 40 38  1  0  0  0  0
 41 39  1  6  0  0  0
 41 45  1  0  0  0  0
 42 44  1  1  0  0  0
 42 51  1  0  0  0  0
 43 42  1  0  0  0  0
 43 48  1  0  0  0  0
 45 38  2  0  0  0  0
 45 53  1  0  0  0  0
 46 39  2  0  0  0  0
 47 51  1  6  0  0  0
 47 49  1  0  0  0  0
 48 52  1  6  0  0  0
 48 47  1  0  0  0  0
 48 49  1  0  0  0  0
 49 41  1  0  0  0  0
 50 44  1  0  0  0  0
 50 42  1  0  0  0  0
 52 46  1  0  0  0  0
 53 54  1  0  0  0  0
 55 56  1  0  0  0  0
 56 46  1  0  0  0  0
 57 58  1  0  0  0  0
 57 56  1  0  0  0  0
 59 57  1  0  0  0  0
 59 60  1  0  0  0  0
M  END
>  <MODEL>
5

>  <REMARK>
 VINA RESULT:      -4.1      1.685      1.998
  Name = 
  17 active torsions:
  status: ('A' for Active; 'I' for Inactive)
    1  A    between atoms: N_2  and  N_36
    2  A    between atoms: N_2  and  C_43
    3  A    between atoms: C_5  and  C_45
    4  A    between atoms: C_5  and  C_59
    5  A    between atoms: C_8  and  C_28
    6  A    between atoms: C_8  and  N_55
    7  A    between atoms: O_14  and  C_32
    8  A    between atoms: C_15  and  C_28
    9  A    between atoms: C_16  and  C_50
   10  A    between atoms: C_22  and  C_45
   11  A    between atoms: C_25  and  C_27
   12  A    between atoms: C_25  and  C_31
   13  A    between atoms: C_28  and  N_36
   14  A    between atoms: C_31  and  C_34
   15  A    between atoms: C_38  and  C_51
   16  A    between atoms: C_44  and  C_59
   17  A    between atoms: N_55  and  C_59
                            x       y       z     vdW  Elec       q    Type
                         _______ _______ _______ _____ _____    ______ ____

>  <TORSDO>
F 17

$$$$
=
 OpenBabel11062414163D

 60 68  0  0  1  0  0  0  0  0999 V2000
  182.9420  177.1490  140.4950 C   0  0  0  0  0  2  0  0  0  0  0  0
  183.3680  178.6010  140.7330 C   0  0  2  0  0  3  0  0  0  0  0  0
  183.0440  178.7210  138.3470 F   0  0  0  0  0  0  0  0  0  0  0  0
  184.2950  180.3070  139.3510 F   0  0  0  0  0  0  0  0  0  0  0  0
  182.0670  180.3050  139.6310 F   0  0  0  0  0  0  0  0  0  0  0  0
  183.1820  179.4930  139.4930 C   0  0  0  0  0  0  0  0  0  0  0  0
  184.7650  178.6140  141.1700 N   0  0  0  0  0  2  0  0  0  0  0  0
  184.8850  178.8760  142.6120 C   0  0  2  0  0  0  0  0  0  0  0  0
  183.6130  178.9850  143.1850 O   0  0  0  0  0  1  0  0  0  0  0  0
  185.6210  180.1160  142.8230 N   0  0  0  0  0  1  0  0  0  0  0  0
  185.6210  177.6870  143.2700 C   0  0  2  0  0  3  0  0  0  0  0  0
  187.1220  177.2980  145.2040 N   0  0  0  0  0  0  0  0  0  0  0  0
  188.7510  177.0400  146.8770 F   0  0  0  0  0  0  0  0  0  0  0  0
  185.9700  177.8580  144.7310 C   0  0  0  0  0  0  0  0  0  0  0  0
  187.5950  177.5910  146.4450 C   0  0  0  0  0  0  0  0  0  0  0  0
  185.2670  178.7690  145.5310 C   0  0  0  0  0  3  0  0  0  0  0  0
  185.7280  179.0670  146.8100 C   0  0  0  0  0  3  0  0  0  0  0  0
  186.9040  178.4830  147.2700 C   0  0  0  0  0  3  0  0  0  0  0  0
  186.8240  177.3460  142.5260 N   0  0  0  0  0  2  0  0  0  0  0  0
  187.1720  178.4820  141.7820 N   0  0  0  0  0  2  0  0  0  0  0  0
  190.7790  176.1200  140.0240 O   0  0  0  0  0  0  0  0  0  0  0  0
  191.6000  177.1720  142.6710 C   0  0  0  0  0  2  0  0  0  0  0  0
  190.0640  178.8570  143.4150 C   0  0  0  0  0  2  0  0  0  0  0  0
  191.4630  178.3050  143.6650 C   0  0  0  0  0  2  0  0  0  0  0  0
  189.2970  177.8350  142.7090 N   0  0  2  0  0  0  0  0  0  0  0  0
  190.2680  176.9950  142.1430 N   0  0  0  0  0  0  0  0  0  0  0  0
  188.6120  178.4650  141.5610 C   0  0  1  0  0  3  0  0  0  0  0  0
  190.0510  176.8310  140.7640 C   0  0  0  0  0  0  0  0  0  0  0  0
  188.8970  177.6150  140.3150 C   0  0  2  0  0  3  0  0  0  0  0  0
  189.2440  178.5090  139.1340 C   0  0  0  0  0  2  0  0  0  0  0  0
  188.1010  178.6690  138.3420 O   0  0  0  0  0  1  0  0  0  0  0  0
  181.7620  177.0910  139.5450 C   0  0  0  0  0  2  0  0  0  0  0  0
  180.1480  174.9760  140.0030 S   0  0  0  0  0  0  0  0  0  0  0  0
  180.4800  176.7240  140.2700 C   0  0  2  0  0  3  0  0  0  0  0  0
  179.3090  177.4670  139.6730 C   0  0  0  0  0  2  0  0  0  0  0  0
  178.9420  176.8210  138.4240 N   0  0  0  0  0  2  0  0  0  0  0  0
  179.0050  175.3750  138.6440 C   0  0  1  0  0  3  0  0  0  0  0  0
  179.7630  173.2370  137.6750 N   0  0  0  0  0  0  0  0  0  0  0  0
  180.7350  175.1550  136.8180 C   0  0  0  0  0  0  0  0  0  0  0  0
  179.4570  174.6310  137.3810 C   0  0  2  0  0  3  0  0  0  0  0  0
  181.7520  174.0820  136.7410 C   0  0  2  0  0  3  0  0  0  0  0  0
  185.5220  175.4690  135.7860 C   0  0  2  0  0  0  0  0  0  0  0  0
  185.2800  176.5270  137.2710 S   0  0  0  0  0  0  0  0  0  0  0  0
  186.7680  175.4250  134.9990 C   0  0  0  0  0  2  0  0  0  0  0  0
  180.9690  172.9400  137.2970 C   0  0  0  0  0  0  0  0  0  0  0  0
  181.0080  176.3930  136.4140 C   0  0  0  0  0  0  0  0  0  0  0  0
  184.2090  174.4310  137.0160 C   0  0  1  0  0  3  0  0  0  0  0  0
  183.5930  175.8550  137.2490 C   0  0  1  0  0  0  0  0  0  0  0  0
  182.8970  174.5090  137.6600 C   0  0  1  0  0  3  0  0  0  0  0  0
  185.6590  176.2070  134.5940 O   0  0  0  0  0  0  0  0  0  0  0  0
  184.5580  174.4620  135.6700 O   0  0  0  0  0  0  0  0  0  0  0  0
  182.6930  176.6930  135.8340 S   0  0  0  0  0  0  0  0  0  0  0  0
  181.4250  171.6220  137.2970 O   0  0  0  0  0  0  0  0  0  0  0  0
  181.9560  171.0730  136.0970 C   0  0  0  0  0  1  0  0  0  0  0  0
  178.9310  177.2390  135.5770 O   0  0  0  0  0  1  0  0  0  0  0  0
  179.9610  177.4800  136.4920 C   0  0  2  0  0  3  0  0  0  0  0  0
  180.4850  178.9180  136.3780 C   0  0  2  0  0  3  0  0  0  0  0  0
  179.9200  179.7030  137.3860 O   0  0  0  0  0  1  0  0  0  0  0  0
  180.2520  179.5720  135.0120 C   0  0  0  0  0  2  0  0  0  0  0  0
  181.3770  180.2930  134.6000 O   0  0  0  0  0  1  0  0  0  0  0  0
  2  1  1  6  0  0  0
  2  7  1  0  0  0  0
  3  6  1  0  0  0  0
  4  6  1  0  0  0  0
  6  5  1  0  0  0  0
  6  2  1  0  0  0  0
  7  8  1  0  0  0  0
  8 10  1  1  0  0  0
  8  9  1  0  0  0  0
  8 11  1  0  0  0  0
 11 19  1  6  0  0  0
 11 14  1  0  0  0  0
 12 15  1  0  0  0  0
 14 12  2  0  0  0  0
 14 16  1  0  0  0  0
 15 13  1  0  0  0  0
 15 18  2  0  0  0  0
 16 17  2  0  0  0  0
 17 18  1  0  0  0  0
 20 19  1  0  0  0  0
 21 28  2  0  0  0  0
 22 24  1  0  0  0  0
 23 24  1  0  0  0  0
 25 23  1  1  0  0  0
 26 22  1  0  0  0  0
 26 25  1  0  0  0  0
 27 20  1  1  0  0  0
 27 25  1  0  0  0  0
 28 26  1  0  0  0  0
 29 30  1  6  0  0  0
 29 28  1  0  0  0  0
 29 27  1  0  0  0  0
 31 30  1  0  0  0  0
 32  1  1  0  0  0  0
 33 34  1  0  0  0  0
 34 32  1  6  0  0  0
 35 34  1  0  0  0  0
 36 35  1  0  0  0  0
 37 36  1  6  0  0  0
 37 33  1  0  0  0  0
 40 39  1  1  0  0  0
 40 38  1  0  0  0  0
 40 37  1  0  0  0  0
 41 39  1  1  0  0  0
 41 45  1  0  0  0  0
 41 49  1  0  0  0  0
 42 44  1  1  0  0  0
 42 43  1  0  0  0  0
 45 38  2  0  0  0  0
 46 56  1  0  0  0  0
 46 39  2  0  0  0  0
 47 51  1  6  0  0  0
 47 48  1  0  0  0  0
 47 49  1  0  0  0  0
 48 52  1  6  0  0  0
 48 43  1  0  0  0  0
 48 49  1  0  0  0  0
 50 44  1  0  0  0  0
 50 42  1  0  0  0  0
 51 42  1  0  0  0  0
 52 46  1  0  0  0  0
 53 45  1  0  0  0  0
 54 53  1  0  0  0  0
 55 56  1  0  0  0  0
 57 56  1  0  0  0  0
 57 58  1  0  0  0  0
 59 57  1  0  0  0  0
 60 59  1  0  0  0  0
M  END
>  <MODEL>
6

>  <REMARK>
 VINA RESULT:      -4.0      2.568      4.127
  Name = 
  17 active torsions:
  status: ('A' for Active; 'I' for Inactive)
    1  A    between atoms: N_2  and  N_36
    2  A    between atoms: N_2  and  C_43
    3  A    between atoms: C_5  and  C_45
    4  A    between atoms: C_5  and  C_59
    5  A    between atoms: C_8  and  C_28
    6  A    between atoms: C_8  and  N_55
    7  A    between atoms: O_14  and  C_32
    8  A    between atoms: C_15  and  C_28
    9  A    between atoms: C_16  and  C_50
   10  A    between atoms: C_22  and  C_45
   11  A    between atoms: C_25  and  C_27
   12  A    between atoms: C_25  and  C_31
   13  A    between atoms: C_28  and  N_36
   14  A    between atoms: C_31  and  C_34
   15  A    between atoms: C_38  and  C_51
   16  A    between atoms: C_44  and  C_59
   17  A    between atoms: N_55  and  C_59
                            x       y       z     vdW  Elec       q    Type
                         _______ _______ _______ _____ _____    ______ ____

>  <TORSDO>
F 17

$$$$
=
 OpenBabel11062414163D

 60 68  0  0  1  0  0  0  0  0999 V2000
  186.7860  176.5290  136.9060 C   0  0  0  0  0  2  0  0  0  0  0  0
  186.0450  175.3690  136.2350 C   0  0  2  0  0  3  0  0  0  0  0  0
  186.2770  173.3330  134.9640 F   0  0  0  0  0  0  0  0  0  0  0  0
  187.7090  173.7170  136.6630 F   0  0  0  0  0  0  0  0  0  0  0  0
  187.8960  174.8990  134.7620 F   0  0  0  0  0  0  0  0  0  0  0  0
  186.9930  174.3150  135.6370 C   0  0  0  0  0  0  0  0  0  0  0  0
  185.1620  175.9110  135.2010 N   0  0  0  0  0  2  0  0  0  0  0  0
  183.8180  175.3160  135.2610 C   0  0  2  0  0  0  0  0  0  0  0  0
  183.8200  174.0660  134.6320 O   0  0  0  0  0  1  0  0  0  0  0  0
  182.8650  176.1950  134.5940 N   0  0  0  0  0  1  0  0  0  0  0  0
  183.4320  175.1210  136.7450 C   0  0  2  0  0  3  0  0  0  0  0  0
  181.3640  173.8500  137.2460 N   0  0  0  0  0  0  0  0  0  0  0  0
  179.3000  172.7520  137.4800 F   0  0  0  0  0  0  0  0  0  0  0  0
  182.7170  173.8290  137.0720 C   0  0  0  0  0  0  0  0  0  0  0  0
  180.6420  172.7000  137.3320 C   0  0  0  0  0  0  0  0  0  0  0  0
  183.3800  172.5980  136.9590 C   0  0  0  0  0  3  0  0  0  0  0  0
  182.6580  171.4120  137.0610 C   0  0  0  0  0  3  0  0  0  0  0  0
  181.2790  171.4600  137.2400 C   0  0  0  0  0  3  0  0  0  0  0  0
  182.6400  176.2420  137.2270 N   0  0  0  0  0  2  0  0  0  0  0  0
  183.3770  176.8400  138.2600 N   0  0  0  0  0  2  0  0  0  0  0  0
  180.6870  179.1210  141.3000 O   0  0  0  0  0  0  0  0  0  0  0  0
  179.7870  179.8600  138.5740 C   0  0  0  0  0  2  0  0  0  0  0  0
  181.4260  179.2150  136.9470 C   0  0  0  0  0  2  0  0  0  0  0  0
  180.2060  180.1090  137.1420 C   0  0  0  0  0  2  0  0  0  0  0  0
  181.4040  178.1910  137.9880 N   0  0  2  0  0  0  0  0  0  0  0  0
  180.5760  178.7250  138.9880 N   0  0  0  0  0  0  0  0  0  0  0  0
  182.7470  178.1090  138.6000 C   0  0  1  0  0  3  0  0  0  0  0  0
  181.2180  178.7040  140.2370 C   0  0  0  0  0  0  0  0  0  0  0  0
  182.5770  178.1680  140.1240 C   0  0  2  0  0  3  0  0  0  0  0  0
  183.6090  179.1030  140.7340 C   0  0  0  0  0  2  0  0  0  0  0  0
  184.3430  179.6970  139.7010 O   0  0  0  0  0  1  0  0  0  0  0  0
  186.8940  177.7080  135.9590 C   0  0  0  0  0  2  0  0  0  0  0  0
  189.2970  177.5070  137.1750 S   0  0  0  0  0  0  0  0  0  0  0  0
  188.1560  178.5120  136.2130 C   0  0  2  0  0  3  0  0  0  0  0  0
  187.8440  179.7200  137.0650 C   0  0  0  0  0  2  0  0  0  0  0  0
  187.6880  179.2840  138.4420 N   0  0  0  0  0  2  0  0  0  0  0  0
  188.7410  178.3050  138.7140 C   0  0  1  0  0  3  0  0  0  0  0  0
  187.0400  177.6260  140.3660 N   0  0  0  0  0  0  0  0  0  0  0  0
  189.2190  176.9890  140.8150 C   0  0  0  0  0  0  0  0  0  0  0  0
  188.2670  177.2220  139.6910 C   0  0  2  0  0  3  0  0  0  0  0  0
  188.5520  177.2060  142.1190 C   0  0  2  0  0  3  0  0  0  0  0  0
  191.1710  177.2050  145.3120 C   0  0  2  0  0  0  0  0  0  0  0  0
  191.9980  178.5460  144.3640 S   0  0  0  0  0  0  0  0  0  0  0  0
  191.5910  176.7640  146.6550 C   0  0  0  0  0  2  0  0  0  0  0  0
  187.1850  177.5780  141.6550 C   0  0  0  0  0  0  0  0  0  0  0  0
  190.4980  176.6310  140.7460 C   0  0  0  0  0  0  0  0  0  0  0  0
  189.6840  178.0890  144.1630 C   0  0  1  0  0  3  0  0  0  0  0  0
  190.8050  178.1140  143.0650 C   0  0  1  0  0  0  0  0  0  0  0  0
  189.2820  178.3750  142.7840 C   0  0  1  0  0  3  0  0  0  0  0  0
  191.9820  176.0660  145.4870 O   0  0  0  0  0  0  0  0  0  0  0  0
  189.9090  176.8770  144.8060 O   0  0  0  0  0  0  0  0  0  0  0  0
  191.3760  176.4920  142.3200 S   0  0  0  0  0  0  0  0  0  0  0  0
  186.0970  177.7340  142.5130 O   0  0  0  0  0  0  0  0  0  0  0  0
  186.3330  178.0200  143.8860 C   0  0  0  0  0  1  0  0  0  0  0  0
  190.6410  175.2740  138.7790 O   0  0  0  0  0  1  0  0  0  0  0  0
  191.1680  176.4060  139.4110 C   0  0  2  0  0  3  0  0  0  0  0  0
  192.7020  176.3710  139.4320 C   0  0  2  0  0  3  0  0  0  0  0  0
  193.1930  177.6170  139.8300 O   0  0  0  0  0  1  0  0  0  0  0  0
  193.3460  175.9530  138.1060 C   0  0  0  0  0  2  0  0  0  0  0  0
  193.4380  177.0370  137.2270 O   0  0  0  0  0  1  0  0  0  0  0  0
  2  1  1  6  0  0  0
  3  6  1  0  0  0  0
  5  6  1  0  0  0  0
  6  2  1  0  0  0  0
  6  4  1  0  0  0  0
  7  8  1  0  0  0  0
  7  2  1  0  0  0  0
  8 10  1  6  0  0  0
  8 11  1  0  0  0  0
  9  8  1  0  0  0  0
 11 14  1  0  0  0  0
 11 19  1  6  0  0  0
 12 15  1  0  0  0  0
 14 12  2  0  0  0  0
 15 13  1  0  0  0  0
 16 17  2  0  0  0  0
 16 14  1  0  0  0  0
 17 18  1  0  0  0  0
 18 15  2  0  0  0  0
 19 20  1  0  0  0  0
 22 26  1  0  0  0  0
 23 24  1  0  0  0  0
 24 22  1  0  0  0  0
 25 23  1  6  0  0  0
 25 27  1  0  0  0  0
 25 26  1  0  0  0  0
 26 28  1  0  0  0  0
 27 20  1  1  0  0  0
 27 29  1  0  0  0  0
 28 21  2  0  0  0  0
 29 28  1  0  0  0  0
 29 30  1  1  0  0  0
 31 30  1  0  0  0  0
 32  1  1  0  0  0  0
 34 32  1  1  0  0  0
 34 35  1  0  0  0  0
 34 33  1  0  0  0  0
 35 36  1  0  0  0  0
 36 37  1  0  0  0  0
 37 33  1  6  0  0  0
 37 40  1  0  0  0  0
 38 45  2  0  0  0  0
 40 38  1  1  0  0  0
 40 39  1  0  0  0  0
 41 39  1  6  0  0  0
 41 49  1  0  0  0  0
 42 50  1  0  0  0  0
 42 44  1  1  0  0  0
 43 42  1  0  0  0  0
 45 41  1  0  0  0  0
 45 53  1  0  0  0  0
 46 39  2  0  0  0  0
 46 52  1  0  0  0  0
 47 51  1  6  0  0  0
 48 52  1  6  0  0  0
 48 47  1  0  0  0  0
 48 43  1  0  0  0  0
 49 48  1  0  0  0  0
 49 47  1  0  0  0  0
 50 44  1  0  0  0  0
 51 42  1  0  0  0  0
 53 54  1  0  0  0  0
 55 56  1  0  0  0  0
 56 57  1  0  0  0  0
 56 46  1  0  0  0  0
 57 58  1  0  0  0  0
 59 57  1  0  0  0  0
 60 59  1  0  0  0  0
M  END
>  <MODEL>
7

>  <REMARK>
 VINA RESULT:      -3.7      4.182     10.493
  Name = 
  17 active torsions:
  status: ('A' for Active; 'I' for Inactive)
    1  A    between atoms: N_2  and  N_36
    2  A    between atoms: N_2  and  C_43
    3  A    between atoms: C_5  and  C_45
    4  A    between atoms: C_5  and  C_59
    5  A    between atoms: C_8  and  C_28
    6  A    between atoms: C_8  and  N_55
    7  A    between atoms: O_14  and  C_32
    8  A    between atoms: C_15  and  C_28
    9  A    between atoms: C_16  and  C_50
   10  A    between atoms: C_22  and  C_45
   11  A    between atoms: C_25  and  C_27
   12  A    between atoms: C_25  and  C_31
   13  A    between atoms: C_28  and  N_36
   14  A    between atoms: C_31  and  C_34
   15  A    between atoms: C_38  and  C_51
   16  A    between atoms: C_44  and  C_59
   17  A    between atoms: N_55  and  C_59
                            x       y       z     vdW  Elec       q    Type
                         _______ _______ _______ _____ _____    ______ ____

>  <TORSDO>
F 17

$$$$
=
 OpenBabel11062414163D

 60 68  0  0  1  0  0  0  0  0999 V2000
  187.3160  177.5220  137.9350 C   0  0  0  0  0  2  0  0  0  0  0  0
  186.6370  177.3110  136.5790 C   0  0  2  0  0  3  0  0  0  0  0  0
  188.1520  179.0670  135.9230 F   0  0  0  0  0  0  0  0  0  0  0  0
  186.3880  178.6060  134.5950 F   0  0  0  0  0  0  0  0  0  0  0  0
  188.1190  177.1770  134.6810 F   0  0  0  0  0  0  0  0  0  0  0  0
  187.3440  178.0500  135.4310 C   0  0  0  0  0  0  0  0  0  0  0  0
  185.2400  177.7370  136.6820 N   0  0  0  0  0  2  0  0  0  0  0  0
  184.3140  176.6970  136.2110 C   0  0  2  0  0  0  0  0  0  0  0  0
  185.0170  175.7140  135.5050 O   0  0  0  0  0  1  0  0  0  0  0  0
  183.3090  177.2950  135.3410 N   0  0  0  0  0  1  0  0  0  0  0  0
  183.6470  176.0370  137.4400 C   0  0  2  0  0  3  0  0  0  0  0  0
  182.3990  173.9490  136.9680 N   0  0  0  0  0  0  0  0  0  0  0  0
  181.1760  172.0720  136.2590 F   0  0  0  0  0  0  0  0  0  0  0  0
  183.5550  174.5290  137.4060 C   0  0  0  0  0  0  0  0  0  0  0  0
  182.3270  172.6140  136.7150 C   0  0  0  0  0  0  0  0  0  0  0  0
  184.7000  173.7390  137.5810 C   0  0  0  0  0  3  0  0  0  0  0  0
  184.6380  172.3680  137.3420 C   0  0  0  0  0  3  0  0  0  0  0  0
  183.4480  171.8000  136.8980 C   0  0  0  0  0  3  0  0  0  0  0  0
  182.3230  176.5940  137.6730 N   0  0  0  0  0  2  0  0  0  0  0  0
  182.3790  177.2630  138.9040 N   0  0  0  0  0  2  0  0  0  0  0  0
  181.0360  181.7190  138.7830 O   0  0  0  0  0  0  0  0  0  0  0  0
  179.5820  180.4040  141.0070 C   0  0  0  0  0  2  0  0  0  0  0  0
  179.7470  178.0180  140.8190 C   0  0  0  0  0  2  0  0  0  0  0  0
  178.9470  179.1220  141.5030 C   0  0  0  0  0  2  0  0  0  0  0  0
  181.0170  178.5890  140.3790 N   0  0  2  0  0  0  0  0  0  0  0  0
  180.7830  179.9720  140.3320 N   0  0  0  0  0  0  0  0  0  0  0  0
  181.2570  178.1880  138.9780 C   0  0  1  0  0  3  0  0  0  0  0  0
  181.1420  180.5000  139.0810 C   0  0  0  0  0  0  0  0  0  0  0  0
  181.6190  179.4480  138.1800 C   0  0  2  0  0  3  0  0  0  0  0  0
  180.8810  179.4610  136.8510 C   0  0  0  0  0  2  0  0  0  0  0  0
  179.5050  179.3910  137.1000 O   0  0  0  0  0  1  0  0  0  0  0  0
  188.6270  176.7630  137.9970 C   0  0  0  0  0  2  0  0  0  0  0  0
  189.9820  176.7510  140.3320 S   0  0  0  0  0  0  0  0  0  0  0  0
  189.6900  177.5470  138.7450 C   0  0  2  0  0  3  0  0  0  0  0  0
  189.1900  178.9360  139.0610 C   0  0  0  0  0  2  0  0  0  0  0  0
  188.2750  178.8520  140.1860 N   0  0  0  0  0  2  0  0  0  0  0  0
  188.8550  177.9200  141.1540 C   0  0  1  0  0  3  0  0  0  0  0  0
  186.4960  177.8320  141.8690 N   0  0  0  0  0  0  0  0  0  0  0  0
  188.0510  176.9680  143.3490 C   0  0  0  0  0  0  0  0  0  0  0  0
  187.7710  177.1270  141.8930 C   0  0  2  0  0  3  0  0  0  0  0  0
  186.9440  177.5270  144.1590 C   0  0  2  0  0  3  0  0  0  0  0  0
  187.8110  177.7320  148.1910 C   0  0  2  0  0  0  0  0  0  0  0  0
  189.2470  178.7280  147.6170 S   0  0  0  0  0  0  0  0  0  0  0  0
  187.4860  177.4950  149.6090 C   0  0  0  0  0  2  0  0  0  0  0  0
  186.0430  178.0070  143.0720 C   0  0  0  0  0  0  0  0  0  0  0  0
  189.1140  176.4140  143.9260 C   0  0  0  0  0  0  0  0  0  0  0  0
  187.2220  178.5980  146.3980 C   0  0  1  0  0  3  0  0  0  0  0  0
  188.6870  178.2450  145.9600 C   0  0  1  0  0  0  0  0  0  0  0  0
  187.5450  178.6750  144.9720 C   0  0  1  0  0  3  0  0  0  0  0  0
  188.1860  176.5360  148.8360 O   0  0  0  0  0  0  0  0  0  0  0  0
  186.8650  177.5090  147.1860 O   0  0  0  0  0  0  0  0  0  0  0  0
  189.1520  176.4430  145.7320 S   0  0  0  0  0  0  0  0  0  0  0  0
  184.7530  178.4870  143.2980 O   0  0  0  0  0  0  0  0  0  0  0  0
  184.0330  179.0740  142.2200 C   0  0  0  0  0  1  0  0  0  0  0  0
  190.1070  174.4520  142.9780 O   0  0  0  0  0  1  0  0  0  0  0  0
  190.2350  175.8410  143.0910 C   0  0  2  0  0  3  0  0  0  0  0  0
  191.6550  176.2380  143.5180 C   0  0  2  0  0  3  0  0  0  0  0  0
  192.0520  175.4550  144.6050 O   0  0  0  0  0  1  0  0  0  0  0  0
  191.8250  177.7230  143.8520 C   0  0  0  0  0  2  0  0  0  0  0  0
  191.4950  178.5270  142.7570 O   0  0  0  0  0  1  0  0  0  0  0  0
  1 32  1  0  0  0  0
  2  7  1  0  0  0  0
  2  1  1  1  0  0  0
  4  6  1  0  0  0  0
  5  6  1  0  0  0  0
  6  3  1  0  0  0  0
  6  2  1  0  0  0  0
  8 10  1  6  0  0  0
  8  7  1  0  0  0  0
  8 11  1  0  0  0  0
  9  8  1  0  0  0  0
 11 19  1  6  0  0  0
 12 14  1  0  0  0  0
 13 15  1  0  0  0  0
 14 11  1  0  0  0  0
 14 16  2  0  0  0  0
 15 18  1  0  0  0  0
 15 12  2  0  0  0  0
 17 16  1  0  0  0  0
 18 17  2  0  0  0  0
 19 20  1  0  0  0  0
 21 28  2  0  0  0  0
 22 24  1  0  0  0  0
 23 24  1  0  0  0  0
 25 23  1  6  0  0  0
 26 25  1  0  0  0  0
 26 22  1  0  0  0  0
 27 20  1  1  0  0  0
 27 25  1  0  0  0  0
 28 26  1  0  0  0  0
 29 30  1  6  0  0  0
 29 27  1  0  0  0  0
 29 28  1  0  0  0  0
 30 31  1  0  0  0  0
 33 37  1  0  0  0  0
 34 32  1  1  0  0  0
 34 35  1  0  0  0  0
 34 33  1  0  0  0  0
 35 36  1  0  0  0  0
 37 36  1  6  0  0  0
 37 40  1  0  0  0  0
 38 45  2  0  0  0  0
 39 46  2  0  0  0  0
 39 41  1  0  0  0  0
 40 38  1  1  0  0  0
 40 39  1  0  0  0  0
 41 45  1  6  0  0  0
 41 49  1  0  0  0  0
 42 50  1  0  0  0  0
 42 44  1  1  0  0  0
 43 42  1  0  0  0  0
 45 53  1  0  0  0  0
 46 52  1  0  0  0  0
 47 51  1  6  0  0  0
 48 52  1  6  0  0  0
 48 47  1  0  0  0  0
 48 43  1  0  0  0  0
 49 48  1  0  0  0  0
 49 47  1  0  0  0  0
 50 44  1  0  0  0  0
 51 42  1  0  0  0  0
 54 53  1  0  0  0  0
 55 56  1  0  0  0  0
 56 57  1  0  0  0  0
 56 46  1  0  0  0  0
 57 59  1  0  0  0  0
 57 58  1  0  0  0  0
 60 59  1  0  0  0  0
M  END
>  <MODEL>
8

>  <REMARK>
 VINA RESULT:      -3.7      4.282     10.537
  Name = 
  17 active torsions:
  status: ('A' for Active; 'I' for Inactive)
    1  A    between atoms: N_2  and  N_36
    2  A    between atoms: N_2  and  C_43
    3  A    between atoms: C_5  and  C_45
    4  A    between atoms: C_5  and  C_59
    5  A    between atoms: C_8  and  C_28
    6  A    between atoms: C_8  and  N_55
    7  A    between atoms: O_14  and  C_32
    8  A    between atoms: C_15  and  C_28
    9  A    between atoms: C_16  and  C_50
   10  A    between atoms: C_22  and  C_45
   11  A    between atoms: C_25  and  C_27
   12  A    between atoms: C_25  and  C_31
   13  A    between atoms: C_28  and  N_36
   14  A    between atoms: C_31  and  C_34
   15  A    between atoms: C_38  and  C_51
   16  A    between atoms: C_44  and  C_59
   17  A    between atoms: N_55  and  C_59
                            x       y       z     vdW  Elec       q    Type
                         _______ _______ _______ _____ _____    ______ ____

>  <TORSDO>
F 17

$$$$
=
 OpenBabel11062414163D

 60 68  0  0  1  0  0  0  0  0999 V2000
  187.3890  177.3910  137.9230 C   0  0  0  0  0  2  0  0  0  0  0  0
  186.9530  177.2300  136.4640 C   0  0  2  0  0  3  0  0  0  0  0  0
  186.5040  178.7480  134.6450 F   0  0  0  0  0  0  0  0  0  0  0  0
  188.5770  177.8810  134.8450 F   0  0  0  0  0  0  0  0  0  0  0  0
  187.8820  179.4490  136.2960 F   0  0  0  0  0  0  0  0  0  0  0  0
  187.4800  178.3510  135.5510 C   0  0  0  0  0  0  0  0  0  0  0  0
  185.4920  177.1700  136.4140 N   0  0  0  0  0  2  0  0  0  0  0  0
  185.0170  176.0310  135.6160 C   0  0  2  0  0  0  0  0  0  0  0  0
  185.9390  175.7380  134.6040 O   0  0  0  0  0  1  0  0  0  0  0  0
  183.7270  176.3570  135.0190 N   0  0  0  0  0  1  0  0  0  0  0  0
  184.8930  174.7980  136.5400 C   0  0  2  0  0  3  0  0  0  0  0  0
  187.0700  173.6440  136.8030 N   0  0  0  0  0  0  0  0  0  0  0  0
  189.0880  172.5620  137.3310 F   0  0  0  0  0  0  0  0  0  0  0  0
  185.8290  173.6520  136.2340 C   0  0  0  0  0  0  0  0  0  0  0  0
  187.8740  172.5480  136.7380 C   0  0  0  0  0  0  0  0  0  0  0  0
  185.3610  172.5000  135.5850 C   0  0  0  0  0  3  0  0  0  0  0  0
  186.1770  171.3760  135.4950 C   0  0  0  0  0  3  0  0  0  0  0  0
  187.4390  171.3930  136.0820 C   0  0  0  0  0  3  0  0  0  0  0  0
  183.5240  174.3050  136.5680 N   0  0  0  0  0  2  0  0  0  0  0  0
  183.1990  174.0970  137.9160 N   0  0  0  0  0  2  0  0  0  0  0  0
  179.5070  176.2740  136.0940 O   0  0  0  0  0  0  0  0  0  0  0  0
  180.3600  177.8030  138.4860 C   0  0  0  0  0  2  0  0  0  0  0  0
  181.8660  176.4970  139.8210 C   0  0  0  0  0  2  0  0  0  0  0  0
  180.9630  177.7250  139.8720 C   0  0  0  0  0  2  0  0  0  0  0  0
  182.1410  176.1990  138.4190 N   0  0  2  0  0  0  0  0  0  0  0  0
  181.1100  176.8400  137.7140 N   0  0  0  0  0  0  0  0  0  0  0  0
  181.9280  174.7550  138.1890 C   0  0  1  0  0  3  0  0  0  0  0  0
  180.4640  175.9460  136.8440 C   0  0  0  0  0  0  0  0  0  0  0  0
  181.0300  174.5990  136.9550 C   0  0  2  0  0  3  0  0  0  0  0  0
  179.9570  173.5530  137.2120 C   0  0  0  0  0  2  0  0  0  0  0  0
  180.5650  172.2930  137.2730 O   0  0  0  0  0  1  0  0  0  0  0  0
  188.7410  176.7430  138.1480 C   0  0  0  0  0  2  0  0  0  0  0  0
  190.0220  176.9660  140.5140 S   0  0  0  0  0  0  0  0  0  0  0  0
  189.6860  177.6690  138.8920 C   0  0  2  0  0  3  0  0  0  0  0  0
  189.0220  179.0020  139.1440 C   0  0  0  0  0  2  0  0  0  0  0  0
  188.0900  178.8510  140.2490 N   0  0  0  0  0  2  0  0  0  0  0  0
  188.7460  178.0250  141.2640 C   0  0  1  0  0  3  0  0  0  0  0  0
  186.3990  177.7090  141.9540 N   0  0  0  0  0  0  0  0  0  0  0  0
  188.0140  177.0340  143.4680 C   0  0  0  0  0  0  0  0  0  0  0  0
  187.7380  177.1380  142.0060 C   0  0  2  0  0  3  0  0  0  0  0  0
  186.8450  177.4910  144.2540 C   0  0  2  0  0  3  0  0  0  0  0  0
  187.6330  177.8530  148.2910 C   0  0  2  0  0  0  0  0  0  0  0  0
  188.9670  178.9810  147.7160 S   0  0  0  0  0  0  0  0  0  0  0  0
  187.3160  177.6080  149.7100 C   0  0  0  0  0  2  0  0  0  0  0  0
  185.9140  177.8570  143.1480 C   0  0  0  0  0  0  0  0  0  0  0  0
  189.1200  176.6020  144.0660 C   0  0  0  0  0  0  0  0  0  0  0  0
  186.9830  178.6230  146.4760 C   0  0  1  0  0  3  0  0  0  0  0  0
  188.4820  178.4140  146.0610 C   0  0  1  0  0  0  0  0  0  0  0  0
  187.3150  178.7080  145.0520 C   0  0  1  0  0  3  0  0  0  0  0  0
  188.1200  176.7140  148.9630 O   0  0  0  0  0  0  0  0  0  0  0  0
  186.7280  177.5170  147.2800 O   0  0  0  0  0  0  0  0  0  0  0  0
  189.1310  176.6660  145.8730 S   0  0  0  0  0  0  0  0  0  0  0  0
  184.5790  178.2060  143.3510 O   0  0  0  0  0  0  0  0  0  0  0  0
  183.9420  179.0760  142.4230 C   0  0  0  0  0  1  0  0  0  0  0  0
  190.2190  174.7590  143.0060 O   0  0  0  0  0  1  0  0  0  0  0  0
  190.3050  176.1320  143.2550 C   0  0  2  0  0  3  0  0  0  0  0  0
  191.6850  176.5150  143.8080 C   0  0  2  0  0  3  0  0  0  0  0  0
  192.0630  175.6010  144.7950 O   0  0  0  0  0  1  0  0  0  0  0  0
  191.7770  177.9430  144.3530 C   0  0  0  0  0  2  0  0  0  0  0  0
  191.4860  178.8820  143.3590 O   0  0  0  0  0  1  0  0  0  0  0  0
  1 32  1  0  0  0  0
  2  1  1  1  0  0  0
  3  6  1  0  0  0  0
  4  6  1  0  0  0  0
  6  5  1  0  0  0  0
  6  2  1  0  0  0  0
  7  2  1  0  0  0  0
  8  9  1  6  0  0  0
  8  7  1  0  0  0  0
  8 11  1  0  0  0  0
 10  8  1  0  0  0  0
 11 19  1  6  0  0  0
 14 11  1  0  0  0  0
 14 12  2  0  0  0  0
 15 12  1  0  0  0  0
 15 13  1  0  0  0  0
 16 14  1  0  0  0  0
 17 16  2  0  0  0  0
 17 18  1  0  0  0  0
 18 15  2  0  0  0  0
 19 20  1  0  0  0  0
 21 28  2  0  0  0  0
 22 24  1  0  0  0  0
 23 24  1  0  0  0  0
 25 23  1  1  0  0  0
 26 25  1  0  0  0  0
 26 22  1  0  0  0  0
 27 20  1  6  0  0  0
 27 25  1  0  0  0  0
 28 29  1  0  0  0  0
 28 26  1  0  0  0  0
 29 30  1  1  0  0  0
 29 27  1  0  0  0  0
 30 31  1  0  0  0  0
 33 37  1  0  0  0  0
 34 32  1  6  0  0  0
 34 35  1  0  0  0  0
 34 33  1  0  0  0  0
 35 36  1  0  0  0  0
 37 36  1  6  0  0  0
 37 40  1  0  0  0  0
 38 45  2  0  0  0  0
 39 46  2  0  0  0  0
 39 41  1  0  0  0  0
 40 38  1  1  0  0  0
 40 39  1  0  0  0  0
 41 45  1  6  0  0  0
 41 49  1  0  0  0  0
 42 50  1  0  0  0  0
 42 44  1  1  0  0  0
 43 42  1  0  0  0  0
 45 53  1  0  0  0  0
 46 52  1  0  0  0  0
 47 51  1  6  0  0  0
 48 52  1  6  0  0  0
 48 47  1  0  0  0  0
 48 43  1  0  0  0  0
 49 48  1  0  0  0  0
 49 47  1  0  0  0  0
 50 44  1  0  0  0  0
 51 42  1  0  0  0  0
 54 53  1  0  0  0  0
 55 56  1  0  0  0  0
 56 57  1  0  0  0  0
 56 46  1  0  0  0  0
 57 59  1  0  0  0  0
 57 58  1  0  0  0  0
 60 59  1  0  0  0  0
M  END
>  <MODEL>
9

>  <REMARK>
 VINA RESULT:      -3.5      4.236     10.327
  Name = 
  17 active torsions:
  status: ('A' for Active; 'I' for Inactive)
    1  A    between atoms: N_2  and  N_36
    2  A    between atoms: N_2  and  C_43
    3  A    between atoms: C_5  and  C_45
    4  A    between atoms: C_5  and  C_59
    5  A    between atoms: C_8  and  C_28
    6  A    between atoms: C_8  and  N_55
    7  A    between atoms: O_14  and  C_32
    8  A    between atoms: C_15  and  C_28
    9  A    between atoms: C_16  and  C_50
   10  A    between atoms: C_22  and  C_45
   11  A    between atoms: C_25  and  C_27
   12  A    between atoms: C_25  and  C_31
   13  A    between atoms: C_28  and  N_36
   14  A    between atoms: C_31  and  C_34
   15  A    between atoms: C_38  and  C_51
   16  A    between atoms: C_44  and  C_59
   17  A    between atoms: N_55  and  C_59
                            x       y       z     vdW  Elec       q    Type
                         _______ _______ _______ _____ _____    ______ ____

>  <TORSDO>
F 17

$$$$
