=
 OpenBabel11062417573D

 40 45  0  0  1  0  0  0  0  0999 V2000
  183.9090  178.9120  142.2670 C   0  0  0  0  0  3  0  0  0  0  0  0
  181.5460  178.6290  142.4720 N   0  0  0  0  0  0  0  0  0  0  0  0
  184.0230  178.9540  143.6570 C   0  0  0  0  0  0  0  0  0  0  0  0
  182.8730  178.8270  144.4470 C   0  0  0  0  0  3  0  0  0  0  0  0
  181.6320  178.6650  143.8280 C   0  0  0  0  0  3  0  0  0  0  0  0
  182.6480  178.7400  141.6810 C   0  0  0  0  0  0  0  0  0  0  0  0
  182.4870  178.7250  140.1950 C   0  0  2  0  0  3  0  0  0  0  0  0
  183.4500  179.5310  139.5860 O   0  0  0  0  0  1  0  0  0  0  0  0
  180.7660  182.8870  136.8660 C   0  0  0  0  0  2  0  0  0  0  0  0
  180.8190  179.2890  139.7370 P   0  0  2  0  0  4  0  0  0  0  0  0
  180.1320  179.9880  137.5000 C   0  0  1  0  0  3  0  0  0  0  0  0
  180.7380  180.4440  136.2100 C   0  0  0  0  0  0  0  0  0  0  0  0
  180.4250  178.5950  138.0590 C   0  0  1  0  0  0  0  0  0  0  0  0
  181.5360  177.9050  137.5730 O   0  0  0  0  0  1  0  0  0  0  0  0
  179.8950  181.8820  139.0640 C   0  0  0  0  0  2  0  0  0  0  0  0
  180.8050  181.8170  135.9040 O   0  0  0  0  0  0  0  0  0  0  0  0
  179.2020  184.1610  138.3350 C   0  0  0  0  0  1  0  0  0  0  0  0
  179.5860  182.7800  137.8490 C   0  0  1  0  0  3  0  0  0  0  0  0
  180.7810  180.7230  138.6460 C   0  0  1  0  0  3  0  0  0  0  0  0
  181.0580  179.6020  135.3300 O   0  0  0  0  0  0  0  0  0  0  0  0
  179.6800  177.9790  139.1430 C   0  0  0  0  0  2  0  0  0  0  0  0
  185.3160  179.1060  144.2480 N   0  0  0  0  0  2  0  0  0  0  0  0
  188.9580  176.8110  146.4750 O   0  0  0  0  0  1  0  0  0  0  0  0
  187.1170  177.7890  145.2860 C   0  0  2  0  0  3  0  0  0  0  0  0
  188.0290  177.8460  148.8470 O   0  0  0  0  0  0  0  0  0  0  0  0
  186.4500  179.1730  147.7040 C   0  0  0  0  0  3  0  0  0  0  0  0
  185.6900  179.3620  146.6240 C   0  0  0  0  0  3  0  0  0  0  0  0
  187.4050  178.0560  147.7730 C   0  0  0  0  0  0  0  0  0  0  0  0
  187.6070  177.1420  146.5940 C   0  0  2  0  0  3  0  0  0  0  0  0
  185.7220  178.4100  145.4620 C   0  0  1  0  0  3  0  0  0  0  0  0
  187.1590  176.7890  144.1200 C   0  0  0  0  0  2  0  0  0  0  0  0
  190.4640  177.3200  142.3610 C   0  0  0  0  0  0  0  0  0  0  0  0
  188.1710  177.1490  143.0780 C   0  0  0  0  0  0  0  0  0  0  0  0
  187.7710  177.7010  141.9000 N   0  0  0  0  0  0  0  0  0  0  0  0
  190.0340  177.8830  141.1580 C   0  0  0  0  0  3  0  0  0  0  0  0
  188.6660  178.0680  140.9390 C   0  0  0  0  0  0  0  0  0  0  0  0
  189.5300  176.9490  143.3270 C   0  0  0  0  0  3  0  0  0  0  0  0
  191.9150  177.1210  142.6130 C   0  0  0  0  0  1  0  0  0  0  0  0
  188.2360  178.6260  139.7340 O   0  0  0  0  0  0  0  0  0  0  0  0
  189.0530  178.6300  138.5730 C   0  0  0  0  0  1  0  0  0  0  0  0
  1  3  1  0  0  0  0
  2  5  2  0  0  0  0
  3 22  1  0  0  0  0
  3  4  2  0  0  0  0
  5  4  1  0  0  0  0
  6  1  2  0  0  0  0
  6  2  1  0  0  0  0
  7  8  1  6  0  0  0
  7  6  1  0  0  0  0
  9 18  1  0  0  0  0
 10  7  1  1  0  0  0
 11 12  1  6  0  0  0
 11 13  1  0  0  0  0
 11 19  1  0  0  0  0
 13 14  1  6  0  0  0
 13 21  1  0  0  0  0
 13 10  1  0  0  0  0
 16 12  1  0  0  0  0
 16  9  1  0  0  0  0
 18 17  1  1  0  0  0
 18 15  1  0  0  0  0
 19 15  1  1  0  0  0
 19 10  1  0  0  0  0
 20 12  2  0  0  0  0
 21 10  1  0  0  0  0
 24 31  1  6  0  0  0
 24 30  1  0  0  0  0
 24 29  1  0  0  0  0
 26 28  1  0  0  0  0
 27 26  2  0  0  0  0
 28 25  2  0  0  0  0
 29 23  1  6  0  0  0
 29 28  1  0  0  0  0
 30 22  1  6  0  0  0
 30 27  1  0  0  0  0
 32 38  1  0  0  0  0
 32 37  1  0  0  0  0
 33 37  2  0  0  0  0
 33 31  1  0  0  0  0
 34 33  1  0  0  0  0
 35 32  2  0  0  0  0
 36 35  1  0  0  0  0
 36 34  2  0  0  0  0
 39 36  1  0  0  0  0
 40 39  1  0  0  0  0
M  END
>  <MODEL>
1

>  <REMARK>
 VINA RESULT:      -9.1      0.000      0.000
  Name = 
  7 active torsions:
  status: ('A' for Active; 'I' for Inactive)
    1  A    between atoms: C_4  and  C_23
    2  A    between atoms: P_6  and  C_27
    3  A    between atoms: O_7  and  C_16
    4  A    between atoms: C_8  and  C_23
    5  A    between atoms: N_10  and  C_21
    6  A    between atoms: N_10  and  C_39
    7  A    between atoms: C_27  and  C_31
                            x       y       z     vdW  Elec       q    Type
                         _______ _______ _______ _____ _____    ______ ____

>  <TORSDO>
F 7

$$$$
=
 OpenBabel11062417573D

 40 45  0  0  1  0  0  0  0  0999 V2000
  185.8410  178.6040  141.2760 C   0  0  0  0  0  3  0  0  0  0  0  0
  183.5730  178.7870  142.0080 N   0  0  0  0  0  0  0  0  0  0  0  0
  186.2450  178.3730  142.5920 C   0  0  0  0  0  0  0  0  0  0  0  0
  185.2860  178.3480  143.6130 C   0  0  0  0  0  3  0  0  0  0  0  0
  183.9430  178.5610  143.2970 C   0  0  0  0  0  3  0  0  0  0  0  0
  184.4830  178.8050  140.9950 C   0  0  0  0  0  0  0  0  0  0  0  0
  184.0210  179.0900  139.6030 C   0  0  2  0  0  3  0  0  0  0  0  0
  184.5710  180.2840  139.1340 O   0  0  0  0  0  1  0  0  0  0  0  0
  180.5510  182.4410  136.7570 C   0  0  0  0  0  2  0  0  0  0  0  0
  182.2040  179.1750  139.5470 P   0  0  2  0  0  4  0  0  0  0  0  0
  180.8700  179.5250  137.5320 C   0  0  1  0  0  3  0  0  0  0  0  0
  181.0250  180.0370  136.1340 C   0  0  0  0  0  0  0  0  0  0  0  0
  181.6400  178.2940  138.0110 C   0  0  1  0  0  0  0  0  0  0  0  0
  182.7550  177.8840  137.2790 O   0  0  0  0  0  1  0  0  0  0  0  0
  180.4970  181.3930  139.1020 C   0  0  0  0  0  2  0  0  0  0  0  0
  180.6550  181.3570  135.8160 O   0  0  0  0  0  0  0  0  0  0  0  0
  179.0780  183.3640  138.5480 C   0  0  0  0  0  1  0  0  0  0  0  0
  179.6950  182.1000  137.9900 C   0  0  1  0  0  3  0  0  0  0  0  0
  181.5410  180.4760  138.4900 C   0  0  1  0  0  3  0  0  0  0  0  0
  181.3510  179.2490  135.2060 O   0  0  0  0  0  0  0  0  0  0  0  0
  181.3500  177.5800  139.2420 C   0  0  0  0  0  2  0  0  0  0  0  0
  187.6290  178.1440  142.8670 N   0  0  0  0  0  2  0  0  0  0  0  0
  192.2830  177.2500  141.8530 O   0  0  0  0  0  1  0  0  0  0  0  0
  190.0340  177.8480  142.4370 C   0  0  2  0  0  3  0  0  0  0  0  0
  191.5190  176.7490  139.2590 O   0  0  0  0  0  0  0  0  0  0  0  0
  189.2410  176.9100  139.8490 C   0  0  0  0  0  3  0  0  0  0  0  0
  188.3100  177.3970  140.6700 C   0  0  0  0  0  3  0  0  0  0  0  0
  190.6720  177.1320  140.1090 C   0  0  0  0  0  0  0  0  0  0  0  0
  191.1260  177.8500  141.3530 C   0  0  2  0  0  3  0  0  0  0  0  0
  188.6700  178.2500  141.8530 C   0  0  1  0  0  3  0  0  0  0  0  0
  190.4310  178.7310  143.6310 C   0  0  0  0  0  2  0  0  0  0  0  0
  191.2090  176.5220  146.6000 C   0  0  0  0  0  0  0  0  0  0  0  0
  190.3120  178.0250  144.9450 C   0  0  0  0  0  0  0  0  0  0  0  0
  189.1830  178.1600  145.6920 N   0  0  0  0  0  0  0  0  0  0  0  0
  190.0430  176.6750  147.3530 C   0  0  0  0  0  3  0  0  0  0  0  0
  189.0270  177.5100  146.8810 C   0  0  0  0  0  0  0  0  0  0  0  0
  191.3480  177.2010  145.3900 C   0  0  0  0  0  3  0  0  0  0  0  0
  192.2980  175.6350  147.0850 C   0  0  0  0  0  1  0  0  0  0  0  0
  187.8640  177.6670  147.6360 O   0  0  0  0  0  0  0  0  0  0  0  0
  186.6560  178.1460  147.0650 C   0  0  0  0  0  1  0  0  0  0  0  0
  1  3  1  0  0  0  0
  2  5  2  0  0  0  0
  3 22  1  0  0  0  0
  3  4  2  0  0  0  0
  5  4  1  0  0  0  0
  6  1  2  0  0  0  0
  6  2  1  0  0  0  0
  7  8  1  1  0  0  0
  7  6  1  0  0  0  0
  9 18  1  0  0  0  0
 10  7  1  1  0  0  0
 11 12  1  6  0  0  0
 11 13  1  0  0  0  0
 11 19  1  0  0  0  0
 13 14  1  6  0  0  0
 13 21  1  0  0  0  0
 13 10  1  0  0  0  0
 16 12  1  0  0  0  0
 16  9  1  0  0  0  0
 18 17  1  1  0  0  0
 18 15  1  0  0  0  0
 19 15  1  1  0  0  0
 19 10  1  0  0  0  0
 20 12  2  0  0  0  0
 21 10  1  0  0  0  0
 24 31  1  1  0  0  0
 25 28  2  0  0  0  0
 26 28  1  0  0  0  0
 26 27  2  0  0  0  0
 27 30  1  0  0  0  0
 28 29  1  0  0  0  0
 29 23  1  1  0  0  0
 29 24  1  0  0  0  0
 30 24  1  0  0  0  0
 30 22  1  1  0  0  0
 31 33  1  0  0  0  0
 32 38  1  0  0  0  0
 32 35  2  0  0  0  0
 33 37  2  0  0  0  0
 33 34  1  0  0  0  0
 34 36  2  0  0  0  0
 36 35  1  0  0  0  0
 36 39  1  0  0  0  0
 37 32  1  0  0  0  0
 40 39  1  0  0  0  0
M  END
>  <MODEL>
2

>  <REMARK>
 VINA RESULT:      -9.0      2.012      4.391
  Name = 
  7 active torsions:
  status: ('A' for Active; 'I' for Inactive)
    1  A    between atoms: C_4  and  C_23
    2  A    between atoms: P_6  and  C_27
    3  A    between atoms: O_7  and  C_16
    4  A    between atoms: C_8  and  C_23
    5  A    between atoms: N_10  and  C_21
    6  A    between atoms: N_10  and  C_39
    7  A    between atoms: C_27  and  C_31
                            x       y       z     vdW  Elec       q    Type
                         _______ _______ _______ _____ _____    ______ ____

>  <TORSDO>
F 7

$$$$
=
 OpenBabel11062417573D

 40 45  0  0  1  0  0  0  0  0999 V2000
  183.5370  178.5660  142.2890 C   0  0  0  0  0  3  0  0  0  0  0  0
  181.2260  178.7050  142.8780 N   0  0  0  0  0  0  0  0  0  0  0  0
  183.8870  178.7290  143.6300 C   0  0  0  0  0  0  0  0  0  0  0  0
  182.8780  178.8770  144.5920 C   0  0  0  0  0  3  0  0  0  0  0  0
  181.5420  178.8630  144.1910 C   0  0  0  0  0  3  0  0  0  0  0  0
  182.1850  178.5490  141.9240 C   0  0  0  0  0  0  0  0  0  0  0  0
  181.7770  178.4100  140.4930 C   0  0  2  0  0  3  0  0  0  0  0  0
  180.6510  177.5920  140.3770 O   0  0  0  0  0  1  0  0  0  0  0  0
  181.8410  174.7250  136.2760 C   0  0  0  0  0  2  0  0  0  0  0  0
  183.1480  177.7260  139.5110 P   0  0  2  0  0  4  0  0  0  0  0  0
  183.1070  177.3560  137.0980 C   0  0  1  0  0  3  0  0  0  0  0  0
  182.1210  177.2210  135.9800 C   0  0  0  0  0  0  0  0  0  0  0  0
  183.2130  178.6530  137.9020 C   0  0  1  0  0  0  0  0  0  0  0  0
  182.1500  179.5560  137.8470 O   0  0  0  0  0  1  0  0  0  0  0  0
  183.4060  175.1980  138.2570 C   0  0  0  0  0  2  0  0  0  0  0  0
  181.7410  175.9450  135.5200 O   0  0  0  0  0  0  0  0  0  0  0  0
  183.4850  173.0170  137.0570 C   0  0  0  0  0  1  0  0  0  0  0  0
  183.2330  174.5000  136.8930 C   0  0  1  0  0  3  0  0  0  0  0  0
  182.6570  176.5180  138.2670 C   0  0  1  0  0  3  0  0  0  0  0  0
  181.7360  178.2410  135.3500 O   0  0  0  0  0  0  0  0  0  0  0  0
  184.3050  178.9640  138.8070 C   0  0  0  0  0  2  0  0  0  0  0  0
  185.2680  178.7210  143.9980 N   0  0  0  0  0  2  0  0  0  0  0  0
  189.1530  176.9380  146.2820 O   0  0  0  0  0  1  0  0  0  0  0  0
  187.2080  177.6550  145.0740 C   0  0  2  0  0  3  0  0  0  0  0  0
  188.1440  177.9910  148.6130 O   0  0  0  0  0  0  0  0  0  0  0  0
  186.4230  179.0850  147.4290 C   0  0  0  0  0  3  0  0  0  0  0  0
  185.6370  179.1370  146.3530 C   0  0  0  0  0  3  0  0  0  0  0  0
  187.4910  178.0790  147.5390 C   0  0  0  0  0  0  0  0  0  0  0  0
  187.7760  177.1310  146.4040 C   0  0  2  0  0  3  0  0  0  0  0  0
  185.7570  178.1350  145.2400 C   0  0  1  0  0  3  0  0  0  0  0  0
  187.3430  176.6070  143.9580 C   0  0  0  0  0  2  0  0  0  0  0  0
  190.4310  177.4120  141.9290 C   0  0  0  0  0  0  0  0  0  0  0  0
  188.2290  177.0560  142.8390 C   0  0  0  0  0  0  0  0  0  0  0  0
  187.6860  177.5880  141.7110 N   0  0  0  0  0  0  0  0  0  0  0  0
  189.8540  177.9530  140.7780 C   0  0  0  0  0  3  0  0  0  0  0  0
  188.4620  178.0330  140.6820 C   0  0  0  0  0  0  0  0  0  0  0  0
  189.6160  176.9580  142.9660 C   0  0  0  0  0  3  0  0  0  0  0  0
  191.9090  177.3230  142.0500 C   0  0  0  0  0  1  0  0  0  0  0  0
  187.8860  178.5700  139.5290 O   0  0  0  0  0  0  0  0  0  0  0  0
  187.7790  177.8240  138.3250 C   0  0  0  0  0  1  0  0  0  0  0  0
  1  3  1  0  0  0  0
  2  5  2  0  0  0  0
  3 22  1  0  0  0  0
  3  4  2  0  0  0  0
  5  4  1  0  0  0  0
  6  1  2  0  0  0  0
  6  2  1  0  0  0  0
  7  8  1  1  0  0  0
  7  6  1  0  0  0  0
  9 18  1  0  0  0  0
 10  7  1  1  0  0  0
 11 12  1  6  0  0  0
 11 13  1  0  0  0  0
 11 19  1  0  0  0  0
 13 14  1  6  0  0  0
 13 21  1  0  0  0  0
 13 10  1  0  0  0  0
 16 12  1  0  0  0  0
 16  9  1  0  0  0  0
 18 17  1  1  0  0  0
 18 15  1  0  0  0  0
 19 15  1  1  0  0  0
 19 10  1  0  0  0  0
 20 12  2  0  0  0  0
 21 10  1  0  0  0  0
 24 31  1  6  0  0  0
 24 30  1  0  0  0  0
 24 29  1  0  0  0  0
 26 28  1  0  0  0  0
 27 26  2  0  0  0  0
 28 25  2  0  0  0  0
 29 23  1  6  0  0  0
 29 28  1  0  0  0  0
 30 22  1  6  0  0  0
 30 27  1  0  0  0  0
 32 38  1  0  0  0  0
 32 37  1  0  0  0  0
 33 37  2  0  0  0  0
 33 31  1  0  0  0  0
 34 33  1  0  0  0  0
 35 32  2  0  0  0  0
 36 35  1  0  0  0  0
 36 34  2  0  0  0  0
 39 36  1  0  0  0  0
 40 39  1  0  0  0  0
M  END
>  <MODEL>
3

>  <REMARK>
 VINA RESULT:      -8.9      2.236      3.536
  Name = 
  7 active torsions:
  status: ('A' for Active; 'I' for Inactive)
    1  A    between atoms: C_4  and  C_23
    2  A    between atoms: P_6  and  C_27
    3  A    between atoms: O_7  and  C_16
    4  A    between atoms: C_8  and  C_23
    5  A    between atoms: N_10  and  C_21
    6  A    between atoms: N_10  and  C_39
    7  A    between atoms: C_27  and  C_31
                            x       y       z     vdW  Elec       q    Type
                         _______ _______ _______ _____ _____    ______ ____

>  <TORSDO>
F 7

$$$$
=
 OpenBabel11062417573D

 40 45  0  0  1  0  0  0  0  0999 V2000
  189.4840  176.9170  140.6940 C   0  0  0  0  0  3  0  0  0  0  0  0
  191.0150  177.7290  139.0490 N   0  0  0  0  0  0  0  0  0  0  0  0
  190.5480  176.6750  141.5630 C   0  0  0  0  0  0  0  0  0  0  0  0
  191.8550  176.9740  141.1530 C   0  0  0  0  0  3  0  0  0  0  0  0
  192.0680  177.5040  139.8790 C   0  0  0  0  0  3  0  0  0  0  0  0
  189.7350  177.4570  139.4260 C   0  0  0  0  0  0  0  0  0  0  0  0
  188.6220  177.6960  138.4590 C   0  0  2  0  0  3  0  0  0  0  0  0
  187.4210  177.9220  139.1340 O   0  0  0  0  0  1  0  0  0  0  0  0
  184.1100  174.8560  136.7410 C   0  0  0  0  0  2  0  0  0  0  0  0
  188.4480  176.2760  137.3340 P   0  0  2  0  0  4  0  0  0  0  0  0
  186.6960  176.0130  135.6540 C   0  0  1  0  0  3  0  0  0  0  0  0
  185.3390  176.5530  135.3250 C   0  0  0  0  0  0  0  0  0  0  0  0
  187.9230  176.9250  135.6740 C   0  0  1  0  0  0  0  0  0  0  0  0
  187.7240  178.3040  135.7610 O   0  0  0  0  0  1  0  0  0  0  0  0
  186.5250  174.1940  137.3130 C   0  0  0  0  0  2  0  0  0  0  0  0
  184.1830  175.8390  135.6920 O   0  0  0  0  0  0  0  0  0  0  0  0
  184.7070  172.4930  137.2740 C   0  0  0  0  0  1  0  0  0  0  0  0
  185.2010  173.7750  136.6420 C   0  0  1  0  0  3  0  0  0  0  0  0
  186.7600  175.6820  137.1230 C   0  0  1  0  0  3  0  0  0  0  0  0
  185.2260  177.5720  134.5940 O   0  0  0  0  0  0  0  0  0  0  0  0
  189.2940  176.4460  135.7150 C   0  0  0  0  0  2  0  0  0  0  0  0
  190.2820  176.1460  142.8640 N   0  0  0  0  0  2  0  0  0  0  0  0
  190.5580  177.2980  147.5640 O   0  0  0  0  0  1  0  0  0  0  0  0
  190.4210  176.9080  145.2000 C   0  0  2  0  0  3  0  0  0  0  0  0
  192.6340  175.5070  147.7800 O   0  0  0  0  0  0  0  0  0  0  0  0
  192.2840  174.7640  145.5690 C   0  0  0  0  0  3  0  0  0  0  0  0
  191.8320  175.0190  144.3400 C   0  0  0  0  0  3  0  0  0  0  0  0
  192.1020  175.7340  146.6600 C   0  0  0  0  0  0  0  0  0  0  0  0
  191.3300  177.0070  146.4370 C   0  0  2  0  0  3  0  0  0  0  0  0
  191.1810  176.3280  143.9970 C   0  0  1  0  0  3  0  0  0  0  0  0
  189.7730  178.2630  144.8740 C   0  0  0  0  0  2  0  0  0  0  0  0
  186.1190  178.0930  145.8360 C   0  0  0  0  0  0  0  0  0  0  0  0
  188.2810  178.1890  144.7780 C   0  0  0  0  0  0  0  0  0  0  0  0
  187.6800  178.0840  143.5610 N   0  0  0  0  0  0  0  0  0  0  0  0
  185.5220  177.9870  144.5780 C   0  0  0  0  0  3  0  0  0  0  0  0
  186.3260  177.9860  143.4360 C   0  0  0  0  0  0  0  0  0  0  0  0
  187.5060  178.1960  145.9390 C   0  0  0  0  0  3  0  0  0  0  0  0
  185.2800  178.0910  147.0620 C   0  0  0  0  0  1  0  0  0  0  0  0
  185.7280  177.8860  142.1790 O   0  0  0  0  0  0  0  0  0  0  0  0
  184.3530  178.1750  141.9750 C   0  0  0  0  0  1  0  0  0  0  0  0
  1  3  1  0  0  0  0
  2  6  1  0  0  0  0
  2  5  2  0  0  0  0
  3 22  1  0  0  0  0
  4  3  2  0  0  0  0
  5  4  1  0  0  0  0
  6  1  2  0  0  0  0
  7  8  1  1  0  0  0
  7  6  1  0  0  0  0
 10  7  1  1  0  0  0
 11 12  1  1  0  0  0
 11 13  1  0  0  0  0
 11 19  1  0  0  0  0
 12 16  1  0  0  0  0
 13 21  1  0  0  0  0
 13 14  1  6  0  0  0
 13 10  1  0  0  0  0
 16  9  1  0  0  0  0
 18  9  1  0  0  0  0
 18 17  1  1  0  0  0
 18 15  1  0  0  0  0
 19 15  1  6  0  0  0
 19 10  1  0  0  0  0
 20 12  2  0  0  0  0
 21 10  1  0  0  0  0
 24 31  1  6  0  0  0
 24 29  1  0  0  0  0
 26 28  1  0  0  0  0
 27 26  2  0  0  0  0
 28 25  2  0  0  0  0
 29 28  1  0  0  0  0
 29 23  1  1  0  0  0
 30 22  1  6  0  0  0
 30 27  1  0  0  0  0
 30 24  1  0  0  0  0
 32 37  1  0  0  0  0
 32 38  1  0  0  0  0
 33 31  1  0  0  0  0
 33 37  2  0  0  0  0
 34 33  1  0  0  0  0
 35 32  2  0  0  0  0
 36 34  2  0  0  0  0
 36 35  1  0  0  0  0
 39 36  1  0  0  0  0
 40 39  1  0  0  0  0
M  END
>  <MODEL>
4

>  <REMARK>
 VINA RESULT:      -8.7      4.173      7.079
  Name = 
  7 active torsions:
  status: ('A' for Active; 'I' for Inactive)
    1  A    between atoms: C_4  and  C_23
    2  A    between atoms: P_6  and  C_27
    3  A    between atoms: O_7  and  C_16
    4  A    between atoms: C_8  and  C_23
    5  A    between atoms: N_10  and  C_21
    6  A    between atoms: N_10  and  C_39
    7  A    between atoms: C_27  and  C_31
                            x       y       z     vdW  Elec       q    Type
                         _______ _______ _______ _____ _____    ______ ____

>  <TORSDO>
F 7

$$$$
=
 OpenBabel11062417573D

 40 45  0  0  1  0  0  0  0  0999 V2000
  188.2820  177.5480  140.3630 C   0  0  0  0  0  3  0  0  0  0  0  0
  190.6220  177.1520  140.0910 N   0  0  0  0  0  0  0  0  0  0  0  0
  188.2320  178.1180  139.0900 C   0  0  0  0  0  0  0  0  0  0  0  0
  189.4020  178.1940  138.3230 C   0  0  0  0  0  3  0  0  0  0  0  0
  190.5980  177.7020  138.8470 C   0  0  0  0  0  3  0  0  0  0  0  0
  189.4990  177.0560  140.8530 C   0  0  0  0  0  0  0  0  0  0  0  0
  189.5940  176.4700  142.2250 C   0  0  2  0  0  3  0  0  0  0  0  0
  188.4390  175.7480  142.5350 O   0  0  0  0  0  1  0  0  0  0  0  0
  188.9480  176.5270  147.7880 C   0  0  0  0  0  2  0  0  0  0  0  0
  189.8560  177.7850  143.4550 P   0  0  2  0  0  4  0  0  0  0  0  0
  190.8790  177.4790  145.6510 C   0  0  1  0  0  3  0  0  0  0  0  0
  191.1880  176.3840  146.6240 C   0  0  0  0  0  0  0  0  0  0  0  0
  191.5070  177.4940  144.2570 C   0  0  1  0  0  0  0  0  0  0  0  0
  192.0550  176.3090  143.7640 O   0  0  0  0  0  1  0  0  0  0  0  0
  188.5520  178.2530  145.9270 C   0  0  0  0  0  2  0  0  0  0  0  0
  190.3330  176.1440  147.7160 O   0  0  0  0  0  0  0  0  0  0  0  0
  187.4630  178.4990  148.1540 C   0  0  0  0  0  1  0  0  0  0  0  0
  188.7040  178.0070  147.4420 C   0  0  1  0  0  3  0  0  0  0  0  0
  189.4650  177.3210  145.1520 C   0  0  1  0  0  3  0  0  0  0  0  0
  192.2850  175.7690  146.5550 O   0  0  0  0  0  0  0  0  0  0  0  0
  191.4780  178.6380  143.3620 C   0  0  0  0  0  2  0  0  0  0  0  0
  186.9820  178.5960  138.5870 N   0  0  0  0  0  2  0  0  0  0  0  0
  182.3060  178.4850  137.3180 O   0  0  0  0  0  1  0  0  0  0  0  0
  184.5680  178.6130  138.1070 C   0  0  2  0  0  3  0  0  0  0  0  0
  182.6720  175.8620  136.5740 O   0  0  0  0  0  0  0  0  0  0  0  0
  184.9960  176.0370  136.9300 C   0  0  0  0  0  3  0  0  0  0  0  0
  186.0100  176.6330  137.5600 C   0  0  0  0  0  3  0  0  0  0  0  0
  183.6150  176.5130  137.0980 C   0  0  0  0  0  0  0  0  0  0  0  0
  183.3170  177.7370  137.9240 C   0  0  2  0  0  3  0  0  0  0  0  0
  185.7840  177.7680  138.5180 C   0  0  1  0  0  3  0  0  0  0  0  0
  184.3060  179.7620  139.0940 C   0  0  0  0  0  2  0  0  0  0  0  0
  184.6160  178.5250  142.6540 C   0  0  0  0  0  0  0  0  0  0  0  0
  183.9510  179.2830  140.4670 C   0  0  0  0  0  0  0  0  0  0  0  0
  182.6470  179.0890  140.8050 N   0  0  0  0  0  0  0  0  0  0  0  0
  183.2720  178.3350  142.9830 C   0  0  0  0  0  3  0  0  0  0  0  0
  182.2870  178.6270  142.0370 C   0  0  0  0  0  0  0  0  0  0  0  0
  184.9600  179.0030  141.3900 C   0  0  0  0  0  3  0  0  0  0  0  0
  185.6770  178.2150  143.6460 C   0  0  0  0  0  1  0  0  0  0  0  0
  180.9440  178.4420  142.3680 O   0  0  0  0  0  0  0  0  0  0  0  0
  180.4630  178.6280  143.6910 C   0  0  0  0  0  1  0  0  0  0  0  0
  1  6  1  0  0  0  0
  2  6  2  0  0  0  0
  3  1  2  0  0  0  0
  4  5  2  0  0  0  0
  4  3  1  0  0  0  0
  5  2  1  0  0  0  0
  6  7  1  0  0  0  0
  7  8  1  1  0  0  0
 10  7  1  6  0  0  0
 10 13  1  0  0  0  0
 10 19  1  0  0  0  0
 11 12  1  1  0  0  0
 12 16  1  0  0  0  0
 13 14  1  6  0  0  0
 13 11  1  0  0  0  0
 15 18  1  0  0  0  0
 16  9  1  0  0  0  0
 18  9  1  0  0  0  0
 18 17  1  1  0  0  0
 19 11  1  0  0  0  0
 19 15  1  1  0  0  0
 20 12  2  0  0  0  0
 21 10  1  0  0  0  0
 21 13  1  0  0  0  0
 22  3  1  0  0  0  0
 24 30  1  0  0  0  0
 24 31  1  1  0  0  0
 25 28  2  0  0  0  0
 26 28  1  0  0  0  0
 26 27  2  0  0  0  0
 27 30  1  0  0  0  0
 28 29  1  0  0  0  0
 29 23  1  6  0  0  0
 29 24  1  0  0  0  0
 30 22  1  6  0  0  0
 31 33  1  0  0  0  0
 32 35  2  0  0  0  0
 32 38  1  0  0  0  0
 33 34  1  0  0  0  0
 33 37  2  0  0  0  0
 34 36  2  0  0  0  0
 36 39  1  0  0  0  0
 36 35  1  0  0  0  0
 37 32  1  0  0  0  0
 39 40  1  0  0  0  0
M  END
>  <MODEL>
5

>  <REMARK>
 VINA RESULT:      -8.6      3.295     10.323
  Name = 
  7 active torsions:
  status: ('A' for Active; 'I' for Inactive)
    1  A    between atoms: C_4  and  C_23
    2  A    between atoms: P_6  and  C_27
    3  A    between atoms: O_7  and  C_16
    4  A    between atoms: C_8  and  C_23
    5  A    between atoms: N_10  and  C_21
    6  A    between atoms: N_10  and  C_39
    7  A    between atoms: C_27  and  C_31
                            x       y       z     vdW  Elec       q    Type
                         _______ _______ _______ _____ _____    ______ ____

>  <TORSDO>
F 7

$$$$
=
 OpenBabel11062417573D

 40 45  0  0  1  0  0  0  0  0999 V2000
  185.2660  178.2580  139.7370 C   0  0  0  0  0  3  0  0  0  0  0  0
  186.1760  177.6110  137.6250 N   0  0  0  0  0  0  0  0  0  0  0  0
  186.5570  178.4520  140.2320 C   0  0  0  0  0  0  0  0  0  0  0  0
  187.6570  178.2200  139.3960 C   0  0  0  0  0  3  0  0  0  0  0  0
  187.4430  177.7940  138.0840 C   0  0  0  0  0  3  0  0  0  0  0  0
  185.0890  177.8380  138.4120 C   0  0  0  0  0  0  0  0  0  0  0  0
  183.7220  177.5890  137.8620 C   0  0  2  0  0  3  0  0  0  0  0  0
  183.6850  177.8550  136.4920 O   0  0  0  0  0  1  0  0  0  0  0  0
  180.3390  181.6630  136.0390 C   0  0  0  0  0  2  0  0  0  0  0  0
  182.4960  178.6160  138.7300 P   0  0  2  0  0  4  0  0  0  0  0  0
  180.3020  179.2340  137.8560 C   0  0  1  0  0  3  0  0  0  0  0  0
  179.5720  179.3090  136.5520 C   0  0  0  0  0  0  0  0  0  0  0  0
  180.8150  177.8990  138.3970 C   0  0  1  0  0  0  0  0  0  0  0  0
  180.9380  176.8280  137.5100 O   0  0  0  0  0  1  0  0  0  0  0  0
  181.6500  181.2700  138.2130 C   0  0  0  0  0  2  0  0  0  0  0  0
  179.4610  180.5360  135.8690 O   0  0  0  0  0  0  0  0  0  0  0  0
  180.8530  183.5470  137.5930 C   0  0  0  0  0  1  0  0  0  0  0  0
  180.5340  182.0700  137.5100 C   0  0  1  0  0  3  0  0  0  0  0  0
  181.6720  179.8420  137.6990 C   0  0  1  0  0  3  0  0  0  0  0  0
  178.9310  178.3110  136.1290 O   0  0  0  0  0  0  0  0  0  0  0  0
  181.2850  177.6960  139.7560 C   0  0  0  0  0  2  0  0  0  0  0  0
  186.7290  178.9030  141.5770 N   0  0  0  0  0  2  0  0  0  0  0  0
  186.6890  177.2240  146.1230 O   0  0  0  0  0  1  0  0  0  0  0  0
  186.7370  177.8820  143.8160 C   0  0  2  0  0  3  0  0  0  0  0  0
  184.3630  178.6380  146.5200 O   0  0  0  0  0  0  0  0  0  0  0  0
  184.5680  179.6590  144.4040 C   0  0  0  0  0  3  0  0  0  0  0  0
  185.0400  179.6100  143.1580 C   0  0  0  0  0  3  0  0  0  0  0  0
  184.9110  178.6180  145.3860 C   0  0  0  0  0  0  0  0  0  0  0  0
  185.8680  177.5110  145.0310 C   0  0  2  0  0  3  0  0  0  0  0  0
  185.8820  178.4630  142.6780 C   0  0  1  0  0  3  0  0  0  0  0  0
  187.5830  176.6870  143.3490 C   0  0  0  0  0  2  0  0  0  0  0  0
  191.1590  177.3320  142.3030 C   0  0  0  0  0  0  0  0  0  0  0  0
  189.0540  176.9540  143.4110 C   0  0  0  0  0  0  0  0  0  0  0  0
  189.6880  177.0030  144.6140 N   0  0  0  0  0  0  0  0  0  0  0  0
  191.7910  177.3820  143.5470 C   0  0  0  0  0  3  0  0  0  0  0  0
  191.0320  177.2160  144.7080 C   0  0  0  0  0  0  0  0  0  0  0  0
  189.7830  177.1190  142.2320 C   0  0  0  0  0  3  0  0  0  0  0  0
  191.9520  177.5030  141.0580 C   0  0  0  0  0  1  0  0  0  0  0  0
  191.6630  177.2710  145.9520 O   0  0  0  0  0  0  0  0  0  0  0  0
  191.0570  176.7530  147.1260 C   0  0  0  0  0  1  0  0  0  0  0  0
  1  3  1  0  0  0  0
  2  5  2  0  0  0  0
  2  6  1  0  0  0  0
  3 22  1  0  0  0  0
  4  3  2  0  0  0  0
  5  4  1  0  0  0  0
  6  1  2  0  0  0  0
  7  8  1  6  0  0  0
  7  6  1  0  0  0  0
  9 18  1  0  0  0  0
 10  7  1  6  0  0  0
 10 21  1  0  0  0  0
 11 12  1  6  0  0  0
 11 13  1  0  0  0  0
 13 14  1  6  0  0  0
 13 10  1  0  0  0  0
 13 21  1  0  0  0  0
 16  9  1  0  0  0  0
 16 12  1  0  0  0  0
 18 17  1  6  0  0  0
 18 15  1  0  0  0  0
 19 11  1  0  0  0  0
 19 15  1  1  0  0  0
 19 10  1  0  0  0  0
 20 12  2  0  0  0  0
 24 31  1  6  0  0  0
 24 29  1  0  0  0  0
 26 28  1  0  0  0  0
 27 26  2  0  0  0  0
 28 25  2  0  0  0  0
 29 28  1  0  0  0  0
 29 23  1  1  0  0  0
 30 22  1  6  0  0  0
 30 27  1  0  0  0  0
 30 24  1  0  0  0  0
 31 33  1  0  0  0  0
 32 35  2  0  0  0  0
 33 34  1  0  0  0  0
 34 36  2  0  0  0  0
 35 36  1  0  0  0  0
 36 39  1  0  0  0  0
 37 32  1  0  0  0  0
 37 33  2  0  0  0  0
 38 32  1  0  0  0  0
 39 40  1  0  0  0  0
M  END
>  <MODEL>
6

>  <REMARK>
 VINA RESULT:      -8.5      2.199      3.655
  Name = 
  7 active torsions:
  status: ('A' for Active; 'I' for Inactive)
    1  A    between atoms: C_4  and  C_23
    2  A    between atoms: P_6  and  C_27
    3  A    between atoms: O_7  and  C_16
    4  A    between atoms: C_8  and  C_23
    5  A    between atoms: N_10  and  C_21
    6  A    between atoms: N_10  and  C_39
    7  A    between atoms: C_27  and  C_31
                            x       y       z     vdW  Elec       q    Type
                         _______ _______ _______ _____ _____    ______ ____

>  <TORSDO>
F 7

$$$$
=
 OpenBabel11062417573D

 40 45  0  0  1  0  0  0  0  0999 V2000
  190.7880  176.5630  140.0330 C   0  0  0  0  0  3  0  0  0  0  0  0
  188.8170  177.7990  140.5780 N   0  0  0  0  0  0  0  0  0  0  0  0
  190.6570  176.9470  138.6980 C   0  0  0  0  0  0  0  0  0  0  0  0
  189.5880  177.7710  138.3190 C   0  0  0  0  0  3  0  0  0  0  0  0
  188.6700  178.1880  139.2840 C   0  0  0  0  0  3  0  0  0  0  0  0
  189.8510  177.0080  140.9750 C   0  0  0  0  0  0  0  0  0  0  0  0
  189.9420  176.5870  142.4060 C   0  0  2  0  0  3  0  0  0  0  0  0
  189.0730  175.5260  142.6650 O   0  0  0  0  0  1  0  0  0  0  0  0
  187.3630  176.8170  147.3730 C   0  0  0  0  0  2  0  0  0  0  0  0
  189.5590  177.9890  143.5010 P   0  0  2  0  0  4  0  0  0  0  0  0
  189.7690  177.9780  145.9340 C   0  0  1  0  0  3  0  0  0  0  0  0
  189.8660  177.0050  147.0670 C   0  0  0  0  0  0  0  0  0  0  0  0
  190.8410  178.0290  144.8450 C   0  0  1  0  0  0  0  0  0  0  0  0
  191.6940  176.9330  144.7010 O   0  0  0  0  0  1  0  0  0  0  0  0
  187.4100  178.3510  145.3120 C   0  0  0  0  0  2  0  0  0  0  0  0
  188.7230  176.6770  147.8210 O   0  0  0  0  0  0  0  0  0  0  0  0
  185.5780  178.5200  146.9910 C   0  0  0  0  0  1  0  0  0  0  0  0
  187.0480  178.2130  146.8050 C   0  0  1  0  0  3  0  0  0  0  0  0
  188.6630  177.5520  145.0020 C   0  0  1  0  0  3  0  0  0  0  0  0
  190.9920  176.5860  147.4440 O   0  0  0  0  0  0  0  0  0  0  0  0
  190.9680  179.1030  143.8750 C   0  0  0  0  0  2  0  0  0  0  0  0
  191.6300  176.5090  137.7460 N   0  0  0  0  0  2  0  0  0  0  0  0
  193.3110  172.8730  135.0180 O   0  0  0  0  0  1  0  0  0  0  0  0
  192.5660  174.7890  136.2550 C   0  0  2  0  0  3  0  0  0  0  0  0
  190.7510  171.8690  134.9530 O   0  0  0  0  0  0  0  0  0  0  0  0
  190.0280  173.4850  136.5100 C   0  0  0  0  0  3  0  0  0  0  0  0
  190.1910  174.6900  137.0590 C   0  0  0  0  0  3  0  0  0  0  0  0
  190.9920  172.9630  135.5290 C   0  0  0  0  0  0  0  0  0  0  0  0
  192.2310  173.7440  135.1770 C   0  0  2  0  0  3  0  0  0  0  0  0
  191.3190  175.5950  136.6540 C   0  0  1  0  0  3  0  0  0  0  0  0
  193.7210  175.7000  135.8090 C   0  0  0  0  0  2  0  0  0  0  0  0
  197.3830  174.8280  136.1710 C   0  0  0  0  0  0  0  0  0  0  0  0
  195.0360  175.3120  136.4100 C   0  0  0  0  0  0  0  0  0  0  0  0
  195.1190  175.0160  137.7360 N   0  0  0  0  0  0  0  0  0  0  0  0
  197.4480  174.5310  137.5340 C   0  0  0  0  0  3  0  0  0  0  0  0
  196.2930  174.6330  138.3130 C   0  0  0  0  0  0  0  0  0  0  0  0
  196.1720  175.2230  135.6040 C   0  0  0  0  0  3  0  0  0  0  0  0
  198.6000  174.7210  135.3260 C   0  0  0  0  0  1  0  0  0  0  0  0
  196.3600  174.3400  139.6760 O   0  0  0  0  0  0  0  0  0  0  0  0
  197.1310  175.1220  140.5760 C   0  0  0  0  0  1  0  0  0  0  0  0
  1  6  1  0  0  0  0
  2  6  2  0  0  0  0
  3  1  2  0  0  0  0
  4  3  1  0  0  0  0
  4  5  2  0  0  0  0
  5  2  1  0  0  0  0
  6  7  1  0  0  0  0
  7  8  1  6  0  0  0
  9 16  1  0  0  0  0
 10  7  1  6  0  0  0
 10 21  1  0  0  0  0
 10 13  1  0  0  0  0
 10 19  1  0  0  0  0
 11 12  1  1  0  0  0
 12 20  2  0  0  0  0
 12 16  1  0  0  0  0
 13 14  1  6  0  0  0
 13 11  1  0  0  0  0
 15 18  1  0  0  0  0
 18 17  1  6  0  0  0
 18  9  1  0  0  0  0
 19 15  1  1  0  0  0
 19 11  1  0  0  0  0
 21 13  1  0  0  0  0
 22  3  1  0  0  0  0
 24 31  1  6  0  0  0
 24 30  1  0  0  0  0
 25 28  2  0  0  0  0
 26 27  2  0  0  0  0
 28 26  1  0  0  0  0
 29 23  1  1  0  0  0
 29 28  1  0  0  0  0
 29 24  1  0  0  0  0
 30 27  1  0  0  0  0
 30 22  1  1  0  0  0
 31 33  1  0  0  0  0
 32 35  2  0  0  0  0
 33 34  1  0  0  0  0
 34 36  2  0  0  0  0
 35 36  1  0  0  0  0
 36 39  1  0  0  0  0
 37 32  1  0  0  0  0
 37 33  2  0  0  0  0
 38 32  1  0  0  0  0
 39 40  1  0  0  0  0
M  END
>  <MODEL>
7

>  <REMARK>
 VINA RESULT:      -8.5      6.329     11.124
  Name = 
  7 active torsions:
  status: ('A' for Active; 'I' for Inactive)
    1  A    between atoms: C_4  and  C_23
    2  A    between atoms: P_6  and  C_27
    3  A    between atoms: O_7  and  C_16
    4  A    between atoms: C_8  and  C_23
    5  A    between atoms: N_10  and  C_21
    6  A    between atoms: N_10  and  C_39
    7  A    between atoms: C_27  and  C_31
                            x       y       z     vdW  Elec       q    Type
                         _______ _______ _______ _____ _____    ______ ____

>  <TORSDO>
F 7

$$$$
=
 OpenBabel11062417573D

 40 45  0  0  1  0  0  0  0  0999 V2000
  184.8490  178.4080  142.7480 C   0  0  0  0  0  3  0  0  0  0  0  0
  182.9620  178.9070  144.1260 N   0  0  0  0  0  0  0  0  0  0  0  0
  185.6490  178.2990  143.8860 C   0  0  0  0  0  0  0  0  0  0  0  0
  185.0790  178.4960  145.1510 C   0  0  0  0  0  3  0  0  0  0  0  0
  183.7210  178.8030  145.2490 C   0  0  0  0  0  3  0  0  0  0  0  0
  183.4880  178.7100  142.8860 C   0  0  0  0  0  0  0  0  0  0  0  0
  182.6110  178.8680  141.6860 C   0  0  2  0  0  3  0  0  0  0  0  0
  181.2940  178.5160  141.9870 O   0  0  0  0  0  1  0  0  0  0  0  0
  179.9450  176.2280  137.5280 C   0  0  0  0  0  2  0  0  0  0  0  0
  183.2310  177.8490  140.3130 P   0  0  2  0  0  4  0  0  0  0  0  0
  182.4110  177.9280  138.0140 C   0  0  1  0  0  3  0  0  0  0  0  0
  181.2160  178.3960  137.2440 C   0  0  0  0  0  0  0  0  0  0  0  0
  183.2840  178.9140  138.7910 C   0  0  1  0  0  0  0  0  0  0  0  0
  182.7580  180.1710  139.0910 O   0  0  0  0  0  1  0  0  0  0  0  0
  182.0090  175.6820  138.9560 C   0  0  0  0  0  2  0  0  0  0  0  0
  180.2060  177.4860  136.8780 O   0  0  0  0  0  0  0  0  0  0  0  0
  180.8000  173.8910  137.7170 C   0  0  0  0  0  1  0  0  0  0  0  0
  181.1990  175.3500  137.6860 C   0  0  1  0  0  3  0  0  0  0  0  0
  181.9540  177.1730  139.2370 C   0  0  1  0  0  3  0  0  0  0  0  0
  181.1760  179.5720  136.7940 O   0  0  0  0  0  0  0  0  0  0  0  0
  184.5930  178.5930  139.3330 C   0  0  0  0  0  2  0  0  0  0  0  0
  187.0320  177.9670  143.7380 N   0  0  0  0  0  2  0  0  0  0  0  0
  191.4070  176.2770  144.9600 O   0  0  0  0  0  1  0  0  0  0  0  0
  189.2110  176.9540  144.2680 C   0  0  2  0  0  3  0  0  0  0  0  0
  190.8770  177.0540  147.5440 O   0  0  0  0  0  0  0  0  0  0  0  0
  188.8860  178.1190  146.8650 C   0  0  0  0  0  3  0  0  0  0  0  0
  187.8830  178.2060  145.9900 C   0  0  0  0  0  3  0  0  0  0  0  0
  190.0020  177.1860  146.6470 C   0  0  0  0  0  0  0  0  0  0  0  0
  190.0810  176.3610  145.3900 C   0  0  2  0  0  3  0  0  0  0  0  0
  187.8090  177.3140  144.7850 C   0  0  1  0  0  3  0  0  0  0  0  0
  189.1530  176.0160  143.0520 C   0  0  0  0  0  2  0  0  0  0  0  0
  191.3350  177.3430  140.2630 C   0  0  0  0  0  0  0  0  0  0  0  0
  189.5890  176.6790  141.7820 C   0  0  0  0  0  0  0  0  0  0  0  0
  188.6740  177.2950  140.9860 N   0  0  0  0  0  0  0  0  0  0  0  0
  190.3810  177.9670  139.4580 C   0  0  0  0  0  3  0  0  0  0  0  0
  189.0360  177.9330  139.8370 C   0  0  0  0  0  0  0  0  0  0  0  0
  190.9400  176.6920  141.4310 C   0  0  0  0  0  3  0  0  0  0  0  0
  192.7700  177.3730  139.8770 C   0  0  0  0  0  1  0  0  0  0  0  0
  188.0820  178.5530  139.0300 O   0  0  0  0  0  0  0  0  0  0  0  0
  187.9070  178.2010  137.6650 C   0  0  0  0  0  1  0  0  0  0  0  0
  1  6  2  0  0  0  0
  1  3  1  0  0  0  0
  2  5  2  0  0  0  0
  3  4  2  0  0  0  0
  4  5  1  0  0  0  0
  6  2  1  0  0  0  0
  7  8  1  1  0  0  0
  7  6  1  0  0  0  0
  9 18  1  0  0  0  0
 10  7  1  1  0  0  0
 11 12  1  1  0  0  0
 11 13  1  0  0  0  0
 11 19  1  0  0  0  0
 13 14  1  1  0  0  0
 13 21  1  0  0  0  0
 13 10  1  0  0  0  0
 16 12  1  0  0  0  0
 16  9  1  0  0  0  0
 18 17  1  1  0  0  0
 18 15  1  0  0  0  0
 19 15  1  6  0  0  0
 19 10  1  0  0  0  0
 20 12  2  0  0  0  0
 21 10  1  0  0  0  0
 22  3  1  0  0  0  0
 24 31  1  6  0  0  0
 24 30  1  0  0  0  0
 24 29  1  0  0  0  0
 27 26  2  0  0  0  0
 28 26  1  0  0  0  0
 28 25  2  0  0  0  0
 29 23  1  6  0  0  0
 29 28  1  0  0  0  0
 30 22  1  6  0  0  0
 30 27  1  0  0  0  0
 32 37  1  0  0  0  0
 33 31  1  0  0  0  0
 34 33  1  0  0  0  0
 35 36  1  0  0  0  0
 35 32  2  0  0  0  0
 36 34  2  0  0  0  0
 37 33  2  0  0  0  0
 38 32  1  0  0  0  0
 39 36  1  0  0  0  0
 40 39  1  0  0  0  0
M  END
>  <MODEL>
8

>  <REMARK>
 VINA RESULT:      -8.5      2.280      3.530
  Name = 
  7 active torsions:
  status: ('A' for Active; 'I' for Inactive)
    1  A    between atoms: C_4  and  C_23
    2  A    between atoms: P_6  and  C_27
    3  A    between atoms: O_7  and  C_16
    4  A    between atoms: C_8  and  C_23
    5  A    between atoms: N_10  and  C_21
    6  A    between atoms: N_10  and  C_39
    7  A    between atoms: C_27  and  C_31
                            x       y       z     vdW  Elec       q    Type
                         _______ _______ _______ _____ _____    ______ ____

>  <TORSDO>
F 7

$$$$
=
 OpenBabel11062417573D

 40 45  0  0  1  0  0  0  0  0999 V2000
  189.0910  177.1270  140.4440 C   0  0  0  0  0  3  0  0  0  0  0  0
  191.4360  176.7670  140.7290 N   0  0  0  0  0  0  0  0  0  0  0  0
  189.3110  177.5040  139.1190 C   0  0  0  0  0  0  0  0  0  0  0  0
  190.6170  177.5020  138.6100 C   0  0  0  0  0  3  0  0  0  0  0  0
  191.6750  177.1280  139.4400 C   0  0  0  0  0  3  0  0  0  0  0  0
  190.1760  176.7500  141.2460 C   0  0  0  0  0  0  0  0  0  0  0  0
  189.9790  176.3740  142.6780 C   0  0  2  0  0  3  0  0  0  0  0  0
  188.9790  175.4060  142.8020 O   0  0  0  0  0  1  0  0  0  0  0  0
  187.3190  176.9090  147.5780 C   0  0  0  0  0  2  0  0  0  0  0  0
  189.5500  177.8430  143.6620 P   0  0  2  0  0  4  0  0  0  0  0  0
  189.7230  178.0130  146.0920 C   0  0  1  0  0  3  0  0  0  0  0  0
  189.8220  177.1280  147.2950 C   0  0  0  0  0  0  0  0  0  0  0  0
  190.8100  178.0080  145.0170 C   0  0  1  0  0  0  0  0  0  0  0  0
  191.6870  176.9230  144.9660 O   0  0  0  0  0  1  0  0  0  0  0  0
  187.3660  178.2900  145.4120 C   0  0  0  0  0  2  0  0  0  0  0  0
  188.6750  176.8310  148.0540 O   0  0  0  0  0  0  0  0  0  0  0  0
  185.5060  178.5400  147.0490 C   0  0  0  0  0  1  0  0  0  0  0  0
  186.9840  178.2530  146.9060 C   0  0  1  0  0  3  0  0  0  0  0  0
  188.6400  177.4970  145.1790 C   0  0  1  0  0  3  0  0  0  0  0  0
  190.9510  176.7610  147.7170 O   0  0  0  0  0  0  0  0  0  0  0  0
  190.9300  179.0120  143.9740 C   0  0  0  0  0  2  0  0  0  0  0  0
  188.1960  177.8650  138.3000 N   0  0  0  0  0  2  0  0  0  0  0  0
  184.3420  177.1280  135.4560 O   0  0  0  0  0  1  0  0  0  0  0  0
  186.1400  177.5880  136.9770 C   0  0  2  0  0  3  0  0  0  0  0  0
  185.0080  174.4600  135.4120 O   0  0  0  0  0  0  0  0  0  0  0  0
  187.0250  174.8970  136.5530 C   0  0  0  0  0  3  0  0  0  0  0  0
  187.7170  175.6780  137.3830 C   0  0  0  0  0  3  0  0  0  0  0  0
  185.6730  175.2710  136.1100 C   0  0  0  0  0  0  0  0  0  0  0  0
  185.0650  176.5860  136.5210 C   0  0  2  0  0  3  0  0  0  0  0  0
  187.1280  176.9350  137.9570 C   0  0  1  0  0  3  0  0  0  0  0  0
  185.5050  178.8600  137.5610 C   0  0  0  0  0  2  0  0  0  0  0  0
  183.0020  177.7000  140.1490 C   0  0  0  0  0  0  0  0  0  0  0  0
  184.8250  178.6240  138.8740 C   0  0  0  0  0  0  0  0  0  0  0  0
  185.3420  179.1570  140.0150 N   0  0  0  0  0  0  0  0  0  0  0  0
  183.5490  178.2530  141.3080 C   0  0  0  0  0  3  0  0  0  0  0  0
  184.7360  178.9860  141.2240 C   0  0  0  0  0  0  0  0  0  0  0  0
  183.6430  177.8830  138.9240 C   0  0  0  0  0  3  0  0  0  0  0  0
  181.7390  176.9210  140.2190 C   0  0  0  0  0  1  0  0  0  0  0  0
  185.2840  179.5350  142.3840 O   0  0  0  0  0  0  0  0  0  0  0  0
  184.5560  179.6030  143.6010 C   0  0  0  0  0  1  0  0  0  0  0  0
  1  6  1  0  0  0  0
  2  6  2  0  0  0  0
  3  1  2  0  0  0  0
  4  3  1  0  0  0  0
  4  5  2  0  0  0  0
  5  2  1  0  0  0  0
  6  7  1  0  0  0  0
  7  8  1  6  0  0  0
  9 16  1  0  0  0  0
 10  7  1  6  0  0  0
 10 21  1  0  0  0  0
 10 13  1  0  0  0  0
 10 19  1  0  0  0  0
 11 12  1  1  0  0  0
 12 20  2  0  0  0  0
 12 16  1  0  0  0  0
 13 14  1  1  0  0  0
 13 11  1  0  0  0  0
 15 18  1  0  0  0  0
 18 17  1  6  0  0  0
 18  9  1  0  0  0  0
 19 15  1  6  0  0  0
 19 11  1  0  0  0  0
 21 13  1  0  0  0  0
 22  3  1  0  0  0  0
 24 31  1  1  0  0  0
 24 30  1  0  0  0  0
 25 28  2  0  0  0  0
 26 27  2  0  0  0  0
 27 30  1  0  0  0  0
 28 29  1  0  0  0  0
 28 26  1  0  0  0  0
 29 23  1  6  0  0  0
 29 24  1  0  0  0  0
 30 22  1  6  0  0  0
 31 33  1  0  0  0  0
 32 38  1  0  0  0  0
 32 35  2  0  0  0  0
 33 37  2  0  0  0  0
 33 34  1  0  0  0  0
 34 36  2  0  0  0  0
 36 35  1  0  0  0  0
 36 39  1  0  0  0  0
 37 32  1  0  0  0  0
 39 40  1  0  0  0  0
M  END
>  <MODEL>
9

>  <REMARK>
 VINA RESULT:      -8.4      3.625     10.265
  Name = 
  7 active torsions:
  status: ('A' for Active; 'I' for Inactive)
    1  A    between atoms: C_4  and  C_23
    2  A    between atoms: P_6  and  C_27
    3  A    between atoms: O_7  and  C_16
    4  A    between atoms: C_8  and  C_23
    5  A    between atoms: N_10  and  C_21
    6  A    between atoms: N_10  and  C_39
    7  A    between atoms: C_27  and  C_31
                            x       y       z     vdW  Elec       q    Type
                         _______ _______ _______ _____ _____    ______ ____

>  <TORSDO>
F 7

$$$$
