=
 OpenBabel11062416493D

 34 38  0  0  1  0  0  0  0  0999 V2000
  190.4170  176.8550  145.1700 C   0  0  2  0  0  3  0  0  0  0  0  0
  192.0510  177.3100  143.3680 C   0  0  0  0  0  1  0  0  0  0  0  0
  190.1440  176.9240  147.6540 C   0  0  0  0  0  2  0  0  0  0  0  0
  189.1660  177.2520  145.0310 C   0  0  0  0  0  0  0  0  0  0  0  0
  189.7060  176.5930  143.0090 C   0  0  2  0  0  3  0  0  0  0  0  0
  191.1460  176.9470  146.4850 C   0  0  1  0  0  3  0  0  0  0  0  0
  189.6060  176.2460  141.6670 O   0  0  0  0  0  1  0  0  0  0  0  0
  188.3610  177.7180  146.0640 C   0  0  0  0  0  0  0  0  0  0  0  0
  185.0640  178.0760  144.1440 C   0  0  0  0  0  2  0  0  0  0  0  0
  192.0740  175.8380  146.6240 N   0  0  0  0  0  1  0  0  0  0  0  0
  188.9760  177.9030  147.4310 C   0  0  0  0  0  2  0  0  0  0  0  0
  190.9410  176.3900  143.8440 C   0  0  2  0  0  3  0  0  0  0  0  0
  186.5340  177.8910  144.4340 C   0  0  0  0  0  0  0  0  0  0  0  0
  184.3810  178.9920  145.1500 C   0  0  2  0  0  3  0  0  0  0  0  0
  184.6620  178.4770  146.5530 C   0  0  0  0  0  2  0  0  0  0  0  0
  186.1480  178.6200  146.8540 C   0  0  0  0  0  2  0  0  0  0  0  0
  187.0200  178.0360  145.7700 C   0  0  0  0  0  0  0  0  0  0  0  0
  187.4000  177.4420  143.3980 C   0  0  0  0  0  0  0  0  0  0  0  0
  188.7220  177.1050  143.7460 C   0  0  0  0  0  0  0  0  0  0  0  0
  186.9120  177.3210  141.9750 C   0  0  0  0  0  2  0  0  0  0  0  0
  186.9580  178.6350  141.1800 C   0  0  1  0  0  3  0  0  0  0  0  0
  188.0520  178.6500  140.1290 C   0  0  0  0  0  1  0  0  0  0  0  0
  185.6250  178.9900  140.5480 C   0  0  0  0  0  2  0  0  0  0  0  0
  185.5610  178.3350  138.8510 S   0  0  0  0  0  0  0  0  0  0  0  0
  180.9200  176.0390  139.8970 C   0  0  0  0  0  1  0  0  0  0  0  0
  181.8340  179.7060  139.4260 C   0  0  0  0  0  3  0  0  0  0  0  0
  181.7160  177.3180  140.0420 C   0  0  1  0  0  3  0  0  0  0  0  0
  183.7400  178.3060  138.7560 C   0  0  2  0  0  3  0  0  0  0  0  0
  183.1410  179.6270  139.1580 C   0  0  0  0  0  3  0  0  0  0  0  0
  183.1500  177.1030  139.5210 C   0  0  0  0  0  2  0  0  0  0  0  0
  180.9910  178.4680  139.3420 C   0  0  0  0  0  2  0  0  0  0  0  0
  182.8850  179.0050  144.8810 C   0  0  0  0  0  2  0  0  0  0  0  0
  181.1890  179.2750  143.1520 N   0  0  0  0  0  1  0  0  0  0  0  0
  182.5950  178.9950  143.3880 C   0  0  0  0  0  2  0  0  0  0  0  0
  1  4  1  6  0  0  0
  1  6  1  0  0  0  0
  4  8  1  0  0  0  0
  5  7  1  1  0  0  0
  5 19  1  0  0  0  0
  5 12  1  0  0  0  0
  6 10  1  1  0  0  0
  6  3  1  0  0  0  0
  8 11  1  0  0  0  0
  9 13  1  0  0  0  0
  9 14  1  0  0  0  0
 11  3  1  0  0  0  0
 12  2  1  6  0  0  0
 12  1  1  0  0  0  0
 13 17  1  0  0  0  0
 14 32  1  6  0  0  0
 14 15  1  0  0  0  0
 15 16  1  0  0  0  0
 17  8  2  0  0  0  0
 17 16  1  0  0  0  0
 18 19  1  0  0  0  0
 18 13  2  0  0  0  0
 19  4  2  0  0  0  0
 20 18  1  0  0  0  0
 21 22  1  6  0  0  0
 21 20  1  0  0  0  0
 23 21  1  0  0  0  0
 24 23  1  0  0  0  0
 27 25  1  6  0  0  0
 28 24  1  1  0  0  0
 28 29  1  0  0  0  0
 28 30  1  0  0  0  0
 29 26  2  0  0  0  0
 30 27  1  0  0  0  0
 31 26  1  0  0  0  0
 31 27  1  0  0  0  0
 33 34  1  0  0  0  0
 34 32  1  0  0  0  0
M  END
>  <MODEL>
1

>  <REMARK>
 VINA RESULT:      -9.5      0.000      0.000
  Name = 
  7 active torsions:
  status: ('A' for Active; 'I' for Inactive)
    1  A    between atoms: C_1  and  C_6
    2  A    between atoms: C_1  and  C_12
    3  A    between atoms: C_6  and  S_31
    4  A    between atoms: C_7  and  C_14
    5  A    between atoms: C_12  and  C_33
    6  A    between atoms: C_14  and  C_25
    7  A    between atoms: C_17  and  S_31
                            x       y       z     vdW  Elec       q    Type
                         _______ _______ _______ _____ _____    ______ ____

>  <TORSDO>
F 7

$$$$
=
 OpenBabel11062416493D

 34 38  0  0  1  0  0  0  0  0999 V2000
  184.7620  178.6610  143.3340 C   0  0  2  0  0  3  0  0  0  0  0  0
  184.3250  177.8640  141.0330 C   0  0  0  0  0  1  0  0  0  0  0  0
  183.6840  178.9210  145.5740 C   0  0  0  0  0  2  0  0  0  0  0  0
  185.8980  178.3470  143.9270 C   0  0  0  0  0  0  0  0  0  0  0  0
  186.5060  178.7070  141.8500 C   0  0  2  0  0  3  0  0  0  0  0  0
  183.4490  178.6770  144.0720 C   0  0  1  0  0  3  0  0  0  0  0  0
  187.2990  178.8920  140.7250 O   0  0  0  0  0  1  0  0  0  0  0  0
  186.0370  178.0750  145.2840 C   0  0  0  0  0  0  0  0  0  0  0  0
  189.8510  177.7340  145.4430 C   0  0  0  0  0  2  0  0  0  0  0  0
  182.5880  179.7210  143.5440 N   0  0  0  0  0  1  0  0  0  0  0  0
  184.7930  178.0130  146.1390 C   0  0  0  0  0  2  0  0  0  0  0  0
  185.0170  178.9170  141.8780 C   0  0  2  0  0  3  0  0  0  0  0  0
  188.4490  177.8410  144.8930 C   0  0  0  0  0  0  0  0  0  0  0  0
  189.8990  177.0040  146.7780 C   0  0  2  0  0  3  0  0  0  0  0  0
  188.9210  177.6660  147.7360 C   0  0  0  0  0  2  0  0  0  0  0  0
  187.4990  177.4480  147.2340 C   0  0  0  0  0  2  0  0  0  0  0  0
  187.3300  177.8250  145.7830 C   0  0  0  0  0  0  0  0  0  0  0  0
  188.2600  178.0910  143.5050 C   0  0  0  0  0  0  0  0  0  0  0  0
  186.9540  178.3670  143.0580 C   0  0  0  0  0  0  0  0  0  0  0  0
  189.4250  178.0720  142.5460 C   0  0  0  0  0  2  0  0  0  0  0  0
  189.8240  176.6680  142.0670 C   0  0  1  0  0  3  0  0  0  0  0  0
  189.1900  175.5620  142.8910 C   0  0  0  0  0  1  0  0  0  0  0  0
  189.5430  176.4440  140.5930 C   0  0  0  0  0  2  0  0  0  0  0  0
  190.6690  177.4690  139.5960 S   0  0  0  0  0  0  0  0  0  0  0  0
  186.5350  175.6400  136.8630 C   0  0  0  0  0  1  0  0  0  0  0  0
  188.2140  179.0580  136.8490 C   0  0  0  0  0  3  0  0  0  0  0  0
  187.1810  176.8900  137.4210 C   0  0  1  0  0  3  0  0  0  0  0  0
  189.6100  177.4780  138.1110 C   0  0  2  0  0  3  0  0  0  0  0  0
  189.2080  178.8750  137.7220 C   0  0  0  0  0  3  0  0  0  0  0  0
  188.4170  176.5120  138.2580 C   0  0  0  0  0  2  0  0  0  0  0  0
  187.5020  177.8640  136.2860 C   0  0  0  0  0  2  0  0  0  0  0  0
  191.3130  177.0720  147.3350 C   0  0  0  0  0  2  0  0  0  0  0  0
  193.2020  175.7390  148.1040 N   0  0  0  0  0  1  0  0  0  0  0  0
  191.9710  175.7010  147.3330 C   0  0  0  0  0  2  0  0  0  0  0  0
  1  4  1  6  0  0  0
  1  6  1  0  0  0  0
  3 11  1  0  0  0  0
  4  8  1  0  0  0  0
  5  7  1  1  0  0  0
  5 12  1  0  0  0  0
  5 19  1  0  0  0  0
  6 10  1  6  0  0  0
  6  3  1  0  0  0  0
  8 17  2  0  0  0  0
  8 11  1  0  0  0  0
  9 14  1  0  0  0  0
 12  2  1  6  0  0  0
 12  1  1  0  0  0  0
 13  9  1  0  0  0  0
 13 17  1  0  0  0  0
 14 32  1  1  0  0  0
 14 15  1  0  0  0  0
 16 15  1  0  0  0  0
 17 16  1  0  0  0  0
 18 13  2  0  0  0  0
 19 18  1  0  0  0  0
 19  4  2  0  0  0  0
 20 18  1  0  0  0  0
 21 20  1  0  0  0  0
 21 22  1  1  0  0  0
 23 21  1  0  0  0  0
 24 23  1  0  0  0  0
 26 29  2  0  0  0  0
 27 25  1  6  0  0  0
 27 30  1  0  0  0  0
 28 30  1  0  0  0  0
 28 24  1  1  0  0  0
 29 28  1  0  0  0  0
 31 26  1  0  0  0  0
 31 27  1  0  0  0  0
 34 32  1  0  0  0  0
 34 33  1  0  0  0  0
M  END
>  <MODEL>
2

>  <REMARK>
 VINA RESULT:      -9.4      2.161      6.164
  Name = 
  7 active torsions:
  status: ('A' for Active; 'I' for Inactive)
    1  A    between atoms: C_1  and  C_6
    2  A    between atoms: C_1  and  C_12
    3  A    between atoms: C_6  and  S_31
    4  A    between atoms: C_7  and  C_14
    5  A    between atoms: C_12  and  C_33
    6  A    between atoms: C_14  and  C_25
    7  A    between atoms: C_17  and  S_31
                            x       y       z     vdW  Elec       q    Type
                         _______ _______ _______ _____ _____    ______ ____

>  <TORSDO>
F 7

$$$$
=
 OpenBabel11062416493D

 34 38  0  0  1  0  0  0  0  0999 V2000
  190.2740  176.9940  145.3880 C   0  0  2  0  0  3  0  0  0  0  0  0
  191.9760  177.4550  143.6530 C   0  0  0  0  0  1  0  0  0  0  0  0
  189.8880  177.0980  147.8560 C   0  0  0  0  0  2  0  0  0  0  0  0
  189.0220  177.3620  145.1870 C   0  0  0  0  0  0  0  0  0  0  0  0
  189.6660  176.6820  143.2020 C   0  0  2  0  0  3  0  0  0  0  0  0
  190.9410  177.1240  146.7330 C   0  0  1  0  0  3  0  0  0  0  0  0
  189.6330  176.3110  141.8640 O   0  0  0  0  0  1  0  0  0  0  0  0
  188.1620  177.8270  146.1750 C   0  0  0  0  0  0  0  0  0  0  0  0
  184.9470  178.0830  144.1050 C   0  0  0  0  0  2  0  0  0  0  0  0
  191.8840  176.0370  146.9320 N   0  0  0  0  0  1  0  0  0  0  0  0
  188.7110  178.0480  147.5650 C   0  0  0  0  0  2  0  0  0  0  0  0
  190.8660  176.5190  144.0950 C   0  0  2  0  0  3  0  0  0  0  0  0
  186.4060  177.9340  144.4630 C   0  0  0  0  0  0  0  0  0  0  0  0
  184.2010  179.0010  145.0630 C   0  0  2  0  0  3  0  0  0  0  0  0
  184.4300  178.5140  146.4860 C   0  0  0  0  0  2  0  0  0  0  0  0
  185.8980  178.6950  146.8500 C   0  0  0  0  0  2  0  0  0  0  0  0
  186.8300  178.1120  145.8170 C   0  0  0  0  0  0  0  0  0  0  0  0
  187.3270  177.4870  143.4750 C   0  0  0  0  0  0  0  0  0  0  0  0
  188.6390  177.1840  143.8860 C   0  0  0  0  0  0  0  0  0  0  0  0
  186.9060  177.3320  142.0330 C   0  0  0  0  0  2  0  0  0  0  0  0
  186.9600  178.6330  141.2180 C   0  0  1  0  0  3  0  0  0  0  0  0
  188.0990  178.6540  140.2160 C   0  0  0  0  0  1  0  0  0  0  0  0
  185.6490  178.9500  140.5230 C   0  0  0  0  0  2  0  0  0  0  0  0
  185.7760  178.5220  138.7580 S   0  0  0  0  0  0  0  0  0  0  0  0
  182.3270  175.0410  136.7840 C   0  0  0  0  0  1  0  0  0  0  0  0
  182.3610  176.9030  140.1060 C   0  0  0  0  0  3  0  0  0  0  0  0
  182.8900  175.6190  138.0650 C   0  0  1  0  0  3  0  0  0  0  0  0
  184.0850  177.8490  138.6330 C   0  0  2  0  0  3  0  0  0  0  0  0
  183.4650  177.6470  139.9890 C   0  0  0  0  0  3  0  0  0  0  0  0
  184.0380  176.5930  137.7400 C   0  0  0  0  0  2  0  0  0  0  0  0
  181.7710  176.2660  138.8840 C   0  0  0  0  0  2  0  0  0  0  0  0
  182.7190  178.9770  144.7280 C   0  0  0  0  0  2  0  0  0  0  0  0
  181.0730  179.1110  142.9360 N   0  0  0  0  0  1  0  0  0  0  0  0
  182.4940  179.0310  143.2250 C   0  0  0  0  0  2  0  0  0  0  0  0
  1  4  1  6  0  0  0
  1  6  1  0  0  0  0
  4  8  1  0  0  0  0
  5  7  1  1  0  0  0
  5 19  1  0  0  0  0
  5 12  1  0  0  0  0
  6 10  1  1  0  0  0
  6  3  1  0  0  0  0
  8 11  1  0  0  0  0
  9 13  1  0  0  0  0
  9 14  1  0  0  0  0
 11  3  1  0  0  0  0
 12  2  1  6  0  0  0
 12  1  1  0  0  0  0
 13 17  1  0  0  0  0
 14 32  1  6  0  0  0
 14 15  1  0  0  0  0
 15 16  1  0  0  0  0
 17  8  2  0  0  0  0
 17 16  1  0  0  0  0
 18 19  1  0  0  0  0
 18 13  2  0  0  0  0
 19  4  2  0  0  0  0
 20 18  1  0  0  0  0
 21 22  1  6  0  0  0
 21 20  1  0  0  0  0
 23 21  1  0  0  0  0
 24 23  1  0  0  0  0
 27 25  1  6  0  0  0
 27 31  1  0  0  0  0
 28 24  1  1  0  0  0
 28 29  1  0  0  0  0
 29 26  2  0  0  0  0
 30 27  1  0  0  0  0
 30 28  1  0  0  0  0
 31 26  1  0  0  0  0
 33 34  1  0  0  0  0
 34 32  1  0  0  0  0
M  END
>  <MODEL>
3

>  <REMARK>
 VINA RESULT:      -9.3      0.872      1.163
  Name = 
  7 active torsions:
  status: ('A' for Active; 'I' for Inactive)
    1  A    between atoms: C_1  and  C_6
    2  A    between atoms: C_1  and  C_12
    3  A    between atoms: C_6  and  S_31
    4  A    between atoms: C_7  and  C_14
    5  A    between atoms: C_12  and  C_33
    6  A    between atoms: C_14  and  C_25
    7  A    between atoms: C_17  and  S_31
                            x       y       z     vdW  Elec       q    Type
                         _______ _______ _______ _____ _____    ______ ____

>  <TORSDO>
F 7

$$$$
=
 OpenBabel11062416493D

 34 38  0  0  1  0  0  0  0  0999 V2000
  184.8630  178.6780  143.4210 C   0  0  2  0  0  3  0  0  0  0  0  0
  184.4890  177.8990  141.1020 C   0  0  0  0  0  1  0  0  0  0  0  0
  183.7240  178.9210  145.6320 C   0  0  0  0  0  2  0  0  0  0  0  0
  185.9820  178.3580  144.0430 C   0  0  0  0  0  0  0  0  0  0  0  0
  186.6480  178.7340  141.9860 C   0  0  2  0  0  3  0  0  0  0  0  0
  183.5300  178.6890  144.1230 C   0  0  1  0  0  3  0  0  0  0  0  0
  187.4720  178.9270  140.8850 O   0  0  0  0  0  1  0  0  0  0  0  0
  186.0840  178.0750  145.4000 C   0  0  0  0  0  0  0  0  0  0  0  0
  189.8910  177.7290  145.6620 C   0  0  0  0  0  2  0  0  0  0  0  0
  182.6850  179.7380  143.5790 N   0  0  0  0  0  1  0  0  0  0  0  0
  184.8160  178.0080  146.2200 C   0  0  0  0  0  2  0  0  0  0  0  0
  185.1580  178.9450  141.9750 C   0  0  2  0  0  3  0  0  0  0  0  0
  188.5050  177.8420  145.0740 C   0  0  0  0  0  0  0  0  0  0  0  0
  189.9020  176.9880  146.9930 C   0  0  2  0  0  3  0  0  0  0  0  0
  188.8980  177.6440  147.9280 C   0  0  0  0  0  2  0  0  0  0  0  0
  187.4910  177.4310  147.3850 C   0  0  0  0  0  2  0  0  0  0  0  0
  187.3620  177.8200  145.9330 C   0  0  0  0  0  0  0  0  0  0  0  0
  188.3540  178.1030  143.6840 C   0  0  0  0  0  0  0  0  0  0  0  0
  187.0610  178.3840  143.2030 C   0  0  0  0  0  0  0  0  0  0  0  0
  189.5460  178.0900  142.7570 C   0  0  0  0  0  2  0  0  0  0  0  0
  189.9850  176.6860  142.3160 C   0  0  1  0  0  3  0  0  0  0  0  0
  189.0630  175.5930  142.8240 C   0  0  0  0  0  1  0  0  0  0  0  0
  190.1570  176.5660  140.8130 C   0  0  0  0  0  2  0  0  0  0  0  0
  191.6960  177.3970  140.3070 S   0  0  0  0  0  0  0  0  0  0  0  0
  194.1570  175.6680  135.9650 C   0  0  0  0  0  1  0  0  0  0  0  0
  190.6770  174.9200  137.3200 C   0  0  0  0  0  3  0  0  0  0  0  0
  193.0880  175.3360  136.9830 C   0  0  1  0  0  3  0  0  0  0  0  0
  191.6570  176.7810  138.5910 C   0  0  2  0  0  3  0  0  0  0  0  0
  190.6450  175.6800  138.4180 C   0  0  0  0  0  3  0  0  0  0  0  0
  193.0660  176.4090  138.0880 C   0  0  0  0  0  2  0  0  0  0  0  0
  191.7360  175.1660  136.2860 C   0  0  0  0  0  2  0  0  0  0  0  0
  191.3000  177.0510  147.5880 C   0  0  0  0  0  2  0  0  0  0  0  0
  193.2210  175.6560  148.1380 N   0  0  0  0  0  1  0  0  0  0  0  0
  192.1120  175.8220  147.2140 C   0  0  0  0  0  2  0  0  0  0  0  0
  1  4  1  6  0  0  0
  1  6  1  0  0  0  0
  3 11  1  0  0  0  0
  4  8  1  0  0  0  0
  5  7  1  1  0  0  0
  5 19  1  0  0  0  0
  6 10  1  6  0  0  0
  6  3  1  0  0  0  0
  8 17  2  0  0  0  0
  8 11  1  0  0  0  0
  9 14  1  0  0  0  0
 12  2  1  6  0  0  0
 12  5  1  0  0  0  0
 12  1  1  0  0  0  0
 13  9  1  0  0  0  0
 13 17  1  0  0  0  0
 14 32  1  1  0  0  0
 14 15  1  0  0  0  0
 16 15  1  0  0  0  0
 17 16  1  0  0  0  0
 18 13  2  0  0  0  0
 19 18  1  0  0  0  0
 19  4  2  0  0  0  0
 20 18  1  0  0  0  0
 21 20  1  0  0  0  0
 21 22  1  6  0  0  0
 23 21  1  0  0  0  0
 24 23  1  0  0  0  0
 26 29  2  0  0  0  0
 27 25  1  6  0  0  0
 27 30  1  0  0  0  0
 28 24  1  1  0  0  0
 29 28  1  0  0  0  0
 30 28  1  0  0  0  0
 31 27  1  0  0  0  0
 31 26  1  0  0  0  0
 34 32  1  0  0  0  0
 34 33  1  0  0  0  0
M  END
>  <MODEL>
4

>  <REMARK>
 VINA RESULT:      -9.2      3.137      7.345
  Name = 
  7 active torsions:
  status: ('A' for Active; 'I' for Inactive)
    1  A    between atoms: C_1  and  C_6
    2  A    between atoms: C_1  and  C_12
    3  A    between atoms: C_6  and  S_31
    4  A    between atoms: C_7  and  C_14
    5  A    between atoms: C_12  and  C_33
    6  A    between atoms: C_14  and  C_25
    7  A    between atoms: C_17  and  S_31
                            x       y       z     vdW  Elec       q    Type
                         _______ _______ _______ _____ _____    ______ ____

>  <TORSDO>
F 7

$$$$
=
 OpenBabel11062416493D

 34 38  0  0  1  0  0  0  0  0999 V2000
  186.8800  178.1490  145.8710 C   0  0  2  0  0  3  0  0  0  0  0  0
  184.5150  177.9760  146.5760 C   0  0  0  0  0  1  0  0  0  0  0  0
  189.1840  177.3910  146.4760 C   0  0  0  0  0  2  0  0  0  0  0  0
  187.1890  178.0350  144.5930 C   0  0  0  0  0  0  0  0  0  0  0  0
  185.3080  179.1630  144.5500 C   0  0  2  0  0  3  0  0  0  0  0  0
  187.7300  177.5430  146.9580 C   0  0  1  0  0  3  0  0  0  0  0  0
  184.2290  179.9060  144.0870 O   0  0  0  0  0  1  0  0  0  0  0  0
  188.3420  177.4300  144.1040 C   0  0  0  0  0  0  0  0  0  0  0  0
  187.9180  178.2390  140.3830 C   0  0  0  0  0  2  0  0  0  0  0  0
  187.7000  178.3810  148.1440 N   0  0  0  0  0  1  0  0  0  0  0  0
  189.2650  176.7410  145.0820 C   0  0  0  0  0  2  0  0  0  0  0  0
  185.5840  178.8900  146.0040 C   0  0  2  0  0  3  0  0  0  0  0  0
  187.6100  178.0720  141.8510 C   0  0  0  0  0  0  0  0  0  0  0  0
  188.9030  177.1980  139.8700 C   0  0  2  0  0  3  0  0  0  0  0  0
  190.1400  177.2140  140.7550 C   0  0  0  0  0  2  0  0  0  0  0  0
  189.7670  176.7310  142.1510 C   0  0  0  0  0  2  0  0  0  0  0  0
  188.5660  177.4520  142.7140 C   0  0  0  0  0  0  0  0  0  0  0  0
  186.4270  178.6510  142.3880 C   0  0  0  0  0  0  0  0  0  0  0  0
  186.2610  178.6340  143.7860 C   0  0  0  0  0  0  0  0  0  0  0  0
  185.3880  179.2740  141.4860 C   0  0  0  0  0  2  0  0  0  0  0  0
  184.5060  178.2580  140.7460 C   0  0  1  0  0  3  0  0  0  0  0  0
  183.0890  178.2030  141.2860 C   0  0  0  0  0  1  0  0  0  0  0  0
  184.4830  178.4780  139.2450 C   0  0  0  0  0  2  0  0  0  0  0  0
  182.9230  177.8360  138.5590 S   0  0  0  0  0  0  0  0  0  0  0  0
  187.0840  175.9500  135.9080 C   0  0  0  0  0  1  0  0  0  0  0  0
  184.2330  174.1480  137.6770 C   0  0  0  0  0  3  0  0  0  0  0  0
  186.0800  175.6390  136.9970 C   0  0  1  0  0  3  0  0  0  0  0  0
  183.7120  176.5460  137.5400 C   0  0  2  0  0  3  0  0  0  0  0  0
  183.4970  175.1720  138.1170 C   0  0  0  0  0  3  0  0  0  0  0  0
  185.1930  176.8710  137.2580 C   0  0  0  0  0  2  0  0  0  0  0  0
  185.2760  174.3910  136.6270 C   0  0  0  0  0  2  0  0  0  0  0  0
  189.2770  177.5270  138.4330 C   0  0  0  0  0  2  0  0  0  0  0  0
  188.1570  179.1570  137.0100 N   0  0  0  0  0  1  0  0  0  0  0  0
  189.0640  179.0020  138.1340 C   0  0  0  0  0  2  0  0  0  0  0  0
  1  4  1  6  0  0  0
  1 12  1  0  0  0  0
  1  6  1  0  0  0  0
  3  6  1  0  0  0  0
  5  7  1  1  0  0  0
  5 12  1  0  0  0  0
  6 10  1  1  0  0  0
  8  4  1  0  0  0  0
  8 11  1  0  0  0  0
  9 13  1  0  0  0  0
 11  3  1  0  0  0  0
 12  2  1  6  0  0  0
 13 18  2  0  0  0  0
 13 17  1  0  0  0  0
 14 32  1  6  0  0  0
 14  9  1  0  0  0  0
 14 15  1  0  0  0  0
 15 16  1  0  0  0  0
 16 17  1  0  0  0  0
 17  8  2  0  0  0  0
 18 19  1  0  0  0  0
 19  5  1  0  0  0  0
 19  4  2  0  0  0  0
 20 18  1  0  0  0  0
 21 22  1  1  0  0  0
 21 20  1  0  0  0  0
 23 21  1  0  0  0  0
 24 23  1  0  0  0  0
 26 29  2  0  0  0  0
 27 25  1  6  0  0  0
 27 30  1  0  0  0  0
 28 29  1  0  0  0  0
 28 24  1  1  0  0  0
 30 28  1  0  0  0  0
 31 27  1  0  0  0  0
 31 26  1  0  0  0  0
 33 34  1  0  0  0  0
 34 32  1  0  0  0  0
M  END
>  <MODEL>
5

>  <REMARK>
 VINA RESULT:      -9.0      2.969      5.308
  Name = 
  7 active torsions:
  status: ('A' for Active; 'I' for Inactive)
    1  A    between atoms: C_1  and  C_6
    2  A    between atoms: C_1  and  C_12
    3  A    between atoms: C_6  and  S_31
    4  A    between atoms: C_7  and  C_14
    5  A    between atoms: C_12  and  C_33
    6  A    between atoms: C_14  and  C_25
    7  A    between atoms: C_17  and  S_31
                            x       y       z     vdW  Elec       q    Type
                         _______ _______ _______ _____ _____    ______ ____

>  <TORSDO>
F 7

$$$$
=
 OpenBabel11062416493D

 34 38  0  0  1  0  0  0  0  0999 V2000
  189.1500  177.2110  137.0390 C   0  0  2  0  0  3  0  0  0  0  0  0
  190.9280  175.5010  137.2300 C   0  0  0  0  0  1  0  0  0  0  0  0
  187.2720  177.9540  135.5650 C   0  0  0  0  0  2  0  0  0  0  0  0
  188.4280  177.5220  138.0990 C   0  0  0  0  0  0  0  0  0  0  0  0
  190.4360  177.2320  138.9330 C   0  0  2  0  0  3  0  0  0  0  0  0
  188.5450  177.0940  135.6640 C   0  0  1  0  0  3  0  0  0  0  0  0
  191.4990  177.2120  139.8280 O   0  0  0  0  0  1  0  0  0  0  0  0
  187.0770  177.8480  138.0730 C   0  0  0  0  0  0  0  0  0  0  0  0
  186.6160  178.8110  141.7530 C   0  0  0  0  0  2  0  0  0  0  0  0
  189.4990  177.5280  134.6580 N   0  0  0  0  0  1  0  0  0  0  0  0
  186.3310  177.7300  136.7640 C   0  0  0  0  0  2  0  0  0  0  0  0
  190.5660  176.9570  137.4600 C   0  0  2  0  0  3  0  0  0  0  0  0
  187.2250  178.2540  140.4890 C   0  0  0  0  0  0  0  0  0  0  0  0
  185.0980  178.7020  141.7680 C   0  0  2  0  0  3  0  0  0  0  0  0
  184.5480  179.3360  140.4990 C   0  0  0  0  0  2  0  0  0  0  0  0
  184.9780  178.5080  139.2950 C   0  0  0  0  0  2  0  0  0  0  0  0
  186.4600  178.2280  139.2810 C   0  0  0  0  0  0  0  0  0  0  0  0
  188.5970  177.8810  140.4790 C   0  0  0  0  0  0  0  0  0  0  0  0
  189.1780  177.5390  139.2430 C   0  0  0  0  0  0  0  0  0  0  0  0
  189.4080  177.8640  141.7530 C   0  0  0  0  0  2  0  0  0  0  0  0
  189.3040  176.5540  142.5480 C   0  0  1  0  0  3  0  0  0  0  0  0
  190.6230  175.8090  142.6330 C   0  0  0  0  0  1  0  0  0  0  0  0
  188.7260  176.7500  143.9370 C   0  0  0  0  0  2  0  0  0  0  0  0
  190.0700  177.1170  145.1090 S   0  0  0  0  0  0  0  0  0  0  0  0
  185.3220  178.7960  146.7020 C   0  0  0  0  0  1  0  0  0  0  0  0
  188.4330  177.8710  148.6940 C   0  0  0  0  0  3  0  0  0  0  0  0
  186.5430  178.0010  147.1110 C   0  0  1  0  0  3  0  0  0  0  0  0
  189.0070  177.9890  146.3070 C   0  0  2  0  0  3  0  0  0  0  0  0
  189.2950  177.5620  147.7210 C   0  0  0  0  0  3  0  0  0  0  0  0
  187.5170  177.8890  145.9240 C   0  0  0  0  0  2  0  0  0  0  0  0
  187.1810  178.6240  148.3540 C   0  0  0  0  0  2  0  0  0  0  0  0
  184.5560  179.4190  142.9950 C   0  0  0  0  0  2  0  0  0  0  0  0
  182.1920  179.3920  143.5860 N   0  0  0  0  0  1  0  0  0  0  0  0
  183.4270  178.6290  143.6390 C   0  0  0  0  0  2  0  0  0  0  0  0
  1 12  1  0  0  0  0
  1  4  1  1  0  0  0
  3  6  1  0  0  0  0
  3 11  1  0  0  0  0
  4 19  1  0  0  0  0
  5 19  1  0  0  0  0
  5  7  1  6  0  0  0
  6 10  1  6  0  0  0
  6  1  1  0  0  0  0
  8  4  2  0  0  0  0
  8 17  1  0  0  0  0
  9 14  1  0  0  0  0
 11  8  1  0  0  0  0
 12  2  1  1  0  0  0
 12  5  1  0  0  0  0
 13  9  1  0  0  0  0
 14 32  1  1  0  0  0
 15 14  1  0  0  0  0
 16 15  1  0  0  0  0
 17 16  1  0  0  0  0
 17 13  2  0  0  0  0
 18 13  1  0  0  0  0
 18 20  1  0  0  0  0
 19 18  2  0  0  0  0
 20 21  1  0  0  0  0
 21 22  1  1  0  0  0
 21 23  1  0  0  0  0
 23 24  1  0  0  0  0
 27 25  1  6  0  0  0
 27 31  1  0  0  0  0
 28 24  1  6  0  0  0
 28 29  1  0  0  0  0
 29 26  2  0  0  0  0
 30 28  1  0  0  0  0
 30 27  1  0  0  0  0
 31 26  1  0  0  0  0
 32 34  1  0  0  0  0
 33 34  1  0  0  0  0
M  END
>  <MODEL>
6

>  <REMARK>
 VINA RESULT:      -8.8      3.328      7.367
  Name = 
  7 active torsions:
  status: ('A' for Active; 'I' for Inactive)
    1  A    between atoms: C_1  and  C_6
    2  A    between atoms: C_1  and  C_12
    3  A    between atoms: C_6  and  S_31
    4  A    between atoms: C_7  and  C_14
    5  A    between atoms: C_12  and  C_33
    6  A    between atoms: C_14  and  C_25
    7  A    between atoms: C_17  and  S_31
                            x       y       z     vdW  Elec       q    Type
                         _______ _______ _______ _____ _____    ______ ____

>  <TORSDO>
F 7

$$$$
=
 OpenBabel11062416493D

 34 38  0  0  1  0  0  0  0  0999 V2000
  189.6030  177.1310  145.8030 C   0  0  2  0  0  3  0  0  0  0  0  0
  191.6870  177.5780  144.5470 C   0  0  0  0  0  1  0  0  0  0  0  0
  188.6060  177.2670  148.0910 C   0  0  0  0  0  2  0  0  0  0  0  0
  188.4420  177.4870  145.2870 C   0  0  0  0  0  0  0  0  0  0  0  0
  189.5680  176.7830  143.5400 C   0  0  2  0  0  3  0  0  0  0  0  0
  189.9080  177.2840  147.2700 C   0  0  1  0  0  3  0  0  0  0  0  0
  189.8750  176.3930  142.2420 O   0  0  0  0  0  1  0  0  0  0  0  0
  187.3580  177.9600  146.0180 C   0  0  0  0  0  0  0  0  0  0  0  0
  184.7700  178.1640  143.1990 C   0  0  0  0  0  2  0  0  0  0  0  0
  190.7740  176.2080  147.7180 N   0  0  0  0  0  1  0  0  0  0  0  0
  187.5380  178.2050  147.4980 C   0  0  0  0  0  2  0  0  0  0  0  0
  190.5040  176.6420  144.7090 C   0  0  2  0  0  3  0  0  0  0  0  0
  186.0920  178.0300  143.9160 C   0  0  0  0  0  0  0  0  0  0  0  0
  183.8030  179.0900  143.9240 C   0  0  2  0  0  3  0  0  0  0  0  0
  183.6670  178.6260  145.3660 C   0  0  0  0  0  2  0  0  0  0  0  0
  184.9950  178.8220  146.0860 C   0  0  0  0  0  2  0  0  0  0  0  0
  186.1590  178.2310  145.3300 C   0  0  0  0  0  0  0  0  0  0  0  0
  187.2340  177.5760  143.2000 C   0  0  0  0  0  0  0  0  0  0  0  0
  188.4000  177.2880  143.9340 C   0  0  0  0  0  0  0  0  0  0  0  0
  187.1910  177.3970  141.7010 C   0  0  0  0  0  2  0  0  0  0  0  0
  187.6690  178.6230  140.9070 C   0  0  1  0  0  3  0  0  0  0  0  0
  188.3090  179.6810  141.7860 C   0  0  0  0  0  1  0  0  0  0  0  0
  188.6000  178.2610  139.7660 C   0  0  0  0  0  2  0  0  0  0  0  0
  187.6220  177.8820  138.2780 S   0  0  0  0  0  0  0  0  0  0  0  0
  192.6680  176.3740  137.8800 C   0  0  0  0  0  1  0  0  0  0  0  0
  189.4510  174.5900  136.8940 C   0  0  0  0  0  3  0  0  0  0  0  0
  191.2450  175.8750  138.0020 C   0  0  1  0  0  3  0  0  0  0  0  0
  188.9400  176.9280  137.4550 C   0  0  2  0  0  3  0  0  0  0  0  0
  188.5270  175.5000  137.2170 C   0  0  0  0  0  3  0  0  0  0  0  0
  190.2870  177.0660  138.1920 C   0  0  0  0  0  2  0  0  0  0  0  0
  190.8880  175.0060  136.7940 C   0  0  0  0  0  2  0  0  0  0  0  0
  182.4540  179.0510  143.2250 C   0  0  0  0  0  2  0  0  0  0  0  0
  181.3950  178.9640  141.0320 N   0  0  0  0  0  1  0  0  0  0  0  0
  182.5990  178.6290  141.7720 C   0  0  0  0  0  2  0  0  0  0  0  0
  1  4  1  6  0  0  0
  1  6  1  0  0  0  0
  4  8  1  0  0  0  0
  5  7  1  1  0  0  0
  5 19  1  0  0  0  0
  5 12  1  0  0  0  0
  6 10  1  1  0  0  0
  6  3  1  0  0  0  0
  8 11  1  0  0  0  0
  9 13  1  0  0  0  0
  9 14  1  0  0  0  0
 11  3  1  0  0  0  0
 12  2  1  6  0  0  0
 12  1  1  0  0  0  0
 13 17  1  0  0  0  0
 14 32  1  6  0  0  0
 14 15  1  0  0  0  0
 15 16  1  0  0  0  0
 17  8  2  0  0  0  0
 17 16  1  0  0  0  0
 18 13  2  0  0  0  0
 18 19  1  0  0  0  0
 19  4  2  0  0  0  0
 20 18  1  0  0  0  0
 21 20  1  0  0  0  0
 21 22  1  1  0  0  0
 23 21  1  0  0  0  0
 24 23  1  0  0  0  0
 26 29  2  0  0  0  0
 27 25  1  6  0  0  0
 27 30  1  0  0  0  0
 28 30  1  0  0  0  0
 28 24  1  1  0  0  0
 29 28  1  0  0  0  0
 31 26  1  0  0  0  0
 31 27  1  0  0  0  0
 33 34  1  0  0  0  0
 34 32  1  0  0  0  0
M  END
>  <MODEL>
7

>  <REMARK>
 VINA RESULT:      -8.7      2.358      4.320
  Name = 
  7 active torsions:
  status: ('A' for Active; 'I' for Inactive)
    1  A    between atoms: C_1  and  C_6
    2  A    between atoms: C_1  and  C_12
    3  A    between atoms: C_6  and  S_31
    4  A    between atoms: C_7  and  C_14
    5  A    between atoms: C_12  and  C_33
    6  A    between atoms: C_14  and  C_25
    7  A    between atoms: C_17  and  S_31
                            x       y       z     vdW  Elec       q    Type
                         _______ _______ _______ _____ _____    ______ ____

>  <TORSDO>
F 7

$$$$
=
 OpenBabel11062416493D

 34 38  0  0  1  0  0  0  0  0999 V2000
  188.2640  177.7420  146.4490 C   0  0  2  0  0  3  0  0  0  0  0  0
  190.7150  178.0600  146.3180 C   0  0  0  0  0  1  0  0  0  0  0  0
  186.2690  178.3070  147.8440 C   0  0  0  0  0  2  0  0  0  0  0  0
  187.5310  177.8810  145.3610 C   0  0  0  0  0  0  0  0  0  0  0  0
  189.3430  176.8960  144.6140 C   0  0  2  0  0  3  0  0  0  0  0  0
  187.8060  178.2420  147.7940 C   0  0  1  0  0  3  0  0  0  0  0  0
  190.2370  176.2510  143.7680 O   0  0  0  0  0  1  0  0  0  0  0  0
  186.2490  178.4190  145.3290 C   0  0  0  0  0  0  0  0  0  0  0  0
  185.4160  177.7850  141.6430 C   0  0  0  0  0  2  0  0  0  0  0  0
  188.2870  177.3640  148.8460 N   0  0  0  0  0  1  0  0  0  0  0  0
  185.6800  179.0020  146.6020 C   0  0  0  0  0  2  0  0  0  0  0  0
  189.5670  177.0930  146.0890 C   0  0  2  0  0  3  0  0  0  0  0  0
  186.1990  177.9190  142.9270 C   0  0  0  0  0  0  0  0  0  0  0  0
  184.2590  178.7710  141.5590 C   0  0  2  0  0  3  0  0  0  0  0  0
  183.4040  178.6310  142.8090 C   0  0  0  0  0  2  0  0  0  0  0  0
  184.2050  179.0860  144.0220 C   0  0  0  0  0  2  0  0  0  0  0  0
  185.5630  178.4350  144.0990 C   0  0  0  0  0  0  0  0  0  0  0  0
  187.5240  177.4070  142.9950 C   0  0  0  0  0  0  0  0  0  0  0  0
  188.1580  177.3830  144.2520 C   0  0  0  0  0  0  0  0  0  0  0  0
  188.2240  176.8960  141.7580 C   0  0  0  0  0  2  0  0  0  0  0  0
  189.0490  177.9590  141.0170 C   0  0  1  0  0  3  0  0  0  0  0  0
  190.4770  177.5180  140.7530 C   0  0  0  0  0  1  0  0  0  0  0  0
  188.3990  178.4170  139.7250 C   0  0  0  0  0  2  0  0  0  0  0  0
  189.4060  177.8730  138.3090 S   0  0  0  0  0  0  0  0  0  0  0  0
  186.8850  173.9800  135.7820 C   0  0  0  0  0  1  0  0  0  0  0  0
  185.5500  177.0920  137.5240 C   0  0  0  0  0  3  0  0  0  0  0  0
  186.7460  175.0390  136.8550 C   0  0  1  0  0  3  0  0  0  0  0  0
  187.9940  177.2600  137.3320 C   0  0  2  0  0  3  0  0  0  0  0  0
  186.6790  177.6810  137.9300 C   0  0  0  0  0  3  0  0  0  0  0  0
  188.0980  175.7430  137.0740 C   0  0  0  0  0  2  0  0  0  0  0  0
  185.6180  176.0070  136.4920 C   0  0  0  0  0  2  0  0  0  0  0  0
  183.4350  178.4710  140.3170 C   0  0  0  0  0  2  0  0  0  0  0  0
  184.5470  180.2400  139.0630 N   0  0  0  0  0  1  0  0  0  0  0  0
  183.2520  179.7170  139.4650 C   0  0  0  0  0  2  0  0  0  0  0  0
  1  4  1  6  0  0  0
  1  6  1  0  0  0  0
  5  7  1  1  0  0  0
  5 12  1  0  0  0  0
  6  3  1  0  0  0  0
  6 10  1  1  0  0  0
  8  4  1  0  0  0  0
  8 11  1  0  0  0  0
  9 13  1  0  0  0  0
 11  3  1  0  0  0  0
 12  2  1  6  0  0  0
 12  1  1  0  0  0  0
 13 18  2  0  0  0  0
 13 17  1  0  0  0  0
 14 32  1  6  0  0  0
 14  9  1  0  0  0  0
 14 15  1  0  0  0  0
 15 16  1  0  0  0  0
 16 17  1  0  0  0  0
 17  8  2  0  0  0  0
 18 19  1  0  0  0  0
 19  5  1  0  0  0  0
 19  4  2  0  0  0  0
 20 18  1  0  0  0  0
 21 22  1  6  0  0  0
 21 20  1  0  0  0  0
 23 21  1  0  0  0  0
 24 23  1  0  0  0  0
 26 29  2  0  0  0  0
 27 25  1  6  0  0  0
 27 30  1  0  0  0  0
 28 29  1  0  0  0  0
 28 24  1  1  0  0  0
 30 28  1  0  0  0  0
 31 27  1  0  0  0  0
 31 26  1  0  0  0  0
 33 34  1  0  0  0  0
 34 32  1  0  0  0  0
M  END
>  <MODEL>
8

>  <REMARK>
 VINA RESULT:      -8.7      2.539      3.822
  Name = 
  7 active torsions:
  status: ('A' for Active; 'I' for Inactive)
    1  A    between atoms: C_1  and  C_6
    2  A    between atoms: C_1  and  C_12
    3  A    between atoms: C_6  and  S_31
    4  A    between atoms: C_7  and  C_14
    5  A    between atoms: C_12  and  C_33
    6  A    between atoms: C_14  and  C_25
    7  A    between atoms: C_17  and  S_31
                            x       y       z     vdW  Elec       q    Type
                         _______ _______ _______ _____ _____    ______ ____

>  <TORSDO>
F 7

$$$$
=
 OpenBabel11062416493D

 34 38  0  0  1  0  0  0  0  0999 V2000
  192.1100  176.0590  136.9540 C   0  0  2  0  0  3  0  0  0  0  0  0
  193.9700  174.6420  137.7650 C   0  0  0  0  0  1  0  0  0  0  0  0
  190.4310  176.2530  135.1130 C   0  0  0  0  0  2  0  0  0  0  0  0
  191.2090  176.5030  137.8100 C   0  0  0  0  0  0  0  0  0  0  0  0
  193.0790  176.6280  138.9500 C   0  0  2  0  0  3  0  0  0  0  0  0
  191.7390  175.5850  135.5730 C   0  0  1  0  0  3  0  0  0  0  0  0
  193.9880  176.9190  139.9590 O   0  0  0  0  0  1  0  0  0  0  0  0
  189.8560  176.6590  137.5300 C   0  0  0  0  0  0  0  0  0  0  0  0
  188.7500  178.3230  140.8000 C   0  0  0  0  0  2  0  0  0  0  0  0
  192.7990  175.9010  134.6320 N   0  0  0  0  0  1  0  0  0  0  0  0
  189.3360  176.1820  136.1940 C   0  0  0  0  0  2  0  0  0  0  0  0
  193.4590  176.0630  137.6080 C   0  0  2  0  0  3  0  0  0  0  0  0
  189.5920  177.5830  139.7890 C   0  0  0  0  0  0  0  0  0  0  0  0
  187.2620  178.0470  140.6360 C   0  0  2  0  0  3  0  0  0  0  0  0
  186.8670  178.3300  139.1950 C   0  0  0  0  0  2  0  0  0  0  0  0
  187.5450  177.3200  138.2780 C   0  0  0  0  0  2  0  0  0  0  0  0
  189.0300  177.2150  138.5270 C   0  0  0  0  0  0  0  0  0  0  0  0
  190.9750  177.3760  140.0470 C   0  0  0  0  0  0  0  0  0  0  0  0
  191.7670  176.8480  139.0100 C   0  0  0  0  0  0  0  0  0  0  0  0
  191.5760  177.7220  141.3890 C   0  0  0  0  0  2  0  0  0  0  0  0
  190.6930  177.3480  142.5890 C   0  0  1  0  0  3  0  0  0  0  0  0
  190.6360  175.8510  142.8350 C   0  0  0  0  0  1  0  0  0  0  0  0
  191.0910  178.0690  143.8630 C   0  0  0  0  0  2  0  0  0  0  0  0
  190.9750  176.9240  145.2740 S   0  0  0  0  0  0  0  0  0  0  0  0
  185.8450  178.1840  145.2260 C   0  0  0  0  0  1  0  0  0  0  0  0
  188.2570  177.6720  148.1290 C   0  0  0  0  0  3  0  0  0  0  0  0
  186.9420  177.5360  146.0440 C   0  0  1  0  0  3  0  0  0  0  0  0
  189.5270  177.7380  146.0250 C   0  0  2  0  0  3  0  0  0  0  0  0
  189.3990  177.4070  147.4880 C   0  0  0  0  0  3  0  0  0  0  0  0
  188.2410  177.4700  145.2180 C   0  0  0  0  0  2  0  0  0  0  0  0
  187.1130  178.2770  147.3710 C   0  0  0  0  0  2  0  0  0  0  0  0
  186.4790  178.9410  141.5840 C   0  0  0  0  0  2  0  0  0  0  0  0
  184.1590  178.2870  141.9380 N   0  0  0  0  0  1  0  0  0  0  0  0
  185.0400  179.1050  141.1220 C   0  0  0  0  0  2  0  0  0  0  0  0
  1 12  1  0  0  0  0
  1  4  1  1  0  0  0
  3  6  1  0  0  0  0
  3 11  1  0  0  0  0
  4 19  1  0  0  0  0
  5 19  1  0  0  0  0
  5  7  1  6  0  0  0
  6 10  1  6  0  0  0
  6  1  1  0  0  0  0
  8  4  2  0  0  0  0
  8 17  1  0  0  0  0
 11  8  1  0  0  0  0
 12  2  1  1  0  0  0
 12  5  1  0  0  0  0
 13 18  1  0  0  0  0
 13  9  1  0  0  0  0
 14  9  1  0  0  0  0
 14 32  1  1  0  0  0
 15 14  1  0  0  0  0
 16 17  1  0  0  0  0
 16 15  1  0  0  0  0
 17 13  2  0  0  0  0
 18 20  1  0  0  0  0
 19 18  2  0  0  0  0
 20 21  1  0  0  0  0
 21 22  1  1  0  0  0
 21 23  1  0  0  0  0
 23 24  1  0  0  0  0
 27 25  1  6  0  0  0
 27 31  1  0  0  0  0
 28 24  1  6  0  0  0
 28 29  1  0  0  0  0
 29 26  2  0  0  0  0
 30 28  1  0  0  0  0
 30 27  1  0  0  0  0
 31 26  1  0  0  0  0
 34 32  1  0  0  0  0
 34 33  1  0  0  0  0
M  END
>  <MODEL>
9

>  <REMARK>
 VINA RESULT:      -8.6      4.150      7.772
  Name = 
  7 active torsions:
  status: ('A' for Active; 'I' for Inactive)
    1  A    between atoms: C_1  and  C_6
    2  A    between atoms: C_1  and  C_12
    3  A    between atoms: C_6  and  S_31
    4  A    between atoms: C_7  and  C_14
    5  A    between atoms: C_12  and  C_33
    6  A    between atoms: C_14  and  C_25
    7  A    between atoms: C_17  and  S_31
                            x       y       z     vdW  Elec       q    Type
                         _______ _______ _______ _____ _____    ______ ____

>  <TORSDO>
F 7

$$$$
