=
 OpenBabel11062414133D

 32 36  0  0  1  0  0  0  0  0999 V2000
  186.1010  177.4260  145.8870 N   0  0  2  0  0  0  0  0  0  0  0  0
  184.4420  179.2050  145.7480 C   0  0  0  0  0  2  0  0  0  0  0  0
  185.0020  178.9420  144.3790 C   0  0  1  0  0  3  0  0  0  0  0  0
  185.6940  177.6040  144.4950 C   0  0  0  0  0  2  0  0  0  0  0  0
  185.2280  178.3010  146.6780 C   0  0  0  0  0  2  0  0  0  0  0  0
  181.9330  178.8760  141.3870 C   0  0  0  0  0  3  0  0  0  0  0  0
  183.5820  178.9440  139.5000 C   0  0  1  0  0  3  0  0  0  0  0  0
  181.6210  178.8680  142.7080 N   0  0  0  0  0  0  0  0  0  0  0  0
  182.5840  178.8960  143.6680 C   0  0  0  0  0  3  0  0  0  0  0  0
  185.0220  178.6250  139.2070 C   0  0  0  0  0  0  0  0  0  0  0  0
  185.7020  178.8750  141.5350 C   0  0  0  0  0  3  0  0  0  0  0  0
  185.3650  178.3170  138.0360 O   0  0  0  0  0  0  0  0  0  0  0  0
  183.2680  178.9010  140.9760 C   0  0  0  0  0  0  0  0  0  0  0  0
  184.2850  178.9220  141.9530 C   0  0  0  0  0  0  0  0  0  0  0  0
  186.0460  178.7230  140.2570 C   0  0  0  0  0  3  0  0  0  0  0  0
  183.9400  178.9320  143.3150 C   0  0  0  0  0  0  0  0  0  0  0  0
  183.2630  180.2600  138.9690 N   0  0  0  0  0  2  0  0  0  0  0  0
  182.0400  180.1240  138.1960 C   0  0  0  0  0  2  0  0  0  0  0  0
  181.2460  181.4130  138.2490 C   0  0  0  0  0  2  0  0  0  0  0  0
  180.4740  181.4490  139.4110 O   0  0  0  0  0  1  0  0  0  0  0  0
  189.7820  177.3410  145.6410 C   0  0  1  0  0  3  0  0  0  0  0  0
  191.8680  176.0730  145.1830 C   0  0  0  0  0  3  0  0  0  0  0  0
  190.9470  175.9260  147.4570 C   0  0  0  0  0  2  0  0  0  0  0  0
  189.9870  177.0780  147.1670 C   0  0  2  0  0  3  0  0  0  0  0  0
  188.7610  176.8220  147.8190 O   0  0  0  0  0  0  0  0  0  0  0  0
  190.7570  176.6530  144.7140 C   0  0  0  0  0  0  0  0  0  0  0  0
  187.8980  177.8960  147.5330 C   0  0  0  0  0  2  0  0  0  0  0  0
  187.4880  177.8870  146.0430 C   0  0  1  0  0  3  0  0  0  0  0  0
  192.2130  176.0970  146.6380 C   0  0  0  0  0  2  0  0  0  0  0  0
  188.4020  177.0410  145.2600 N   0  0  0  0  0  2  0  0  0  0  0  0
  190.3050  175.5010  142.6700 O   0  0  0  0  0  1  0  0  0  0  0  0
  190.4850  176.6460  143.3440 O   0  0  0  0  0  0  0  0  0  0  0  0
  1  4  1  6  0  0  0
  1 28  1  0  0  0  0
  1  5  1  0  0  0  0
  2  5  1  0  0  0  0
  3 16  1  6  0  0  0
  3  4  1  0  0  0  0
  3  2  1  0  0  0  0
  6  8  1  0  0  0  0
  7 17  1  1  0  0  0
  7 13  1  0  0  0  0
  8  9  2  0  0  0  0
 10  7  1  0  0  0  0
 10 15  1  0  0  0  0
 11 14  1  0  0  0  0
 12 10  2  0  0  0  0
 13  6  2  0  0  0  0
 13 14  1  0  0  0  0
 14 16  2  0  0  0  0
 15 11  2  0  0  0  0
 16  9  1  0  0  0  0
 18 19  1  0  0  0  0
 18 17  1  0  0  0  0
 19 20  1  0  0  0  0
 21 26  1  6  0  0  0
 21 24  1  0  0  0  0
 22 29  1  0  0  0  0
 24 23  1  6  0  0  0
 24 25  1  0  0  0  0
 26 22  2  0  0  0  0
 27 25  1  0  0  0  0
 28 27  1  1  0  0  0
 29 23  1  0  0  0  0
 30 21  1  0  0  0  0
 30 28  1  0  0  0  0
 31 32  1  0  0  0  0
 32 26  1  0  0  0  0
M  END
>  <MODEL>
1

>  <REMARK>
 VINA RESULT:      -8.8      0.000      0.000
  Name = 
  6 active torsions:
  status: ('A' for Active; 'I' for Inactive)
    1  A    between atoms: C_3  and  C_6
    2  A    between atoms: C_3  and  N_19
    3  A    between atoms: C_4  and  N_19
    4  A    between atoms: N_11  and  C_24
    5  A    between atoms: C_16  and  O_26
    6  A    between atoms: C_20  and  C_32
                            x       y       z     vdW  Elec       q    Type
                         _______ _______ _______ _____ _____    ______ ____

>  <TORSDO>
F 6

$$$$
=
 OpenBabel11062414133D

 32 36  0  0  1  0  0  0  0  0999 V2000
  184.4350  179.3270  144.2070 N   0  0  2  0  0  0  0  0  0  0  0  0
  184.5350  178.2010  146.3660 C   0  0  0  0  0  2  0  0  0  0  0  0
  185.7670  177.8660  145.5750 C   0  0  1  0  0  3  0  0  0  0  0  0
  185.8060  178.8900  144.4660 C   0  0  0  0  0  2  0  0  0  0  0  0
  183.6820  179.0400  145.4340 C   0  0  0  0  0  2  0  0  0  0  0  0
  189.3040  178.0230  147.9930 C   0  0  0  0  0  3  0  0  0  0  0  0
  190.7350  177.0010  146.2060 C   0  0  1  0  0  3  0  0  0  0  0  0
  188.1120  178.4620  148.4690 N   0  0  0  0  0  0  0  0  0  0  0  0
  186.9800  178.4110  147.7170 C   0  0  0  0  0  3  0  0  0  0  0  0
  190.7660  176.8090  144.7140 C   0  0  0  0  0  0  0  0  0  0  0  0
  188.3460  176.9890  144.4940 C   0  0  0  0  0  3  0  0  0  0  0  0
  191.8730  176.6920  144.1260 O   0  0  0  0  0  0  0  0  0  0  0  0
  189.4020  177.5130  146.6950 C   0  0  0  0  0  0  0  0  0  0  0  0
  188.2440  177.4580  145.8910 C   0  0  0  0  0  0  0  0  0  0  0  0
  189.5220  176.7000  143.9410 C   0  0  0  0  0  3  0  0  0  0  0  0
  187.0150  177.9010  146.4120 C   0  0  0  0  0  0  0  0  0  0  0  0
  191.0460  175.7390  146.8590 N   0  0  0  0  0  2  0  0  0  0  0  0
  192.4870  175.6970  147.0440 C   0  0  0  0  0  2  0  0  0  0  0  0
  192.8250  175.8080  148.5170 C   0  0  0  0  0  2  0  0  0  0  0  0
  192.7590  177.1430  148.9200 O   0  0  0  0  0  1  0  0  0  0  0  0
  183.5470  178.3910  140.7500 C   0  0  1  0  0  3  0  0  0  0  0  0
  183.3250  179.0110  138.3550 C   0  0  0  0  0  3  0  0  0  0  0  0
  181.4370  179.5580  139.8310 C   0  0  0  0  0  2  0  0  0  0  0  0
  182.0260  178.6930  140.9430 C   0  0  2  0  0  3  0  0  0  0  0  0
  181.7740  179.3170  142.1850 O   0  0  0  0  0  0  0  0  0  0  0  0
  184.1200  178.7240  139.3920 C   0  0  0  0  0  0  0  0  0  0  0  0
  182.3280  178.5010  143.1870 C   0  0  0  0  0  2  0  0  0  0  0  0
  183.8730  178.5180  143.1170 C   0  0  1  0  0  3  0  0  0  0  0  0
  181.8350  178.9930  138.4790 C   0  0  0  0  0  2  0  0  0  0  0  0
  184.3240  179.0280  141.8120 N   0  0  0  0  0  2  0  0  0  0  0  0
  186.0730  178.7860  138.0170 O   0  0  0  0  0  1  0  0  0  0  0  0
  185.5080  178.7090  139.2300 O   0  0  0  0  0  0  0  0  0  0  0  0
  1  4  1  1  0  0  0
  1  5  1  0  0  0  0
  3  2  1  0  0  0  0
  3 16  1  1  0  0  0
  4  3  1  0  0  0  0
  5  2  1  0  0  0  0
  6  8  1  0  0  0  0
  7 13  1  0  0  0  0
  7 17  1  1  0  0  0
  9  8  2  0  0  0  0
 10  7  1  0  0  0  0
 11 14  1  0  0  0  0
 12 10  2  0  0  0  0
 13  6  2  0  0  0  0
 14 16  2  0  0  0  0
 14 13  1  0  0  0  0
 15 11  2  0  0  0  0
 15 10  1  0  0  0  0
 16  9  1  0  0  0  0
 17 18  1  0  0  0  0
 18 19  1  0  0  0  0
 19 20  1  0  0  0  0
 21 26  1  6  0  0  0
 21 24  1  0  0  0  0
 21 30  1  0  0  0  0
 22 29  1  0  0  0  0
 22 26  2  0  0  0  0
 24 23  1  6  0  0  0
 24 25  1  0  0  0  0
 25 27  1  0  0  0  0
 28 27  1  6  0  0  0
 28  1  1  0  0  0  0
 29 23  1  0  0  0  0
 30 28  1  0  0  0  0
 31 32  1  0  0  0  0
 32 26  1  0  0  0  0
M  END
>  <MODEL>
2

>  <REMARK>
 VINA RESULT:      -8.7      1.880      8.910
  Name = 
  6 active torsions:
  status: ('A' for Active; 'I' for Inactive)
    1  A    between atoms: C_3  and  C_6
    2  A    between atoms: C_3  and  N_19
    3  A    between atoms: C_4  and  N_19
    4  A    between atoms: N_11  and  C_24
    5  A    between atoms: C_16  and  O_26
    6  A    between atoms: C_20  and  C_32
                            x       y       z     vdW  Elec       q    Type
                         _______ _______ _______ _____ _____    ______ ____

>  <TORSDO>
F 6

$$$$
=
 OpenBabel11062414133D

 32 36  0  0  1  0  0  0  0  0999 V2000
  184.2630  179.3520  143.0510 N   0  0  2  0  0  0  0  0  0  0  0  0
  184.1410  178.6880  145.3930 C   0  0  0  0  0  2  0  0  0  0  0  0
  185.3020  177.9930  144.7400 C   0  0  1  0  0  3  0  0  0  0  0  0
  185.5320  178.7490  143.4530 C   0  0  0  0  0  2  0  0  0  0  0  0
  183.4590  179.4540  144.2750 C   0  0  0  0  0  2  0  0  0  0  0  0
  188.7720  178.0160  147.2570 C   0  0  0  0  0  3  0  0  0  0  0  0
  190.2890  177.2800  145.4010 C   0  0  1  0  0  3  0  0  0  0  0  0
  187.5500  178.3410  147.7490 N   0  0  0  0  0  0  0  0  0  0  0  0
  186.4400  178.3310  146.9650 C   0  0  0  0  0  3  0  0  0  0  0  0
  190.3630  177.2710  143.8990 C   0  0  0  0  0  0  0  0  0  0  0  0
  187.9420  177.3680  143.6350 C   0  0  0  0  0  3  0  0  0  0  0  0
  191.4870  177.2740  143.3320 O   0  0  0  0  0  0  0  0  0  0  0  0
  188.9230  177.6700  145.9120 C   0  0  0  0  0  0  0  0  0  0  0  0
  187.7880  177.6600  145.0750 C   0  0  0  0  0  0  0  0  0  0  0  0
  189.1430  177.2000  143.0840 C   0  0  0  0  0  3  0  0  0  0  0  0
  186.5280  177.9820  145.6100 C   0  0  0  0  0  0  0  0  0  0  0  0
  190.6450  175.9640  145.9080 N   0  0  0  0  0  2  0  0  0  0  0  0
  192.0590  176.0030  146.2440 C   0  0  0  0  0  2  0  0  0  0  0  0
  192.2400  175.8840  147.7440 C   0  0  0  0  0  2  0  0  0  0  0  0
  192.1120  177.1400  148.3380 O   0  0  0  0  0  1  0  0  0  0  0  0
  183.1950  177.9510  139.8100 C   0  0  1  0  0  3  0  0  0  0  0  0
  183.0160  178.1610  137.3410 C   0  0  0  0  0  3  0  0  0  0  0  0
  181.2460  179.2120  138.6840 C   0  0  0  0  0  2  0  0  0  0  0  0
  181.7330  178.4860  139.9350 C   0  0  2  0  0  3  0  0  0  0  0  0
  181.5900  179.3470  141.0450 O   0  0  0  0  0  0  0  0  0  0  0  0
  183.7840  177.9560  138.4180 C   0  0  0  0  0  0  0  0  0  0  0  0
  182.0460  178.6540  142.1800 C   0  0  0  0  0  2  0  0  0  0  0  0
  183.5770  178.4480  142.1180 C   0  0  1  0  0  3  0  0  0  0  0  0
  181.5400  178.3690  137.4560 C   0  0  0  0  0  2  0  0  0  0  0  0
  184.0710  178.6530  140.7470 N   0  0  0  0  0  2  0  0  0  0  0  0
  186.0160  178.7290  138.0560 O   0  0  0  0  0  1  0  0  0  0  0  0
  185.1540  177.7250  138.2700 O   0  0  0  0  0  0  0  0  0  0  0  0
  1  4  1  1  0  0  0
  1  5  1  0  0  0  0
  3  2  1  0  0  0  0
  3 16  1  1  0  0  0
  4  3  1  0  0  0  0
  5  2  1  0  0  0  0
  6  8  1  0  0  0  0
  7 17  1  6  0  0  0
  7 13  1  0  0  0  0
  9  8  2  0  0  0  0
 10  7  1  0  0  0  0
 11 14  1  0  0  0  0
 12 10  2  0  0  0  0
 13  6  2  0  0  0  0
 14 16  2  0  0  0  0
 14 13  1  0  0  0  0
 15 11  2  0  0  0  0
 15 10  1  0  0  0  0
 16  9  1  0  0  0  0
 17 18  1  0  0  0  0
 18 19  1  0  0  0  0
 19 20  1  0  0  0  0
 21 26  1  6  0  0  0
 21 24  1  0  0  0  0
 21 30  1  0  0  0  0
 22 29  1  0  0  0  0
 22 26  2  0  0  0  0
 24 23  1  6  0  0  0
 24 25  1  0  0  0  0
 25 27  1  0  0  0  0
 28 27  1  6  0  0  0
 28  1  1  0  0  0  0
 29 23  1  0  0  0  0
 30 28  1  0  0  0  0
 31 32  1  0  0  0  0
 32 26  1  0  0  0  0
M  END
>  <MODEL>
3

>  <REMARK>
 VINA RESULT:      -8.1      1.723      8.784
  Name = 
  6 active torsions:
  status: ('A' for Active; 'I' for Inactive)
    1  A    between atoms: C_3  and  C_6
    2  A    between atoms: C_3  and  N_19
    3  A    between atoms: C_4  and  N_19
    4  A    between atoms: N_11  and  C_24
    5  A    between atoms: C_16  and  O_26
    6  A    between atoms: C_20  and  C_32
                            x       y       z     vdW  Elec       q    Type
                         _______ _______ _______ _____ _____    ______ ____

>  <TORSDO>
F 6

$$$$
=
 OpenBabel11062414133D

 32 36  0  0  1  0  0  0  0  0999 V2000
  192.0750  176.6220  137.8170 N   0  0  2  0  0  0  0  0  0  0  0  0
  189.6620  176.2910  137.7830 C   0  0  0  0  0  2  0  0  0  0  0  0
  190.1370  176.3190  139.2070 C   0  0  1  0  0  3  0  0  0  0  0  0
  191.5250  176.9110  139.1400 C   0  0  0  0  0  2  0  0  0  0  0  0
  190.9200  176.3870  136.9420 C   0  0  0  0  0  2  0  0  0  0  0  0
  187.5530  178.6510  141.7090 C   0  0  0  0  0  3  0  0  0  0  0  0
  188.4970  177.6820  143.8200 C   0  0  1  0  0  3  0  0  0  0  0  0
  187.4880  178.7450  140.3570 N   0  0  0  0  0  0  0  0  0  0  0  0
  188.2960  178.0060  139.5510 C   0  0  0  0  0  3  0  0  0  0  0  0
  189.7370  176.9990  144.3280 C   0  0  0  0  0  0  0  0  0  0  0  0
  190.3540  176.1600  142.1250 C   0  0  0  0  0  3  0  0  0  0  0  0
  190.0530  177.1080  145.5410 O   0  0  0  0  0  0  0  0  0  0  0  0
  188.4720  177.7910  142.3140 C   0  0  0  0  0  0  0  0  0  0  0  0
  189.3280  177.0190  141.5000 C   0  0  0  0  0  0  0  0  0  0  0  0
  190.5540  176.1600  143.4410 C   0  0  0  0  0  3  0  0  0  0  0  0
  189.2310  177.1180  140.1010 C   0  0  0  0  0  0  0  0  0  0  0  0
  187.3250  176.9540  144.2790 N   0  0  0  0  0  2  0  0  0  0  0  0
  186.7870  177.6830  145.4150 C   0  0  0  0  0  2  0  0  0  0  0  0
  185.5120  178.3990  145.0160 C   0  0  0  0  0  2  0  0  0  0  0  0
  185.1560  179.3200  146.0020 O   0  0  0  0  0  1  0  0  0  0  0  0
  195.0530  174.4860  138.2460 C   0  0  1  0  0  3  0  0  0  0  0  0
  197.5200  174.2650  138.4340 C   0  0  0  0  0  3  0  0  0  0  0  0
  196.5730  174.3320  136.1670 C   0  0  0  0  0  2  0  0  0  0  0  0
  195.1640  174.1460  136.7250 C   0  0  2  0  0  3  0  0  0  0  0  0
  194.2650  174.9160  135.9550 O   0  0  0  0  0  0  0  0  0  0  0  0
  196.3610  174.6440  138.9850 C   0  0  0  0  0  0  0  0  0  0  0  0
  192.9790  174.7270  136.4930 C   0  0  0  0  0  2  0  0  0  0  0  0
  192.8660  175.3850  137.8870 C   0  0  1  0  0  3  0  0  0  0  0  0
  197.5770  173.6450  137.0740 C   0  0  0  0  0  2  0  0  0  0  0  0
  194.2020  175.6590  138.4390 N   0  0  0  0  0  2  0  0  0  0  0  0
  197.2000  176.1410  140.6490 O   0  0  0  0  0  1  0  0  0  0  0  0
  196.3400  175.1820  140.2750 O   0  0  0  0  0  0  0  0  0  0  0  0
  1  5  1  6  0  0  0
  1 28  1  0  0  0  0
  1  4  1  0  0  0  0
  2  3  1  0  0  0  0
  3 16  1  1  0  0  0
  4  3  1  0  0  0  0
  5  2  1  0  0  0  0
  6 13  1  0  0  0  0
  7 17  1  6  0  0  0
  7 10  1  0  0  0  0
  8  6  2  0  0  0  0
  9 16  2  0  0  0  0
  9  8  1  0  0  0  0
 10 12  2  0  0  0  0
 11 15  2  0  0  0  0
 13  7  1  0  0  0  0
 14 11  1  0  0  0  0
 14 13  2  0  0  0  0
 15 10  1  0  0  0  0
 16 14  1  0  0  0  0
 17 18  1  0  0  0  0
 19 18  1  0  0  0  0
 19 20  1  0  0  0  0
 21 30  1  6  0  0  0
 21 26  1  0  0  0  0
 22 26  2  0  0  0  0
 23 29  1  0  0  0  0
 24 23  1  6  0  0  0
 24 21  1  0  0  0  0
 25 27  1  0  0  0  0
 25 24  1  0  0  0  0
 26 32  1  0  0  0  0
 28 27  1  6  0  0  0
 28 30  1  0  0  0  0
 29 22  1  0  0  0  0
 32 31  1  0  0  0  0
M  END
>  <MODEL>
4

>  <REMARK>
 VINA RESULT:      -7.9      6.043      8.812
  Name = 
  6 active torsions:
  status: ('A' for Active; 'I' for Inactive)
    1  A    between atoms: C_3  and  C_6
    2  A    between atoms: C_3  and  N_19
    3  A    between atoms: C_4  and  N_19
    4  A    between atoms: N_11  and  C_24
    5  A    between atoms: C_16  and  O_26
    6  A    between atoms: C_20  and  C_32
                            x       y       z     vdW  Elec       q    Type
                         _______ _______ _______ _____ _____    ______ ____

>  <TORSDO>
F 6

$$$$
=
 OpenBabel11062414133D

 32 36  0  0  1  0  0  0  0  0999 V2000
  188.5990  177.2970  137.4700 N   0  0  2  0  0  0  0  0  0  0  0  0
  189.4100  178.8870  139.1290 C   0  0  0  0  0  2  0  0  0  0  0  0
  188.6120  177.8170  139.8170 C   0  0  1  0  0  3  0  0  0  0  0  0
  188.5000  176.7030  138.8020 C   0  0  0  0  0  2  0  0  0  0  0  0
  189.2950  178.5770  137.6480 C   0  0  0  0  0  2  0  0  0  0  0  0
  190.4840  176.4320  143.4160 C   0  0  0  0  0  3  0  0  0  0  0  0
  188.5260  177.0770  144.8440 C   0  0  1  0  0  3  0  0  0  0  0  0
  191.1210  176.3500  142.2210 N   0  0  0  0  0  0  0  0  0  0  0  0
  190.5430  176.7920  141.0730 C   0  0  0  0  0  3  0  0  0  0  0  0
  187.0500  177.3430  144.7350 C   0  0  0  0  0  0  0  0  0  0  0  0
  187.1830  177.9270  142.3720 C   0  0  0  0  0  3  0  0  0  0  0  0
  186.3090  177.1520  145.7340 O   0  0  0  0  0  0  0  0  0  0  0  0
  189.1960  176.9680  143.4950 C   0  0  0  0  0  0  0  0  0  0  0  0
  188.5710  177.4250  142.3160 C   0  0  0  0  0  0  0  0  0  0  0  0
  186.4690  177.8770  143.4960 C   0  0  0  0  0  3  0  0  0  0  0  0
  189.2570  177.3490  141.0920 C   0  0  0  0  0  0  0  0  0  0  0  0
  189.1510  178.1390  145.6170 N   0  0  0  0  0  2  0  0  0  0  0  0
  189.6590  177.5360  146.8380 C   0  0  0  0  0  2  0  0  0  0  0  0
  189.0330  178.2030  148.0460 C   0  0  0  0  0  2  0  0  0  0  0  0
  188.0720  177.3620  148.6080 O   0  0  0  0  0  1  0  0  0  0  0  0
  184.9780  177.9910  137.5970 C   0  0  1  0  0  3  0  0  0  0  0  0
  182.8630  178.0970  138.8960 C   0  0  0  0  0  3  0  0  0  0  0  0
  183.4980  175.9100  137.9730 C   0  0  0  0  0  2  0  0  0  0  0  0
  184.5750  176.5620  137.1090 C   0  0  2  0  0  3  0  0  0  0  0  0
  185.6930  175.7010  137.0490 O   0  0  0  0  0  0  0  0  0  0  0  0
  184.0640  178.6200  138.6240 C   0  0  0  0  0  0  0  0  0  0  0  0
  186.6670  176.3270  136.2510 C   0  0  0  0  0  2  0  0  0  0  0  0
  187.2460  177.5690  136.9660 C   0  0  1  0  0  3  0  0  0  0  0  0
  182.3540  176.8850  138.1850 C   0  0  0  0  0  2  0  0  0  0  0  0
  186.3630  177.9910  138.0650 N   0  0  0  0  0  2  0  0  0  0  0  0
  184.9000  179.7520  140.5550 O   0  0  0  0  0  1  0  0  0  0  0  0
  184.4920  179.7780  139.2780 O   0  0  0  0  0  0  0  0  0  0  0  0
  1  5  1  1  0  0  0
  1  4  1  0  0  0  0
  2  3  1  0  0  0  0
  3 16  1  1  0  0  0
  4  3  1  0  0  0  0
  5  2  1  0  0  0  0
  6 13  1  0  0  0  0
  7 17  1  1  0  0  0
  8  6  2  0  0  0  0
  9 16  2  0  0  0  0
  9  8  1  0  0  0  0
 10  7  1  0  0  0  0
 10 12  2  0  0  0  0
 11 15  2  0  0  0  0
 13  7  1  0  0  0  0
 14 11  1  0  0  0  0
 14 13  2  0  0  0  0
 15 10  1  0  0  0  0
 16 14  1  0  0  0  0
 17 18  1  0  0  0  0
 18 19  1  0  0  0  0
 19 20  1  0  0  0  0
 21 30  1  1  0  0  0
 21 26  1  0  0  0  0
 23 29  1  0  0  0  0
 24 21  1  0  0  0  0
 24 23  1  1  0  0  0
 25 24  1  0  0  0  0
 26 22  2  0  0  0  0
 26 32  1  0  0  0  0
 27 25  1  0  0  0  0
 28 27  1  1  0  0  0
 28  1  1  0  0  0  0
 28 30  1  0  0  0  0
 29 22  1  0  0  0  0
 32 31  1  0  0  0  0
M  END
>  <MODEL>
5

>  <REMARK>
 VINA RESULT:      -7.9      2.935      9.100
  Name = 
  6 active torsions:
  status: ('A' for Active; 'I' for Inactive)
    1  A    between atoms: C_3  and  C_6
    2  A    between atoms: C_3  and  N_19
    3  A    between atoms: C_4  and  N_19
    4  A    between atoms: N_11  and  C_24
    5  A    between atoms: C_16  and  O_26
    6  A    between atoms: C_20  and  C_32
                            x       y       z     vdW  Elec       q    Type
                         _______ _______ _______ _____ _____    ______ ____

>  <TORSDO>
F 6

$$$$
=
 OpenBabel11062414133D

 32 36  0  0  1  0  0  0  0  0999 V2000
  185.9850  177.6310  145.5300 N   0  0  2  0  0  0  0  0  0  0  0  0
  184.4620  179.4330  144.9190 C   0  0  0  0  0  2  0  0  0  0  0  0
  185.2560  179.0260  143.7110 C   0  0  1  0  0  3  0  0  0  0  0  0
  185.8540  177.6860  144.0750 C   0  0  0  0  0  2  0  0  0  0  0  0
  185.0180  178.6010  146.0590 C   0  0  0  0  0  2  0  0  0  0  0  0
  182.8940  178.8350  140.1390 C   0  0  0  0  0  3  0  0  0  0  0  0
  180.7690  178.4250  141.4040 C   0  0  1  0  0  3  0  0  0  0  0  0
  184.2340  179.0400  140.0810 N   0  0  0  0  0  0  0  0  0  0  0  0
  184.9970  179.0960  141.2040 C   0  0  0  0  0  3  0  0  0  0  0  0
  180.1760  178.6270  142.7720 C   0  0  0  0  0  0  0  0  0  0  0  0
  182.3530  178.6650  143.8680 C   0  0  0  0  0  3  0  0  0  0  0  0
  178.9310  178.7530  142.8970 O   0  0  0  0  0  0  0  0  0  0  0  0
  182.2550  178.6860  141.3730 C   0  0  0  0  0  0  0  0  0  0  0  0
  183.0230  178.7480  142.5540 C   0  0  0  0  0  0  0  0  0  0  0  0
  181.0260  178.6220  143.9710 C   0  0  0  0  0  3  0  0  0  0  0  0
  184.4130  178.9430  142.4700 C   0  0  0  0  0  0  0  0  0  0  0  0
  180.5000  177.0650  140.9600 N   0  0  0  0  0  2  0  0  0  0  0  0
  179.7930  177.1620  139.6940 C   0  0  0  0  0  2  0  0  0  0  0  0
  180.1200  175.9650  138.8240 C   0  0  0  0  0  2  0  0  0  0  0  0
  181.4950  175.9040  138.5970 O   0  0  0  0  0  1  0  0  0  0  0  0
  189.6670  177.5540  145.7490 C   0  0  1  0  0  3  0  0  0  0  0  0
  191.8050  176.3270  145.4380 C   0  0  0  0  0  3  0  0  0  0  0  0
  190.6020  175.9610  147.5500 C   0  0  0  0  0  2  0  0  0  0  0  0
  189.6780  177.1400  147.2550 C   0  0  2  0  0  3  0  0  0  0  0  0
  188.3810  176.8270  147.7170 O   0  0  0  0  0  0  0  0  0  0  0  0
  190.7580  176.9560  144.8910 C   0  0  0  0  0  0  0  0  0  0  0  0
  187.5540  177.9280  147.4300 C   0  0  0  0  0  2  0  0  0  0  0  0
  187.3360  178.0680  145.9060 C   0  0  1  0  0  3  0  0  0  0  0  0
  191.9620  176.2060  146.9200 C   0  0  0  0  0  2  0  0  0  0  0  0
  188.3500  177.3000  145.1670 N   0  0  0  0  0  2  0  0  0  0  0  0
  190.8260  178.2710  142.8970 O   0  0  0  0  0  1  0  0  0  0  0  0
  190.6640  177.0860  143.5030 O   0  0  0  0  0  0  0  0  0  0  0  0
  1  4  1  6  0  0  0
  1 28  1  0  0  0  0
  1  5  1  0  0  0  0
  2  5  1  0  0  0  0
  3 16  1  6  0  0  0
  3  4  1  0  0  0  0
  3  2  1  0  0  0  0
  6 13  1  0  0  0  0
  7 17  1  1  0  0  0
  7 10  1  0  0  0  0
  8  6  2  0  0  0  0
  8  9  1  0  0  0  0
  9 16  2  0  0  0  0
 10 12  2  0  0  0  0
 10 15  1  0  0  0  0
 11 15  2  0  0  0  0
 13  7  1  0  0  0  0
 13 14  2  0  0  0  0
 14 11  1  0  0  0  0
 16 14  1  0  0  0  0
 18 17  1  0  0  0  0
 19 18  1  0  0  0  0
 20 19  1  0  0  0  0
 21 26  1  6  0  0  0
 21 24  1  0  0  0  0
 22 29  1  0  0  0  0
 24 23  1  6  0  0  0
 24 25  1  0  0  0  0
 26 22  2  0  0  0  0
 27 25  1  0  0  0  0
 28 27  1  1  0  0  0
 29 23  1  0  0  0  0
 30 21  1  0  0  0  0
 30 28  1  0  0  0  0
 31 32  1  0  0  0  0
 32 26  1  0  0  0  0
M  END
>  <MODEL>
6

>  <REMARK>
 VINA RESULT:      -7.8      1.786      3.135
  Name = 
  6 active torsions:
  status: ('A' for Active; 'I' for Inactive)
    1  A    between atoms: C_3  and  C_6
    2  A    between atoms: C_3  and  N_19
    3  A    between atoms: C_4  and  N_19
    4  A    between atoms: N_11  and  C_24
    5  A    between atoms: C_16  and  O_26
    6  A    between atoms: C_20  and  C_32
                            x       y       z     vdW  Elec       q    Type
                         _______ _______ _______ _____ _____    ______ ____

>  <TORSDO>
F 6

$$$$
=
 OpenBabel11062414133D

 32 36  0  0  1  0  0  0  0  0999 V2000
  185.1670  179.1900  139.9900 N   0  0  2  0  0  0  0  0  0  0  0  0
  183.6890  178.2530  141.6860 C   0  0  0  0  0  2  0  0  0  0  0  0
  185.1160  178.0670  142.1150 C   0  0  1  0  0  3  0  0  0  0  0  0
  185.9110  179.0020  141.2350 C   0  0  0  0  0  2  0  0  0  0  0  0
  183.7680  178.8730  140.3040 C   0  0  0  0  0  2  0  0  0  0  0  0
  185.6660  178.9750  146.2690 C   0  0  0  0  0  3  0  0  0  0  0  0
  187.8740  177.7910  146.3750 C   0  0  1  0  0  3  0  0  0  0  0  0
  184.5530  179.3780  145.6070 N   0  0  0  0  0  0  0  0  0  0  0  0
  184.3610  179.0910  144.2920 C   0  0  0  0  0  3  0  0  0  0  0  0
  188.9940  177.3430  145.4760 C   0  0  0  0  0  0  0  0  0  0  0  0
  187.5670  177.2560  143.5010 C   0  0  0  0  0  3  0  0  0  0  0  0
  190.1560  177.2270  145.9420 O   0  0  0  0  0  0  0  0  0  0  0  0
  186.6620  178.2560  145.6030 C   0  0  0  0  0  0  0  0  0  0  0  0
  186.4910  177.9520  144.2360 C   0  0  0  0  0  0  0  0  0  0  0  0
  188.7390  176.9850  144.0740 C   0  0  0  0  0  3  0  0  0  0  0  0
  185.3210  178.3640  143.5740 C   0  0  0  0  0  0  0  0  0  0  0  0
  187.5020  176.6980  147.2600 N   0  0  0  0  0  2  0  0  0  0  0  0
  188.3040  176.8320  148.4650 C   0  0  0  0  0  2  0  0  0  0  0  0
  188.4340  178.2940  148.8410 C   0  0  0  0  0  2  0  0  0  0  0  0
  189.7810  178.6270  148.9960 O   0  0  0  0  0  1  0  0  0  0  0  0
  187.5960  177.3410  137.9180 C   0  0  1  0  0  3  0  0  0  0  0  0
  189.9080  177.0820  137.0460 C   0  0  0  0  0  3  0  0  0  0  0  0
  188.4200  178.6170  135.8330 C   0  0  0  0  0  2  0  0  0  0  0  0
  187.2110  178.0910  136.6030 C   0  0  2  0  0  3  0  0  0  0  0  0
  186.3320  179.1660  136.8570 O   0  0  0  0  0  0  0  0  0  0  0  0
  189.0570  176.9880  138.0750 C   0  0  0  0  0  0  0  0  0  0  0  0
  185.2320  178.6530  137.5680 C   0  0  0  0  0  2  0  0  0  0  0  0
  185.6500  178.2250  138.9930 C   0  0  1  0  0  3  0  0  0  0  0  0
  189.4540  177.5150  135.6890 C   0  0  0  0  0  2  0  0  0  0  0  0
  187.1120  178.0830  139.0810 N   0  0  0  0  0  2  0  0  0  0  0  0
  190.7260  176.0060  139.4740 O   0  0  0  0  0  1  0  0  0  0  0  0
  189.5070  176.5410  139.3200 O   0  0  0  0  0  0  0  0  0  0  0  0
  1  5  1  1  0  0  0
  1  4  1  0  0  0  0
  2  3  1  0  0  0  0
  3 16  1  1  0  0  0
  4  3  1  0  0  0  0
  5  2  1  0  0  0  0
  7 17  1  1  0  0  0
  8  6  1  0  0  0  0
  9  8  2  0  0  0  0
 10 12  2  0  0  0  0
 10  7  1  0  0  0  0
 11 15  2  0  0  0  0
 11 14  1  0  0  0  0
 13  6  2  0  0  0  0
 13  7  1  0  0  0  0
 14 13  1  0  0  0  0
 15 10  1  0  0  0  0
 16 14  2  0  0  0  0
 16  9  1  0  0  0  0
 17 18  1  0  0  0  0
 18 19  1  0  0  0  0
 19 20  1  0  0  0  0
 21 26  1  1  0  0  0
 21 30  1  0  0  0  0
 22 26  2  0  0  0  0
 24 23  1  1  0  0  0
 24 25  1  0  0  0  0
 24 21  1  0  0  0  0
 25 27  1  0  0  0  0
 26 32  1  0  0  0  0
 28 27  1  6  0  0  0
 28 30  1  0  0  0  0
 28  1  1  0  0  0  0
 29 23  1  0  0  0  0
 29 22  1  0  0  0  0
 32 31  1  0  0  0  0
M  END
>  <MODEL>
7

>  <REMARK>
 VINA RESULT:      -7.7      2.626      7.956
  Name = 
  6 active torsions:
  status: ('A' for Active; 'I' for Inactive)
    1  A    between atoms: C_3  and  C_6
    2  A    between atoms: C_3  and  N_19
    3  A    between atoms: C_4  and  N_19
    4  A    between atoms: N_11  and  C_24
    5  A    between atoms: C_16  and  O_26
    6  A    between atoms: C_20  and  C_32
                            x       y       z     vdW  Elec       q    Type
                         _______ _______ _______ _____ _____    ______ ____

>  <TORSDO>
F 6

$$$$
=
 OpenBabel11062414133D

 32 36  0  0  1  0  0  0  0  0999 V2000
  190.8130  176.4130  139.4720 N   0  0  2  0  0  0  0  0  0  0  0  0
  191.9780  177.8170  141.0870 C   0  0  0  0  0  2  0  0  0  0  0  0
  190.5560  177.6250  141.5330 C   0  0  1  0  0  3  0  0  0  0  0  0
  190.0500  176.4580  140.7180 C   0  0  0  0  0  2  0  0  0  0  0  0
  192.0700  177.1220  139.7430 C   0  0  0  0  0  2  0  0  0  0  0  0
  190.2900  176.8350  145.7380 C   0  0  0  0  0  3  0  0  0  0  0  0
  187.8610  177.4490  145.8370 C   0  0  1  0  0  3  0  0  0  0  0  0
  191.4610  176.6810  145.0710 N   0  0  0  0  0  0  0  0  0  0  0  0
  191.5630  176.9350  143.7390 C   0  0  0  0  0  3  0  0  0  0  0  0
  186.6560  177.5600  144.9430 C   0  0  0  0  0  0  0  0  0  0  0  0
  187.9960  177.8860  142.9340 C   0  0  0  0  0  3  0  0  0  0  0  0
  185.5050  177.4140  145.4310 O   0  0  0  0  0  0  0  0  0  0  0  0
  189.1410  177.2520  145.0610 C   0  0  0  0  0  0  0  0  0  0  0  0
  189.2180  177.5140  143.6770 C   0  0  0  0  0  0  0  0  0  0  0  0
  186.8000  177.8940  143.5200 C   0  0  0  0  0  3  0  0  0  0  0  0
  190.4460  177.3660  143.0090 C   0  0  0  0  0  0  0  0  0  0  0  0
  187.9630  178.6450  146.6580 N   0  0  0  0  0  2  0  0  0  0  0  0
  187.3290  178.3450  147.9310 C   0  0  0  0  0  2  0  0  0  0  0  0
  188.3000  177.6090  148.8330 C   0  0  0  0  0  2  0  0  0  0  0  0
  189.5220  178.2810  148.8640 O   0  0  0  0  0  1  0  0  0  0  0  0
  187.9040  177.7030  137.6060 C   0  0  1  0  0  3  0  0  0  0  0  0
  185.4620  177.6580  137.1480 C   0  0  0  0  0  3  0  0  0  0  0  0
  186.8530  176.0190  135.9560 C   0  0  0  0  0  2  0  0  0  0  0  0
  188.1230  176.7490  136.3880 C   0  0  2  0  0  3  0  0  0  0  0  0
  189.1290  175.7940  136.6520 O   0  0  0  0  0  0  0  0  0  0  0  0
  186.4650  177.9900  137.9700 C   0  0  0  0  0  0  0  0  0  0  0  0
  190.2830  176.4940  137.0490 C   0  0  0  0  0  2  0  0  0  0  0  0
  190.0780  177.1490  138.4340 C   0  0  1  0  0  3  0  0  0  0  0  0
  185.7130  177.0120  135.8230 C   0  0  0  0  0  2  0  0  0  0  0  0
  188.6460  177.2160  138.7670 N   0  0  0  0  0  2  0  0  0  0  0  0
  185.1160  179.4060  139.3430 O   0  0  0  0  0  1  0  0  0  0  0  0
  186.1970  178.6290  139.1830 O   0  0  0  0  0  0  0  0  0  0  0  0
  1  5  1  1  0  0  0
  1  4  1  0  0  0  0
  2  3  1  0  0  0  0
  3 16  1  1  0  0  0
  4  3  1  0  0  0  0
  5  2  1  0  0  0  0
  7 17  1  6  0  0  0
  8  6  1  0  0  0  0
  9  8  2  0  0  0  0
 10 12  2  0  0  0  0
 10  7  1  0  0  0  0
 11 15  2  0  0  0  0
 11 14  1  0  0  0  0
 13  6  2  0  0  0  0
 13  7  1  0  0  0  0
 14 13  1  0  0  0  0
 15 10  1  0  0  0  0
 16 14  2  0  0  0  0
 16  9  1  0  0  0  0
 17 18  1  0  0  0  0
 18 19  1  0  0  0  0
 19 20  1  0  0  0  0
 21 26  1  1  0  0  0
 21 30  1  0  0  0  0
 22 26  2  0  0  0  0
 24 23  1  1  0  0  0
 24 25  1  0  0  0  0
 24 21  1  0  0  0  0
 25 27  1  0  0  0  0
 26 32  1  0  0  0  0
 28 27  1  6  0  0  0
 28 30  1  0  0  0  0
 28  1  1  0  0  0  0
 29 23  1  0  0  0  0
 29 22  1  0  0  0  0
 32 31  1  0  0  0  0
M  END
>  <MODEL>
8

>  <REMARK>
 VINA RESULT:      -7.6      3.550      8.986
  Name = 
  6 active torsions:
  status: ('A' for Active; 'I' for Inactive)
    1  A    between atoms: C_3  and  C_6
    2  A    between atoms: C_3  and  N_19
    3  A    between atoms: C_4  and  N_19
    4  A    between atoms: N_11  and  C_24
    5  A    between atoms: C_16  and  O_26
    6  A    between atoms: C_20  and  C_32
                            x       y       z     vdW  Elec       q    Type
                         _______ _______ _______ _____ _____    ______ ____

>  <TORSDO>
F 6

$$$$
=
 OpenBabel11062414133D

 32 36  0  0  1  0  0  0  0  0999 V2000
  185.9490  177.9090  144.6710 N   0  0  2  0  0  0  0  0  0  0  0  0
  185.0370  179.6770  143.2650 C   0  0  0  0  0  2  0  0  0  0  0  0
  186.1450  178.9810  142.5280 C   0  0  1  0  0  3  0  0  0  0  0  0
  186.3650  177.6930  143.2860 C   0  0  0  0  0  2  0  0  0  0  0  0
  185.0120  179.0380  144.6400 C   0  0  0  0  0  2  0  0  0  0  0  0
  185.1190  178.2450  138.4320 C   0  0  0  0  0  3  0  0  0  0  0  0
  187.4570  177.5710  137.8260 C   0  0  1  0  0  3  0  0  0  0  0  0
  184.1880  178.6800  139.3180 N   0  0  0  0  0  0  0  0  0  0  0  0
  184.5000  178.9250  140.6180 C   0  0  0  0  0  3  0  0  0  0  0  0
  188.7160  177.0520  138.4640 C   0  0  0  0  0  0  0  0  0  0  0  0
  188.1540  177.9620  140.6540 C   0  0  0  0  0  3  0  0  0  0  0  0
  189.5180  176.3630  137.7830 O   0  0  0  0  0  0  0  0  0  0  0  0
  186.4360  178.0230  138.8420 C   0  0  0  0  0  0  0  0  0  0  0  0
  186.7840  178.2610  140.1880 C   0  0  0  0  0  0  0  0  0  0  0  0
  189.0500  177.3870  139.8550 C   0  0  0  0  0  3  0  0  0  0  0  0
  185.8080  178.7300  141.0850 C   0  0  0  0  0  0  0  0  0  0  0  0
  187.7870  178.6760  136.9390 N   0  0  0  0  0  2  0  0  0  0  0  0
  187.1870  178.3820  135.6480 C   0  0  0  0  0  2  0  0  0  0  0  0
  188.0960  177.4690  134.8490 C   0  0  0  0  0  2  0  0  0  0  0  0
  189.4220  177.8840  134.9830 O   0  0  0  0  0  1  0  0  0  0  0  0
  189.4450  177.8800  145.8510 C   0  0  1  0  0  3  0  0  0  0  0  0
  191.6750  176.7870  145.9120 C   0  0  0  0  0  3  0  0  0  0  0  0
  189.9980  175.9950  147.5240 C   0  0  0  0  0  2  0  0  0  0  0  0
  189.0970  177.1860  147.2070 C   0  0  2  0  0  3  0  0  0  0  0  0
  187.7510  176.7590  147.2410 O   0  0  0  0  0  0  0  0  0  0  0  0
  190.7620  177.4840  145.2250 C   0  0  0  0  0  0  0  0  0  0  0  0
  186.9470  177.8740  146.9440 C   0  0  0  0  0  2  0  0  0  0  0  0
  187.1210  178.2980  145.4670 C   0  0  1  0  0  3  0  0  0  0  0  0
  191.4520  176.3890  147.3360 C   0  0  0  0  0  2  0  0  0  0  0  0
  188.3460  177.7100  144.9020 N   0  0  0  0  0  2  0  0  0  0  0  0
  191.2840  176.9770  142.9490 O   0  0  0  0  0  1  0  0  0  0  0  0
  191.0210  177.8750  143.9090 O   0  0  0  0  0  0  0  0  0  0  0  0
  1  4  1  6  0  0  0
  1 28  1  0  0  0  0
  2  5  1  0  0  0  0
  3 16  1  6  0  0  0
  3  2  1  0  0  0  0
  3  4  1  0  0  0  0
  5  1  1  0  0  0  0
  6 13  2  0  0  0  0
  6  8  1  0  0  0  0
  7 17  1  6  0  0  0
  7 10  1  0  0  0  0
  7 13  1  0  0  0  0
  8  9  2  0  0  0  0
  9 16  1  0  0  0  0
 10 15  1  0  0  0  0
 12 10  2  0  0  0  0
 13 14  1  0  0  0  0
 14 11  1  0  0  0  0
 14 16  2  0  0  0  0
 15 11  2  0  0  0  0
 18 17  1  0  0  0  0
 19 20  1  0  0  0  0
 19 18  1  0  0  0  0
 21 30  1  6  0  0  0
 21 24  1  0  0  0  0
 22 29  1  0  0  0  0
 24 25  1  0  0  0  0
 24 23  1  6  0  0  0
 26 21  1  0  0  0  0
 26 22  2  0  0  0  0
 27 25  1  0  0  0  0
 28 27  1  1  0  0  0
 29 23  1  0  0  0  0
 30 28  1  0  0  0  0
 31 32  1  0  0  0  0
 32 26  1  0  0  0  0
M  END
>  <MODEL>
9

>  <REMARK>
 VINA RESULT:      -7.5      2.698      3.725
  Name = 
  6 active torsions:
  status: ('A' for Active; 'I' for Inactive)
    1  A    between atoms: C_3  and  C_6
    2  A    between atoms: C_3  and  N_19
    3  A    between atoms: C_4  and  N_19
    4  A    between atoms: N_11  and  C_24
    5  A    between atoms: C_16  and  O_26
    6  A    between atoms: C_20  and  C_32
                            x       y       z     vdW  Elec       q    Type
                         _______ _______ _______ _____ _____    ______ ____

>  <TORSDO>
F 6

$$$$
