=
 OpenBabel11062415383D

 34 38  0  0  1  0  0  0  0  0999 V2000
  187.8690  174.9940  136.3750 C   0  0  1  0  0  3  0  0  0  0  0  0
  187.0540  178.4900  140.9270 C   0  0  0  0  0  0  0  0  0  0  0  0
  189.7340  176.9400  136.5150 C   0  0  0  0  0  2  0  0  0  0  0  0
  186.2640  178.9760  141.9140 F   0  0  0  0  0  0  0  0  0  0  0  0
  185.7610  175.7210  137.2190 O   0  0  0  0  0  0  0  0  0  0  0  0
  191.2020  176.8550  138.8780 S   0  0  0  0  0  0  0  0  0  0  0  0
  188.1430  177.8550  141.2310 N   0  0  0  0  0  0  0  0  0  0  0  0
  187.3630  178.2410  138.5460 C   0  0  0  0  0  0  0  0  0  0  0  0
  189.8550  173.0000  136.8150 C   0  0  0  0  0  2  0  0  0  0  0  0
  190.1530  171.7210  134.8360 O   0  0  0  0  0  0  0  0  0  0  0  0
  188.9890  177.3480  140.1960 C   0  0  0  0  0  0  0  0  0  0  0  0
  187.0540  177.3990  136.2550 N   0  0  0  0  0  2  0  0  0  0  0  0
  186.8220  176.0380  136.6180 C   0  0  0  0  0  0  0  0  0  0  0  0
  190.2780  177.1160  140.3820 C   0  0  0  0  0  0  0  0  0  0  0  0
  188.5180  177.2720  138.7850 C   0  0  2  0  0  3  0  0  0  0  0  0
  187.5540  174.1920  135.1500 C   0  0  0  0  0  3  0  0  0  0  0  0
  186.7020  178.7300  139.5550 N   0  0  0  0  0  0  0  0  0  0  0  0
  188.2720  173.1370  134.7420 C   0  0  0  0  0  3  0  0  0  0  0  0
  186.7930  178.4980  137.1730 C   0  0  0  0  0  2  0  0  0  0  0  0
  189.3460  175.4590  136.3450 C   0  0  1  0  0  3  0  0  0  0  0  0
  189.4610  172.5890  135.4280 C   0  0  0  0  0  0  0  0  0  0  0  0
  190.3600  174.4420  136.8770 C   0  0  0  0  0  2  0  0  0  0  0  0
  189.7740  177.5060  137.9420 C   0  0  2  0  0  3  0  0  0  0  0  0
  190.9640  177.3710  141.6830 C   0  0  0  0  0  2  0  0  0  0  0  0
  190.5890  176.4020  142.6150 O   0  0  0  0  0  0  0  0  0  0  0  0
  188.5820  177.4380  145.5830 C   0  0  0  0  0  2  0  0  0  0  0  0
  188.9020  176.6880  144.2910 C   0  0  0  0  0  2  0  0  0  0  0  0
  189.4480  177.4070  147.8060 O   0  0  0  0  0  0  0  0  0  0  0  0
  190.2730  177.1170  143.7720 C   0  0  1  0  0  3  0  0  0  0  0  0
  191.0730  176.9980  146.1270 C   0  0  0  0  0  0  0  0  0  0  0  0
  189.6940  177.2750  146.5790 C   0  0  0  0  0  0  0  0  0  0  0  0
  191.3340  176.8880  144.8150 C   0  0  0  0  0  3  0  0  0  0  0  0
  192.0810  176.8260  147.0850 O   0  0  0  0  0  0  0  0  0  0  0  0
  192.4360  175.5560  147.6160 C   0  0  0  0  0  1  0  0  0  0  0  0
  1 16  1  6  0  0  0
  1 13  1  0  0  0  0
  2  7  2  0  0  0  0
  2  4  1  0  0  0  0
  6 14  1  0  0  0  0
  8 17  2  0  0  0  0
  9 22  1  0  0  0  0
 10 21  2  0  0  0  0
 11 14  2  0  0  0  0
 11  7  1  0  0  0  0
 12 13  1  0  0  0  0
 12 19  1  0  0  0  0
 13  5  2  0  0  0  0
 14 24  1  0  0  0  0
 15  8  1  1  0  0  0
 15 11  1  0  0  0  0
 17  2  1  0  0  0  0
 18 16  2  0  0  0  0
 18 21  1  0  0  0  0
 19  8  1  0  0  0  0
 20  1  1  0  0  0  0
 20  3  1  1  0  0  0
 20 22  1  0  0  0  0
 21  9  1  0  0  0  0
 23  3  1  6  0  0  0
 23 15  1  0  0  0  0
 23  6  1  0  0  0  0
 24 25  1  0  0  0  0
 26 31  1  0  0  0  0
 27 26  1  0  0  0  0
 29 25  1  6  0  0  0
 29 27  1  0  0  0  0
 29 32  1  0  0  0  0
 30 31  1  0  0  0  0
 30 33  1  0  0  0  0
 31 28  2  0  0  0  0
 32 30  2  0  0  0  0
 33 34  1  0  0  0  0
M  END
>  <MODEL>
1

>  <REMARK>
 VINA RESULT:      -8.8      0.000      0.000
  Name = 
  4 active torsions:
  status: ('A' for Active; 'I' for Inactive)
    1  A    between atoms: C_6  and  O_12
    2  A    between atoms: C_6  and  C_21
    3  A    between atoms: O_12  and  C_15
    4  A    between atoms: C_20  and  O_26
                            x       y       z     vdW  Elec       q    Type
                         _______ _______ _______ _____ _____    ______ ____

>  <TORSDO>
F 4

$$$$
=
 OpenBabel11062415383D

 34 38  0  0  1  0  0  0  0  0999 V2000
  180.9810  176.3880  139.2010 C   0  0  1  0  0  3  0  0  0  0  0  0
  182.8710  178.9340  144.0540 C   0  0  0  0  0  0  0  0  0  0  0  0
  182.2540  178.7160  138.7040 C   0  0  0  0  0  2  0  0  0  0  0  0
  182.8490  179.0660  145.4020 F   0  0  0  0  0  0  0  0  0  0  0  0
  179.8390  176.4280  141.2930 O   0  0  0  0  0  0  0  0  0  0  0  0
  184.8920  178.7100  139.5890 S   0  0  0  0  0  0  0  0  0  0  0  0
  183.9660  178.5690  143.4640 N   0  0  0  0  0  0  0  0  0  0  0  0
  181.6060  179.0840  142.0030 C   0  0  0  0  0  0  0  0  0  0  0  0
  183.0040  174.9380  137.8170 C   0  0  0  0  0  2  0  0  0  0  0  0
  182.1120  174.0470  135.8030 O   0  0  0  0  0  0  0  0  0  0  0  0
  184.0030  178.4380  142.0410 C   0  0  0  0  0  0  0  0  0  0  0  0
  180.0010  178.4940  140.2340 N   0  0  0  0  0  2  0  0  0  0  0  0
  180.2200  177.0850  140.2880 C   0  0  0  0  0  0  0  0  0  0  0  0
  185.1270  178.5250  141.3480 C   0  0  0  0  0  0  0  0  0  0  0  0
  182.7490  178.4250  141.2360 C   0  0  2  0  0  3  0  0  0  0  0  0
  180.0510  175.6980  138.2510 C   0  0  0  0  0  3  0  0  0  0  0  0
  181.6950  179.2500  143.2920 N   0  0  0  0  0  0  0  0  0  0  0  0
  180.4580  174.9270  137.2340 C   0  0  0  0  0  3  0  0  0  0  0  0
  180.2630  179.3600  141.3750 C   0  0  0  0  0  2  0  0  0  0  0  0
  182.0260  177.2200  138.4160 C   0  0  1  0  0  3  0  0  0  0  0  0
  181.8640  174.6220  136.8950 C   0  0  0  0  0  0  0  0  0  0  0  0
  183.2560  176.4410  137.9420 C   0  0  0  0  0  2  0  0  0  0  0  0
  183.1330  179.0840  139.9080 C   0  0  2  0  0  3  0  0  0  0  0  0
  186.4510  178.7780  141.9880 C   0  0  0  0  0  2  0  0  0  0  0  0
  186.9860  177.5790  142.4620 O   0  0  0  0  0  0  0  0  0  0  0  0
  187.5710  177.6000  146.1450 C   0  0  0  0  0  2  0  0  0  0  0  0
  186.8600  177.2710  144.8340 C   0  0  0  0  0  2  0  0  0  0  0  0
  189.6570  176.9860  147.1290 O   0  0  0  0  0  0  0  0  0  0  0  0
  187.6080  177.9130  143.6660 C   0  0  1  0  0  3  0  0  0  0  0  0
  189.7170  177.1750  144.7640 C   0  0  0  0  0  0  0  0  0  0  0  0
  189.0230  177.2270  146.0680 C   0  0  0  0  0  0  0  0  0  0  0  0
  189.0430  177.4600  143.6400 C   0  0  0  0  0  3  0  0  0  0  0  0
  191.0660  176.7970  144.7260 O   0  0  0  0  0  0  0  0  0  0  0  0
  191.5740  175.8290  143.8180 C   0  0  0  0  0  1  0  0  0  0  0  0
  1 16  1  6  0  0  0
  1 13  1  0  0  0  0
  2  4  1  0  0  0  0
  6 23  1  0  0  0  0
  6 14  1  0  0  0  0
  7  2  2  0  0  0  0
  8 17  2  0  0  0  0
  9 22  1  0  0  0  0
 10 21  2  0  0  0  0
 11  7  1  0  0  0  0
 12 13  1  0  0  0  0
 12 19  1  0  0  0  0
 13  5  2  0  0  0  0
 14 24  1  0  0  0  0
 14 11  2  0  0  0  0
 15  8  1  1  0  0  0
 15 11  1  0  0  0  0
 17  2  1  0  0  0  0
 18 16  2  0  0  0  0
 19  8  1  0  0  0  0
 20 22  1  1  0  0  0
 20  3  1  0  0  0  0
 20  1  1  0  0  0  0
 21 18  1  0  0  0  0
 21  9  1  0  0  0  0
 23  3  1  6  0  0  0
 23 15  1  0  0  0  0
 24 25  1  0  0  0  0
 27 26  1  0  0  0  0
 29 25  1  6  0  0  0
 29 27  1  0  0  0  0
 30 31  1  0  0  0  0
 31 26  1  0  0  0  0
 31 28  2  0  0  0  0
 32 29  1  0  0  0  0
 32 30  2  0  0  0  0
 33 30  1  0  0  0  0
 34 33  1  0  0  0  0
M  END
>  <MODEL>
2

>  <REMARK>
 VINA RESULT:      -8.6      4.730      6.037
  Name = 
  4 active torsions:
  status: ('A' for Active; 'I' for Inactive)
    1  A    between atoms: C_6  and  O_12
    2  A    between atoms: C_6  and  C_21
    3  A    between atoms: O_12  and  C_15
    4  A    between atoms: C_20  and  O_26
                            x       y       z     vdW  Elec       q    Type
                         _______ _______ _______ _____ _____    ______ ____

>  <TORSDO>
F 4

$$$$
=
 OpenBabel11062415383D

 34 38  0  0  1  0  0  0  0  0999 V2000
  188.0070  175.4270  136.6200 C   0  0  1  0  0  3  0  0  0  0  0  0
  186.1680  178.5550  141.1410 C   0  0  0  0  0  0  0  0  0  0  0  0
  189.6210  177.5290  137.1320 C   0  0  0  0  0  2  0  0  0  0  0  0
  185.1940  178.9050  142.0150 F   0  0  0  0  0  0  0  0  0  0  0  0
  185.7330  175.9000  137.1590 O   0  0  0  0  0  0  0  0  0  0  0  0
  190.7200  177.4440  139.6870 S   0  0  0  0  0  0  0  0  0  0  0  0
  187.2590  178.0090  141.5810 N   0  0  0  0  0  0  0  0  0  0  0  0
  186.8520  178.4780  138.8270 C   0  0  0  0  0  0  0  0  0  0  0  0
  190.0980  173.6070  137.2720 C   0  0  0  0  0  2  0  0  0  0  0  0
  190.8180  172.4810  135.3080 O   0  0  0  0  0  0  0  0  0  0  0  0
  188.2970  177.6470  140.6670 C   0  0  0  0  0  0  0  0  0  0  0  0
  186.9760  177.7470  136.4810 N   0  0  0  0  0  2  0  0  0  0  0  0
  186.8340  176.3510  136.7440 C   0  0  0  0  0  0  0  0  0  0  0  0
  189.5610  177.5260  141.0400 C   0  0  0  0  0  0  0  0  0  0  0  0
  188.0520  177.6090  139.1980 C   0  0  2  0  0  3  0  0  0  0  0  0
  187.9620  174.6730  135.3260 C   0  0  0  0  0  3  0  0  0  0  0  0
  186.0020  178.8420  139.7430 N   0  0  0  0  0  0  0  0  0  0  0  0
  188.8360  173.7170  134.9880 C   0  0  0  0  0  3  0  0  0  0  0  0
  186.4710  178.7610  137.3960 C   0  0  0  0  0  2  0  0  0  0  0  0
  189.4160  176.0300  136.8380 C   0  0  1  0  0  3  0  0  0  0  0  0
  189.9600  173.2430  135.8240 C   0  0  0  0  0  0  0  0  0  0  0  0
  190.4380  175.0850  137.4750 C   0  0  0  0  0  2  0  0  0  0  0  0
  189.3890  178.0110  138.5710 C   0  0  2  0  0  3  0  0  0  0  0  0
  190.0150  177.7680  142.4410 C   0  0  0  0  0  2  0  0  0  0  0  0
  190.8670  176.7390  142.8480 O   0  0  0  0  0  0  0  0  0  0  0  0
  191.1780  176.8490  146.5620 C   0  0  0  0  0  2  0  0  0  0  0  0
  191.5820  177.0810  145.1080 C   0  0  0  0  0  2  0  0  0  0  0  0
  189.4500  177.6810  147.9830 O   0  0  0  0  0  0  0  0  0  0  0  0
  190.5230  176.4910  144.1780 C   0  0  1  0  0  3  0  0  0  0  0  0
  188.8100  177.4520  145.7090 C   0  0  0  0  0  0  0  0  0  0  0  0
  189.7880  177.3590  146.8140 C   0  0  0  0  0  0  0  0  0  0  0  0
  189.1690  177.0800  144.4710 C   0  0  0  0  0  3  0  0  0  0  0  0
  187.5310  177.9560  145.9740 O   0  0  0  0  0  0  0  0  0  0  0  0
  186.4440  177.8290  145.0660 C   0  0  0  0  0  1  0  0  0  0  0  0
  1 16  1  6  0  0  0
  1 13  1  0  0  0  0
  1 20  1  0  0  0  0
  2  7  2  0  0  0  0
  2  4  1  0  0  0  0
  6 14  1  0  0  0  0
  8 17  2  0  0  0  0
  9 22  1  0  0  0  0
 10 21  2  0  0  0  0
 11 14  2  0  0  0  0
 11  7  1  0  0  0  0
 12 13  1  0  0  0  0
 12 19  1  0  0  0  0
 13  5  2  0  0  0  0
 14 24  1  0  0  0  0
 15  8  1  1  0  0  0
 15 11  1  0  0  0  0
 17  2  1  0  0  0  0
 18 16  2  0  0  0  0
 18 21  1  0  0  0  0
 19  8  1  0  0  0  0
 20  3  1  1  0  0  0
 20 22  1  0  0  0  0
 21  9  1  0  0  0  0
 23  3  1  6  0  0  0
 23 15  1  0  0  0  0
 23  6  1  0  0  0  0
 24 25  1  0  0  0  0
 26 31  1  0  0  0  0
 27 26  1  0  0  0  0
 29 25  1  6  0  0  0
 29 32  1  0  0  0  0
 29 27  1  0  0  0  0
 30 33  1  0  0  0  0
 30 31  1  0  0  0  0
 31 28  2  0  0  0  0
 32 30  2  0  0  0  0
 34 33  1  0  0  0  0
M  END
>  <MODEL>
3

>  <REMARK>
 VINA RESULT:      -8.3      0.958      1.838
  Name = 
  4 active torsions:
  status: ('A' for Active; 'I' for Inactive)
    1  A    between atoms: C_6  and  O_12
    2  A    between atoms: C_6  and  C_21
    3  A    between atoms: O_12  and  C_15
    4  A    between atoms: C_20  and  O_26
                            x       y       z     vdW  Elec       q    Type
                         _______ _______ _______ _____ _____    ______ ____

>  <TORSDO>
F 4

$$$$
=
 OpenBabel11062415383D

 34 38  0  0  1  0  0  0  0  0999 V2000
  180.3010  176.6620  139.4320 C   0  0  1  0  0  3  0  0  0  0  0  0
  182.9460  178.7770  144.1370 C   0  0  0  0  0  0  0  0  0  0  0  0
  181.3660  179.1030  138.9950 C   0  0  0  0  0  2  0  0  0  0  0  0
  183.1660  178.7610  145.4740 F   0  0  0  0  0  0  0  0  0  0  0  0
  179.5620  176.4060  141.6840 O   0  0  0  0  0  0  0  0  0  0  0  0
  184.1200  179.1620  139.3890 S   0  0  0  0  0  0  0  0  0  0  0  0
  183.9270  178.5460  143.3230 N   0  0  0  0  0  0  0  0  0  0  0  0
  181.3210  179.0710  142.3760 C   0  0  0  0  0  0  0  0  0  0  0  0
  182.0910  175.4960  137.5500 C   0  0  0  0  0  2  0  0  0  0  0  0
  180.8810  174.7760  135.6370 O   0  0  0  0  0  0  0  0  0  0  0  0
  183.7080  178.5720  141.9100 C   0  0  0  0  0  0  0  0  0  0  0  0
  179.4430  178.5800  140.8640 N   0  0  0  0  0  2  0  0  0  0  0  0
  179.7250  177.1890  140.7110 C   0  0  0  0  0  0  0  0  0  0  0  0
  184.6810  178.8020  141.0440 C   0  0  0  0  0  0  0  0  0  0  0  0
  182.3290  178.5700  141.3450 C   0  0  2  0  0  3  0  0  0  0  0  0
  179.2410  176.0240  138.5890 C   0  0  0  0  0  3  0  0  0  0  0  0
  181.6380  179.1020  143.6390 N   0  0  0  0  0  0  0  0  0  0  0  0
  179.4840  175.3940  137.4320 C   0  0  0  0  0  3  0  0  0  0  0  0
  179.8750  179.3320  142.0340 C   0  0  0  0  0  2  0  0  0  0  0  0
  181.1490  177.6360  138.5780 C   0  0  1  0  0  3  0  0  0  0  0  0
  180.8160  175.2130  136.8150 C   0  0  0  0  0  0  0  0  0  0  0  0
  182.3020  176.9900  137.8040 C   0  0  0  0  0  2  0  0  0  0  0  0
  182.4360  179.3910  140.0580 C   0  0  2  0  0  3  0  0  0  0  0  0
  186.0890  179.0650  141.4640 C   0  0  0  0  0  2  0  0  0  0  0  0
  186.9600  178.7760  140.4120 O   0  0  0  0  0  0  0  0  0  0  0  0
  189.2560  177.4010  143.0080 C   0  0  0  0  0  2  0  0  0  0  0  0
  187.9240  177.7770  142.3630 C   0  0  0  0  0  2  0  0  0  0  0  0
  190.9840  175.8320  142.5090 O   0  0  0  0  0  0  0  0  0  0  0  0
  188.1760  178.4690  141.0240 C   0  0  1  0  0  3  0  0  0  0  0  0
  189.9200  176.7450  140.5940 C   0  0  0  0  0  0  0  0  0  0  0  0
  190.0990  176.6030  142.0550 C   0  0  0  0  0  0  0  0  0  0  0  0
  188.9940  177.5910  140.1170 C   0  0  0  0  0  3  0  0  0  0  0  0
  190.7050  175.9660  139.7340 O   0  0  0  0  0  0  0  0  0  0  0  0
  191.3550  176.4970  138.5850 C   0  0  0  0  0  1  0  0  0  0  0  0
  1 16  1  6  0  0  0
  1 13  1  0  0  0  0
  2  4  1  0  0  0  0
  6 23  1  0  0  0  0
  6 14  1  0  0  0  0
  7  2  2  0  0  0  0
  8 17  2  0  0  0  0
  9 22  1  0  0  0  0
 10 21  2  0  0  0  0
 11  7  1  0  0  0  0
 12 19  1  0  0  0  0
 13 12  1  0  0  0  0
 13  5  2  0  0  0  0
 14 24  1  0  0  0  0
 14 11  2  0  0  0  0
 15 11  1  1  0  0  0
 15  8  1  0  0  0  0
 17  2  1  0  0  0  0
 18 16  2  0  0  0  0
 19  8  1  0  0  0  0
 20 22  1  1  0  0  0
 20  3  1  0  0  0  0
 20  1  1  0  0  0  0
 21 18  1  0  0  0  0
 21  9  1  0  0  0  0
 23  3  1  6  0  0  0
 23 15  1  0  0  0  0
 25 24  1  0  0  0  0
 27 26  1  0  0  0  0
 29 25  1  6  0  0  0
 29 27  1  0  0  0  0
 30 31  1  0  0  0  0
 31 28  2  0  0  0  0
 31 26  1  0  0  0  0
 32 30  2  0  0  0  0
 32 29  1  0  0  0  0
 33 30  1  0  0  0  0
 34 33  1  0  0  0  0
M  END
>  <MODEL>
4

>  <REMARK>
 VINA RESULT:      -8.1      5.085      7.131
  Name = 
  4 active torsions:
  status: ('A' for Active; 'I' for Inactive)
    1  A    between atoms: C_6  and  O_12
    2  A    between atoms: C_6  and  C_21
    3  A    between atoms: O_12  and  C_15
    4  A    between atoms: C_20  and  O_26
                            x       y       z     vdW  Elec       q    Type
                         _______ _______ _______ _____ _____    ______ ____

>  <TORSDO>
F 4

$$$$
=
 OpenBabel11062415383D

 34 38  0  0  1  0  0  0  0  0999 V2000
  185.1090  176.0110  137.3500 C   0  0  1  0  0  3  0  0  0  0  0  0
  185.2350  179.0940  142.2570 C   0  0  0  0  0  0  0  0  0  0  0  0
  186.7450  178.1500  137.1700 C   0  0  0  0  0  2  0  0  0  0  0  0
  184.7020  179.4210  143.4590 F   0  0  0  0  0  0  0  0  0  0  0  0
  183.2520  176.4310  138.7840 O   0  0  0  0  0  0  0  0  0  0  0  0
  188.8030  178.0910  139.0430 S   0  0  0  0  0  0  0  0  0  0  0  0
  186.4210  178.5740  142.2020 N   0  0  0  0  0  0  0  0  0  0  0  0
  184.9040  179.0340  139.8660 C   0  0  0  0  0  0  0  0  0  0  0  0
  187.3220  174.2410  137.0620 C   0  0  0  0  0  2  0  0  0  0  0  0
  187.1910  173.1330  134.9660 O   0  0  0  0  0  0  0  0  0  0  0  0
  186.9970  178.2370  140.9380 C   0  0  0  0  0  0  0  0  0  0  0  0
  184.0640  178.3060  137.6710 N   0  0  0  0  0  2  0  0  0  0  0  0
  184.0730  176.9070  137.9560 C   0  0  0  0  0  0  0  0  0  0  0  0
  188.3050  178.1460  140.7540 C   0  0  0  0  0  0  0  0  0  0  0  0
  186.1690  178.1940  139.7010 C   0  0  2  0  0  3  0  0  0  0  0  0
  184.5500  175.2570  136.1830 C   0  0  0  0  0  3  0  0  0  0  0  0
  184.5000  179.3780  141.0560 N   0  0  0  0  0  0  0  0  0  0  0  0
  185.2270  174.3210  135.5040 C   0  0  0  0  0  3  0  0  0  0  0  0
  183.9590  179.3080  138.7230 C   0  0  0  0  0  2  0  0  0  0  0  0
  186.4700  176.6480  136.9720 C   0  0  1  0  0  3  0  0  0  0  0  0
  186.6060  173.8750  135.7970 C   0  0  0  0  0  0  0  0  0  0  0  0
  187.6840  175.7270  137.1210 C   0  0  0  0  0  2  0  0  0  0  0  0
  187.1180  178.6270  138.5810 C   0  0  2  0  0  3  0  0  0  0  0  0
  189.2910  178.3980  141.8460 C   0  0  0  0  0  2  0  0  0  0  0  0
  189.4120  177.2620  142.6480 O   0  0  0  0  0  0  0  0  0  0  0  0
  187.9510  177.6090  146.0620 C   0  0  0  0  0  2  0  0  0  0  0  0
  188.0510  177.1300  144.6150 C   0  0  0  0  0  2  0  0  0  0  0  0
  189.2080  177.2230  148.0530 O   0  0  0  0  0  0  0  0  0  0  0  0
  189.2930  177.7310  143.9570 C   0  0  1  0  0  3  0  0  0  0  0  0
  190.5110  177.2320  146.0700 C   0  0  0  0  0  0  0  0  0  0  0  0
  189.2300  177.3350  146.8000 C   0  0  0  0  0  0  0  0  0  0  0  0
  190.5310  177.3810  144.7370 C   0  0  0  0  0  3  0  0  0  0  0  0
  191.6810  176.9500  146.7880 O   0  0  0  0  0  0  0  0  0  0  0  0
  192.0880  175.6280  147.1180 C   0  0  0  0  0  1  0  0  0  0  0  0
  1 16  1  6  0  0  0
  1 13  1  0  0  0  0
  2  4  1  0  0  0  0
  6 14  1  0  0  0  0
  7  2  2  0  0  0  0
  8 17  2  0  0  0  0
  9 22  1  0  0  0  0
 10 21  2  0  0  0  0
 11  7  1  0  0  0  0
 12 13  1  0  0  0  0
 12 19  1  0  0  0  0
 13  5  2  0  0  0  0
 14 11  2  0  0  0  0
 14 24  1  0  0  0  0
 15  8  1  1  0  0  0
 15 11  1  0  0  0  0
 17  2  1  0  0  0  0
 18 21  1  0  0  0  0
 18 16  2  0  0  0  0
 19  8  1  0  0  0  0
 20 22  1  1  0  0  0
 20  3  1  0  0  0  0
 20  1  1  0  0  0  0
 21  9  1  0  0  0  0
 23  3  1  6  0  0  0
 23  6  1  0  0  0  0
 23 15  1  0  0  0  0
 24 25  1  0  0  0  0
 26 31  1  0  0  0  0
 27 26  1  0  0  0  0
 29 25  1  6  0  0  0
 29 27  1  0  0  0  0
 29 32  1  0  0  0  0
 30 33  1  0  0  0  0
 30 31  1  0  0  0  0
 31 28  2  0  0  0  0
 32 30  2  0  0  0  0
 33 34  1  0  0  0  0
M  END
>  <MODEL>
5

>  <REMARK>
 VINA RESULT:      -8.0      1.950      2.478
  Name = 
  4 active torsions:
  status: ('A' for Active; 'I' for Inactive)
    1  A    between atoms: C_6  and  O_12
    2  A    between atoms: C_6  and  C_21
    3  A    between atoms: O_12  and  C_15
    4  A    between atoms: C_20  and  O_26
                            x       y       z     vdW  Elec       q    Type
                         _______ _______ _______ _____ _____    ______ ____

>  <TORSDO>
F 4

$$$$
=
 OpenBabel11062415383D

 34 38  0  0  1  0  0  0  0  0999 V2000
  190.9000  177.5930  142.0680 C   0  0  1  0  0  3  0  0  0  0  0  0
  189.3240  178.2530  147.6070 C   0  0  0  0  0  0  0  0  0  0  0  0
  189.1920  175.6670  142.8800 C   0  0  0  0  0  2  0  0  0  0  0  0
  189.5180  178.8000  148.8310 F   0  0  0  0  0  0  0  0  0  0  0  0
  192.3080  178.3380  143.8410 O   0  0  0  0  0  0  0  0  0  0  0  0
  186.7490  176.6880  143.7360 S   0  0  0  0  0  0  0  0  0  0  0  0
  188.2340  178.5100  146.9550 N   0  0  0  0  0  0  0  0  0  0  0  0
  190.2370  176.8390  145.8760 C   0  0  0  0  0  0  0  0  0  0  0  0
  188.9760  178.5780  140.2140 C   0  0  0  0  0  2  0  0  0  0  0  0
  189.7070  178.1410  137.9960 O   0  0  0  0  0  0  0  0  0  0  0  0
  188.0150  177.9280  145.6670 C   0  0  0  0  0  0  0  0  0  0  0  0
  191.6460  176.1120  143.9950 N   0  0  0  0  0  2  0  0  0  0  0  0
  191.6800  177.3740  143.3280 C   0  0  0  0  0  0  0  0  0  0  0  0
  186.8050  177.7610  145.1590 C   0  0  0  0  0  0  0  0  0  0  0  0
  189.1230  177.2680  144.9230 C   0  0  2  0  0  3  0  0  0  0  0  0
  191.7880  177.5020  140.8650 C   0  0  0  0  0  3  0  0  0  0  0  0
  190.3070  177.3520  147.0700 N   0  0  0  0  0  0  0  0  0  0  0  0
  191.3760  177.7400  139.6130 C   0  0  0  0  0  3  0  0  0  0  0  0
  191.4080  176.0020  145.4270 C   0  0  0  0  0  2  0  0  0  0  0  0
  189.6280  176.7360  141.8590 C   0  0  1  0  0  3  0  0  0  0  0  0
  190.0080  178.1400  139.2180 C   0  0  0  0  0  0  0  0  0  0  0  0
  188.4930  177.4280  141.1000 C   0  0  0  0  0  2  0  0  0  0  0  0
  188.4460  176.1430  144.1350 C   0  0  2  0  0  3  0  0  0  0  0  0
  185.5630  178.1540  145.8890 C   0  0  0  0  0  2  0  0  0  0  0  0
  184.9450  179.2210  145.2340 O   0  0  0  0  0  0  0  0  0  0  0  0
  181.5580  178.6280  143.7930 C   0  0  0  0  0  2  0  0  0  0  0  0
  182.6070  179.2420  144.7180 C   0  0  0  0  0  2  0  0  0  0  0  0
  181.1090  178.7330  141.4520 O   0  0  0  0  0  0  0  0  0  0  0  0
  183.9760  178.6320  144.4210 C   0  0  1  0  0  3  0  0  0  0  0  0
  183.4140  178.8400  142.0040 C   0  0  0  0  0  0  0  0  0  0  0  0
  181.9820  178.7460  142.3580 C   0  0  0  0  0  0  0  0  0  0  0  0
  184.3420  178.8240  142.9740 C   0  0  0  0  0  3  0  0  0  0  0  0
  183.7740  178.9750  140.6570 O   0  0  0  0  0  0  0  0  0  0  0  0
  185.1260  179.0030  140.2150 C   0  0  0  0  0  1  0  0  0  0  0  0
  1 16  1  6  0  0  0
  1 13  1  0  0  0  0
  2  4  1  0  0  0  0
  6 23  1  0  0  0  0
  6 14  1  0  0  0  0
  7  2  2  0  0  0  0
  8 17  2  0  0  0  0
  9 22  1  0  0  0  0
 10 21  2  0  0  0  0
 11  7  1  0  0  0  0
 12 19  1  0  0  0  0
 13  5  2  0  0  0  0
 13 12  1  0  0  0  0
 14 11  2  0  0  0  0
 14 24  1  0  0  0  0
 15 11  1  1  0  0  0
 15  8  1  0  0  0  0
 17  2  1  0  0  0  0
 18 16  2  0  0  0  0
 19  8  1  0  0  0  0
 20 22  1  1  0  0  0
 20  1  1  0  0  0  0
 20  3  1  0  0  0  0
 21 18  1  0  0  0  0
 21  9  1  0  0  0  0
 23  3  1  6  0  0  0
 23 15  1  0  0  0  0
 25 24  1  0  0  0  0
 26 27  1  0  0  0  0
 28 31  2  0  0  0  0
 29 27  1  0  0  0  0
 29 25  1  1  0  0  0
 30 31  1  0  0  0  0
 30 32  2  0  0  0  0
 31 26  1  0  0  0  0
 32 29  1  0  0  0  0
 33 30  1  0  0  0  0
 34 33  1  0  0  0  0
M  END
>  <MODEL>
6

>  <REMARK>
 VINA RESULT:      -7.8      4.445      7.702
  Name = 
  4 active torsions:
  status: ('A' for Active; 'I' for Inactive)
    1  A    between atoms: C_6  and  O_12
    2  A    between atoms: C_6  and  C_21
    3  A    between atoms: O_12  and  C_15
    4  A    between atoms: C_20  and  O_26
                            x       y       z     vdW  Elec       q    Type
                         _______ _______ _______ _____ _____    ______ ____

>  <TORSDO>
F 4

$$$$
=
 OpenBabel11062415383D

 34 38  0  0  1  0  0  0  0  0999 V2000
  193.4230  173.5680  136.1040 C   0  0  1  0  0  3  0  0  0  0  0  0
  188.4910  176.2550  137.5430 C   0  0  0  0  0  0  0  0  0  0  0  0
  193.7890  176.2040  136.5540 C   0  0  0  0  0  2  0  0  0  0  0  0
  187.1380  176.2850  137.6000 F   0  0  0  0  0  0  0  0  0  0  0  0
  191.2670  173.1140  135.1930 O   0  0  0  0  0  0  0  0  0  0  0  0
  193.0780  176.9640  139.1350 S   0  0  0  0  0  0  0  0  0  0  0  0
  189.1800  176.2890  138.6410 N   0  0  0  0  0  0  0  0  0  0  0  0
  190.4360  176.1360  136.1180 C   0  0  0  0  0  0  0  0  0  0  0  0
  195.0560  172.9150  138.3440 C   0  0  0  0  0  2  0  0  0  0  0  0
  197.0800  171.9230  137.5940 O   0  0  0  0  0  0  0  0  0  0  0  0
  190.6090  176.2690  138.5910 C   0  0  0  0  0  0  0  0  0  0  0  0
  192.1460  175.1910  134.6210 N   0  0  0  0  0  2  0  0  0  0  0  0
  192.2320  173.9200  135.2650 C   0  0  0  0  0  0  0  0  0  0  0  0
  191.3610  176.7470  139.5680 C   0  0  0  0  0  0  0  0  0  0  0  0
  191.3310  175.9180  137.3360 C   0  0  2  0  0  3  0  0  0  0  0  0
  194.3690  172.6860  135.3500 C   0  0  0  0  0  3  0  0  0  0  0  0
  189.1460  176.2370  136.2640 N   0  0  0  0  0  0  0  0  0  0  0  0
  195.4750  172.1480  135.8820 C   0  0  0  0  0  3  0  0  0  0  0  0
  190.9510  176.0190  134.7050 C   0  0  0  0  0  2  0  0  0  0  0  0
  194.1950  174.7340  136.7700 C   0  0  1  0  0  3  0  0  0  0  0  0
  195.9280  172.3200  137.2790 C   0  0  0  0  0  0  0  0  0  0  0  0
  194.8130  174.4110  138.1330 C   0  0  0  0  0  2  0  0  0  0  0  0
  192.6150  176.7490  137.3800 C   0  0  2  0  0  3  0  0  0  0  0  0
  190.7850  177.3590  140.8020 C   0  0  0  0  0  2  0  0  0  0  0  0
  190.5740  176.3730  141.7670 O   0  0  0  0  0  0  0  0  0  0  0  0
  188.1650  177.1300  144.5100 C   0  0  0  0  0  2  0  0  0  0  0  0
  188.7170  176.4150  143.2790 C   0  0  0  0  0  2  0  0  0  0  0  0
  188.8160  177.2860  146.8010 O   0  0  0  0  0  0  0  0  0  0  0  0
  190.0440  177.0510  142.8660 C   0  0  1  0  0  3  0  0  0  0  0  0
  190.6330  177.1130  145.2840 C   0  0  0  0  0  0  0  0  0  0  0  0
  189.1920  177.1710  145.6050 C   0  0  0  0  0  0  0  0  0  0  0  0
  191.0270  177.0190  144.0050 C   0  0  0  0  0  3  0  0  0  0  0  0
  191.5640  177.1280  146.3320 O   0  0  0  0  0  0  0  0  0  0  0  0
  192.0560  175.9440  146.9480 C   0  0  0  0  0  1  0  0  0  0  0  0
  1 16  1  6  0  0  0
  1 20  1  0  0  0  0
  2  4  1  0  0  0  0
  2  7  2  0  0  0  0
  5 13  2  0  0  0  0
  6 14  1  0  0  0  0
  8 17  2  0  0  0  0
 11  7  1  0  0  0  0
 11 14  2  0  0  0  0
 12 19  1  0  0  0  0
 12 13  1  0  0  0  0
 13  1  1  0  0  0  0
 14 24  1  0  0  0  0
 15  8  1  6  0  0  0
 15 23  1  0  0  0  0
 15 11  1  0  0  0  0
 16 18  2  0  0  0  0
 17  2  1  0  0  0  0
 18 21  1  0  0  0  0
 19  8  1  0  0  0  0
 20  3  1  1  0  0  0
 20 22  1  0  0  0  0
 21 10  2  0  0  0  0
 21  9  1  0  0  0  0
 22  9  1  0  0  0  0
 23  3  1  6  0  0  0
 23  6  1  0  0  0  0
 24 25  1  0  0  0  0
 26 31  1  0  0  0  0
 27 26  1  0  0  0  0
 29 25  1  6  0  0  0
 29 27  1  0  0  0  0
 29 32  1  0  0  0  0
 30 31  1  0  0  0  0
 30 33  1  0  0  0  0
 31 28  2  0  0  0  0
 32 30  2  0  0  0  0
 33 34  1  0  0  0  0
M  END
>  <MODEL>
7

>  <REMARK>
 VINA RESULT:      -7.7      3.246      4.237
  Name = 
  4 active torsions:
  status: ('A' for Active; 'I' for Inactive)
    1  A    between atoms: C_6  and  O_12
    2  A    between atoms: C_6  and  C_21
    3  A    between atoms: O_12  and  C_15
    4  A    between atoms: C_20  and  O_26
                            x       y       z     vdW  Elec       q    Type
                         _______ _______ _______ _____ _____    ______ ____

>  <TORSDO>
F 4

$$$$
=
 OpenBabel11062415383D

 34 38  0  0  1  0  0  0  0  0999 V2000
  190.2740  176.7560  139.6340 C   0  0  1  0  0  3  0  0  0  0  0  0
  187.0850  174.4200  135.3940 C   0  0  0  0  0  0  0  0  0  0  0  0
  189.0160  178.6280  138.1530 C   0  0  0  0  0  2  0  0  0  0  0  0
  186.7660  173.3700  134.6010 F   0  0  0  0  0  0  0  0  0  0  0  0
  190.8600  174.8430  138.3380 O   0  0  0  0  0  0  0  0  0  0  0  0
  186.2460  178.3560  138.2010 S   0  0  0  0  0  0  0  0  0  0  0  0
  186.1960  174.9080  136.2020 N   0  0  0  0  0  0  0  0  0  0  0  0
  188.8050  175.9770  136.0640 C   0  0  0  0  0  0  0  0  0  0  0  0
  188.7540  177.4870  141.9290 C   0  0  0  0  0  2  0  0  0  0  0  0
  190.1710  178.5240  143.5280 O   0  0  0  0  0  0  0  0  0  0  0  0
  186.5200  176.0240  137.0350 C   0  0  0  0  0  0  0  0  0  0  0  0
  190.8310  176.8470  137.1550 N   0  0  0  0  0  2  0  0  0  0  0  0
  190.6970  176.0920  138.3590 C   0  0  0  0  0  0  0  0  0  0  0  0
  185.5980  176.8420  137.5170 C   0  0  0  0  0  0  0  0  0  0  0  0
  187.9310  176.4630  137.2180 C   0  0  2  0  0  3  0  0  0  0  0  0
  191.4530  177.0120  140.5230 C   0  0  0  0  0  3  0  0  0  0  0  0
  188.3900  175.0140  135.2930 N   0  0  0  0  0  0  0  0  0  0  0  0
  191.3610  177.5160  141.7600 C   0  0  0  0  0  3  0  0  0  0  0  0
  190.2400  176.4080  135.8990 C   0  0  0  0  0  2  0  0  0  0  0  0
  189.4040  178.0320  139.5190 C   0  0  1  0  0  3  0  0  0  0  0  0
  190.1040  177.8820  142.4480 C   0  0  0  0  0  0  0  0  0  0  0  0
  188.3820  178.2270  140.6430 C   0  0  0  0  0  2  0  0  0  0  0  0
  187.8450  177.9810  137.4000 C   0  0  2  0  0  3  0  0  0  0  0  0
  184.1430  176.6780  137.2250 C   0  0  0  0  0  2  0  0  0  0  0  0
  183.4890  176.1660  138.3470 O   0  0  0  0  0  0  0  0  0  0  0  0
  180.5790  178.0720  139.6910 C   0  0  0  0  0  2  0  0  0  0  0  0
  181.3210  176.8980  139.0540 C   0  0  0  0  0  2  0  0  0  0  0  0
  180.5870  179.1000  141.8440 O   0  0  0  0  0  0  0  0  0  0  0  0
  182.7990  177.2520  138.8890 C   0  0  1  0  0  3  0  0  0  0  0  0
  182.6960  178.2480  141.1680 C   0  0  0  0  0  0  0  0  0  0  0  0
  181.2540  178.4990  140.9620 C   0  0  0  0  0  0  0  0  0  0  0  0
  183.4070  177.6320  140.2120 C   0  0  0  0  0  3  0  0  0  0  0  0
  183.2870  178.6360  142.3770 O   0  0  0  0  0  0  0  0  0  0  0  0
  184.6080  178.2610  142.7490 C   0  0  0  0  0  1  0  0  0  0  0  0
  1 16  1  6  0  0  0
  2  7  2  0  0  0  0
  4  2  1  0  0  0  0
  5 13  2  0  0  0  0
  7 11  1  0  0  0  0
  9 21  1  0  0  0  0
 11 15  1  0  0  0  0
 11 14  2  0  0  0  0
 12 13  1  0  0  0  0
 13  1  1  0  0  0  0
 14  6  1  0  0  0  0
 15  8  1  6  0  0  0
 15 23  1  0  0  0  0
 16 18  2  0  0  0  0
 17  2  1  0  0  0  0
 17  8  2  0  0  0  0
 18 21  1  0  0  0  0
 19  8  1  0  0  0  0
 19 12  1  0  0  0  0
 20  3  1  6  0  0  0
 20  1  1  0  0  0  0
 20 22  1  0  0  0  0
 21 10  2  0  0  0  0
 22  9  1  0  0  0  0
 23  3  1  1  0  0  0
 23  6  1  0  0  0  0
 24 14  1  0  0  0  0
 24 25  1  0  0  0  0
 26 31  1  0  0  0  0
 27 26  1  0  0  0  0
 29 25  1  1  0  0  0
 29 27  1  0  0  0  0
 29 32  1  0  0  0  0
 30 33  1  0  0  0  0
 31 30  1  0  0  0  0
 31 28  2  0  0  0  0
 32 30  2  0  0  0  0
 33 34  1  0  0  0  0
M  END
>  <MODEL>
8

>  <REMARK>
 VINA RESULT:      -7.5      3.774      7.334
  Name = 
  4 active torsions:
  status: ('A' for Active; 'I' for Inactive)
    1  A    between atoms: C_6  and  O_12
    2  A    between atoms: C_6  and  C_21
    3  A    between atoms: O_12  and  C_15
    4  A    between atoms: C_20  and  O_26
                            x       y       z     vdW  Elec       q    Type
                         _______ _______ _______ _____ _____    ______ ____

>  <TORSDO>
F 4

$$$$
=
 OpenBabel11062415383D

 34 38  0  0  1  0  0  0  0  0999 V2000
  188.9180  177.0670  142.9360 C   0  0  1  0  0  3  0  0  0  0  0  0
  190.5340  175.0250  137.7560 C   0  0  0  0  0  0  0  0  0  0  0  0
  189.0060  179.0030  141.0570 C   0  0  0  0  0  2  0  0  0  0  0  0
  191.0960  174.0580  136.9930 F   0  0  0  0  0  0  0  0  0  0  0  0
  190.5550  175.3780  142.5490 O   0  0  0  0  0  0  0  0  0  0  0  0
  187.2860  178.5120  138.9250 S   0  0  0  0  0  0  0  0  0  0  0  0
  189.2890  175.3400  137.5770 N   0  0  0  0  0  0  0  0  0  0  0  0
  190.8640  176.6170  139.5410 C   0  0  0  0  0  0  0  0  0  0  0  0
  186.1020  177.3930  143.2010 C   0  0  0  0  0  2  0  0  0  0  0  0
  185.6030  178.3350  145.3240 O   0  0  0  0  0  0  0  0  0  0  0  0
  188.6890  176.3680  138.3690 C   0  0  0  0  0  0  0  0  0  0  0  0
  191.1600  177.5030  141.8170 N   0  0  0  0  0  2  0  0  0  0  0  0
  190.2580  176.5980  142.4550 C   0  0  0  0  0  0  0  0  0  0  0  0
  187.6270  177.0470  137.9670 C   0  0  0  0  0  0  0  0  0  0  0  0
  189.3620  176.8900  139.5910 C   0  0  2  0  0  3  0  0  0  0  0  0
  188.9310  177.3040  144.4150 C   0  0  0  0  0  3  0  0  0  0  0  0
  191.3380  175.7260  138.7180 N   0  0  0  0  0  0  0  0  0  0  0  0
  187.8490  177.6450  145.1260 C   0  0  0  0  0  3  0  0  0  0  0  0
  191.8220  177.1760  140.5620 C   0  0  0  0  0  2  0  0  0  0  0  0
  188.2820  178.2760  142.2060 C   0  0  1  0  0  3  0  0  0  0  0  0
  186.4850  177.8250  144.5840 C   0  0  0  0  0  0  0  0  0  0  0  0
  186.7540  178.2530  142.1170 C   0  0  0  0  0  2  0  0  0  0  0  0
  188.9510  178.3630  139.6620 C   0  0  2  0  0  3  0  0  0  0  0  0
  186.9700  176.8080  136.6480 C   0  0  0  0  0  2  0  0  0  0  0  0
  185.9160  177.7070  136.4730 O   0  0  0  0  0  0  0  0  0  0  0  0
  183.9430  174.6480  135.6630 C   0  0  0  0  0  2  0  0  0  0  0  0
  185.1810  175.5350  135.7820 C   0  0  0  0  0  2  0  0  0  0  0  0
  182.4550  173.6180  137.2180 O   0  0  0  0  0  0  0  0  0  0  0  0
  184.7820  176.9080  136.3220 C   0  0  1  0  0  3  0  0  0  0  0  0
  183.3030  175.7160  137.9320 C   0  0  0  0  0  0  0  0  0  0  0  0
  183.1970  174.6020  136.9660 C   0  0  0  0  0  0  0  0  0  0  0  0
  184.0740  176.7750  137.6440 C   0  0  0  0  0  3  0  0  0  0  0  0
  182.6150  175.6280  139.1490 O   0  0  0  0  0  0  0  0  0  0  0  0
  182.1210  176.7660  139.8430 C   0  0  0  0  0  1  0  0  0  0  0  0
  1 16  1  1  0  0  0
  2 17  1  0  0  0  0
  4  2  1  0  0  0  0
  6 23  1  0  0  0  0
  7  2  2  0  0  0  0
  7 11  1  0  0  0  0
  8 15  1  0  0  0  0
  8 19  1  0  0  0  0
  9 21  1  0  0  0  0
 12 13  1  0  0  0  0
 13  5  2  0  0  0  0
 13  1  1  0  0  0  0
 14 11  2  0  0  0  0
 14  6  1  0  0  0  0
 15 11  1  6  0  0  0
 15 23  1  0  0  0  0
 16 18  2  0  0  0  0
 17  8  2  0  0  0  0
 19 12  1  0  0  0  0
 20  3  1  6  0  0  0
 20  1  1  0  0  0  0
 21 18  1  0  0  0  0
 21 10  2  0  0  0  0
 22 20  1  0  0  0  0
 22  9  1  0  0  0  0
 23  3  1  1  0  0  0
 24 14  1  0  0  0  0
 25 24  1  0  0  0  0
 26 27  1  0  0  0  0
 26 31  1  0  0  0  0
 27 29  1  0  0  0  0
 29 25  1  1  0  0  0
 29 32  1  0  0  0  0
 30 33  1  0  0  0  0
 31 28  2  0  0  0  0
 31 30  1  0  0  0  0
 32 30  2  0  0  0  0
 33 34  1  0  0  0  0
M  END
>  <MODEL>
9

>  <REMARK>
 VINA RESULT:      -7.4      3.252      8.476
  Name = 
  4 active torsions:
  status: ('A' for Active; 'I' for Inactive)
    1  A    between atoms: C_6  and  O_12
    2  A    between atoms: C_6  and  C_21
    3  A    between atoms: O_12  and  C_15
    4  A    between atoms: C_20  and  O_26
                            x       y       z     vdW  Elec       q    Type
                         _______ _______ _______ _____ _____    ______ ____

>  <TORSDO>
F 4

$$$$
