=
 OpenBabel11062418113D

 25 29  0  0  1  0  0  0  0  0999 V2000
  189.0500  177.3990  144.6200 C   0  0  0  0  0  3  0  0  0  0  0  0
  187.5580  177.7080  146.5210 C   0  0  0  0  0  0  0  0  0  0  0  0
  188.6810  177.8390  141.7260 N   0  0  0  0  0  0  0  0  0  0  0  0
  186.3550  178.0400  147.0040 O   0  0  0  0  0  0  0  0  0  0  0  0
  188.5870  177.3240  147.3880 C   0  0  0  0  0  0  0  0  0  0  0  0
  184.2310  178.7160  146.7280 O   0  0  0  0  0  0  0  0  0  0  0  0
  185.2040  178.9740  140.9850 S   0  0  0  0  0  0  0  0  0  0  0  0
  188.8700  177.9670  140.2650 C   0  0  0  0  0  3  0  0  0  0  0  0
  187.7930  177.7450  145.1260 C   0  0  0  0  0  0  0  0  0  0  0  0
  185.3880  178.7030  142.6610 C   0  0  0  0  0  0  0  0  0  0  0  0
  190.8370  176.6070  147.7200 F   0  0  0  0  0  0  0  0  0  0  0  0
  186.7580  178.1230  144.3280 N   0  0  0  0  0  0  0  0  0  0  0  0
  187.5730  178.4220  139.7210 N   0  0  0  0  0  0  0  0  0  0  0  0
  186.6340  178.2820  142.9970 C   0  0  0  0  0  0  0  0  0  0  0  0
  188.3710  177.2860  148.7270 F   0  0  0  0  0  0  0  0  0  0  0  0
  186.8280  178.5010  140.7600 C   0  0  0  0  0  0  0  0  0  0  0  0
  185.3420  178.4130  146.2190 C   0  0  0  0  0  0  0  0  0  0  0  0
  191.6410  176.5870  144.8330 Cl  0  0  0  0  0  0  0  0  0  0  0  0
  190.0730  177.0160  145.4910 C   0  0  0  0  0  0  0  0  0  0  0  0
  187.4560  178.1700  141.8930 C   0  0  1  0  0  3  0  0  0  0  0  0
  185.5430  178.4570  144.8360 C   0  0  0  0  0  0  0  0  0  0  0  0
  189.8440  176.9790  146.8740 C   0  0  0  0  0  0  0  0  0  0  0  0
  184.6450  178.8230  143.8170 C   0  0  0  0  0  0  0  0  0  0  0  0
  183.2480  179.3280  143.9430 C   0  0  0  0  0  2  0  0  0  0  0  0
  182.3750  178.7100  142.8690 C   0  0  0  0  0  1  0  0  0  0  0  0
  1  9  2  0  0  0  0
  1 19  1  0  0  0  0
  2  4  1  0  0  0  0
  2  5  2  0  0  0  0
  3 20  1  0  0  0  0
  5 15  1  0  0  0  0
  7 10  1  0  0  0  0
  8  3  2  0  0  0  0
  9  2  1  0  0  0  0
 10 14  2  0  0  0  0
 10 23  1  0  0  0  0
 12 21  1  0  0  0  0
 12  9  1  0  0  0  0
 13  8  1  0  0  0  0
 13 16  2  0  0  0  0
 14 12  1  0  0  0  0
 16  7  1  0  0  0  0
 17  6  2  0  0  0  0
 17  4  1  0  0  0  0
 18 19  1  0  0  0  0
 19 22  2  0  0  0  0
 20 16  1  1  0  0  0
 20 14  1  0  0  0  0
 21 17  1  0  0  0  0
 22  5  1  0  0  0  0
 22 11  1  0  0  0  0
 23 24  1  0  0  0  0
 23 21  2  0  0  0  0
 25 24  1  0  0  0  0
M  END
>  <MODEL>
1

>  <REMARK>
 VINA RESULT:     -10.6      0.000      0.000
  Name = 
  1 active torsions:
  status: ('A' for Active; 'I' for Inactive)
    1  A    between atoms: C_6  and  C_25
                            x       y       z     vdW  Elec       q    Type
                         _______ _______ _______ _____ _____    ______ ____

>  <TORSDO>
F 1

$$$$
=
 OpenBabel11062418113D

 25 29  0  0  1  0  0  0  0  0999 V2000
  186.3390  178.0970  143.5820 C   0  0  0  0  0  3  0  0  0  0  0  0
  186.5160  177.9700  146.0090 C   0  0  0  0  0  0  0  0  0  0  0  0
  188.3130  177.6670  141.4320 N   0  0  0  0  0  0  0  0  0  0  0  0
  187.2570  177.7740  147.1050 O   0  0  0  0  0  0  0  0  0  0  0  0
  185.1500  178.2510  146.1200 C   0  0  0  0  0  0  0  0  0  0  0  0
  189.2140  177.3260  148.1150 O   0  0  0  0  0  0  0  0  0  0  0  0
  191.6810  176.9020  142.8490 S   0  0  0  0  0  0  0  0  0  0  0  0
  188.9940  177.5030  140.1300 C   0  0  0  0  0  3  0  0  0  0  0  0
  187.1140  177.8930  144.7280 C   0  0  0  0  0  0  0  0  0  0  0  0
  190.5600  177.1700  144.1110 C   0  0  0  0  0  0  0  0  0  0  0  0
  183.0560  178.7260  145.0830 F   0  0  0  0  0  0  0  0  0  0  0  0
  188.4460  177.6190  144.6770 N   0  0  0  0  0  0  0  0  0  0  0  0
  190.4040  177.1830  140.4390 N   0  0  0  0  0  0  0  0  0  0  0  0
  189.3130  177.4600  143.6590 C   0  0  0  0  0  0  0  0  0  0  0  0
  184.5680  178.3270  147.3430 F   0  0  0  0  0  0  0  0  0  0  0  0
  190.4350  177.1960  141.7200 C   0  0  0  0  0  0  0  0  0  0  0  0
  188.5630  177.5030  147.0510 C   0  0  0  0  0  0  0  0  0  0  0  0
  184.0260  178.6290  142.2480 Cl  0  0  0  0  0  0  0  0  0  0  0  0
  184.9760  178.3780  143.7000 C   0  0  0  0  0  0  0  0  0  0  0  0
  189.2520  177.4700  142.2800 C   0  0  1  0  0  3  0  0  0  0  0  0
  189.1840  177.4220  145.8000 C   0  0  0  0  0  0  0  0  0  0  0  0
  184.3800  178.4540  144.9670 C   0  0  0  0  0  0  0  0  0  0  0  0
  190.5270  177.1430  145.4890 C   0  0  0  0  0  0  0  0  0  0  0  0
  191.6440  176.7920  146.4120 C   0  0  0  0  0  2  0  0  0  0  0  0
  192.0550  175.3490  146.1990 C   0  0  0  0  0  1  0  0  0  0  0  0
  1 19  2  0  0  0  0
  1  9  1  0  0  0  0
  2  5  1  0  0  0  0
  2  4  1  0  0  0  0
  5 15  1  0  0  0  0
  7 10  1  0  0  0  0
  8 13  1  0  0  0  0
  8  3  2  0  0  0  0
  9  2  2  0  0  0  0
 10 23  1  0  0  0  0
 12  9  1  0  0  0  0
 12 21  1  0  0  0  0
 13 16  2  0  0  0  0
 14 10  2  0  0  0  0
 14 12  1  0  0  0  0
 16 20  1  0  0  0  0
 16  7  1  0  0  0  0
 17  4  1  0  0  0  0
 17  6  2  0  0  0  0
 18 19  1  0  0  0  0
 19 22  1  0  0  0  0
 20  3  1  1  0  0  0
 20 14  1  0  0  0  0
 21 17  1  0  0  0  0
 22 11  1  0  0  0  0
 22  5  2  0  0  0  0
 23 21  2  0  0  0  0
 23 24  1  0  0  0  0
 25 24  1  0  0  0  0
M  END
>  <MODEL>
2

>  <REMARK>
 VINA RESULT:     -10.4      3.018      5.172
  Name = 
  1 active torsions:
  status: ('A' for Active; 'I' for Inactive)
    1  A    between atoms: C_6  and  C_25
                            x       y       z     vdW  Elec       q    Type
                         _______ _______ _______ _____ _____    ______ ____

>  <TORSDO>
F 1

$$$$
=
 OpenBabel11062418113D

 25 29  0  0  1  0  0  0  0  0999 V2000
  188.0680  177.8880  141.9610 C   0  0  0  0  0  3  0  0  0  0  0  0
  190.1150  177.2450  143.1170 C   0  0  0  0  0  0  0  0  0  0  0  0
  185.3700  178.5590  142.9480 N   0  0  0  0  0  0  0  0  0  0  0  0
  190.7590  176.9580  144.2530 O   0  0  0  0  0  0  0  0  0  0  0  0
  190.7910  177.2080  141.8920 C   0  0  0  0  0  0  0  0  0  0  0  0
  190.8140  176.7020  146.4850 O   0  0  0  0  0  0  0  0  0  0  0  0
  185.1840  178.2090  146.6590 S   0  0  0  0  0  0  0  0  0  0  0  0
  183.9560  178.9730  143.0710 C   0  0  0  0  0  3  0  0  0  0  0  0
  188.7420  177.5870  143.1490 C   0  0  0  0  0  0  0  0  0  0  0  0
  186.7470  177.7930  146.1080 C   0  0  0  0  0  0  0  0  0  0  0  0
  190.7710  177.4730  139.5210 F   0  0  0  0  0  0  0  0  0  0  0  0
  188.1320  177.6060  144.3660 N   0  0  0  0  0  0  0  0  0  0  0  0
  183.6320  178.9110  144.5120 N   0  0  0  0  0  0  0  0  0  0  0  0
  186.8780  177.8950  144.7600 C   0  0  0  0  0  0  0  0  0  0  0  0
  192.1070  176.8810  141.8500 F   0  0  0  0  0  0  0  0  0  0  0  0
  184.7260  178.5090  145.0430 C   0  0  0  0  0  0  0  0  0  0  0  0
  190.1590  176.9790  145.4450 C   0  0  0  0  0  0  0  0  0  0  0  0
  187.8820  178.2300  139.2660 Cl  0  0  0  0  0  0  0  0  0  0  0  0
  188.7490  177.8490  140.7420 C   0  0  0  0  0  0  0  0  0  0  0  0
  185.7080  178.3100  144.1580 C   0  0  1  0  0  3  0  0  0  0  0  0
  188.8020  177.3120  145.5100 C   0  0  0  0  0  0  0  0  0  0  0  0
  190.1090  177.5100  140.7060 C   0  0  0  0  0  0  0  0  0  0  0  0
  187.9620  177.4110  146.6340 C   0  0  0  0  0  0  0  0  0  0  0  0
  188.3110  177.2500  148.0760 C   0  0  0  0  0  2  0  0  0  0  0  0
  188.8550  178.5540  148.6240 C   0  0  0  0  0  1  0  0  0  0  0  0
  1  9  1  0  0  0  0
  2  9  2  0  0  0  0
  2  4  1  0  0  0  0
  3  8  2  0  0  0  0
  4 17  1  0  0  0  0
  5  2  1  0  0  0  0
  8 13  1  0  0  0  0
  9 12  1  0  0  0  0
 10 23  1  0  0  0  0
 10  7  1  0  0  0  0
 11 22  1  0  0  0  0
 12 14  1  0  0  0  0
 12 21  1  0  0  0  0
 13 16  2  0  0  0  0
 14 10  2  0  0  0  0
 15  5  1  0  0  0  0
 16  7  1  0  0  0  0
 17 21  1  0  0  0  0
 17  6  2  0  0  0  0
 18 19  1  0  0  0  0
 19  1  2  0  0  0  0
 20  3  1  1  0  0  0
 20 14  1  0  0  0  0
 20 16  1  0  0  0  0
 21 23  2  0  0  0  0
 22 19  1  0  0  0  0
 22  5  2  0  0  0  0
 23 24  1  0  0  0  0
 24 25  1  0  0  0  0
M  END
>  <MODEL>
3

>  <REMARK>
 VINA RESULT:     -10.0      3.424      5.413
  Name = 
  1 active torsions:
  status: ('A' for Active; 'I' for Inactive)
    1  A    between atoms: C_6  and  C_25
                            x       y       z     vdW  Elec       q    Type
                         _______ _______ _______ _____ _____    ______ ____

>  <TORSDO>
F 1

$$$$
=
 OpenBabel11062418113D

 25 29  0  0  0  0  0  0  0  0999 V2000
  186.4940  178.0520  144.7180 C   0  0  0  0  0  3  0  0  0  0  0  0
  185.6540  178.5230  142.4800 C   0  0  0  0  0  0  0  0  0  0  0  0
  189.1810  177.3480  145.7130 N   0  0  0  0  0  0  0  0  0  0  0  0
  185.8660  178.6190  141.1630 O   0  0  0  0  0  0  0  0  0  0  0  0
  184.3880  178.7860  143.0140 C   0  0  0  0  0  0  0  0  0  0  0  0
  187.1990  178.4850  139.3590 O   0  0  0  0  0  0  0  0  0  0  0  0
  191.6100  177.0560  142.8940 S   0  0  0  0  0  0  0  0  0  0  0  0
  190.3530  177.0220  146.5530 C   0  0  0  0  0  2  0  0  0  0  0  0
  186.7150  178.1520  143.3410 C   0  0  0  0  0  0  0  0  0  0  0  0
  190.0580  177.4400  142.2930 C   0  0  0  0  0  0  0  0  0  0  0  0
  182.9440  178.9410  144.9060 F   0  0  0  0  0  0  0  0  0  0  0  0
  187.9250  177.9050  142.7690 N   0  0  0  0  0  0  0  0  0  0  0  0
  191.4910  176.8500  145.6250 N   0  0  0  0  0  0  0  0  0  0  0  0
  189.1240  177.5550  143.2720 C   0  0  0  0  0  0  0  0  0  0  0  0
  183.3650  179.1420  142.1970 F   0  0  0  0  0  0  0  0  0  0  0  0
  190.9650  177.0480  144.4730 C   0  0  0  0  0  0  0  0  0  0  0  0
  187.0550  178.3780  140.6060 C   0  0  0  0  0  0  0  0  0  0  0  0
  184.9760  178.1840  146.9750 Cl  0  0  0  0  0  0  0  0  0  0  0  0
  185.2280  178.3160  145.2450 C   0  0  0  0  0  0  0  0  0  0  0  0
  189.6590  177.3290  144.5250 C   0  0  0  0  0  0  0  0  0  0  0  0
  188.1220  178.0070  141.4300 C   0  0  0  0  0  0  0  0  0  0  0  0
  184.1740  178.6840  144.3950 C   0  0  0  0  0  0  0  0  0  0  0  0
  189.4540  177.7150  141.0840 C   0  0  0  0  0  0  0  0  0  0  0  0
  190.1070  177.7860  139.7450 C   0  0  0  0  0  2  0  0  0  0  0  0
  190.3870  176.3870  139.2330 C   0  0  0  0  0  1  0  0  0  0  0  0
  1 19  1  0  0  0  0
  2  5  2  0  0  0  0
  2  9  1  0  0  0  0
  3  8  1  0  0  0  0
  4  2  1  0  0  0  0
  5 22  1  0  0  0  0
  6 17  2  0  0  0  0
  7 16  1  0  0  0  0
  9  1  2  0  0  0  0
 10  7  1  0  0  0  0
 10 14  2  0  0  0  0
 12 14  1  0  0  0  0
 12  9  1  0  0  0  0
 13  8  1  0  0  0  0
 14 20  1  0  0  0  0
 15  5  1  0  0  0  0
 16 20  1  0  0  0  0
 16 13  2  0  0  0  0
 17  4  1  0  0  0  0
 17 21  1  0  0  0  0
 19 18  1  0  0  0  0
 20  3  2  0  0  0  0
 21 12  1  0  0  0  0
 22 11  1  0  0  0  0
 22 19  2  0  0  0  0
 23 21  2  0  0  0  0
 23 10  1  0  0  0  0
 24 23  1  0  0  0  0
 25 24  1  0  0  0  0
M  END
>  <MODEL>
4

>  <REMARK>
 VINA RESULT:      -9.7      3.835      6.027
  Name = 
  1 active torsions:
  status: ('A' for Active; 'I' for Inactive)
    1  A    between atoms: C_6  and  C_25
                            x       y       z     vdW  Elec       q    Type
                         _______ _______ _______ _____ _____    ______ ____

>  <TORSDO>
F 1

$$$$
=
 OpenBabel11062418113D

 25 29  0  0  1  0  0  0  0  0999 V2000
  185.8830  178.3210  142.2460 C   0  0  0  0  0  3  0  0  0  0  0  0
  184.4460  178.6280  144.1900 C   0  0  0  0  0  0  0  0  0  0  0  0
  188.7040  177.4990  141.9840 N   0  0  0  0  0  0  0  0  0  0  0  0
  184.2810  178.6260  145.5170 O   0  0  0  0  0  0  0  0  0  0  0  0
  183.3730  178.9350  143.3450 C   0  0  0  0  0  0  0  0  0  0  0  0
  185.0620  178.3500  147.6060 O   0  0  0  0  0  0  0  0  0  0  0  0
  190.2550  176.9740  145.3390 S   0  0  0  0  0  0  0  0  0  0  0  0
  190.0350  177.1000  141.4780 C   0  0  0  0  0  3  0  0  0  0  0  0
  185.7110  178.3190  143.6340 C   0  0  0  0  0  0  0  0  0  0  0  0
  188.6300  177.4720  145.5150 C   0  0  0  0  0  0  0  0  0  0  0  0
  182.5090  179.2330  141.1420 F   0  0  0  0  0  0  0  0  0  0  0  0
  186.7190  178.0300  144.5000 N   0  0  0  0  0  0  0  0  0  0  0  0
  190.8660  176.8300  142.6700 N   0  0  0  0  0  0  0  0  0  0  0  0
  188.0090  177.6860  144.3260 C   0  0  0  0  0  0  0  0  0  0  0  0
  182.1580  179.2330  143.8690 F   0  0  0  0  0  0  0  0  0  0  0  0
  190.0700  177.0720  143.6450 C   0  0  0  0  0  0  0  0  0  0  0  0
  185.2730  178.3400  146.3640 C   0  0  0  0  0  0  0  0  0  0  0  0
  185.0490  178.6240  139.6710 Cl  0  0  0  0  0  0  0  0  0  0  0  0
  184.8080  178.6280  141.4080 C   0  0  0  0  0  0  0  0  0  0  0  0
  188.8480  177.4500  143.2560 C   0  0  1  0  0  3  0  0  0  0  0  0
  186.5350  178.0320  145.8460 C   0  0  0  0  0  0  0  0  0  0  0  0
  183.5540  178.9350  141.9560 C   0  0  0  0  0  0  0  0  0  0  0  0
  187.7180  177.6920  146.5250 C   0  0  0  0  0  0  0  0  0  0  0  0
  187.9300  177.5030  147.9900 C   0  0  0  0  0  2  0  0  0  0  0  0
  189.0560  178.3990  148.4680 C   0  0  0  0  0  1  0  0  0  0  0  0
  1  9  1  0  0  0  0
  2  4  1  0  0  0  0
  4 17  1  0  0  0  0
  5 15  1  0  0  0  0
  5  2  1  0  0  0  0
  7 10  1  0  0  0  0
  8  3  2  0  0  0  0
  8 13  1  0  0  0  0
  9  2  2  0  0  0  0
  9 12  1  0  0  0  0
 10 23  1  0  0  0  0
 11 22  1  0  0  0  0
 12 21  1  0  0  0  0
 13 16  2  0  0  0  0
 14 12  1  0  0  0  0
 14 10  2  0  0  0  0
 16  7  1  0  0  0  0
 17  6  2  0  0  0  0
 18 19  1  0  0  0  0
 19 22  1  0  0  0  0
 19  1  2  0  0  0  0
 20  3  1  6  0  0  0
 20 16  1  0  0  0  0
 20 14  1  0  0  0  0
 21 17  1  0  0  0  0
 21 23  2  0  0  0  0
 22  5  2  0  0  0  0
 23 24  1  0  0  0  0
 24 25  1  0  0  0  0
M  END
>  <MODEL>
5

>  <REMARK>
 VINA RESULT:      -9.7      3.577      5.404
  Name = 
  1 active torsions:
  status: ('A' for Active; 'I' for Inactive)
    1  A    between atoms: C_6  and  C_25
                            x       y       z     vdW  Elec       q    Type
                         _______ _______ _______ _____ _____    ______ ____

>  <TORSDO>
F 1

$$$$
=
 OpenBabel11062418113D

 25 29  0  0  1  0  0  0  0  0999 V2000
  188.5980  177.8780  140.7600 C   0  0  0  0  0  3  0  0  0  0  0  0
  189.7610  177.3130  142.8250 C   0  0  0  0  0  0  0  0  0  0  0  0
  185.8190  178.7120  140.2230 N   0  0  0  0  0  0  0  0  0  0  0  0
  189.7420  177.1320  144.1500 O   0  0  0  0  0  0  0  0  0  0  0  0
  190.9470  177.1310  142.1040 C   0  0  0  0  0  0  0  0  0  0  0  0
  188.6760  177.1110  146.1280 O   0  0  0  0  0  0  0  0  0  0  0  0
  183.8110  178.7590  143.3680 S   0  0  0  0  0  0  0  0  0  0  0  0
  184.5620  179.1700  139.5950 C   0  0  0  0  0  3  0  0  0  0  0  0
  188.5780  177.6890  142.1460 C   0  0  0  0  0  0  0  0  0  0  0  0
  185.4080  178.2510  143.6990 C   0  0  0  0  0  0  0  0  0  0  0  0
  192.1120  177.1460  140.0230 F   0  0  0  0  0  0  0  0  0  0  0  0
  187.4530  177.8490  142.8940 N   0  0  0  0  0  0  0  0  0  0  0  0
  183.5680  179.2680  140.6860 N   0  0  0  0  0  0  0  0  0  0  0  0
  186.1910  178.2070  142.5910 C   0  0  0  0  0  0  0  0  0  0  0  0
  192.0860  176.7710  142.7470 F   0  0  0  0  0  0  0  0  0  0  0  0
  184.2280  178.8980  141.7200 C   0  0  0  0  0  0  0  0  0  0  0  0
  188.6370  177.2930  144.8820 C   0  0  0  0  0  0  0  0  0  0  0  0
  189.7840  177.9380  138.3100 Cl  0  0  0  0  0  0  0  0  0  0  0  0
  189.7850  177.6950  140.0460 C   0  0  0  0  0  0  0  0  0  0  0  0
  185.5010  178.5840  141.4560 C   0  0  1  0  0  3  0  0  0  0  0  0
  187.4510  177.6620  144.2390 C   0  0  0  0  0  0  0  0  0  0  0  0
  190.9590  177.3230  140.7160 C   0  0  0  0  0  0  0  0  0  0  0  0
  186.1780  177.8980  144.7880 C   0  0  0  0  0  0  0  0  0  0  0  0
  185.7620  177.8820  146.2200 C   0  0  0  0  0  2  0  0  0  0  0  0
  185.9180  179.2650  146.8190 C   0  0  0  0  0  1  0  0  0  0  0  0
  1  9  1  0  0  0  0
  2  4  1  0  0  0  0
  4 17  1  0  0  0  0
  5 15  1  0  0  0  0
  5  2  1  0  0  0  0
  7 10  1  0  0  0  0
  8  3  2  0  0  0  0
  8 13  1  0  0  0  0
  9  2  2  0  0  0  0
  9 12  1  0  0  0  0
 10 23  1  0  0  0  0
 11 22  1  0  0  0  0
 12 21  1  0  0  0  0
 13 16  2  0  0  0  0
 14 12  1  0  0  0  0
 14 10  2  0  0  0  0
 16  7  1  0  0  0  0
 17  6  2  0  0  0  0
 18 19  1  0  0  0  0
 19 22  1  0  0  0  0
 19  1  2  0  0  0  0
 20  3  1  1  0  0  0
 20 16  1  0  0  0  0
 20 14  1  0  0  0  0
 21 23  2  0  0  0  0
 21 17  1  0  0  0  0
 22  5  2  0  0  0  0
 23 24  1  0  0  0  0
 24 25  1  0  0  0  0
M  END
>  <MODEL>
6

>  <REMARK>
 VINA RESULT:      -9.6      3.032      4.411
  Name = 
  1 active torsions:
  status: ('A' for Active; 'I' for Inactive)
    1  A    between atoms: C_6  and  C_25
                            x       y       z     vdW  Elec       q    Type
                         _______ _______ _______ _____ _____    ______ ____

>  <TORSDO>
F 1

$$$$
=
 OpenBabel11062418113D

 25 29  0  0  1  0  0  0  0  0999 V2000
  187.0890  178.0040  145.0020 C   0  0  0  0  0  3  0  0  0  0  0  0
  189.3560  177.2050  145.4010 C   0  0  0  0  0  0  0  0  0  0  0  0
  185.6400  178.6840  142.5230 N   0  0  0  0  0  0  0  0  0  0  0  0
  190.5600  176.8630  144.9300 O   0  0  0  0  0  0  0  0  0  0  0  0
  189.0840  177.1290  146.7720 C   0  0  0  0  0  0  0  0  0  0  0  0
  192.0170  176.5830  143.2430 O   0  0  0  0  0  0  0  0  0  0  0  0
  187.8530  178.3030  139.5410 S   0  0  0  0  0  0  0  0  0  0  0  0
  184.6210  179.0700  141.5240 C   0  0  0  0  0  3  0  0  0  0  0  0
  188.3480  177.6470  144.5100 C   0  0  0  0  0  0  0  0  0  0  0  0
  188.7180  177.9280  140.9660 C   0  0  0  0  0  0  0  0  0  0  0  0
  187.5640  177.4110  148.5870 F   0  0  0  0  0  0  0  0  0  0  0  0
  188.6650  177.7050  143.1880 N   0  0  0  0  0  0  0  0  0  0  0  0
  185.2860  178.9960  140.2060 N   0  0  0  0  0  0  0  0  0  0  0  0
  187.9680  178.0530  142.0910 C   0  0  0  0  0  0  0  0  0  0  0  0
  190.0440  176.7060  147.6330 F   0  0  0  0  0  0  0  0  0  0  0  0
  186.4800  178.6340  140.4980 C   0  0  0  0  0  0  0  0  0  0  0  0
  190.8670  176.9190  143.6320 C   0  0  0  0  0  0  0  0  0  0  0  0
  185.2380  178.3790  146.9640 Cl  0  0  0  0  0  0  0  0  0  0  0  0
  186.8240  177.9260  146.3720 C   0  0  0  0  0  0  0  0  0  0  0  0
  186.6790  178.4590  141.8080 C   0  0  1  0  0  3  0  0  0  0  0  0
  189.8940  177.3530  142.7270 C   0  0  0  0  0  0  0  0  0  0  0  0
  187.8200  177.4880  147.2570 C   0  0  0  0  0  0  0  0  0  0  0  0
  189.9730  177.4860  141.3290 C   0  0  0  0  0  0  0  0  0  0  0  0
  191.1040  177.1350  140.4220 C   0  0  0  0  0  2  0  0  0  0  0  0
  190.5960  176.3030  139.2620 C   0  0  0  0  0  1  0  0  0  0  0  0
  1 19  1  0  0  0  0
  2  5  2  0  0  0  0
  4  2  1  0  0  0  0
  5 22  1  0  0  0  0
  5 15  1  0  0  0  0
  6 17  2  0  0  0  0
  7 16  1  0  0  0  0
  7 10  1  0  0  0  0
  8  3  2  0  0  0  0
  9  1  2  0  0  0  0
  9  2  1  0  0  0  0
 10 23  1  0  0  0  0
 10 14  2  0  0  0  0
 12  9  1  0  0  0  0
 13 16  2  0  0  0  0
 13  8  1  0  0  0  0
 14 12  1  0  0  0  0
 17  4  1  0  0  0  0
 19 18  1  0  0  0  0
 19 22  2  0  0  0  0
 20 16  1  6  0  0  0
 20 14  1  0  0  0  0
 20  3  1  0  0  0  0
 21 12  1  0  0  0  0
 21 17  1  0  0  0  0
 22 11  1  0  0  0  0
 23 21  2  0  0  0  0
 24 23  1  0  0  0  0
 25 24  1  0  0  0  0
M  END
>  <MODEL>
7

>  <REMARK>
 VINA RESULT:      -9.6      2.651      4.599
  Name = 
  1 active torsions:
  status: ('A' for Active; 'I' for Inactive)
    1  A    between atoms: C_6  and  C_25
                            x       y       z     vdW  Elec       q    Type
                         _______ _______ _______ _____ _____    ______ ____

>  <TORSDO>
F 1

$$$$
=
 OpenBabel11062418113D

 25 29  0  0  1  0  0  0  0  0999 V2000
  185.7980  178.3260  142.7970 C   0  0  0  0  0  3  0  0  0  0  0  0
  186.3260  178.0090  145.1550 C   0  0  0  0  0  0  0  0  0  0  0  0
  187.4390  178.0940  140.3570 N   0  0  0  0  0  0  0  0  0  0  0  0
  187.2190  177.7370  146.1130 O   0  0  0  0  0  0  0  0  0  0  0  0
  184.9900  178.2640  145.4850 C   0  0  0  0  0  0  0  0  0  0  0  0
  189.3020  177.2350  146.7900 O   0  0  0  0  0  0  0  0  0  0  0  0
  190.9770  177.2630  141.2050 S   0  0  0  0  0  0  0  0  0  0  0  0
  187.9240  178.0430  138.9610 C   0  0  0  0  0  3  0  0  0  0  0  0
  186.7310  178.0420  143.7990 C   0  0  0  0  0  0  0  0  0  0  0  0
  190.0520  177.4150  142.6330 C   0  0  0  0  0  0  0  0  0  0  0  0
  182.7660  178.7930  144.8030 F   0  0  0  0  0  0  0  0  0  0  0  0
  188.0420  177.7900  143.5340 N   0  0  0  0  0  0  0  0  0  0  0  0
  189.3640  177.7180  139.0360 N   0  0  0  0  0  0  0  0  0  0  0  0
  188.7520  177.7240  142.3920 C   0  0  0  0  0  0  0  0  0  0  0  0
  184.5920  178.2350  146.7820 F   0  0  0  0  0  0  0  0  0  0  0  0
  189.5810  177.6290  140.2960 C   0  0  0  0  0  0  0  0  0  0  0  0
  188.5040  177.4880  145.8490 C   0  0  0  0  0  0  0  0  0  0  0  0
  183.3150  178.9330  141.8600 Cl  0  0  0  0  0  0  0  0  0  0  0  0
  184.4660  178.5800  143.1340 C   0  0  0  0  0  0  0  0  0  0  0  0
  188.4910  177.8430  141.0410 C   0  0  1  0  0  3  0  0  0  0  0  0
  188.9350  177.5150  144.5190 C   0  0  0  0  0  0  0  0  0  0  0  0
  184.0610  178.5480  144.4760 C   0  0  0  0  0  0  0  0  0  0  0  0
  190.2190  177.2790  143.9950 C   0  0  0  0  0  0  0  0  0  0  0  0
  191.4590  176.8700  144.7150 C   0  0  0  0  0  2  0  0  0  0  0  0
  191.8460  175.4590  144.3180 C   0  0  0  0  0  1  0  0  0  0  0  0
  1 19  2  0  0  0  0
  1  9  1  0  0  0  0
  2  5  1  0  0  0  0
  2  4  1  0  0  0  0
  3 20  1  0  0  0  0
  5 15  1  0  0  0  0
  7 10  1  0  0  0  0
  8 13  1  0  0  0  0
  8  3  2  0  0  0  0
  9  2  2  0  0  0  0
 10 23  1  0  0  0  0
 12  9  1  0  0  0  0
 12 21  1  0  0  0  0
 13 16  2  0  0  0  0
 14 10  2  0  0  0  0
 14 12  1  0  0  0  0
 16  7  1  0  0  0  0
 17  4  1  0  0  0  0
 17  6  2  0  0  0  0
 18 19  1  0  0  0  0
 19 22  1  0  0  0  0
 20 16  1  6  0  0  0
 20 14  1  0  0  0  0
 21 17  1  0  0  0  0
 22 11  1  0  0  0  0
 22  5  2  0  0  0  0
 23 21  2  0  0  0  0
 23 24  1  0  0  0  0
 25 24  1  0  0  0  0
M  END
>  <MODEL>
8

>  <REMARK>
 VINA RESULT:      -9.6      3.057      5.106
  Name = 
  1 active torsions:
  status: ('A' for Active; 'I' for Inactive)
    1  A    between atoms: C_6  and  C_25
                            x       y       z     vdW  Elec       q    Type
                         _______ _______ _______ _____ _____    ______ ____

>  <TORSDO>
F 1

$$$$
=
 OpenBabel11062418113D

 25 29  0  0  0  0  0  0  0  0999 V2000
  188.2100  177.5030  145.3940 C   0  0  0  0  0  3  0  0  0  0  0  0
  190.2870  177.1400  144.1730 C   0  0  0  0  0  0  0  0  0  0  0  0
  185.5090  178.2930  144.5080 N   0  0  0  0  0  0  0  0  0  0  0  0
  190.9670  177.1490  143.0220 O   0  0  0  0  0  0  0  0  0  0  0  0
  190.9190  176.7660  145.3650 C   0  0  0  0  0  0  0  0  0  0  0  0
  191.0970  177.4870  140.8040 O   0  0  0  0  0  0  0  0  0  0  0  0
  185.4460  178.9250  140.8300 S   0  0  0  0  0  0  0  0  0  0  0  0
  184.0710  178.6280  144.4340 C   0  0  0  0  0  2  0  0  0  0  0  0
  188.9210  177.5120  144.1910 C   0  0  0  0  0  0  0  0  0  0  0  0
  187.0230  178.4920  141.3240 C   0  0  0  0  0  0  0  0  0  0  0  0
  190.8170  176.3940  147.7190 F   0  0  0  0  0  0  0  0  0  0  0  0
  188.3570  177.8700  143.0050 N   0  0  0  0  0  0  0  0  0  0  0  0
  183.7900  178.9320  143.0150 N   0  0  0  0  0  0  0  0  0  0  0  0
  187.1140  178.2540  142.6580 C   0  0  0  0  0  0  0  0  0  0  0  0
  192.2270  176.4080  145.3580 F   0  0  0  0  0  0  0  0  0  0  0  0
  184.9310  178.7830  142.4510 C   0  0  0  0  0  0  0  0  0  0  0  0
  190.4100  177.4980  141.8600 C   0  0  0  0  0  0  0  0  0  0  0  0
  187.9330  177.1240  148.0770 Cl  0  0  0  0  0  0  0  0  0  0  0  0
  188.8460  177.1280  146.5800 C   0  0  0  0  0  0  0  0  0  0  0  0
  185.9020  178.4230  143.2970 C   0  0  0  0  0  0  0  0  0  0  0  0
  189.0630  177.8730  141.8450 C   0  0  0  0  0  0  0  0  0  0  0  0
  190.1990  176.7590  146.5670 C   0  0  0  0  0  0  0  0  0  0  0  0
  188.2600  178.2670  140.7590 C   0  0  0  0  0  0  0  0  0  0  0  0
  188.6160  178.3280  139.3110 C   0  0  0  0  0  2  0  0  0  0  0  0
  188.3110  177.0000  138.6480 C   0  0  0  0  0  1  0  0  0  0  0  0
  1 19  1  0  0  0  0
  2  9  1  0  0  0  0
  2  5  2  0  0  0  0
  4  2  1  0  0  0  0
  5 22  1  0  0  0  0
  6 17  2  0  0  0  0
  7 10  1  0  0  0  0
  7 16  1  0  0  0  0
  8  3  1  0  0  0  0
  9  1  2  0  0  0  0
 10 14  2  0  0  0  0
 12  9  1  0  0  0  0
 13  8  1  0  0  0  0
 14 12  1  0  0  0  0
 14 20  1  0  0  0  0
 15  5  1  0  0  0  0
 16 13  2  0  0  0  0
 16 20  1  0  0  0  0
 17  4  1  0  0  0  0
 19 18  1  0  0  0  0
 20  3  2  0  0  0  0
 21 17  1  0  0  0  0
 21 12  1  0  0  0  0
 22 19  2  0  0  0  0
 22 11  1  0  0  0  0
 23 10  1  0  0  0  0
 23 21  2  0  0  0  0
 24 23  1  0  0  0  0
 25 24  1  0  0  0  0
M  END
>  <MODEL>
9

>  <REMARK>
 VINA RESULT:      -9.5      2.593      4.493
  Name = 
  1 active torsions:
  status: ('A' for Active; 'I' for Inactive)
    1  A    between atoms: C_6  and  C_25
                            x       y       z     vdW  Elec       q    Type
                         _______ _______ _______ _____ _____    ______ ____

>  <TORSDO>
F 1

$$$$
