=
 OpenBabel11062414443D

 27 30  0  0  1  0  0  0  0  0999 V2000
  187.5570  178.4010  141.3730 C   0  0  0  0  0  2  0  0  0  0  0  0
  188.5270  177.8390  143.8740 N   0  0  1  0  0  0  0  0  0  0  0  0
  186.4520  177.5550  144.9710 C   0  0  0  0  0  2  0  0  0  0  0  0
  188.7910  177.4850  141.4070 C   0  0  0  0  0  2  0  0  0  0  0  0
  185.2620  178.1810  142.3470 C   0  0  0  0  0  3  0  0  0  0  0  0
  189.4570  177.3770  142.8020 C   0  0  2  0  0  0  0  0  0  0  0  0
  186.5870  178.0170  142.4600 C   0  0  0  0  0  0  0  0  0  0  0  0
  187.1770  177.3380  143.6610 C   0  0  1  0  0  3  0  0  0  0  0  0
  187.5470  177.3910  146.0080 C   0  0  0  0  0  2  0  0  0  0  0  0
  188.8530  177.3870  145.2250 C   0  0  0  0  0  2  0  0  0  0  0  0
  189.8450  175.9110  142.9870 C   0  0  0  0  0  1  0  0  0  0  0  0
  191.7940  177.8810  143.7990 C   0  0  0  0  0  2  0  0  0  0  0  0
  190.7640  178.2060  142.7300 C   0  0  0  0  0  3  0  0  0  0  0  0
  190.9310  179.1190  143.9340 C   0  0  0  0  0  2  0  0  0  0  0  0
  184.5400  178.7940  141.2130 C   0  0  0  0  0  0  0  0  0  0  0  0
  185.0680  179.7160  140.5350 O   0  0  0  0  0  0  0  0  0  0  0  0
  184.1290  177.1160  138.8070 C   0  0  0  0  0  1  0  0  0  0  0  0
  180.6050  177.4310  140.1430 C   0  0  0  0  0  3  0  0  0  0  0  0
  183.1870  178.3020  140.8500 C   0  0  0  0  0  0  0  0  0  0  0  0
  181.4760  176.3420  138.1900 O   0  0  0  0  0  1  0  0  0  0  0  0
  180.7950  178.1800  141.3010 C   0  0  0  0  0  3  0  0  0  0  0  0
  182.0740  178.6080  141.6710 C   0  0  0  0  0  0  0  0  0  0  0  0
  181.6910  177.1010  139.3350 C   0  0  0  0  0  0  0  0  0  0  0  0
  182.9830  177.5300  139.6770 C   0  0  0  0  0  0  0  0  0  0  0  0
  182.2100  179.4470  142.9080 C   0  0  0  0  0  2  0  0  0  0  0  0
  183.2780  178.9650  145.1210 C   0  0  0  0  0  1  0  0  0  0  0  0
  182.1470  178.6040  144.1750 C   0  0  0  0  0  2  0  0  0  0  0  0
  1  4  1  0  0  0  0
  1  7  1  0  0  0  0
  2 10  1  1  0  0  0
  3  9  1  0  0  0  0
  4  6  1  0  0  0  0
  5  7  2  0  0  0  0
  6 11  1  1  0  0  0
  6  2  1  0  0  0  0
  7  8  1  0  0  0  0
  8  2  1  0  0  0  0
  8  3  1  1  0  0  0
 10  9  1  0  0  0  0
 12 14  1  0  0  0  0
 13  6  1  0  0  0  0
 13 12  1  0  0  0  0
 13 14  1  0  0  0  0
 15  5  1  0  0  0  0
 16 15  2  0  0  0  0
 17 24  1  0  0  0  0
 18 21  1  0  0  0  0
 19 15  1  0  0  0  0
 19 22  1  0  0  0  0
 20 23  1  0  0  0  0
 21 22  2  0  0  0  0
 22 25  1  0  0  0  0
 23 24  1  0  0  0  0
 23 18  2  0  0  0  0
 24 19  2  0  0  0  0
 25 27  1  0  0  0  0
 27 26  1  0  0  0  0
M  END
>  <MODEL>
1

>  <REMARK>
 VINA RESULT:      -8.2      0.000      0.000
  Name = 
  5 active torsions:
  status: ('A' for Active; 'I' for Inactive)
    1  A    between atoms: C_1  and  C_7
    2  A    between atoms: C_1  and  C_19
    3  A    between atoms: C_9  and  C_21
    4  A    between atoms: C_13  and  C_14
    5  A    between atoms: C_13  and  C_25
                            x       y       z     vdW  Elec       q    Type
                         _______ _______ _______ _____ _____    ______ ____

>  <TORSDO>
F 5

$$$$
=
 OpenBabel11062414443D

 27 30  0  0  1  0  0  0  0  0999 V2000
  189.4300  176.8900  141.0100 C   0  0  0  0  0  2  0  0  0  0  0  0
  187.5420  177.6590  139.1770 N   0  0  1  0  0  0  0  0  0  0  0  0
  185.9970  178.6200  140.6870 C   0  0  0  0  0  2  0  0  0  0  0  0
  189.9870  177.4810  139.7050 C   0  0  0  0  0  2  0  0  0  0  0  0
  187.9170  177.8170  142.7750 C   0  0  0  0  0  3  0  0  0  0  0  0
  188.9190  177.6850  138.6000 C   0  0  2  0  0  0  0  0  0  0  0  0
  188.2400  177.6840  141.4810 C   0  0  0  0  0  0  0  0  0  0  0  0
  187.4720  178.4150  140.4190 C   0  0  1  0  0  3  0  0  0  0  0  0
  185.3980  178.7100  139.2960 C   0  0  0  0  0  2  0  0  0  0  0  0
  186.5030  178.2630  138.3470 C   0  0  0  0  0  2  0  0  0  0  0  0
  189.2270  179.0270  137.9400 C   0  0  0  0  0  1  0  0  0  0  0  0
  190.5160  176.6170  136.8630 C   0  0  0  0  0  2  0  0  0  0  0  0
  189.1600  176.5740  137.5470 C   0  0  0  0  0  3  0  0  0  0  0  0
  189.2900  177.1370  136.1410 C   0  0  0  0  0  2  0  0  0  0  0  0
  188.6010  177.1930  143.9260 C   0  0  0  0  0  0  0  0  0  0  0  0
  189.5430  176.3740  143.7490 O   0  0  0  0  0  0  0  0  0  0  0  0
  185.7990  177.9290  144.5390 C   0  0  0  0  0  1  0  0  0  0  0  0
  187.4520  178.2870  147.9220 C   0  0  0  0  0  3  0  0  0  0  0  0
  188.1930  177.5510  145.3080 C   0  0  0  0  0  0  0  0  0  0  0  0
  185.1980  178.6870  147.2010 O   0  0  0  0  0  1  0  0  0  0  0  0
  188.7610  177.8980  147.6530 C   0  0  0  0  0  3  0  0  0  0  0  0
  189.1400  177.5170  146.3620 C   0  0  0  0  0  0  0  0  0  0  0  0
  186.5020  178.3050  146.9030 C   0  0  0  0  0  0  0  0  0  0  0  0
  186.8600  177.9400  145.5960 C   0  0  0  0  0  0  0  0  0  0  0  0
  190.5760  177.1470  146.1240 C   0  0  0  0  0  2  0  0  0  0  0  0
  192.2670  175.5930  147.1220 C   0  0  0  0  0  1  0  0  0  0  0  0
  191.2640  176.6970  147.4060 C   0  0  0  0  0  2  0  0  0  0  0  0
  1  7  1  0  0  0  0
  2 10  1  6  0  0  0
  2  8  1  0  0  0  0
  4  1  1  0  0  0  0
  5 15  1  0  0  0  0
  6 11  1  6  0  0  0
  6  2  1  0  0  0  0
  6  4  1  0  0  0  0
  7  5  2  0  0  0  0
  8  3  1  1  0  0  0
  8  7  1  0  0  0  0
  9  3  1  0  0  0  0
 10  9  1  0  0  0  0
 12 13  1  0  0  0  0
 13  6  1  0  0  0  0
 14 12  1  0  0  0  0
 14 13  1  0  0  0  0
 15 19  1  0  0  0  0
 16 15  2  0  0  0  0
 17 24  1  0  0  0  0
 19 24  2  0  0  0  0
 19 22  1  0  0  0  0
 21 18  1  0  0  0  0
 22 21  2  0  0  0  0
 23 20  1  0  0  0  0
 23 18  2  0  0  0  0
 24 23  1  0  0  0  0
 25 22  1  0  0  0  0
 25 27  1  0  0  0  0
 26 27  1  0  0  0  0
M  END
>  <MODEL>
2

>  <REMARK>
 VINA RESULT:      -8.2      3.572      7.024
  Name = 
  5 active torsions:
  status: ('A' for Active; 'I' for Inactive)
    1  A    between atoms: C_1  and  C_7
    2  A    between atoms: C_1  and  C_19
    3  A    between atoms: C_9  and  C_21
    4  A    between atoms: C_13  and  C_14
    5  A    between atoms: C_13  and  C_25
                            x       y       z     vdW  Elec       q    Type
                         _______ _______ _______ _____ _____    ______ ____

>  <TORSDO>
F 5

$$$$
=
 OpenBabel11062414443D

 27 30  0  0  1  0  0  0  0  0999 V2000
  189.5450  176.7480  140.7530 C   0  0  0  0  0  2  0  0  0  0  0  0
  187.4700  177.8000  139.3040 N   0  0  1  0  0  0  0  0  0  0  0  0
  186.1860  178.6100  141.1170 C   0  0  0  0  0  2  0  0  0  0  0  0
  189.9510  177.4810  139.4650 C   0  0  0  0  0  2  0  0  0  0  0  0
  188.3260  177.4930  142.8080 C   0  0  0  0  0  3  0  0  0  0  0  0
  188.7570  177.8550  138.5500 C   0  0  2  0  0  0  0  0  0  0  0  0
  188.4670  177.5130  141.4760 C   0  0  0  0  0  0  0  0  0  0  0  0
  187.6010  178.3960  140.6260 C   0  0  1  0  0  3  0  0  0  0  0  0
  185.4130  178.8930  139.8420 C   0  0  0  0  0  2  0  0  0  0  0  0
  186.3600  178.5350  138.7040 C   0  0  0  0  0  2  0  0  0  0  0  0
  189.0380  179.2600  138.0200 C   0  0  0  0  0  1  0  0  0  0  0  0
  190.1220  176.8430  136.5960 C   0  0  0  0  0  2  0  0  0  0  0  0
  188.8020  176.8790  137.3480 C   0  0  0  0  0  3  0  0  0  0  0  0
  188.9480  177.6090  136.0230 C   0  0  0  0  0  2  0  0  0  0  0  0
  189.1270  176.7070  143.7710 C   0  0  0  0  0  0  0  0  0  0  0  0
  189.8350  175.7400  143.3820 O   0  0  0  0  0  0  0  0  0  0  0  0
  191.6390  176.7680  145.3390 C   0  0  0  0  0  1  0  0  0  0  0  0
  189.0720  177.7160  147.9510 C   0  0  0  0  0  3  0  0  0  0  0  0
  189.1180  177.0750  145.2090 C   0  0  0  0  0  0  0  0  0  0  0  0
  191.4450  177.3880  148.0950 O   0  0  0  0  0  1  0  0  0  0  0  0
  187.8930  177.7350  147.2110 C   0  0  0  0  0  3  0  0  0  0  0  0
  187.9030  177.4320  145.8460 C   0  0  0  0  0  0  0  0  0  0  0  0
  190.2800  177.3900  147.3370 C   0  0  0  0  0  0  0  0  0  0  0  0
  190.3150  177.0680  145.9700 C   0  0  0  0  0  0  0  0  0  0  0  0
  186.5940  177.4290  145.1110 C   0  0  0  0  0  2  0  0  0  0  0  0
  184.6310  178.8720  144.5320 C   0  0  0  0  0  1  0  0  0  0  0  0
  185.6750  178.5480  145.5840 C   0  0  0  0  0  2  0  0  0  0  0  0
  1  7  1  0  0  0  0
  2 10  1  6  0  0  0
  2  8  1  0  0  0  0
  4  1  1  0  0  0  0
  5 15  1  0  0  0  0
  6 11  1  6  0  0  0
  6  2  1  0  0  0  0
  6  4  1  0  0  0  0
  7  5  2  0  0  0  0
  8  3  1  1  0  0  0
  8  7  1  0  0  0  0
  9  3  1  0  0  0  0
 10  9  1  0  0  0  0
 12 13  1  0  0  0  0
 13  6  1  0  0  0  0
 14 12  1  0  0  0  0
 14 13  1  0  0  0  0
 15 19  1  0  0  0  0
 16 15  2  0  0  0  0
 17 24  1  0  0  0  0
 19 22  2  0  0  0  0
 19 24  1  0  0  0  0
 21 18  2  0  0  0  0
 22 21  1  0  0  0  0
 23 18  1  0  0  0  0
 23 20  1  0  0  0  0
 24 23  2  0  0  0  0
 25 27  1  0  0  0  0
 25 22  1  0  0  0  0
 26 27  1  0  0  0  0
M  END
>  <MODEL>
3

>  <REMARK>
 VINA RESULT:      -8.1      3.420      7.108
  Name = 
  5 active torsions:
  status: ('A' for Active; 'I' for Inactive)
    1  A    between atoms: C_1  and  C_7
    2  A    between atoms: C_1  and  C_19
    3  A    between atoms: C_9  and  C_21
    4  A    between atoms: C_13  and  C_14
    5  A    between atoms: C_13  and  C_25
                            x       y       z     vdW  Elec       q    Type
                         _______ _______ _______ _____ _____    ______ ____

>  <TORSDO>
F 5

$$$$
=
 OpenBabel11062414443D

 27 30  0  0  1  0  0  0  0  0999 V2000
  187.6460  178.3640  141.9070 C   0  0  0  0  0  2  0  0  0  0  0  0
  188.8350  177.6630  144.2750 N   0  0  1  0  0  0  0  0  0  0  0  0
  186.8670  177.3860  145.5560 C   0  0  0  0  0  2  0  0  0  0  0  0
  188.8480  177.4140  141.7800 C   0  0  0  0  0  2  0  0  0  0  0  0
  185.4500  178.1630  143.0900 C   0  0  0  0  0  3  0  0  0  0  0  0
  189.6420  177.2250  143.0980 C   0  0  2  0  0  0  0  0  0  0  0  0
  186.7740  177.9580  143.0650 C   0  0  0  0  0  0  0  0  0  0  0  0
  187.4550  177.2090  144.1730 C   0  0  1  0  0  3  0  0  0  0  0  0
  188.0510  177.1460  146.4730 C   0  0  0  0  0  2  0  0  0  0  0  0
  189.2750  177.1410  145.5660 C   0  0  0  0  0  2  0  0  0  0  0  0
  189.9990  175.7410  143.1820 C   0  0  0  0  0  1  0  0  0  0  0  0
  191.8140  178.1210  144.1870 C   0  0  0  0  0  2  0  0  0  0  0  0
  190.9610  178.0190  142.9330 C   0  0  0  0  0  3  0  0  0  0  0  0
  190.9660  179.2990  143.7540 C   0  0  0  0  0  2  0  0  0  0  0  0
  184.6420  178.8470  142.0580 C   0  0  0  0  0  0  0  0  0  0  0  0
  185.1900  179.5790  141.1900 O   0  0  0  0  0  0  0  0  0  0  0  0
  182.9850  179.4020  144.4490 C   0  0  0  0  0  1  0  0  0  0  0  0
  180.3900  178.2140  141.9660 C   0  0  0  0  0  3  0  0  0  0  0  0
  183.1710  178.6510  142.0270 C   0  0  0  0  0  0  0  0  0  0  0  0
  180.2070  178.8820  144.2640 O   0  0  0  0  0  1  0  0  0  0  0  0
  181.1540  177.9950  140.8240 C   0  0  0  0  0  3  0  0  0  0  0  0
  182.5350  178.2200  140.8360 C   0  0  0  0  0  0  0  0  0  0  0  0
  180.9950  178.6600  143.1400 C   0  0  0  0  0  0  0  0  0  0  0  0
  182.3810  178.8810  143.1820 C   0  0  0  0  0  0  0  0  0  0  0  0
  183.3120  177.9260  139.5850 C   0  0  0  0  0  2  0  0  0  0  0  0
  182.8250  180.2070  138.6740 C   0  0  0  0  0  1  0  0  0  0  0  0
  182.7870  178.7160  138.3930 C   0  0  0  0  0  2  0  0  0  0  0  0
  1  7  1  0  0  0  0
  2 10  1  1  0  0  0
  3  9  1  0  0  0  0
  4  1  1  0  0  0  0
  4  6  1  0  0  0  0
  6 11  1  1  0  0  0
  6  2  1  0  0  0  0
  7  5  2  0  0  0  0
  7  8  1  0  0  0  0
  8  2  1  0  0  0  0
  8  3  1  1  0  0  0
 10  9  1  0  0  0  0
 13  6  1  0  0  0  0
 13 14  1  0  0  0  0
 13 12  1  0  0  0  0
 14 12  1  0  0  0  0
 15  5  1  0  0  0  0
 16 15  2  0  0  0  0
 18 23  1  0  0  0  0
 19 15  1  0  0  0  0
 19 24  1  0  0  0  0
 21 22  1  0  0  0  0
 21 18  2  0  0  0  0
 22 19  2  0  0  0  0
 23 24  2  0  0  0  0
 23 20  1  0  0  0  0
 24 17  1  0  0  0  0
 25 22  1  0  0  0  0
 27 26  1  0  0  0  0
 27 25  1  0  0  0  0
M  END
>  <MODEL>
4

>  <REMARK>
 VINA RESULT:      -8.0      1.505      2.849
  Name = 
  5 active torsions:
  status: ('A' for Active; 'I' for Inactive)
    1  A    between atoms: C_1  and  C_7
    2  A    between atoms: C_1  and  C_19
    3  A    between atoms: C_9  and  C_21
    4  A    between atoms: C_13  and  C_14
    5  A    between atoms: C_13  and  C_25
                            x       y       z     vdW  Elec       q    Type
                         _______ _______ _______ _____ _____    ______ ____

>  <TORSDO>
F 5

$$$$
=
 OpenBabel11062414443D

 27 30  0  0  1  0  0  0  0  0999 V2000
  187.4750  178.5530  141.0720 C   0  0  0  0  0  2  0  0  0  0  0  0
  187.7590  178.2280  143.7780 N   0  0  1  0  0  0  0  0  0  0  0  0
  185.4670  178.0140  144.3210 C   0  0  0  0  0  2  0  0  0  0  0  0
  188.6490  177.6610  141.5050 C   0  0  0  0  0  2  0  0  0  0  0  0
  185.0040  178.3910  141.4340 C   0  0  0  0  0  3  0  0  0  0  0  0
  188.9290  177.6850  143.0290 C   0  0  2  0  0  0  0  0  0  0  0  0
  186.2530  178.2550  141.9000 C   0  0  0  0  0  0  0  0  0  0  0  0
  186.5040  177.6920  143.2680 C   0  0  1  0  0  3  0  0  0  0  0  0
  186.2540  177.9570  145.6170 C   0  0  0  0  0  2  0  0  0  0  0  0
  187.7190  177.9010  145.2010 C   0  0  0  0  0  2  0  0  0  0  0  0
  189.2410  176.2460  143.4370 C   0  0  0  0  0  1  0  0  0  0  0  0
  191.5090  177.8160  142.8390 C   0  0  0  0  0  2  0  0  0  0  0  0
  190.2190  178.5210  143.2230 C   0  0  0  0  0  3  0  0  0  0  0  0
  191.1220  177.9380  144.2990 C   0  0  0  0  0  2  0  0  0  0  0  0
  184.6070  178.8910  140.1020 C   0  0  0  0  0  0  0  0  0  0  0  0
  184.6450  180.1240  139.8380 O   0  0  0  0  0  0  0  0  0  0  0  0
  181.9360  177.6150  140.2050 C   0  0  0  0  0  1  0  0  0  0  0  0
  183.4130  176.0690  137.0850 C   0  0  0  0  0  3  0  0  0  0  0  0
  184.1800  177.9320  139.0520 C   0  0  0  0  0  0  0  0  0  0  0  0
  181.3080  175.7310  138.1870 O   0  0  0  0  0  1  0  0  0  0  0  0
  184.6510  176.6990  137.0030 C   0  0  0  0  0  3  0  0  0  0  0  0
  185.0400  177.6360  137.9650 C   0  0  0  0  0  0  0  0  0  0  0  0
  182.5440  176.3650  138.1340 C   0  0  0  0  0  0  0  0  0  0  0  0
  182.9160  177.2920  139.1200 C   0  0  0  0  0  0  0  0  0  0  0  0
  186.4050  178.2510  137.8450 C   0  0  0  0  0  2  0  0  0  0  0  0
  188.8610  177.8310  137.6010 C   0  0  0  0  0  1  0  0  0  0  0  0
  187.4800  177.2010  137.6030 C   0  0  0  0  0  2  0  0  0  0  0  0
  1  4  1  0  0  0  0
  1  7  1  0  0  0  0
  2 10  1  1  0  0  0
  3  9  1  0  0  0  0
  4  6  1  0  0  0  0
  5  7  2  0  0  0  0
  6 13  1  0  0  0  0
  6 11  1  1  0  0  0
  6  2  1  0  0  0  0
  7  8  1  0  0  0  0
  8  2  1  0  0  0  0
  8  3  1  1  0  0  0
 10  9  1  0  0  0  0
 12 13  1  0  0  0  0
 12 14  1  0  0  0  0
 13 14  1  0  0  0  0
 15  5  1  0  0  0  0
 16 15  2  0  0  0  0
 18 23  1  0  0  0  0
 19 24  1  0  0  0  0
 19 15  1  0  0  0  0
 21 18  2  0  0  0  0
 21 22  1  0  0  0  0
 22 19  2  0  0  0  0
 23 20  1  0  0  0  0
 23 24  2  0  0  0  0
 24 17  1  0  0  0  0
 25 22  1  0  0  0  0
 26 27  1  0  0  0  0
 27 25  1  0  0  0  0
M  END
>  <MODEL>
5

>  <REMARK>
 VINA RESULT:      -7.9      1.504      3.416
  Name = 
  5 active torsions:
  status: ('A' for Active; 'I' for Inactive)
    1  A    between atoms: C_1  and  C_7
    2  A    between atoms: C_1  and  C_19
    3  A    between atoms: C_9  and  C_21
    4  A    between atoms: C_13  and  C_14
    5  A    between atoms: C_13  and  C_25
                            x       y       z     vdW  Elec       q    Type
                         _______ _______ _______ _____ _____    ______ ____

>  <TORSDO>
F 5

$$$$
=
 OpenBabel11062414443D

 27 30  0  0  1  0  0  0  0  0999 V2000
  182.4880  179.5460  140.1750 C   0  0  0  0  0  2  0  0  0  0  0  0
  181.2990  177.5900  138.6670 N   0  0  1  0  0  0  0  0  0  0  0  0
  182.5630  175.7560  139.4600 C   0  0  0  0  0  2  0  0  0  0  0  0
  180.9620  179.6660  140.0310 C   0  0  0  0  0  2  0  0  0  0  0  0
  183.9610  177.7550  141.1160 C   0  0  0  0  0  3  0  0  0  0  0  0
  180.3500  178.6960  138.9890 C   0  0  2  0  0  0  0  0  0  0  0  0
  182.8830  178.1110  140.4030 C   0  0  0  0  0  0  0  0  0  0  0  0
  181.9410  177.0730  139.8680 C   0  0  1  0  0  3  0  0  0  0  0  0
  181.6160  175.2360  138.3950 C   0  0  0  0  0  2  0  0  0  0  0  0
  180.6980  176.4050  138.0610 C   0  0  0  0  0  2  0  0  0  0  0  0
  179.0530  178.1660  139.5970 C   0  0  0  0  0  1  0  0  0  0  0  0
  181.0740  179.7080  136.7170 C   0  0  0  0  0  2  0  0  0  0  0  0
  179.9760  179.5570  137.7560 C   0  0  0  0  0  3  0  0  0  0  0  0
  180.7900  180.8390  137.6840 C   0  0  0  0  0  2  0  0  0  0  0  0
  184.9510  178.6610  141.7350 C   0  0  0  0  0  0  0  0  0  0  0  0
  185.4650  179.6020  141.0730 O   0  0  0  0  0  0  0  0  0  0  0  0
  187.5660  177.4840  142.4760 C   0  0  0  0  0  1  0  0  0  0  0  0
  185.9970  178.0820  145.8650 C   0  0  0  0  0  3  0  0  0  0  0  0
  185.3270  178.4780  143.1600 C   0  0  0  0  0  0  0  0  0  0  0  0
  188.0950  177.1040  145.2310 O   0  0  0  0  0  1  0  0  0  0  0  0
  184.7860  178.6780  145.5280 C   0  0  0  0  0  3  0  0  0  0  0  0
  184.4450  178.8930  144.1880 C   0  0  0  0  0  0  0  0  0  0  0  0
  186.8870  177.6870  144.8680 C   0  0  0  0  0  0  0  0  0  0  0  0
  186.5630  177.8800  143.5150 C   0  0  0  0  0  0  0  0  0  0  0  0
  183.1070  179.5030  143.8860 C   0  0  0  0  0  2  0  0  0  0  0  0
  180.6990  178.9460  143.4840 C   0  0  0  0  0  1  0  0  0  0  0  0
  181.9630  178.5580  144.2290 C   0  0  0  0  0  2  0  0  0  0  0  0
  1  7  1  0  0  0  0
  2 10  1  1  0  0  0
  2  6  1  0  0  0  0
  2  8  1  0  0  0  0
  4  1  1  0  0  0  0
  5 15  1  0  0  0  0
  6 11  1  1  0  0  0
  6  4  1  0  0  0  0
  7  5  2  0  0  0  0
  8  3  1  6  0  0  0
  8  7  1  0  0  0  0
  9  3  1  0  0  0  0
 10  9  1  0  0  0  0
 12 14  1  0  0  0  0
 12 13  1  0  0  0  0
 13  6  1  0  0  0  0
 14 13  1  0  0  0  0
 15 19  1  0  0  0  0
 16 15  2  0  0  0  0
 17 24  1  0  0  0  0
 19 24  2  0  0  0  0
 19 22  1  0  0  0  0
 21 18  1  0  0  0  0
 22 21  2  0  0  0  0
 23 20  1  0  0  0  0
 23 18  2  0  0  0  0
 24 23  1  0  0  0  0
 25 22  1  0  0  0  0
 25 27  1  0  0  0  0
 26 27  1  0  0  0  0
M  END
>  <MODEL>
6

>  <REMARK>
 VINA RESULT:      -7.8      2.757      7.523
  Name = 
  5 active torsions:
  status: ('A' for Active; 'I' for Inactive)
    1  A    between atoms: C_1  and  C_7
    2  A    between atoms: C_1  and  C_19
    3  A    between atoms: C_9  and  C_21
    4  A    between atoms: C_13  and  C_14
    5  A    between atoms: C_13  and  C_25
                            x       y       z     vdW  Elec       q    Type
                         _______ _______ _______ _____ _____    ______ ____

>  <TORSDO>
F 5

$$$$
=
 OpenBabel11062414443D

 27 30  0  0  1  0  0  0  0  0999 V2000
  182.3430  179.2140  141.4920 C   0  0  0  0  0  2  0  0  0  0  0  0
  181.2340  177.6880  139.5050 N   0  0  1  0  0  0  0  0  0  0  0  0
  183.0480  176.2060  139.1840 C   0  0  0  0  0  2  0  0  0  0  0  0
  180.8540  178.8800  141.6770 C   0  0  0  0  0  2  0  0  0  0  0  0
  184.3840  177.7820  141.2860 C   0  0  0  0  0  3  0  0  0  0  0  0
  180.1980  178.2250  140.4350 C   0  0  2  0  0  0  0  0  0  0  0  0
  183.0960  178.0090  140.9960 C   0  0  0  0  0  0  0  0  0  0  0  0
  182.2940  177.0000  140.2280 C   0  0  1  0  0  3  0  0  0  0  0  0
  181.9740  175.8430  138.1760 C   0  0  0  0  0  2  0  0  0  0  0  0
  180.7620  176.6880  138.5510 C   0  0  0  0  0  2  0  0  0  0  0  0
  179.2850  177.1170  140.9590 C   0  0  0  0  0  1  0  0  0  0  0  0
  180.0090  180.2330  138.8100 C   0  0  0  0  0  2  0  0  0  0  0  0
  179.3010  179.3100  139.7890 C   0  0  0  0  0  3  0  0  0  0  0  0
  179.7040  180.7130  140.2150 C   0  0  0  0  0  2  0  0  0  0  0  0
  185.2840  178.6610  142.0620 C   0  0  0  0  0  0  0  0  0  0  0  0
  185.6860  179.7560  141.5840 O   0  0  0  0  0  0  0  0  0  0  0  0
  183.6260  179.3540  144.4160 C   0  0  0  0  0  1  0  0  0  0  0  0
  186.5390  177.5560  146.0230 C   0  0  0  0  0  3  0  0  0  0  0  0
  185.7010  178.2640  143.4310 C   0  0  0  0  0  0  0  0  0  0  0  0
  184.6050  178.6170  146.9690 O   0  0  0  0  0  1  0  0  0  0  0  0
  187.3020  177.1850  144.9200 C   0  0  0  0  0  3  0  0  0  0  0  0
  186.8910  177.5190  143.6250 C   0  0  0  0  0  0  0  0  0  0  0  0
  185.3540  178.2690  145.8510 C   0  0  0  0  0  0  0  0  0  0  0  0
  184.9270  178.6280  144.5620 C   0  0  0  0  0  0  0  0  0  0  0  0
  187.7760  177.1280  142.4770 C   0  0  0  0  0  2  0  0  0  0  0  0
  189.9820  176.0030  142.8440 C   0  0  0  0  0  1  0  0  0  0  0  0
  189.2500  177.3310  142.8030 C   0  0  0  0  0  2  0  0  0  0  0  0
  1  4  1  0  0  0  0
  2 10  1  6  0  0  0
  2  8  1  0  0  0  0
  2  6  1  0  0  0  0
  5 15  1  0  0  0  0
  6 11  1  1  0  0  0
  6  4  1  0  0  0  0
  7  5  2  0  0  0  0
  7  1  1  0  0  0  0
  8  3  1  6  0  0  0
  8  7  1  0  0  0  0
  9 10  1  0  0  0  0
  9  3  1  0  0  0  0
 12 13  1  0  0  0  0
 12 14  1  0  0  0  0
 13 14  1  0  0  0  0
 13  6  1  0  0  0  0
 15 19  1  0  0  0  0
 16 15  2  0  0  0  0
 17 24  1  0  0  0  0
 19 22  2  0  0  0  0
 19 24  1  0  0  0  0
 21 18  2  0  0  0  0
 22 21  1  0  0  0  0
 23 18  1  0  0  0  0
 23 20  1  0  0  0  0
 24 23  2  0  0  0  0
 25 27  1  0  0  0  0
 25 22  1  0  0  0  0
 27 26  1  0  0  0  0
M  END
>  <MODEL>
7

>  <REMARK>
 VINA RESULT:      -7.8      2.480      7.855
  Name = 
  5 active torsions:
  status: ('A' for Active; 'I' for Inactive)
    1  A    between atoms: C_1  and  C_7
    2  A    between atoms: C_1  and  C_19
    3  A    between atoms: C_9  and  C_21
    4  A    between atoms: C_13  and  C_14
    5  A    between atoms: C_13  and  C_25
                            x       y       z     vdW  Elec       q    Type
                         _______ _______ _______ _____ _____    ______ ____

>  <TORSDO>
F 5

$$$$
=
 OpenBabel11062414443D

 27 30  0  0  1  0  0  0  0  0999 V2000
  186.2020  178.5900  140.5990 C   0  0  0  0  0  2  0  0  0  0  0  0
  186.2950  177.8110  143.2250 N   0  0  1  0  0  0  0  0  0  0  0  0
  188.6280  177.4510  143.3740 C   0  0  0  0  0  2  0  0  0  0  0  0
  185.2930  179.3840  141.5510 C   0  0  0  0  0  2  0  0  0  0  0  0
  188.6780  178.2330  140.5320 C   0  0  0  0  0  3  0  0  0  0  0  0
  185.1850  178.7760  142.9720 C   0  0  2  0  0  0  0  0  0  0  0  0
  187.5440  178.3430  141.2370 C   0  0  0  0  0  0  0  0  0  0  0  0
  187.5680  178.3230  142.7370 C   0  0  1  0  0  3  0  0  0  0  0  0
  188.0190  177.0830  144.7140 C   0  0  0  0  0  2  0  0  0  0  0  0
  186.5600  177.5140  144.6310 C   0  0  0  0  0  2  0  0  0  0  0  0
  185.2240  179.9480  143.9510 C   0  0  0  0  0  1  0  0  0  0  0  0
  182.6260  179.0320  142.6700 C   0  0  0  0  0  2  0  0  0  0  0  0
  183.7810  178.1280  143.0670 C   0  0  0  0  0  3  0  0  0  0  0  0
  182.9190  178.7830  144.1350 C   0  0  0  0  0  2  0  0  0  0  0  0
  188.8120  178.2730  139.0610 C   0  0  0  0  0  0  0  0  0  0  0  0
  188.9930  179.3660  138.4590 O   0  0  0  0  0  0  0  0  0  0  0  0
  191.0880  176.3770  139.0820 C   0  0  0  0  0  1  0  0  0  0  0  0
  188.6620  174.6500  136.7500 C   0  0  0  0  0  3  0  0  0  0  0  0
  188.7580  177.0100  138.2820 C   0  0  0  0  0  0  0  0  0  0  0  0
  190.8760  174.0620  137.4650 O   0  0  0  0  0  1  0  0  0  0  0  0
  187.5690  175.5120  136.7700 C   0  0  0  0  0  3  0  0  0  0  0  0
  187.5980  176.6810  137.5370 C   0  0  0  0  0  0  0  0  0  0  0  0
  189.8030  174.9450  137.4940 C   0  0  0  0  0  0  0  0  0  0  0  0
  189.8620  176.1200  138.2610 C   0  0  0  0  0  0  0  0  0  0  0  0
  186.4060  177.5920  137.4860 C   0  0  0  0  0  2  0  0  0  0  0  0
  183.9950  177.1400  137.9910 C   0  0  0  0  0  1  0  0  0  0  0  0
  185.1480  176.8550  137.0460 C   0  0  0  0  0  2  0  0  0  0  0  0
  1  7  1  0  0  0  0
  1  4  1  0  0  0  0
  2 10  1  1  0  0  0
  3  9  1  0  0  0  0
  4  6  1  0  0  0  0
  5  7  2  0  0  0  0
  6 13  1  0  0  0  0
  6  2  1  0  0  0  0
  6 11  1  1  0  0  0
  7  8  1  0  0  0  0
  8  2  1  0  0  0  0
  8  3  1  6  0  0  0
 10  9  1  0  0  0  0
 12 13  1  0  0  0  0
 12 14  1  0  0  0  0
 13 14  1  0  0  0  0
 15  5  1  0  0  0  0
 16 15  2  0  0  0  0
 18 21  2  0  0  0  0
 18 23  1  0  0  0  0
 19 15  1  0  0  0  0
 20 23  1  0  0  0  0
 21 22  1  0  0  0  0
 22 19  2  0  0  0  0
 23 24  2  0  0  0  0
 24 19  1  0  0  0  0
 24 17  1  0  0  0  0
 25 22  1  0  0  0  0
 27 25  1  0  0  0  0
 27 26  1  0  0  0  0
M  END
>  <MODEL>
8

>  <REMARK>
 VINA RESULT:      -7.7      3.083      6.219
  Name = 
  5 active torsions:
  status: ('A' for Active; 'I' for Inactive)
    1  A    between atoms: C_1  and  C_7
    2  A    between atoms: C_1  and  C_19
    3  A    between atoms: C_9  and  C_21
    4  A    between atoms: C_13  and  C_14
    5  A    between atoms: C_13  and  C_25
                            x       y       z     vdW  Elec       q    Type
                         _______ _______ _______ _____ _____    ______ ____

>  <TORSDO>
F 5

$$$$
=
 OpenBabel11062414443D

 27 30  0  0  1  0  0  0  0  0999 V2000
  188.2390  177.8790  139.1440 C   0  0  0  0  0  2  0  0  0  0  0  0
  190.2570  177.0010  137.5100 N   0  0  1  0  0  0  0  0  0  0  0  0
  191.8480  176.5180  139.1910 C   0  0  0  0  0  2  0  0  0  0  0  0
  187.7920  176.9970  137.9660 C   0  0  0  0  0  2  0  0  0  0  0  0
  189.7850  177.4710  141.0690 C   0  0  0  0  0  3  0  0  0  0  0  0
  188.9110  176.7140  136.9320 C   0  0  2  0  0  0  0  0  0  0  0  0
  189.4920  177.3260  139.7700 C   0  0  0  0  0  0  0  0  0  0  0  0
  190.3690  176.5010  138.8730 C   0  0  1  0  0  3  0  0  0  0  0  0
  192.4980  176.2390  137.8490 C   0  0  0  0  0  2  0  0  0  0  0  0
  191.3820  176.3750  136.8200 C   0  0  0  0  0  2  0  0  0  0  0  0
  188.7720  175.2470  136.5320 C   0  0  0  0  0  1  0  0  0  0  0  0
  187.1720  178.1310  135.6380 C   0  0  0  0  0  2  0  0  0  0  0  0
  188.5860  177.5760  135.6870 C   0  0  0  0  0  3  0  0  0  0  0  0
  187.5390  176.9250  134.7970 C   0  0  0  0  0  2  0  0  0  0  0  0
  189.0000  178.2170  142.0740 C   0  0  0  0  0  0  0  0  0  0  0  0
  188.2210  179.1460  141.7260 O   0  0  0  0  0  0  0  0  0  0  0  0
  191.6190  178.2590  143.4570 C   0  0  0  0  0  1  0  0  0  0  0  0
  189.3040  177.1060  146.2170 C   0  0  0  0  0  3  0  0  0  0  0  0
  189.1090  177.8550  143.5100 C   0  0  0  0  0  0  0  0  0  0  0  0
  191.6800  177.4430  146.1680 O   0  0  0  0  0  1  0  0  0  0  0  0
  188.0630  177.1280  145.5880 C   0  0  0  0  0  3  0  0  0  0  0  0
  187.9490  177.5110  144.2480 C   0  0  0  0  0  0  0  0  0  0  0  0
  190.4530  177.4630  145.5140 C   0  0  0  0  0  0  0  0  0  0  0  0
  190.3680  177.8380  144.1630 C   0  0  0  0  0  0  0  0  0  0  0  0
  186.5890  177.4760  143.6130 C   0  0  0  0  0  2  0  0  0  0  0  0
  184.5830  178.9710  143.5180 C   0  0  0  0  0  1  0  0  0  0  0  0
  185.5630  178.2530  144.4270 C   0  0  0  0  0  2  0  0  0  0  0  0
  1  7  1  0  0  0  0
  2 10  1  6  0  0  0
  2  8  1  0  0  0  0
  4  1  1  0  0  0  0
  5 15  1  0  0  0  0
  6 11  1  6  0  0  0
  6  2  1  0  0  0  0
  6  4  1  0  0  0  0
  7  5  2  0  0  0  0
  8  3  1  1  0  0  0
  8  7  1  0  0  0  0
  9  3  1  0  0  0  0
 10  9  1  0  0  0  0
 12 13  1  0  0  0  0
 13  6  1  0  0  0  0
 14 12  1  0  0  0  0
 14 13  1  0  0  0  0
 15 19  1  0  0  0  0
 16 15  2  0  0  0  0
 17 24  1  0  0  0  0
 19 24  2  0  0  0  0
 19 22  1  0  0  0  0
 21 18  1  0  0  0  0
 22 21  2  0  0  0  0
 23 20  1  0  0  0  0
 23 18  2  0  0  0  0
 24 23  1  0  0  0  0
 25 22  1  0  0  0  0
 25 27  1  0  0  0  0
 26 27  1  0  0  0  0
M  END
>  <MODEL>
9

>  <REMARK>
 VINA RESULT:      -7.5      3.765      7.380
  Name = 
  5 active torsions:
  status: ('A' for Active; 'I' for Inactive)
    1  A    between atoms: C_1  and  C_7
    2  A    between atoms: C_1  and  C_19
    3  A    between atoms: C_9  and  C_21
    4  A    between atoms: C_13  and  C_14
    5  A    between atoms: C_13  and  C_25
                            x       y       z     vdW  Elec       q    Type
                         _______ _______ _______ _____ _____    ______ ____

>  <TORSDO>
F 5

$$$$
