=
 OpenBabel11062413533D

 25 27  0  0  1  0  0  0  0  0999 V2000
  186.4490  178.1790  143.4160 C   0  0  2  0  0  3  0  0  0  0  0  0
  185.3970  179.0350  140.9120 C   0  0  0  0  0  0  0  0  0  0  0  0
  184.5350  178.8230  142.0350 N   0  0  0  0  0  2  0  0  0  0  0  0
  184.9660  177.9470  143.1240 C   0  0  0  0  0  2  0  0  0  0  0  0
  186.7930  178.5620  140.9820 C   0  0  0  0  0  0  0  0  0  0  0  0
  184.9430  179.6120  139.8500 N   0  0  0  0  0  2  0  0  0  0  0  0
  187.2680  178.1100  142.1510 C   0  0  0  0  0  2  0  0  0  0  0  0
  188.6860  177.9030  139.7190 N   0  0  0  0  0  2  0  0  0  0  0  0
  187.6040  178.5650  139.8000 N   0  0  0  0  0  0  0  0  0  0  0  0
  187.8010  175.2890  136.7370 O   0  0  0  0  0  0  0  0  0  0  0  0
  190.7550  177.1010  138.6630 C   0  0  0  0  0  2  0  0  0  0  0  0
  188.7240  175.9230  137.2160 C   0  0  0  0  0  0  0  0  0  0  0  0
  188.6450  177.4160  137.3180 C   0  0  0  0  0  2  0  0  0  0  0  0
  189.4750  177.9330  138.4970 C   0  0  1  0  0  3  0  0  0  0  0  0
  190.4280  175.7510  138.8700 O   0  0  0  0  0  0  0  0  0  0  0  0
  189.9910  175.2360  137.6350 C   0  0  0  0  0  2  0  0  0  0  0  0
  186.9210  177.1990  144.3820 N   0  0  0  0  0  2  0  0  0  0  0  0
  188.6190  178.1670  148.1470 C   0  0  0  0  0  3  0  0  0  0  0  0
  188.8870  177.4340  145.8490 C   0  0  0  0  0  0  0  0  0  0  0  0
  189.4400  177.7570  147.0950 C   0  0  0  0  0  3  0  0  0  0  0  0
  187.2390  178.2590  147.9600 C   0  0  0  0  0  3  0  0  0  0  0  0
  186.6810  177.9500  146.7170 C   0  0  0  0  0  3  0  0  0  0  0  0
  187.4960  177.5470  145.6490 C   0  0  0  0  0  0  0  0  0  0  0  0
  190.4950  178.1410  144.1030 C   0  0  0  0  0  1  0  0  0  0  0  0
  189.7890  176.9630  144.7540 C   0  0  0  0  0  2  0  0  0  0  0  0
  1 17  1  1  0  0  0
  2  5  1  0  0  0  0
  2  3  1  0  0  0  0
  3  4  1  0  0  0  0
  4  1  1  0  0  0  0
  5  7  1  0  0  0  0
  6  2  2  0  0  0  0
  7  1  1  0  0  0  0
  8  9  1  0  0  0  0
  9  5  2  0  0  0  0
 10 12  2  0  0  0  0
 11 15  1  0  0  0  0
 12 13  1  0  0  0  0
 12 16  1  0  0  0  0
 13 14  1  0  0  0  0
 14 11  1  0  0  0  0
 14  8  1  1  0  0  0
 16 15  1  0  0  0  0
 17 23  1  0  0  0  0
 19 20  1  0  0  0  0
 20 18  2  0  0  0  0
 21 18  1  0  0  0  0
 22 21  2  0  0  0  0
 23 19  2  0  0  0  0
 23 22  1  0  0  0  0
 24 25  1  0  0  0  0
 25 19  1  0  0  0  0
M  END
>  <MODEL>
1

>  <REMARK>
 VINA RESULT:      -8.4      0.000      0.000
  Name = 
  5 active torsions:
  status: ('A' for Active; 'I' for Inactive)
    1  A    between atoms: N_2  and  C_6
    2  A    between atoms: N_2  and  C_25
    3  A    between atoms: C_5  and  C_10
    4  A    between atoms: N_8  and  C_19
    5  A    between atoms: N_16  and  C_18
                            x       y       z     vdW  Elec       q    Type
                         _______ _______ _______ _____ _____    ______ ____

>  <TORSDO>
F 5

$$$$
=
 OpenBabel11062413533D

 25 27  0  0  1  0  0  0  0  0999 V2000
  189.2180  177.5160  142.8630 C   0  0  2  0  0  3  0  0  0  0  0  0
  188.8190  178.2390  140.1380 C   0  0  0  0  0  0  0  0  0  0  0  0
  187.8420  178.5630  141.1320 N   0  0  0  0  0  2  0  0  0  0  0  0
  187.7960  177.7980  142.3780 C   0  0  0  0  0  2  0  0  0  0  0  0
  189.9090  177.3060  140.4820 C   0  0  0  0  0  0  0  0  0  0  0  0
  188.7260  178.7440  138.9530 N   0  0  0  0  0  2  0  0  0  0  0  0
  190.0600  176.9260  141.7590 C   0  0  0  0  0  3  0  0  0  0  0  0
  190.5030  175.7290  138.8160 N   0  0  0  0  0  0  0  0  0  0  0  0
  190.7640  176.8000  139.4490 N   0  0  0  0  0  0  0  0  0  0  0  0
  189.9780  177.0660  135.0150 O   0  0  0  0  0  0  0  0  0  0  0  0
  190.9160  173.9070  137.2200 C   0  0  0  0  0  2  0  0  0  0  0  0
  190.3960  176.1140  135.6500 C   0  0  0  0  0  0  0  0  0  0  0  0
  191.4970  176.2940  136.6490 C   0  0  0  0  0  2  0  0  0  0  0  0
  191.3980  175.2560  137.7720 C   0  0  1  0  0  3  0  0  0  0  0  0
  189.6630  174.0590  136.6040 O   0  0  0  0  0  0  0  0  0  0  0  0
  189.8790  174.7300  135.3860 C   0  0  0  0  0  2  0  0  0  0  0  0
  189.1800  176.6190  144.0080 N   0  0  0  0  0  2  0  0  0  0  0  0
  188.5310  177.8670  148.0110 C   0  0  0  0  0  3  0  0  0  0  0  0
  190.0300  177.0650  146.2770 C   0  0  0  0  0  0  0  0  0  0  0  0
  189.8070  177.4800  147.5970 C   0  0  0  0  0  3  0  0  0  0  0  0
  187.4690  177.8440  147.1060 C   0  0  0  0  0  3  0  0  0  0  0  0
  187.6840  177.4430  145.7860 C   0  0  0  0  0  3  0  0  0  0  0  0
  188.9630  177.0620  145.3550 C   0  0  0  0  0  0  0  0  0  0  0  0
  192.0790  175.8920  147.0230 C   0  0  0  0  0  1  0  0  0  0  0  0
  191.4000  176.6220  145.8760 C   0  0  0  0  0  2  0  0  0  0  0  0
  1 17  1  1  0  0  0
  2  5  1  0  0  0  0
  2  3  1  0  0  0  0
  3  4  1  0  0  0  0
  4  1  1  0  0  0  0
  5  7  2  0  0  0  0
  6  2  2  0  0  0  0
  7  1  1  0  0  0  0
  8  9  2  0  0  0  0
  9  5  1  0  0  0  0
 10 12  2  0  0  0  0
 11 14  1  0  0  0  0
 12 13  1  0  0  0  0
 13 14  1  0  0  0  0
 14  8  1  1  0  0  0
 15 11  1  0  0  0  0
 16 12  1  0  0  0  0
 16 15  1  0  0  0  0
 17 23  1  0  0  0  0
 19 20  2  0  0  0  0
 20 18  1  0  0  0  0
 21 18  2  0  0  0  0
 22 21  1  0  0  0  0
 23 22  2  0  0  0  0
 23 19  1  0  0  0  0
 25 19  1  0  0  0  0
 25 24  1  0  0  0  0
M  END
>  <MODEL>
2

>  <REMARK>
 VINA RESULT:      -7.9      1.998      2.811
  Name = 
  5 active torsions:
  status: ('A' for Active; 'I' for Inactive)
    1  A    between atoms: N_2  and  C_6
    2  A    between atoms: N_2  and  C_25
    3  A    between atoms: C_5  and  C_10
    4  A    between atoms: N_8  and  C_19
    5  A    between atoms: N_16  and  C_18
                            x       y       z     vdW  Elec       q    Type
                         _______ _______ _______ _____ _____    ______ ____

>  <TORSDO>
F 5

$$$$
=
 OpenBabel11062413533D

 25 27  0  0  1  0  0  0  0  0999 V2000
  189.5580  177.0100  143.4940 C   0  0  2  0  0  3  0  0  0  0  0  0
  191.6330  177.4480  141.5940 C   0  0  0  0  0  0  0  0  0  0  0  0
  191.7420  177.9560  142.9280 N   0  0  0  0  0  2  0  0  0  0  0  0
  190.5330  178.1650  143.7230 C   0  0  0  0  0  2  0  0  0  0  0  0
  190.3340  176.9210  141.1320 C   0  0  0  0  0  0  0  0  0  0  0  0
  192.6560  177.4750  140.8070 N   0  0  0  0  0  2  0  0  0  0  0  0
  189.3420  176.7670  142.0220 C   0  0  0  0  0  3  0  0  0  0  0  0
  189.8010  177.4940  138.8960 N   0  0  0  0  0  0  0  0  0  0  0  0
  190.1440  176.6130  139.7450 N   0  0  0  0  0  0  0  0  0  0  0  0
  187.2150  179.6500  136.6220 O   0  0  0  0  0  0  0  0  0  0  0  0
  188.5950  176.0060  137.3560 C   0  0  0  0  0  2  0  0  0  0  0  0
  187.7070  178.5400  136.7280 C   0  0  0  0  0  0  0  0  0  0  0  0
  189.1940  178.3620  136.6870 C   0  0  0  0  0  2  0  0  0  0  0  0
  189.6250  177.1360  137.4970 C   0  0  1  0  0  3  0  0  0  0  0  0
  187.3360  176.4450  137.7960 O   0  0  0  0  0  0  0  0  0  0  0  0
  186.8360  177.3210  136.8150 C   0  0  0  0  0  2  0  0  0  0  0  0
  188.2920  177.2940  144.1540 N   0  0  0  0  0  2  0  0  0  0  0  0
  187.9190  177.9190  148.3330 C   0  0  0  0  0  3  0  0  0  0  0  0
  186.9760  178.0380  146.0990 C   0  0  0  0  0  0  0  0  0  0  0  0
  186.8600  178.2390  147.4810 C   0  0  0  0  0  3  0  0  0  0  0  0
  189.1000  177.3910  147.8090 C   0  0  0  0  0  3  0  0  0  0  0  0
  189.2190  177.1770  146.4340 C   0  0  0  0  0  3  0  0  0  0  0  0
  188.1590  177.4850  145.5690 C   0  0  0  0  0  0  0  0  0  0  0  0
  184.5670  178.6070  146.0240 C   0  0  0  0  0  1  0  0  0  0  0  0
  185.8380  178.4260  145.2110 C   0  0  0  0  0  2  0  0  0  0  0  0
  1  4  1  0  0  0  0
  1 17  1  1  0  0  0
  2  3  1  0  0  0  0
  3  4  1  0  0  0  0
  5  2  1  0  0  0  0
  5  7  2  0  0  0  0
  6  2  2  0  0  0  0
  7  1  1  0  0  0  0
  8  9  2  0  0  0  0
  9  5  1  0  0  0  0
 10 12  2  0  0  0  0
 11 14  1  0  0  0  0
 11 15  1  0  0  0  0
 12 16  1  0  0  0  0
 13 12  1  0  0  0  0
 13 14  1  0  0  0  0
 14  8  1  1  0  0  0
 16 15  1  0  0  0  0
 17 23  1  0  0  0  0
 19 20  1  0  0  0  0
 20 18  2  0  0  0  0
 21 18  1  0  0  0  0
 22 21  2  0  0  0  0
 23 19  2  0  0  0  0
 23 22  1  0  0  0  0
 25 24  1  0  0  0  0
 25 19  1  0  0  0  0
M  END
>  <MODEL>
3

>  <REMARK>
 VINA RESULT:      -7.8      2.303      3.916
  Name = 
  5 active torsions:
  status: ('A' for Active; 'I' for Inactive)
    1  A    between atoms: N_2  and  C_6
    2  A    between atoms: N_2  and  C_25
    3  A    between atoms: C_5  and  C_10
    4  A    between atoms: N_8  and  C_19
    5  A    between atoms: N_16  and  C_18
                            x       y       z     vdW  Elec       q    Type
                         _______ _______ _______ _____ _____    ______ ____

>  <TORSDO>
F 5

$$$$
=
 OpenBabel11062413533D

 25 27  0  0  1  0  0  0  0  0999 V2000
  186.4080  178.1740  143.3990 C   0  0  2  0  0  3  0  0  0  0  0  0
  185.4060  179.0350  140.8770 C   0  0  0  0  0  0  0  0  0  0  0  0
  184.5190  178.7920  141.9720 N   0  0  0  0  0  2  0  0  0  0  0  0
  184.9400  177.9130  143.0630 C   0  0  0  0  0  2  0  0  0  0  0  0
  186.8100  178.5930  140.9800 C   0  0  0  0  0  0  0  0  0  0  0  0
  184.9690  179.6140  139.8080 N   0  0  0  0  0  2  0  0  0  0  0  0
  187.2630  178.1380  142.1570 C   0  0  0  0  0  3  0  0  0  0  0  0
  188.6400  177.8400  139.6770 N   0  0  0  0  0  0  0  0  0  0  0  0
  187.6530  178.6280  139.8210 N   0  0  0  0  0  0  0  0  0  0  0  0
  186.8400  178.2540  136.0580 O   0  0  0  0  0  0  0  0  0  0  0  0
  189.8230  176.4980  137.9910 C   0  0  0  0  0  2  0  0  0  0  0  0
  187.8400  177.8030  136.5880 C   0  0  0  0  0  0  0  0  0  0  0  0
  188.7440  178.6950  137.3830 C   0  0  0  0  0  2  0  0  0  0  0  0
  189.4660  177.9090  138.4820 C   0  0  1  0  0  3  0  0  0  0  0  0
  188.6580  175.8140  137.6070 O   0  0  0  0  0  0  0  0  0  0  0  0
  188.2340  176.3690  136.3860 C   0  0  0  0  0  2  0  0  0  0  0  0
  186.8760  177.1930  144.3670 N   0  0  0  0  0  2  0  0  0  0  0  0
  190.8910  177.0370  145.7250 C   0  0  0  0  0  3  0  0  0  0  0  0
  188.5390  177.4390  146.1680 C   0  0  0  0  0  0  0  0  0  0  0  0
  189.8680  177.3830  146.6090 C   0  0  0  0  0  3  0  0  0  0  0  0
  190.5930  176.7400  144.3950 C   0  0  0  0  0  3  0  0  0  0  0  0
  189.2700  176.7820  143.9500 C   0  0  0  0  0  3  0  0  0  0  0  0
  188.2310  177.1190  144.8300 C   0  0  0  0  0  0  0  0  0  0  0  0
  188.0800  178.2400  148.4660 C   0  0  0  0  0  1  0  0  0  0  0  0
  187.4710  177.8490  147.1300 C   0  0  0  0  0  2  0  0  0  0  0  0
  1 17  1  1  0  0  0
  2  5  1  0  0  0  0
  2  3  1  0  0  0  0
  3  4  1  0  0  0  0
  4  1  1  0  0  0  0
  5  7  2  0  0  0  0
  6  2  2  0  0  0  0
  7  1  1  0  0  0  0
  8  9  2  0  0  0  0
  9  5  1  0  0  0  0
 10 12  2  0  0  0  0
 11 14  1  0  0  0  0
 12 13  1  0  0  0  0
 13 14  1  0  0  0  0
 14  8  1  1  0  0  0
 15 11  1  0  0  0  0
 16 12  1  0  0  0  0
 16 15  1  0  0  0  0
 17 23  1  0  0  0  0
 18 20  1  0  0  0  0
 19 20  2  0  0  0  0
 19 25  1  0  0  0  0
 21 18  2  0  0  0  0
 22 21  1  0  0  0  0
 22 23  2  0  0  0  0
 23 19  1  0  0  0  0
 25 24  1  0  0  0  0
M  END
>  <MODEL>
4

>  <REMARK>
 VINA RESULT:      -7.7      1.002      2.210
  Name = 
  5 active torsions:
  status: ('A' for Active; 'I' for Inactive)
    1  A    between atoms: N_2  and  C_6
    2  A    between atoms: N_2  and  C_25
    3  A    between atoms: C_5  and  C_10
    4  A    between atoms: N_8  and  C_19
    5  A    between atoms: N_16  and  C_18
                            x       y       z     vdW  Elec       q    Type
                         _______ _______ _______ _____ _____    ______ ____

>  <TORSDO>
F 5

$$$$
=
 OpenBabel11062413533D

 25 27  0  0  1  0  0  0  0  0999 V2000
  189.5160  177.5130  142.2110 C   0  0  2  0  0  3  0  0  0  0  0  0
  189.4500  177.1410  139.3890 C   0  0  0  0  0  0  0  0  0  0  0  0
  190.6340  176.8480  140.1390 N   0  0  0  0  0  2  0  0  0  0  0  0
  190.8380  177.4770  141.4430 C   0  0  0  0  0  2  0  0  0  0  0  0
  188.3520  177.8780  140.0430 C   0  0  0  0  0  0  0  0  0  0  0  0
  189.3640  176.7800  138.1520 N   0  0  0  0  0  2  0  0  0  0  0  0
  188.4130  178.0970  141.3640 C   0  0  0  0  0  3  0  0  0  0  0  0
  186.0920  178.5210  139.7390 N   0  0  0  0  0  0  0  0  0  0  0  0
  187.2590  178.3700  139.2570 N   0  0  0  0  0  0  0  0  0  0  0  0
  182.2490  177.9790  140.9420 O   0  0  0  0  0  0  0  0  0  0  0  0
  184.6680  178.0190  137.8000 C   0  0  0  0  0  2  0  0  0  0  0  0
  182.9340  178.1120  139.9430 C   0  0  0  0  0  0  0  0  0  0  0  0
  183.7810  179.3340  139.7610 C   0  0  0  0  0  2  0  0  0  0  0  0
  185.0140  179.0280  138.9040 C   0  0  1  0  0  3  0  0  0  0  0  0
  184.1800  176.8310  138.3700 O   0  0  0  0  0  0  0  0  0  0  0  0
  182.8800  177.0980  138.8370 C   0  0  0  0  0  2  0  0  0  0  0  0
  189.6780  178.2810  143.4370 N   0  0  0  0  0  2  0  0  0  0  0  0
  190.4480  176.5860  147.2480 C   0  0  0  0  0  3  0  0  0  0  0  0
  188.8810  177.4890  145.6290 C   0  0  0  0  0  0  0  0  0  0  0  0
  189.1440  176.9270  146.8860 C   0  0  0  0  0  3  0  0  0  0  0  0
  191.4990  176.8020  146.3560 C   0  0  0  0  0  3  0  0  0  0  0  0
  191.2440  177.3510  145.0970 C   0  0  0  0  0  3  0  0  0  0  0  0
  189.9370  177.6880  144.7170 C   0  0  0  0  0  0  0  0  0  0  0  0
  186.6470  178.0340  146.5470 C   0  0  0  0  0  1  0  0  0  0  0  0
  187.4790  177.8770  145.2860 C   0  0  0  0  0  2  0  0  0  0  0  0
  1 17  1  1  0  0  0
  2  5  1  0  0  0  0
  2  3  1  0  0  0  0
  3  4  1  0  0  0  0
  4  1  1  0  0  0  0
  5  7  2  0  0  0  0
  6  2  2  0  0  0  0
  7  1  1  0  0  0  0
  9  8  2  0  0  0  0
  9  5  1  0  0  0  0
 11 15  1  0  0  0  0
 11 14  1  0  0  0  0
 12 10  2  0  0  0  0
 13 12  1  0  0  0  0
 14  8  1  1  0  0  0
 14 13  1  0  0  0  0
 15 16  1  0  0  0  0
 16 12  1  0  0  0  0
 17 23  1  0  0  0  0
 19 20  2  0  0  0  0
 20 18  1  0  0  0  0
 21 18  2  0  0  0  0
 22 21  1  0  0  0  0
 23 22  2  0  0  0  0
 23 19  1  0  0  0  0
 25 19  1  0  0  0  0
 25 24  1  0  0  0  0
M  END
>  <MODEL>
5

>  <REMARK>
 VINA RESULT:      -7.6      2.597      4.683
  Name = 
  5 active torsions:
  status: ('A' for Active; 'I' for Inactive)
    1  A    between atoms: N_2  and  C_6
    2  A    between atoms: N_2  and  C_25
    3  A    between atoms: C_5  and  C_10
    4  A    between atoms: N_8  and  C_19
    5  A    between atoms: N_16  and  C_18
                            x       y       z     vdW  Elec       q    Type
                         _______ _______ _______ _____ _____    ______ ____

>  <TORSDO>
F 5

$$$$
=
 OpenBabel11062413533D

 25 27  0  0  1  0  0  0  0  0999 V2000
  189.5500  177.4000  141.4010 C   0  0  2  0  0  3  0  0  0  0  0  0
  189.1210  178.4510  138.7910 C   0  0  0  0  0  0  0  0  0  0  0  0
  188.3170  178.8810  139.8940 N   0  0  0  0  0  2  0  0  0  0  0  0
  188.1950  178.0280  141.0750 C   0  0  0  0  0  2  0  0  0  0  0  0
  189.9970  177.2760  138.9570 C   0  0  0  0  0  0  0  0  0  0  0  0
  189.0550  179.0760  137.6620 N   0  0  0  0  0  2  0  0  0  0  0  0
  190.1540  176.7510  140.1810 C   0  0  0  0  0  2  0  0  0  0  0  0
  191.5120  175.7810  137.9160 N   0  0  0  0  0  2  0  0  0  0  0  0
  190.6380  176.6990  137.8120 N   0  0  0  0  0  0  0  0  0  0  0  0
  194.6800  173.2730  138.3410 O   0  0  0  0  0  0  0  0  0  0  0  0
  193.1610  176.2040  136.1440 C   0  0  0  0  0  2  0  0  0  0  0  0
  194.1880  174.0780  137.5700 C   0  0  0  0  0  0  0  0  0  0  0  0
  192.7950  173.8810  137.0540 C   0  0  0  0  0  2  0  0  0  0  0  0
  192.1340  175.2230  136.7250 C   0  0  1  0  0  3  0  0  0  0  0  0
  194.2070  176.4040  137.0590 O   0  0  0  0  0  0  0  0  0  0  0  0
  194.9920  175.2360  137.0530 C   0  0  0  0  0  2  0  0  0  0  0  0
  189.3980  176.4260  142.4720 N   0  0  0  0  0  2  0  0  0  0  0  0
  190.7720  177.1270  146.4240 C   0  0  0  0  0  3  0  0  0  0  0  0
  188.9490  177.0000  144.8260 C   0  0  0  0  0  0  0  0  0  0  0  0
  189.4110  177.2280  146.1290 C   0  0  0  0  0  3  0  0  0  0  0  0
  191.6800  176.7940  145.4190 C   0  0  0  0  0  3  0  0  0  0  0  0
  191.2270  176.5540  144.1190 C   0  0  0  0  0  3  0  0  0  0  0  0
  189.8610  176.6420  143.8120 C   0  0  0  0  0  0  0  0  0  0  0  0
  186.7940  177.8740  145.6760 C   0  0  0  0  0  1  0  0  0  0  0  0
  187.4910  177.1520  144.5350 C   0  0  0  0  0  2  0  0  0  0  0  0
  1 17  1  1  0  0  0
  2  5  1  0  0  0  0
  2  3  1  0  0  0  0
  3  4  1  0  0  0  0
  4  1  1  0  0  0  0
  5  7  1  0  0  0  0
  6  2  2  0  0  0  0
  7  1  1  0  0  0  0
  9  8  1  0  0  0  0
  9  5  2  0  0  0  0
 11 14  1  0  0  0  0
 11 15  1  0  0  0  0
 12 10  2  0  0  0  0
 13 12  1  0  0  0  0
 14 13  1  0  0  0  0
 14  8  1  1  0  0  0
 16 15  1  0  0  0  0
 16 12  1  0  0  0  0
 17 23  1  0  0  0  0
 19 20  2  0  0  0  0
 20 18  1  0  0  0  0
 21 18  2  0  0  0  0
 22 21  1  0  0  0  0
 23 22  2  0  0  0  0
 23 19  1  0  0  0  0
 25 19  1  0  0  0  0
 25 24  1  0  0  0  0
M  END
>  <MODEL>
6

>  <REMARK>
 VINA RESULT:      -7.6      2.689      4.254
  Name = 
  5 active torsions:
  status: ('A' for Active; 'I' for Inactive)
    1  A    between atoms: N_2  and  C_6
    2  A    between atoms: N_2  and  C_25
    3  A    between atoms: C_5  and  C_10
    4  A    between atoms: N_8  and  C_19
    5  A    between atoms: N_16  and  C_18
                            x       y       z     vdW  Elec       q    Type
                         _______ _______ _______ _____ _____    ______ ____

>  <TORSDO>
F 5

$$$$
=
 OpenBabel11062413533D

 25 27  0  0  1  0  0  0  0  0999 V2000
  186.1710  178.1530  144.9310 C   0  0  2  0  0  3  0  0  0  0  0  0
  183.6890  179.2080  144.0170 C   0  0  0  0  0  0  0  0  0  0  0  0
  183.9890  179.1480  145.4150 N   0  0  0  0  0  2  0  0  0  0  0  0
  184.9900  178.1980  145.9000 C   0  0  0  0  0  2  0  0  0  0  0  0
  184.5580  178.4870  143.0660 C   0  0  0  0  0  0  0  0  0  0  0  0
  182.6580  179.8670  143.6050 N   0  0  0  0  0  2  0  0  0  0  0  0
  185.7010  177.9460  143.5130 C   0  0  0  0  0  3  0  0  0  0  0  0
  183.2500  177.5380  141.3340 N   0  0  0  0  0  0  0  0  0  0  0  0
  184.1560  178.3520  141.6970 N   0  0  0  0  0  0  0  0  0  0  0  0
  184.1790  180.5910  138.8190 O   0  0  0  0  0  0  0  0  0  0  0  0
  181.4190  177.8960  139.7340 C   0  0  0  0  0  2  0  0  0  0  0  0
  183.3700  179.6960  138.9860 C   0  0  0  0  0  0  0  0  0  0  0  0
  183.8220  178.2700  139.0670 C   0  0  0  0  0  2  0  0  0  0  0  0
  182.8710  177.4380  139.9330 C   0  0  1  0  0  3  0  0  0  0  0  0
  181.2940  179.2550  140.0640 O   0  0  0  0  0  0  0  0  0  0  0  0
  181.8990  179.9910  139.0290 C   0  0  0  0  0  2  0  0  0  0  0  0
  187.0900  177.0950  145.3220 N   0  0  0  0  0  2  0  0  0  0  0  0
  191.3050  177.4870  145.0410 C   0  0  0  0  0  3  0  0  0  0  0  0
  189.3130  177.1410  146.3840 C   0  0  0  0  0  0  0  0  0  0  0  0
  190.7050  177.2700  146.2820 C   0  0  0  0  0  3  0  0  0  0  0  0
  190.5180  177.5730  143.8920 C   0  0  0  0  0  3  0  0  0  0  0  0
  189.1310  177.4340  143.9830 C   0  0  0  0  0  3  0  0  0  0  0  0
  188.5170  177.2060  145.2220 C   0  0  0  0  0  0  0  0  0  0  0  0
  188.7190  178.2470  148.5190 C   0  0  0  0  0  1  0  0  0  0  0  0
  188.6980  176.9470  147.7330 C   0  0  0  0  0  2  0  0  0  0  0  0
  1 17  1  1  0  0  0
  1  4  1  0  0  0  0
  2  3  1  0  0  0  0
  3  4  1  0  0  0  0
  5  7  2  0  0  0  0
  5  2  1  0  0  0  0
  6  2  2  0  0  0  0
  7  1  1  0  0  0  0
  8  9  2  0  0  0  0
  9  5  1  0  0  0  0
 10 12  2  0  0  0  0
 11 14  1  0  0  0  0
 11 15  1  0  0  0  0
 12 16  1  0  0  0  0
 12 13  1  0  0  0  0
 13 14  1  0  0  0  0
 14  8  1  1  0  0  0
 16 15  1  0  0  0  0
 18 20  1  0  0  0  0
 19 25  1  0  0  0  0
 20 19  2  0  0  0  0
 21 22  1  0  0  0  0
 21 18  2  0  0  0  0
 22 23  2  0  0  0  0
 23 17  1  0  0  0  0
 23 19  1  0  0  0  0
 25 24  1  0  0  0  0
M  END
>  <MODEL>
7

>  <REMARK>
 VINA RESULT:      -7.4      3.729      5.111
  Name = 
  5 active torsions:
  status: ('A' for Active; 'I' for Inactive)
    1  A    between atoms: N_2  and  C_6
    2  A    between atoms: N_2  and  C_25
    3  A    between atoms: C_5  and  C_10
    4  A    between atoms: N_8  and  C_19
    5  A    between atoms: N_16  and  C_18
                            x       y       z     vdW  Elec       q    Type
                         _______ _______ _______ _____ _____    ______ ____

>  <TORSDO>
F 5

$$$$
=
 OpenBabel11062413533D

 25 27  0  0  1  0  0  0  0  0999 V2000
  189.4980  177.5490  141.8040 C   0  0  2  0  0  3  0  0  0  0  0  0
  189.0540  178.4350  139.1350 C   0  0  0  0  0  0  0  0  0  0  0  0
  188.3220  179.0030  140.2260 N   0  0  0  0  0  2  0  0  0  0  0  0
  188.1800  178.2490  141.4710 C   0  0  0  0  0  2  0  0  0  0  0  0
  189.8490  177.2140  139.3640 C   0  0  0  0  0  0  0  0  0  0  0  0
  188.9930  178.9790  137.9650 N   0  0  0  0  0  2  0  0  0  0  0  0
  190.0110  176.7700  140.6180 C   0  0  0  0  0  2  0  0  0  0  0  0
  191.1470  175.4860  138.3930 N   0  0  0  0  0  2  0  0  0  0  0  0
  190.4080  176.5090  138.2470 N   0  0  0  0  0  0  0  0  0  0  0  0
  195.1580  174.8780  138.1550 O   0  0  0  0  0  0  0  0  0  0  0  0
  191.9060  175.7870  136.0750 C   0  0  0  0  0  2  0  0  0  0  0  0
  194.1660  175.0300  137.4640 C   0  0  0  0  0  0  0  0  0  0  0  0
  193.0010  174.0970  137.5930 C   0  0  0  0  0  2  0  0  0  0  0  0
  191.6890  174.8000  137.2300 C   0  0  1  0  0  3  0  0  0  0  0  0
  192.8710  176.7430  136.4340 O   0  0  0  0  0  0  0  0  0  0  0  0
  194.1220  176.0990  136.4100 C   0  0  0  0  0  2  0  0  0  0  0  0
  189.3140  176.6700  142.9490 N   0  0  0  0  0  2  0  0  0  0  0  0
  187.6540  177.8790  146.6610 C   0  0  0  0  0  3  0  0  0  0  0  0
  189.5960  177.4690  145.2620 C   0  0  0  0  0  0  0  0  0  0  0  0
  189.0390  177.8690  146.4850 C   0  0  0  0  0  3  0  0  0  0  0  0
  186.8160  177.4930  145.6140 C   0  0  0  0  0  3  0  0  0  0  0  0
  187.3620  177.1040  144.3890 C   0  0  0  0  0  3  0  0  0  0  0  0
  188.7510  177.0990  144.1960 C   0  0  0  0  0  0  0  0  0  0  0  0
  191.6810  176.3770  146.0320 C   0  0  0  0  0  1  0  0  0  0  0  0
  191.0830  177.4340  145.1190 C   0  0  0  0  0  2  0  0  0  0  0  0
  1 17  1  1  0  0  0
  2  5  1  0  0  0  0
  2  3  1  0  0  0  0
  3  4  1  0  0  0  0
  4  1  1  0  0  0  0
  5  7  1  0  0  0  0
  6  2  2  0  0  0  0
  7  1  1  0  0  0  0
  9  8  1  0  0  0  0
  9  5  2  0  0  0  0
 11 15  1  0  0  0  0
 11 14  1  0  0  0  0
 12 13  1  0  0  0  0
 12 10  2  0  0  0  0
 14 13  1  0  0  0  0
 14  8  1  1  0  0  0
 16 15  1  0  0  0  0
 16 12  1  0  0  0  0
 17 23  1  0  0  0  0
 19 20  2  0  0  0  0
 20 18  1  0  0  0  0
 21 18  2  0  0  0  0
 22 21  1  0  0  0  0
 23 22  2  0  0  0  0
 23 19  1  0  0  0  0
 25 19  1  0  0  0  0
 25 24  1  0  0  0  0
M  END
>  <MODEL>
8

>  <REMARK>
 VINA RESULT:      -7.4      2.464      3.735
  Name = 
  5 active torsions:
  status: ('A' for Active; 'I' for Inactive)
    1  A    between atoms: N_2  and  C_6
    2  A    between atoms: N_2  and  C_25
    3  A    between atoms: C_5  and  C_10
    4  A    between atoms: N_8  and  C_19
    5  A    between atoms: N_16  and  C_18
                            x       y       z     vdW  Elec       q    Type
                         _______ _______ _______ _____ _____    ______ ____

>  <TORSDO>
F 5

$$$$
=
 OpenBabel11062413533D

 25 27  0  0  1  0  0  0  0  0999 V2000
  187.1550  177.6540  144.3860 C   0  0  2  0  0  3  0  0  0  0  0  0
  184.5730  178.6830  145.0050 C   0  0  0  0  0  0  0  0  0  0  0  0
  185.4640  178.2690  146.0450 N   0  0  0  0  0  2  0  0  0  0  0  0
  186.5360  177.3200  145.7440 C   0  0  0  0  0  2  0  0  0  0  0  0
  184.8930  178.3370  143.6070 C   0  0  0  0  0  0  0  0  0  0  0  0
  183.4950  179.3310  145.2980 N   0  0  0  0  0  2  0  0  0  0  0  0
  186.0910  177.8030  143.3280 C   0  0  0  0  0  3  0  0  0  0  0  0
  184.2380  178.8300  141.3840 N   0  0  0  0  0  0  0  0  0  0  0  0
  183.9150  178.5480  142.5800 N   0  0  0  0  0  0  0  0  0  0  0  0
  182.8980  175.6290  139.2720 O   0  0  0  0  0  0  0  0  0  0  0  0
  183.8420  179.4730  139.0450 C   0  0  0  0  0  2  0  0  0  0  0  0
  183.0520  176.8340  139.1940 C   0  0  0  0  0  0  0  0  0  0  0  0
  182.3970  177.7480  140.1840 C   0  0  0  0  0  2  0  0  0  0  0  0
  183.2110  179.0310  140.3740 C   0  0  1  0  0  3  0  0  0  0  0  0
  184.6710  178.4560  138.5450 O   0  0  0  0  0  0  0  0  0  0  0  0
  183.8300  177.4370  138.0600 C   0  0  0  0  0  2  0  0  0  0  0  0
  188.1060  176.6200  144.0100 N   0  0  0  0  0  2  0  0  0  0  0  0
  191.7400  177.4720  141.9930 C   0  0  0  0  0  3  0  0  0  0  0  0
  190.5060  177.1740  144.0620 C   0  0  0  0  0  0  0  0  0  0  0  0
  191.7030  177.4520  143.3880 C   0  0  0  0  0  3  0  0  0  0  0  0
  190.5810  177.2090  141.2610 C   0  0  0  0  0  3  0  0  0  0  0  0
  189.3870  176.9190  141.9250 C   0  0  0  0  0  3  0  0  0  0  0  0
  189.3390  176.8860  143.3260 C   0  0  0  0  0  0  0  0  0  0  0  0
  191.7170  176.4910  146.1110 C   0  0  0  0  0  1  0  0  0  0  0  0
  190.4920  177.1980  145.5570 C   0  0  0  0  0  2  0  0  0  0  0  0
  1 17  1  6  0  0  0
  1  4  1  0  0  0  0
  2  6  2  0  0  0  0
  2  3  1  0  0  0  0
  4  3  1  0  0  0  0
  5  2  1  0  0  0  0
  7  5  2  0  0  0  0
  7  1  1  0  0  0  0
  8  9  2  0  0  0  0
  9  5  1  0  0  0  0
 11 14  1  0  0  0  0
 12 10  2  0  0  0  0
 12 13  1  0  0  0  0
 13 14  1  0  0  0  0
 14  8  1  1  0  0  0
 15 11  1  0  0  0  0
 16 15  1  0  0  0  0
 16 12  1  0  0  0  0
 18 20  1  0  0  0  0
 19 25  1  0  0  0  0
 20 19  2  0  0  0  0
 21 22  1  0  0  0  0
 21 18  2  0  0  0  0
 22 23  2  0  0  0  0
 23 17  1  0  0  0  0
 23 19  1  0  0  0  0
 25 24  1  0  0  0  0
M  END
>  <MODEL>
9

>  <REMARK>
 VINA RESULT:      -7.4      2.975      4.957
  Name = 
  5 active torsions:
  status: ('A' for Active; 'I' for Inactive)
    1  A    between atoms: N_2  and  C_6
    2  A    between atoms: N_2  and  C_25
    3  A    between atoms: C_5  and  C_10
    4  A    between atoms: N_8  and  C_19
    5  A    between atoms: N_16  and  C_18
                            x       y       z     vdW  Elec       q    Type
                         _______ _______ _______ _____ _____    ______ ____

>  <TORSDO>
F 5

$$$$
