=
 OpenBabel11062414213D

 45 52  0  0  1  0  0  0  0  0999 V2000
  183.4380  177.2140  138.4460 C   0  0  0  0  0  0  0  0  0  0  0  0
  182.9090  176.1220  138.5820 O   0  0  0  0  0  0  0  0  0  0  0  0
  185.6440  177.2590  137.0750 C   0  0  1  0  0  3  0  0  0  0  0  0
  183.3760  177.3140  135.8340 C   0  0  2  0  0  3  0  0  0  0  0  0
  181.8770  177.5470  135.9430 C   0  0  0  0  0  1  0  0  0  0  0  0
  183.8090  174.8420  136.1430 C   0  0  0  0  0  2  0  0  0  0  0  0
  188.1690  172.7440  135.4820 O   0  0  0  0  0  1  0  0  0  0  0  0
  185.4290  174.8330  138.0650 C   0  0  0  0  0  2  0  0  0  0  0  0
  187.6470  175.5640  137.0640 C   0  0  1  0  0  3  0  0  0  0  0  0
  183.6850  175.9830  135.1490 C   0  0  0  0  0  2  0  0  0  0  0  0
  185.9440  173.3940  136.0570 C   0  0  0  0  0  0  0  0  0  0  0  0
  184.1390  177.5710  137.1500 C   0  0  1  0  0  3  0  0  0  0  0  0
  187.9380  177.9660  137.8030 C   0  0  0  0  0  2  0  0  0  0  0  0
  188.2110  175.6860  135.6370 C   0  0  2  0  0  3  0  0  0  0  0  0
  188.3530  176.5150  138.0370 C   0  0  0  0  0  2  0  0  0  0  0  0
  185.5590  172.3060  136.4570 O   0  0  0  0  0  0  0  0  0  0  0  0
  185.2610  174.6420  136.5590 C   0  0  1  0  0  0  0  0  0  0  0  0
  187.0490  173.4430  135.0310 C   0  0  1  0  0  3  0  0  0  0  0  0
  186.4420  178.1300  138.0440 C   0  0  0  0  0  2  0  0  0  0  0  0
  187.4270  174.8660  134.5940 C   0  0  0  0  0  2  0  0  0  0  0  0
  186.1260  175.7830  137.1100 C   0  0  2  0  0  0  0  0  0  0  0  0
  190.4830  176.3760  134.8580 C   0  0  0  0  0  1  0  0  0  0  0  0
  189.6900  175.3180  135.6060 C   0  0  0  0  0  2  0  0  0  0  0  0
  183.4380  178.1750  139.6050 C   0  0  2  0  0  0  0  0  0  0  0  0
  183.3190  178.7650  143.8520 C   0  0  0  0  0  3  0  0  0  0  0  0
  184.5760  178.3730  141.8140 C   0  0  0  0  0  0  0  0  0  0  0  0
  182.1590  178.5880  141.7440 O   0  0  0  0  0  0  0  0  0  0  0  0
  180.9710  177.8010  139.8060 O   0  0  0  0  0  1  0  0  0  0  0  0
  182.7330  179.5470  139.5080 C   0  0  1  0  0  3  0  0  0  0  0  0
  184.6050  178.1750  140.4290 O   0  0  0  0  0  0  0  0  0  0  0  0
  181.9870  179.7750  138.1980 C   0  0  0  0  0  1  0  0  0  0  0  0
  184.5040  178.7570  144.5860 C   0  0  0  0  0  3  0  0  0  0  0  0
  182.1180  178.4090  140.3290 C   0  0  2  0  0  0  0  0  0  0  0  0
  185.7710  178.3660  142.5480 C   0  0  0  0  0  0  0  0  0  0  0  0
  183.3500  178.5760  142.4690 C   0  0  0  0  0  0  0  0  0  0  0  0
  185.7250  178.5580  143.9360 C   0  0  0  0  0  3  0  0  0  0  0  0
  187.0150  178.1640  141.8620 N   0  0  0  0  0  2  0  0  0  0  0  0
  187.8750  175.9830  143.1550 O   0  0  0  0  0  0  0  0  0  0  0  0
  189.1820  176.7770  141.2470 O   0  0  0  0  0  0  0  0  0  0  0  0
  188.3520  177.2060  142.4240 S   0  0  0  0  0  0  0  0  0  0  0  0
  189.3400  178.1770  143.5400 C   0  0  0  0  0  2  0  0  0  0  0  0
  191.8960  178.5930  144.2260 O   0  0  0  0  0  1  0  0  0  0  0  0
  190.9550  176.5100  144.1120 O   0  0  0  0  0  0  0  0  0  0  0  0
  189.9070  177.2890  144.6390 C   0  0  1  0  0  3  0  0  0  0  0  0
  191.3380  177.5510  144.9750 C   0  0  2  0  0  3  0  0  0  0  0  0
  1  2  2  0  0  0  0
  3 21  1  0  0  0  0
  3 12  1  0  0  0  0
  3 19  1  1  0  0  0
  4  5  1  1  0  0  0
  4 12  1  0  0  0  0
  9 21  1  0  0  0  0
  9 15  1  1  0  0  0
 10  4  1  0  0  0  0
 10  6  1  0  0  0  0
 11 16  2  0  0  0  0
 11 17  1  0  0  0  0
 12  1  1  1  0  0  0
 13 15  1  0  0  0  0
 13 19  1  0  0  0  0
 14 23  1  1  0  0  0
 14  9  1  0  0  0  0
 17  6  1  6  0  0  0
 17 21  1  0  0  0  0
 17  8  1  0  0  0  0
 18  7  1  1  0  0  0
 18 11  1  0  0  0  0
 20 18  1  0  0  0  0
 20 14  1  0  0  0  0
 21  8  1  1  0  0  0
 22 23  1  0  0  0  0
 24  1  1  6  0  0  0
 24 33  1  0  0  0  0
 24 30  1  0  0  0  0
 25 32  1  0  0  0  0
 26 35  1  0  0  0  0
 26 34  2  0  0  0  0
 27 35  1  0  0  0  0
 29 31  1  6  0  0  0
 29 24  1  0  0  0  0
 29 33  1  0  0  0  0
 30 26  1  0  0  0  0
 33 28  1  6  0  0  0
 33 27  1  0  0  0  0
 34 36  1  0  0  0  0
 35 25  2  0  0  0  0
 36 32  2  0  0  0  0
 37 40  1  0  0  0  0
 37 34  1  0  0  0  0
 39 40  2  0  0  0  0
 40 38  2  0  0  0  0
 40 41  1  0  0  0  0
 43 44  1  0  0  0  0
 43 45  1  0  0  0  0
 44 41  1  6  0  0  0
 44 45  1  0  0  0  0
 45 42  1  6  0  0  0
M  END
>  <MODEL>
1

>  <REMARK>
 VINA RESULT:      -7.3      0.000      0.000
  Name = 
  7 active torsions:
  status: ('A' for Active; 'I' for Inactive)
    1  A    between atoms: C_1  and  C_11
    2  A    between atoms: C_11  and  C_25
    3  A    between atoms: C_23  and  C_31
    4  A    between atoms: C_23  and  S_32
    5  A    between atoms: C_29  and  C_34
    6  A    between atoms: S_32  and  N_35
    7  A    between atoms: N_35  and  C_39
                            x       y       z     vdW  Elec       q    Type
                         _______ _______ _______ _____ _____    ______ ____

>  <TORSDO>
F 7

$$$$
=
 OpenBabel11062414213D

 45 52  0  0  1  0  0  0  0  0999 V2000
  181.2960  177.7910  140.0660 C   0  0  0  0  0  0  0  0  0  0  0  0
  180.8050  176.6920  140.2740 O   0  0  0  0  0  0  0  0  0  0  0  0
  182.8570  178.0780  138.0110 C   0  0  1  0  0  3  0  0  0  0  0  0
  180.2950  178.1090  137.6730 C   0  0  2  0  0  3  0  0  0  0  0  0
  178.9310  178.2470  138.3310 C   0  0  0  0  0  1  0  0  0  0  0  0
  180.8650  175.6490  137.5580 C   0  0  0  0  0  2  0  0  0  0  0  0
  184.7400  173.8660  135.1800 O   0  0  0  0  0  1  0  0  0  0  0  0
  183.0680  175.5680  138.7650 C   0  0  0  0  0  2  0  0  0  0  0  0
  184.7600  176.5070  137.1170 C   0  0  1  0  0  3  0  0  0  0  0  0
  180.3660  176.8610  136.7930 C   0  0  0  0  0  2  0  0  0  0  0  0
  182.8580  174.3370  136.5720 C   0  0  0  0  0  0  0  0  0  0  0  0
  181.4740  178.2970  138.6490 C   0  0  1  0  0  3  0  0  0  0  0  0
  185.2440  178.8500  137.9400 C   0  0  0  0  0  2  0  0  0  0  0  0
  184.7690  176.7810  135.6030 C   0  0  2  0  0  3  0  0  0  0  0  0
  185.7470  177.4100  137.8650 C   0  0  0  0  0  2  0  0  0  0  0  0
  182.6670  173.1990  136.9730 O   0  0  0  0  0  0  0  0  0  0  0  0
  182.3730  175.4970  137.4070 C   0  0  1  0  0  0  0  0  0  0  0  0
  183.5170  174.5360  135.2300 C   0  0  1  0  0  3  0  0  0  0  0  0
  183.9320  178.9070  138.7130 C   0  0  0  0  0  2  0  0  0  0  0  0
  183.6800  176.0100  134.8320 C   0  0  0  0  0  2  0  0  0  0  0  0
  183.3530  176.6340  137.7240 C   0  0  2  0  0  0  0  0  0  0  0  0
  186.8320  177.8030  134.6310 C   0  0  0  0  0  1  0  0  0  0  0  0
  186.1450  176.5020  135.0100 C   0  0  0  0  0  2  0  0  0  0  0  0
  181.7770  178.6090  141.2360 C   0  0  2  0  0  0  0  0  0  0  0  0
  183.5450  178.6930  145.1430 C   0  0  0  0  0  3  0  0  0  0  0  0
  183.7740  178.6610  142.7280 C   0  0  0  0  0  0  0  0  0  0  0  0
  181.5740  178.6470  143.7540 O   0  0  0  0  0  0  0  0  0  0  0  0
  179.6760  177.9750  142.4370 O   0  0  0  0  0  1  0  0  0  0  0  0
  181.0540  179.9070  141.6580 C   0  0  1  0  0  3  0  0  0  0  0  0
  183.1890  178.6280  141.4570 O   0  0  0  0  0  0  0  0  0  0  0  0
  179.7940  180.2100  140.8550 C   0  0  0  0  0  1  0  0  0  0  0  0
  184.9330  178.7160  145.2760 C   0  0  0  0  0  3  0  0  0  0  0  0
  180.9120  178.6270  142.4890 C   0  0  2  0  0  0  0  0  0  0  0  0
  185.1710  178.6870  142.8560 C   0  0  0  0  0  0  0  0  0  0  0  0
  182.9630  178.6680  143.8740 C   0  0  0  0  0  0  0  0  0  0  0  0
  185.7420  178.7140  144.1360 C   0  0  0  0  0  3  0  0  0  0  0  0
  185.9840  178.6870  141.6740 N   0  0  0  0  0  2  0  0  0  0  0  0
  188.0010  177.6690  140.2380 O   0  0  0  0  0  0  0  0  0  0  0  0
  188.5090  179.4620  141.8210 O   0  0  0  0  0  0  0  0  0  0  0  0
  187.6610  178.2430  141.5840 S   0  0  0  0  0  0  0  0  0  0  0  0
  188.0100  177.0150  142.8230 C   0  0  0  0  0  2  0  0  0  0  0  0
  190.1820  175.4480  142.8330 O   0  0  0  0  0  1  0  0  0  0  0  0
  189.4000  176.5140  144.7020 O   0  0  0  0  0  0  0  0  0  0  0  0
  189.1770  177.4680  143.6910 C   0  0  1  0  0  3  0  0  0  0  0  0
  190.3570  176.5540  143.6720 C   0  0  2  0  0  3  0  0  0  0  0  0
  1  2  2  0  0  0  0
  3 12  1  0  0  0  0
  3 19  1  1  0  0  0
  4  5  1  1  0  0  0
  4 12  1  0  0  0  0
  9 21  1  0  0  0  0
  9 15  1  1  0  0  0
 10  6  1  0  0  0  0
 10  4  1  0  0  0  0
 11 16  2  0  0  0  0
 11 17  1  0  0  0  0
 12  1  1  1  0  0  0
 13 19  1  0  0  0  0
 14 23  1  6  0  0  0
 14  9  1  0  0  0  0
 15 13  1  0  0  0  0
 17  6  1  6  0  0  0
 17 21  1  0  0  0  0
 17  8  1  0  0  0  0
 18  7  1  1  0  0  0
 18 11  1  0  0  0  0
 20 18  1  0  0  0  0
 20 14  1  0  0  0  0
 21  3  1  0  0  0  0
 21  8  1  1  0  0  0
 22 23  1  0  0  0  0
 24  1  1  6  0  0  0
 24 30  1  0  0  0  0
 24 29  1  0  0  0  0
 24 33  1  0  0  0  0
 25 32  1  0  0  0  0
 26 34  2  0  0  0  0
 26 35  1  0  0  0  0
 27 35  1  0  0  0  0
 29 31  1  6  0  0  0
 29 33  1  0  0  0  0
 30 26  1  0  0  0  0
 33 28  1  6  0  0  0
 33 27  1  0  0  0  0
 34 36  1  0  0  0  0
 35 25  2  0  0  0  0
 36 32  2  0  0  0  0
 37 34  1  0  0  0  0
 38 40  2  0  0  0  0
 40 37  1  0  0  0  0
 40 39  2  0  0  0  0
 40 41  1  0  0  0  0
 44 41  1  6  0  0  0
 44 43  1  0  0  0  0
 45 42  1  6  0  0  0
 45 44  1  0  0  0  0
 45 43  1  0  0  0  0
M  END
>  <MODEL>
2

>  <REMARK>
 VINA RESULT:      -7.1      1.958      2.808
  Name = 
  7 active torsions:
  status: ('A' for Active; 'I' for Inactive)
    1  A    between atoms: C_1  and  C_11
    2  A    between atoms: C_11  and  C_25
    3  A    between atoms: C_23  and  C_31
    4  A    between atoms: C_23  and  S_32
    5  A    between atoms: C_29  and  C_34
    6  A    between atoms: S_32  and  N_35
    7  A    between atoms: N_35  and  C_39
                            x       y       z     vdW  Elec       q    Type
                         _______ _______ _______ _____ _____    ______ ____

>  <TORSDO>
F 7

$$$$
=
 OpenBabel11062414213D

 45 52  0  0  1  0  0  0  0  0999 V2000
  182.9830  177.1900  138.3630 C   0  0  0  0  0  0  0  0  0  0  0  0
  182.4860  176.0900  138.5450 O   0  0  0  0  0  0  0  0  0  0  0  0
  185.1810  177.2560  136.9800 C   0  0  1  0  0  3  0  0  0  0  0  0
  182.9080  177.1760  135.7500 C   0  0  2  0  0  3  0  0  0  0  0  0
  181.4020  177.3590  135.8560 C   0  0  0  0  0  1  0  0  0  0  0  0
  183.4310  174.7370  136.1610 C   0  0  0  0  0  2  0  0  0  0  0  0
  187.8620  172.7710  135.5680 O   0  0  0  0  0  1  0  0  0  0  0  0
  185.0570  174.8690  138.0740 C   0  0  0  0  0  2  0  0  0  0  0  0
  187.2440  175.6350  137.0310 C   0  0  1  0  0  3  0  0  0  0  0  0
  183.2630  175.8290  135.1200 C   0  0  0  0  0  2  0  0  0  0  0  0
  185.6170  173.3640  136.1260 C   0  0  0  0  0  0  0  0  0  0  0  0
  183.6660  177.5170  137.0490 C   0  0  1  0  0  3  0  0  0  0  0  0
  187.4510  178.0760  137.6650 C   0  0  0  0  0  2  0  0  0  0  0  0
  187.7980  175.7160  135.5970 C   0  0  2  0  0  3  0  0  0  0  0  0
  187.9190  176.6520  137.9590 C   0  0  0  0  0  2  0  0  0  0  0  0
  185.2730  172.2810  136.5750 O   0  0  0  0  0  0  0  0  0  0  0  0
  184.8900  174.6070  136.5780 C   0  0  1  0  0  0  0  0  0  0  0  0
  186.7150  173.4090  135.0930 C   0  0  1  0  0  3  0  0  0  0  0  0
  185.9510  178.1960  137.9060 C   0  0  0  0  0  2  0  0  0  0  0  0
  187.0400  174.8240  134.5940 C   0  0  0  0  0  2  0  0  0  0  0  0
  185.7160  175.8010  137.0750 C   0  0  2  0  0  0  0  0  0  0  0  0
  190.0720  176.5850  135.0350 C   0  0  0  0  0  1  0  0  0  0  0  0
  189.2890  175.4010  135.5740 C   0  0  0  0  0  2  0  0  0  0  0  0
  182.9630  178.1960  139.4840 C   0  0  2  0  0  0  0  0  0  0  0  0
  182.4190  178.9810  143.6660 C   0  0  0  0  0  3  0  0  0  0  0  0
  183.8500  178.3560  141.8080 C   0  0  0  0  0  0  0  0  0  0  0  0
  181.5020  178.8480  141.4390 O   0  0  0  0  0  0  0  0  0  0  0  0
  180.4630  178.1200  139.3950 O   0  0  0  0  0  1  0  0  0  0  0  0
  182.4450  179.6340  139.2610 C   0  0  1  0  0  3  0  0  0  0  0  0
  184.0170  178.0960  140.4440 O   0  0  0  0  0  0  0  0  0  0  0  0
  181.8910  179.8900  137.8640 C   0  0  0  0  0  1  0  0  0  0  0  0
  183.5010  178.8670  144.5390 C   0  0  0  0  0  3  0  0  0  0  0  0
  181.6060  178.6120  140.0350 C   0  0  2  0  0  0  0  0  0  0  0  0
  184.9420  178.2430  142.6830 C   0  0  0  0  0  0  0  0  0  0  0  0
  182.5900  178.7290  142.3030 C   0  0  0  0  0  0  0  0  0  0  0  0
  184.7570  178.5000  144.0480 C   0  0  0  0  0  3  0  0  0  0  0  0
  186.2230  177.8670  142.1590 N   0  0  0  0  0  2  0  0  0  0  0  0
  187.5740  178.1020  144.4590 O   0  0  0  0  0  0  0  0  0  0  0  0
  187.7480  175.9920  143.2360 O   0  0  0  0  0  0  0  0  0  0  0  0
  187.6390  177.4840  143.0910 S   0  0  0  0  0  0  0  0  0  0  0  0
  189.0780  178.1160  142.2580 C   0  0  0  0  0  2  0  0  0  0  0  0
  191.5580  177.1080  142.3540 O   0  0  0  0  0  1  0  0  0  0  0  0
  190.5430  177.7490  140.4050 O   0  0  0  0  0  0  0  0  0  0  0  0
  189.4790  177.1770  141.1280 C   0  0  1  0  0  3  0  0  0  0  0  0
  190.8740  176.6530  141.2200 C   0  0  2  0  0  3  0  0  0  0  0  0
  1  2  2  0  0  0  0
  3 12  1  0  0  0  0
  3 21  1  0  0  0  0
  3 19  1  1  0  0  0
  4  5  1  1  0  0  0
  4 12  1  0  0  0  0
  9 21  1  0  0  0  0
  9 15  1  1  0  0  0
 10  4  1  0  0  0  0
 10  6  1  0  0  0  0
 11 16  2  0  0  0  0
 11 17  1  0  0  0  0
 12  1  1  1  0  0  0
 13 19  1  0  0  0  0
 13 15  1  0  0  0  0
 14 23  1  1  0  0  0
 14  9  1  0  0  0  0
 17  6  1  6  0  0  0
 17 21  1  0  0  0  0
 17  8  1  0  0  0  0
 18  7  1  1  0  0  0
 18 11  1  0  0  0  0
 20 18  1  0  0  0  0
 20 14  1  0  0  0  0
 21  8  1  1  0  0  0
 22 23  1  0  0  0  0
 24  1  1  6  0  0  0
 24 33  1  0  0  0  0
 24 30  1  0  0  0  0
 25 32  1  0  0  0  0
 26 35  1  0  0  0  0
 26 34  2  0  0  0  0
 27 35  1  0  0  0  0
 29 31  1  6  0  0  0
 29 24  1  0  0  0  0
 29 33  1  0  0  0  0
 30 26  1  0  0  0  0
 33 28  1  6  0  0  0
 33 27  1  0  0  0  0
 34 36  1  0  0  0  0
 35 25  2  0  0  0  0
 36 32  2  0  0  0  0
 37 34  1  0  0  0  0
 37 40  1  0  0  0  0
 40 39  2  0  0  0  0
 40 38  2  0  0  0  0
 41 40  1  0  0  0  0
 43 44  1  0  0  0  0
 43 45  1  0  0  0  0
 44 45  1  0  0  0  0
 44 41  1  1  0  0  0
 45 42  1  1  0  0  0
M  END
>  <MODEL>
3

>  <REMARK>
 VINA RESULT:      -7.0      1.022      1.306
  Name = 
  7 active torsions:
  status: ('A' for Active; 'I' for Inactive)
    1  A    between atoms: C_1  and  C_11
    2  A    between atoms: C_11  and  C_25
    3  A    between atoms: C_23  and  C_31
    4  A    between atoms: C_23  and  S_32
    5  A    between atoms: C_29  and  C_34
    6  A    between atoms: S_32  and  N_35
    7  A    between atoms: N_35  and  C_39
                            x       y       z     vdW  Elec       q    Type
                         _______ _______ _______ _____ _____    ______ ____

>  <TORSDO>
F 7

$$$$
=
 OpenBabel11062414213D

 45 52  0  0  1  0  0  0  0  0999 V2000
  188.8590  176.6650  137.9410 C   0  0  0  0  0  0  0  0  0  0  0  0
  188.2730  175.5970  137.8530 O   0  0  0  0  0  0  0  0  0  0  0  0
  191.3020  176.5230  137.0730 C   0  0  1  0  0  3  0  0  0  0  0  0
  189.4030  177.1280  135.4270 C   0  0  2  0  0  3  0  0  0  0  0  0
  187.9640  177.5940  135.2680 C   0  0  0  0  0  1  0  0  0  0  0  0
  189.4160  174.6000  135.3930 C   0  0  0  0  0  2  0  0  0  0  0  0
  193.4880  171.9060  135.2820 O   0  0  0  0  0  1  0  0  0  0  0  0
  190.5430  174.0560  137.5740 C   0  0  0  0  0  2  0  0  0  0  0  0
  193.0080  174.5310  137.1800 C   0  0  1  0  0  3  0  0  0  0  0  0
  189.6760  175.8700  134.6030 C   0  0  0  0  0  2  0  0  0  0  0  0
  191.2990  172.8380  135.4970 C   0  0  0  0  0  0  0  0  0  0  0  0
  189.8760  177.0720  136.8940 C   0  0  1  0  0  3  0  0  0  0  0  0
  193.4470  176.7270  138.3590 C   0  0  0  0  0  2  0  0  0  0  0  0
  193.8910  174.7490  135.9380 C   0  0  2  0  0  3  0  0  0  0  0  0
  193.5980  175.2090  138.4230 C   0  0  0  0  0  2  0  0  0  0  0  0
  190.6900  171.7860  135.6210 O   0  0  0  0  0  0  0  0  0  0  0  0
  190.6950  174.1030  136.0540 C   0  0  1  0  0  0  0  0  0  0  0  0
  192.6030  172.8380  134.7390 C   0  0  1  0  0  3  0  0  0  0  0  0
  191.9720  177.1060  138.3160 C   0  0  0  0  0  2  0  0  0  0  0  0
  193.2590  174.2230  134.6350 C   0  0  0  0  0  2  0  0  0  0  0  0
  191.5600  174.9950  136.9540 C   0  0  2  0  0  0  0  0  0  0  0  0
  196.3460  175.2100  135.9920 C   0  0  0  0  0  1  0  0  0  0  0  0
  195.2750  174.1450  136.1460 C   0  0  0  0  0  2  0  0  0  0  0  0
  188.6010  177.5420  139.1380 C   0  0  2  0  0  0  0  0  0  0  0  0
  186.3260  178.2740  142.6990 C   0  0  0  0  0  3  0  0  0  0  0  0
  188.2080  177.2310  141.5800 C   0  0  0  0  0  0  0  0  0  0  0  0
  186.6530  178.6180  140.3340 O   0  0  0  0  0  0  0  0  0  0  0  0
  186.6040  178.4530  137.9350 O   0  0  0  0  0  1  0  0  0  0  0  0
  188.7490  179.0780  139.0510 C   0  0  1  0  0  3  0  0  0  0  0  0
  188.9420  176.9930  140.4120 O   0  0  0  0  0  0  0  0  0  0  0  0
  189.0780  179.5970  137.6560 C   0  0  0  0  0  1  0  0  0  0  0  0
  186.7270  177.7050  143.9080 C   0  0  0  0  0  3  0  0  0  0  0  0
  187.3620  178.4280  139.1110 C   0  0  2  0  0  0  0  0  0  0  0  0
  188.6180  176.6590  142.7940 C   0  0  0  0  0  0  0  0  0  0  0  0
  187.0630  178.0420  141.5360 C   0  0  0  0  0  0  0  0  0  0  0  0
  187.8690  176.9010  143.9540 C   0  0  0  0  0  3  0  0  0  0  0  0
  189.7950  175.8390  142.8210 N   0  0  0  0  0  2  0  0  0  0  0  0
  192.0410  174.9390  143.9660 O   0  0  0  0  0  0  0  0  0  0  0  0
  192.1240  177.0940  142.8140 O   0  0  0  0  0  0  0  0  0  0  0  0
  191.2720  176.1930  143.6640 S   0  0  0  0  0  0  0  0  0  0  0  0
  190.8890  177.0000  145.2030 C   0  0  0  0  0  2  0  0  0  0  0  0
  189.8150  177.3940  147.6250 O   0  0  0  0  0  1  0  0  0  0  0  0
  192.0640  177.1470  147.2790 O   0  0  0  0  0  0  0  0  0  0  0  0
  191.5130  176.2330  146.3620 C   0  0  1  0  0  3  0  0  0  0  0  0
  190.8870  176.4970  147.6910 C   0  0  2  0  0  3  0  0  0  0  0  0
  2  1  2  0  0  0  0
  3 19  1  1  0  0  0
  4  5  1  1  0  0  0
  4 12  1  0  0  0  0
  9 15  1  1  0  0  0
 10  6  1  0  0  0  0
 10  4  1  0  0  0  0
 11 16  2  0  0  0  0
 11 17  1  0  0  0  0
 12  3  1  0  0  0  0
 12  1  1  1  0  0  0
 13 15  1  0  0  0  0
 14 23  1  1  0  0  0
 14  9  1  0  0  0  0
 17  6  1  6  0  0  0
 17 21  1  0  0  0  0
 17  8  1  0  0  0  0
 18  7  1  1  0  0  0
 18 11  1  0  0  0  0
 19 13  1  0  0  0  0
 20 18  1  0  0  0  0
 20 14  1  0  0  0  0
 21  3  1  0  0  0  0
 21  9  1  0  0  0  0
 21  8  1  1  0  0  0
 22 23  1  0  0  0  0
 24  1  1  6  0  0  0
 24 30  1  0  0  0  0
 25 32  1  0  0  0  0
 26 34  2  0  0  0  0
 27 35  1  0  0  0  0
 29 31  1  6  0  0  0
 29 33  1  0  0  0  0
 29 24  1  0  0  0  0
 30 26  1  0  0  0  0
 32 36  2  0  0  0  0
 33 28  1  6  0  0  0
 33 24  1  0  0  0  0
 33 27  1  0  0  0  0
 34 37  1  0  0  0  0
 34 36  1  0  0  0  0
 35 26  1  0  0  0  0
 35 25  2  0  0  0  0
 37 40  1  0  0  0  0
 39 40  2  0  0  0  0
 40 38  2  0  0  0  0
 40 41  1  0  0  0  0
 43 45  1  0  0  0  0
 44 41  1  6  0  0  0
 44 43  1  0  0  0  0
 44 45  1  0  0  0  0
 45 42  1  6  0  0  0
M  END
>  <MODEL>
4

>  <REMARK>
 VINA RESULT:      -6.9      3.356      5.001
  Name = 
  7 active torsions:
  status: ('A' for Active; 'I' for Inactive)
    1  A    between atoms: C_1  and  C_11
    2  A    between atoms: C_11  and  C_25
    3  A    between atoms: C_23  and  C_31
    4  A    between atoms: C_23  and  S_32
    5  A    between atoms: C_29  and  C_34
    6  A    between atoms: S_32  and  N_35
    7  A    between atoms: N_35  and  C_39
                            x       y       z     vdW  Elec       q    Type
                         _______ _______ _______ _____ _____    ______ ____

>  <TORSDO>
F 7

$$$$
=
 OpenBabel11062414213D

 45 52  0  0  1  0  0  0  0  0999 V2000
  183.6000  174.7330  135.8240 C   0  0  0  0  0  0  0  0  0  0  0  0
  183.6770  175.1960  134.6970 O   0  0  0  0  0  0  0  0  0  0  0  0
  182.1170  175.9020  137.6070 C   0  0  1  0  0  3  0  0  0  0  0  0
  181.0040  174.4320  135.7950 C   0  0  2  0  0  3  0  0  0  0  0  0
  181.2040  173.3670  134.7270 C   0  0  0  0  0  1  0  0  0  0  0  0
  181.1700  176.6960  134.6830 C   0  0  0  0  0  2  0  0  0  0  0  0
  180.1770  180.9110  136.9410 O   0  0  0  0  0  1  0  0  0  0  0  0
  183.0000  177.7950  136.0100 C   0  0  0  0  0  2  0  0  0  0  0  0
  181.9180  178.4470  138.2150 C   0  0  1  0  0  3  0  0  0  0  0  0
  180.2400  175.6360  135.2450 C   0  0  0  0  0  2  0  0  0  0  0  0
  180.9010  179.1150  135.5430 C   0  0  0  0  0  0  0  0  0  0  0  0
  182.2880  174.7680  136.5810 C   0  0  1  0  0  3  0  0  0  0  0  0
  182.7550  176.7400  139.8840 C   0  0  0  0  0  2  0  0  0  0  0  0
  180.4700  178.5820  138.7200 C   0  0  2  0  0  3  0  0  0  0  0  0
  182.8970  178.1670  139.3620 C   0  0  0  0  0  2  0  0  0  0  0  0
  181.2680  179.7910  134.5940 O   0  0  0  0  0  0  0  0  0  0  0  0
  181.4970  177.7440  135.7390 C   0  0  1  0  0  0  0  0  0  0  0  0
  179.8200  179.6560  136.4460 C   0  0  1  0  0  3  0  0  0  0  0  0
  183.0830  175.7420  138.7800 C   0  0  0  0  0  2  0  0  0  0  0  0
  179.4330  178.7040  137.5880 C   0  0  0  0  0  2  0  0  0  0  0  0
  182.0550  177.3760  137.1200 C   0  0  2  0  0  0  0  0  0  0  0  0
  179.7940  179.2690  141.0260 C   0  0  0  0  0  1  0  0  0  0  0  0
  180.3430  179.7480  139.6930 C   0  0  0  0  0  2  0  0  0  0  0  0
  184.8430  174.1820  136.4730 C   0  0  2  0  0  0  0  0  0  0  0  0
  189.0990  173.6650  136.3460 C   0  0  0  0  0  3  0  0  0  0  0  0
  187.1540  174.9790  136.9610 C   0  0  0  0  0  0  0  0  0  0  0  0
  186.8890  172.8370  135.8500 O   0  0  0  0  0  0  0  0  0  0  0  0
  184.7840  172.3140  134.8090 O   0  0  0  0  0  1  0  0  0  0  0  0
  184.8160  172.8470  137.2490 C   0  0  1  0  0  3  0  0  0  0  0  0
  185.7650  175.1420  136.9930 O   0  0  0  0  0  0  0  0  0  0  0  0
  183.4740  172.1260  137.2090 C   0  0  0  0  0  1  0  0  0  0  0  0
  189.9330  174.6470  136.8800 C   0  0  0  0  0  3  0  0  0  0  0  0
  185.4650  172.9330  135.8640 C   0  0  2  0  0  0  0  0  0  0  0  0
  187.9890  175.9680  137.5020 C   0  0  0  0  0  0  0  0  0  0  0  0
  187.7130  173.8260  136.3860 C   0  0  0  0  0  0  0  0  0  0  0  0
  189.3790  175.7930  137.4560 C   0  0  0  0  0  3  0  0  0  0  0  0
  187.4010  177.1370  138.0920 N   0  0  0  0  0  2  0  0  0  0  0  0
  189.0320  179.1630  138.7240 O   0  0  0  0  0  0  0  0  0  0  0  0
  187.0270  178.8360  140.0840 O   0  0  0  0  0  0  0  0  0  0  0  0
  188.1160  178.1340  139.3220 S   0  0  0  0  0  0  0  0  0  0  0  0
  189.0650  177.1120  140.4270 C   0  0  0  0  0  2  0  0  0  0  0  0
  190.1890  175.6380  142.3600 O   0  0  0  0  0  1  0  0  0  0  0  0
  188.2300  176.7870  142.6430 O   0  0  0  0  0  0  0  0  0  0  0  0
  188.9860  177.6660  141.8440 C   0  0  1  0  0  3  0  0  0  0  0  0
  189.6150  176.8010  142.8850 C   0  0  2  0  0  3  0  0  0  0  0  0
  2  1  2  0  0  0  0
  3 19  1  1  0  0  0
  4  5  1  6  0  0  0
  4 12  1  0  0  0  0
  6 10  1  0  0  0  0
  9 14  1  0  0  0  0
  9 15  1  1  0  0  0
 10  4  1  0  0  0  0
 11 17  1  0  0  0  0
 11 18  1  0  0  0  0
 12  1  1  6  0  0  0
 12  3  1  0  0  0  0
 14 23  1  1  0  0  0
 15 13  1  0  0  0  0
 16 11  2  0  0  0  0
 17  6  1  6  0  0  0
 17  8  1  0  0  0  0
 17 21  1  0  0  0  0
 18  7  1  1  0  0  0
 18 20  1  0  0  0  0
 19 13  1  0  0  0  0
 20 14  1  0  0  0  0
 21  8  1  6  0  0  0
 21  3  1  0  0  0  0
 21  9  1  0  0  0  0
 23 22  1  0  0  0  0
 24  1  1  6  0  0  0
 24 30  1  0  0  0  0
 24 29  1  0  0  0  0
 25 35  2  0  0  0  0
 25 32  1  0  0  0  0
 26 30  1  0  0  0  0
 26 34  2  0  0  0  0
 27 33  1  0  0  0  0
 27 35  1  0  0  0  0
 29 31  1  6  0  0  0
 32 36  2  0  0  0  0
 33 28  1  6  0  0  0
 33 24  1  0  0  0  0
 33 29  1  0  0  0  0
 34 37  1  0  0  0  0
 35 26  1  0  0  0  0
 36 34  1  0  0  0  0
 37 40  1  0  0  0  0
 38 40  2  0  0  0  0
 40 39  2  0  0  0  0
 40 41  1  0  0  0  0
 43 45  1  0  0  0  0
 44 41  1  6  0  0  0
 44 43  1  0  0  0  0
 44 45  1  0  0  0  0
 45 42  1  6  0  0  0
M  END
>  <MODEL>
5

>  <REMARK>
 VINA RESULT:      -6.5      2.513      6.770
  Name = 
  7 active torsions:
  status: ('A' for Active; 'I' for Inactive)
    1  A    between atoms: C_1  and  C_11
    2  A    between atoms: C_11  and  C_25
    3  A    between atoms: C_23  and  C_31
    4  A    between atoms: C_23  and  S_32
    5  A    between atoms: C_29  and  C_34
    6  A    between atoms: S_32  and  N_35
    7  A    between atoms: N_35  and  C_39
                            x       y       z     vdW  Elec       q    Type
                         _______ _______ _______ _____ _____    ______ ____

>  <TORSDO>
F 7

$$$$
=
 OpenBabel11062414213D

 45 52  0  0  1  0  0  0  0  0999 V2000
  183.2720  177.0050  138.1620 C   0  0  0  0  0  0  0  0  0  0  0  0
  182.8620  175.8760  138.3810 O   0  0  0  0  0  0  0  0  0  0  0  0
  185.5060  177.1450  136.8430 C   0  0  1  0  0  3  0  0  0  0  0  0
  183.2800  176.9060  135.5500 C   0  0  2  0  0  3  0  0  0  0  0  0
  181.7640  177.0120  135.6050 C   0  0  0  0  0  1  0  0  0  0  0  0
  183.9170  174.5120  136.0550 C   0  0  0  0  0  2  0  0  0  0  0  0
  188.4610  172.7670  135.6580 O   0  0  0  0  0  1  0  0  0  0  0  0
  185.4730  174.7890  138.0100 C   0  0  0  0  0  2  0  0  0  0  0  0
  187.6480  175.6380  137.0080 C   0  0  1  0  0  3  0  0  0  0  0  0
  183.7240  175.5610  134.9750 C   0  0  0  0  0  2  0  0  0  0  0  0
  186.1710  173.2570  136.1300 C   0  0  0  0  0  0  0  0  0  0  0  0
  183.9780  177.3270  136.8590 C   0  0  1  0  0  3  0  0  0  0  0  0
  187.7070  178.1050  137.5690 C   0  0  0  0  0  2  0  0  0  0  0  0
  188.2420  175.7040  135.5900 C   0  0  2  0  0  3  0  0  0  0  0  0
  188.2390  176.7180  137.9220 C   0  0  0  0  0  2  0  0  0  0  0  0
  185.8700  172.1720  136.6020 O   0  0  0  0  0  0  0  0  0  0  0  0
  185.3670  174.4730  136.5190 C   0  0  1  0  0  0  0  0  0  0  0  0
  187.2980  173.3280  135.1290 C   0  0  1  0  0  3  0  0  0  0  0  0
  186.1960  178.1520  137.7610 C   0  0  0  0  0  2  0  0  0  0  0  0
  187.5630  174.7430  134.5940 C   0  0  0  0  0  2  0  0  0  0  0  0
  186.1130  175.7230  137.0010 C   0  0  2  0  0  0  0  0  0  0  0  0
  190.4510  176.4060  134.6550 C   0  0  0  0  0  1  0  0  0  0  0  0
  189.7480  175.4680  135.6210 C   0  0  0  0  0  2  0  0  0  0  0  0
  183.1220  178.0560  139.2300 C   0  0  2  0  0  0  0  0  0  0  0  0
  182.3890  178.9860  143.3520 C   0  0  0  0  0  3  0  0  0  0  0  0
  183.9240  178.4180  141.5620 C   0  0  0  0  0  0  0  0  0  0  0  0
  181.5500  178.6530  141.1150 O   0  0  0  0  0  0  0  0  0  0  0  0
  180.6450  177.7260  139.0880 O   0  0  0  0  0  1  0  0  0  0  0  0
  182.4710  179.4230  138.9220 C   0  0  1  0  0  3  0  0  0  0  0  0
  184.1540  178.1100  140.2160 O   0  0  0  0  0  0  0  0  0  0  0  0
  181.9320  179.5530  137.5020 C   0  0  0  0  0  1  0  0  0  0  0  0
  183.4520  179.0230  144.2540 C   0  0  0  0  0  3  0  0  0  0  0  0
  181.7160  178.3610  139.7280 C   0  0  2  0  0  0  0  0  0  0  0  0
  184.9980  178.4570  142.4650 C   0  0  0  0  0  0  0  0  0  0  0  0
  182.6210  178.6860  142.0080 C   0  0  0  0  0  0  0  0  0  0  0  0
  184.7510  178.7600  143.8110 C   0  0  0  0  0  3  0  0  0  0  0  0
  186.3240  178.1860  141.9900 N   0  0  0  0  0  2  0  0  0  0  0  0
  187.7980  176.1110  142.8190 O   0  0  0  0  0  0  0  0  0  0  0  0
  188.9250  178.2530  142.4720 O   0  0  0  0  0  0  0  0  0  0  0  0
  187.6550  177.6010  142.9430 S   0  0  0  0  0  0  0  0  0  0  0  0
  187.3690  177.9970  144.6530 C   0  0  0  0  0  2  0  0  0  0  0  0
  186.9710  178.0870  147.3010 O   0  0  0  0  0  1  0  0  0  0  0  0
  189.0400  178.2740  146.3400 O   0  0  0  0  0  0  0  0  0  0  0  0
  188.4130  177.3120  145.5260 C   0  0  1  0  0  3  0  0  0  0  0  0
  188.1520  177.4020  146.9940 C   0  0  2  0  0  3  0  0  0  0  0  0
  1  2  2  0  0  0  0
  3 12  1  0  0  0  0
  3 21  1  0  0  0  0
  3 19  1  1  0  0  0
  4  5  1  1  0  0  0
  4 12  1  0  0  0  0
  9 15  1  1  0  0  0
 10  4  1  0  0  0  0
 10  6  1  0  0  0  0
 11 17  1  0  0  0  0
 11 16  2  0  0  0  0
 12  1  1  1  0  0  0
 13 19  1  0  0  0  0
 13 15  1  0  0  0  0
 14 23  1  1  0  0  0
 14  9  1  0  0  0  0
 17  6  1  6  0  0  0
 17 21  1  0  0  0  0
 17  8  1  0  0  0  0
 18  7  1  1  0  0  0
 18 11  1  0  0  0  0
 20 18  1  0  0  0  0
 20 14  1  0  0  0  0
 21  9  1  0  0  0  0
 21  8  1  1  0  0  0
 22 23  1  0  0  0  0
 24  1  1  6  0  0  0
 24 33  1  0  0  0  0
 24 30  1  0  0  0  0
 25 32  1  0  0  0  0
 26 35  1  0  0  0  0
 26 34  2  0  0  0  0
 27 35  1  0  0  0  0
 29 31  1  6  0  0  0
 29 24  1  0  0  0  0
 29 33  1  0  0  0  0
 30 26  1  0  0  0  0
 33 28  1  6  0  0  0
 33 27  1  0  0  0  0
 34 36  1  0  0  0  0
 35 25  2  0  0  0  0
 36 32  2  0  0  0  0
 37 34  1  0  0  0  0
 37 40  1  0  0  0  0
 38 40  2  0  0  0  0
 39 40  2  0  0  0  0
 40 41  1  0  0  0  0
 43 45  1  0  0  0  0
 44 41  1  6  0  0  0
 44 43  1  0  0  0  0
 44 45  1  0  0  0  0
 45 42  1  6  0  0  0
M  END
>  <MODEL>
6

>  <REMARK>
 VINA RESULT:      -6.5      1.196      1.371
  Name = 
  7 active torsions:
  status: ('A' for Active; 'I' for Inactive)
    1  A    between atoms: C_1  and  C_11
    2  A    between atoms: C_11  and  C_25
    3  A    between atoms: C_23  and  C_31
    4  A    between atoms: C_23  and  S_32
    5  A    between atoms: C_29  and  C_34
    6  A    between atoms: S_32  and  N_35
    7  A    between atoms: N_35  and  C_39
                            x       y       z     vdW  Elec       q    Type
                         _______ _______ _______ _____ _____    ______ ____

>  <TORSDO>
F 7

$$$$
=
 OpenBabel11062414213D

 45 52  0  0  1  0  0  0  0  0999 V2000
  183.2960  177.0930  137.0570 C   0  0  0  0  0  0  0  0  0  0  0  0
  183.0140  177.9800  136.2670 O   0  0  0  0  0  0  0  0  0  0  0  0
  182.1780  177.2610  139.3960 C   0  0  1  0  0  3  0  0  0  0  0  0
  180.8830  176.1650  137.4440 C   0  0  2  0  0  3  0  0  0  0  0  0
  180.9640  175.5550  136.0540 C   0  0  0  0  0  1  0  0  0  0  0  0
  180.3450  178.6230  137.1900 C   0  0  0  0  0  2  0  0  0  0  0  0
  179.2940  181.5750  140.9360 O   0  0  0  0  0  1  0  0  0  0  0  0
  182.2500  179.7030  138.4250 C   0  0  0  0  0  2  0  0  0  0  0  0
  181.7160  179.3700  140.8870 C   0  0  1  0  0  3  0  0  0  0  0  0
  179.8020  177.2440  137.5170 C   0  0  0  0  0  2  0  0  0  0  0  0
  179.9070  180.5240  138.8810 C   0  0  0  0  0  0  0  0  0  0  0  0
  182.2550  176.5670  138.0250 C   0  0  1  0  0  3  0  0  0  0  0  0
  183.2590  177.5140  141.6460 C   0  0  0  0  0  2  0  0  0  0  0  0
  180.4610  178.9760  141.6860 C   0  0  2  0  0  3  0  0  0  0  0  0
  183.0030  179.0200  141.6410 C   0  0  0  0  0  2  0  0  0  0  0  0
  179.8790  181.5210  138.1770 O   0  0  0  0  0  0  0  0  0  0  0  0
  180.7630  179.3550  138.4590 C   0  0  1  0  0  0  0  0  0  0  0  0
  179.0380  180.4770  140.1140 C   0  0  1  0  0  3  0  0  0  0  0  0
  183.4400  177.0090  140.2190 C   0  0  0  0  0  2  0  0  0  0  0  0
  179.1480  179.1630  140.9000 C   0  0  0  0  0  2  0  0  0  0  0  0
  181.7320  178.7470  139.4820 C   0  0  2  0  0  0  0  0  0  0  0  0
  179.4530  179.0350  143.9710 C   0  0  0  0  0  1  0  0  0  0  0  0
  180.4040  179.7270  143.0110 C   0  0  0  0  0  2  0  0  0  0  0  0
  184.7100  176.5750  137.0990 C   0  0  2  0  0  0  0  0  0  0  0  0
  188.8550  177.2130  136.2000 C   0  0  0  0  0  3  0  0  0  0  0  0
  186.9620  177.4580  137.6980 C   0  0  0  0  0  0  0  0  0  0  0  0
  186.7020  176.3320  135.5640 O   0  0  0  0  0  0  0  0  0  0  0  0
  184.4910  176.0260  134.6670 O   0  0  0  0  0  1  0  0  0  0  0  0
  185.0170  175.0720  136.9140 C   0  0  1  0  0  3  0  0  0  0  0  0
  185.6070  177.2510  137.9810 O   0  0  0  0  0  0  0  0  0  0  0  0
  183.7930  174.2170  136.6040 C   0  0  0  0  0  1  0  0  0  0  0  0
  189.6680  177.8790  137.1170 C   0  0  0  0  0  3  0  0  0  0  0  0
  185.3170  176.0740  135.7950 C   0  0  2  0  0  0  0  0  0  0  0  0
  187.7770  178.1260  138.6250 C   0  0  0  0  0  0  0  0  0  0  0  0
  187.5050  177.0000  136.4870 C   0  0  0  0  0  0  0  0  0  0  0  0
  189.1310  178.3320  138.3250 C   0  0  0  0  0  3  0  0  0  0  0  0
  187.2070  178.5810  139.8610 N   0  0  0  0  0  2  0  0  0  0  0  0
  188.5860  176.9830  141.5090 O   0  0  0  0  0  0  0  0  0  0  0  0
  188.7790  179.4000  141.8240 O   0  0  0  0  0  0  0  0  0  0  0  0
  187.8410  178.2870  141.4520 S   0  0  0  0  0  0  0  0  0  0  0  0
  186.4960  178.2160  142.6140 C   0  0  0  0  0  2  0  0  0  0  0  0
  185.6450  178.8910  145.0630 O   0  0  0  0  0  1  0  0  0  0  0  0
  187.6750  177.9090  144.6700 O   0  0  0  0  0  0  0  0  0  0  0  0
  186.8370  177.2560  143.7460 C   0  0  1  0  0  3  0  0  0  0  0  0
  186.3530  177.6840  145.0920 C   0  0  2  0  0  3  0  0  0  0  0  0
  2  1  2  0  0  0  0
  3 21  1  0  0  0  0
  3 19  1  6  0  0  0
  4  5  1  6  0  0  0
  4 10  1  0  0  0  0
  4 12  1  0  0  0  0
  6 10  1  0  0  0  0
  8 17  1  0  0  0  0
  9 15  1  1  0  0  0
  9 14  1  0  0  0  0
 11 18  1  0  0  0  0
 12  1  1  6  0  0  0
 12  3  1  0  0  0  0
 14 23  1  1  0  0  0
 15 13  1  0  0  0  0
 16 11  2  0  0  0  0
 17  6  1  6  0  0  0
 17 11  1  0  0  0  0
 17 21  1  0  0  0  0
 18 20  1  0  0  0  0
 18  7  1  1  0  0  0
 19 13  1  0  0  0  0
 20 14  1  0  0  0  0
 21  8  1  6  0  0  0
 21  9  1  0  0  0  0
 23 22  1  0  0  0  0
 24  1  1  6  0  0  0
 24 30  1  0  0  0  0
 25 35  2  0  0  0  0
 25 32  1  0  0  0  0
 26 30  1  0  0  0  0
 26 34  2  0  0  0  0
 27 33  1  0  0  0  0
 27 35  1  0  0  0  0
 29 31  1  6  0  0  0
 29 24  1  0  0  0  0
 32 36  2  0  0  0  0
 33 28  1  6  0  0  0
 33 29  1  0  0  0  0
 33 24  1  0  0  0  0
 34 37  1  0  0  0  0
 35 26  1  0  0  0  0
 36 34  1  0  0  0  0
 37 40  1  0  0  0  0
 40 38  2  0  0  0  0
 40 39  2  0  0  0  0
 40 41  1  0  0  0  0
 43 45  1  0  0  0  0
 44 41  1  6  0  0  0
 44 43  1  0  0  0  0
 44 45  1  0  0  0  0
 45 42  1  6  0  0  0
M  END
>  <MODEL>
7

>  <REMARK>
 VINA RESULT:      -6.3      2.322      6.967
  Name = 
  7 active torsions:
  status: ('A' for Active; 'I' for Inactive)
    1  A    between atoms: C_1  and  C_11
    2  A    between atoms: C_11  and  C_25
    3  A    between atoms: C_23  and  C_31
    4  A    between atoms: C_23  and  S_32
    5  A    between atoms: C_29  and  C_34
    6  A    between atoms: S_32  and  N_35
    7  A    between atoms: N_35  and  C_39
                            x       y       z     vdW  Elec       q    Type
                         _______ _______ _______ _____ _____    ______ ____

>  <TORSDO>
F 7

$$$$
=
 OpenBabel11062414213D

 45 52  0  0  1  0  0  0  0  0999 V2000
  183.2660  177.0350  136.9510 C   0  0  0  0  0  0  0  0  0  0  0  0
  182.9790  177.8970  136.1350 O   0  0  0  0  0  0  0  0  0  0  0  0
  182.1680  177.2380  139.2960 C   0  0  1  0  0  3  0  0  0  0  0  0
  180.8470  176.1360  137.3670 C   0  0  2  0  0  3  0  0  0  0  0  0
  180.9110  175.5100  135.9820 C   0  0  0  0  0  1  0  0  0  0  0  0
  180.3320  178.5960  137.0910 C   0  0  0  0  0  2  0  0  0  0  0  0
  179.3410  181.5980  140.8130 O   0  0  0  0  0  1  0  0  0  0  0  0
  182.2570  179.6690  138.2990 C   0  0  0  0  0  2  0  0  0  0  0  0
  181.7390  179.3690  140.7680 C   0  0  1  0  0  3  0  0  0  0  0  0
  179.7770  177.2260  137.4370 C   0  0  0  0  0  2  0  0  0  0  0  0
  179.9270  180.5190  138.7640 C   0  0  0  0  0  0  0  0  0  0  0  0
  182.2270  176.5290  137.9320 C   0  0  1  0  0  3  0  0  0  0  0  0
  183.2690  177.5050  141.5350 C   0  0  0  0  0  2  0  0  0  0  0  0
  180.4860  178.9960  141.5810 C   0  0  2  0  0  3  0  0  0  0  0  0
  183.0290  179.0130  141.5160 C   0  0  0  0  0  2  0  0  0  0  0  0
  179.9030  181.5090  138.0500 O   0  0  0  0  0  0  0  0  0  0  0  0
  180.7670  179.3370  138.3480 C   0  0  1  0  0  0  0  0  0  0  0  0
  179.0670  180.4950  140.0040 C   0  0  1  0  0  3  0  0  0  0  0  0
  183.4330  176.9820  140.1130 C   0  0  0  0  0  2  0  0  0  0  0  0
  179.1690  179.1880  140.8040 C   0  0  0  0  0  2  0  0  0  0  0  0
  181.7370  178.7300  139.3700 C   0  0  2  0  0  0  0  0  0  0  0  0
  179.7490  178.9400  143.9680 C   0  0  0  0  0  1  0  0  0  0  0  0
  180.4480  179.7610  142.8990 C   0  0  0  0  0  2  0  0  0  0  0  0
  184.6830  176.5270  137.0090 C   0  0  2  0  0  0  0  0  0  0  0  0
  188.8250  177.1680  136.0980 C   0  0  0  0  0  3  0  0  0  0  0  0
  186.9280  177.4430  137.5860 C   0  0  0  0  0  0  0  0  0  0  0  0
  186.6780  176.2540  135.4840 O   0  0  0  0  0  0  0  0  0  0  0  0
  184.4710  175.9070  134.5940 O   0  0  0  0  0  1  0  0  0  0  0  0
  185.0000  175.0220  136.8680 C   0  0  1  0  0  3  0  0  0  0  0  0
  185.5750  177.2340  137.8730 O   0  0  0  0  0  0  0  0  0  0  0  0
  183.7830  174.1500  136.5810 C   0  0  0  0  0  1  0  0  0  0  0  0
  189.6320  177.8650  136.9960 C   0  0  0  0  0  3  0  0  0  0  0  0
  185.2960  175.9940  135.7210 C   0  0  2  0  0  0  0  0  0  0  0  0
  187.7380  178.1420  138.4940 C   0  0  0  0  0  0  0  0  0  0  0  0
  187.4760  176.9540  136.3890 C   0  0  0  0  0  0  0  0  0  0  0  0
  189.0900  178.3490  138.1900 C   0  0  0  0  0  3  0  0  0  0  0  0
  187.1630  178.6290  139.7150 N   0  0  0  0  0  2  0  0  0  0  0  0
  188.5610  179.6270  141.7690 O   0  0  0  0  0  0  0  0  0  0  0  0
  186.6840  178.1430  142.2710 O   0  0  0  0  0  0  0  0  0  0  0  0
  187.8110  178.4080  141.3130 S   0  0  0  0  0  0  0  0  0  0  0  0
  188.9340  177.0280  141.3040 C   0  0  0  0  0  2  0  0  0  0  0  0
  191.3180  177.4620  142.4450 O   0  0  0  0  0  1  0  0  0  0  0  0
  190.1330  175.5230  142.7210 O   0  0  0  0  0  0  0  0  0  0  0  0
  189.1210  176.5010  142.7210 C   0  0  1  0  0  3  0  0  0  0  0  0
  190.4700  176.7570  143.3060 C   0  0  2  0  0  3  0  0  0  0  0  0
  2  1  2  0  0  0  0
  3 21  1  0  0  0  0
  3 19  1  6  0  0  0
  4  5  1  6  0  0  0
  4 10  1  0  0  0  0
  4 12  1  0  0  0  0
  6 10  1  0  0  0  0
  8 17  1  0  0  0  0
  9 15  1  1  0  0  0
  9 14  1  0  0  0  0
 11 18  1  0  0  0  0
 12  1  1  6  0  0  0
 12  3  1  0  0  0  0
 14 23  1  1  0  0  0
 15 13  1  0  0  0  0
 16 11  2  0  0  0  0
 17  6  1  6  0  0  0
 17 11  1  0  0  0  0
 17 21  1  0  0  0  0
 18 20  1  0  0  0  0
 18  7  1  1  0  0  0
 19 13  1  0  0  0  0
 20 14  1  0  0  0  0
 21  8  1  6  0  0  0
 21  9  1  0  0  0  0
 23 22  1  0  0  0  0
 24  1  1  6  0  0  0
 24 30  1  0  0  0  0
 25 35  2  0  0  0  0
 25 32  1  0  0  0  0
 26 30  1  0  0  0  0
 26 34  2  0  0  0  0
 27 33  1  0  0  0  0
 27 35  1  0  0  0  0
 29 31  1  6  0  0  0
 29 24  1  0  0  0  0
 32 36  2  0  0  0  0
 33 28  1  6  0  0  0
 33 29  1  0  0  0  0
 33 24  1  0  0  0  0
 34 37  1  0  0  0  0
 35 26  1  0  0  0  0
 36 34  1  0  0  0  0
 37 40  1  0  0  0  0
 40 38  2  0  0  0  0
 40 39  2  0  0  0  0
 41 40  1  0  0  0  0
 43 44  1  0  0  0  0
 43 45  1  0  0  0  0
 44 41  1  6  0  0  0
 44 45  1  0  0  0  0
 45 42  1  6  0  0  0
M  END
>  <MODEL>
8

>  <REMARK>
 VINA RESULT:      -6.3      2.292      6.857
  Name = 
  7 active torsions:
  status: ('A' for Active; 'I' for Inactive)
    1  A    between atoms: C_1  and  C_11
    2  A    between atoms: C_11  and  C_25
    3  A    between atoms: C_23  and  C_31
    4  A    between atoms: C_23  and  S_32
    5  A    between atoms: C_29  and  C_34
    6  A    between atoms: S_32  and  N_35
    7  A    between atoms: N_35  and  C_39
                            x       y       z     vdW  Elec       q    Type
                         _______ _______ _______ _____ _____    ______ ____

>  <TORSDO>
F 7

$$$$
=
 OpenBabel11062414213D

 45 52  0  0  1  0  0  0  0  0999 V2000
  182.2150  174.1610  135.7180 C   0  0  0  0  0  0  0  0  0  0  0  0
  182.2910  174.6320  134.5940 O   0  0  0  0  0  0  0  0  0  0  0  0
  181.4240  175.7200  137.6380 C   0  0  1  0  0  3  0  0  0  0  0  0
  179.6700  174.6340  136.0800 C   0  0  2  0  0  3  0  0  0  0  0  0
  179.3870  173.5540  135.0480 C   0  0  0  0  0  1  0  0  0  0  0  0
  180.3120  176.7470  134.8470 C   0  0  0  0  0  2  0  0  0  0  0  0
  180.9380  181.0760  137.0180 O   0  0  0  0  0  1  0  0  0  0  0  0
  182.5620  177.2650  135.8400 C   0  0  0  0  0  2  0  0  0  0  0  0
  182.0650  178.2150  138.1440 C   0  0  1  0  0  3  0  0  0  0  0  0
  179.2120  176.0080  135.5880 C   0  0  0  0  0  2  0  0  0  0  0  0
  180.8890  179.1410  135.6180 C   0  0  0  0  0  0  0  0  0  0  0  0
  181.1000  174.5820  136.6540 C   0  0  1  0  0  3  0  0  0  0  0  0
  182.6170  176.3430  139.7550 C   0  0  0  0  0  2  0  0  0  0  0  0
  180.8130  178.7700  138.8470 C   0  0  2  0  0  3  0  0  0  0  0  0
  183.0840  177.6650  139.1490 C   0  0  0  0  0  2  0  0  0  0  0  0
  181.2870  179.6750  134.5940 O   0  0  0  0  0  0  0  0  0  0  0  0
  181.0860  177.6560  135.7930 C   0  0  1  0  0  0  0  0  0  0  0  0
  180.1620  179.9790  136.6420 C   0  0  1  0  0  3  0  0  0  0  0  0
  182.4690  175.2890  138.6650 C   0  0  0  0  0  2  0  0  0  0  0  0
  179.6950  179.1870  137.8720 C   0  0  0  0  0  2  0  0  0  0  0  0
  181.7180  177.1460  137.0950 C   0  0  2  0  0  0  0  0  0  0  0  0
  180.7640  179.6160  141.1980 C   0  0  0  0  0  1  0  0  0  0  0  0
  181.1790  179.9260  139.7700 C   0  0  0  0  0  2  0  0  0  0  0  0
  183.2800  173.2010  136.1800 C   0  0  2  0  0  0  0  0  0  0  0  0
  186.9210  171.1040  135.3170 C   0  0  0  0  0  3  0  0  0  0  0  0
  185.7690  173.0760  136.1360 C   0  0  0  0  0  0  0  0  0  0  0  0
  184.5090  171.1610  135.3380 O   0  0  0  0  0  0  0  0  0  0  0  0
  182.1880  171.4420  134.7730 O   0  0  0  0  0  1  0  0  0  0  0  0
  182.9360  172.0010  137.0900 C   0  0  1  0  0  3  0  0  0  0  0  0
  184.5770  173.7560  136.4090 O   0  0  0  0  0  0  0  0  0  0  0  0
  181.4480  171.8430  137.3820 C   0  0  0  0  0  1  0  0  0  0  0  0
  188.1490  171.7130  135.5740 C   0  0  0  0  0  3  0  0  0  0  0  0
  183.2570  171.7900  135.6070 C   0  0  2  0  0  0  0  0  0  0  0  0
  187.0030  173.6920  136.3990 C   0  0  0  0  0  0  0  0  0  0  0  0
  185.7320  171.7800  135.5970 C   0  0  0  0  0  0  0  0  0  0  0  0
  188.1890  173.0010  136.1130 C   0  0  0  0  0  3  0  0  0  0  0  0
  187.0220  175.0140  136.9550 N   0  0  0  0  0  2  0  0  0  0  0  0
  188.6530  176.4120  135.3570 O   0  0  0  0  0  0  0  0  0  0  0  0
  186.2430  176.7250  135.0930 O   0  0  0  0  0  0  0  0  0  0  0  0
  187.3430  176.4860  136.0880 S   0  0  0  0  0  0  0  0  0  0  0  0
  187.4200  177.8390  137.2410 C   0  0  0  0  0  2  0  0  0  0  0  0
  187.6190  178.1430  139.8950 O   0  0  0  0  0  1  0  0  0  0  0  0
  188.9820  179.2230  138.4060 O   0  0  0  0  0  0  0  0  0  0  0  0
  188.8270  177.9560  137.8130 C   0  0  1  0  0  3  0  0  0  0  0  0
  188.8830  178.1370  139.2940 C   0  0  2  0  0  3  0  0  0  0  0  0
  2  1  2  0  0  0  0
  3 19  1  6  0  0  0
  4  5  1  6  0  0  0
  4 12  1  0  0  0  0
  6 10  1  0  0  0  0
  9 14  1  0  0  0  0
  9 15  1  1  0  0  0
 10  4  1  0  0  0  0
 11 17  1  0  0  0  0
 11 18  1  0  0  0  0
 12  1  1  6  0  0  0
 12  3  1  0  0  0  0
 14 23  1  6  0  0  0
 15 13  1  0  0  0  0
 16 11  2  0  0  0  0
 17  6  1  6  0  0  0
 17  8  1  0  0  0  0
 17 21  1  0  0  0  0
 18  7  1  1  0  0  0
 18 20  1  0  0  0  0
 19 13  1  0  0  0  0
 20 14  1  0  0  0  0
 21  8  1  6  0  0  0
 21  3  1  0  0  0  0
 21  9  1  0  0  0  0
 23 22  1  0  0  0  0
 24  1  1  6  0  0  0
 24 30  1  0  0  0  0
 24 29  1  0  0  0  0
 25 32  2  0  0  0  0
 25 35  1  0  0  0  0
 26 34  1  0  0  0  0
 26 30  1  0  0  0  0
 27 35  1  0  0  0  0
 27 33  1  0  0  0  0
 29 31  1  6  0  0  0
 32 36  1  0  0  0  0
 33 28  1  6  0  0  0
 33 24  1  0  0  0  0
 33 29  1  0  0  0  0
 34 37  1  0  0  0  0
 35 26  2  0  0  0  0
 36 34  2  0  0  0  0
 38 40  2  0  0  0  0
 39 40  2  0  0  0  0
 40 37  1  0  0  0  0
 40 41  1  0  0  0  0
 43 45  1  0  0  0  0
 44 41  1  1  0  0  0
 44 43  1  0  0  0  0
 44 45  1  0  0  0  0
 45 42  1  1  0  0  0
M  END
>  <MODEL>
9

>  <REMARK>
 VINA RESULT:      -5.8      3.446      7.549
  Name = 
  7 active torsions:
  status: ('A' for Active; 'I' for Inactive)
    1  A    between atoms: C_1  and  C_11
    2  A    between atoms: C_11  and  C_25
    3  A    between atoms: C_23  and  C_31
    4  A    between atoms: C_23  and  S_32
    5  A    between atoms: C_29  and  C_34
    6  A    between atoms: S_32  and  N_35
    7  A    between atoms: N_35  and  C_39
                            x       y       z     vdW  Elec       q    Type
                         _______ _______ _______ _____ _____    ______ ____

>  <TORSDO>
F 7

$$$$
