=
 OpenBabel11062413433D

 35 40  0  0  1  0  0  0  0  0999 V2000
  184.4390  178.6010  143.3360 N   0  0  0  0  0  0  0  0  0  0  0  0
  188.0980  177.8560  142.5760 C   0  0  0  0  0  0  0  0  0  0  0  0
  191.8420  175.6980  145.2200 C   0  0  0  0  0  2  0  0  0  0  0  0
  190.2210  177.3260  144.2220 C   0  0  0  0  0  0  0  0  0  0  0  0
  190.4080  177.3060  142.8700 N   0  0  0  0  0  0  0  0  0  0  0  0
  184.6690  178.4890  145.7300 C   0  0  0  0  0  0  0  0  0  0  0  0
  184.1050  178.5650  146.9580 F   0  0  0  0  0  0  0  0  0  0  0  0
  186.0400  178.2130  145.6020 C   0  0  0  0  0  3  0  0  0  0  0  0
  190.7200  176.6820  147.6220 N   0  0  0  0  0  0  0  0  0  0  0  0
  192.4470  175.2500  146.5700 C   0  0  0  0  0  2  0  0  0  0  0  0
  183.8810  178.6820  144.5790 C   0  0  0  0  0  3  0  0  0  0  0  0
  188.9910  177.6030  144.7860 C   0  0  0  0  0  0  0  0  0  0  0  0
  189.0020  177.5370  146.2030 N   0  0  0  0  0  2  0  0  0  0  0  0
  185.7640  178.3390  143.2150 C   0  0  0  0  0  0  0  0  0  0  0  0
  191.2440  177.1040  145.2760 C   0  0  1  0  0  3  0  0  0  0  0  0
  192.0740  176.1530  147.7650 C   0  0  0  0  0  2  0  0  0  0  0  0
  190.3580  177.1910  146.4870 C   0  0  0  0  0  0  0  0  0  0  0  0
  186.5810  178.1430  144.3200 C   0  0  0  0  0  0  0  0  0  0  0  0
  187.9030  177.8730  143.9600 C   0  0  0  0  0  0  0  0  0  0  0  0
  189.3630  177.5620  142.0240 C   0  0  0  0  0  0  0  0  0  0  0  0
  186.6370  178.1830  141.7810 S   0  0  0  0  0  0  0  0  0  0  0  0
  189.5830  177.4970  140.5460 C   0  0  0  0  0  2  0  0  0  0  0  0
  190.9570  176.9310  140.2090 C   0  0  0  0  0  2  0  0  0  0  0  0
  190.8580  175.9510  139.2180 O   0  0  0  0  0  0  0  0  0  0  0  0
  190.8090  176.6700  138.0230 C   0  0  0  0  0  2  0  0  0  0  0  0
  191.9380  176.2250  137.1070 C   0  0  0  0  0  2  0  0  0  0  0  0
  192.3420  174.7890  137.4080 C   0  0  1  0  0  3  0  0  0  0  0  0
  192.9780  173.3370  135.1790 S   0  0  0  0  0  0  0  0  0  0  0  0
  191.7160  173.8370  136.3940 C   0  0  0  0  0  2  0  0  0  0  0  0
  194.2500  173.9280  136.2740 C   0  0  0  0  0  2  0  0  0  0  0  0
  193.8160  174.6410  137.2960 C   0  0  2  0  0  3  0  0  0  0  0  0
  196.3260  175.2500  140.1190 N   0  0  0  0  0  1  0  0  0  0  0  0
  195.6970  173.2670  139.0980 O   0  0  0  0  0  0  0  0  0  0  0  0
  194.6850  175.2210  138.2790 N   0  0  0  0  0  2  0  0  0  0  0  0
  195.5720  174.5180  139.1600 C   0  0  0  0  0  0  0  0  0  0  0  0
  1 11  1  0  0  0  0
  2 19  1  0  0  0  0
  3 10  1  0  0  0  0
  4 12  1  0  0  0  0
  4 15  1  0  0  0  0
  5  4  2  0  0  0  0
  6  7  1  0  0  0  0
  8  6  1  0  0  0  0
  9 16  1  0  0  0  0
 10 16  1  0  0  0  0
 11  6  2  0  0  0  0
 12 13  1  0  0  0  0
 13 17  1  0  0  0  0
 14  1  2  0  0  0  0
 14 18  1  0  0  0  0
 15  3  1  6  0  0  0
 15 17  1  0  0  0  0
 17  9  2  0  0  0  0
 18  8  2  0  0  0  0
 19 18  1  0  0  0  0
 19 12  2  0  0  0  0
 20  2  2  0  0  0  0
 20  5  1  0  0  0  0
 21  2  1  0  0  0  0
 21 14  1  0  0  0  0
 22 20  1  0  0  0  0
 23 22  1  0  0  0  0
 24 23  1  0  0  0  0
 25 24  1  0  0  0  0
 26 25  1  0  0  0  0
 27 26  1  6  0  0  0
 28 30  1  0  0  0  0
 28 29  1  0  0  0  0
 29 27  1  0  0  0  0
 30 31  1  0  0  0  0
 31 27  1  0  0  0  0
 31 34  1  1  0  0  0
 33 35  2  0  0  0  0
 34 35  1  0  0  0  0
 35 32  1  0  0  0  0
M  END
>  <MODEL>
1

>  <REMARK>
 VINA RESULT:      -9.5      0.000      0.000
  Name = 
  7 active torsions:
  status: ('A' for Active; 'I' for Inactive)
    1  A    between atoms: C_11  and  C_35
    2  A    between atoms: C_13  and  C_20
    3  A    between atoms: C_13  and  O_26
    4  A    between atoms: C_19  and  O_26
    5  A    between atoms: C_19  and  C_35
    6  A    between atoms: C_20  and  C_32
    7  A    between atoms: N_25  and  C_34
                            x       y       z     vdW  Elec       q    Type
                         _______ _______ _______ _____ _____    ______ ____

>  <TORSDO>
F 7

$$$$
=
 OpenBabel11062413433D

 35 40  0  0  1  0  0  0  0  0999 V2000
  184.2950  178.6680  143.3380 N   0  0  0  0  0  0  0  0  0  0  0  0
  187.9470  177.9780  142.4990 C   0  0  0  0  0  0  0  0  0  0  0  0
  191.7390  175.7350  145.0000 C   0  0  0  0  0  2  0  0  0  0  0  0
  190.0950  177.3920  144.0930 C   0  0  0  0  0  0  0  0  0  0  0  0
  190.2640  177.4310  142.7390 N   0  0  0  0  0  0  0  0  0  0  0  0
  184.5570  178.4580  145.7210 C   0  0  0  0  0  0  0  0  0  0  0  0
  184.0090  178.4780  146.9590 F   0  0  0  0  0  0  0  0  0  0  0  0
  185.9280  178.1950  145.5640 C   0  0  0  0  0  3  0  0  0  0  0  0
  190.6440  176.6100  147.4560 N   0  0  0  0  0  0  0  0  0  0  0  0
  192.3640  175.2350  146.3230 C   0  0  0  0  0  2  0  0  0  0  0  0
  183.7530  178.6930  144.5900 C   0  0  0  0  0  3  0  0  0  0  0  0
  188.8720  177.6390  144.6840 C   0  0  0  0  0  0  0  0  0  0  0  0
  188.9020  177.5130  146.0970 N   0  0  0  0  0  2  0  0  0  0  0  0
  185.6190  178.4200  143.1890 C   0  0  0  0  0  0  0  0  0  0  0  0
  191.1330  177.1330  145.1230 C   0  0  1  0  0  3  0  0  0  0  0  0
  192.0030  176.0840  147.5580 C   0  0  0  0  0  2  0  0  0  0  0  0
  190.2630  177.1640  146.3480 C   0  0  0  0  0  0  0  0  0  0  0  0
  186.4520  178.1830  144.2730 C   0  0  0  0  0  0  0  0  0  0  0  0
  187.7710  177.9360  143.8840 C   0  0  0  0  0  0  0  0  0  0  0  0
  189.2060  177.7150  141.9190 C   0  0  0  0  0  0  0  0  0  0  0  0
  186.4740  178.3290  141.7370 S   0  0  0  0  0  0  0  0  0  0  0  0
  189.4070  177.7130  140.4360 C   0  0  0  0  0  2  0  0  0  0  0  0
  190.7940  177.2070  140.0590 C   0  0  0  0  0  2  0  0  0  0  0  0
  190.7080  175.9770  139.4030 O   0  0  0  0  0  0  0  0  0  0  0  0
  190.3890  176.3070  138.0850 C   0  0  0  0  0  2  0  0  0  0  0  0
  189.7910  175.1000  137.3810 C   0  0  0  0  0  2  0  0  0  0  0  0
  189.0000  175.5310  136.1540 C   0  0  1  0  0  3  0  0  0  0  0  0
  187.8050  173.4530  134.8350 S   0  0  0  0  0  0  0  0  0  0  0  0
  189.2410  174.5620  135.0000 C   0  0  0  0  0  2  0  0  0  0  0  0
  186.8470  174.5610  135.8450 C   0  0  0  0  0  2  0  0  0  0  0  0
  187.5450  175.5030  136.4520 C   0  0  2  0  0  3  0  0  0  0  0  0
  186.2260  178.7200  138.0490 N   0  0  0  0  0  1  0  0  0  0  0  0
  187.0910  178.3660  135.9290 O   0  0  0  0  0  0  0  0  0  0  0  0
  186.9590  176.4810  137.3230 N   0  0  0  0  0  2  0  0  0  0  0  0
  186.7760  177.8760  137.0450 C   0  0  0  0  0  0  0  0  0  0  0  0
  1 11  1  0  0  0  0
  2 19  1  0  0  0  0
  3 10  1  0  0  0  0
  4 12  1  0  0  0  0
  4 15  1  0  0  0  0
  5  4  2  0  0  0  0
  6  7  1  0  0  0  0
  8  6  1  0  0  0  0
  9 16  1  0  0  0  0
 10 16  1  0  0  0  0
 11  6  2  0  0  0  0
 12 13  1  0  0  0  0
 13 17  1  0  0  0  0
 14  1  2  0  0  0  0
 14 18  1  0  0  0  0
 15  3  1  6  0  0  0
 15 17  1  0  0  0  0
 17  9  2  0  0  0  0
 18  8  2  0  0  0  0
 19 18  1  0  0  0  0
 19 12  2  0  0  0  0
 20  2  2  0  0  0  0
 20  5  1  0  0  0  0
 21  2  1  0  0  0  0
 21 14  1  0  0  0  0
 22 20  1  0  0  0  0
 23 22  1  0  0  0  0
 24 23  1  0  0  0  0
 25 24  1  0  0  0  0
 26 25  1  0  0  0  0
 27 31  1  0  0  0  0
 27 26  1  1  0  0  0
 28 29  1  0  0  0  0
 28 30  1  0  0  0  0
 29 27  1  0  0  0  0
 30 31  1  0  0  0  0
 31 34  1  6  0  0  0
 33 35  2  0  0  0  0
 35 34  1  0  0  0  0
 35 32  1  0  0  0  0
M  END
>  <MODEL>
2

>  <REMARK>
 VINA RESULT:      -8.9      2.607      3.913
  Name = 
  7 active torsions:
  status: ('A' for Active; 'I' for Inactive)
    1  A    between atoms: C_11  and  C_35
    2  A    between atoms: C_13  and  C_20
    3  A    between atoms: C_13  and  O_26
    4  A    between atoms: C_19  and  O_26
    5  A    between atoms: C_19  and  C_35
    6  A    between atoms: C_20  and  C_32
    7  A    between atoms: N_25  and  C_34
                            x       y       z     vdW  Elec       q    Type
                         _______ _______ _______ _____ _____    ______ ____

>  <TORSDO>
F 7

$$$$
=
 OpenBabel11062413433D

 35 40  0  0  1  0  0  0  0  0999 V2000
  188.9500  177.1090  147.0720 N   0  0  0  0  0  0  0  0  0  0  0  0
  187.4080  177.9620  143.6930 C   0  0  0  0  0  0  0  0  0  0  0  0
  188.6840  176.9000  138.9080 C   0  0  0  0  0  2  0  0  0  0  0  0
  188.4610  177.9580  141.1670 C   0  0  0  0  0  0  0  0  0  0  0  0
  187.1450  178.2770  141.3370 N   0  0  0  0  0  0  0  0  0  0  0  0
  191.1460  176.6260  146.2130 C   0  0  0  0  0  0  0  0  0  0  0  0
  192.4250  176.2400  146.4360 F   0  0  0  0  0  0  0  0  0  0  0  0
  190.7180  176.9160  144.9080 C   0  0  0  0  0  3  0  0  0  0  0  0
  191.4170  176.8970  139.6310 N   0  0  0  0  0  0  0  0  0  0  0  0
  189.7360  176.4570  137.8660 C   0  0  0  0  0  2  0  0  0  0  0  0
  190.2430  176.7290  147.2880 C   0  0  0  0  0  3  0  0  0  0  0  0
  189.2790  177.6370  142.2320 C   0  0  0  0  0  0  0  0  0  0  0  0
  190.6000  177.3030  141.8370 N   0  0  0  0  0  2  0  0  0  0  0  0
  188.5400  177.3960  145.8120 C   0  0  0  0  0  0  0  0  0  0  0  0
  189.2250  177.9360  139.8930 C   0  0  1  0  0  3  0  0  0  0  0  0
  191.1780  176.9000  138.1900 C   0  0  0  0  0  2  0  0  0  0  0  0
  190.5450  177.4440  140.4170 C   0  0  0  0  0  0  0  0  0  0  0  0
  189.3940  177.3090  144.7210 C   0  0  0  0  0  0  0  0  0  0  0  0
  188.7550  177.6330  143.5220 C   0  0  0  0  0  0  0  0  0  0  0  0
  186.5910  178.2810  142.5880 C   0  0  0  0  0  0  0  0  0  0  0  0
  186.9920  177.8640  145.3340 S   0  0  0  0  0  0  0  0  0  0  0  0
  185.1370  178.5950  142.7460 C   0  0  0  0  0  2  0  0  0  0  0  0
  184.3500  178.2540  141.4860 C   0  0  0  0  0  2  0  0  0  0  0  0
  184.3150  179.3470  140.6160 O   0  0  0  0  0  0  0  0  0  0  0  0
  183.2230  179.0930  139.7850 C   0  0  0  0  0  2  0  0  0  0  0  0
  182.7010  177.6870  140.0320 C   0  0  0  0  0  2  0  0  0  0  0  0
  181.3200  177.5110  139.4180 C   0  0  1  0  0  3  0  0  0  0  0  0
  180.1900  175.0750  139.9430 S   0  0  0  0  0  0  0  0  0  0  0  0
  181.1790  176.1140  138.8200 C   0  0  0  0  0  2  0  0  0  0  0  0
  179.6310  176.5380  140.7870 C   0  0  0  0  0  2  0  0  0  0  0  0
  180.2760  177.6450  140.4670 C   0  0  2  0  0  3  0  0  0  0  0  0
  180.0210  180.6900  142.7690 N   0  0  0  0  0  1  0  0  0  0  0  0
  181.2380  178.7350  143.0280 O   0  0  0  0  0  0  0  0  0  0  0  0
  179.9870  178.9230  141.0500 N   0  0  0  0  0  2  0  0  0  0  0  0
  180.4530  179.4130  142.3150 C   0  0  0  0  0  0  0  0  0  0  0  0
  1 11  1  0  0  0  0
  2 21  1  0  0  0  0
  4  5  2  0  0  0  0
  4 12  1  0  0  0  0
  5 20  1  0  0  0  0
  6  7  1  0  0  0  0
  6 11  2  0  0  0  0
  8  6  1  0  0  0  0
  9 17  2  0  0  0  0
 10 16  1  0  0  0  0
 10  3  1  0  0  0  0
 12 19  2  0  0  0  0
 13 12  1  0  0  0  0
 14  1  2  0  0  0  0
 15  3  1  6  0  0  0
 15 17  1  0  0  0  0
 15  4  1  0  0  0  0
 16  9  1  0  0  0  0
 17 13  1  0  0  0  0
 18  8  2  0  0  0  0
 18 14  1  0  0  0  0
 19  2  1  0  0  0  0
 19 18  1  0  0  0  0
 20 22  1  0  0  0  0
 20  2  2  0  0  0  0
 21 14  1  0  0  0  0
 23 22  1  0  0  0  0
 24 23  1  0  0  0  0
 25 26  1  0  0  0  0
 25 24  1  0  0  0  0
 27 26  1  1  0  0  0
 27 31  1  0  0  0  0
 28 30  1  0  0  0  0
 29 27  1  0  0  0  0
 29 28  1  0  0  0  0
 31 30  1  0  0  0  0
 31 34  1  6  0  0  0
 34 35  1  0  0  0  0
 35 32  1  0  0  0  0
 35 33  2  0  0  0  0
M  END
>  <MODEL>
3

>  <REMARK>
 VINA RESULT:      -8.8      4.312      9.159
  Name = 
  7 active torsions:
  status: ('A' for Active; 'I' for Inactive)
    1  A    between atoms: C_11  and  C_35
    2  A    between atoms: C_13  and  C_20
    3  A    between atoms: C_13  and  O_26
    4  A    between atoms: C_19  and  O_26
    5  A    between atoms: C_19  and  C_35
    6  A    between atoms: C_20  and  C_32
    7  A    between atoms: N_25  and  C_34
                            x       y       z     vdW  Elec       q    Type
                         _______ _______ _______ _____ _____    ______ ____

>  <TORSDO>
F 7

$$$$
=
 OpenBabel11062413433D

 35 40  0  0  1  0  0  0  0  0999 V2000
  188.9410  177.1300  146.9890 N   0  0  0  0  0  0  0  0  0  0  0  0
  187.5350  177.9620  143.5470 C   0  0  0  0  0  0  0  0  0  0  0  0
  188.9690  176.8240  138.8230 C   0  0  0  0  0  2  0  0  0  0  0  0
  188.6790  177.9140  141.0600 C   0  0  0  0  0  0  0  0  0  0  0  0
  187.3620  178.2520  141.1780 N   0  0  0  0  0  0  0  0  0  0  0  0
  191.1600  176.6060  146.2160 C   0  0  0  0  0  0  0  0  0  0  0  0
  192.4240  176.2060  146.4900 F   0  0  0  0  0  0  0  0  0  0  0  0
  190.7840  176.8870  144.8930 C   0  0  0  0  0  3  0  0  0  0  0  0
  191.6740  176.7930  139.6460 N   0  0  0  0  0  0  0  0  0  0  0  0
  190.0520  176.3550  137.8260 C   0  0  0  0  0  2  0  0  0  0  0  0
  190.2200  176.7340  147.2560 C   0  0  0  0  0  3  0  0  0  0  0  0
  189.4530  177.5940  142.1580 C   0  0  0  0  0  0  0  0  0  0  0  0
  190.7830  177.2370  141.8160 N   0  0  0  0  0  2  0  0  0  0  0  0
  188.5810  177.4060  145.7120 C   0  0  0  0  0  0  0  0  0  0  0  0
  189.4890  177.8660  139.8150 C   0  0  1  0  0  3  0  0  0  0  0  0
  191.4870  176.7820  138.1980 C   0  0  0  0  0  2  0  0  0  0  0  0
  190.7810  177.3620  140.3930 C   0  0  0  0  0  0  0  0  0  0  0  0
  189.4730  177.2950  144.6540 C   0  0  0  0  0  0  0  0  0  0  0  0
  188.8830  177.6130  143.4290 C   0  0  0  0  0  0  0  0  0  0  0  0
  186.7640  178.2780  142.4090 C   0  0  0  0  0  0  0  0  0  0  0  0
  187.0580  177.8900  145.1720 S   0  0  0  0  0  0  0  0  0  0  0  0
  185.3090  178.6140  142.5100 C   0  0  0  0  0  2  0  0  0  0  0  0
  184.6120  178.4960  141.1600 C   0  0  0  0  0  2  0  0  0  0  0  0
  184.8780  179.6150  140.3680 O   0  0  0  0  0  0  0  0  0  0  0  0
  184.2530  179.3360  139.1510 C   0  0  0  0  0  2  0  0  0  0  0  0
  185.0890  178.3450  138.3570 C   0  0  0  0  0  2  0  0  0  0  0  0
  184.2360  177.1740  137.8910 C   0  0  1  0  0  3  0  0  0  0  0  0
  182.0620  177.9230  136.4080 S   0  0  0  0  0  0  0  0  0  0  0  0
  182.7540  177.5040  138.0410 C   0  0  0  0  0  2  0  0  0  0  0  0
  183.4880  177.1980  135.6300 C   0  0  0  0  0  2  0  0  0  0  0  0
  184.4820  176.9080  136.4500 C   0  0  2  0  0  3  0  0  0  0  0  0
  187.9570  176.2920  134.9730 N   0  0  0  0  0  1  0  0  0  0  0  0
  186.7870  178.2760  135.2290 O   0  0  0  0  0  0  0  0  0  0  0  0
  185.7220  176.3350  136.0140 N   0  0  0  0  0  2  0  0  0  0  0  0
  186.8160  177.0280  135.3980 C   0  0  0  0  0  0  0  0  0  0  0  0
  1 11  1  0  0  0  0
  2 21  1  0  0  0  0
  4  5  2  0  0  0  0
  4 12  1  0  0  0  0
  5 20  1  0  0  0  0
  6  7  1  0  0  0  0
  6 11  2  0  0  0  0
  8  6  1  0  0  0  0
  9 17  2  0  0  0  0
 10 16  1  0  0  0  0
 10  3  1  0  0  0  0
 12 19  2  0  0  0  0
 13 12  1  0  0  0  0
 14  1  2  0  0  0  0
 15  3  1  6  0  0  0
 15 17  1  0  0  0  0
 15  4  1  0  0  0  0
 16  9  1  0  0  0  0
 17 13  1  0  0  0  0
 18  8  2  0  0  0  0
 18 14  1  0  0  0  0
 19  2  1  0  0  0  0
 19 18  1  0  0  0  0
 20 22  1  0  0  0  0
 20  2  2  0  0  0  0
 21 14  1  0  0  0  0
 23 22  1  0  0  0  0
 24 23  1  0  0  0  0
 25 24  1  0  0  0  0
 26 25  1  0  0  0  0
 27 29  1  0  0  0  0
 27 26  1  6  0  0  0
 28 29  1  0  0  0  0
 30 28  1  0  0  0  0
 30 31  1  0  0  0  0
 31 34  1  1  0  0  0
 31 27  1  0  0  0  0
 32 35  1  0  0  0  0
 33 35  2  0  0  0  0
 35 34  1  0  0  0  0
M  END
>  <MODEL>
4

>  <REMARK>
 VINA RESULT:      -8.8      4.237      7.266
  Name = 
  7 active torsions:
  status: ('A' for Active; 'I' for Inactive)
    1  A    between atoms: C_11  and  C_35
    2  A    between atoms: C_13  and  C_20
    3  A    between atoms: C_13  and  O_26
    4  A    between atoms: C_19  and  O_26
    5  A    between atoms: C_19  and  C_35
    6  A    between atoms: C_20  and  C_32
    7  A    between atoms: N_25  and  C_34
                            x       y       z     vdW  Elec       q    Type
                         _______ _______ _______ _____ _____    ______ ____

>  <TORSDO>
F 7

$$$$
=
 OpenBabel11062413433D

 35 40  0  0  1  0  0  0  0  0999 V2000
  184.3250  178.5560  142.9980 N   0  0  0  0  0  0  0  0  0  0  0  0
  187.9590  177.7070  142.2260 C   0  0  0  0  0  0  0  0  0  0  0  0
  191.6940  175.5890  144.9140 C   0  0  0  0  0  2  0  0  0  0  0  0
  190.0920  177.2040  143.8680 C   0  0  0  0  0  0  0  0  0  0  0  0
  190.2620  177.1250  142.5160 N   0  0  0  0  0  0  0  0  0  0  0  0
  184.5840  178.5410  145.3910 C   0  0  0  0  0  0  0  0  0  0  0  0
  184.0370  178.6790  146.6220 F   0  0  0  0  0  0  0  0  0  0  0  0
  185.9470  178.2320  145.2590 C   0  0  0  0  0  3  0  0  0  0  0  0
  190.6230  176.6950  147.2860 N   0  0  0  0  0  0  0  0  0  0  0  0
  192.3070  175.1870  146.2750 C   0  0  0  0  0  2  0  0  0  0  0  0
  183.7850  178.7000  144.2430 C   0  0  0  0  0  3  0  0  0  0  0  0
  188.8760  177.5300  144.4340 C   0  0  0  0  0  0  0  0  0  0  0  0
  188.9030  177.5240  145.8520 N   0  0  0  0  0  2  0  0  0  0  0  0
  185.6430  178.2630  142.8730 C   0  0  0  0  0  0  0  0  0  0  0  0
  191.1240  177.0080  144.9180 C   0  0  1  0  0  3  0  0  0  0  0  0
  191.9680  176.1460  147.4340 C   0  0  0  0  0  2  0  0  0  0  0  0
  190.2560  177.1630  146.1350 C   0  0  0  0  0  0  0  0  0  0  0  0
  186.4710  178.0980  143.9750 C   0  0  0  0  0  0  0  0  0  0  0  0
  187.7820  177.7870  143.6100 C   0  0  0  0  0  0  0  0  0  0  0  0
  189.2100  177.3650  141.6730 C   0  0  0  0  0  0  0  0  0  0  0  0
  186.4950  178.0290  141.4360 S   0  0  0  0  0  0  0  0  0  0  0  0
  189.4110  177.2330  140.1950 C   0  0  0  0  0  2  0  0  0  0  0  0
  189.4480  178.5940  139.5110 C   0  0  0  0  0  2  0  0  0  0  0  0
  188.3740  178.7320  138.6290 O   0  0  0  0  0  0  0  0  0  0  0  0
  188.9630  179.1040  137.4200 C   0  0  0  0  0  2  0  0  0  0  0  0
  188.5210  178.1560  136.3170 C   0  0  0  0  0  2  0  0  0  0  0  0
  188.6490  176.7080  136.7680 C   0  0  1  0  0  3  0  0  0  0  0  0
  187.9640  174.8940  134.8380 S   0  0  0  0  0  0  0  0  0  0  0  0
  187.4580  175.8920  136.2760 C   0  0  0  0  0  2  0  0  0  0  0  0
  189.6700  175.1780  135.2560 C   0  0  0  0  0  2  0  0  0  0  0  0
  189.8700  176.0990  136.1810 C   0  0  2  0  0  3  0  0  0  0  0  0
  193.1770  176.4320  138.0750 N   0  0  0  0  0  1  0  0  0  0  0  0
  191.4730  174.8820  138.3310 O   0  0  0  0  0  0  0  0  0  0  0  0
  191.1720  176.4840  136.6410 N   0  0  0  0  0  2  0  0  0  0  0  0
  191.9160  175.8850  137.7110 C   0  0  0  0  0  0  0  0  0  0  0  0
  1 11  1  0  0  0  0
  2 19  1  0  0  0  0
  3 10  1  0  0  0  0
  4 12  1  0  0  0  0
  4 15  1  0  0  0  0
  5  4  2  0  0  0  0
  6  7  1  0  0  0  0
  8  6  1  0  0  0  0
  9 16  1  0  0  0  0
 10 16  1  0  0  0  0
 11  6  2  0  0  0  0
 12 13  1  0  0  0  0
 13 17  1  0  0  0  0
 14  1  2  0  0  0  0
 14 18  1  0  0  0  0
 15  3  1  6  0  0  0
 15 17  1  0  0  0  0
 17  9  2  0  0  0  0
 18  8  2  0  0  0  0
 19 18  1  0  0  0  0
 19 12  2  0  0  0  0
 20  2  2  0  0  0  0
 20  5  1  0  0  0  0
 21  2  1  0  0  0  0
 21 14  1  0  0  0  0
 22 20  1  0  0  0  0
 23 22  1  0  0  0  0
 24 23  1  0  0  0  0
 25 24  1  0  0  0  0
 26 25  1  0  0  0  0
 27 26  1  6  0  0  0
 28 30  1  0  0  0  0
 28 29  1  0  0  0  0
 29 27  1  0  0  0  0
 30 31  1  0  0  0  0
 31 34  1  1  0  0  0
 31 27  1  0  0  0  0
 34 35  1  0  0  0  0
 35 32  1  0  0  0  0
 35 33  2  0  0  0  0
M  END
>  <MODEL>
5

>  <REMARK>
 VINA RESULT:      -8.7      1.880      2.560
  Name = 
  7 active torsions:
  status: ('A' for Active; 'I' for Inactive)
    1  A    between atoms: C_11  and  C_35
    2  A    between atoms: C_13  and  C_20
    3  A    between atoms: C_13  and  O_26
    4  A    between atoms: C_19  and  O_26
    5  A    between atoms: C_19  and  C_35
    6  A    between atoms: C_20  and  C_32
    7  A    between atoms: N_25  and  C_34
                            x       y       z     vdW  Elec       q    Type
                         _______ _______ _______ _____ _____    ______ ____

>  <TORSDO>
F 7

$$$$
=
 OpenBabel11062413433D

 35 40  0  0  1  0  0  0  0  0999 V2000
  188.6270  177.1850  147.0940 N   0  0  0  0  0  0  0  0  0  0  0  0
  187.1880  177.9570  143.6510 C   0  0  0  0  0  0  0  0  0  0  0  0
  188.6740  176.8850  138.9280 C   0  0  0  0  0  2  0  0  0  0  0  0
  188.3360  177.9590  141.1650 C   0  0  0  0  0  0  0  0  0  0  0  0
  187.0050  178.2400  141.2820 N   0  0  0  0  0  0  0  0  0  0  0  0
  190.8670  176.7590  146.3230 C   0  0  0  0  0  0  0  0  0  0  0  0
  192.1470  176.4140  146.5970 F   0  0  0  0  0  0  0  0  0  0  0  0
  190.4800  177.0240  144.9990 C   0  0  0  0  0  3  0  0  0  0  0  0
  191.3780  176.9710  139.7530 N   0  0  0  0  0  0  0  0  0  0  0  0
  189.7780  176.4640  137.9310 C   0  0  0  0  0  2  0  0  0  0  0  0
  189.9210  176.8460  147.3620 C   0  0  0  0  0  3  0  0  0  0  0  0
  189.1210  177.6730  142.2630 C   0  0  0  0  0  0  0  0  0  0  0  0
  190.4660  177.3750  141.9220 N   0  0  0  0  0  2  0  0  0  0  0  0
  188.2560  177.4460  145.8160 C   0  0  0  0  0  0  0  0  0  0  0  0
  189.1470  177.9480  139.9210 C   0  0  1  0  0  3  0  0  0  0  0  0
  191.1930  176.9530  138.3040 C   0  0  0  0  0  2  0  0  0  0  0  0
  190.4600  177.5000  140.5000 C   0  0  0  0  0  0  0  0  0  0  0  0
  189.1530  177.3740  144.7590 C   0  0  0  0  0  0  0  0  0  0  0  0
  188.5500  177.6670  143.5330 C   0  0  0  0  0  0  0  0  0  0  0  0
  186.4050  178.2400  142.5120 C   0  0  0  0  0  0  0  0  0  0  0  0
  186.7140  177.8630  145.2760 S   0  0  0  0  0  0  0  0  0  0  0  0
  184.9370  178.5120  142.6120 C   0  0  0  0  0  2  0  0  0  0  0  0
  184.2450  178.3550  141.2630 C   0  0  0  0  0  2  0  0  0  0  0  0
  184.3400  179.5340  140.5200 O   0  0  0  0  0  0  0  0  0  0  0  0
  183.7050  179.2350  139.3130 C   0  0  0  0  0  2  0  0  0  0  0  0
  183.1060  180.4990  138.7180 C   0  0  0  0  0  2  0  0  0  0  0  0
  181.6360  180.2920  138.3850 C   0  0  1  0  0  3  0  0  0  0  0  0
  180.0330  180.0680  140.5910 S   0  0  0  0  0  0  0  0  0  0  0  0
  181.0250  179.2410  139.3060 C   0  0  0  0  0  2  0  0  0  0  0  0
  180.0450  181.5610  139.6230 C   0  0  0  0  0  2  0  0  0  0  0  0
  180.8830  181.5550  138.6020 C   0  0  2  0  0  3  0  0  0  0  0  0
  180.8000  183.9690  135.6350 N   0  0  0  0  0  1  0  0  0  0  0  0
  179.6990  181.9520  135.9350 O   0  0  0  0  0  0  0  0  0  0  0  0
  181.0530  182.6680  137.7140 N   0  0  0  0  0  2  0  0  0  0  0  0
  180.4810  182.8190  136.4080 C   0  0  0  0  0  0  0  0  0  0  0  0
  1 11  1  0  0  0  0
  2 21  1  0  0  0  0
  4  5  2  0  0  0  0
  4 12  1  0  0  0  0
  5 20  1  0  0  0  0
  6  7  1  0  0  0  0
  6 11  2  0  0  0  0
  8  6  1  0  0  0  0
  9 17  2  0  0  0  0
 10 16  1  0  0  0  0
 10  3  1  0  0  0  0
 12 19  2  0  0  0  0
 13 12  1  0  0  0  0
 14  1  2  0  0  0  0
 15  3  1  6  0  0  0
 15 17  1  0  0  0  0
 15  4  1  0  0  0  0
 16  9  1  0  0  0  0
 17 13  1  0  0  0  0
 18  8  2  0  0  0  0
 18 14  1  0  0  0  0
 19  2  1  0  0  0  0
 19 18  1  0  0  0  0
 20 22  1  0  0  0  0
 20  2  2  0  0  0  0
 21 14  1  0  0  0  0
 23 22  1  0  0  0  0
 24 23  1  0  0  0  0
 25 24  1  0  0  0  0
 26 25  1  0  0  0  0
 27 31  1  0  0  0  0
 27 26  1  1  0  0  0
 27 29  1  0  0  0  0
 29 28  1  0  0  0  0
 30 28  1  0  0  0  0
 31 34  1  6  0  0  0
 31 30  1  0  0  0  0
 32 35  1  0  0  0  0
 33 35  2  0  0  0  0
 35 34  1  0  0  0  0
M  END
>  <MODEL>
6

>  <REMARK>
 VINA RESULT:      -8.7      5.051      9.583
  Name = 
  7 active torsions:
  status: ('A' for Active; 'I' for Inactive)
    1  A    between atoms: C_11  and  C_35
    2  A    between atoms: C_13  and  C_20
    3  A    between atoms: C_13  and  O_26
    4  A    between atoms: C_19  and  O_26
    5  A    between atoms: C_19  and  C_35
    6  A    between atoms: C_20  and  C_32
    7  A    between atoms: N_25  and  C_34
                            x       y       z     vdW  Elec       q    Type
                         _______ _______ _______ _____ _____    ______ ____

>  <TORSDO>
F 7

$$$$
=
 OpenBabel11062413433D

 35 40  0  0  1  0  0  0  0  0999 V2000
  188.6310  177.1330  147.1730 N   0  0  0  0  0  0  0  0  0  0  0  0
  186.9650  178.0170  143.8610 C   0  0  0  0  0  0  0  0  0  0  0  0
  188.1440  177.1280  139.0160 C   0  0  0  0  0  2  0  0  0  0  0  0
  187.9480  178.1180  141.3080 C   0  0  0  0  0  0  0  0  0  0  0  0
  186.6260  178.3840  141.5220 N   0  0  0  0  0  0  0  0  0  0  0  0
  190.8170  176.7520  146.2420 C   0  0  0  0  0  0  0  0  0  0  0  0
  192.1150  176.4070  146.4200 F   0  0  0  0  0  0  0  0  0  0  0  0
  190.3430  177.0610  144.9570 C   0  0  0  0  0  3  0  0  0  0  0  0
  190.8950  177.2050  139.6650 N   0  0  0  0  0  0  0  0  0  0  0  0
  189.1830  176.7510  137.9340 C   0  0  0  0  0  2  0  0  0  0  0  0
  189.9420  176.7940  147.3430 C   0  0  0  0  0  3  0  0  0  0  0  0
  188.8050  177.7980  142.3410 C   0  0  0  0  0  0  0  0  0  0  0  0
  190.1260  177.5230  141.9020 N   0  0  0  0  0  2  0  0  0  0  0  0
  188.1760  177.4370  145.9330 C   0  0  0  0  0  0  0  0  0  0  0  0
  188.6760  178.1570  140.0140 C   0  0  1  0  0  3  0  0  0  0  0  0
  190.6160  177.2370  138.2320 C   0  0  0  0  0  2  0  0  0  0  0  0
  190.0260  177.6990  140.4890 C   0  0  0  0  0  0  0  0  0  0  0  0
  189.0010  177.4100  144.8170 C   0  0  0  0  0  0  0  0  0  0  0  0
  188.3180  177.7420  143.6450 C   0  0  0  0  0  0  0  0  0  0  0  0
  186.1080  178.3340  142.7880 C   0  0  0  0  0  0  0  0  0  0  0  0
  186.5990  177.8610  145.5100 S   0  0  0  0  0  0  0  0  0  0  0  0
  184.6480  178.5910  142.9930 C   0  0  0  0  0  2  0  0  0  0  0  0
  183.9310  178.8390  141.6710 C   0  0  0  0  0  2  0  0  0  0  0  0
  182.5580  178.6230  141.8070 O   0  0  0  0  0  0  0  0  0  0  0  0
  182.1280  178.3020  140.5180 C   0  0  0  0  0  2  0  0  0  0  0  0
  183.0400  177.2440  139.9190 C   0  0  0  0  0  2  0  0  0  0  0  0
  182.2640  175.9680  139.6240 C   0  0  1  0  0  3  0  0  0  0  0  0
  180.0780  176.3600  138.0250 S   0  0  0  0  0  0  0  0  0  0  0  0
  180.7630  176.2290  139.7090 C   0  0  0  0  0  2  0  0  0  0  0  0
  181.5570  175.6120  137.3780 C   0  0  0  0  0  2  0  0  0  0  0  0
  182.5510  175.5060  138.2410 C   0  0  2  0  0  3  0  0  0  0  0  0
  186.0830  174.8840  136.9100 N   0  0  0  0  0  1  0  0  0  0  0  0
  184.7990  176.8130  136.8580 O   0  0  0  0  0  0  0  0  0  0  0  0
  183.8290  174.9490  137.9080 N   0  0  0  0  0  2  0  0  0  0  0  0
  184.8950  175.6070  137.2090 C   0  0  0  0  0  0  0  0  0  0  0  0
  1 11  1  0  0  0  0
  2 21  1  0  0  0  0
  4  5  2  0  0  0  0
  4 12  1  0  0  0  0
  5 20  1  0  0  0  0
  6  7  1  0  0  0  0
  6 11  2  0  0  0  0
  8  6  1  0  0  0  0
  9 17  2  0  0  0  0
 10 16  1  0  0  0  0
 10  3  1  0  0  0  0
 12 19  2  0  0  0  0
 13 12  1  0  0  0  0
 14  1  2  0  0  0  0
 15  3  1  6  0  0  0
 15 17  1  0  0  0  0
 15  4  1  0  0  0  0
 16  9  1  0  0  0  0
 17 13  1  0  0  0  0
 18  8  2  0  0  0  0
 18 14  1  0  0  0  0
 19  2  1  0  0  0  0
 19 18  1  0  0  0  0
 20 22  1  0  0  0  0
 20  2  2  0  0  0  0
 21 14  1  0  0  0  0
 23 24  1  0  0  0  0
 23 22  1  0  0  0  0
 25 24  1  0  0  0  0
 26 25  1  0  0  0  0
 27 29  1  0  0  0  0
 27 26  1  6  0  0  0
 28 29  1  0  0  0  0
 30 28  1  0  0  0  0
 30 31  1  0  0  0  0
 31 34  1  1  0  0  0
 31 27  1  0  0  0  0
 32 35  1  0  0  0  0
 33 35  2  0  0  0  0
 35 34  1  0  0  0  0
M  END
>  <MODEL>
7

>  <REMARK>
 VINA RESULT:      -8.7      4.355      8.006
  Name = 
  7 active torsions:
  status: ('A' for Active; 'I' for Inactive)
    1  A    between atoms: C_11  and  C_35
    2  A    between atoms: C_13  and  C_20
    3  A    between atoms: C_13  and  O_26
    4  A    between atoms: C_19  and  O_26
    5  A    between atoms: C_19  and  C_35
    6  A    between atoms: C_20  and  C_32
    7  A    between atoms: N_25  and  C_34
                            x       y       z     vdW  Elec       q    Type
                         _______ _______ _______ _____ _____    ______ ____

>  <TORSDO>
F 7

$$$$
=
 OpenBabel11062413433D

 35 40  0  0  1  0  0  0  0  0999 V2000
  188.6350  177.2240  147.0510 N   0  0  0  0  0  0  0  0  0  0  0  0
  187.3310  177.9990  143.5550 C   0  0  0  0  0  0  0  0  0  0  0  0
  188.9120  176.7960  138.8950 C   0  0  0  0  0  2  0  0  0  0  0  0
  188.5510  177.9180  141.1060 C   0  0  0  0  0  0  0  0  0  0  0  0
  187.2300  178.2530  141.1780 N   0  0  0  0  0  0  0  0  0  0  0  0
  190.8770  176.6960  146.3540 C   0  0  0  0  0  0  0  0  0  0  0  0
  192.1340  176.3040  146.6720 F   0  0  0  0  0  0  0  0  0  0  0  0
  190.5410  176.9550  145.0160 C   0  0  0  0  0  3  0  0  0  0  0  0
  191.5910  176.7870  139.8000 N   0  0  0  0  0  0  0  0  0  0  0  0
  190.0270  176.3160  137.9380 C   0  0  0  0  0  2  0  0  0  0  0  0
  189.9050  176.8360  147.3630 C   0  0  0  0  0  3  0  0  0  0  0  0
  189.2920  177.6170  142.2310 C   0  0  0  0  0  0  0  0  0  0  0  0
  190.6330  177.2600  141.9350 N   0  0  0  0  0  2  0  0  0  0  0  0
  188.3130  177.4800  145.7590 C   0  0  0  0  0  0  0  0  0  0  0  0
  189.3980  177.8540  139.8870 C   0  0  1  0  0  3  0  0  0  0  0  0
  191.4490  176.7530  138.3470 C   0  0  0  0  0  2  0  0  0  0  0  0
  190.6740  177.3630  140.5110 C   0  0  0  0  0  0  0  0  0  0  0  0
  189.2360  177.3550  144.7300 C   0  0  0  0  0  0  0  0  0  0  0  0
  188.6830  177.6530  143.4830 C   0  0  0  0  0  0  0  0  0  0  0  0
  186.5940  178.2960  142.3900 C   0  0  0  0  0  0  0  0  0  0  0  0
  186.8060  177.9500  145.1660 S   0  0  0  0  0  0  0  0  0  0  0  0
  185.1360  178.6280  142.4410 C   0  0  0  0  0  2  0  0  0  0  0  0
  184.4770  178.4690  141.0760 C   0  0  0  0  0  2  0  0  0  0  0  0
  184.4980  179.6770  140.3750 O   0  0  0  0  0  0  0  0  0  0  0  0
  184.0740  179.3380  139.0890 C   0  0  0  0  0  2  0  0  0  0  0  0
  184.8330  178.1160  138.5990 C   0  0  0  0  0  2  0  0  0  0  0  0
  184.0080  177.3420  137.5810 C   0  0  1  0  0  3  0  0  0  0  0  0
  185.3960  175.3370  136.3410 S   0  0  0  0  0  0  0  0  0  0  0  0
  184.8320  177.0700  136.3270 C   0  0  0  0  0  2  0  0  0  0  0  0
  184.1940  174.9680  137.6000 C   0  0  0  0  0  2  0  0  0  0  0  0
  183.6150  176.0240  138.1420 C   0  0  2  0  0  3  0  0  0  0  0  0
  180.4030  176.1230  140.2190 N   0  0  0  0  0  1  0  0  0  0  0  0
  180.7150  176.5060  137.9550 O   0  0  0  0  0  0  0  0  0  0  0  0
  182.6330  175.9370  139.1840 N   0  0  0  0  0  2  0  0  0  0  0  0
  181.2300  176.2040  139.0640 C   0  0  0  0  0  0  0  0  0  0  0  0
  1 11  1  0  0  0  0
  2 21  1  0  0  0  0
  4  5  2  0  0  0  0
  4 12  1  0  0  0  0
  5 20  1  0  0  0  0
  6  7  1  0  0  0  0
  6 11  2  0  0  0  0
  8  6  1  0  0  0  0
  9 17  2  0  0  0  0
 10 16  1  0  0  0  0
 10  3  1  0  0  0  0
 12 19  2  0  0  0  0
 13 12  1  0  0  0  0
 14  1  2  0  0  0  0
 15  3  1  6  0  0  0
 15 17  1  0  0  0  0
 15  4  1  0  0  0  0
 16  9  1  0  0  0  0
 17 13  1  0  0  0  0
 18  8  2  0  0  0  0
 18 14  1  0  0  0  0
 19  2  1  0  0  0  0
 19 18  1  0  0  0  0
 20 22  1  0  0  0  0
 20  2  2  0  0  0  0
 21 14  1  0  0  0  0
 23 22  1  0  0  0  0
 24 23  1  0  0  0  0
 25 24  1  0  0  0  0
 26 25  1  0  0  0  0
 27 31  1  0  0  0  0
 27 26  1  1  0  0  0
 28 30  1  0  0  0  0
 29 28  1  0  0  0  0
 29 27  1  0  0  0  0
 30 31  1  0  0  0  0
 31 34  1  6  0  0  0
 33 35  2  0  0  0  0
 35 34  1  0  0  0  0
 35 32  1  0  0  0  0
M  END
>  <MODEL>
8

>  <REMARK>
 VINA RESULT:      -8.6      4.234      7.843
  Name = 
  7 active torsions:
  status: ('A' for Active; 'I' for Inactive)
    1  A    between atoms: C_11  and  C_35
    2  A    between atoms: C_13  and  C_20
    3  A    between atoms: C_13  and  O_26
    4  A    between atoms: C_19  and  O_26
    5  A    between atoms: C_19  and  C_35
    6  A    between atoms: C_20  and  C_32
    7  A    between atoms: N_25  and  C_34
                            x       y       z     vdW  Elec       q    Type
                         _______ _______ _______ _____ _____    ______ ____

>  <TORSDO>
F 7

$$$$
=
 OpenBabel11062413433D

 35 40  0  0  1  0  0  0  0  0999 V2000
  188.5910  177.1900  147.0550 N   0  0  0  0  0  0  0  0  0  0  0  0
  187.1690  177.9730  143.6070 C   0  0  0  0  0  0  0  0  0  0  0  0
  188.6660  176.8980  138.8890 C   0  0  0  0  0  2  0  0  0  0  0  0
  188.3250  177.9720  141.1260 C   0  0  0  0  0  0  0  0  0  0  0  0
  186.9950  178.2590  141.2390 N   0  0  0  0  0  0  0  0  0  0  0  0
  190.8310  176.7530  146.2910 C   0  0  0  0  0  0  0  0  0  0  0  0
  192.1090  176.4010  146.5700 F   0  0  0  0  0  0  0  0  0  0  0  0
  190.4500  177.0210  144.9670 C   0  0  0  0  0  3  0  0  0  0  0  0
  191.3660  176.9690  139.7230 N   0  0  0  0  0  0  0  0  0  0  0  0
  189.7710  176.4720  137.8960 C   0  0  0  0  0  2  0  0  0  0  0  0
  189.8830  176.8440  147.3270 C   0  0  0  0  0  3  0  0  0  0  0  0
  189.1050  177.6800  142.2270 C   0  0  0  0  0  0  0  0  0  0  0  0
  190.4490  177.3760  141.8900 N   0  0  0  0  0  2  0  0  0  0  0  0
  188.2260  177.4550  145.7760 C   0  0  0  0  0  0  0  0  0  0  0  0
  189.1410  177.9570  139.8850 C   0  0  1  0  0  3  0  0  0  0  0  0
  191.1870  176.9530  138.2740 C   0  0  0  0  0  2  0  0  0  0  0  0
  190.4490  177.5020  140.4670 C   0  0  0  0  0  0  0  0  0  0  0  0
  189.1260  177.3790  144.7220 C   0  0  0  0  0  0  0  0  0  0  0  0
  188.5290  177.6760  143.4950 C   0  0  0  0  0  0  0  0  0  0  0  0
  186.3910  178.2610  142.4670 C   0  0  0  0  0  0  0  0  0  0  0  0
  186.6880  177.8800  145.2310 S   0  0  0  0  0  0  0  0  0  0  0  0
  184.9240  178.5410  142.5610 C   0  0  0  0  0  2  0  0  0  0  0  0
  184.2120  178.2510  141.2460 C   0  0  0  0  0  2  0  0  0  0  0  0
  183.8120  179.4390  140.6290 O   0  0  0  0  0  0  0  0  0  0  0  0
  183.8580  179.1540  139.2640 C   0  0  0  0  0  2  0  0  0  0  0  0
  182.4600  179.2330  138.6720 C   0  0  0  0  0  2  0  0  0  0  0  0
  181.6740  180.3760  139.2980 C   0  0  1  0  0  3  0  0  0  0  0  0
  179.9500  181.6020  137.5630 S   0  0  0  0  0  0  0  0  0  0  0  0
  181.5990  181.5580  138.3370 C   0  0  0  0  0  2  0  0  0  0  0  0
  179.3450  180.4950  138.8180 C   0  0  0  0  0  2  0  0  0  0  0  0
  180.2790  179.9450  139.5720 C   0  0  2  0  0  3  0  0  0  0  0  0
  179.6830  178.2400  142.9440 N   0  0  0  0  0  1  0  0  0  0  0  0
  180.0560  180.4750  142.4600 O   0  0  0  0  0  0  0  0  0  0  0  0
  179.9960  179.0130  140.6240 N   0  0  0  0  0  2  0  0  0  0  0  0
  179.9190  179.3010  142.0270 C   0  0  0  0  0  0  0  0  0  0  0  0
  1 11  1  0  0  0  0
  2 21  1  0  0  0  0
  4  5  2  0  0  0  0
  4 12  1  0  0  0  0
  5 20  1  0  0  0  0
  6  7  1  0  0  0  0
  6 11  2  0  0  0  0
  8  6  1  0  0  0  0
  9 17  2  0  0  0  0
 10 16  1  0  0  0  0
 10  3  1  0  0  0  0
 12 19  2  0  0  0  0
 13 12  1  0  0  0  0
 14  1  2  0  0  0  0
 15  3  1  6  0  0  0
 15 17  1  0  0  0  0
 15  4  1  0  0  0  0
 16  9  1  0  0  0  0
 17 13  1  0  0  0  0
 18  8  2  0  0  0  0
 18 14  1  0  0  0  0
 19  2  1  0  0  0  0
 19 18  1  0  0  0  0
 20 22  1  0  0  0  0
 20  2  2  0  0  0  0
 21 14  1  0  0  0  0
 23 22  1  0  0  0  0
 24 23  1  0  0  0  0
 25 24  1  0  0  0  0
 26 25  1  0  0  0  0
 27 26  1  6  0  0  0
 27 31  1  0  0  0  0
 28 29  1  0  0  0  0
 28 30  1  0  0  0  0
 29 27  1  0  0  0  0
 30 31  1  0  0  0  0
 31 34  1  1  0  0  0
 34 35  1  0  0  0  0
 35 33  2  0  0  0  0
 35 32  1  0  0  0  0
M  END
>  <MODEL>
9

>  <REMARK>
 VINA RESULT:      -8.6      4.542      9.455
  Name = 
  7 active torsions:
  status: ('A' for Active; 'I' for Inactive)
    1  A    between atoms: C_11  and  C_35
    2  A    between atoms: C_13  and  C_20
    3  A    between atoms: C_13  and  O_26
    4  A    between atoms: C_19  and  O_26
    5  A    between atoms: C_19  and  C_35
    6  A    between atoms: C_20  and  C_32
    7  A    between atoms: N_25  and  C_34
                            x       y       z     vdW  Elec       q    Type
                         _______ _______ _______ _____ _____    ______ ____

>  <TORSDO>
F 7

$$$$
