=
 OpenBabel11062413203D

 30 33  0  0  1  0  0  0  0  0999 V2000
  189.3470  176.9740  147.5900 C   0  0  0  0  0  2  0  0  0  0  0  0
  191.4160  176.6750  146.3170 C   0  0  0  0  0  2  0  0  0  0  0  0
  191.7800  176.4560  144.8730 C   0  0  0  0  0  3  0  0  0  0  0  0
  190.3960  178.4110  144.3000 C   0  0  0  0  0  2  0  0  0  0  0  0
  189.3550  177.9690  145.3410 C   0  0  2  0  0  3  0  0  0  0  0  0
  191.3030  177.2710  143.9220 C   0  0  0  0  0  0  0  0  0  0  0  0
  189.9890  177.1400  146.4370 C   0  0  0  0  0  0  0  0  0  0  0  0
  188.3430  177.2350  144.7170 O   0  0  0  0  0  0  0  0  0  0  0  0
  186.5370  178.6420  145.4430 C   0  0  2  0  0  3  0  0  0  0  0  0
  187.4160  178.1880  144.2840 C   0  0  2  0  0  3  0  0  0  0  0  0
  186.2300  177.5050  143.6420 C   0  0  0  0  0  2  0  0  0  0  0  0
  185.8700  177.5170  146.2030 C   0  0  0  0  0  2  0  0  0  0  0  0
  185.3640  177.8820  144.8250 C   0  0  1  0  0  0  0  0  0  0  0  0
  183.5260  179.1570  145.6490 O   0  0  0  0  0  0  0  0  0  0  0  0
  184.2380  178.8520  144.6540 C   0  0  0  0  0  0  0  0  0  0  0  0
  183.9790  179.4040  143.3970 O   0  0  0  0  0  0  0  0  0  0  0  0
  182.9540  178.9000  142.5540 C   0  0  0  0  0  2  0  0  0  0  0  0
  183.5770  178.2170  141.3550 C   0  0  0  0  0  1  0  0  0  0  0  0
  191.6570  177.0400  142.4950 C   0  0  0  0  0  2  0  0  0  0  0  0
  190.5320  176.5140  141.8050 O   0  0  0  0  0  0  0  0  0  0  0  0
  189.8740  177.2370  140.8090 C   0  0  0  0  0  0  0  0  0  0  0  0
  188.8970  177.9820  141.0910 O   0  0  0  0  0  0  0  0  0  0  0  0
  190.3170  177.1160  139.3880 C   0  0  2  0  0  3  0  0  0  0  0  0
  189.2120  178.6670  137.8430 N   0  0  0  0  0  0  0  0  0  0  0  0
  189.2190  177.5350  138.4610 C   0  0  0  0  0  0  0  0  0  0  0  0
  188.1300  176.6900  138.1330 N   0  0  0  0  0  0  0  0  0  0  0  0
  188.0220  178.6860  137.0080 C   0  0  0  0  0  2  0  0  0  0  0  0
  187.4160  177.3490  137.2830 C   0  0  0  0  0  3  0  0  0  0  0  0
  191.7310  175.9230  138.1700 C   0  0  0  0  0  1  0  0  0  0  0  0
  190.7120  175.8030  139.1160 O   0  0  0  0  0  0  0  0  0  0  0  0
  2  7  1  0  0  0  0
  3  2  1  0  0  0  0
  4  5  1  0  0  0  0
  5  8  1  6  0  0  0
  5  7  1  0  0  0  0
  6  4  1  0  0  0  0
  6  3  2  0  0  0  0
  7  1  2  0  0  0  0
  9 12  1  1  0  0  0
 10  8  1  1  0  0  0
 10  9  1  0  0  0  0
 11 10  1  0  0  0  0
 11 13  1  0  0  0  0
 13 15  1  6  0  0  0
 13  9  1  0  0  0  0
 13 12  1  0  0  0  0
 15 14  2  0  0  0  0
 16 15  1  0  0  0  0
 17 16  1  0  0  0  0
 18 17  1  0  0  0  0
 19  6  1  0  0  0  0
 20 19  1  0  0  0  0
 21 22  2  0  0  0  0
 21 20  1  0  0  0  0
 23 30  1  6  0  0  0
 23 21  1  0  0  0  0
 24 25  2  0  0  0  0
 25 23  1  0  0  0  0
 26 25  1  0  0  0  0
 27 28  1  0  0  0  0
 27 24  1  0  0  0  0
 28 26  2  0  0  0  0
 29 30  1  0  0  0  0
M  END
>  <MODEL>
1

>  <REMARK>
 VINA RESULT:      -7.5      0.000      0.000
  Name = 
  11 active torsions:
  status: ('A' for Active; 'I' for Inactive)
    1  A    between atoms: C_3  and  C_27
    2  A    between atoms: O_4  and  C_8
    3  A    between atoms: O_4  and  C_17
    4  A    between atoms: C_6  and  C_18
    5  A    between atoms: C_6  and  O_22
    6  A    between atoms: O_15  and  C_27
    7  A    between atoms: C_19  and  O_22
    8  A    between atoms: C_19  and  C_27
    9  A    between atoms: O_20  and  C_23
   10  A    between atoms: O_20  and  C_25
   11  A    between atoms: C_23  and  C_29
                            x       y       z     vdW  Elec       q    Type
                         _______ _______ _______ _____ _____    ______ ____

>  <TORSDO>
F 11

$$$$
=
 OpenBabel11062413203D

 30 33  0  0  1  0  0  0  0  0999 V2000
  189.2220  177.5650  148.1530 C   0  0  0  0  0  2  0  0  0  0  0  0
  191.2930  176.7980  147.0970 C   0  0  0  0  0  2  0  0  0  0  0  0
  191.6760  176.1910  145.7740 C   0  0  0  0  0  3  0  0  0  0  0  0
  190.4770  178.0320  144.6610 C   0  0  0  0  0  2  0  0  0  0  0  0
  189.3760  177.9500  145.7290 C   0  0  2  0  0  3  0  0  0  0  0  0
  191.2950  176.7690  144.6260 C   0  0  0  0  0  0  0  0  0  0  0  0
  189.9070  177.3830  147.0270 C   0  0  0  0  0  0  0  0  0  0  0  0
  188.3230  177.1580  145.2620 O   0  0  0  0  0  0  0  0  0  0  0  0
  186.5360  178.7170  145.6470 C   0  0  2  0  0  3  0  0  0  0  0  0
  187.4510  178.0480  144.6280 C   0  0  2  0  0  3  0  0  0  0  0  0
  186.2720  177.2990  144.0500 C   0  0  0  0  0  2  0  0  0  0  0  0
  185.7960  177.7560  146.5510 C   0  0  0  0  0  2  0  0  0  0  0  0
  185.3660  177.8960  145.1080 C   0  0  1  0  0  0  0  0  0  0  0  0
  183.4350  179.2100  145.5770 O   0  0  0  0  0  0  0  0  0  0  0  0
  184.2850  178.8530  144.7180 C   0  0  0  0  0  0  0  0  0  0  0  0
  184.2200  179.3340  143.4080 O   0  0  0  0  0  0  0  0  0  0  0  0
  183.2420  178.8740  142.4880 C   0  0  0  0  0  2  0  0  0  0  0  0
  183.9240  178.1510  141.3460 C   0  0  0  0  0  1  0  0  0  0  0  0
  191.6670  176.1560  143.3220 C   0  0  0  0  0  2  0  0  0  0  0  0
  190.5980  176.3120  142.4010 O   0  0  0  0  0  0  0  0  0  0  0  0
  190.7400  177.0470  141.2230 C   0  0  0  0  0  0  0  0  0  0  0  0
  191.7950  177.6970  140.9910 O   0  0  0  0  0  0  0  0  0  0  0  0
  189.6240  177.0820  140.2300 C   0  0  2  0  0  3  0  0  0  0  0  0
  189.6560  177.0060  137.7800 N   0  0  0  0  0  0  0  0  0  0  0  0
  190.0850  176.5530  138.9080 C   0  0  0  0  0  0  0  0  0  0  0  0
  191.0860  175.5570  138.7900 N   0  0  0  0  0  0  0  0  0  0  0  0
  190.3670  176.2830  136.7370 C   0  0  0  0  0  2  0  0  0  0  0  0
  191.2630  175.3850  137.5230 C   0  0  0  0  0  3  0  0  0  0  0  0
  188.1130  178.4890  141.0330 C   0  0  0  0  0  1  0  0  0  0  0  0
  189.1410  178.3860  140.0940 O   0  0  0  0  0  0  0  0  0  0  0  0
  3  2  1  0  0  0  0
  4  5  1  0  0  0  0
  5  8  1  6  0  0  0
  5  7  1  0  0  0  0
  6  4  1  0  0  0  0
  6  3  2  0  0  0  0
  7  2  1  0  0  0  0
  7  1  2  0  0  0  0
  9 12  1  1  0  0  0
 10  8  1  1  0  0  0
 10  9  1  0  0  0  0
 11 10  1  0  0  0  0
 11 13  1  0  0  0  0
 13 15  1  6  0  0  0
 13  9  1  0  0  0  0
 13 12  1  0  0  0  0
 15 14  2  0  0  0  0
 16 15  1  0  0  0  0
 17 16  1  0  0  0  0
 18 17  1  0  0  0  0
 19  6  1  0  0  0  0
 20 19  1  0  0  0  0
 21 20  1  0  0  0  0
 22 21  2  0  0  0  0
 23 30  1  6  0  0  0
 23 21  1  0  0  0  0
 24 25  2  0  0  0  0
 25 23  1  0  0  0  0
 26 25  1  0  0  0  0
 27 28  1  0  0  0  0
 27 24  1  0  0  0  0
 28 26  2  0  0  0  0
 30 29  1  0  0  0  0
M  END
>  <MODEL>
2

>  <REMARK>
 VINA RESULT:      -7.5      1.248      1.834
  Name = 
  11 active torsions:
  status: ('A' for Active; 'I' for Inactive)
    1  A    between atoms: C_3  and  C_27
    2  A    between atoms: O_4  and  C_8
    3  A    between atoms: O_4  and  C_17
    4  A    between atoms: C_6  and  C_18
    5  A    between atoms: C_6  and  O_22
    6  A    between atoms: O_15  and  C_27
    7  A    between atoms: C_19  and  O_22
    8  A    between atoms: C_19  and  C_27
    9  A    between atoms: O_20  and  C_23
   10  A    between atoms: O_20  and  C_25
   11  A    between atoms: C_23  and  C_29
                            x       y       z     vdW  Elec       q    Type
                         _______ _______ _______ _____ _____    ______ ____

>  <TORSDO>
F 11

$$$$
=
 OpenBabel11062413203D

 30 33  0  0  1  0  0  0  0  0999 V2000
  188.1530  177.8450  147.8070 C   0  0  0  0  0  2  0  0  0  0  0  0
  185.9720  178.6130  147.0040 C   0  0  0  0  0  2  0  0  0  0  0  0
  185.4190  179.1510  145.7110 C   0  0  0  0  0  3  0  0  0  0  0  0
  186.4040  177.2070  144.5630 C   0  0  0  0  0  2  0  0  0  0  0  0
  187.6480  177.3180  145.4580 C   0  0  2  0  0  3  0  0  0  0  0  0
  185.6200  178.4910  144.5620 C   0  0  0  0  0  0  0  0  0  0  0  0
  187.3200  177.9810  146.7790 C   0  0  0  0  0  0  0  0  0  0  0  0
  188.6420  178.0460  144.7980 O   0  0  0  0  0  0  0  0  0  0  0  0
  190.4630  177.0250  143.6100 C   0  0  2  0  0  3  0  0  0  0  0  0
  188.9630  177.2820  143.6710 C   0  0  2  0  0  3  0  0  0  0  0  0
  189.0580  178.1720  142.4520 C   0  0  0  0  0  2  0  0  0  0  0  0
  191.3180  178.2700  143.7060 C   0  0  0  0  0  2  0  0  0  0  0  0
  190.5620  177.9880  142.4280 C   0  0  1  0  0  0  0  0  0  0  0  0
  192.4270  177.4580  141.0420 O   0  0  0  0  0  0  0  0  0  0  0  0
  191.2100  177.2510  141.2990 C   0  0  0  0  0  0  0  0  0  0  0  0
  190.4640  176.3490  140.5360 O   0  0  0  0  0  0  0  0  0  0  0  0
  190.3310  176.4890  139.1290 C   0  0  0  0  0  2  0  0  0  0  0  0
  189.6450  177.8020  138.8160 C   0  0  0  0  0  1  0  0  0  0  0  0
  185.0800  179.0360  143.2850 C   0  0  0  0  0  2  0  0  0  0  0  0
  185.5600  178.2590  142.1970 O   0  0  0  0  0  0  0  0  0  0  0  0
  185.5060  178.7200  140.8810 C   0  0  0  0  0  0  0  0  0  0  0  0
  186.5630  178.9240  140.2250 O   0  0  0  0  0  0  0  0  0  0  0  0
  184.1840  178.9940  140.2430 C   0  0  2  0  0  3  0  0  0  0  0  0
  182.6930  177.0480  140.1820 N   0  0  0  0  0  0  0  0  0  0  0  0
  183.6300  177.7440  139.6340 C   0  0  0  0  0  0  0  0  0  0  0  0
  184.0430  177.2620  138.3670 N   0  0  0  0  0  0  0  0  0  0  0  0
  182.3960  175.9510  139.2750 C   0  0  0  0  0  2  0  0  0  0  0  0
  183.3310  176.2100  138.1410 C   0  0  0  0  0  3  0  0  0  0  0  0
  183.0030  180.3260  138.9260 C   0  0  0  0  0  1  0  0  0  0  0  0
  184.3130  179.9940  139.2760 O   0  0  0  0  0  0  0  0  0  0  0  0
  3  2  1  0  0  0  0
  4  5  1  0  0  0  0
  5  8  1  6  0  0  0
  5  7  1  0  0  0  0
  6  4  1  0  0  0  0
  6  3  2  0  0  0  0
  7  2  1  0  0  0  0
  7  1  2  0  0  0  0
  9 10  1  0  0  0  0
  9 12  1  1  0  0  0
 10  8  1  1  0  0  0
 11 10  1  0  0  0  0
 13 15  1  6  0  0  0
 13 11  1  0  0  0  0
 13  9  1  0  0  0  0
 13 12  1  0  0  0  0
 14 15  2  0  0  0  0
 16 15  1  0  0  0  0
 17 16  1  0  0  0  0
 18 17  1  0  0  0  0
 19  6  1  0  0  0  0
 20 19  1  0  0  0  0
 21 20  1  0  0  0  0
 22 21  2  0  0  0  0
 23 30  1  6  0  0  0
 23 21  1  0  0  0  0
 25 24  2  0  0  0  0
 25 23  1  0  0  0  0
 26 25  1  0  0  0  0
 27 24  1  0  0  0  0
 28 26  2  0  0  0  0
 28 27  1  0  0  0  0
 29 30  1  0  0  0  0
M  END
>  <MODEL>
3

>  <REMARK>
 VINA RESULT:      -7.4      2.328      5.936
  Name = 
  11 active torsions:
  status: ('A' for Active; 'I' for Inactive)
    1  A    between atoms: C_3  and  C_27
    2  A    between atoms: O_4  and  C_8
    3  A    between atoms: O_4  and  C_17
    4  A    between atoms: C_6  and  C_18
    5  A    between atoms: C_6  and  O_22
    6  A    between atoms: O_15  and  C_27
    7  A    between atoms: C_19  and  O_22
    8  A    between atoms: C_19  and  C_27
    9  A    between atoms: O_20  and  C_23
   10  A    between atoms: O_20  and  C_25
   11  A    between atoms: C_23  and  C_29
                            x       y       z     vdW  Elec       q    Type
                         _______ _______ _______ _____ _____    ______ ____

>  <TORSDO>
F 11

$$$$
=
 OpenBabel11062413203D

 30 33  0  0  1  0  0  0  0  0999 V2000
  185.0270  178.6450  146.9400 C   0  0  0  0  0  2  0  0  0  0  0  0
  184.2700  179.0930  144.6550 C   0  0  0  0  0  2  0  0  0  0  0  0
  184.9270  179.3240  143.3200 C   0  0  0  0  0  3  0  0  0  0  0  0
  186.2220  177.2600  143.6780 C   0  0  0  0  0  2  0  0  0  0  0  0
  186.3870  177.6290  145.1600 C   0  0  2  0  0  3  0  0  0  0  0  0
  185.8450  178.4640  142.8580 C   0  0  0  0  0  0  0  0  0  0  0  0
  185.2580  178.5180  145.6360 C   0  0  0  0  0  0  0  0  0  0  0  0
  187.6110  178.2750  145.3540 O   0  0  0  0  0  0  0  0  0  0  0  0
  188.9900  176.7590  146.6070 C   0  0  2  0  0  3  0  0  0  0  0  0
  188.5750  177.2690  145.2330 C   0  0  2  0  0  3  0  0  0  0  0  0
  189.9440  177.8820  145.0390 C   0  0  0  0  0  2  0  0  0  0  0  0
  189.4260  177.8390  147.5730 C   0  0  0  0  0  2  0  0  0  0  0  0
  190.3420  177.4490  146.4350 C   0  0  1  0  0  0  0  0  0  0  0  0
  192.0670  176.0150  145.6310 O   0  0  0  0  0  0  0  0  0  0  0  0
  191.4050  176.4140  146.6260 C   0  0  0  0  0  0  0  0  0  0  0  0
  191.6480  175.8930  147.9000 O   0  0  0  0  0  0  0  0  0  0  0  0
  192.9670  175.7130  148.3960 C   0  0  0  0  0  2  0  0  0  0  0  0
  193.2650  176.7760  149.4320 C   0  0  0  0  0  1  0  0  0  0  0  0
  186.4990  178.7070  141.5420 C   0  0  0  0  0  2  0  0  0  0  0  0
  187.9100  178.6970  141.7040 O   0  0  0  0  0  0  0  0  0  0  0  0
  188.6990  177.6450  141.2360 C   0  0  0  0  0  0  0  0  0  0  0  0
  188.7400  176.5460  141.8520 O   0  0  0  0  0  0  0  0  0  0  0  0
  189.5190  177.8240  140.0010 C   0  0  2  0  0  3  0  0  0  0  0  0
  188.1240  178.8170  138.2460 N   0  0  0  0  0  0  0  0  0  0  0  0
  188.6490  177.7690  138.7850 C   0  0  0  0  0  0  0  0  0  0  0  0
  188.3880  176.5650  138.0840 N   0  0  0  0  0  0  0  0  0  0  0  0
  187.3970  178.3680  137.0690 C   0  0  0  0  0  2  0  0  0  0  0  0
  187.6540  176.8970  137.0750 C   0  0  0  0  0  3  0  0  0  0  0  0
  191.6730  177.4800  140.3820 C   0  0  0  0  0  1  0  0  0  0  0  0
  190.5130  176.8440  139.9370 O   0  0  0  0  0  0  0  0  0  0  0  0
  2  7  1  0  0  0  0
  3  2  1  0  0  0  0
  4  5  1  0  0  0  0
  5  8  1  6  0  0  0
  5  7  1  0  0  0  0
  6  3  2  0  0  0  0
  6  4  1  0  0  0  0
  7  1  2  0  0  0  0
  9 12  1  1  0  0  0
 10  8  1  1  0  0  0
 10  9  1  0  0  0  0
 11 10  1  0  0  0  0
 11 13  1  0  0  0  0
 13  9  1  0  0  0  0
 13 15  1  1  0  0  0
 13 12  1  0  0  0  0
 14 15  2  0  0  0  0
 15 16  1  0  0  0  0
 16 17  1  0  0  0  0
 17 18  1  0  0  0  0
 19 20  1  0  0  0  0
 19  6  1  0  0  0  0
 21 20  1  0  0  0  0
 21 22  2  0  0  0  0
 23 30  1  6  0  0  0
 23 21  1  0  0  0  0
 24 25  2  0  0  0  0
 25 23  1  0  0  0  0
 26 25  1  0  0  0  0
 27 28  1  0  0  0  0
 27 24  1  0  0  0  0
 28 26  2  0  0  0  0
 30 29  1  0  0  0  0
M  END
>  <MODEL>
4

>  <REMARK>
 VINA RESULT:      -7.3      1.784      5.476
  Name = 
  11 active torsions:
  status: ('A' for Active; 'I' for Inactive)
    1  A    between atoms: C_3  and  C_27
    2  A    between atoms: O_4  and  C_8
    3  A    between atoms: O_4  and  C_17
    4  A    between atoms: C_6  and  C_18
    5  A    between atoms: C_6  and  O_22
    6  A    between atoms: O_15  and  C_27
    7  A    between atoms: C_19  and  O_22
    8  A    between atoms: C_19  and  C_27
    9  A    between atoms: O_20  and  C_23
   10  A    between atoms: O_20  and  C_25
   11  A    between atoms: C_23  and  C_29
                            x       y       z     vdW  Elec       q    Type
                         _______ _______ _______ _____ _____    ______ ____

>  <TORSDO>
F 11

$$$$
=
 OpenBabel11062413203D

 30 33  0  0  1  0  0  0  0  0999 V2000
  185.2160  178.3190  147.0990 C   0  0  0  0  0  2  0  0  0  0  0  0
  184.0260  178.9200  145.0470 C   0  0  0  0  0  2  0  0  0  0  0  0
  184.4080  179.3820  143.6660 C   0  0  0  0  0  3  0  0  0  0  0  0
  185.9590  177.4740  143.5330 C   0  0  0  0  0  2  0  0  0  0  0  0
  186.3420  177.6910  145.0050 C   0  0  2  0  0  3  0  0  0  0  0  0
  185.3160  178.7040  142.9510 C   0  0  0  0  0  0  0  0  0  0  0  0
  185.2270  178.3700  145.7700 C   0  0  0  0  0  0  0  0  0  0  0  0
  187.5050  178.4620  145.0820 O   0  0  0  0  0  0  0  0  0  0  0  0
  188.9350  176.9930  146.3340 C   0  0  2  0  0  3  0  0  0  0  0  0
  188.5560  177.5470  144.9660 C   0  0  2  0  0  3  0  0  0  0  0  0
  189.8770  178.2790  144.8890 C   0  0  0  0  0  2  0  0  0  0  0  0
  189.2230  178.0470  147.3800 C   0  0  0  0  0  2  0  0  0  0  0  0
  190.2320  177.8000  146.2810 C   0  0  1  0  0  0  0  0  0  0  0  0
  191.7340  176.1120  145.5240 O   0  0  0  0  0  0  0  0  0  0  0  0
  191.3650  176.8450  146.4810 C   0  0  0  0  0  0  0  0  0  0  0  0
  191.9980  176.7650  147.7240 O   0  0  0  0  0  0  0  0  0  0  0  0
  192.7760  175.6380  148.0980 C   0  0  0  0  0  2  0  0  0  0  0  0
  193.5080  175.9370  149.3890 C   0  0  0  0  0  1  0  0  0  0  0  0
  185.6990  179.1740  141.5910 C   0  0  0  0  0  2  0  0  0  0  0  0
  184.7260  178.7450  140.6490 O   0  0  0  0  0  0  0  0  0  0  0  0
  184.8660  178.9880  139.2820 C   0  0  0  0  0  0  0  0  0  0  0  0
  184.4880  180.0800  138.7780 O   0  0  0  0  0  0  0  0  0  0  0  0
  185.4540  177.9380  138.3980 C   0  0  2  0  0  3  0  0  0  0  0  0
  187.8570  177.8010  138.8670 N   0  0  0  0  0  0  0  0  0  0  0  0
  186.8960  178.2340  138.1240 C   0  0  0  0  0  0  0  0  0  0  0  0
  187.3260  178.9560  136.9840 N   0  0  0  0  0  0  0  0  0  0  0  0
  189.0980  178.2490  138.2560 C   0  0  0  0  0  2  0  0  0  0  0  0
  188.6150  178.9770  137.0460 C   0  0  0  0  0  3  0  0  0  0  0  0
  184.6680  176.4920  136.9160 C   0  0  0  0  0  1  0  0  0  0  0  0
  184.7360  177.8570  137.2020 O   0  0  0  0  0  0  0  0  0  0  0  0
  2  7  1  0  0  0  0
  3  2  1  0  0  0  0
  4  5  1  0  0  0  0
  5  8  1  6  0  0  0
  5  7  1  0  0  0  0
  6  4  1  0  0  0  0
  6  3  2  0  0  0  0
  7  1  2  0  0  0  0
  9 12  1  1  0  0  0
 10  8  1  1  0  0  0
 10  9  1  0  0  0  0
 11 10  1  0  0  0  0
 11 13  1  0  0  0  0
 13  9  1  0  0  0  0
 13 15  1  1  0  0  0
 13 12  1  0  0  0  0
 14 15  2  0  0  0  0
 15 16  1  0  0  0  0
 16 17  1  0  0  0  0
 17 18  1  0  0  0  0
 19  6  1  0  0  0  0
 20 19  1  0  0  0  0
 21 20  1  0  0  0  0
 22 21  2  0  0  0  0
 23 30  1  6  0  0  0
 23 21  1  0  0  0  0
 25 23  1  0  0  0  0
 25 24  2  0  0  0  0
 26 28  2  0  0  0  0
 26 25  1  0  0  0  0
 27 24  1  0  0  0  0
 28 27  1  0  0  0  0
 29 30  1  0  0  0  0
M  END
>  <MODEL>
5

>  <REMARK>
 VINA RESULT:      -7.2      2.388      6.117
  Name = 
  11 active torsions:
  status: ('A' for Active; 'I' for Inactive)
    1  A    between atoms: C_3  and  C_27
    2  A    between atoms: O_4  and  C_8
    3  A    between atoms: O_4  and  C_17
    4  A    between atoms: C_6  and  C_18
    5  A    between atoms: C_6  and  O_22
    6  A    between atoms: O_15  and  C_27
    7  A    between atoms: C_19  and  O_22
    8  A    between atoms: C_19  and  C_27
    9  A    between atoms: O_20  and  C_23
   10  A    between atoms: O_20  and  C_25
   11  A    between atoms: C_23  and  C_29
                            x       y       z     vdW  Elec       q    Type
                         _______ _______ _______ _____ _____    ______ ____

>  <TORSDO>
F 11

$$$$
=
 OpenBabel11062413203D

 30 33  0  0  1  0  0  0  0  0999 V2000
  185.4210  178.3270  147.0250 C   0  0  0  0  0  2  0  0  0  0  0  0
  184.1230  178.9910  145.0590 C   0  0  0  0  0  2  0  0  0  0  0  0
  184.4310  179.4770  143.6680 C   0  0  0  0  0  3  0  0  0  0  0  0
  185.9380  177.5460  143.4040 C   0  0  0  0  0  2  0  0  0  0  0  0
  186.4110  177.7260  144.8550 C   0  0  2  0  0  3  0  0  0  0  0  0
  185.2840  178.7990  142.8870 C   0  0  0  0  0  0  0  0  0  0  0  0
  185.3540  178.4060  145.6990 C   0  0  0  0  0  0  0  0  0  0  0  0
  187.5900  178.4760  144.8790 O   0  0  0  0  0  0  0  0  0  0  0  0
  189.1080  176.7500  145.5750 C   0  0  2  0  0  3  0  0  0  0  0  0
  188.5850  177.6040  144.4270 C   0  0  2  0  0  3  0  0  0  0  0  0
  189.9110  178.3250  144.3480 C   0  0  0  0  0  2  0  0  0  0  0  0
  189.5610  177.5360  146.7860 C   0  0  0  0  0  2  0  0  0  0  0  0
  190.4170  177.5380  145.5390 C   0  0  1  0  0  0  0  0  0  0  0  0
  191.6390  175.9180  144.2900 O   0  0  0  0  0  0  0  0  0  0  0  0
  191.5310  176.5550  145.3730 C   0  0  0  0  0  0  0  0  0  0  0  0
  192.4350  176.3430  146.4170 O   0  0  0  0  0  0  0  0  0  0  0  0
  192.1430  175.4660  147.4950 C   0  0  0  0  0  2  0  0  0  0  0  0
  192.8060  175.9790  148.7550 C   0  0  0  0  0  1  0  0  0  0  0  0
  185.5940  179.2920  141.5160 C   0  0  0  0  0  2  0  0  0  0  0  0
  186.9490  179.0040  141.2030 O   0  0  0  0  0  0  0  0  0  0  0  0
  187.3240  178.4780  139.9660 C   0  0  0  0  0  0  0  0  0  0  0  0
  186.4690  178.2870  139.0600 O   0  0  0  0  0  0  0  0  0  0  0  0
  188.7520  178.1200  139.7140 C   0  0  2  0  0  3  0  0  0  0  0  0
  189.1390  178.6060  137.3420 N   0  0  0  0  0  0  0  0  0  0  0  0
  188.9500  177.7410  138.2790 C   0  0  0  0  0  0  0  0  0  0  0  0
  189.0150  176.3940  137.8450 N   0  0  0  0  0  0  0  0  0  0  0  0
  189.3370  177.8590  136.1100 C   0  0  0  0  0  2  0  0  0  0  0  0
  189.2410  176.4440  136.5750 C   0  0  0  0  0  3  0  0  0  0  0  0
  190.4680  177.3560  140.8880 C   0  0  0  0  0  1  0  0  0  0  0  0
  189.1420  177.0740  140.5540 O   0  0  0  0  0  0  0  0  0  0  0  0
  2  7  1  0  0  0  0
  3  2  1  0  0  0  0
  4  5  1  0  0  0  0
  5  8  1  6  0  0  0
  5  7  1  0  0  0  0
  6  4  1  0  0  0  0
  6  3  2  0  0  0  0
  7  1  2  0  0  0  0
  9 12  1  1  0  0  0
 10  8  1  1  0  0  0
 10  9  1  0  0  0  0
 11 10  1  0  0  0  0
 11 13  1  0  0  0  0
 13 15  1  6  0  0  0
 13  9  1  0  0  0  0
 13 12  1  0  0  0  0
 14 15  2  0  0  0  0
 15 16  1  0  0  0  0
 16 17  1  0  0  0  0
 17 18  1  0  0  0  0
 19  6  1  0  0  0  0
 20 19  1  0  0  0  0
 21 20  1  0  0  0  0
 22 21  2  0  0  0  0
 23 21  1  6  0  0  0
 23 30  1  0  0  0  0
 24 25  2  0  0  0  0
 25 23  1  0  0  0  0
 26 25  1  0  0  0  0
 27 28  1  0  0  0  0
 27 24  1  0  0  0  0
 28 26  2  0  0  0  0
 30 29  1  0  0  0  0
M  END
>  <MODEL>
6

>  <REMARK>
 VINA RESULT:      -7.2      1.787      5.503
  Name = 
  11 active torsions:
  status: ('A' for Active; 'I' for Inactive)
    1  A    between atoms: C_3  and  C_27
    2  A    between atoms: O_4  and  C_8
    3  A    between atoms: O_4  and  C_17
    4  A    between atoms: C_6  and  C_18
    5  A    between atoms: C_6  and  O_22
    6  A    between atoms: O_15  and  C_27
    7  A    between atoms: C_19  and  O_22
    8  A    between atoms: C_19  and  C_27
    9  A    between atoms: O_20  and  C_23
   10  A    between atoms: O_20  and  C_25
   11  A    between atoms: C_23  and  C_29
                            x       y       z     vdW  Elec       q    Type
                         _______ _______ _______ _____ _____    ______ ____

>  <TORSDO>
F 11

$$$$
=
 OpenBabel11062413203D

 30 33  0  0  1  0  0  0  0  0999 V2000
  184.5020  178.5850  145.8230 C   0  0  0  0  0  2  0  0  0  0  0  0
  184.4770  178.9940  143.4100 C   0  0  0  0  0  2  0  0  0  0  0  0
  185.5070  179.2260  142.3380 C   0  0  0  0  0  3  0  0  0  0  0  0
  186.6670  177.1950  143.1090 C   0  0  0  0  0  2  0  0  0  0  0  0
  186.3610  177.5820  144.5640 C   0  0  2  0  0  3  0  0  0  0  0  0
  186.5380  178.3820  142.1930 C   0  0  0  0  0  0  0  0  0  0  0  0
  185.1250  178.4500  144.6560 C   0  0  0  0  0  0  0  0  0  0  0  0
  187.4550  178.2560  145.1140 O   0  0  0  0  0  0  0  0  0  0  0  0
  188.9630  176.8920  146.3940 C   0  0  2  0  0  3  0  0  0  0  0  0
  188.5230  177.3590  145.0120 C   0  0  2  0  0  3  0  0  0  0  0  0
  189.8220  178.1150  144.8460 C   0  0  0  0  0  2  0  0  0  0  0  0
  189.2610  178.0100  147.3690 C   0  0  0  0  0  2  0  0  0  0  0  0
  190.2360  177.7230  146.2490 C   0  0  1  0  0  0  0  0  0  0  0  0
  191.8100  176.0950  145.5050 O   0  0  0  0  0  0  0  0  0  0  0  0
  191.3990  176.8070  146.4610 C   0  0  0  0  0  0  0  0  0  0  0  0
  192.0140  176.7400  147.7140 O   0  0  0  0  0  0  0  0  0  0  0  0
  192.8150  175.6320  148.0970 C   0  0  0  0  0  2  0  0  0  0  0  0
  193.3810  175.8740  149.4800 C   0  0  0  0  0  1  0  0  0  0  0  0
  187.5600  178.6250  141.1380 C   0  0  0  0  0  2  0  0  0  0  0  0
  188.8100  178.0950  141.5560 O   0  0  0  0  0  0  0  0  0  0  0  0
  189.5140  177.1700  140.7840 C   0  0  0  0  0  0  0  0  0  0  0  0
  190.2220  176.2810  141.3290 O   0  0  0  0  0  0  0  0  0  0  0  0
  189.4440  177.2400  139.2940 C   0  0  2  0  0  3  0  0  0  0  0  0
  190.3210  175.2830  138.1050 N   0  0  0  0  0  0  0  0  0  0  0  0
  190.5340  176.4170  138.6810 C   0  0  0  0  0  0  0  0  0  0  0  0
  191.8810  176.8530  138.6220 N   0  0  0  0  0  0  0  0  0  0  0  0
  191.6030  174.8200  137.5970 C   0  0  0  0  0  2  0  0  0  0  0  0
  192.5230  175.9280  137.9910 C   0  0  0  0  0  3  0  0  0  0  0  0
  188.8540  178.6030  137.6510 C   0  0  0  0  0  1  0  0  0  0  0  0
  189.5350  178.5680  138.8690 O   0  0  0  0  0  0  0  0  0  0  0  0
  2  7  1  0  0  0  0
  3  2  1  0  0  0  0
  4  5  1  0  0  0  0
  5  7  1  0  0  0  0
  5  8  1  6  0  0  0
  6  3  2  0  0  0  0
  6  4  1  0  0  0  0
  7  1  2  0  0  0  0
  9 12  1  1  0  0  0
 10  8  1  1  0  0  0
 10  9  1  0  0  0  0
 11 10  1  0  0  0  0
 11 13  1  0  0  0  0
 13  9  1  0  0  0  0
 13 15  1  1  0  0  0
 13 12  1  0  0  0  0
 14 15  2  0  0  0  0
 15 16  1  0  0  0  0
 16 17  1  0  0  0  0
 17 18  1  0  0  0  0
 19 20  1  0  0  0  0
 19  6  1  0  0  0  0
 21 22  2  0  0  0  0
 21 20  1  0  0  0  0
 23 30  1  1  0  0  0
 23 21  1  0  0  0  0
 24 25  2  0  0  0  0
 25 23  1  0  0  0  0
 26 25  1  0  0  0  0
 27 28  1  0  0  0  0
 27 24  1  0  0  0  0
 28 26  2  0  0  0  0
 29 30  1  0  0  0  0
M  END
>  <MODEL>
7

>  <REMARK>
 VINA RESULT:      -7.1      1.946      5.691
  Name = 
  11 active torsions:
  status: ('A' for Active; 'I' for Inactive)
    1  A    between atoms: C_3  and  C_27
    2  A    between atoms: O_4  and  C_8
    3  A    between atoms: O_4  and  C_17
    4  A    between atoms: C_6  and  C_18
    5  A    between atoms: C_6  and  O_22
    6  A    between atoms: O_15  and  C_27
    7  A    between atoms: C_19  and  O_22
    8  A    between atoms: C_19  and  C_27
    9  A    between atoms: O_20  and  C_23
   10  A    between atoms: O_20  and  C_25
   11  A    between atoms: C_23  and  C_29
                            x       y       z     vdW  Elec       q    Type
                         _______ _______ _______ _____ _____    ______ ____

>  <TORSDO>
F 11

$$$$
=
 OpenBabel11062413203D

 30 33  0  0  1  0  0  0  0  0999 V2000
  184.2290  178.8930  145.4760 C   0  0  0  0  0  2  0  0  0  0  0  0
  184.5550  179.0940  143.0590 C   0  0  0  0  0  2  0  0  0  0  0  0
  185.7330  179.1880  142.1260 C   0  0  0  0  0  3  0  0  0  0  0  0
  186.6610  177.1800  143.2100 C   0  0  0  0  0  2  0  0  0  0  0  0
  186.1830  177.7040  144.5730 C   0  0  2  0  0  3  0  0  0  0  0  0
  186.7250  178.2890  142.1940 C   0  0  0  0  0  0  0  0  0  0  0  0
  184.9970  178.6310  144.4220 C   0  0  0  0  0  0  0  0  0  0  0  0
  187.2280  178.3730  145.2160 O   0  0  0  0  0  0  0  0  0  0  0  0
  188.7100  176.8210  146.2950 C   0  0  2  0  0  3  0  0  0  0  0  0
  188.3530  177.5670  145.0150 C   0  0  2  0  0  3  0  0  0  0  0  0
  189.6130  178.3950  145.1380 C   0  0  0  0  0  2  0  0  0  0  0  0
  188.8620  177.7030  147.5150 C   0  0  0  0  0  2  0  0  0  0  0  0
  189.9380  177.7150  146.4530 C   0  0  1  0  0  0  0  0  0  0  0  0
  191.3830  176.2530  147.6580 O   0  0  0  0  0  0  0  0  0  0  0  0
  191.1340  176.8240  146.5620 C   0  0  0  0  0  0  0  0  0  0  0  0
  191.9680  176.6390  145.4560 O   0  0  0  0  0  0  0  0  0  0  0  0
  191.7370  175.6080  144.5070 C   0  0  0  0  0  2  0  0  0  0  0  0
  191.4080  176.2240  143.1640 C   0  0  0  0  0  1  0  0  0  0  0  0
  187.8920  178.3960  141.2770 C   0  0  0  0  0  2  0  0  0  0  0  0
  187.4370  178.6270  139.9520 O   0  0  0  0  0  0  0  0  0  0  0  0
  188.2430  178.3770  138.8400 C   0  0  0  0  0  0  0  0  0  0  0  0
  188.7670  179.3250  138.1970 O   0  0  0  0  0  0  0  0  0  0  0  0
  188.4770  176.9710  138.3940 C   0  0  2  0  0  3  0  0  0  0  0  0
  190.5270  175.8590  137.6360 N   0  0  0  0  0  0  0  0  0  0  0  0
  189.9320  176.6310  138.4800 C   0  0  0  0  0  0  0  0  0  0  0  0
  190.7910  177.1870  139.4600 N   0  0  0  0  0  0  0  0  0  0  0  0
  191.9280  175.8120  138.0200 C   0  0  0  0  0  2  0  0  0  0  0  0
  191.9660  176.7170  139.2070 C   0  0  0  0  0  3  0  0  0  0  0  0
  186.9910  175.8480  137.1950 C   0  0  0  0  0  1  0  0  0  0  0  0
  188.0100  176.7960  137.0880 O   0  0  0  0  0  0  0  0  0  0  0  0
  2  7  1  0  0  0  0
  3  6  2  0  0  0  0
  3  2  1  0  0  0  0
  4  5  1  0  0  0  0
  5  8  1  6  0  0  0
  6  4  1  0  0  0  0
  7  5  1  0  0  0  0
  7  1  2  0  0  0  0
  9 13  1  0  0  0  0
  9 12  1  1  0  0  0
 10 11  1  0  0  0  0
 10  8  1  1  0  0  0
 10  9  1  0  0  0  0
 11 13  1  0  0  0  0
 13 15  1  1  0  0  0
 13 12  1  0  0  0  0
 15 14  2  0  0  0  0
 16 15  1  0  0  0  0
 17 16  1  0  0  0  0
 18 17  1  0  0  0  0
 19  6  1  0  0  0  0
 20 19  1  0  0  0  0
 21 20  1  0  0  0  0
 22 21  2  0  0  0  0
 23 30  1  6  0  0  0
 23 25  1  0  0  0  0
 23 21  1  0  0  0  0
 24 27  1  0  0  0  0
 24 25  2  0  0  0  0
 25 26  1  0  0  0  0
 27 28  1  0  0  0  0
 28 26  2  0  0  0  0
 30 29  1  0  0  0  0
M  END
>  <MODEL>
8

>  <REMARK>
 VINA RESULT:      -7.1      1.947      5.239
  Name = 
  11 active torsions:
  status: ('A' for Active; 'I' for Inactive)
    1  A    between atoms: C_3  and  C_27
    2  A    between atoms: O_4  and  C_8
    3  A    between atoms: O_4  and  C_17
    4  A    between atoms: C_6  and  C_18
    5  A    between atoms: C_6  and  O_22
    6  A    between atoms: O_15  and  C_27
    7  A    between atoms: C_19  and  O_22
    8  A    between atoms: C_19  and  C_27
    9  A    between atoms: O_20  and  C_23
   10  A    between atoms: O_20  and  C_25
   11  A    between atoms: C_23  and  C_29
                            x       y       z     vdW  Elec       q    Type
                         _______ _______ _______ _____ _____    ______ ____

>  <TORSDO>
F 11

$$$$
=
 OpenBabel11062413203D

 30 33  0  0  1  0  0  0  0  0999 V2000
  187.9570  177.9490  148.0350 C   0  0  0  0  0  2  0  0  0  0  0  0
  185.8500  178.6930  147.0350 C   0  0  0  0  0  2  0  0  0  0  0  0
  185.4010  179.1700  145.6800 C   0  0  0  0  0  3  0  0  0  0  0  0
  186.4470  177.1640  144.7050 C   0  0  0  0  0  2  0  0  0  0  0  0
  187.6220  177.3100  145.6840 C   0  0  2  0  0  3  0  0  0  0  0  0
  185.6790  178.4530  144.5820 C   0  0  0  0  0  0  0  0  0  0  0  0
  187.2040  178.0400  146.9430 C   0  0  0  0  0  0  0  0  0  0  0  0
  188.6700  177.9960  145.0650 O   0  0  0  0  0  0  0  0  0  0  0  0
  190.5130  177.0400  143.8570 C   0  0  2  0  0  3  0  0  0  0  0  0
  189.0030  177.2220  143.9490 C   0  0  2  0  0  3  0  0  0  0  0  0
  189.0230  178.0830  142.7070 C   0  0  0  0  0  2  0  0  0  0  0  0
  191.3040  178.3290  143.9000 C   0  0  0  0  0  2  0  0  0  0  0  0
  190.5330  177.9750  142.6490 C   0  0  1  0  0  0  0  0  0  0  0  0
  192.4200  177.4200  141.3040 O   0  0  0  0  0  0  0  0  0  0  0  0
  191.1910  177.2440  141.5230 C   0  0  0  0  0  0  0  0  0  0  0  0
  190.4410  176.3820  140.7190 O   0  0  0  0  0  0  0  0  0  0  0  0
  190.3470  176.5590  139.3140 C   0  0  0  0  0  2  0  0  0  0  0  0
  189.6410  177.8650  139.0160 C   0  0  0  0  0  1  0  0  0  0  0  0
  185.2420  178.9370  143.2440 C   0  0  0  0  0  2  0  0  0  0  0  0
  184.1360  178.1660  142.7980 O   0  0  0  0  0  0  0  0  0  0  0  0
  182.8600  178.7160  142.6620 C   0  0  0  0  0  0  0  0  0  0  0  0
  182.3310  179.3600  143.6080 O   0  0  0  0  0  0  0  0  0  0  0  0
  182.1020  178.5280  141.3900 C   0  0  2  0  0  3  0  0  0  0  0  0
  183.7480  179.5440  139.8830 N   0  0  0  0  0  0  0  0  0  0  0  0
  183.0360  178.5220  140.2210 C   0  0  0  0  0  0  0  0  0  0  0  0
  183.2680  177.3690  139.4310 N   0  0  0  0  0  0  0  0  0  0  0  0
  184.5550  179.1380  138.7430 C   0  0  0  0  0  2  0  0  0  0  0  0
  184.1550  177.7120  138.5580 C   0  0  0  0  0  3  0  0  0  0  0  0
  180.1330  178.9630  140.4710 C   0  0  0  0  0  1  0  0  0  0  0  0
  181.1440  179.5350  141.2460 O   0  0  0  0  0  0  0  0  0  0  0  0
  3  2  1  0  0  0  0
  4  5  1  0  0  0  0
  5  8  1  6  0  0  0
  5  7  1  0  0  0  0
  6  4  1  0  0  0  0
  6  3  2  0  0  0  0
  7  2  1  0  0  0  0
  7  1  2  0  0  0  0
  9 12  1  1  0  0  0
  9 10  1  0  0  0  0
 10  8  1  1  0  0  0
 11 10  1  0  0  0  0
 13 15  1  6  0  0  0
 13 11  1  0  0  0  0
 13  9  1  0  0  0  0
 13 12  1  0  0  0  0
 14 15  2  0  0  0  0
 16 15  1  0  0  0  0
 17 16  1  0  0  0  0
 18 17  1  0  0  0  0
 19  6  1  0  0  0  0
 20 19  1  0  0  0  0
 21 20  1  0  0  0  0
 21 22  2  0  0  0  0
 23 30  1  6  0  0  0
 23 21  1  0  0  0  0
 24 25  2  0  0  0  0
 25 23  1  0  0  0  0
 26 25  1  0  0  0  0
 27 24  1  0  0  0  0
 28 27  1  0  0  0  0
 28 26  2  0  0  0  0
 29 30  1  0  0  0  0
M  END
>  <MODEL>
9

>  <REMARK>
 VINA RESULT:      -7.0      2.187      6.439
  Name = 
  11 active torsions:
  status: ('A' for Active; 'I' for Inactive)
    1  A    between atoms: C_3  and  C_27
    2  A    between atoms: O_4  and  C_8
    3  A    between atoms: O_4  and  C_17
    4  A    between atoms: C_6  and  C_18
    5  A    between atoms: C_6  and  O_22
    6  A    between atoms: O_15  and  C_27
    7  A    between atoms: C_19  and  O_22
    8  A    between atoms: C_19  and  C_27
    9  A    between atoms: O_20  and  C_23
   10  A    between atoms: O_20  and  C_25
   11  A    between atoms: C_23  and  C_29
                            x       y       z     vdW  Elec       q    Type
                         _______ _______ _______ _____ _____    ______ ____

>  <TORSDO>
F 11

$$$$
