=
 OpenBabel11062412163D

 69 73  0  0  1  0  0  0  0  0999 V2000
  186.9960  177.5570  137.2030 C   0  0  1  0  0  3  0  0  0  0  0  0
  187.6960  177.7020  139.3840 C   0  0  0  0  0  0  0  0  0  0  0  0
  189.2960  177.6520  136.2190 C   0  0  0  0  0  1  0  0  0  0  0  0
  187.6260  177.9330  140.6200 O   0  0  0  0  0  0  0  0  0  0  0  0
  186.6080  177.7880  138.5450 O   0  0  0  0  0  0  0  0  0  0  0  0
  188.9450  177.3550  138.6710 C   0  0  2  0  0  3  0  0  0  0  0  0
  188.4280  177.0070  137.2780 C   0  0  1  0  0  3  0  0  0  0  0  0
  186.0190  176.6070  136.5150 C   0  0  2  0  0  3  0  0  0  0  0  0
  185.1190  177.3060  135.7070 O   0  0  0  0  0  1  0  0  0  0  0  0
  185.2670  175.7690  137.5340 C   0  0  0  0  0  2  0  0  0  0  0  0
  180.5310  177.2590  139.2200 C   0  0  0  0  0  0  0  0  0  0  0  0
  183.4910  177.3380  137.3640 C   0  0  0  0  0  2  0  0  0  0  0  0
  179.1600  177.4830  139.1320 O   0  0  0  0  0  1  0  0  0  0  0  0
  181.0410  176.1750  138.7120 C   0  0  0  0  0  0  0  0  0  0  0  0
  183.1620  175.1130  138.3570 C   0  0  0  0  0  2  0  0  0  0  0  0
  182.3820  178.8430  138.9200 N   0  0  0  0  0  2  0  0  0  0  0  0
  183.5240  177.9510  138.7670 C   0  0  0  0  0  2  0  0  0  0  0  0
  183.8360  175.9050  137.3200 N   0  0  0  0  0  0  0  0  0  0  0  0
  181.4530  178.2520  139.8830 C   0  0  1  0  0  3  0  0  0  0  0  0
  181.6700  175.1450  138.2210 C   0  0  0  0  0  0  0  0  0  0  0  0
  179.9420  173.6070  138.7730 O   0  0  0  0  0  1  0  0  0  0  0  0
  180.9040  173.9320  137.8150 C   0  0  1  0  0  3  0  0  0  0  0  0
  180.2760  174.0950  136.4590 C   0  0  0  0  0  0  0  0  0  0  0  0
  179.9980  175.2170  136.0540 O   0  0  0  0  0  0  0  0  0  0  0  0
  179.5620  171.7000  136.3900 C   0  0  0  0  0  3  0  0  0  0  0  0
  181.1980  172.5660  134.8090 O   0  0  0  0  0  0  0  0  0  0  0  0
  178.9310  173.2360  134.5960 C   0  0  0  0  0  1  0  0  0  0  0  0
  180.3370  170.7030  136.6460 N   0  0  0  0  0  0  0  0  0  0  0  0
  180.0410  172.8870  135.5700 C   0  0  2  0  0  0  0  0  0  0  0  0
  182.1670  171.9810  135.6520 C   0  0  1  0  0  3  0  0  0  0  0  0
  181.6800  170.6100  136.1100 C   0  0  0  0  0  2  0  0  0  0  0  0
  183.4890  171.8690  134.9100 C   0  0  0  0  0  2  0  0  0  0  0  0
  185.4910  173.1560  135.0750 O   0  0  0  0  0  0  0  0  0  0  0  0
  184.6190  172.4260  137.1000 N   0  0  0  0  0  1  0  0  0  0  0  0
  184.5840  172.5300  135.6810 C   0  0  0  0  0  0  0  0  0  0  0  0
  181.2940  180.5940  140.4130 O   0  0  0  0  0  1  0  0  0  0  0  0
  180.6990  179.3470  140.6300 C   0  0  0  0  0  2  0  0  0  0  0  0
  189.6160  176.1390  139.2900 C   0  0  0  0  0  2  0  0  0  0  0  0
  190.9410  176.5290  139.9270 C   0  0  1  0  0  3  0  0  0  0  0  0
  191.9300  176.9060  138.8200 C   0  0  1  0  0  3  0  0  0  0  0  0
  193.2150  177.1570  139.3160 O   0  0  0  0  0  1  0  0  0  0  0  0
  192.2400  174.4840  138.1050 C   0  0  0  0  0  1  0  0  0  0  0  0
  191.9400  175.9080  137.6610 C   0  0  2  0  0  3  0  0  0  0  0  0
  192.4400  176.7940  135.3340 N   0  0  0  0  0  1  0  0  0  0  0  0
  194.1430  176.2710  136.8250 O   0  0  0  0  0  0  0  0  0  0  0  0
  192.9060  176.3410  136.6040 C   0  0  0  0  0  0  0  0  0  0  0  0
  190.7220  177.6500  140.9480 C   0  0  0  0  0  2  0  0  0  0  0  0
  189.6720  177.2780  141.9860 C   0  0  0  0  0  2  0  0  0  0  0  0
  189.8590  178.0390  143.2110 N   0  0  0  0  0  0  0  0  0  0  0  0
  189.0710  177.3480  144.2180 C   0  0  0  0  0  2  0  0  0  0  0  0
  187.7410  176.8770  143.6330 C   0  0  0  0  0  2  0  0  0  0  0  0
  186.4130  177.6300  145.6720 C   0  0  0  0  0  3  0  0  0  0  0  0
  184.3970  178.6210  144.0100 C   0  0  0  0  0  0  0  0  0  0  0  0
  185.5300  178.0190  143.4510 C   0  0  0  0  0  3  0  0  0  0  0  0
  184.2730  178.7270  145.3980 C   0  0  0  0  0  3  0  0  0  0  0  0
  183.3230  179.1450  143.1290 C   0  0  0  0  0  1  0  0  0  0  0  0
  185.2810  178.2310  146.2290 C   0  0  0  0  0  3  0  0  0  0  0  0
  186.5470  177.5220  144.2760 C   0  0  0  0  0  0  0  0  0  0  0  0
  191.2610  177.8840  143.5790 C   0  0  0  0  0  2  0  0  0  0  0  0
  191.4200  176.7080  144.5320 C   0  0  0  0  0  2  0  0  0  0  0  0
  192.0690  177.1490  145.8330 C   0  0  0  0  0  2  0  0  0  0  0  0
  191.5910  176.2950  147.0020 C   0  0  1  0  0  0  0  0  0  0  0  0
  192.0720  174.9770  146.9320 O   0  0  0  0  0  0  0  0  0  0  0  0
  192.6120  175.8000  147.9450 C   0  0  0  0  0  2  0  0  0  0  0  0
  190.1520  176.3590  147.4970 C   0  0  0  0  0  2  0  0  0  0  0  0
  189.7890  177.7820  147.8970 C   0  0  0  0  0  2  0  0  0  0  0  0
  187.8120  179.0350  148.3730 F   0  0  0  0  0  0  0  0  0  0  0  0
  188.4510  177.8320  148.6200 C   0  0  0  0  0  3  0  0  0  0  0  0
  187.6460  176.7770  148.2340 F   0  0  0  0  0  0  0  0  0  0  0  0
  1  8  1  1  0  0  0
  1  7  1  0  0  0  0
  1  5  1  0  0  0  0
  2  4  2  0  0  0  0
  5  2  1  0  0  0  0
  6 38  1  1  0  0  0
  6  2  1  0  0  0  0
  7  3  1  6  0  0  0
  7  6  1  0  0  0  0
  8  9  1  1  0  0  0
  8 10  1  0  0  0  0
 11 19  1  0  0  0  0
 12 17  1  0  0  0  0
 13 11  1  0  0  0  0
 14 11  2  0  0  0  0
 16 19  1  0  0  0  0
 17 16  1  0  0  0  0
 18 12  1  0  0  0  0
 18 10  1  0  0  0  0
 18 15  1  0  0  0  0
 19 37  1  6  0  0  0
 20 15  1  0  0  0  0
 20 14  2  0  0  0  0
 22 20  1  0  0  0  0
 22 21  1  1  0  0  0
 23 22  1  0  0  0  0
 24 23  2  0  0  0  0
 25 28  2  0  0  0  0
 26 29  1  0  0  0  0
 26 30  1  0  0  0  0
 29 27  1  6  0  0  0
 29 25  1  0  0  0  0
 29 23  1  0  0  0  0
 30 32  1  6  0  0  0
 30 31  1  0  0  0  0
 31 28  1  0  0  0  0
 32 35  1  0  0  0  0
 33 35  2  0  0  0  0
 35 34  1  0  0  0  0
 36 37  1  0  0  0  0
 39 38  1  6  0  0  0
 39 47  1  0  0  0  0
 40 41  1  1  0  0  0
 40 39  1  0  0  0  0
 43 42  1  1  0  0  0
 43 40  1  0  0  0  0
 44 46  1  0  0  0  0
 46 45  2  0  0  0  0
 46 43  1  0  0  0  0
 47 48  1  0  0  0  0
 48 49  1  0  0  0  0
 49 59  1  0  0  0  0
 49 50  1  0  0  0  0
 51 50  1  0  0  0  0
 51 58  1  0  0  0  0
 52 57  1  0  0  0  0
 53 55  1  0  0  0  0
 54 53  2  0  0  0  0
 54 58  1  0  0  0  0
 55 57  2  0  0  0  0
 56 53  1  0  0  0  0
 58 52  2  0  0  0  0
 59 60  1  0  0  0  0
 60 61  1  0  0  0  0
 62 61  1  6  0  0  0
 62 65  1  0  0  0  0
 62 64  1  0  0  0  0
 63 62  1  0  0  0  0
 63 64  1  0  0  0  0
 65 66  1  0  0  0  0
 66 68  1  0  0  0  0
 67 68  1  0  0  0  0
 69 68  1  0  0  0  0
M  END
>  <MODEL>
1

>  <REMARK>
 VINA RESULT:      -6.4      0.000      0.000
  Name = 
  27 active torsions:
  status: ('A' for Active; 'I' for Inactive)
    1  A    between atoms: C_1  and  N_15
    2  A    between atoms: C_1  and  C_54
    3  A    between atoms: C_2  and  C_6
    4  A    between atoms: C_2  and  C_54
    5  A    between atoms: C_6  and  C_27
    6  A    between atoms: C_10  and  C_61
    7  A    between atoms: C_10  and  C_69
    8  A    between atoms: N_15  and  C_61
    9  A    between atoms: N_15  and  C_66
   10  A    between atoms: C_18  and  C_36
   11  A    between atoms: C_23  and  C_42
   12  A    between atoms: C_23  and  C_46
   13  A    between atoms: C_25  and  C_30
   14  A    between atoms: C_25  and  C_67
   15  A    between atoms: C_26  and  C_39
   16  A    between atoms: C_26  and  C_51
   17  A    between atoms: C_27  and  C_36
   18  A    between atoms: C_29  and  C_43
   19  A    between atoms: C_35  and  C_51
   20  A    between atoms: C_35  and  C_66
   21  A    between atoms: C_39  and  C_53
   22  A    between atoms: C_42  and  C_60
   23  A    between atoms: C_43  and  C_50
   24  A    between atoms: C_45  and  C_55
   25  A    between atoms: C_51  and  C_68
   26  A    between atoms: N_52  and  C_67
   27  A    between atoms: C_64  and  C_68
                            x       y       z     vdW  Elec       q    Type
                         _______ _______ _______ _____ _____    ______ ____

>  <TORSDO>
F 27

$$$$
=
 OpenBabel11062412163D

 69 73  0  0  1  0  0  0  0  0999 V2000
  190.0100  176.7420  140.9680 C   0  0  1  0  0  3  0  0  0  0  0  0
  188.2540  176.4150  142.4100 C   0  0  0  0  0  0  0  0  0  0  0  0
  188.6550  177.9140  139.2200 C   0  0  0  0  0  1  0  0  0  0  0  0
  187.5940  175.8940  143.3470 O   0  0  0  0  0  0  0  0  0  0  0  0
  189.5500  176.0550  142.1180 O   0  0  0  0  0  0  0  0  0  0  0  0
  187.7200  177.4380  141.4840 C   0  0  2  0  0  3  0  0  0  0  0  0
  188.9670  177.8370  140.6990 C   0  0  1  0  0  3  0  0  0  0  0  0
  191.4160  177.2910  141.1950 C   0  0  2  0  0  3  0  0  0  0  0  0
  191.3860  178.4520  141.9730 O   0  0  0  0  0  1  0  0  0  0  0  0
  192.1140  177.5650  139.8750 C   0  0  0  0  0  2  0  0  0  0  0  0
  193.3570  174.8740  135.5490 C   0  0  0  0  0  0  0  0  0  0  0  0
  193.0230  175.5710  138.9570 C   0  0  0  0  0  2  0  0  0  0  0  0
  193.2500  173.8530  134.6100 O   0  0  0  0  0  1  0  0  0  0  0  0
  192.2800  175.4290  136.0250 C   0  0  0  0  0  0  0  0  0  0  0  0
  191.5940  177.0710  137.6340 C   0  0  0  0  0  2  0  0  0  0  0  0
  194.8780  175.0620  137.4670 N   0  0  0  0  0  2  0  0  0  0  0  0
  194.2570  176.1290  138.2430 C   0  0  0  0  0  2  0  0  0  0  0  0
  191.8580  176.4740  138.9490 N   0  0  0  0  0  0  0  0  0  0  0  0
  194.6980  175.3540  136.0450 C   0  0  1  0  0  3  0  0  0  0  0  0
  191.2790  176.0400  136.5920 C   0  0  0  0  0  0  0  0  0  0  0  0
  189.9550  175.9990  134.6170 O   0  0  0  0  0  1  0  0  0  0  0  0
  189.9110  175.9210  136.0100 C   0  0  1  0  0  3  0  0  0  0  0  0
  189.2210  174.6620  136.4540 C   0  0  0  0  0  0  0  0  0  0  0  0
  189.3730  174.2640  137.6020 O   0  0  0  0  0  0  0  0  0  0  0  0
  187.5530  174.8910  134.6050 C   0  0  0  0  0  3  0  0  0  0  0  0
  187.3960  173.0740  136.2180 O   0  0  0  0  0  0  0  0  0  0  0  0
  189.1480  173.0380  134.6170 C   0  0  0  0  0  1  0  0  0  0  0  0
  186.3050  175.1550  134.7830 N   0  0  0  0  0  0  0  0  0  0  0  0
  188.2940  173.9180  135.5100 C   0  0  2  0  0  0  0  0  0  0  0  0
  186.4110  173.8610  136.8520 C   0  0  1  0  0  3  0  0  0  0  0  0
  185.5100  174.4930  135.7960 C   0  0  0  0  0  2  0  0  0  0  0  0
  185.6060  172.9990  137.8100 C   0  0  0  0  0  2  0  0  0  0  0  0
  183.3050  172.4880  137.4390 O   0  0  0  0  0  0  0  0  0  0  0  0
  184.7950  171.4040  136.0270 N   0  0  0  0  0  1  0  0  0  0  0  0
  184.4990  172.3020  137.0900 C   0  0  0  0  0  0  0  0  0  0  0  0
  196.7740  175.7940  134.9100 O   0  0  0  0  0  1  0  0  0  0  0  0
  195.8620  174.7870  135.2390 C   0  0  0  0  0  2  0  0  0  0  0  0
  187.1820  178.6420  142.2400 C   0  0  0  0  0  2  0  0  0  0  0  0
  186.0680  179.3120  141.4490 C   0  0  1  0  0  3  0  0  0  0  0  0
  185.3940  178.2630  140.5590 C   0  0  1  0  0  3  0  0  0  0  0  0
  184.3780  177.5710  141.2260 O   0  0  0  0  0  1  0  0  0  0  0  0
  183.5250  179.4160  139.2730 C   0  0  0  0  0  1  0  0  0  0  0  0
  184.9280  178.8280  139.2160 C   0  0  2  0  0  3  0  0  0  0  0  0
  185.9860  177.8840  137.1090 N   0  0  0  0  0  1  0  0  0  0  0  0
  184.1980  176.8260  138.1480 O   0  0  0  0  0  0  0  0  0  0  0  0
  185.0140  177.7830  138.1490 C   0  0  0  0  0  0  0  0  0  0  0  0
  185.0930  180.0090  142.4030 C   0  0  0  0  0  2  0  0  0  0  0  0
  185.3390  179.6190  143.8540 C   0  0  0  0  0  2  0  0  0  0  0  0
  184.4920  178.5030  144.2430 N   0  0  0  0  0  0  0  0  0  0  0  0
  185.3180  177.6740  145.1040 C   0  0  0  0  0  2  0  0  0  0  0  0
  185.6700  178.4170  146.3920 C   0  0  0  0  0  2  0  0  0  0  0  0
  187.4300  178.2850  148.2290 C   0  0  0  0  0  3  0  0  0  0  0  0
  189.3360  177.4540  146.3630 C   0  0  0  0  0  0  0  0  0  0  0  0
  188.0250  177.7200  145.9510 C   0  0  0  0  0  3  0  0  0  0  0  0
  189.6920  177.6040  147.7060 C   0  0  0  0  0  3  0  0  0  0  0  0
  190.3510  177.0160  145.3710 C   0  0  0  0  0  1  0  0  0  0  0  0
  188.7390  178.0200  148.6390 C   0  0  0  0  0  3  0  0  0  0  0  0
  187.0620  178.1350  146.8800 C   0  0  0  0  0  0  0  0  0  0  0  0
  183.4310  179.0620  145.0710 C   0  0  0  0  0  2  0  0  0  0  0  0
  182.2300  179.4180  144.2070 C   0  0  0  0  0  2  0  0  0  0  0  0
  182.0960  178.4520  143.0420 C   0  0  0  0  0  2  0  0  0  0  0  0
  180.7980  178.6880  142.2790 C   0  0  1  0  0  0  0  0  0  0  0  0
  179.9260  179.5510  142.9620 O   0  0  0  0  0  0  0  0  0  0  0  0
  180.5340  180.0550  141.7910 C   0  0  0  0  0  2  0  0  0  0  0  0
  180.0620  177.5450  141.5930 C   0  0  0  0  0  2  0  0  0  0  0  0
  180.8440  177.0560  140.3830 C   0  0  0  0  0  2  0  0  0  0  0  0
  180.4970  175.8000  138.3810 F   0  0  0  0  0  0  0  0  0  0  0  0
  180.1620  175.8660  139.7230 C   0  0  0  0  0  3  0  0  0  0  0  0
  180.5070  174.6890  140.3590 F   0  0  0  0  0  0  0  0  0  0  0  0
  1  8  1  1  0  0  0
  1  5  1  0  0  0  0
  2  4  2  0  0  0  0
  5  2  1  0  0  0  0
  6 38  1  1  0  0  0
  6  2  1  0  0  0  0
  7  3  1  6  0  0  0
  7  1  1  0  0  0  0
  7  6  1  0  0  0  0
  8  9  1  1  0  0  0
 10  8  1  0  0  0  0
 11 14  2  0  0  0  0
 11 19  1  0  0  0  0
 13 11  1  0  0  0  0
 14 20  2  0  0  0  0
 15 18  1  0  0  0  0
 16 17  1  0  0  0  0
 17 12  1  0  0  0  0
 18 12  1  0  0  0  0
 18 10  1  0  0  0  0
 19 37  1  6  0  0  0
 19 16  1  0  0  0  0
 20 15  1  0  0  0  0
 22 21  1  6  0  0  0
 22 23  1  0  0  0  0
 22 20  1  0  0  0  0
 23 24  2  0  0  0  0
 25 28  2  0  0  0  0
 25 29  1  0  0  0  0
 26 30  1  0  0  0  0
 28 31  1  0  0  0  0
 29 27  1  6  0  0  0
 29 26  1  0  0  0  0
 29 23  1  0  0  0  0
 30 32  1  1  0  0  0
 31 30  1  0  0  0  0
 34 35  1  0  0  0  0
 35 33  2  0  0  0  0
 35 32  1  0  0  0  0
 36 37  1  0  0  0  0
 39 38  1  1  0  0  0
 39 47  1  0  0  0  0
 40 41  1  1  0  0  0
 40 39  1  0  0  0  0
 43 42  1  1  0  0  0
 43 40  1  0  0  0  0
 44 46  1  0  0  0  0
 45 46  2  0  0  0  0
 46 43  1  0  0  0  0
 47 48  1  0  0  0  0
 48 49  1  0  0  0  0
 49 59  1  0  0  0  0
 49 50  1  0  0  0  0
 50 51  1  0  0  0  0
 51 58  1  0  0  0  0
 52 57  1  0  0  0  0
 53 55  1  0  0  0  0
 54 53  2  0  0  0  0
 54 58  1  0  0  0  0
 55 57  2  0  0  0  0
 56 53  1  0  0  0  0
 58 52  2  0  0  0  0
 60 59  1  0  0  0  0
 61 60  1  0  0  0  0
 62 65  1  6  0  0  0
 62 63  1  0  0  0  0
 62 61  1  0  0  0  0
 64 62  1  0  0  0  0
 64 63  1  0  0  0  0
 66 65  1  0  0  0  0
 67 68  1  0  0  0  0
 68 69  1  0  0  0  0
 68 66  1  0  0  0  0
M  END
>  <MODEL>
2

>  <REMARK>
 VINA RESULT:      -6.2      3.278      8.859
  Name = 
  27 active torsions:
  status: ('A' for Active; 'I' for Inactive)
    1  A    between atoms: C_1  and  N_15
    2  A    between atoms: C_1  and  C_54
    3  A    between atoms: C_2  and  C_6
    4  A    between atoms: C_2  and  C_54
    5  A    between atoms: C_6  and  C_27
    6  A    between atoms: C_10  and  C_61
    7  A    between atoms: C_10  and  C_69
    8  A    between atoms: N_15  and  C_61
    9  A    between atoms: N_15  and  C_66
   10  A    between atoms: C_18  and  C_36
   11  A    between atoms: C_23  and  C_42
   12  A    between atoms: C_23  and  C_46
   13  A    between atoms: C_25  and  C_30
   14  A    between atoms: C_25  and  C_67
   15  A    between atoms: C_26  and  C_39
   16  A    between atoms: C_26  and  C_51
   17  A    between atoms: C_27  and  C_36
   18  A    between atoms: C_29  and  C_43
   19  A    between atoms: C_35  and  C_51
   20  A    between atoms: C_35  and  C_66
   21  A    between atoms: C_39  and  C_53
   22  A    between atoms: C_42  and  C_60
   23  A    between atoms: C_43  and  C_50
   24  A    between atoms: C_45  and  C_55
   25  A    between atoms: C_51  and  C_68
   26  A    between atoms: N_52  and  C_67
   27  A    between atoms: C_64  and  C_68
                            x       y       z     vdW  Elec       q    Type
                         _______ _______ _______ _____ _____    ______ ____

>  <TORSDO>
F 27

$$$$
=
 OpenBabel11062412163D

 69 73  0  0  1  0  0  0  0  0999 V2000
  188.8840  173.3350  135.7360 C   0  0  1  0  0  3  0  0  0  0  0  0
  191.0200  174.1040  135.3970 C   0  0  0  0  0  0  0  0  0  0  0  0
  189.0500  173.2940  138.2340 C   0  0  0  0  0  1  0  0  0  0  0  0
  192.0990  174.3210  134.7860 O   0  0  0  0  0  0  0  0  0  0  0  0
  189.9210  173.5370  134.7920 O   0  0  0  0  0  0  0  0  0  0  0  0
  190.8050  174.3830  136.8330 C   0  0  2  0  0  3  0  0  0  0  0  0
  189.3100  174.1150  136.9890 C   0  0  1  0  0  3  0  0  0  0  0  0
  187.5420  173.7930  135.1680 C   0  0  2  0  0  3  0  0  0  0  0  0
  187.6440  175.0630  134.5940 O   0  0  0  0  0  1  0  0  0  0  0  0
  186.4670  173.7880  136.2410 C   0  0  0  0  0  2  0  0  0  0  0  0
  183.4210  177.8530  137.5400 C   0  0  0  0  0  0  0  0  0  0  0  0
  186.0070  176.1030  135.9710 C   0  0  0  0  0  2  0  0  0  0  0  0
  182.4720  178.8500  137.3350 O   0  0  0  0  0  1  0  0  0  0  0  0
  183.2300  176.6670  137.0390 C   0  0  0  0  0  0  0  0  0  0  0  0
  184.3190  174.5390  136.8390 C   0  0  0  0  0  2  0  0  0  0  0  0
  185.8700  178.0080  137.4770 N   0  0  0  0  0  2  0  0  0  0  0  0
  186.2610  176.6060  137.3950 C   0  0  0  0  0  2  0  0  0  0  0  0
  185.4310  174.7480  135.9010 N   0  0  0  0  0  0  0  0  0  0  0  0
  184.6830  178.1120  138.3250 C   0  0  1  0  0  3  0  0  0  0  0  0
  183.1640  175.4550  136.5670 C   0  0  0  0  0  0  0  0  0  0  0  0
  182.0600  174.2410  134.8450 O   0  0  0  0  0  1  0  0  0  0  0  0
  181.8700  174.9320  136.0430 C   0  0  1  0  0  3  0  0  0  0  0  0
  181.1660  174.0690  137.0520 C   0  0  0  0  0  0  0  0  0  0  0  0
  181.6900  173.0270  137.4250 O   0  0  0  0  0  0  0  0  0  0  0  0
  179.1640  175.5390  136.7630 C   0  0  0  0  0  3  0  0  0  0  0  0
  180.0080  174.9930  138.9800 O   0  0  0  0  0  0  0  0  0  0  0  0
  178.9320  173.2980  137.7130 C   0  0  0  0  0  1  0  0  0  0  0  0
  179.1260  176.7860  137.0860 N   0  0  0  0  0  0  0  0  0  0  0  0
  179.8430  174.5100  137.6530 C   0  0  2  0  0  0  0  0  0  0  0  0
  180.6220  176.2640  138.9450 C   0  0  1  0  0  3  0  0  0  0  0  0
  179.6540  177.2770  138.3410 C   0  0  0  0  0  2  0  0  0  0  0  0
  181.0310  176.6720  140.3510 C   0  0  0  0  0  2  0  0  0  0  0  0
  179.8440  177.4270  142.2780 O   0  0  0  0  0  0  0  0  0  0  0  0
  178.9620  178.1160  140.2440 N   0  0  0  0  0  1  0  0  0  0  0  0
  179.9310  177.4250  141.0230 C   0  0  0  0  0  0  0  0  0  0  0  0
  184.2860  179.3000  140.3800 O   0  0  0  0  0  1  0  0  0  0  0  0
  184.6640  179.4580  139.0440 C   0  0  0  0  0  2  0  0  0  0  0  0
  191.1040  175.8370  137.1650 C   0  0  0  0  0  2  0  0  0  0  0  0
  191.2840  176.0130  138.6660 C   0  0  1  0  0  3  0  0  0  0  0  0
  192.4550  176.9690  138.9140 C   0  0  1  0  0  3  0  0  0  0  0  0
  192.7350  177.1260  140.2760 O   0  0  0  0  0  1  0  0  0  0  0  0
  193.4680  176.6720  136.5990 C   0  0  0  0  0  1  0  0  0  0  0  0
  193.7010  176.6130  138.1020 C   0  0  2  0  0  3  0  0  0  0  0  0
  195.2830  175.1450  139.4410 N   0  0  0  0  0  1  0  0  0  0  0  0
  193.7340  174.2330  137.9690 O   0  0  0  0  0  0  0  0  0  0  0  0
  194.2180  175.2660  138.4990 C   0  0  0  0  0  0  0  0  0  0  0  0
  189.9730  176.4870  139.2990 C   0  0  0  0  0  2  0  0  0  0  0  0
  190.2150  177.3830  140.5060 C   0  0  0  0  0  2  0  0  0  0  0  0
  189.5180  176.8760  141.6780 N   0  0  0  0  0  0  0  0  0  0  0  0
  190.5250  176.1640  142.4460 C   0  0  0  0  0  2  0  0  0  0  0  0
  191.3190  177.1300  143.3240 C   0  0  0  0  0  2  0  0  0  0  0  0
  192.1690  175.8810  145.3750 C   0  0  0  0  0  3  0  0  0  0  0  0
  190.1880  177.0780  146.9410 C   0  0  0  0  0  0  0  0  0  0  0  0
  190.2760  177.3780  145.5770 C   0  0  0  0  0  3  0  0  0  0  0  0
  191.0900  176.1810  147.5200 C   0  0  0  0  0  3  0  0  0  0  0  0
  189.1340  177.7100  147.7740 C   0  0  0  0  0  1  0  0  0  0  0  0
  192.0790  175.5820  146.7370 C   0  0  0  0  0  3  0  0  0  0  0  0
  191.2670  176.7850  144.7850 C   0  0  0  0  0  0  0  0  0  0  0  0
  189.1270  178.0430  142.4590 C   0  0  0  0  0  2  0  0  0  0  0  0
  187.6290  178.0090  142.7290 C   0  0  0  0  0  2  0  0  0  0  0  0
  187.3340  177.3390  144.0600 C   0  0  0  0  0  2  0  0  0  0  0  0
  186.0950  177.9390  144.7140 C   0  0  1  0  0  0  0  0  0  0  0  0
  185.9820  177.5870  146.0680 O   0  0  0  0  0  0  0  0  0  0  0  0
  186.3030  178.9330  145.7840 C   0  0  0  0  0  2  0  0  0  0  0  0
  184.7480  177.9460  144.0040 C   0  0  0  0  0  2  0  0  0  0  0  0
  184.2460  179.3710  143.8230 C   0  0  0  0  0  2  0  0  0  0  0  0
  182.3670  179.0240  142.3900 F   0  0  0  0  0  0  0  0  0  0  0  0
  182.7330  179.4140  143.6670 C   0  0  0  0  0  3  0  0  0  0  0  0
  182.1220  178.6050  144.6060 F   0  0  0  0  0  0  0  0  0  0  0  0
  1  8  1  6  0  0  0
  1  7  1  0  0  0  0
  2  6  1  0  0  0  0
  4  2  2  0  0  0  0
  5  2  1  0  0  0  0
  5  1  1  0  0  0  0
  6  7  1  0  0  0  0
  6 38  1  6  0  0  0
  7  3  1  1  0  0  0
  8  9  1  1  0  0  0
  8 10  1  0  0  0  0
 11 19  1  0  0  0  0
 12 17  1  0  0  0  0
 13 11  1  0  0  0  0
 14 11  2  0  0  0  0
 16 19  1  0  0  0  0
 17 16  1  0  0  0  0
 18 12  1  0  0  0  0
 18 10  1  0  0  0  0
 18 15  1  0  0  0  0
 19 37  1  6  0  0  0
 20 15  1  0  0  0  0
 20 14  2  0  0  0  0
 22 21  1  6  0  0  0
 22 20  1  0  0  0  0
 22 23  1  0  0  0  0
 23 24  2  0  0  0  0
 23 29  1  0  0  0  0
 25 28  2  0  0  0  0
 25 29  1  0  0  0  0
 28 31  1  0  0  0  0
 29 27  1  1  0  0  0
 29 26  1  0  0  0  0
 30 26  1  0  0  0  0
 30 32  1  1  0  0  0
 31 30  1  0  0  0  0
 32 35  1  0  0  0  0
 34 35  1  0  0  0  0
 35 33  2  0  0  0  0
 37 36  1  0  0  0  0
 39 38  1  6  0  0  0
 39 40  1  0  0  0  0
 39 47  1  0  0  0  0
 40 41  1  1  0  0  0
 43 42  1  6  0  0  0
 43 46  1  0  0  0  0
 43 40  1  0  0  0  0
 45 46  2  0  0  0  0
 46 44  1  0  0  0  0
 47 48  1  0  0  0  0
 48 49  1  0  0  0  0
 49 50  1  0  0  0  0
 49 59  1  0  0  0  0
 50 51  1  0  0  0  0
 51 58  1  0  0  0  0
 52 57  1  0  0  0  0
 53 55  1  0  0  0  0
 53 56  1  0  0  0  0
 54 53  2  0  0  0  0
 57 55  2  0  0  0  0
 58 52  2  0  0  0  0
 58 54  1  0  0  0  0
 59 60  1  0  0  0  0
 60 61  1  0  0  0  0
 61 62  1  0  0  0  0
 62 65  1  6  0  0  0
 62 64  1  0  0  0  0
 62 63  1  0  0  0  0
 64 63  1  0  0  0  0
 66 65  1  0  0  0  0
 67 68  1  0  0  0  0
 68 66  1  0  0  0  0
 68 69  1  0  0  0  0
M  END
>  <MODEL>
3

>  <REMARK>
 VINA RESULT:      -4.0      2.540      5.041
  Name = 
  27 active torsions:
  status: ('A' for Active; 'I' for Inactive)
    1  A    between atoms: C_1  and  N_15
    2  A    between atoms: C_1  and  C_54
    3  A    between atoms: C_2  and  C_6
    4  A    between atoms: C_2  and  C_54
    5  A    between atoms: C_6  and  C_27
    6  A    between atoms: C_10  and  C_61
    7  A    between atoms: C_10  and  C_69
    8  A    between atoms: N_15  and  C_61
    9  A    between atoms: N_15  and  C_66
   10  A    between atoms: C_18  and  C_36
   11  A    between atoms: C_23  and  C_42
   12  A    between atoms: C_23  and  C_46
   13  A    between atoms: C_25  and  C_30
   14  A    between atoms: C_25  and  C_67
   15  A    between atoms: C_26  and  C_39
   16  A    between atoms: C_26  and  C_51
   17  A    between atoms: C_27  and  C_36
   18  A    between atoms: C_29  and  C_43
   19  A    between atoms: C_35  and  C_51
   20  A    between atoms: C_35  and  C_66
   21  A    between atoms: C_39  and  C_53
   22  A    between atoms: C_42  and  C_60
   23  A    between atoms: C_43  and  C_50
   24  A    between atoms: C_45  and  C_55
   25  A    between atoms: C_51  and  C_68
   26  A    between atoms: N_52  and  C_67
   27  A    between atoms: C_64  and  C_68
                            x       y       z     vdW  Elec       q    Type
                         _______ _______ _______ _____ _____    ______ ____

>  <TORSDO>
F 27

$$$$
=
 OpenBabel11062412163D

 69 73  0  0  1  0  0  0  0  0999 V2000
  185.0050  178.0010  144.9690 C   0  0  1  0  0  3  0  0  0  0  0  0
  182.7980  178.3330  144.4310 C   0  0  0  0  0  0  0  0  0  0  0  0
  185.6830  177.2290  142.6860 C   0  0  0  0  0  1  0  0  0  0  0  0
  181.5600  178.4640  144.6120 O   0  0  0  0  0  0  0  0  0  0  0  0
  183.6970  178.2190  145.4670 O   0  0  0  0  0  0  0  0  0  0  0  0
  183.4400  178.2420  143.1020 C   0  0  2  0  0  3  0  0  0  0  0  0
  184.9230  178.2840  143.4610 C   0  0  1  0  0  3  0  0  0  0  0  0
  186.0130  178.8870  145.6960 C   0  0  2  0  0  3  0  0  0  0  0  0
  185.4220  180.0790  146.1240 O   0  0  0  0  0  1  0  0  0  0  0  0
  187.2120  179.1860  144.8120 C   0  0  0  0  0  2  0  0  0  0  0  0
  191.4930  176.4030  146.0020 C   0  0  0  0  0  0  0  0  0  0  0  0
  188.1220  177.3240  145.9730 C   0  0  0  0  0  2  0  0  0  0  0  0
  192.3410  175.3010  145.9810 O   0  0  0  0  0  1  0  0  0  0  0  0
  190.9050  176.7870  144.9070 C   0  0  0  0  0  0  0  0  0  0  0  0
  189.3210  178.4070  144.1200 C   0  0  0  0  0  2  0  0  0  0  0  0
  189.8250  177.0410  147.6870 N   0  0  0  0  0  2  0  0  0  0  0  0
  189.0370  178.0380  146.9720 C   0  0  0  0  0  2  0  0  0  0  0  0
  188.0210  177.9890  144.6610 N   0  0  0  0  0  0  0  0  0  0  0  0
  191.2230  177.1680  147.2750 C   0  0  1  0  0  3  0  0  0  0  0  0
  190.2410  177.2470  143.8850 C   0  0  0  0  0  0  0  0  0  0  0  0
  191.2660  175.5890  142.5220 O   0  0  0  0  0  1  0  0  0  0  0  0
  190.6150  176.8240  142.5050 C   0  0  1  0  0  3  0  0  0  0  0  0
  189.4240  176.7880  141.5890 C   0  0  0  0  0  0  0  0  0  0  0  0
  188.4950  176.0300  141.8360 O   0  0  0  0  0  0  0  0  0  0  0  0
  188.1700  177.3560  139.5020 C   0  0  0  0  0  3  0  0  0  0  0  0
  190.5640  177.7610  139.6740 O   0  0  0  0  0  0  0  0  0  0  0  0
  189.0780  179.1250  140.9250 C   0  0  0  0  0  1  0  0  0  0  0  0
  188.3510  176.7760  138.3650 N   0  0  0  0  0  0  0  0  0  0  0  0
  189.3410  177.7270  140.3980 C   0  0  2  0  0  0  0  0  0  0  0  0
  190.7140  176.5600  138.9460 C   0  0  1  0  0  3  0  0  0  0  0  0
  189.6710  176.5090  137.8340 C   0  0  0  0  0  2  0  0  0  0  0  0
  192.1210  176.4790  138.3780 C   0  0  0  0  0  2  0  0  0  0  0  0
  191.5300  174.2160  137.9120 O   0  0  0  0  0  0  0  0  0  0  0  0
  193.5420  174.9190  136.9900 N   0  0  0  0  0  1  0  0  0  0  0  0
  192.3600  175.1470  137.7490 C   0  0  0  0  0  0  0  0  0  0  0  0
  192.5370  175.4220  148.2830 O   0  0  0  0  0  1  0  0  0  0  0  0
  192.1490  176.7580  148.4160 C   0  0  0  0  0  2  0  0  0  0  0  0
  183.0880  179.4400  142.2340 C   0  0  0  0  0  2  0  0  0  0  0  0
  182.6830  178.9850  140.8390 C   0  0  1  0  0  3  0  0  0  0  0  0
  181.1780  178.7010  140.8290 C   0  0  1  0  0  3  0  0  0  0  0  0
  180.8940  177.3320  140.8860 O   0  0  0  0  0  1  0  0  0  0  0  0
  179.5070  178.6280  142.7460 C   0  0  0  0  0  1  0  0  0  0  0  0
  180.4110  179.4980  141.8850 C   0  0  2  0  0  3  0  0  0  0  0  0
  179.2130  180.4950  139.8800 N   0  0  0  0  0  1  0  0  0  0  0  0
  179.3530  181.6350  141.9000 O   0  0  0  0  0  0  0  0  0  0  0  0
  179.6240  180.5960  141.2430 C   0  0  0  0  0  0  0  0  0  0  0  0
  183.1070  180.0310  139.8030 C   0  0  0  0  0  2  0  0  0  0  0  0
  183.0720  179.4750  138.3860 C   0  0  0  0  0  2  0  0  0  0  0  0
  181.7200  179.0930  138.0110 N   0  0  0  0  0  0  0  0  0  0  0  0
  181.2770  180.1140  137.0760 C   0  0  0  0  0  2  0  0  0  0  0  0
  181.4480  181.5070  137.6770 C   0  0  0  0  0  2  0  0  0  0  0  0
  180.5880  182.5380  135.5120 C   0  0  0  0  0  3  0  0  0  0  0  0
  179.5060  184.6790  136.9440 C   0  0  0  0  0  0  0  0  0  0  0  0
  180.1810  183.6560  137.6210 C   0  0  0  0  0  3  0  0  0  0  0  0
  179.3720  184.6300  135.5540 C   0  0  0  0  0  3  0  0  0  0  0  0
  178.9330  185.8190  137.7040 C   0  0  0  0  0  1  0  0  0  0  0  0
  179.9140  183.5590  134.8380 C   0  0  0  0  0  3  0  0  0  0  0  0
  180.7250  182.5780  136.9110 C   0  0  0  0  0  0  0  0  0  0  0  0
  181.8380  177.8470  137.2640 C   0  0  0  0  0  2  0  0  0  0  0  0
  180.5220  177.0830  137.3160 C   0  0  0  0  0  2  0  0  0  0  0  0
  180.7660  175.5860  137.3850 C   0  0  0  0  0  2  0  0  0  0  0  0
  181.4220  175.0770  136.1070 C   0  0  1  0  0  0  0  0  0  0  0  0
  180.9470  173.8110  135.7300 O   0  0  0  0  0  0  0  0  0  0  0  0
  180.5610  174.9030  134.9220 C   0  0  0  0  0  2  0  0  0  0  0  0
  182.9190  175.2270  135.8690 C   0  0  0  0  0  2  0  0  0  0  0  0
  183.6490  173.9420  136.2310 C   0  0  0  0  0  2  0  0  0  0  0  0
  185.1230  173.2210  137.9650 F   0  0  0  0  0  0  0  0  0  0  0  0
  183.9180  173.8570  137.7260 C   0  0  0  0  0  3  0  0  0  0  0  0
  183.9240  175.1170  138.2950 F   0  0  0  0  0  0  0  0  0  0  0  0
  1  5  1  0  0  0  0
  1  8  1  1  0  0  0
  2  4  2  0  0  0  0
  2  5  1  0  0  0  0
  6 38  1  6  0  0  0
  6  7  1  0  0  0  0
  6  2  1  0  0  0  0
  7  3  1  6  0  0  0
  7  1  1  0  0  0  0
  8  9  1  6  0  0  0
 10  8  1  0  0  0  0
 11 19  1  0  0  0  0
 12 17  1  0  0  0  0
 13 11  1  0  0  0  0
 14 11  2  0  0  0  0
 15 18  1  0  0  0  0
 17 16  1  0  0  0  0
 18 10  1  0  0  0  0
 18 12  1  0  0  0  0
 19 16  1  0  0  0  0
 19 37  1  1  0  0  0
 20 15  1  0  0  0  0
 20 14  2  0  0  0  0
 22 21  1  1  0  0  0
 22 20  1  0  0  0  0
 23 24  2  0  0  0  0
 23 22  1  0  0  0  0
 25 29  1  0  0  0  0
 26 29  1  0  0  0  0
 28 25  2  0  0  0  0
 29 27  1  1  0  0  0
 29 23  1  0  0  0  0
 30 32  1  6  0  0  0
 30 26  1  0  0  0  0
 31 28  1  0  0  0  0
 31 30  1  0  0  0  0
 34 35  1  0  0  0  0
 35 33  2  0  0  0  0
 35 32  1  0  0  0  0
 36 37  1  0  0  0  0
 39 47  1  6  0  0  0
 39 38  1  0  0  0  0
 40 39  1  0  0  0  0
 40 41  1  1  0  0  0
 40 43  1  0  0  0  0
 43 42  1  6  0  0  0
 44 46  1  0  0  0  0
 46 43  1  0  0  0  0
 46 45  2  0  0  0  0
 48 47  1  0  0  0  0
 49 48  1  0  0  0  0
 50 51  1  0  0  0  0
 50 49  1  0  0  0  0
 52 58  1  0  0  0  0
 53 54  1  0  0  0  0
 53 56  1  0  0  0  0
 55 53  2  0  0  0  0
 57 52  2  0  0  0  0
 57 55  1  0  0  0  0
 58 54  2  0  0  0  0
 58 51  1  0  0  0  0
 59 60  1  0  0  0  0
 59 49  1  0  0  0  0
 60 61  1  0  0  0  0
 62 65  1  6  0  0  0
 62 61  1  0  0  0  0
 63 62  1  0  0  0  0
 64 63  1  0  0  0  0
 64 62  1  0  0  0  0
 65 66  1  0  0  0  0
 66 68  1  0  0  0  0
 68 67  1  0  0  0  0
 68 69  1  0  0  0  0
M  END
>  <MODEL>
4

>  <REMARK>
 VINA RESULT:      -3.8      3.559     11.386
  Name = 
  27 active torsions:
  status: ('A' for Active; 'I' for Inactive)
    1  A    between atoms: C_1  and  N_15
    2  A    between atoms: C_1  and  C_54
    3  A    between atoms: C_2  and  C_6
    4  A    between atoms: C_2  and  C_54
    5  A    between atoms: C_6  and  C_27
    6  A    between atoms: C_10  and  C_61
    7  A    between atoms: C_10  and  C_69
    8  A    between atoms: N_15  and  C_61
    9  A    between atoms: N_15  and  C_66
   10  A    between atoms: C_18  and  C_36
   11  A    between atoms: C_23  and  C_42
   12  A    between atoms: C_23  and  C_46
   13  A    between atoms: C_25  and  C_30
   14  A    between atoms: C_25  and  C_67
   15  A    between atoms: C_26  and  C_39
   16  A    between atoms: C_26  and  C_51
   17  A    between atoms: C_27  and  C_36
   18  A    between atoms: C_29  and  C_43
   19  A    between atoms: C_35  and  C_51
   20  A    between atoms: C_35  and  C_66
   21  A    between atoms: C_39  and  C_53
   22  A    between atoms: C_42  and  C_60
   23  A    between atoms: C_43  and  C_50
   24  A    between atoms: C_45  and  C_55
   25  A    between atoms: C_51  and  C_68
   26  A    between atoms: N_52  and  C_67
   27  A    between atoms: C_64  and  C_68
                            x       y       z     vdW  Elec       q    Type
                         _______ _______ _______ _____ _____    ______ ____

>  <TORSDO>
F 27

$$$$
