=
 OpenBabel11062416023D

 36 41  0  0  1  0  0  0  0  0999 V2000
  182.7150  178.8090  142.2120 C   0  0  0  0  0  0  0  0  0  0  0  0
  183.9890  178.5790  141.7390 C   0  0  0  0  0  0  0  0  0  0  0  0
  183.1180  179.1150  144.6340 C   0  0  0  0  0  3  0  0  0  0  0  0
  181.9020  179.1570  141.1890 N   0  0  0  0  0  0  0  0  0  0  0  0
  180.9340  178.9450  143.7740 O   0  0  0  0  0  1  0  0  0  0  0  0
  183.9820  178.7900  140.4140 N   0  0  0  0  0  0  0  0  0  0  0  0
  185.1460  178.0830  142.5000 C   0  0  0  0  0  3  0  0  0  0  0  0
  182.7210  179.1520  140.1150 C   0  0  0  0  0  0  0  0  0  0  0  0
  182.2440  178.4940  143.5920 C   0  0  1  0  0  3  0  0  0  0  0  0
  185.3240  178.1840  143.8230 C   0  0  0  0  0  0  0  0  0  0  0  0
  185.0990  178.6600  139.4910 C   0  0  0  0  0  1  0  0  0  0  0  0
  184.4380  178.9370  144.7430 C   0  0  0  0  0  3  0  0  0  0  0  0
  182.2870  179.4720  138.7920 N   0  0  0  0  0  2  0  0  0  0  0  0
  180.9110  179.8380  138.5090 C   0  0  2  0  0  3  0  0  0  0  0  0
  180.6670  182.8410  136.7110 C   0  0  0  0  0  3  0  0  0  0  0  0
  180.5910  181.8490  135.6220 C   0  0  0  0  0  3  0  0  0  0  0  0
  180.7760  180.1670  137.1480 C   0  0  0  0  0  0  0  0  0  0  0  0
  180.8450  181.1940  138.1710 C   0  0  0  0  0  0  0  0  0  0  0  0
  180.6490  180.4170  135.8190 C   0  0  0  0  0  3  0  0  0  0  0  0
  180.8050  182.5150  138.0590 N   0  0  0  0  0  0  0  0  0  0  0  0
  186.6010  177.6420  144.3750 C   0  0  0  0  0  2  0  0  0  0  0  0
  188.8710  178.2370  144.3680 C   0  0  0  0  0  2  0  0  0  0  0  0
  189.7020  176.9690  144.5280 C   0  0  1  0  0  3  0  0  0  0  0  0
  188.0790  176.7590  142.7480 C   0  0  0  0  0  2  0  0  0  0  0  0
  189.1840  176.0060  143.4720 C   0  0  1  0  0  3  0  0  0  0  0  0
  187.7320  177.9580  143.5030 N   0  0  0  0  0  0  0  0  0  0  0  0
  191.7100  175.6890  143.6350 C   0  0  0  0  0  1  0  0  0  0  0  0
  190.5640  176.6290  143.3180 C   0  0  2  0  0  0  0  0  0  0  0  0
  190.7970  177.7080  142.2560 C   0  0  0  0  0  2  0  0  0  0  0  0
  189.2570  178.2780  139.9290 O   0  0  0  0  0  0  0  0  0  0  0  0
  190.9890  177.0910  140.9540 N   0  0  0  0  0  2  0  0  0  0  0  0
  190.1800  177.4250  139.8230 C   0  0  0  0  0  0  0  0  0  0  0  0
  190.4500  176.7850  138.5030 C   0  0  0  0  0  2  0  0  0  0  0  0
  192.8340  176.4840  137.7440 C   0  0  0  0  0  1  0  0  0  0  0  0
  191.6760  175.8810  138.5230 C   0  0  2  0  0  3  0  0  0  0  0  0
  191.3640  174.6170  138.0240 O   0  0  0  0  0  1  0  0  0  0  0  0
  1  9  1  0  0  0  0
  2  1  2  0  0  0  0
  2  7  1  0  0  0  0
  3 12  2  0  0  0  0
  4  1  1  0  0  0  0
  6  2  1  0  0  0  0
  7 10  2  0  0  0  0
  8  6  1  0  0  0  0
  8  4  2  0  0  0  0
  9  5  1  6  0  0  0
  9  3  1  0  0  0  0
 10 21  1  0  0  0  0
 10 12  1  0  0  0  0
 11  6  1  0  0  0  0
 13  8  1  0  0  0  0
 14 13  1  6  0  0  0
 15 20  1  0  0  0  0
 16 19  1  0  0  0  0
 16 15  2  0  0  0  0
 17 18  1  0  0  0  0
 17 14  1  0  0  0  0
 18 14  1  0  0  0  0
 19 17  2  0  0  0  0
 20 18  2  0  0  0  0
 23 22  1  6  0  0  0
 24 26  1  0  0  0  0
 25 24  1  6  0  0  0
 25 23  1  0  0  0  0
 26 22  1  0  0  0  0
 26 21  1  0  0  0  0
 28 25  1  0  0  0  0
 28 27  1  1  0  0  0
 28 23  1  0  0  0  0
 29 28  1  0  0  0  0
 31 29  1  0  0  0  0
 32 30  2  0  0  0  0
 32 31  1  0  0  0  0
 33 35  1  0  0  0  0
 33 32  1  0  0  0  0
 35 34  1  6  0  0  0
 36 35  1  0  0  0  0
M  END
>  <MODEL>
1

>  <REMARK>
 VINA RESULT:      -8.4      0.000      0.000
  Name = 
  7 active torsions:
  status: ('A' for Active; 'I' for Inactive)
    1  A    between atoms: C_3  and  N_34
    2  A    between atoms: C_7  and  N_14
    3  A    between atoms: C_7  and  C_30
    4  A    between atoms: C_12  and  N_13
    5  A    between atoms: C_12  and  C_29
    6  A    between atoms: C_19  and  C_20
    7  A    between atoms: C_19  and  C_25
                            x       y       z     vdW  Elec       q    Type
                         _______ _______ _______ _____ _____    ______ ____

>  <TORSDO>
F 7

$$$$
=
 OpenBabel11062416023D

 36 41  0  0  1  0  0  0  0  0999 V2000
  186.5700  178.2700  138.2890 C   0  0  0  0  0  0  0  0  0  0  0  0
  186.7830  178.3560  139.6480 C   0  0  0  0  0  0  0  0  0  0  0  0
  188.4710  176.8600  137.5650 C   0  0  0  0  0  3  0  0  0  0  0  0
  185.2940  178.6100  138.0020 N   0  0  0  0  0  0  0  0  0  0  0  0
  187.0740  177.9210  135.9970 O   0  0  0  0  0  1  0  0  0  0  0  0
  185.6340  178.7470  140.2220 N   0  0  0  0  0  0  0  0  0  0  0  0
  188.0530  178.1720  140.3650 C   0  0  0  0  0  3  0  0  0  0  0  0
  184.7540  178.8750  139.2110 C   0  0  0  0  0  0  0  0  0  0  0  0
  187.6380  178.0650  137.2670 C   0  0  1  0  0  3  0  0  0  0  0  0
  189.1090  177.4700  139.9350 C   0  0  0  0  0  0  0  0  0  0  0  0
  185.3850  178.9800  141.6360 C   0  0  0  0  0  1  0  0  0  0  0  0
  189.1310  176.6390  138.7050 C   0  0  0  0  0  3  0  0  0  0  0  0
  183.3960  179.2750  139.3970 N   0  0  0  0  0  2  0  0  0  0  0  0
  182.4840  179.4210  138.2760 C   0  0  2  0  0  3  0  0  0  0  0  0
  179.3320  180.6060  139.2600 C   0  0  0  0  0  3  0  0  0  0  0  0
  179.9910  181.8590  138.8440 C   0  0  0  0  0  3  0  0  0  0  0  0
  181.8750  180.6880  138.3220 C   0  0  0  0  0  0  0  0  0  0  0  0
  181.1680  179.4930  138.7470 C   0  0  0  0  0  0  0  0  0  0  0  0
  181.3450  181.9390  138.3420 C   0  0  0  0  0  3  0  0  0  0  0  0
  179.9370  179.3520  139.2210 N   0  0  0  0  0  0  0  0  0  0  0  0
  190.2830  177.3840  140.8530 C   0  0  0  0  0  2  0  0  0  0  0  0
  189.3740  176.9130  142.9650 C   0  0  0  0  0  2  0  0  0  0  0  0
  190.4520  176.2530  143.8170 C   0  0  1  0  0  3  0  0  0  0  0  0
  191.2350  178.3100  142.8140 C   0  0  0  0  0  2  0  0  0  0  0  0
  191.6650  177.1640  143.7180 C   0  0  1  0  0  3  0  0  0  0  0  0
  189.9770  177.9660  142.1600 N   0  0  0  0  0  0  0  0  0  0  0  0
  191.5710  176.2590  146.1000 C   0  0  0  0  0  1  0  0  0  0  0  0
  190.8870  177.0770  145.0230 C   0  0  2  0  0  0  0  0  0  0  0  0
  190.0100  178.2510  145.4660 C   0  0  0  0  0  2  0  0  0  0  0  0
  187.2900  178.4830  144.6530 O   0  0  0  0  0  0  0  0  0  0  0  0
  188.8670  177.7620  146.2190 N   0  0  0  0  0  2  0  0  0  0  0  0
  187.5230  177.9100  145.7510 C   0  0  0  0  0  0  0  0  0  0  0  0
  186.3930  177.3530  146.5520 C   0  0  0  0  0  2  0  0  0  0  0  0
  184.4420  178.6700  145.6540 C   0  0  0  0  0  1  0  0  0  0  0  0
  185.3200  178.3890  146.8620 C   0  0  2  0  0  3  0  0  0  0  0  0
  185.8970  179.5710  147.3260 O   0  0  0  0  0  1  0  0  0  0  0  0
  1  2  2  0  0  0  0
  2  6  1  0  0  0  0
  2  7  1  0  0  0  0
  3 12  2  0  0  0  0
  4  1  1  0  0  0  0
  4  8  2  0  0  0  0
  6 11  1  0  0  0  0
  8 13  1  0  0  0  0
  8  6  1  0  0  0  0
  9  5  1  6  0  0  0
  9  3  1  0  0  0  0
  9  1  1  0  0  0  0
 10  7  2  0  0  0  0
 10 21  1  0  0  0  0
 12 10  1  0  0  0  0
 14 17  1  0  0  0  0
 14 18  1  0  0  0  0
 14 13  1  1  0  0  0
 16 15  2  0  0  0  0
 17 19  2  0  0  0  0
 17 18  1  0  0  0  0
 18 20  2  0  0  0  0
 19 16  1  0  0  0  0
 20 15  1  0  0  0  0
 21 26  1  0  0  0  0
 23 22  1  6  0  0  0
 23 28  1  0  0  0  0
 25 24  1  6  0  0  0
 25 23  1  0  0  0  0
 25 28  1  0  0  0  0
 26 24  1  0  0  0  0
 26 22  1  0  0  0  0
 28 29  1  0  0  0  0
 28 27  1  1  0  0  0
 29 31  1  0  0  0  0
 30 32  2  0  0  0  0
 32 31  1  0  0  0  0
 32 33  1  0  0  0  0
 33 35  1  0  0  0  0
 35 34  1  6  0  0  0
 35 36  1  0  0  0  0
M  END
>  <MODEL>
2

>  <REMARK>
 VINA RESULT:      -7.9      2.449      5.650
  Name = 
  7 active torsions:
  status: ('A' for Active; 'I' for Inactive)
    1  A    between atoms: C_3  and  N_34
    2  A    between atoms: C_7  and  N_14
    3  A    between atoms: C_7  and  C_30
    4  A    between atoms: C_12  and  N_13
    5  A    between atoms: C_12  and  C_29
    6  A    between atoms: C_19  and  C_20
    7  A    between atoms: C_19  and  C_25
                            x       y       z     vdW  Elec       q    Type
                         _______ _______ _______ _____ _____    ______ ____

>  <TORSDO>
F 7

$$$$
=
 OpenBabel11062416023D

 36 41  0  0  1  0  0  0  0  0999 V2000
  189.5940  177.5450  139.5500 C   0  0  0  0  0  0  0  0  0  0  0  0
  188.3050  177.8160  139.9600 C   0  0  0  0  0  0  0  0  0  0  0  0
  189.4600  177.9960  137.1210 C   0  0  0  0  0  3  0  0  0  0  0  0
  190.4250  177.5520  140.6170 N   0  0  0  0  0  0  0  0  0  0  0  0
  191.3690  177.0010  138.0730 O   0  0  0  0  0  1  0  0  0  0  0  0
  188.3250  178.0010  141.2900 N   0  0  0  0  0  0  0  0  0  0  0  0
  187.0870  177.8030  139.1370 C   0  0  0  0  0  3  0  0  0  0  0  0
  189.6130  177.8520  141.6530 C   0  0  0  0  0  0  0  0  0  0  0  0
  189.9780  177.0830  138.1850 C   0  0  1  0  0  3  0  0  0  0  0  0
  187.0280  177.9720  137.8100 C   0  0  0  0  0  0  0  0  0  0  0  0
  187.1980  178.3020  142.1580 C   0  0  0  0  0  1  0  0  0  0  0  0
  188.1800  178.3360  136.9490 C   0  0  0  0  0  3  0  0  0  0  0  0
  190.0690  177.9750  143.0010 N   0  0  0  0  0  2  0  0  0  0  0  0
  191.4640  177.7870  143.3540 C   0  0  2  0  0  3  0  0  0  0  0  0
  191.8590  176.2040  146.4600 C   0  0  0  0  0  3  0  0  0  0  0  0
  191.9730  175.0570  145.5380 C   0  0  0  0  0  3  0  0  0  0  0  0
  191.6760  176.4590  143.7660 C   0  0  0  0  0  0  0  0  0  0  0  0
  191.5740  177.5420  144.7270 C   0  0  0  0  0  0  0  0  0  0  0  0
  191.8770  175.1580  144.0980 C   0  0  0  0  0  3  0  0  0  0  0  0
  191.6450  177.5180  146.0510 N   0  0  0  0  0  0  0  0  0  0  0  0
  185.6710  177.9610  137.1880 C   0  0  0  0  0  2  0  0  0  0  0  0
  183.6750  178.4510  138.3220 C   0  0  0  0  0  2  0  0  0  0  0  0
  182.5100  178.2380  137.3620 C   0  0  1  0  0  3  0  0  0  0  0  0
  183.9810  176.3190  137.4270 C   0  0  0  0  0  2  0  0  0  0  0  0
  182.7110  176.8490  136.7780 C   0  0  1  0  0  3  0  0  0  0  0  0
  184.6720  177.4110  138.1040 N   0  0  0  0  0  0  0  0  0  0  0  0
  180.2060  177.1940  137.1090 C   0  0  0  0  0  1  0  0  0  0  0  0
  181.5730  177.1030  137.7560 C   0  0  2  0  0  0  0  0  0  0  0  0
  181.6550  176.5450  139.1800 C   0  0  0  0  0  2  0  0  0  0  0  0
  181.9980  178.5240  141.1990 O   0  0  0  0  0  0  0  0  0  0  0  0
  180.5870  177.1030  139.9950 N   0  0  0  0  0  2  0  0  0  0  0  0
  180.8290  178.0980  140.9930 C   0  0  0  0  0  0  0  0  0  0  0  0
  179.6870  178.6600  141.7720 C   0  0  0  0  0  2  0  0  0  0  0  0
  179.3450  178.8900  144.2580 C   0  0  0  0  0  1  0  0  0  0  0  0
  180.1310  179.3660  143.0470 C   0  0  2  0  0  3  0  0  0  0  0  0
  180.0160  180.7490  142.9090 O   0  0  0  0  0  1  0  0  0  0  0  0
  1  2  2  0  0  0  0
  1  4  1  0  0  0  0
  2  6  1  0  0  0  0
  3  9  1  0  0  0  0
  4  8  2  0  0  0  0
  6  8  1  0  0  0  0
  6 11  1  0  0  0  0
  7  2  1  0  0  0  0
  8 13  1  0  0  0  0
  9  5  1  1  0  0  0
  9  1  1  0  0  0  0
 10  7  2  0  0  0  0
 12  3  2  0  0  0  0
 12 10  1  0  0  0  0
 14 13  1  1  0  0  0
 14 17  1  0  0  0  0
 14 18  1  0  0  0  0
 16 15  2  0  0  0  0
 17 19  2  0  0  0  0
 17 18  1  0  0  0  0
 18 20  2  0  0  0  0
 19 16  1  0  0  0  0
 20 15  1  0  0  0  0
 21 10  1  0  0  0  0
 21 26  1  0  0  0  0
 23 28  1  0  0  0  0
 23 22  1  1  0  0  0
 24 26  1  0  0  0  0
 25 23  1  0  0  0  0
 25 24  1  1  0  0  0
 25 28  1  0  0  0  0
 26 22  1  0  0  0  0
 28 27  1  6  0  0  0
 28 29  1  0  0  0  0
 29 31  1  0  0  0  0
 31 32  1  0  0  0  0
 32 30  2  0  0  0  0
 32 33  1  0  0  0  0
 33 35  1  0  0  0  0
 35 34  1  1  0  0  0
 36 35  1  0  0  0  0
M  END
>  <MODEL>
3

>  <REMARK>
 VINA RESULT:      -7.3      2.770     10.515
  Name = 
  7 active torsions:
  status: ('A' for Active; 'I' for Inactive)
    1  A    between atoms: C_3  and  N_34
    2  A    between atoms: C_7  and  N_14
    3  A    between atoms: C_7  and  C_30
    4  A    between atoms: C_12  and  N_13
    5  A    between atoms: C_12  and  C_29
    6  A    between atoms: C_19  and  C_20
    7  A    between atoms: C_19  and  C_25
                            x       y       z     vdW  Elec       q    Type
                         _______ _______ _______ _____ _____    ______ ____

>  <TORSDO>
F 7

$$$$
=
 OpenBabel11062416023D

 36 41  0  0  1  0  0  0  0  0999 V2000
  190.8570  176.3550  136.8410 C   0  0  0  0  0  0  0  0  0  0  0  0
  191.0250  176.8260  138.1260 C   0  0  0  0  0  0  0  0  0  0  0  0
  188.6470  177.2910  136.2410 C   0  0  0  0  0  3  0  0  0  0  0  0
  192.0490  175.9620  136.3370 N   0  0  0  0  0  0  0  0  0  0  0  0
  189.7220  175.7200  134.8560 O   0  0  0  0  0  1  0  0  0  0  0  0
  192.3290  176.7370  138.4300 N   0  0  0  0  0  0  0  0  0  0  0  0
  189.9760  177.2520  139.0630 C   0  0  0  0  0  3  0  0  0  0  0  0
  192.9200  176.2310  137.3320 C   0  0  0  0  0  0  0  0  0  0  0  0
  189.5400  176.0930  136.1910 C   0  0  1  0  0  3  0  0  0  0  0  0
  188.7520  177.6870  138.7360 C   0  0  0  0  0  0  0  0  0  0  0  0
  192.9740  177.1100  139.6800 C   0  0  0  0  0  1  0  0  0  0  0  0
  188.2850  177.9400  137.3510 C   0  0  0  0  0  3  0  0  0  0  0  0
  194.3240  175.9800  137.2400 N   0  0  0  0  0  2  0  0  0  0  0  0
  194.9190  175.4140  136.0430 C   0  0  2  0  0  3  0  0  0  0  0  0
  198.2760  174.5110  136.5150 C   0  0  0  0  0  3  0  0  0  0  0  0
  197.5980  173.2220  136.7470 C   0  0  0  0  0  3  0  0  0  0  0  0
  195.5850  174.2170  136.3630 C   0  0  0  0  0  0  0  0  0  0  0  0
  196.3140  175.4530  136.1470 C   0  0  0  0  0  0  0  0  0  0  0  0
  196.1660  173.0300  136.6770 C   0  0  0  0  0  3  0  0  0  0  0  0
  197.6160  175.6970  136.2030 N   0  0  0  0  0  0  0  0  0  0  0  0
  187.8620  178.1080  139.8580 C   0  0  0  0  0  2  0  0  0  0  0  0
  187.7980  179.1100  141.9790 C   0  0  0  0  0  2  0  0  0  0  0  0
  187.0200  178.1980  142.9200 C   0  0  1  0  0  3  0  0  0  0  0  0
  188.7630  177.0000  141.7480 C   0  0  0  0  0  2  0  0  0  0  0  0
  187.6490  176.8220  142.7680 C   0  0  1  0  0  3  0  0  0  0  0  0
  188.6210  178.2960  141.0950 N   0  0  0  0  0  0  0  0  0  0  0  0
  187.0220  177.1190  145.2220 C   0  0  0  0  0  1  0  0  0  0  0  0
  187.8520  177.6110  144.0540 C   0  0  2  0  0  0  0  0  0  0  0  0
  189.2190  178.2310  144.3580 C   0  0  0  0  0  2  0  0  0  0  0  0
  191.6660  176.9340  143.6930 O   0  0  0  0  0  0  0  0  0  0  0  0
  189.9730  177.3610  145.2460 N   0  0  0  0  0  2  0  0  0  0  0  0
  191.2000  176.7410  144.8480 C   0  0  0  0  0  0  0  0  0  0  0  0
  191.9480  175.8890  145.8180 C   0  0  0  0  0  2  0  0  0  0  0  0
  192.8100  175.6280  148.1710 C   0  0  0  0  0  1  0  0  0  0  0  0
  191.9920  176.4850  147.2190 C   0  0  2  0  0  3  0  0  0  0  0  0
  190.7030  176.6660  147.7180 O   0  0  0  0  0  1  0  0  0  0  0  0
  1  2  2  0  0  0  0
  2  6  1  0  0  0  0
  2  7  1  0  0  0  0
  3 12  2  0  0  0  0
  4  1  1  0  0  0  0
  4  8  2  0  0  0  0
  6 11  1  0  0  0  0
  8  6  1  0  0  0  0
  9  5  1  6  0  0  0
  9  3  1  0  0  0  0
  9  1  1  0  0  0  0
 10  7  2  0  0  0  0
 10 21  1  0  0  0  0
 12 10  1  0  0  0  0
 13  8  1  0  0  0  0
 14 18  1  0  0  0  0
 14 17  1  0  0  0  0
 14 13  1  1  0  0  0
 15 16  1  0  0  0  0
 17 19  1  0  0  0  0
 18 20  1  0  0  0  0
 18 17  2  0  0  0  0
 19 16  2  0  0  0  0
 20 15  2  0  0  0  0
 21 26  1  0  0  0  0
 23 22  1  6  0  0  0
 23 28  1  0  0  0  0
 25 24  1  6  0  0  0
 25 23  1  0  0  0  0
 25 28  1  0  0  0  0
 26 24  1  0  0  0  0
 26 22  1  0  0  0  0
 28 29  1  0  0  0  0
 28 27  1  1  0  0  0
 29 31  1  0  0  0  0
 30 32  2  0  0  0  0
 32 31  1  0  0  0  0
 32 33  1  0  0  0  0
 33 35  1  0  0  0  0
 35 36  1  0  0  0  0
 35 34  1  1  0  0  0
M  END
>  <MODEL>
4

>  <REMARK>
 VINA RESULT:      -7.1      5.047     10.389
  Name = 
  7 active torsions:
  status: ('A' for Active; 'I' for Inactive)
    1  A    between atoms: C_3  and  N_34
    2  A    between atoms: C_7  and  N_14
    3  A    between atoms: C_7  and  C_30
    4  A    between atoms: C_12  and  N_13
    5  A    between atoms: C_12  and  C_29
    6  A    between atoms: C_19  and  C_20
    7  A    between atoms: C_19  and  C_25
                            x       y       z     vdW  Elec       q    Type
                         _______ _______ _______ _____ _____    ______ ____

>  <TORSDO>
F 7

$$$$
=
 OpenBabel11062416023D

 36 41  0  0  1  0  0  0  0  0999 V2000
  188.5120  177.0030  136.8640 C   0  0  0  0  0  0  0  0  0  0  0  0
  188.0760  177.4750  138.0840 C   0  0  0  0  0  0  0  0  0  0  0  0
  190.6700  175.9540  137.4670 C   0  0  0  0  0  3  0  0  0  0  0  0
  187.4760  176.9460  135.9970 N   0  0  0  0  0  0  0  0  0  0  0  0
  190.0320  176.2240  135.2180 O   0  0  0  0  0  1  0  0  0  0  0  0
  186.7570  177.7090  137.9880 N   0  0  0  0  0  0  0  0  0  0  0  0
  188.8950  177.7850  139.2640 C   0  0  0  0  0  3  0  0  0  0  0  0
  186.4230  177.3670  136.7300 C   0  0  0  0  0  0  0  0  0  0  0  0
  189.9420  176.8110  136.4820 C   0  0  1  0  0  3  0  0  0  0  0  0
  190.0990  177.2700  139.5480 C   0  0  0  0  0  0  0  0  0  0  0  0
  185.8720  178.2210  139.0220 C   0  0  0  0  0  1  0  0  0  0  0  0
  190.7620  176.1900  138.7790 C   0  0  0  0  0  3  0  0  0  0  0  0
  185.0940  177.4640  136.2150 N   0  0  0  0  0  2  0  0  0  0  0  0
  184.7790  177.1040  134.8450 C   0  0  2  0  0  3  0  0  0  0  0  0
  183.3640  173.9020  134.5940 C   0  0  0  0  0  3  0  0  0  0  0  0
  182.1560  174.7480  134.6140 C   0  0  0  0  0  3  0  0  0  0  0  0
  183.4650  176.6070  134.7740 C   0  0  0  0  0  0  0  0  0  0  0  0
  184.6120  175.7170  134.7500 C   0  0  0  0  0  0  0  0  0  0  0  0
  182.1730  176.1920  134.7120 C   0  0  0  0  0  3  0  0  0  0  0  0
  184.6660  174.3950  134.6700 N   0  0  0  0  0  0  0  0  0  0  0  0
  190.7310  177.7000  140.8310 C   0  0  0  0  0  2  0  0  0  0  0  0
  190.7050  176.1570  142.5980 C   0  0  0  0  0  2  0  0  0  0  0  0
  191.5530  176.7120  143.7360 C   0  0  1  0  0  3  0  0  0  0  0  0
  189.9190  178.3200  142.9680 C   0  0  0  0  0  2  0  0  0  0  0  0
  191.0410  178.1230  143.9750 C   0  0  1  0  0  3  0  0  0  0  0  0
  189.9550  177.2440  141.9840 N   0  0  0  0  0  0  0  0  0  0  0  0
  191.6330  177.1190  146.2440 C   0  0  0  0  0  1  0  0  0  0  0  0
  190.7690  177.0330  145.0020 C   0  0  2  0  0  0  0  0  0  0  0  0
  189.3540  176.4660  145.1530 C   0  0  0  0  0  2  0  0  0  0  0  0
  186.8070  177.1780  144.0960 O   0  0  0  0  0  0  0  0  0  0  0  0
  188.4700  177.4770  145.7100 N   0  0  0  0  0  2  0  0  0  0  0  0
  187.2000  177.7850  145.1280 C   0  0  0  0  0  0  0  0  0  0  0  0
  186.3200  178.8070  145.7680 C   0  0  0  0  0  2  0  0  0  0  0  0
  184.1480  179.2670  144.5770 C   0  0  0  0  0  1  0  0  0  0  0  0
  184.8390  178.4610  145.6640 C   0  0  2  0  0  3  0  0  0  0  0  0
  184.2020  178.6540  146.8890 O   0  0  0  0  0  1  0  0  0  0  0  0
  1  2  2  0  0  0  0
  2  7  1  0  0  0  0
  3 12  2  0  0  0  0
  4  8  2  0  0  0  0
  4  1  1  0  0  0  0
  6  2  1  0  0  0  0
  6 11  1  0  0  0  0
  7 10  2  0  0  0  0
  8  6  1  0  0  0  0
  9  5  1  6  0  0  0
  9  1  1  0  0  0  0
  9  3  1  0  0  0  0
 10 21  1  0  0  0  0
 12 10  1  0  0  0  0
 13  8  1  0  0  0  0
 14 13  1  1  0  0  0
 15 16  2  0  0  0  0
 15 20  1  0  0  0  0
 16 19  1  0  0  0  0
 17 14  1  0  0  0  0
 18 17  1  0  0  0  0
 18 14  1  0  0  0  0
 19 17  2  0  0  0  0
 20 18  2  0  0  0  0
 21 26  1  0  0  0  0
 23 22  1  6  0  0  0
 23 25  1  0  0  0  0
 23 28  1  0  0  0  0
 25 24  1  6  0  0  0
 25 28  1  0  0  0  0
 26 22  1  0  0  0  0
 26 24  1  0  0  0  0
 28 29  1  0  0  0  0
 28 27  1  1  0  0  0
 29 31  1  0  0  0  0
 30 32  2  0  0  0  0
 32 31  1  0  0  0  0
 32 33  1  0  0  0  0
 35 34  1  6  0  0  0
 35 33  1  0  0  0  0
 35 36  1  0  0  0  0
M  END
>  <MODEL>
5

>  <REMARK>
 VINA RESULT:      -7.1      3.514      7.029
  Name = 
  7 active torsions:
  status: ('A' for Active; 'I' for Inactive)
    1  A    between atoms: C_3  and  N_34
    2  A    between atoms: C_7  and  N_14
    3  A    between atoms: C_7  and  C_30
    4  A    between atoms: C_12  and  N_13
    5  A    between atoms: C_12  and  C_29
    6  A    between atoms: C_19  and  C_20
    7  A    between atoms: C_19  and  C_25
                            x       y       z     vdW  Elec       q    Type
                         _______ _______ _______ _____ _____    ______ ____

>  <TORSDO>
F 7

$$$$
=
 OpenBabel11062416023D

 36 41  0  0  1  0  0  0  0  0999 V2000
  181.4390  178.2000  141.0760 C   0  0  0  0  0  0  0  0  0  0  0  0
  182.7420  178.5170  141.3970 C   0  0  0  0  0  0  0  0  0  0  0  0
  180.2430  178.7960  143.1580 C   0  0  0  0  0  3  0  0  0  0  0  0
  181.3090  178.0990  139.7340 N   0  0  0  0  0  0  0  0  0  0  0  0
  179.1580  177.6440  141.4170 O   0  0  0  0  0  1  0  0  0  0  0  0
  183.4350  178.6230  140.2520 N   0  0  0  0  0  0  0  0  0  0  0  0
  183.3290  178.6180  142.7410 C   0  0  0  0  0  3  0  0  0  0  0  0
  182.5450  178.3830  139.2710 C   0  0  0  0  0  0  0  0  0  0  0  0
  180.3900  177.7960  142.0570 C   0  0  1  0  0  3  0  0  0  0  0  0
  182.6660  178.8670  143.8770 C   0  0  0  0  0  0  0  0  0  0  0  0
  184.8470  178.9350  140.0980 C   0  0  0  0  0  1  0  0  0  0  0  0
  181.2260  179.2160  143.9600 C   0  0  0  0  0  3  0  0  0  0  0  0
  182.8810  178.4030  137.8830 N   0  0  0  0  0  2  0  0  0  0  0  0
  181.8950  178.1180  136.8560 C   0  0  2  0  0  3  0  0  0  0  0  0
  182.9590  175.6220  134.6320 C   0  0  0  0  0  3  0  0  0  0  0  0
  182.1500  174.8340  135.5800 C   0  0  0  0  0  3  0  0  0  0  0  0
  181.6950  176.7290  136.7610 C   0  0  0  0  0  0  0  0  0  0  0  0
  182.5040  177.4450  135.7910 C   0  0  0  0  0  0  0  0  0  0  0  0
  181.4660  175.3910  136.7270 C   0  0  0  0  0  3  0  0  0  0  0  0
  183.1610  176.9970  134.7300 N   0  0  0  0  0  0  0  0  0  0  0  0
  183.4790  178.9670  145.1250 C   0  0  0  0  0  2  0  0  0  0  0  0
  185.6760  179.6660  145.5590 C   0  0  0  0  0  2  0  0  0  0  0  0
  186.0920  179.1320  146.9250 C   0  0  1  0  0  3  0  0  0  0  0  0
  185.1980  177.3850  145.5120 C   0  0  0  0  0  2  0  0  0  0  0  0
  185.7790  177.6450  146.8930 C   0  0  1  0  0  3  0  0  0  0  0  0
  184.8850  178.6560  144.8690 N   0  0  0  0  0  0  0  0  0  0  0  0
  187.9450  177.9510  148.2040 C   0  0  0  0  0  1  0  0  0  0  0  0
  187.2270  178.1150  146.8800 C   0  0  2  0  0  0  0  0  0  0  0  0
  188.0540  177.9940  145.5970 C   0  0  0  0  0  2  0  0  0  0  0  0
  190.7640  178.3780  144.8100 O   0  0  0  0  0  0  0  0  0  0  0  0
  189.1240  177.0280  145.7850 N   0  0  0  0  0  2  0  0  0  0  0  0
  190.4680  177.2860  145.3670 C   0  0  0  0  0  0  0  0  0  0  0  0
  191.5310  176.2710  145.6210 C   0  0  0  0  0  2  0  0  0  0  0  0
  191.5050  177.1710  147.9740 C   0  0  0  0  0  1  0  0  0  0  0  0
  191.6940  175.9430  147.1010 C   0  0  2  0  0  3  0  0  0  0  0  0
  192.9400  175.3650  147.3420 O   0  0  0  0  0  1  0  0  0  0  0  0
  1  2  2  0  0  0  0
  1  9  1  0  0  0  0
  2  7  1  0  0  0  0
  3 12  2  0  0  0  0
  4  1  1  0  0  0  0
  6  2  1  0  0  0  0
  7 10  2  0  0  0  0
  8  4  2  0  0  0  0
  8  6  1  0  0  0  0
  9  5  1  6  0  0  0
  9  3  1  0  0  0  0
 10 12  1  0  0  0  0
 10 21  1  0  0  0  0
 11  6  1  0  0  0  0
 13  8  1  0  0  0  0
 14 13  1  1  0  0  0
 15 20  2  0  0  0  0
 15 16  1  0  0  0  0
 16 19  2  0  0  0  0
 17 14  1  0  0  0  0
 18 17  2  0  0  0  0
 18 14  1  0  0  0  0
 19 17  1  0  0  0  0
 20 18  1  0  0  0  0
 23 22  1  6  0  0  0
 25 24  1  6  0  0  0
 25 23  1  0  0  0  0
 26 21  1  0  0  0  0
 26 24  1  0  0  0  0
 26 22  1  0  0  0  0
 28 25  1  0  0  0  0
 28 23  1  0  0  0  0
 28 27  1  1  0  0  0
 29 31  1  0  0  0  0
 29 28  1  0  0  0  0
 30 32  2  0  0  0  0
 32 33  1  0  0  0  0
 32 31  1  0  0  0  0
 33 35  1  0  0  0  0
 35 36  1  0  0  0  0
 35 34  1  1  0  0  0
M  END
>  <MODEL>
6

>  <REMARK>
 VINA RESULT:      -6.9      3.613      4.957
  Name = 
  7 active torsions:
  status: ('A' for Active; 'I' for Inactive)
    1  A    between atoms: C_3  and  N_34
    2  A    between atoms: C_7  and  N_14
    3  A    between atoms: C_7  and  C_30
    4  A    between atoms: C_12  and  N_13
    5  A    between atoms: C_12  and  C_29
    6  A    between atoms: C_19  and  C_20
    7  A    between atoms: C_19  and  C_25
                            x       y       z     vdW  Elec       q    Type
                         _______ _______ _______ _____ _____    ______ ____

>  <TORSDO>
F 7

$$$$
=
 OpenBabel11062416023D

 36 41  0  0  1  0  0  0  0  0999 V2000
  182.0400  178.4270  141.3700 C   0  0  0  0  0  0  0  0  0  0  0  0
  183.3670  178.5650  141.7180 C   0  0  0  0  0  0  0  0  0  0  0  0
  180.8930  179.1790  143.4290 C   0  0  0  0  0  3  0  0  0  0  0  0
  181.9250  178.3460  140.0250 N   0  0  0  0  0  0  0  0  0  0  0  0
  179.6980  178.1860  141.6620 O   0  0  0  0  0  1  0  0  0  0  0  0
  184.0910  178.5770  140.5880 N   0  0  0  0  0  0  0  0  0  0  0  0
  183.9340  178.5840  143.0740 C   0  0  0  0  0  3  0  0  0  0  0  0
  183.1970  178.4600  139.5890 C   0  0  0  0  0  0  0  0  0  0  0  0
  180.9260  178.1690  142.3280 C   0  0  1  0  0  3  0  0  0  0  0  0
  183.2870  178.9200  144.1980 C   0  0  0  0  0  0  0  0  0  0  0  0
  185.5350  178.6940  140.4640 C   0  0  0  0  0  1  0  0  0  0  0  0
  181.9070  179.4610  144.2520 C   0  0  0  0  0  3  0  0  0  0  0  0
  183.5610  178.4350  138.2070 N   0  0  0  0  0  2  0  0  0  0  0  0
  182.5670  178.2880  137.1600 C   0  0  2  0  0  3  0  0  0  0  0  0
  183.2730  175.6050  135.0110 C   0  0  0  0  0  3  0  0  0  0  0  0
  182.3260  174.9760  135.9520 C   0  0  0  0  0  3  0  0  0  0  0  0
  182.1510  176.9460  137.0850 C   0  0  0  0  0  0  0  0  0  0  0  0
  183.0870  177.5030  136.1240 C   0  0  0  0  0  0  0  0  0  0  0  0
  181.7120  175.6610  137.0690 C   0  0  0  0  0  3  0  0  0  0  0  0
  183.6880  176.9320  135.0890 N   0  0  0  0  0  0  0  0  0  0  0  0
  184.0800  178.9080  145.4630 C   0  0  0  0  0  2  0  0  0  0  0  0
  186.1530  179.4570  146.4160 C   0  0  0  0  0  2  0  0  0  0  0  0
  186.6560  178.2520  147.2030 C   0  0  1  0  0  3  0  0  0  0  0  0
  186.0200  177.6500  144.9490 C   0  0  0  0  0  2  0  0  0  0  0  0
  186.5680  177.0740  146.2450 C   0  0  1  0  0  3  0  0  0  0  0  0
  185.5150  178.9960  145.1900 N   0  0  0  0  0  0  0  0  0  0  0  0
  188.6760  176.7740  147.6490 C   0  0  0  0  0  1  0  0  0  0  0  0
  187.9290  177.6270  146.6450 C   0  0  2  0  0  0  0  0  0  0  0  0
  188.7540  178.4240  145.6300 C   0  0  0  0  0  2  0  0  0  0  0  0
  190.9070  179.2020  143.9360 O   0  0  0  0  0  0  0  0  0  0  0  0
  189.5430  177.5190  144.8100 N   0  0  0  0  0  2  0  0  0  0  0  0
  190.6150  177.9770  143.9820 C   0  0  0  0  0  0  0  0  0  0  0  0
  191.4140  176.9940  143.1920 C   0  0  0  0  0  2  0  0  0  0  0  0
  191.7390  177.4820  140.7410 C   0  0  0  0  0  1  0  0  0  0  0  0
  190.8740  176.7900  141.7810 C   0  0  2  0  0  3  0  0  0  0  0  0
  189.5560  177.2370  141.6900 O   0  0  0  0  0  1  0  0  0  0  0  0
  1  2  2  0  0  0  0
  1  9  1  0  0  0  0
  2  7  1  0  0  0  0
  3 12  2  0  0  0  0
  4  1  1  0  0  0  0
  6  2  1  0  0  0  0
  7 10  2  0  0  0  0
  8  4  2  0  0  0  0
  8  6  1  0  0  0  0
  9  5  1  6  0  0  0
  9  3  1  0  0  0  0
 10 12  1  0  0  0  0
 10 21  1  0  0  0  0
 11  6  1  0  0  0  0
 13  8  1  0  0  0  0
 14 13  1  1  0  0  0
 15 20  2  0  0  0  0
 15 16  1  0  0  0  0
 16 19  2  0  0  0  0
 17 14  1  0  0  0  0
 18 17  2  0  0  0  0
 18 14  1  0  0  0  0
 19 17  1  0  0  0  0
 20 18  1  0  0  0  0
 23 22  1  6  0  0  0
 24 26  1  0  0  0  0
 25 24  1  6  0  0  0
 25 28  1  0  0  0  0
 25 23  1  0  0  0  0
 26 21  1  0  0  0  0
 26 22  1  0  0  0  0
 28 23  1  0  0  0  0
 28 27  1  1  0  0  0
 29 28  1  0  0  0  0
 30 32  2  0  0  0  0
 31 29  1  0  0  0  0
 32 31  1  0  0  0  0
 33 32  1  0  0  0  0
 35 34  1  6  0  0  0
 35 33  1  0  0  0  0
 36 35  1  0  0  0  0
M  END
>  <MODEL>
7

>  <REMARK>
 VINA RESULT:      -6.9      2.606      3.829
  Name = 
  7 active torsions:
  status: ('A' for Active; 'I' for Inactive)
    1  A    between atoms: C_3  and  N_34
    2  A    between atoms: C_7  and  N_14
    3  A    between atoms: C_7  and  C_30
    4  A    between atoms: C_12  and  N_13
    5  A    between atoms: C_12  and  C_29
    6  A    between atoms: C_19  and  C_20
    7  A    between atoms: C_19  and  C_25
                            x       y       z     vdW  Elec       q    Type
                         _______ _______ _______ _____ _____    ______ ____

>  <TORSDO>
F 7

$$$$
=
 OpenBabel11062416023D

 36 41  0  0  1  0  0  0  0  0999 V2000
  188.6580  176.9170  142.4250 C   0  0  0  0  0  0  0  0  0  0  0  0
  187.9470  177.8660  141.7220 C   0  0  0  0  0  0  0  0  0  0  0  0
  190.7630  176.7980  141.1310 C   0  0  0  0  0  3  0  0  0  0  0  0
  188.1260  176.7660  143.6590 N   0  0  0  0  0  0  0  0  0  0  0  0
  190.2960  175.2530  142.8440 O   0  0  0  0  0  1  0  0  0  0  0  0
  186.9660  178.3210  142.5190 N   0  0  0  0  0  0  0  0  0  0  0  0
  188.1280  178.2560  140.3160 C   0  0  0  0  0  3  0  0  0  0  0  0
  187.1090  177.6540  143.6790 C   0  0  0  0  0  0  0  0  0  0  0  0
  189.7010  176.0230  141.8420 C   0  0  1  0  0  3  0  0  0  0  0  0
  189.2500  178.1190  139.5970 C   0  0  0  0  0  0  0  0  0  0  0  0
  185.9620  179.3230  142.2020 C   0  0  0  0  0  1  0  0  0  0  0  0
  190.5550  177.6660  140.1380 C   0  0  0  0  0  3  0  0  0  0  0  0
  186.2560  177.8490  144.8080 N   0  0  0  0  0  2  0  0  0  0  0  0
  186.4320  177.0940  146.0360 C   0  0  2  0  0  3  0  0  0  0  0  0
  189.4370  177.8780  147.6700 C   0  0  0  0  0  3  0  0  0  0  0  0
  188.4870  178.7520  148.3830 C   0  0  0  0  0  3  0  0  0  0  0  0
  186.7910  177.9640  147.0810 C   0  0  0  0  0  0  0  0  0  0  0  0
  187.7770  177.1290  146.4210 C   0  0  0  0  0  0  0  0  0  0  0  0
  187.0710  178.8250  148.0930 C   0  0  0  0  0  3  0  0  0  0  0  0
  189.0820  177.0200  146.6310 N   0  0  0  0  0  0  0  0  0  0  0  0
  189.2160  178.6260  138.1930 C   0  0  0  0  0  2  0  0  0  0  0  0
  188.0590  176.6410  137.7160 C   0  0  0  0  0  2  0  0  0  0  0  0
  186.7470  177.0000  137.0300 C   0  0  1  0  0  3  0  0  0  0  0  0
  188.6370  178.0680  135.9650 C   0  0  0  0  0  2  0  0  0  0  0  0
  187.1250  177.9310  135.8890 C   0  0  1  0  0  3  0  0  0  0  0  0
  189.1110  177.5260  137.2340 N   0  0  0  0  0  0  0  0  0  0  0  0
  185.2180  176.4450  135.0760 C   0  0  0  0  0  1  0  0  0  0  0  0
  186.6420  176.5190  135.5880 C   0  0  2  0  0  0  0  0  0  0  0  0
  187.6370  175.4660  135.0910 C   0  0  0  0  0  2  0  0  0  0  0  0
  187.9870  173.2580  136.8560 O   0  0  0  0  0  0  0  0  0  0  0  0
  186.9740  174.1780  134.9620 N   0  0  0  0  0  2  0  0  0  0  0  0
  187.1940  173.1100  135.8870 C   0  0  0  0  0  0  0  0  0  0  0  0
  186.4560  171.8230  135.7230 C   0  0  0  0  0  2  0  0  0  0  0  0
  184.5940  172.6270  137.2180 C   0  0  0  0  0  1  0  0  0  0  0  0
  184.9490  171.9810  135.8900 C   0  0  2  0  0  3  0  0  0  0  0  0
  184.3090  170.7480  135.7660 O   0  0  0  0  0  1  0  0  0  0  0  0
  1  4  1  0  0  0  0
  2  1  2  0  0  0  0
  2  6  1  0  0  0  0
  3  9  1  0  0  0  0
  4  8  2  0  0  0  0
  6  8  1  0  0  0  0
  7  2  1  0  0  0  0
  8 13  1  0  0  0  0
  9  1  1  0  0  0  0
  9  5  1  1  0  0  0
 10 12  1  0  0  0  0
 10  7  2  0  0  0  0
 11  6  1  0  0  0  0
 12  3  2  0  0  0  0
 14 13  1  6  0  0  0
 14 18  1  0  0  0  0
 14 17  1  0  0  0  0
 15 16  1  0  0  0  0
 17 19  1  0  0  0  0
 18 20  1  0  0  0  0
 18 17  2  0  0  0  0
 19 16  2  0  0  0  0
 20 15  2  0  0  0  0
 21 10  1  0  0  0  0
 23 22  1  1  0  0  0
 24 26  1  0  0  0  0
 25 24  1  1  0  0  0
 25 23  1  0  0  0  0
 26 22  1  0  0  0  0
 26 21  1  0  0  0  0
 28 27  1  6  0  0  0
 28 25  1  0  0  0  0
 28 23  1  0  0  0  0
 29 28  1  0  0  0  0
 31 29  1  0  0  0  0
 31 32  1  0  0  0  0
 32 30  2  0  0  0  0
 33 32  1  0  0  0  0
 33 35  1  0  0  0  0
 35 34  1  1  0  0  0
 36 35  1  0  0  0  0
M  END
>  <MODEL>
8

>  <REMARK>
 VINA RESULT:      -6.9      4.458      8.718
  Name = 
  7 active torsions:
  status: ('A' for Active; 'I' for Inactive)
    1  A    between atoms: C_3  and  N_34
    2  A    between atoms: C_7  and  N_14
    3  A    between atoms: C_7  and  C_30
    4  A    between atoms: C_12  and  N_13
    5  A    between atoms: C_12  and  C_29
    6  A    between atoms: C_19  and  C_20
    7  A    between atoms: C_19  and  C_25
                            x       y       z     vdW  Elec       q    Type
                         _______ _______ _______ _____ _____    ______ ____

>  <TORSDO>
F 7

$$$$
=
 OpenBabel11062416023D

 36 41  0  0  1  0  0  0  0  0999 V2000
  184.2720  178.7090  143.4820 C   0  0  0  0  0  0  0  0  0  0  0  0
  184.2800  178.7320  142.1040 C   0  0  0  0  0  0  0  0  0  0  0  0
  181.8490  178.6280  143.9760 C   0  0  0  0  0  3  0  0  0  0  0  0
  185.4910  178.3480  143.9420 N   0  0  0  0  0  0  0  0  0  0  0  0
  183.4310  178.9600  145.6860 O   0  0  0  0  0  1  0  0  0  0  0  0
  185.5080  178.3770  141.6920 N   0  0  0  0  0  0  0  0  0  0  0  0
  183.1940  179.1680  141.2140 C   0  0  0  0  0  3  0  0  0  0  0  0
  186.2070  178.1370  142.8170 C   0  0  0  0  0  0  0  0  0  0  0  0
  183.1680  179.2290  144.3410 C   0  0  1  0  0  3  0  0  0  0  0  0
  181.8890  179.1940  141.5120 C   0  0  0  0  0  0  0  0  0  0  0  0
  185.9850  178.2700  140.3230 C   0  0  0  0  0  1  0  0  0  0  0  0
  181.2940  178.6580  142.7610 C   0  0  0  0  0  3  0  0  0  0  0  0
  187.5750  177.7260  142.8190 N   0  0  0  0  0  2  0  0  0  0  0  0
  188.3000  177.4970  144.0560 C   0  0  2  0  0  3  0  0  0  0  0  0
  191.6750  176.7110  143.5040 C   0  0  0  0  0  3  0  0  0  0  0  0
  191.7580  178.1610  143.7630 C   0  0  0  0  0  3  0  0  0  0  0  0
  189.4980  178.2340  144.0480 C   0  0  0  0  0  0  0  0  0  0  0  0
  189.4870  176.8060  143.7850 C   0  0  0  0  0  0  0  0  0  0  0  0
  190.6180  179.0030  144.0530 C   0  0  0  0  0  3  0  0  0  0  0  0
  190.4880  175.9820  143.5060 N   0  0  0  0  0  0  0  0  0  0  0  0
  180.9590  179.6380  140.4330 C   0  0  0  0  0  2  0  0  0  0  0  0
  179.7430  179.0630  138.5090 C   0  0  0  0  0  2  0  0  0  0  0  0
  180.6390  179.2700  137.2930 C   0  0  1  0  0  3  0  0  0  0  0  0
  181.7210  177.9250  138.9860 C   0  0  0  0  0  2  0  0  0  0  0  0
  181.9280  178.5280  137.6060 C   0  0  1  0  0  3  0  0  0  0  0  0
  180.5360  178.5120  139.6000 N   0  0  0  0  0  0  0  0  0  0  0  0
  181.4450  178.2250  135.1200 C   0  0  0  0  0  1  0  0  0  0  0  0
  180.9820  177.9880  136.5430 C   0  0  2  0  0  0  0  0  0  0  0  0
  180.1580  176.7290  136.8280 C   0  0  0  0  0  2  0  0  0  0  0  0
  180.6740  174.5840  138.6280 O   0  0  0  0  0  0  0  0  0  0  0  0
  180.9380  175.5430  136.5140 N   0  0  0  0  0  2  0  0  0  0  0  0
  181.1580  174.4990  137.4670 C   0  0  0  0  0  0  0  0  0  0  0  0
  181.9360  173.2880  137.0740 C   0  0  0  0  0  2  0  0  0  0  0  0
  184.2330  172.2620  137.2180 C   0  0  0  0  0  1  0  0  0  0  0  0
  183.4380  173.5420  137.0200 C   0  0  2  0  0  3  0  0  0  0  0  0
  183.8110  174.4940  137.9680 O   0  0  0  0  0  1  0  0  0  0  0  0
  1  4  1  0  0  0  0
  1  9  1  0  0  0  0
  2  1  2  0  0  0  0
  3  9  1  0  0  0  0
  6  2  1  0  0  0  0
  6  8  1  0  0  0  0
  7 10  2  0  0  0  0
  7  2  1  0  0  0  0
  8 13  1  0  0  0  0
  8  4  2  0  0  0  0
  9  5  1  1  0  0  0
 10 12  1  0  0  0  0
 11  6  1  0  0  0  0
 12  3  2  0  0  0  0
 14 13  1  6  0  0  0
 15 20  2  0  0  0  0
 15 16  1  0  0  0  0
 16 19  2  0  0  0  0
 17 19  1  0  0  0  0
 17 14  1  0  0  0  0
 18 17  2  0  0  0  0
 18 14  1  0  0  0  0
 20 18  1  0  0  0  0
 21 10  1  0  0  0  0
 22 26  1  0  0  0  0
 23 25  1  0  0  0  0
 23 22  1  1  0  0  0
 24 26  1  0  0  0  0
 25 24  1  1  0  0  0
 26 21  1  0  0  0  0
 28 27  1  6  0  0  0
 28 29  1  0  0  0  0
 28 23  1  0  0  0  0
 28 25  1  0  0  0  0
 31 29  1  0  0  0  0
 31 32  1  0  0  0  0
 32 30  2  0  0  0  0
 33 32  1  0  0  0  0
 35 33  1  0  0  0  0
 35 34  1  1  0  0  0
 35 36  1  0  0  0  0
M  END
>  <MODEL>
9

>  <REMARK>
 VINA RESULT:      -6.8      3.165      8.902
  Name = 
  7 active torsions:
  status: ('A' for Active; 'I' for Inactive)
    1  A    between atoms: C_3  and  N_34
    2  A    between atoms: C_7  and  N_14
    3  A    between atoms: C_7  and  C_30
    4  A    between atoms: C_12  and  N_13
    5  A    between atoms: C_12  and  C_29
    6  A    between atoms: C_19  and  C_20
    7  A    between atoms: C_19  and  C_25
                            x       y       z     vdW  Elec       q    Type
                         _______ _______ _______ _____ _____    ______ ____

>  <TORSDO>
F 7

$$$$
