=
 OpenBabel11062412023D

 48 51  0  0  1  0  0  0  0  0999 V2000
  187.6740  174.5330  136.8300 N   0  0  0  0  0  2  0  0  0  0  0  0
  187.7660  176.8580  135.9390 C   0  0  2  0  0  3  0  0  0  0  0  0
  185.7260  176.0310  137.1900 C   0  0  2  0  0  3  0  0  0  0  0  0
  186.8680  177.0520  137.1650 C   0  0  0  0  0  2  0  0  0  0  0  0
  188.1810  175.3890  135.7560 C   0  0  0  0  0  2  0  0  0  0  0  0
  186.2130  174.6180  136.8450 C   0  0  0  0  0  2  0  0  0  0  0  0
  189.0080  177.7300  136.0480 C   0  0  0  0  0  2  0  0  0  0  0  0
  190.8380  176.3780  139.0910 C   0  0  0  0  0  3  0  0  0  0  0  0
  189.0310  179.4150  138.4460 O   0  0  0  0  0  0  0  0  0  0  0  0
  190.4000  176.2460  137.6230 C   0  0  0  0  0  3  0  0  0  0  0  0
  189.7100  177.4800  137.2980 N   0  0  0  0  0  0  0  0  0  0  0  0
  189.6050  178.2920  138.4450 C   0  0  0  0  0  0  0  0  0  0  0  0
  190.2560  177.6910  139.6280 C   0  0  1  0  0  3  0  0  0  0  0  0
  188.7840  176.2450  143.0570 C   0  0  0  0  0  2  0  0  0  0  0  0
  186.1280  177.8970  144.7820 C   0  0  0  0  0  0  0  0  0  0  0  0
  189.7290  176.7640  142.0110 C   0  0  0  0  0  0  0  0  0  0  0  0
  188.4660  177.2480  144.1780 C   0  0  2  0  0  3  0  0  0  0  0  0
  186.2180  177.1190  145.9330 O   0  0  0  0  0  1  0  0  0  0  0  0
  188.0530  177.9340  140.5470 C   0  0  0  0  0  3  0  0  0  0  0  0
  190.9610  176.5720  142.2090 O   0  0  0  0  0  0  0  0  0  0  0  0
  187.1370  178.7970  142.6740 C   0  0  0  0  0  2  0  0  0  0  0  0
  189.2910  177.4630  140.7620 C   0  0  0  0  0  0  0  0  0  0  0  0
  186.8950  177.8800  141.4880 C   0  0  0  0  0  2  0  0  0  0  0  0
  185.0550  178.5110  144.5370 O   0  0  0  0  0  0  0  0  0  0  0  0
  187.2450  178.0010  143.8900 N   0  0  0  0  0  0  0  0  0  0  0  0
  189.6290  178.1700  144.5490 C   0  0  0  0  0  2  0  0  0  0  0  0
  190.2010  177.8290  145.9160 C   0  0  0  0  0  2  0  0  0  0  0  0
  191.2540  176.7410  145.7910 C   0  0  0  0  0  1  0  0  0  0  0  0
  184.6150  176.4150  136.2230 C   0  0  0  0  0  2  0  0  0  0  0  0
  181.0290  180.4720  136.9760 O   0  0  0  0  0  0  0  0  0  0  0  0
  182.4240  178.8050  137.8640 N   0  0  0  0  0  0  0  0  0  0  0  0
  183.5530  178.5630  138.7620 C   0  0  0  0  0  2  0  0  0  0  0  0
  182.9560  176.2080  136.9560 P   0  0  1  0  0  4  0  0  0  0  0  0
  183.1930  175.6310  138.6770 C   0  0  0  0  0  2  0  0  0  0  0  0
  182.4090  176.4820  139.6680 C   0  0  0  0  0  2  0  0  0  0  0  0
  183.1160  177.7920  140.0040 C   0  0  0  0  0  2  0  0  0  0  0  0
  181.8430  180.1230  137.8740 C   0  0  0  0  0  0  0  0  0  0  0  0
  182.0250  177.8070  136.8500 C   0  0  1  0  0  3  0  0  0  0  0  0
  182.1800  181.0310  138.8700 O   0  0  0  0  0  1  0  0  0  0  0  0
  182.0950  174.9020  136.0260 C   0  0  0  0  0  2  0  0  0  0  0  0
  182.6690  173.5430  136.3760 C   0  0  0  0  0  1  0  0  0  0  0  0
  180.4980  177.6260  136.7790 C   0  0  1  0  0  3  0  0  0  0  0  0
  180.1250  177.0780  135.5490 O   0  0  0  0  0  0  0  0  0  0  0  0
  179.8810  178.1800  134.7280 C   0  0  0  0  0  1  0  0  0  0  0  0
  179.9950  176.8010  137.8660 N   0  0  0  0  0  2  0  0  0  0  0  0
  178.9310  175.9800  137.3160 C   0  0  0  0  0  2  0  0  0  0  0  0
  179.4340  174.5880  139.2980 C   0  0  0  0  0  1  0  0  0  0  0  0
  179.0730  174.5610  137.8280 C   0  0  0  0  0  2  0  0  0  0  0  0
  1  6  1  0  0  0  0
  2  7  1  1  0  0  0
  2  4  1  0  0  0  0
  3 29  1  6  0  0  0
  4  3  1  0  0  0  0
  5  2  1  0  0  0  0
  5  1  1  0  0  0  0
  6  3  1  0  0  0  0
  7 11  1  0  0  0  0
  8 13  1  0  0  0  0
 10  8  2  0  0  0  0
 11 10  1  0  0  0  0
 11 12  1  0  0  0  0
 12  9  2  0  0  0  0
 12 13  1  0  0  0  0
 13 22  1  1  0  0  0
 14 17  1  0  0  0  0
 15 18  1  0  0  0  0
 16 20  2  0  0  0  0
 16 14  1  0  0  0  0
 17 26  1  6  0  0  0
 19 22  2  0  0  0  0
 19 23  1  0  0  0  0
 21 25  1  0  0  0  0
 22 16  1  0  0  0  0
 23 21  1  0  0  0  0
 24 15  2  0  0  0  0
 25 17  1  0  0  0  0
 25 15  1  0  0  0  0
 26 27  1  0  0  0  0
 28 27  1  0  0  0  0
 29 33  1  0  0  0  0
 30 37  2  0  0  0  0
 31 37  1  0  0  0  0
 31 32  1  0  0  0  0
 32 36  1  0  0  0  0
 33 40  1  6  0  0  0
 33 34  1  0  0  0  0
 34 35  1  0  0  0  0
 35 36  1  0  0  0  0
 37 39  1  0  0  0  0
 38 42  1  1  0  0  0
 38 33  1  0  0  0  0
 38 31  1  0  0  0  0
 40 41  1  0  0  0  0
 42 43  1  6  0  0  0
 42 45  1  0  0  0  0
 44 43  1  0  0  0  0
 46 48  1  0  0  0  0
 46 45  1  0  0  0  0
 48 47  1  0  0  0  0
M  END
>  <MODEL>
1

>  <REMARK>
 VINA RESULT:      -6.5      0.000      0.000
  Name = 
  13 active torsions:
  status: ('A' for Active; 'I' for Inactive)
    1  A    between atoms: C_1  and  C_17
    2  A    between atoms: C_1  and  N_30
    3  A    between atoms: C_4  and  N_22
    4  A    between atoms: C_4  and  C_24
    5  A    between atoms: O_5  and  C_18
    6  A    between atoms: C_6  and  C_11
    7  A    between atoms: C_11  and  C_15
    8  A    between atoms: C_18  and  N_22
    9  A    between atoms: C_18  and  C_39
   10  A    between atoms: C_21  and  P_23
   11  A    between atoms: C_21  and  C_32
   12  A    between atoms: P_23  and  C_44
   13  A    between atoms: C_33  and  C_37
                            x       y       z     vdW  Elec       q    Type
                         _______ _______ _______ _____ _____    ______ ____

>  <TORSDO>
F 13

$$$$
=
 OpenBabel11062412023D

 48 51  0  0  1  0  0  0  0  0999 V2000
  179.6600  179.0520  143.8890 N   0  0  0  0  0  2  0  0  0  0  0  0
  182.0540  178.9160  143.2120 C   0  0  2  0  0  3  0  0  0  0  0  0
  180.2090  178.7450  141.4860 C   0  0  2  0  0  3  0  0  0  0  0  0
  181.4330  179.5380  141.9580 C   0  0  0  0  0  2  0  0  0  0  0  0
  180.9990  178.6150  144.2890 C   0  0  0  0  0  2  0  0  0  0  0  0
  179.2920  178.3590  142.6540 C   0  0  0  0  0  2  0  0  0  0  0  0
  183.1220  179.8340  143.7850 C   0  0  0  0  0  2  0  0  0  0  0  0
  186.1460  178.4100  145.5930 C   0  0  0  0  0  3  0  0  0  0  0  0
  184.5250  177.6110  142.4890 O   0  0  0  0  0  0  0  0  0  0  0  0
  184.9610  179.3870  145.5290 C   0  0  0  0  0  3  0  0  0  0  0  0
  184.2400  179.0640  144.3130 N   0  0  0  0  0  0  0  0  0  0  0  0
  184.9250  178.0630  143.5960 C   0  0  0  0  0  0  0  0  0  0  0  0
  186.1420  177.5970  144.2930 C   0  0  1  0  0  3  0  0  0  0  0  0
  190.0060  178.2330  143.4660 C   0  0  0  0  0  2  0  0  0  0  0  0
  191.3680  177.4750  140.2530 C   0  0  0  0  0  0  0  0  0  0  0  0
  188.7420  177.7510  144.1210 C   0  0  0  0  0  0  0  0  0  0  0  0
  190.7500  177.1600  142.6550 C   0  0  2  0  0  3  0  0  0  0  0  0
  192.6960  177.6630  140.6280 O   0  0  0  0  0  1  0  0  0  0  0  0
  187.1760  178.0720  142.1800 C   0  0  0  0  0  3  0  0  0  0  0  0
  188.8480  177.2800  145.2870 O   0  0  0  0  0  0  0  0  0  0  0  0
  188.9770  177.0280  140.8480 C   0  0  0  0  0  2  0  0  0  0  0  0
  187.3910  177.8200  143.4800 C   0  0  0  0  0  0  0  0  0  0  0  0
  188.2100  178.3070  141.1280 C   0  0  0  0  0  2  0  0  0  0  0  0
  191.0580  177.5450  139.0340 O   0  0  0  0  0  0  0  0  0  0  0  0
  190.3690  177.1990  141.2430 N   0  0  0  0  0  0  0  0  0  0  0  0
  190.6460  175.7470  143.2340 C   0  0  0  0  0  2  0  0  0  0  0  0
  191.8880  175.3750  144.0290 C   0  0  0  0  0  2  0  0  0  0  0  0
  191.8340  176.0000  145.4130 C   0  0  0  0  0  1  0  0  0  0  0  0
  180.6180  177.4790  140.7460 C   0  0  0  0  0  2  0  0  0  0  0  0
  185.0600  176.7940  137.6330 O   0  0  0  0  0  0  0  0  0  0  0  0
  183.3900  178.1950  138.5070 N   0  0  0  0  0  0  0  0  0  0  0  0
  183.1540  179.3980  139.3040 C   0  0  0  0  0  2  0  0  0  0  0  0
  180.6620  177.7190  138.9370 P   0  0  1  0  0  4  0  0  0  0  0  0
  180.2810  179.4810  138.6150 C   0  0  0  0  0  2  0  0  0  0  0  0
  181.3180  180.1220  137.7010 C   0  0  0  0  0  2  0  0  0  0  0  0
  182.5870  180.5260  138.4480 C   0  0  0  0  0  2  0  0  0  0  0  0
  184.7480  177.9160  138.1170 C   0  0  0  0  0  0  0  0  0  0  0  0
  182.3170  177.2040  138.2810 C   0  0  1  0  0  3  0  0  0  0  0  0
  185.7360  178.8810  138.2780 O   0  0  0  0  0  1  0  0  0  0  0  0
  179.3390  176.7040  138.2080 C   0  0  0  0  0  2  0  0  0  0  0  0
  179.0190  175.5300  139.1120 C   0  0  0  0  0  1  0  0  0  0  0  0
  182.2740  176.7130  136.8220 C   0  0  1  0  0  3  0  0  0  0  0  0
  182.8230  177.6710  135.9660 O   0  0  0  0  0  0  0  0  0  0  0  0
  182.8120  177.0710  134.7060 C   0  0  0  0  0  1  0  0  0  0  0  0
  182.9590  175.4410  136.6530 N   0  0  0  0  0  2  0  0  0  0  0  0
  182.1110  174.4230  137.2470 C   0  0  0  0  0  2  0  0  0  0  0  0
  181.3530  172.5920  135.7670 C   0  0  0  0  0  1  0  0  0  0  0  0
  181.0570  173.9980  136.2450 C   0  0  0  0  0  2  0  0  0  0  0  0
  1  5  1  0  0  0  0
  2  7  1  1  0  0  0
  2  5  1  0  0  0  0
  3 29  1  1  0  0  0
  3  4  1  0  0  0  0
  3  6  1  0  0  0  0
  4  2  1  0  0  0  0
  6  1  1  0  0  0  0
  7 11  1  0  0  0  0
  9 12  2  0  0  0  0
 10  8  2  0  0  0  0
 11 10  1  0  0  0  0
 12 13  1  0  0  0  0
 12 11  1  0  0  0  0
 13 22  1  6  0  0  0
 13  8  1  0  0  0  0
 14 16  1  0  0  0  0
 15 18  1  0  0  0  0
 15 25  1  0  0  0  0
 16 20  2  0  0  0  0
 17 26  1  1  0  0  0
 17 14  1  0  0  0  0
 19 22  2  0  0  0  0
 21 23  1  0  0  0  0
 21 25  1  0  0  0  0
 22 16  1  0  0  0  0
 23 19  1  0  0  0  0
 24 15  2  0  0  0  0
 25 17  1  0  0  0  0
 26 27  1  0  0  0  0
 27 28  1  0  0  0  0
 30 37  2  0  0  0  0
 31 32  1  0  0  0  0
 33 40  1  6  0  0  0
 33 29  1  0  0  0  0
 34 33  1  0  0  0  0
 35 36  1  0  0  0  0
 35 34  1  0  0  0  0
 36 32  1  0  0  0  0
 37 39  1  0  0  0  0
 37 31  1  0  0  0  0
 38 42  1  6  0  0  0
 38 31  1  0  0  0  0
 38 33  1  0  0  0  0
 40 41  1  0  0  0  0
 42 43  1  6  0  0  0
 44 43  1  0  0  0  0
 45 42  1  0  0  0  0
 45 46  1  0  0  0  0
 47 48  1  0  0  0  0
 48 46  1  0  0  0  0
M  END
>  <MODEL>
2

>  <REMARK>
 VINA RESULT:      -6.5      2.559      5.799
  Name = 
  13 active torsions:
  status: ('A' for Active; 'I' for Inactive)
    1  A    between atoms: C_1  and  C_17
    2  A    between atoms: C_1  and  N_30
    3  A    between atoms: C_4  and  N_22
    4  A    between atoms: C_4  and  C_24
    5  A    between atoms: O_5  and  C_18
    6  A    between atoms: C_6  and  C_11
    7  A    between atoms: C_11  and  C_15
    8  A    between atoms: C_18  and  N_22
    9  A    between atoms: C_18  and  C_39
   10  A    between atoms: C_21  and  P_23
   11  A    between atoms: C_21  and  C_32
   12  A    between atoms: P_23  and  C_44
   13  A    between atoms: C_33  and  C_37
                            x       y       z     vdW  Elec       q    Type
                         _______ _______ _______ _____ _____    ______ ____

>  <TORSDO>
F 13

$$$$
=
 OpenBabel11062412023D

 48 51  0  0  1  0  0  0  0  0999 V2000
  184.4730  179.7180  139.6850 N   0  0  0  0  0  2  0  0  0  0  0  0
  185.6050  178.0580  138.2120 C   0  0  2  0  0  3  0  0  0  0  0  0
  183.0790  178.1590  138.3460 C   0  0  2  0  0  3  0  0  0  0  0  0
  184.3060  178.2950  137.4370 C   0  0  0  0  0  2  0  0  0  0  0  0
  185.6520  178.8660  139.5200 C   0  0  0  0  0  2  0  0  0  0  0  0
  183.2810  178.8700  139.6900 C   0  0  0  0  0  2  0  0  0  0  0  0
  186.8080  178.4120  137.3510 C   0  0  0  0  0  2  0  0  0  0  0  0
  189.4580  175.9880  138.5930 C   0  0  0  0  0  3  0  0  0  0  0  0
  189.2620  179.5720  138.4560 O   0  0  0  0  0  0  0  0  0  0  0  0
  188.0980  176.2620  137.9300 C   0  0  0  0  0  3  0  0  0  0  0  0
  187.9970  177.7040  137.8030 N   0  0  0  0  0  0  0  0  0  0  0  0
  189.1100  178.3220  138.4070 C   0  0  0  0  0  0  0  0  0  0  0  0
  190.0750  177.3450  138.9530 C   0  0  1  0  0  3  0  0  0  0  0  0
  189.3970  178.5260  142.7170 C   0  0  0  0  0  2  0  0  0  0  0  0
  190.8530  176.8130  145.4920 C   0  0  0  0  0  0  0  0  0  0  0  0
  189.1910  178.0720  141.2990 C   0  0  0  0  0  0  0  0  0  0  0  0
  189.1470  177.4380  143.7740 C   0  0  2  0  0  3  0  0  0  0  0  0
  190.1090  177.4820  146.4610 O   0  0  0  0  0  1  0  0  0  0  0  0
  191.4700  177.0920  140.8890 C   0  0  0  0  0  3  0  0  0  0  0  0
  188.0310  178.2070  140.8210 O   0  0  0  0  0  0  0  0  0  0  0  0
  191.1830  176.0720  143.1230 C   0  0  0  0  0  2  0  0  0  0  0  0
  190.2750  177.5020  140.4380 C   0  0  0  0  0  0  0  0  0  0  0  0
  191.9460  177.0990  142.3050 C   0  0  0  0  0  2  0  0  0  0  0  0
  191.9350  176.2580  145.8220 O   0  0  0  0  0  0  0  0  0  0  0  0
  190.3890  176.7530  144.1370 N   0  0  0  0  0  0  0  0  0  0  0  0
  188.0370  176.4490  143.4110 C   0  0  0  0  0  2  0  0  0  0  0  0
  186.7000  176.8700  144.0000 C   0  0  0  0  0  2  0  0  0  0  0  0
  186.9120  177.8280  145.1600 C   0  0  0  0  0  1  0  0  0  0  0  0
  182.7430  176.6980  138.6110 C   0  0  0  0  0  2  0  0  0  0  0  0
  183.0600  171.4230  137.2110 O   0  0  0  0  0  1  0  0  0  0  0  0
  183.4080  173.6860  136.6890 N   0  0  0  0  0  0  0  0  0  0  0  0
  184.4230  174.6710  136.3180 C   0  0  0  0  0  2  0  0  0  0  0  0
  181.8280  175.9370  137.2270 P   0  0  1  0  0  4  0  0  0  0  0  0
  182.4080  176.7390  135.6870 C   0  0  0  0  0  2  0  0  0  0  0  0
  182.8220  175.7130  134.6400 C   0  0  0  0  0  2  0  0  0  0  0  0
  184.2220  175.1570  134.8850 C   0  0  0  0  0  2  0  0  0  0  0  0
  183.7990  172.3000  136.6870 C   0  0  0  0  0  0  0  0  0  0  0  0
  182.0990  174.1030  137.2350 C   0  0  1  0  0  3  0  0  0  0  0  0
  185.0060  171.9130  136.1150 O   0  0  0  0  0  0  0  0  0  0  0  0
  180.0630  176.3250  137.4460 C   0  0  0  0  0  2  0  0  0  0  0  0
  179.7080  176.3430  138.9190 C   0  0  0  0  0  1  0  0  0  0  0  0
  180.9310  173.3060  136.6250 C   0  0  1  0  0  3  0  0  0  0  0  0
  179.8180  173.3440  137.4680 O   0  0  0  0  0  0  0  0  0  0  0  0
  180.1050  172.4230  138.4780 C   0  0  0  0  0  1  0  0  0  0  0  0
  180.5720  173.7900  135.3020 N   0  0  0  0  0  2  0  0  0  0  0  0
  179.9530  172.6800  134.6000 C   0  0  0  0  0  2  0  0  0  0  0  0
  180.0370  170.2080  134.6490 C   0  0  0  0  0  1  0  0  0  0  0  0
  180.8680  171.4740  134.6590 C   0  0  0  0  0  2  0  0  0  0  0  0
  1  6  1  0  0  0  0
  2  7  1  6  0  0  0
  2  5  1  0  0  0  0
  3 29  1  1  0  0  0
  3  6  1  0  0  0  0
  4  2  1  0  0  0  0
  4  3  1  0  0  0  0
  5  1  1  0  0  0  0
  7 11  1  0  0  0  0
  8 13  1  0  0  0  0
 10  8  2  0  0  0  0
 11 10  1  0  0  0  0
 11 12  1  0  0  0  0
 12  9  2  0  0  0  0
 12 13  1  0  0  0  0
 13 22  1  1  0  0  0
 14 17  1  0  0  0  0
 15 24  2  0  0  0  0
 15 18  1  0  0  0  0
 16 14  1  0  0  0  0
 17 26  1  6  0  0  0
 17 25  1  0  0  0  0
 19 23  1  0  0  0  0
 20 16  2  0  0  0  0
 21 25  1  0  0  0  0
 22 19  2  0  0  0  0
 22 16  1  0  0  0  0
 23 21  1  0  0  0  0
 25 15  1  0  0  0  0
 26 27  1  0  0  0  0
 27 28  1  0  0  0  0
 31 38  1  0  0  0  0
 32 31  1  0  0  0  0
 33 38  1  0  0  0  0
 33 40  1  1  0  0  0
 33 29  1  0  0  0  0
 34 33  1  0  0  0  0
 35 36  1  0  0  0  0
 35 34  1  0  0  0  0
 36 32  1  0  0  0  0
 37 31  1  0  0  0  0
 37 30  1  0  0  0  0
 38 42  1  6  0  0  0
 39 37  2  0  0  0  0
 40 41  1  0  0  0  0
 42 45  1  6  0  0  0
 42 43  1  0  0  0  0
 43 44  1  0  0  0  0
 46 48  1  0  0  0  0
 46 45  1  0  0  0  0
 47 48  1  0  0  0  0
M  END
>  <MODEL>
3

>  <REMARK>
 VINA RESULT:      -5.9      2.603      4.590
  Name = 
  13 active torsions:
  status: ('A' for Active; 'I' for Inactive)
    1  A    between atoms: C_1  and  C_17
    2  A    between atoms: C_1  and  N_30
    3  A    between atoms: C_4  and  N_22
    4  A    between atoms: C_4  and  C_24
    5  A    between atoms: O_5  and  C_18
    6  A    between atoms: C_6  and  C_11
    7  A    between atoms: C_11  and  C_15
    8  A    between atoms: C_18  and  N_22
    9  A    between atoms: C_18  and  C_39
   10  A    between atoms: C_21  and  P_23
   11  A    between atoms: C_21  and  C_32
   12  A    between atoms: P_23  and  C_44
   13  A    between atoms: C_33  and  C_37
                            x       y       z     vdW  Elec       q    Type
                         _______ _______ _______ _____ _____    ______ ____

>  <TORSDO>
F 13

$$$$
=
 OpenBabel11062412023D

 48 51  0  0  1  0  0  0  0  0999 V2000
  183.7770  179.0110  145.5380 N   0  0  0  0  0  2  0  0  0  0  0  0
  185.9500  178.0880  144.7420 C   0  0  2  0  0  3  0  0  0  0  0  0
  184.3160  179.1370  143.1180 C   0  0  2  0  0  3  0  0  0  0  0  0
  185.7220  179.2100  143.7250 C   0  0  0  0  0  2  0  0  0  0  0  0
  184.7940  177.9780  145.7490 C   0  0  0  0  0  2  0  0  0  0  0  0
  183.2450  178.8720  144.1830 C   0  0  0  0  0  2  0  0  0  0  0  0
  187.2570  178.3080  145.4880 C   0  0  0  0  0  2  0  0  0  0  0  0
  190.5390  177.6750  143.6790 C   0  0  0  0  0  3  0  0  0  0  0  0
  187.2100  176.3870  143.2750 O   0  0  0  0  0  0  0  0  0  0  0  0
  189.7350  178.3630  144.7950 C   0  0  0  0  0  3  0  0  0  0  0  0
  188.3890  177.8300  144.7060 N   0  0  0  0  0  0  0  0  0  0  0  0
  188.2810  176.9700  143.5950 C   0  0  0  0  0  0  0  0  0  0  0  0
  189.5590  176.8180  142.8690 C   0  0  1  0  0  3  0  0  0  0  0  0
  190.7210  177.7940  139.1650 C   0  0  0  0  0  2  0  0  0  0  0  0
  188.4130  177.8180  136.4400 C   0  0  0  0  0  0  0  0  0  0  0  0
  190.6280  177.1230  140.5070 C   0  0  0  0  0  0  0  0  0  0  0  0
  190.1690  176.9590  137.9990 C   0  0  2  0  0  3  0  0  0  0  0  0
  189.3820  177.9800  135.4520 O   0  0  0  0  0  0  0  0  0  0  0  0
  188.2740  177.7890  141.0900 C   0  0  0  0  0  3  0  0  0  0  0  0
  191.6110  176.4150  140.8590 O   0  0  0  0  0  0  0  0  0  0  0  0
  187.7570  177.1440  138.7600 C   0  0  0  0  0  2  0  0  0  0  0  0
  189.4620  177.2690  141.4340 C   0  0  0  0  0  0  0  0  0  0  0  0
  187.8720  178.2950  139.7440 C   0  0  0  0  0  2  0  0  0  0  0  0
  187.2210  178.1390  136.1900 O   0  0  0  0  0  1  0  0  0  0  0  0
  188.7700  177.2880  137.7230 N   0  0  0  0  0  0  0  0  0  0  0  0
  190.3800  175.4510  138.1470 C   0  0  0  0  0  2  0  0  0  0  0  0
  191.6590  174.9940  137.4640 C   0  0  0  0  0  2  0  0  0  0  0  0
  192.1000  176.0180  136.4310 C   0  0  0  0  0  1  0  0  0  0  0  0
  184.2260  178.0530  142.0530 C   0  0  0  0  0  2  0  0  0  0  0  0
  182.8310  174.6260  138.0290 O   0  0  0  0  0  1  0  0  0  0  0  0
  183.5260  176.7560  138.7310 N   0  0  0  0  0  0  0  0  0  0  0  0
  184.5790  177.7610  138.5920 C   0  0  0  0  0  2  0  0  0  0  0  0
  182.7740  178.2660  140.9690 P   0  0  1  0  0  4  0  0  0  0  0  0
  183.0210  179.8190  140.0310 C   0  0  0  0  0  2  0  0  0  0  0  0
  182.8320  179.6070  138.5340 C   0  0  0  0  0  2  0  0  0  0  0  0
  184.0660  179.0030  137.8680 C   0  0  0  0  0  2  0  0  0  0  0  0
  183.5570  175.6360  137.8250 C   0  0  0  0  0  0  0  0  0  0  0  0
  182.5910  176.7810  139.8750 C   0  0  1  0  0  3  0  0  0  0  0  0
  184.3970  175.6530  136.7180 O   0  0  0  0  0  0  0  0  0  0  0  0
  181.3090  178.4640  142.0310 C   0  0  0  0  0  2  0  0  0  0  0  0
  180.5070  179.6740  141.5980 C   0  0  0  0  0  1  0  0  0  0  0  0
  181.1370  176.5090  139.4450 C   0  0  1  0  0  3  0  0  0  0  0  0
  180.3400  176.2340  140.5590 O   0  0  0  0  0  0  0  0  0  0  0  0
  179.8730  174.9350  140.3520 C   0  0  0  0  0  1  0  0  0  0  0  0
  180.5750  177.6170  138.6900 N   0  0  0  0  0  2  0  0  0  0  0  0
  180.1790  177.0880  137.3960 C   0  0  0  0  0  2  0  0  0  0  0  0
  181.5370  177.6970  135.4200 C   0  0  0  0  0  1  0  0  0  0  0  0
  180.4110  178.1390  136.3300 C   0  0  0  0  0  2  0  0  0  0  0  0
  1  5  1  0  0  0  0
  2  7  1  1  0  0  0
  2  5  1  0  0  0  0
  3 29  1  6  0  0  0
  3  4  1  0  0  0  0
  3  6  1  0  0  0  0
  4  2  1  0  0  0  0
  6  1  1  0  0  0  0
  8 10  2  0  0  0  0
  9 12  2  0  0  0  0
 11 10  1  0  0  0  0
 11  7  1  0  0  0  0
 12 11  1  0  0  0  0
 13 22  1  6  0  0  0
 13 12  1  0  0  0  0
 13  8  1  0  0  0  0
 14 16  1  0  0  0  0
 15 25  1  0  0  0  0
 16 20  2  0  0  0  0
 16 22  1  0  0  0  0
 17 26  1  1  0  0  0
 17 14  1  0  0  0  0
 18 15  2  0  0  0  0
 19 22  2  0  0  0  0
 21 23  1  0  0  0  0
 23 19  1  0  0  0  0
 24 15  1  0  0  0  0
 25 17  1  0  0  0  0
 25 21  1  0  0  0  0
 27 26  1  0  0  0  0
 28 27  1  0  0  0  0
 31 38  1  0  0  0  0
 32 31  1  0  0  0  0
 33 40  1  1  0  0  0
 33 29  1  0  0  0  0
 34 33  1  0  0  0  0
 35 34  1  0  0  0  0
 36 35  1  0  0  0  0
 36 32  1  0  0  0  0
 37 30  1  0  0  0  0
 37 31  1  0  0  0  0
 38 42  1  6  0  0  0
 38 33  1  0  0  0  0
 39 37  2  0  0  0  0
 41 40  1  0  0  0  0
 42 45  1  1  0  0  0
 42 43  1  0  0  0  0
 44 43  1  0  0  0  0
 46 45  1  0  0  0  0
 47 48  1  0  0  0  0
 48 46  1  0  0  0  0
M  END
>  <MODEL>
4

>  <REMARK>
 VINA RESULT:      -5.5      2.231      6.250
  Name = 
  13 active torsions:
  status: ('A' for Active; 'I' for Inactive)
    1  A    between atoms: C_1  and  C_17
    2  A    between atoms: C_1  and  N_30
    3  A    between atoms: C_4  and  N_22
    4  A    between atoms: C_4  and  C_24
    5  A    between atoms: O_5  and  C_18
    6  A    between atoms: C_6  and  C_11
    7  A    between atoms: C_11  and  C_15
    8  A    between atoms: C_18  and  N_22
    9  A    between atoms: C_18  and  C_39
   10  A    between atoms: C_21  and  P_23
   11  A    between atoms: C_21  and  C_32
   12  A    between atoms: P_23  and  C_44
   13  A    between atoms: C_33  and  C_37
                            x       y       z     vdW  Elec       q    Type
                         _______ _______ _______ _____ _____    ______ ____

>  <TORSDO>
F 13

$$$$
=
 OpenBabel11062412023D

 48 51  0  0  1  0  0  0  0  0999 V2000
  182.6430  179.5720  142.9550 N   0  0  0  0  0  2  0  0  0  0  0  0
  184.1050  178.3250  141.3690 C   0  0  2  0  0  3  0  0  0  0  0  0
  184.6430  178.3980  143.8420 C   0  0  2  0  0  3  0  0  0  0  0  0
  184.2960  177.5030  142.6470 C   0  0  0  0  0  2  0  0  0  0  0  0
  183.1760  179.5300  141.5920 C   0  0  0  0  0  2  0  0  0  0  0  0
  183.7630  179.6530  143.8930 C   0  0  0  0  0  2  0  0  0  0  0  0
  183.5490  177.4520  140.2550 C   0  0  0  0  0  2  0  0  0  0  0  0
  184.3960  178.0810  136.6040 C   0  0  0  0  0  3  0  0  0  0  0  0
  186.1710  178.6280  139.6790 O   0  0  0  0  0  0  0  0  0  0  0  0
  183.4130  177.6150  137.6910 C   0  0  0  0  0  3  0  0  0  0  0  0
  184.0670  177.8690  138.9600 N   0  0  0  0  0  0  0  0  0  0  0  0
  185.3750  178.3470  138.7430 C   0  0  0  0  0  0  0  0  0  0  0  0
  185.6940  178.4960  137.3080 C   0  0  1  0  0  3  0  0  0  0  0  0
  189.4280  177.5350  136.2330 C   0  0  0  0  0  2  0  0  0  0  0  0
  190.6420  174.1890  136.5250 C   0  0  0  0  0  0  0  0  0  0  0  0
  188.2550  178.2010  136.8960 C   0  0  0  0  0  0  0  0  0  0  0  0
  190.2080  176.5730  137.1430 C   0  0  2  0  0  3  0  0  0  0  0  0
  191.9700  174.5090  136.2550 O   0  0  0  0  0  0  0  0  0  0  0  0
  186.5460  176.3940  136.5230 C   0  0  0  0  0  3  0  0  0  0  0  0
  188.4750  179.3010  137.4730 O   0  0  0  0  0  0  0  0  0  0  0  0
  188.3410  174.8600  137.2520 C   0  0  0  0  0  2  0  0  0  0  0  0
  186.8650  177.6460  136.8870 C   0  0  0  0  0  0  0  0  0  0  0  0
  187.4850  175.3200  136.0850 C   0  0  0  0  0  2  0  0  0  0  0  0
  190.2490  173.0030  136.3590 O   0  0  0  0  0  1  0  0  0  0  0  0
  189.7350  175.1960  136.9940 N   0  0  0  0  0  0  0  0  0  0  0  0
  190.2650  176.9980  138.6110 C   0  0  0  0  0  2  0  0  0  0  0  0
  191.5540  176.5430  139.2770 C   0  0  0  0  0  2  0  0  0  0  0  0
  192.7330  176.7520  138.3420 C   0  0  0  0  0  1  0  0  0  0  0  0
  186.1040  178.8260  143.8100 C   0  0  0  0  0  2  0  0  0  0  0  0
  191.4670  179.5330  144.6010 O   0  0  0  0  0  1  0  0  0  0  0  0
  189.7010  178.3430  143.6110 N   0  0  0  0  0  0  0  0  0  0  0  0
  189.1340  177.9140  142.3340 C   0  0  0  0  0  2  0  0  0  0  0  0
  187.1960  177.6220  144.6410 P   0  0  1  0  0  4  0  0  0  0  0  0
  187.1930  176.0980  143.6270 C   0  0  0  0  0  2  0  0  0  0  0  0
  188.6090  175.6280  143.3150 C   0  0  0  0  0  2  0  0  0  0  0  0
  189.2420  176.4010  142.1610 C   0  0  0  0  0  2  0  0  0  0  0  0
  191.0130  178.9350  143.5870 C   0  0  0  0  0  0  0  0  0  0  0  0
  188.8870  178.3530  144.8450 C   0  0  1  0  0  3  0  0  0  0  0  0
  191.7930  178.8640  142.4390 O   0  0  0  0  0  0  0  0  0  0  0  0
  186.4650  177.2330  146.2620 C   0  0  0  0  0  2  0  0  0  0  0  0
  185.8350  178.4730  146.8640 C   0  0  0  0  0  1  0  0  0  0  0  0
  189.6560  177.7940  146.0560 C   0  0  1  0  0  3  0  0  0  0  0  0
  188.7880  177.5720  147.1280 O   0  0  0  0  0  0  0  0  0  0  0  0
  189.3650  178.2540  148.2010 C   0  0  0  0  0  1  0  0  0  0  0  0
  190.3720  176.5700  145.7310 N   0  0  0  0  0  2  0  0  0  0  0  0
  191.6830  176.6720  146.3480 C   0  0  0  0  0  2  0  0  0  0  0  0
  192.8040  175.9970  148.4470 C   0  0  0  0  0  1  0  0  0  0  0  0
  191.8540  175.5530  147.3550 C   0  0  0  0  0  2  0  0  0  0  0  0
  1  6  1  0  0  0  0
  2  7  1  6  0  0  0
  2  5  1  0  0  0  0
  2  4  1  0  0  0  0
  3 29  1  6  0  0  0
  3  6  1  0  0  0  0
  4  3  1  0  0  0  0
  5  1  1  0  0  0  0
  8 13  1  0  0  0  0
  8 10  2  0  0  0  0
 10 11  1  0  0  0  0
 11  7  1  0  0  0  0
 12 11  1  0  0  0  0
 12  9  2  0  0  0  0
 13 22  1  6  0  0  0
 13 12  1  0  0  0  0
 14 16  1  0  0  0  0
 14 17  1  0  0  0  0
 15 25  1  0  0  0  0
 16 20  2  0  0  0  0
 17 26  1  1  0  0  0
 18 15  2  0  0  0  0
 19 22  2  0  0  0  0
 22 16  1  0  0  0  0
 23 19  1  0  0  0  0
 23 21  1  0  0  0  0
 24 15  1  0  0  0  0
 25 17  1  0  0  0  0
 25 21  1  0  0  0  0
 26 27  1  0  0  0  0
 28 27  1  0  0  0  0
 31 38  1  0  0  0  0
 32 31  1  0  0  0  0
 33 29  1  6  0  0  0
 33 38  1  0  0  0  0
 33 40  1  0  0  0  0
 34 33  1  0  0  0  0
 35 34  1  0  0  0  0
 36 32  1  0  0  0  0
 36 35  1  0  0  0  0
 37 31  1  0  0  0  0
 37 30  1  0  0  0  0
 38 42  1  1  0  0  0
 39 37  2  0  0  0  0
 40 41  1  0  0  0  0
 42 45  1  6  0  0  0
 42 43  1  0  0  0  0
 43 44  1  0  0  0  0
 45 46  1  0  0  0  0
 46 48  1  0  0  0  0
 48 47  1  0  0  0  0
M  END
>  <MODEL>
5

>  <REMARK>
 VINA RESULT:      -4.7      3.121      9.411
  Name = 
  13 active torsions:
  status: ('A' for Active; 'I' for Inactive)
    1  A    between atoms: C_1  and  C_17
    2  A    between atoms: C_1  and  N_30
    3  A    between atoms: C_4  and  N_22
    4  A    between atoms: C_4  and  C_24
    5  A    between atoms: O_5  and  C_18
    6  A    between atoms: C_6  and  C_11
    7  A    between atoms: C_11  and  C_15
    8  A    between atoms: C_18  and  N_22
    9  A    between atoms: C_18  and  C_39
   10  A    between atoms: C_21  and  P_23
   11  A    between atoms: C_21  and  C_32
   12  A    between atoms: P_23  and  C_44
   13  A    between atoms: C_33  and  C_37
                            x       y       z     vdW  Elec       q    Type
                         _______ _______ _______ _____ _____    ______ ____

>  <TORSDO>
F 13

$$$$
=
 OpenBabel11062412023D

 48 51  0  0  1  0  0  0  0  0999 V2000
  188.5140  178.0680  135.6930 N   0  0  0  0  0  2  0  0  0  0  0  0
  188.0110  178.5560  138.0840 C   0  0  2  0  0  3  0  0  0  0  0  0
  186.4680  177.0940  136.7090 C   0  0  2  0  0  3  0  0  0  0  0  0
  187.3860  177.1660  137.9340 C   0  0  0  0  0  2  0  0  0  0  0  0
  188.6190  179.0600  136.7650 C   0  0  0  0  0  2  0  0  0  0  0  0
  187.1000  177.7590  135.4800 C   0  0  0  0  0  2  0  0  0  0  0  0
  189.0800  178.5430  139.1660 C   0  0  0  0  0  2  0  0  0  0  0  0
  187.4220  177.4960  142.4210 C   0  0  0  0  0  3  0  0  0  0  0  0
  190.2970  176.3100  140.6240 O   0  0  0  0  0  0  0  0  0  0  0  0
  187.4670  178.3810  141.1650 C   0  0  0  0  0  3  0  0  0  0  0  0
  188.5860  177.9010  140.3760 N   0  0  0  0  0  0  0  0  0  0  0  0
  189.2710  176.8870  141.0750 C   0  0  0  0  0  0  0  0  0  0  0  0
  188.6430  176.5700  142.3750 C   0  0  1  0  0  3  0  0  0  0  0  0
  190.1370  178.2070  145.7080 C   0  0  0  0  0  2  0  0  0  0  0  0
  192.4470  176.4320  147.7750 C   0  0  0  0  0  0  0  0  0  0  0  0
  189.1790  177.6970  144.6670 C   0  0  0  0  0  0  0  0  0  0  0  0
  190.2550  177.3120  146.9530 C   0  0  2  0  0  3  0  0  0  0  0  0
  192.4120  177.3480  148.8230 O   0  0  0  0  0  1  0  0  0  0  0  0
  190.7430  176.1450  143.4550 C   0  0  0  0  0  3  0  0  0  0  0  0
  187.9790  178.0760  144.7630 O   0  0  0  0  0  0  0  0  0  0  0  0
  191.4240  175.4290  145.7210 C   0  0  0  0  0  2  0  0  0  0  0  0
  189.5750  176.8010  143.5360 C   0  0  0  0  0  0  0  0  0  0  0  0
  191.8500  176.1560  144.4580 C   0  0  0  0  0  2  0  0  0  0  0  0
  193.4330  175.6550  147.6700 O   0  0  0  0  0  0  0  0  0  0  0  0
  191.3710  176.3730  146.8300 N   0  0  0  0  0  0  0  0  0  0  0  0
  188.9570  176.6060  147.3480 C   0  0  0  0  0  2  0  0  0  0  0  0
  187.8490  177.6010  147.6530 C   0  0  0  0  0  2  0  0  0  0  0  0
  188.1940  178.4130  148.8910 C   0  0  0  0  0  1  0  0  0  0  0  0
  185.1220  177.7520  136.9830 C   0  0  0  0  0  2  0  0  0  0  0  0
  180.0720  177.4350  134.9150 O   0  0  0  0  0  0  0  0  0  0  0  0
  181.4980  177.8390  136.7370 N   0  0  0  0  0  0  0  0  0  0  0  0
  181.8890  178.8350  137.7330 C   0  0  0  0  0  2  0  0  0  0  0  0
  183.8590  176.5470  137.5160 P   0  0  1  0  0  4  0  0  0  0  0  0
  183.4920  176.8890  139.2760 C   0  0  0  0  0  2  0  0  0  0  0  0
  181.9950  177.0300  139.5210 C   0  0  0  0  0  2  0  0  0  0  0  0
  181.4650  178.4100  139.1360 C   0  0  0  0  0  2  0  0  0  0  0  0
  180.3340  178.1250  135.9370 C   0  0  0  0  0  0  0  0  0  0  0  0
  182.3670  176.6860  136.4240 C   0  0  1  0  0  3  0  0  0  0  0  0
  179.4900  179.1750  136.2790 O   0  0  0  0  0  1  0  0  0  0  0  0
  184.5890  174.8840  137.3950 C   0  0  0  0  0  2  0  0  0  0  0  0
  185.0440  174.6120  135.9750 C   0  0  0  0  0  1  0  0  0  0  0  0
  181.5730  175.3730  136.2990 C   0  0  1  0  0  3  0  0  0  0  0  0
  180.3160  175.5020  136.8940 O   0  0  0  0  0  0  0  0  0  0  0  0
  180.2960  174.5330  137.9000 C   0  0  0  0  0  1  0  0  0  0  0  0
  181.4300  174.9510  134.9150 N   0  0  0  0  0  2  0  0  0  0  0  0
  182.1560  173.7010  134.7770 C   0  0  0  0  0  2  0  0  0  0  0  0
  182.4190  171.7790  136.3120 C   0  0  0  0  0  1  0  0  0  0  0  0
  181.4240  172.6070  135.5280 C   0  0  0  0  0  2  0  0  0  0  0  0
  1  5  1  0  0  0  0
  2  7  1  1  0  0  0
  3 29  1  1  0  0  0
  3  4  1  0  0  0  0
  4  2  1  0  0  0  0
  5  2  1  0  0  0  0
  6  1  1  0  0  0  0
  6  3  1  0  0  0  0
  7 11  1  0  0  0  0
  9 12  2  0  0  0  0
 10  8  2  0  0  0  0
 11 12  1  0  0  0  0
 11 10  1  0  0  0  0
 12 13  1  0  0  0  0
 13  8  1  0  0  0  0
 13 22  1  1  0  0  0
 14 17  1  0  0  0  0
 15 18  1  0  0  0  0
 16 20  2  0  0  0  0
 16 14  1  0  0  0  0
 17 26  1  6  0  0  0
 19 22  2  0  0  0  0
 19 23  1  0  0  0  0
 21 25  1  0  0  0  0
 22 16  1  0  0  0  0
 23 21  1  0  0  0  0
 24 15  2  0  0  0  0
 25 17  1  0  0  0  0
 25 15  1  0  0  0  0
 26 27  1  0  0  0  0
 27 28  1  0  0  0  0
 30 37  2  0  0  0  0
 31 32  1  0  0  0  0
 32 36  1  0  0  0  0
 33 29  1  6  0  0  0
 33 34  1  0  0  0  0
 34 35  1  0  0  0  0
 36 35  1  0  0  0  0
 37 39  1  0  0  0  0
 37 31  1  0  0  0  0
 38 42  1  1  0  0  0
 38 31  1  0  0  0  0
 38 33  1  0  0  0  0
 40 33  1  0  0  0  0
 41 40  1  0  0  0  0
 42 45  1  6  0  0  0
 42 43  1  0  0  0  0
 43 44  1  0  0  0  0
 46 45  1  0  0  0  0
 46 48  1  0  0  0  0
 48 47  1  0  0  0  0
M  END
>  <MODEL>
6

>  <REMARK>
 VINA RESULT:      -4.7      2.267      3.961
  Name = 
  13 active torsions:
  status: ('A' for Active; 'I' for Inactive)
    1  A    between atoms: C_1  and  C_17
    2  A    between atoms: C_1  and  N_30
    3  A    between atoms: C_4  and  N_22
    4  A    between atoms: C_4  and  C_24
    5  A    between atoms: O_5  and  C_18
    6  A    between atoms: C_6  and  C_11
    7  A    between atoms: C_11  and  C_15
    8  A    between atoms: C_18  and  N_22
    9  A    between atoms: C_18  and  C_39
   10  A    between atoms: C_21  and  P_23
   11  A    between atoms: C_21  and  C_32
   12  A    between atoms: P_23  and  C_44
   13  A    between atoms: C_33  and  C_37
                            x       y       z     vdW  Elec       q    Type
                         _______ _______ _______ _____ _____    ______ ____

>  <TORSDO>
F 13

$$$$
=
 OpenBabel11062412023D

 48 51  0  0  1  0  0  0  0  0999 V2000
  185.2690  171.0900  135.1710 N   0  0  0  0  0  2  0  0  0  0  0  0
  184.6830  173.4050  135.8840 C   0  0  2  0  0  3  0  0  0  0  0  0
  187.0840  172.7700  135.3920 C   0  0  2  0  0  3  0  0  0  0  0  0
  185.9080  173.6730  135.0040 C   0  0  0  0  0  2  0  0  0  0  0  0
  184.3650  171.9040  135.9870 C   0  0  0  0  0  2  0  0  0  0  0  0
  186.6410  171.3200  135.6230 C   0  0  0  0  0  2  0  0  0  0  0  0
  183.4700  174.1470  135.3440 C   0  0  0  0  0  2  0  0  0  0  0  0
  180.3130  174.2530  137.4560 C   0  0  0  0  0  3  0  0  0  0  0  0
  183.5950  175.6590  137.8510 O   0  0  0  0  0  0  0  0  0  0  0  0
  181.0810  173.7620  136.2190 C   0  0  0  0  0  3  0  0  0  0  0  0
  182.4350  174.2610  136.3620 N   0  0  0  0  0  0  0  0  0  0  0  0
  182.5310  175.0800  137.5050 C   0  0  0  0  0  0  0  0  0  0  0  0
  181.2580  175.1630  138.2510 C   0  0  1  0  0  3  0  0  0  0  0  0
  179.0910  178.2750  139.5310 C   0  0  0  0  0  2  0  0  0  0  0  0
  180.1420  181.6380  138.9430 C   0  0  0  0  0  0  0  0  0  0  0  0
  179.8770  176.9950  139.4970 C   0  0  0  0  0  0  0  0  0  0  0  0
  179.8430  179.4660  140.1460 C   0  0  2  0  0  3  0  0  0  0  0  0
  179.1850  182.2190  139.7720 O   0  0  0  0  0  1  0  0  0  0  0  0
  181.1170  177.3800  137.3430 C   0  0  0  0  0  3  0  0  0  0  0  0
  179.7750  176.2370  140.5000 O   0  0  0  0  0  0  0  0  0  0  0  0
  181.4950  179.6550  138.2320 C   0  0  0  0  0  2  0  0  0  0  0  0
  180.7390  176.5740  138.3480 C   0  0  0  0  0  0  0  0  0  0  0  0
  180.7830  178.8260  137.1780 C   0  0  0  0  0  2  0  0  0  0  0  0
  180.6810  182.3350  138.0430 O   0  0  0  0  0  0  0  0  0  0  0  0
  180.5120  180.2640  139.1170 N   0  0  0  0  0  0  0  0  0  0  0  0
  180.7960  179.0910  141.2830 C   0  0  0  0  0  2  0  0  0  0  0  0
  180.1290  179.2340  142.6420 C   0  0  0  0  0  2  0  0  0  0  0  0
  179.2300  180.4590  142.6620 C   0  0  0  0  0  1  0  0  0  0  0  0
  187.7820  173.2750  136.6480 C   0  0  0  0  0  2  0  0  0  0  0  0
  188.7420  177.7510  139.6360 O   0  0  0  0  0  1  0  0  0  0  0  0
  188.0760  176.7670  137.6110 N   0  0  0  0  0  0  0  0  0  0  0  0
  186.9810  176.6730  136.6460 C   0  0  0  0  0  2  0  0  0  0  0  0
  189.0690  174.5130  136.2740 P   0  0  1  0  0  4  0  0  0  0  0  0
  188.6490  175.2600  134.6560 C   0  0  0  0  0  2  0  0  0  0  0  0
  188.6430  176.7820  134.7250 C   0  0  0  0  0  2  0  0  0  0  0  0
  187.3520  177.3370  135.3230 C   0  0  0  0  0  2  0  0  0  0  0  0
  187.9620  177.7620  138.6460 C   0  0  0  0  0  0  0  0  0  0  0  0
  189.1540  175.7560  137.6460 C   0  0  1  0  0  3  0  0  0  0  0  0
  186.9810  178.7440  138.5680 O   0  0  0  0  0  0  0  0  0  0  0  0
  190.6550  173.6360  136.1050 C   0  0  0  0  0  2  0  0  0  0  0  0
  191.0630  173.5640  134.6470 C   0  0  0  0  0  1  0  0  0  0  0  0
  190.5460  176.3940  137.8120 C   0  0  1  0  0  3  0  0  0  0  0  0
  191.2630  175.7500  138.8230 O   0  0  0  0  0  0  0  0  0  0  0  0
  191.6180  176.7680  139.7110 C   0  0  0  0  0  1  0  0  0  0  0  0
  191.3060  176.3780  136.5720 N   0  0  0  0  0  2  0  0  0  0  0  0
  192.7100  176.3200  136.9390 C   0  0  0  0  0  2  0  0  0  0  0  0
  194.9300  176.1110  135.8670 C   0  0  0  0  0  1  0  0  0  0  0  0
  193.4920  175.6390  135.8340 C   0  0  0  0  0  2  0  0  0  0  0  0
  1  6  1  0  0  0  0
  1  5  1  0  0  0  0
  2  7  1  6  0  0  0
  2  5  1  0  0  0  0
  3  6  1  0  0  0  0
  3 29  1  1  0  0  0
  4  3  1  0  0  0  0
  4  2  1  0  0  0  0
  7 11  1  0  0  0  0
  8 13  1  0  0  0  0
 10 11  1  0  0  0  0
 10  8  2  0  0  0  0
 11 12  1  0  0  0  0
 12  9  2  0  0  0  0
 12 13  1  0  0  0  0
 13 22  1  6  0  0  0
 14 17  1  0  0  0  0
 15 25  1  0  0  0  0
 15 18  1  0  0  0  0
 16 14  1  0  0  0  0
 16 20  2  0  0  0  0
 17 26  1  1  0  0  0
 19 22  2  0  0  0  0
 21 25  1  0  0  0  0
 22 16  1  0  0  0  0
 23 19  1  0  0  0  0
 23 21  1  0  0  0  0
 24 15  2  0  0  0  0
 25 17  1  0  0  0  0
 26 27  1  0  0  0  0
 27 28  1  0  0  0  0
 31 38  1  0  0  0  0
 31 37  1  0  0  0  0
 32 31  1  0  0  0  0
 33 40  1  6  0  0  0
 33 29  1  0  0  0  0
 33 38  1  0  0  0  0
 34 35  1  0  0  0  0
 34 33  1  0  0  0  0
 35 36  1  0  0  0  0
 36 32  1  0  0  0  0
 37 30  1  0  0  0  0
 38 42  1  6  0  0  0
 39 37  2  0  0  0  0
 41 40  1  0  0  0  0
 42 45  1  6  0  0  0
 42 43  1  0  0  0  0
 43 44  1  0  0  0  0
 45 46  1  0  0  0  0
 48 47  1  0  0  0  0
 48 46  1  0  0  0  0
M  END
>  <MODEL>
7

>  <REMARK>
 VINA RESULT:      -4.5      3.409      8.945
  Name = 
  13 active torsions:
  status: ('A' for Active; 'I' for Inactive)
    1  A    between atoms: C_1  and  C_17
    2  A    between atoms: C_1  and  N_30
    3  A    between atoms: C_4  and  N_22
    4  A    between atoms: C_4  and  C_24
    5  A    between atoms: O_5  and  C_18
    6  A    between atoms: C_6  and  C_11
    7  A    between atoms: C_11  and  C_15
    8  A    between atoms: C_18  and  N_22
    9  A    between atoms: C_18  and  C_39
   10  A    between atoms: C_21  and  P_23
   11  A    between atoms: C_21  and  C_32
   12  A    between atoms: P_23  and  C_44
   13  A    between atoms: C_33  and  C_37
                            x       y       z     vdW  Elec       q    Type
                         _______ _______ _______ _____ _____    ______ ____

>  <TORSDO>
F 13

$$$$
=
 OpenBabel11062412023D

 48 51  0  0  1  0  0  0  0  0999 V2000
  188.2610  175.3170  137.0530 N   0  0  0  0  0  2  0  0  0  0  0  0
  188.3660  177.7830  137.3900 C   0  0  2  0  0  3  0  0  0  0  0  0
  186.1950  176.5230  137.7180 C   0  0  2  0  0  3  0  0  0  0  0  0
  187.2620  177.4020  138.3810 C   0  0  0  0  0  2  0  0  0  0  0  0
  188.8930  176.5640  136.6170 C   0  0  0  0  0  2  0  0  0  0  0  0
  186.8180  175.4270  136.8440 C   0  0  0  0  0  2  0  0  0  0  0  0
  189.5170  178.4640  138.1150 C   0  0  0  0  0  2  0  0  0  0  0  0
  189.6600  176.6960  141.4760 C   0  0  0  0  0  3  0  0  0  0  0  0
  188.7290  180.0170  140.4720 O   0  0  0  0  0  0  0  0  0  0  0  0
  189.8840  176.7030  139.9550 C   0  0  0  0  0  3  0  0  0  0  0  0
  189.5720  178.0470  139.5090 N   0  0  0  0  0  0  0  0  0  0  0  0
  189.0930  178.8160  140.5880 C   0  0  0  0  0  0  0  0  0  0  0  0
  189.0840  178.0650  141.8610 C   0  0  1  0  0  3  0  0  0  0  0  0
  186.1890  177.1020  144.4510 C   0  0  0  0  0  2  0  0  0  0  0  0
  183.0460  178.7990  144.4410 C   0  0  0  0  0  0  0  0  0  0  0  0
  187.5130  177.5120  143.8710 C   0  0  0  0  0  0  0  0  0  0  0  0
  185.3960  178.2500  145.0970 C   0  0  2  0  0  3  0  0  0  0  0  0
  182.5910  178.2360  145.6300 O   0  0  0  0  0  1  0  0  0  0  0  0
  186.7060  178.2790  141.6170 C   0  0  0  0  0  3  0  0  0  0  0  0
  188.5130  177.4560  144.6390 O   0  0  0  0  0  0  0  0  0  0  0  0
  184.9180  179.4110  142.8940 C   0  0  0  0  0  2  0  0  0  0  0  0
  187.7030  177.9530  142.4540 C   0  0  0  0  0  0  0  0  0  0  0  0
  185.2450  178.2910  141.9220 C   0  0  0  0  0  2  0  0  0  0  0  0
  182.2110  179.2740  143.6260 O   0  0  0  0  0  0  0  0  0  0  0  0
  184.4490  178.8420  144.1510 N   0  0  0  0  0  0  0  0  0  0  0  0
  186.2630  179.3120  145.7750 C   0  0  0  0  0  2  0  0  0  0  0  0
  186.2140  179.1910  147.2900 C   0  0  0  0  0  2  0  0  0  0  0  0
  187.2550  178.1950  147.7730 C   0  0  0  0  0  1  0  0  0  0  0  0
  185.2460  177.3510  136.8640 C   0  0  0  0  0  2  0  0  0  0  0  0
  180.6510  180.1800  137.7410 O   0  0  0  0  0  0  0  0  0  0  0  0
  182.1370  178.4750  138.3730 N   0  0  0  0  0  0  0  0  0  0  0  0
  182.9970  177.9970  139.4550 C   0  0  0  0  0  2  0  0  0  0  0  0
  183.5650  176.6400  136.8090 P   0  0  1  0  0  4  0  0  0  0  0  0
  183.4630  175.3900  138.1430 C   0  0  0  0  0  2  0  0  0  0  0  0
  182.2400  175.6080  139.0250 C   0  0  0  0  0  2  0  0  0  0  0  0
  182.4550  176.7070  140.0630 C   0  0  0  0  0  2  0  0  0  0  0  0
  181.2480  179.5690  138.6680 C   0  0  0  0  0  0  0  0  0  0  0  0
  182.3110  177.9930  136.9860 C   0  0  1  0  0  3  0  0  0  0  0  0
  181.0450  179.9720  139.9830 O   0  0  0  0  0  1  0  0  0  0  0  0
  183.3710  175.7900  135.2110 C   0  0  0  0  0  2  0  0  0  0  0  0
  183.6100  174.3030  135.3750 C   0  0  0  0  0  1  0  0  0  0  0  0
  180.9670  177.6780  136.3050 C   0  0  1  0  0  3  0  0  0  0  0  0
  181.0990  177.7260  134.9150 O   0  0  0  0  0  0  0  0  0  0  0  0
  181.5970  179.0030  134.6480 C   0  0  0  0  0  1  0  0  0  0  0  0
  180.4370  176.3860  136.7120 N   0  0  0  0  0  2  0  0  0  0  0  0
  179.2960  176.1100  135.8570 C   0  0  0  0  0  2  0  0  0  0  0  0
  180.2080  173.8430  136.2450 C   0  0  0  0  0  1  0  0  0  0  0  0
  178.9550  174.6350  135.9330 C   0  0  0  0  0  2  0  0  0  0  0  0
  2  7  1  1  0  0  0
  2  4  1  0  0  0  0
  3 29  1  6  0  0  0
  3  4  1  0  0  0  0
  5  1  1  0  0  0  0
  5  2  1  0  0  0  0
  6  1  1  0  0  0  0
  6  3  1  0  0  0  0
  7 11  1  0  0  0  0
  8 13  1  0  0  0  0
  9 12  2  0  0  0  0
 10  8  2  0  0  0  0
 11 10  1  0  0  0  0
 11 12  1  0  0  0  0
 12 13  1  0  0  0  0
 13 22  1  6  0  0  0
 14 17  1  0  0  0  0
 15 18  1  0  0  0  0
 16 14  1  0  0  0  0
 16 20  2  0  0  0  0
 17 26  1  6  0  0  0
 19 23  1  0  0  0  0
 19 22  2  0  0  0  0
 21 25  1  0  0  0  0
 22 16  1  0  0  0  0
 23 21  1  0  0  0  0
 24 15  2  0  0  0  0
 25 15  1  0  0  0  0
 25 17  1  0  0  0  0
 26 27  1  0  0  0  0
 27 28  1  0  0  0  0
 30 37  2  0  0  0  0
 31 37  1  0  0  0  0
 31 32  1  0  0  0  0
 32 36  1  0  0  0  0
 33 40  1  6  0  0  0
 33 29  1  0  0  0  0
 33 38  1  0  0  0  0
 33 34  1  0  0  0  0
 34 35  1  0  0  0  0
 35 36  1  0  0  0  0
 37 39  1  0  0  0  0
 38 42  1  1  0  0  0
 38 31  1  0  0  0  0
 40 41  1  0  0  0  0
 42 43  1  6  0  0  0
 42 45  1  0  0  0  0
 44 43  1  0  0  0  0
 46 48  1  0  0  0  0
 46 45  1  0  0  0  0
 48 47  1  0  0  0  0
M  END
>  <MODEL>
8

>  <REMARK>
 VINA RESULT:      -4.4      1.742      2.285
  Name = 
  13 active torsions:
  status: ('A' for Active; 'I' for Inactive)
    1  A    between atoms: C_1  and  C_17
    2  A    between atoms: C_1  and  N_30
    3  A    between atoms: C_4  and  N_22
    4  A    between atoms: C_4  and  C_24
    5  A    between atoms: O_5  and  C_18
    6  A    between atoms: C_6  and  C_11
    7  A    between atoms: C_11  and  C_15
    8  A    between atoms: C_18  and  N_22
    9  A    between atoms: C_18  and  C_39
   10  A    between atoms: C_21  and  P_23
   11  A    between atoms: C_21  and  C_32
   12  A    between atoms: P_23  and  C_44
   13  A    between atoms: C_33  and  C_37
                            x       y       z     vdW  Elec       q    Type
                         _______ _______ _______ _____ _____    ______ ____

>  <TORSDO>
F 13

$$$$
=
 OpenBabel11062412023D

 48 51  0  0  1  0  0  0  0  0999 V2000
  186.6310  179.0020  140.3550 N   0  0  0  0  0  2  0  0  0  0  0  0
  186.6240  177.8780  138.1310 C   0  0  2  0  0  3  0  0  0  0  0  0
  184.4720  178.7300  139.1580 C   0  0  2  0  0  3  0  0  0  0  0  0
  185.4400  178.8380  137.9750 C   0  0  0  0  0  2  0  0  0  0  0  0
  187.2630  177.9730  139.5260 C   0  0  0  0  0  2  0  0  0  0  0  0
  185.2120  178.6770  140.5010 C   0  0  0  0  0  2  0  0  0  0  0  0
  187.6750  178.1560  137.0680 C   0  0  0  0  0  2  0  0  0  0  0  0
  189.4710  174.8110  136.9060 C   0  0  0  0  0  3  0  0  0  0  0  0
  189.5880  177.7760  134.8800 O   0  0  0  0  0  0  0  0  0  0  0  0
  188.4430  175.7490  137.5580 C   0  0  0  0  0  3  0  0  0  0  0  0
  188.4140  176.9460  136.7380 N   0  0  0  0  0  0  0  0  0  0  0  0
  189.3870  176.8600  135.7220 C   0  0  0  0  0  0  0  0  0  0  0  0
  190.1220  175.5770  135.7470 C   0  0  1  0  0  3  0  0  0  0  0  0
  193.5990  176.1020  137.6570 C   0  0  0  0  0  2  0  0  0  0  0  0
  196.7140  175.3210  136.0930 C   0  0  0  0  0  0  0  0  0  0  0  0
  192.2060  175.6540  137.3170 C   0  0  0  0  0  0  0  0  0  0  0  0
  194.6720  175.0110  137.5030 C   0  0  2  0  0  3  0  0  0  0  0  0
  197.4790  175.4660  137.2490 O   0  0  0  0  0  1  0  0  0  0  0  0
  192.2930  176.0320  134.8330 C   0  0  0  0  0  3  0  0  0  0  0  0
  191.5160  175.1730  138.2580 O   0  0  0  0  0  0  0  0  0  0  0  0
  194.5070  174.9420  134.9730 C   0  0  0  0  0  2  0  0  0  0  0  0
  191.6020  175.7670  135.9520 C   0  0  0  0  0  0  0  0  0  0  0  0
  193.7670  176.2420  134.7160 C   0  0  0  0  0  2  0  0  0  0  0  0
  197.2760  175.4070  134.9690 O   0  0  0  0  0  0  0  0  0  0  0  0
  195.3060  175.0700  136.1850 N   0  0  0  0  0  0  0  0  0  0  0  0
  194.1890  173.5990  137.8390 C   0  0  0  0  0  2  0  0  0  0  0  0
  195.3220  172.7300  138.3620 C   0  0  0  0  0  2  0  0  0  0  0  0
  195.4370  171.4600  137.5360 C   0  0  0  0  0  1  0  0  0  0  0  0
  183.5850  177.4980  139.0390 C   0  0  0  0  0  2  0  0  0  0  0  0
  179.9820  180.9630  141.2510 O   0  0  0  0  0  0  0  0  0  0  0  0
  180.5590  178.7870  140.5860 N   0  0  0  0  0  0  0  0  0  0  0  0
  180.7380  177.4150  141.0580 C   0  0  0  0  0  2  0  0  0  0  0  0
  181.9510  177.8880  138.3260 P   0  0  1  0  0  4  0  0  0  0  0  0
  180.9790  176.3360  138.3170 C   0  0  0  0  0  2  0  0  0  0  0  0
  179.6110  176.5270  138.9590 C   0  0  0  0  0  2  0  0  0  0  0  0
  179.6690  176.4890  140.4850 C   0  0  0  0  0  2  0  0  0  0  0  0
  179.9580  179.7270  141.4970 C   0  0  0  0  0  0  0  0  0  0  0  0
  181.1490  179.2400  139.3090 C   0  0  1  0  0  3  0  0  0  0  0  0
  179.3520  179.2810  142.6650 O   0  0  0  0  0  1  0  0  0  0  0  0
  182.2070  178.4140  136.6020 C   0  0  0  0  0  2  0  0  0  0  0  0
  182.3730  177.2050  135.7040 C   0  0  0  0  0  1  0  0  0  0  0  0
  180.1720  180.1000  138.4870 C   0  0  1  0  0  3  0  0  0  0  0  0
  180.3860  181.4580  138.7350 O   0  0  0  0  0  0  0  0  0  0  0  0
  181.5730  181.7600  138.0640 C   0  0  0  0  0  1  0  0  0  0  0  0
  180.2720  179.8310  137.0610 N   0  0  0  0  0  2  0  0  0  0  0  0
  178.9900  180.1770  136.4750 C   0  0  0  0  0  2  0  0  0  0  0  0
  180.5660  180.9680  134.7390 C   0  0  0  0  0  1  0  0  0  0  0  0
  179.2010  181.1810  135.3590 C   0  0  0  0  0  2  0  0  0  0  0  0
  1  6  1  0  0  0  0
  2  7  1  6  0  0  0
  2  5  1  0  0  0  0
  3 29  1  6  0  0  0
  3  6  1  0  0  0  0
  4  2  1  0  0  0  0
  4  3  1  0  0  0  0
  5  1  1  0  0  0  0
  8 10  2  0  0  0  0
  9 12  2  0  0  0  0
 11  7  1  0  0  0  0
 11 10  1  0  0  0  0
 12 13  1  0  0  0  0
 12 11  1  0  0  0  0
 13 22  1  1  0  0  0
 13  8  1  0  0  0  0
 15 25  1  0  0  0  0
 15 18  1  0  0  0  0
 16 14  1  0  0  0  0
 16 20  2  0  0  0  0
 17 14  1  0  0  0  0
 17 26  1  6  0  0  0
 19 22  2  0  0  0  0
 21 25  1  0  0  0  0
 22 16  1  0  0  0  0
 23 19  1  0  0  0  0
 23 21  1  0  0  0  0
 24 15  2  0  0  0  0
 25 17  1  0  0  0  0
 26 27  1  0  0  0  0
 28 27  1  0  0  0  0
 30 37  2  0  0  0  0
 31 32  1  0  0  0  0
 31 37  1  0  0  0  0
 33 40  1  6  0  0  0
 33 29  1  0  0  0  0
 33 38  1  0  0  0  0
 34 33  1  0  0  0  0
 34 35  1  0  0  0  0
 35 36  1  0  0  0  0
 36 32  1  0  0  0  0
 37 39  1  0  0  0  0
 38 42  1  6  0  0  0
 38 31  1  0  0  0  0
 41 40  1  0  0  0  0
 42 45  1  6  0  0  0
 42 43  1  0  0  0  0
 44 43  1  0  0  0  0
 46 45  1  0  0  0  0
 47 48  1  0  0  0  0
 48 46  1  0  0  0  0
M  END
>  <MODEL>
9

>  <REMARK>
 VINA RESULT:      -4.0      3.682      6.673
  Name = 
  13 active torsions:
  status: ('A' for Active; 'I' for Inactive)
    1  A    between atoms: C_1  and  C_17
    2  A    between atoms: C_1  and  N_30
    3  A    between atoms: C_4  and  N_22
    4  A    between atoms: C_4  and  C_24
    5  A    between atoms: O_5  and  C_18
    6  A    between atoms: C_6  and  C_11
    7  A    between atoms: C_11  and  C_15
    8  A    between atoms: C_18  and  N_22
    9  A    between atoms: C_18  and  C_39
   10  A    between atoms: C_21  and  P_23
   11  A    between atoms: C_21  and  C_32
   12  A    between atoms: P_23  and  C_44
   13  A    between atoms: C_33  and  C_37
                            x       y       z     vdW  Elec       q    Type
                         _______ _______ _______ _____ _____    ______ ____

>  <TORSDO>
F 13

$$$$
