=
 OpenBabel11062412223D

 43 48  0  0  1  0  0  0  0  0999 V2000
  191.6880  176.6930  138.9030 C   0  0  0  0  0  0  0  0  0  0  0  0
  191.3060  174.7230  137.4170 C   0  0  0  0  0  3  0  0  0  0  0  0
  188.9260  178.3590  137.2180 F   0  0  0  0  0  0  0  0  0  0  0  0
  192.5760  177.2070  139.6870 N   0  0  0  0  0  2  0  0  0  0  0  0
  187.7850  175.8130  136.8300 N   0  0  0  0  0  2  0  0  0  0  0  0
  189.9110  174.8890  137.1060 N   0  0  0  0  0  0  0  0  0  0  0  0
  190.3490  177.3490  138.8370 C   0  0  1  0  0  3  0  0  0  0  0  0
  192.0280  175.5020  138.1760 N   0  0  0  0  0  0  0  0  0  0  0  0
  189.7900  177.3020  137.4290 C   0  0  1  0  0  3  0  0  0  0  0  0
  189.1810  175.9600  137.1260 C   0  0  0  0  0  0  0  0  0  0  0  0
  189.4660  176.7840  139.7670 O   0  0  0  0  0  0  0  0  0  0  0  0
  188.8530  178.1320  142.9370 C   0  0  1  0  0  3  0  0  0  0  0  0
  187.6120  177.6460  140.9950 C   0  0  0  0  0  2  0  0  0  0  0  0
  189.8590  177.8670  141.8380 C   0  0  0  0  0  2  0  0  0  0  0  0
  187.5440  177.6920  142.4570 N   0  0  0  0  0  0  0  0  0  0  0  0
  189.0510  177.8500  140.5680 C   0  0  1  0  0  3  0  0  0  0  0  0
  189.1720  178.2620  145.3110 F   0  0  0  0  0  0  0  0  0  0  0  0
  189.2460  177.4040  144.2260 C   0  0  0  0  0  0  0  0  0  0  0  0
  190.5380  176.9260  144.1130 F   0  0  0  0  0  0  0  0  0  0  0  0
  188.3960  176.3310  144.4320 F   0  0  0  0  0  0  0  0  0  0  0  0
  185.6090  179.1510  141.7930 C   0  0  0  0  0  1  0  0  0  0  0  0
  186.5110  178.6410  142.9180 C   0  0  1  0  0  3  0  0  0  0  0  0
  185.6480  178.0930  144.0660 C   0  0  2  0  0  3  0  0  0  0  0  0
  184.6960  179.1020  144.6000 C   0  0  0  0  0  0  0  0  0  0  0  0
  184.6770  180.3560  143.9780 O   0  0  0  0  0  1  0  0  0  0  0  0
  185.9560  178.7700  145.4370 C   0  0  0  0  0  0  0  0  0  0  0  0
  185.3220  178.5370  146.8220 C   0  0  0  0  0  2  0  0  0  0  0  0
  186.0940  177.4460  146.2100 C   0  0  0  0  0  2  0  0  0  0  0  0
  183.4470  178.5520  144.9280 O   0  0  0  0  0  1  0  0  0  0  0  0
  186.7500  176.7710  137.1770 C   0  0  0  0  0  2  0  0  0  0  0  0
  185.4560  176.2860  136.6890 N   0  0  0  0  0  0  0  0  0  0  0  0
  184.3800  176.7370  137.5920 C   0  0  1  0  0  3  0  0  0  0  0  0
  184.7280  177.9830  138.3990 C   0  0  0  0  0  2  0  0  0  0  0  0
  182.5730  178.6160  137.5050 C   0  0  2  0  0  3  0  0  0  0  0  0
  183.4190  178.6410  138.7590 C   0  0  0  0  0  2  0  0  0  0  0  0
  181.1090  178.7960  137.8560 C   0  0  0  0  0  1  0  0  0  0  0  0
  182.8170  177.0130  136.6850 S   0  0  0  0  0  0  0  0  0  0  0  0
  184.4030  172.1490  136.3790 C   0  0  0  0  0  2  0  0  0  0  0  0
  184.8990  172.7800  137.6950 C   0  0  0  0  0  2  0  0  0  0  0  0
  183.9310  173.1950  135.3720 C   0  0  0  0  0  2  0  0  0  0  0  0
  185.4840  174.8170  136.6150 C   0  0  1  0  0  3  0  0  0  0  0  0
  184.7010  174.2310  137.7120 N   0  0  0  0  0  2  0  0  0  0  0  0
  184.9460  174.3330  135.2460 C   0  0  0  0  0  2  0  0  0  0  0  0
  1  4  2  0  0  0  0
  2  8  2  0  0  0  0
  5 10  1  0  0  0  0
  5 30  1  0  0  0  0
  6 10  2  0  0  0  0
  6  2  1  0  0  0  0
  7  1  1  0  0  0  0
  7 11  1  1  0  0  0
  8  1  1  0  0  0  0
  9  3  1  1  0  0  0
  9  7  1  0  0  0  0
 10  9  1  0  0  0  0
 12 18  1  1  0  0  0
 13 15  1  0  0  0  0
 14 12  1  0  0  0  0
 15 22  1  0  0  0  0
 15 12  1  0  0  0  0
 16 11  1  6  0  0  0
 16 13  1  0  0  0  0
 16 14  1  0  0  0  0
 18 20  1  0  0  0  0
 18 17  1  0  0  0  0
 19 18  1  0  0  0  0
 22 21  1  6  0  0  0
 23 22  1  6  0  0  0
 23 24  1  0  0  0  0
 23 26  1  0  0  0  0
 24 29  1  0  0  0  0
 24 26  1  0  0  0  0
 25 24  1  0  0  0  0
 26 28  1  0  0  0  0
 26 27  1  0  0  0  0
 28 27  1  0  0  0  0
 31 30  1  0  0  0  0
 32 31  1  6  0  0  0
 32 33  1  0  0  0  0
 33 35  1  0  0  0  0
 34 36  1  1  0  0  0
 34 35  1  0  0  0  0
 37 34  1  0  0  0  0
 37 32  1  0  0  0  0
 38 39  1  0  0  0  0
 39 42  1  0  0  0  0
 40 38  1  0  0  0  0
 41 31  1  6  0  0  0
 41 42  1  0  0  0  0
 43 40  1  0  0  0  0
 43 41  1  0  0  0  0
M  END
>  <MODEL>
1

>  <REMARK>
 VINA RESULT:      -8.1      0.000      0.000
  Name = 
  9 active torsions:
  status: ('A' for Active; 'I' for Inactive)
    1  A    between atoms: C_1  and  C_40
    2  A    between atoms: C_2  and  C_15
    3  A    between atoms: C_8  and  N_27
    4  A    between atoms: O_16  and  C_31
    5  A    between atoms: O_16  and  C_43
    6  A    between atoms: N_20  and  C_38
    7  A    between atoms: C_25  and  N_27
    8  A    between atoms: N_27  and  C_38
    9  A    between atoms: N_37  and  C_40
                            x       y       z     vdW  Elec       q    Type
                         _______ _______ _______ _____ _____    ______ ____

>  <TORSDO>
F 9

$$$$
=
 OpenBabel11062412223D

 43 48  0  0  1  0  0  0  0  0999 V2000
  191.2640  176.8370  139.3620 C   0  0  0  0  0  0  0  0  0  0  0  0
  190.7000  175.1800  137.5810 C   0  0  0  0  0  3  0  0  0  0  0  0
  188.6510  178.9920  138.0310 F   0  0  0  0  0  0  0  0  0  0  0  0
  192.1990  177.1360  140.2010 N   0  0  0  0  0  2  0  0  0  0  0  0
  187.2870  176.6540  137.2540 N   0  0  0  0  0  2  0  0  0  0  0  0
  189.3230  175.5160  137.3300 N   0  0  0  0  0  0  0  0  0  0  0  0
  189.9880  177.6080  139.4330 C   0  0  1  0  0  3  0  0  0  0  0  0
  191.4930  175.7570  138.4420 N   0  0  0  0  0  0  0  0  0  0  0  0
  189.4200  177.8430  138.0470 C   0  0  1  0  0  3  0  0  0  0  0  0
  188.6910  176.6280  137.5410 C   0  0  0  0  0  0  0  0  0  0  0  0
  189.0640  176.9760  140.2750 O   0  0  0  0  0  0  0  0  0  0  0  0
  189.2060  178.3490  143.4900 C   0  0  1  0  0  3  0  0  0  0  0  0
  187.5640  177.4300  142.0730 C   0  0  0  0  0  2  0  0  0  0  0  0
  189.8230  178.2680  142.1110 C   0  0  0  0  0  2  0  0  0  0  0  0
  187.9750  177.5610  143.4730 N   0  0  0  0  0  0  0  0  0  0  0  0
  188.6760  177.9580  141.1890 C   0  0  1  0  0  3  0  0  0  0  0  0
  189.8500  176.5430  144.9330 F   0  0  0  0  0  0  0  0  0  0  0  0
  190.1790  177.8360  144.5560 C   0  0  0  0  0  0  0  0  0  0  0  0
  190.1260  178.6580  145.6660 F   0  0  0  0  0  0  0  0  0  0  0  0
  191.4690  177.8520  144.0570 F   0  0  0  0  0  0  0  0  0  0  0  0
  185.6170  178.4280  143.5320 C   0  0  0  0  0  1  0  0  0  0  0  0
  186.9430  178.2490  144.2730 C   0  0  1  0  0  3  0  0  0  0  0  0
  186.6890  177.5900  145.6390 C   0  0  2  0  0  3  0  0  0  0  0  0
  185.9480  178.4770  146.5740 C   0  0  0  0  0  0  0  0  0  0  0  0
  185.5520  179.7290  146.0910 O   0  0  0  0  0  1  0  0  0  0  0  0
  187.4670  178.2770  146.8020 C   0  0  0  0  0  0  0  0  0  0  0  0
  187.4870  177.9540  148.3090 C   0  0  0  0  0  2  0  0  0  0  0  0
  188.0400  176.9660  147.3700 C   0  0  0  0  0  2  0  0  0  0  0  0
  185.0060  177.7840  147.3500 O   0  0  0  0  0  1  0  0  0  0  0  0
  186.3420  177.6270  137.7750 C   0  0  0  0  0  2  0  0  0  0  0  0
  184.9980  177.3100  137.2850 N   0  0  0  0  0  0  0  0  0  0  0  0
  184.0060  177.5720  138.3440 C   0  0  1  0  0  3  0  0  0  0  0  0
  184.5230  178.4530  139.4770 C   0  0  0  0  0  2  0  0  0  0  0  0
  182.4460  179.5740  138.9510 C   0  0  2  0  0  3  0  0  0  0  0  0
  183.3140  179.1070  140.0990 C   0  0  0  0  0  2  0  0  0  0  0  0
  181.0240  179.7980  139.4250 C   0  0  0  0  0  1  0  0  0  0  0  0
  182.4720  178.2940  137.6610 S   0  0  0  0  0  0  0  0  0  0  0  0
  183.7320  173.4040  136.0760 C   0  0  0  0  0  2  0  0  0  0  0  0
  184.3030  173.6920  137.4790 C   0  0  0  0  0  2  0  0  0  0  0  0
  183.2780  174.6740  135.3600 C   0  0  0  0  0  2  0  0  0  0  0  0
  184.9510  175.8990  136.8730 C   0  0  1  0  0  3  0  0  0  0  0  0
  184.1780  175.1060  137.8390 N   0  0  0  0  0  2  0  0  0  0  0  0
  184.3430  175.7680  135.4540 C   0  0  0  0  0  2  0  0  0  0  0  0
  1  7  1  0  0  0  0
  1  4  2  0  0  0  0
  2  8  2  0  0  0  0
  5 10  1  0  0  0  0
  5 30  1  0  0  0  0
  6 10  2  0  0  0  0
  6  2  1  0  0  0  0
  7 11  1  1  0  0  0
  8  1  1  0  0  0  0
  9  3  1  1  0  0  0
  9  7  1  0  0  0  0
 10  9  1  0  0  0  0
 12 18  1  1  0  0  0
 13 15  1  0  0  0  0
 14 12  1  0  0  0  0
 15 12  1  0  0  0  0
 15 22  1  0  0  0  0
 16 11  1  6  0  0  0
 16 13  1  0  0  0  0
 16 14  1  0  0  0  0
 18 17  1  0  0  0  0
 18 19  1  0  0  0  0
 20 18  1  0  0  0  0
 22 21  1  6  0  0  0
 23 22  1  6  0  0  0
 23 24  1  0  0  0  0
 23 26  1  0  0  0  0
 24 26  1  0  0  0  0
 24 29  1  0  0  0  0
 25 24  1  0  0  0  0
 26 28  1  0  0  0  0
 26 27  1  0  0  0  0
 28 27  1  0  0  0  0
 31 30  1  0  0  0  0
 32 31  1  6  0  0  0
 32 33  1  0  0  0  0
 33 35  1  0  0  0  0
 34 36  1  1  0  0  0
 34 35  1  0  0  0  0
 37 32  1  0  0  0  0
 37 34  1  0  0  0  0
 38 39  1  0  0  0  0
 39 42  1  0  0  0  0
 40 43  1  0  0  0  0
 40 38  1  0  0  0  0
 41 31  1  1  0  0  0
 41 42  1  0  0  0  0
 43 41  1  0  0  0  0
M  END
>  <MODEL>
2

>  <REMARK>
 VINA RESULT:      -7.8      1.311      1.587
  Name = 
  9 active torsions:
  status: ('A' for Active; 'I' for Inactive)
    1  A    between atoms: C_1  and  C_40
    2  A    between atoms: C_2  and  C_15
    3  A    between atoms: C_8  and  N_27
    4  A    between atoms: O_16  and  C_31
    5  A    between atoms: O_16  and  C_43
    6  A    between atoms: N_20  and  C_38
    7  A    between atoms: C_25  and  N_27
    8  A    between atoms: N_27  and  C_38
    9  A    between atoms: N_37  and  C_40
                            x       y       z     vdW  Elec       q    Type
                         _______ _______ _______ _____ _____    ______ ____

>  <TORSDO>
F 9

$$$$
=
 OpenBabel11062412223D

 43 48  0  0  1  0  0  0  0  0999 V2000
  181.1940  179.3020  141.0930 C   0  0  0  0  0  0  0  0  0  0  0  0
  181.4000  180.8820  139.1700 C   0  0  0  0  0  3  0  0  0  0  0  0
  183.4190  177.0300  139.3230 F   0  0  0  0  0  0  0  0  0  0  0  0
  180.4530  179.0580  142.1220 N   0  0  0  0  0  2  0  0  0  0  0  0
  184.6350  179.3010  138.1840 N   0  0  0  0  0  2  0  0  0  0  0  0
  182.6850  180.4980  138.6460 N   0  0  0  0  0  0  0  0  0  0  0  0
  182.4390  178.4970  140.9210 C   0  0  1  0  0  3  0  0  0  0  0  0
  180.7970  180.3560  140.2010 N   0  0  0  0  0  0  0  0  0  0  0  0
  182.6950  178.2000  139.4570 C   0  0  1  0  0  3  0  0  0  0  0  0
  183.3240  179.3760  138.7610 C   0  0  0  0  0  0  0  0  0  0  0  0
  183.5340  179.1310  141.5240 O   0  0  0  0  0  0  0  0  0  0  0  0
  184.9930  177.9830  144.4890 C   0  0  1  0  0  3  0  0  0  0  0  0
  185.6760  178.3970  142.2730 C   0  0  0  0  0  2  0  0  0  0  0  0
  183.7310  178.1550  143.6740 C   0  0  0  0  0  2  0  0  0  0  0  0
  186.1160  178.4360  143.6700 N   0  0  0  0  0  0  0  0  0  0  0  0
  184.1860  178.1250  142.2400 C   0  0  1  0  0  3  0  0  0  0  0  0
  185.7820  179.8480  145.7770 F   0  0  0  0  0  0  0  0  0  0  0  0
  184.9100  178.7710  145.8000 C   0  0  0  0  0  0  0  0  0  0  0  0
  185.2380  177.9450  146.8590 F   0  0  0  0  0  0  0  0  0  0  0  0
  183.6180  179.2330  145.9850 F   0  0  0  0  0  0  0  0  0  0  0  0
  188.0220  177.1880  142.6080 C   0  0  0  0  0  1  0  0  0  0  0  0
  187.2740  177.5480  143.8930 C   0  0  1  0  0  3  0  0  0  0  0  0
  188.2660  178.0880  144.9360 C   0  0  2  0  0  3  0  0  0  0  0  0
  189.5260  177.3020  144.9910 C   0  0  0  0  0  0  0  0  0  0  0  0
  189.6590  176.2420  144.0860 O   0  0  0  0  0  1  0  0  0  0  0  0
  188.4920  177.1080  146.1280 C   0  0  0  0  0  0  0  0  0  0  0  0
  189.4030  177.2430  147.3640 C   0  0  0  0  0  2  0  0  0  0  0  0
  188.2720  178.1720  147.2180 C   0  0  0  0  0  2  0  0  0  0  0  0
  190.6610  178.1050  145.1780 O   0  0  0  0  0  1  0  0  0  0  0  0
  185.6480  178.3190  138.5300 C   0  0  0  0  0  2  0  0  0  0  0  0
  186.1870  177.7260  137.3040 N   0  0  0  0  0  0  0  0  0  0  0  0
  185.2830  176.6640  136.8230 C   0  0  1  0  0  3  0  0  0  0  0  0
  184.7920  176.8670  135.3930 C   0  0  0  0  0  2  0  0  0  0  0  0
  185.5520  174.5740  135.2850 C   0  0  2  0  0  3  0  0  0  0  0  0
  184.4320  175.5000  134.8650 C   0  0  0  0  0  2  0  0  0  0  0  0
  185.0860  173.1330  135.2420 C   0  0  0  0  0  1  0  0  0  0  0  0
  186.0480  175.0110  136.9780 S   0  0  0  0  0  0  0  0  0  0  0  0
  190.3650  177.2410  138.1000 C   0  0  0  0  0  2  0  0  0  0  0  0
  189.7310  176.8660  136.7450 C   0  0  0  0  0  2  0  0  0  0  0  0
  189.4730  178.1670  138.9240 C   0  0  0  0  0  2  0  0  0  0  0  0
  187.5250  177.1780  137.5770 C   0  0  1  0  0  3  0  0  0  0  0  0
  188.4670  177.5710  136.5210 N   0  0  0  0  0  2  0  0  0  0  0  0
  188.0330  177.6510  138.9610 C   0  0  0  0  0  2  0  0  0  0  0  0
  1  4  2  0  0  0  0
  2  8  2  0  0  0  0
  5 30  1  0  0  0  0
  5 10  1  0  0  0  0
  6 10  2  0  0  0  0
  6  2  1  0  0  0  0
  7  1  1  0  0  0  0
  7 11  1  6  0  0  0
  8  1  1  0  0  0  0
  9  3  1  1  0  0  0
  9  7  1  0  0  0  0
 10  9  1  0  0  0  0
 12 18  1  1  0  0  0
 13 15  1  0  0  0  0
 14 12  1  0  0  0  0
 15 22  1  0  0  0  0
 15 12  1  0  0  0  0
 16 11  1  6  0  0  0
 16 13  1  0  0  0  0
 16 14  1  0  0  0  0
 17 18  1  0  0  0  0
 18 20  1  0  0  0  0
 18 19  1  0  0  0  0
 22 21  1  6  0  0  0
 23 22  1  6  0  0  0
 23 24  1  0  0  0  0
 23 26  1  0  0  0  0
 24 29  1  0  0  0  0
 24 26  1  0  0  0  0
 25 24  1  0  0  0  0
 26 28  1  0  0  0  0
 26 27  1  0  0  0  0
 28 27  1  0  0  0  0
 31 30  1  0  0  0  0
 32 37  1  0  0  0  0
 32 31  1  6  0  0  0
 33 32  1  0  0  0  0
 34 36  1  1  0  0  0
 34 37  1  0  0  0  0
 35 34  1  0  0  0  0
 35 33  1  0  0  0  0
 38 40  1  0  0  0  0
 39 38  1  0  0  0  0
 40 43  1  0  0  0  0
 41 31  1  6  0  0  0
 41 43  1  0  0  0  0
 42 39  1  0  0  0  0
 42 41  1  0  0  0  0
M  END
>  <MODEL>
3

>  <REMARK>
 VINA RESULT:      -7.7      3.085      6.293
  Name = 
  9 active torsions:
  status: ('A' for Active; 'I' for Inactive)
    1  A    between atoms: C_1  and  C_40
    2  A    between atoms: C_2  and  C_15
    3  A    between atoms: C_8  and  N_27
    4  A    between atoms: O_16  and  C_31
    5  A    between atoms: O_16  and  C_43
    6  A    between atoms: N_20  and  C_38
    7  A    between atoms: C_25  and  N_27
    8  A    between atoms: N_27  and  C_38
    9  A    between atoms: N_37  and  C_40
                            x       y       z     vdW  Elec       q    Type
                         _______ _______ _______ _____ _____    ______ ____

>  <TORSDO>
F 9

$$$$
=
 OpenBabel11062412223D

 43 48  0  0  1  0  0  0  0  0999 V2000
  191.3020  177.0020  139.6240 C   0  0  0  0  0  0  0  0  0  0  0  0
  190.8740  175.8540  137.4480 C   0  0  0  0  0  3  0  0  0  0  0  0
  188.5500  179.2540  138.8500 F   0  0  0  0  0  0  0  0  0  0  0  0
  192.2060  177.1260  140.5380 N   0  0  0  0  0  2  0  0  0  0  0  0
  187.3660  177.1260  137.4360 N   0  0  0  0  0  2  0  0  0  0  0  0
  189.4790  176.1510  137.2590 N   0  0  0  0  0  0  0  0  0  0  0  0
  189.9730  177.6370  139.8650 C   0  0  1  0  0  3  0  0  0  0  0  0
  191.6160  176.2290  138.4540 N   0  0  0  0  0  0  0  0  0  0  0  0
  189.4000  178.1990  138.5780 C   0  0  1  0  0  3  0  0  0  0  0  0
  188.7660  177.1190  137.7440 C   0  0  0  0  0  0  0  0  0  0  0  0
  189.0910  176.7400  140.4810 O   0  0  0  0  0  0  0  0  0  0  0  0
  189.4470  178.4570  143.5070 C   0  0  1  0  0  3  0  0  0  0  0  0
  188.3210  176.5400  142.7280 C   0  0  0  0  0  2  0  0  0  0  0  0
  189.4880  178.5170  141.9960 C   0  0  0  0  0  2  0  0  0  0  0  0
  189.0090  177.1150  143.8870 N   0  0  0  0  0  0  0  0  0  0  0  0
  188.5260  177.4550  141.5380 C   0  0  1  0  0  3  0  0  0  0  0  0
  191.8310  178.3590  143.2620 F   0  0  0  0  0  0  0  0  0  0  0  0
  190.8180  178.7840  144.1070 C   0  0  0  0  0  0  0  0  0  0  0  0
  190.9520  178.1530  145.3290 F   0  0  0  0  0  0  0  0  0  0  0  0
  190.9280  180.1500  144.3010 F   0  0  0  0  0  0  0  0  0  0  0  0
  188.8520  177.2660  146.3910 C   0  0  0  0  0  1  0  0  0  0  0  0
  188.1100  177.2060  145.0550 C   0  0  1  0  0  3  0  0  0  0  0  0
  187.1090  178.3690  144.9650 C   0  0  2  0  0  3  0  0  0  0  0  0
  186.0100  178.2580  145.9590 C   0  0  0  0  0  0  0  0  0  0  0  0
  186.0550  177.1750  146.8450 O   0  0  0  0  0  1  0  0  0  0  0  0
  185.6960  177.9220  144.4800 C   0  0  0  0  0  0  0  0  0  0  0  0
  184.4130  178.7480  144.2680 C   0  0  0  0  0  2  0  0  0  0  0  0
  185.5720  179.0160  143.4050 C   0  0  0  0  0  2  0  0  0  0  0  0
  185.6460  179.4960  146.5090 O   0  0  0  0  0  1  0  0  0  0  0  0
  186.3490  177.8550  138.1740 C   0  0  0  0  0  2  0  0  0  0  0  0
  185.0500  177.6700  137.5220 N   0  0  0  0  0  0  0  0  0  0  0  0
  183.9800  177.6480  138.5390 C   0  0  1  0  0  3  0  0  0  0  0  0
  184.3830  178.2530  139.8790 C   0  0  0  0  0  2  0  0  0  0  0  0
  182.2960  179.4050  139.4780 C   0  0  2  0  0  3  0  0  0  0  0  0
  183.1090  178.7070  140.5460 C   0  0  0  0  0  2  0  0  0  0  0  0
  180.8380  179.4700  139.8860 C   0  0  0  0  0  1  0  0  0  0  0  0
  182.4620  178.4650  137.9310 S   0  0  0  0  0  0  0  0  0  0  0  0
  183.9530  174.1770  135.3060 C   0  0  0  0  0  2  0  0  0  0  0  0
  184.4750  174.1080  136.7550 C   0  0  0  0  0  2  0  0  0  0  0  0
  183.4750  175.5760  134.9240 C   0  0  0  0  0  2  0  0  0  0  0  0
  185.0620  176.4130  136.7600 C   0  0  1  0  0  3  0  0  0  0  0  0
  184.2910  175.3770  137.4620 N   0  0  0  0  0  2  0  0  0  0  0  0
  184.4990  176.6370  135.3350 C   0  0  0  0  0  2  0  0  0  0  0  0
  1  7  1  0  0  0  0
  1  4  2  0  0  0  0
  2  8  2  0  0  0  0
  5 10  1  0  0  0  0
  5 30  1  0  0  0  0
  6  2  1  0  0  0  0
  6 10  2  0  0  0  0
  7 11  1  6  0  0  0
  8  1  1  0  0  0  0
  9  3  1  1  0  0  0
  9  7  1  0  0  0  0
 10  9  1  0  0  0  0
 12 15  1  0  0  0  0
 12 18  1  1  0  0  0
 13 15  1  0  0  0  0
 14 12  1  0  0  0  0
 15 22  1  0  0  0  0
 16 11  1  6  0  0  0
 16 14  1  0  0  0  0
 16 13  1  0  0  0  0
 17 18  1  0  0  0  0
 18 20  1  0  0  0  0
 18 19  1  0  0  0  0
 22 21  1  1  0  0  0
 23 22  1  1  0  0  0
 23 24  1  0  0  0  0
 24 29  1  0  0  0  0
 24 25  1  0  0  0  0
 26 23  1  0  0  0  0
 26 24  1  0  0  0  0
 27 26  1  0  0  0  0
 28 27  1  0  0  0  0
 28 26  1  0  0  0  0
 31 30  1  0  0  0  0
 32 31  1  6  0  0  0
 32 33  1  0  0  0  0
 33 35  1  0  0  0  0
 34 36  1  1  0  0  0
 34 35  1  0  0  0  0
 37 32  1  0  0  0  0
 37 34  1  0  0  0  0
 38 39  1  0  0  0  0
 39 42  1  0  0  0  0
 40 38  1  0  0  0  0
 40 43  1  0  0  0  0
 41 42  1  0  0  0  0
 41 31  1  1  0  0  0
 43 41  1  0  0  0  0
M  END
>  <MODEL>
4

>  <REMARK>
 VINA RESULT:      -7.5      1.627      2.258
  Name = 
  9 active torsions:
  status: ('A' for Active; 'I' for Inactive)
    1  A    between atoms: C_1  and  C_40
    2  A    between atoms: C_2  and  C_15
    3  A    between atoms: C_8  and  N_27
    4  A    between atoms: O_16  and  C_31
    5  A    between atoms: O_16  and  C_43
    6  A    between atoms: N_20  and  C_38
    7  A    between atoms: C_25  and  N_27
    8  A    between atoms: N_27  and  C_38
    9  A    between atoms: N_37  and  C_40
                            x       y       z     vdW  Elec       q    Type
                         _______ _______ _______ _____ _____    ______ ____

>  <TORSDO>
F 9

$$$$
=
 OpenBabel11062412223D

 43 48  0  0  1  0  0  0  0  0999 V2000
  180.8650  178.7030  140.3330 C   0  0  0  0  0  0  0  0  0  0  0  0
  179.8700  178.4870  138.0530 C   0  0  0  0  0  3  0  0  0  0  0  0
  182.0470  175.2740  140.0210 F   0  0  0  0  0  0  0  0  0  0  0  0
  180.8040  179.4360  141.3940 N   0  0  0  0  0  2  0  0  0  0  0  0
  182.2470  175.7240  137.2480 N   0  0  0  0  0  2  0  0  0  0  0  0
  180.7200  177.4740  137.4860 N   0  0  0  0  0  0  0  0  0  0  0  0
  181.9090  177.6370  140.2780 C   0  0  1  0  0  3  0  0  0  0  0  0
  179.9550  178.9830  139.2570 N   0  0  0  0  0  0  0  0  0  0  0  0
  181.3870  176.4020  139.5700 C   0  0  1  0  0  3  0  0  0  0  0  0
  181.4340  176.5670  138.0760 C   0  0  0  0  0  0  0  0  0  0  0  0
  183.0870  178.1170  139.6890 O   0  0  0  0  0  0  0  0  0  0  0  0
  185.9440  179.0370  141.4860 C   0  0  1  0  0  3  0  0  0  0  0  0
  183.8380  178.0890  141.9520 C   0  0  0  0  0  2  0  0  0  0  0  0
  185.0960  179.2400  140.2490 C   0  0  0  0  0  2  0  0  0  0  0  0
  185.2480  178.0850  142.3500 N   0  0  0  0  0  0  0  0  0  0  0  0
  183.6960  178.8940  140.6760 C   0  0  1  0  0  3  0  0  0  0  0  0
  188.3160  179.3240  141.7020 F   0  0  0  0  0  0  0  0  0  0  0  0
  187.3420  178.5320  141.1150 C   0  0  0  0  0  0  0  0  0  0  0  0
  187.4970  178.5650  139.7420 F   0  0  0  0  0  0  0  0  0  0  0  0
  187.4940  177.2250  141.5450 F   0  0  0  0  0  0  0  0  0  0  0  0
  184.0810  178.7100  144.4870 C   0  0  0  0  0  1  0  0  0  0  0  0
  185.4100  178.4950  143.7590 C   0  0  1  0  0  3  0  0  0  0  0  0
  186.2990  177.5410  144.5740 C   0  0  2  0  0  3  0  0  0  0  0  0
  186.6710  178.0980  145.9010 C   0  0  0  0  0  0  0  0  0  0  0  0
  186.1450  179.3490  146.2410 O   0  0  0  0  0  1  0  0  0  0  0  0
  187.7450  178.0850  144.7840 C   0  0  0  0  0  0  0  0  0  0  0  0
  188.9360  177.4690  145.5440 C   0  0  0  0  0  2  0  0  0  0  0  0
  188.4410  176.7870  144.3390 C   0  0  0  0  0  2  0  0  0  0  0  0
  186.6760  177.1290  146.9160 O   0  0  0  0  0  1  0  0  0  0  0  0
  183.3840  174.9450  137.7050 C   0  0  0  0  0  2  0  0  0  0  0  0
  184.3320  174.7740  136.6010 N   0  0  0  0  0  0  0  0  0  0  0  0
  184.3540  173.3610  136.1760 C   0  0  1  0  0  3  0  0  0  0  0  0
  184.0900  172.3690  137.3040 C   0  0  0  0  0  2  0  0  0  0  0  0
  182.5340  171.5730  135.6330 C   0  0  2  0  0  3  0  0  0  0  0  0
  183.5500  171.1170  136.6570 C   0  0  0  0  0  2  0  0  0  0  0  0
  182.2910  170.4800  134.6120 C   0  0  0  0  0  1  0  0  0  0  0  0
  183.1840  173.0550  134.8060 S   0  0  0  0  0  0  0  0  0  0  0  0
  188.1940  176.5970  136.8790 C   0  0  0  0  0  2  0  0  0  0  0  0
  188.0070  175.0900  136.6130 C   0  0  0  0  0  2  0  0  0  0  0  0
  186.9240  177.4000  136.6040 C   0  0  0  0  0  2  0  0  0  0  0  0
  185.6690  175.2030  137.0370 C   0  0  1  0  0  3  0  0  0  0  0  0
  186.6850  174.7940  136.0570 N   0  0  0  0  0  2  0  0  0  0  0  0
  185.7060  176.7360  137.2490 C   0  0  0  0  0  2  0  0  0  0  0  0
  1  4  2  0  0  0  0
  2  8  2  0  0  0  0
  5 30  1  0  0  0  0
  5 10  1  0  0  0  0
  6  2  1  0  0  0  0
  6 10  2  0  0  0  0
  7 11  1  6  0  0  0
  7  1  1  0  0  0  0
  8  1  1  0  0  0  0
  9  3  1  6  0  0  0
  9  7  1  0  0  0  0
 10  9  1  0  0  0  0
 12 18  1  6  0  0  0
 12 15  1  0  0  0  0
 13 15  1  0  0  0  0
 14 16  1  0  0  0  0
 14 12  1  0  0  0  0
 15 22  1  0  0  0  0
 16 11  1  6  0  0  0
 16 13  1  0  0  0  0
 18 20  1  0  0  0  0
 18 17  1  0  0  0  0
 19 18  1  0  0  0  0
 22 21  1  1  0  0  0
 23 22  1  6  0  0  0
 23 26  1  0  0  0  0
 23 24  1  0  0  0  0
 24 25  1  0  0  0  0
 24 29  1  0  0  0  0
 26 27  1  0  0  0  0
 26 24  1  0  0  0  0
 28 26  1  0  0  0  0
 28 27  1  0  0  0  0
 31 30  1  0  0  0  0
 32 31  1  1  0  0  0
 32 33  1  0  0  0  0
 34 36  1  6  0  0  0
 34 35  1  0  0  0  0
 35 33  1  0  0  0  0
 37 34  1  0  0  0  0
 37 32  1  0  0  0  0
 39 38  1  0  0  0  0
 40 38  1  0  0  0  0
 40 43  1  0  0  0  0
 41 31  1  6  0  0  0
 41 43  1  0  0  0  0
 42 39  1  0  0  0  0
 42 41  1  0  0  0  0
M  END
>  <MODEL>
5

>  <REMARK>
 VINA RESULT:      -7.3      2.962      6.144
  Name = 
  9 active torsions:
  status: ('A' for Active; 'I' for Inactive)
    1  A    between atoms: C_1  and  C_40
    2  A    between atoms: C_2  and  C_15
    3  A    between atoms: C_8  and  N_27
    4  A    between atoms: O_16  and  C_31
    5  A    between atoms: O_16  and  C_43
    6  A    between atoms: N_20  and  C_38
    7  A    between atoms: C_25  and  N_27
    8  A    between atoms: N_27  and  C_38
    9  A    between atoms: N_37  and  C_40
                            x       y       z     vdW  Elec       q    Type
                         _______ _______ _______ _____ _____    ______ ____

>  <TORSDO>
F 9

$$$$
=
 OpenBabel11062412223D

 43 48  0  0  1  0  0  0  0  0999 V2000
  181.2990  179.1600  140.6880 C   0  0  0  0  0  0  0  0  0  0  0  0
  181.2200  179.9150  138.3090 C   0  0  0  0  0  3  0  0  0  0  0  0
  182.6660  175.9950  139.5230 F   0  0  0  0  0  0  0  0  0  0  0  0
  180.8210  179.4460  141.8530 N   0  0  0  0  0  2  0  0  0  0  0  0
  183.8480  177.4240  137.4030 N   0  0  0  0  0  2  0  0  0  0  0  0
  182.2630  179.1050  137.7370 N   0  0  0  0  0  0  0  0  0  0  0  0
  182.3380  178.0910  140.6020 C   0  0  1  0  0  3  0  0  0  0  0  0
  180.8350  179.9130  139.5560 N   0  0  0  0  0  0  0  0  0  0  0  0
  182.1670  177.2710  139.3380 C   0  0  1  0  0  3  0  0  0  0  0  0
  182.7510  177.9760  138.1450 C   0  0  0  0  0  0  0  0  0  0  0  0
  183.6260  178.6330  140.7020 O   0  0  0  0  0  0  0  0  0  0  0  0
  184.9260  178.3550  143.9380 C   0  0  1  0  0  3  0  0  0  0  0  0
  185.7370  178.2180  141.7300 C   0  0  0  0  0  2  0  0  0  0  0  0
  183.7140  178.2520  143.0390 C   0  0  0  0  0  2  0  0  0  0  0  0
  186.0850  178.6350  143.0910 N   0  0  0  0  0  0  0  0  0  0  0  0
  184.2620  177.8770  141.6890 C   0  0  1  0  0  3  0  0  0  0  0  0
  184.8800  180.7040  144.4250 F   0  0  0  0  0  0  0  0  0  0  0  0
  184.7340  179.4490  144.9930 C   0  0  0  0  0  0  0  0  0  0  0  0
  185.6710  179.2930  145.9980 F   0  0  0  0  0  0  0  0  0  0  0  0
  183.4710  179.3430  145.5490 F   0  0  0  0  0  0  0  0  0  0  0  0
  186.9040  176.8910  144.7050 C   0  0  0  0  0  1  0  0  0  0  0  0
  187.2530  177.8890  143.5990 C   0  0  1  0  0  3  0  0  0  0  0  0
  188.0520  177.1790  142.4940 C   0  0  2  0  0  3  0  0  0  0  0  0
  189.4510  176.8790  142.9000 C   0  0  0  0  0  0  0  0  0  0  0  0
  189.8270  177.2250  144.2030 O   0  0  0  0  0  1  0  0  0  0  0  0
  189.2090  178.0540  141.9200 C   0  0  0  0  0  0  0  0  0  0  0  0
  190.2480  177.7310  140.8290 C   0  0  0  0  0  2  0  0  0  0  0  0
  188.8320  177.8200  140.4460 C   0  0  0  0  0  2  0  0  0  0  0  0
  189.8970  175.6330  142.4350 O   0  0  0  0  0  1  0  0  0  0  0  0
  184.7720  176.4190  137.8970 C   0  0  0  0  0  2  0  0  0  0  0  0
  185.7230  176.0710  136.8380 N   0  0  0  0  0  0  0  0  0  0  0  0
  185.6420  174.6270  136.5470 C   0  0  1  0  0  3  0  0  0  0  0  0
  184.8760  173.8240  137.5940 C   0  0  0  0  0  2  0  0  0  0  0  0
  183.8130  173.0470  135.5670 C   0  0  2  0  0  3  0  0  0  0  0  0
  184.3660  172.5870  136.8980 C   0  0  0  0  0  2  0  0  0  0  0  0
  183.7230  171.8790  134.6040 C   0  0  0  0  0  1  0  0  0  0  0  0
  184.9270  174.3150  134.8950 S   0  0  0  0  0  0  0  0  0  0  0  0
  189.8680  177.1350  136.9540 C   0  0  0  0  0  2  0  0  0  0  0  0
  189.3560  175.7480  137.3920 C   0  0  0  0  0  2  0  0  0  0  0  0
  188.8490  177.8900  136.1040 C   0  0  0  0  0  2  0  0  0  0  0  0
  187.0830  176.4350  137.2660 C   0  0  1  0  0  3  0  0  0  0  0  0
  188.0540  175.4350  136.8010 N   0  0  0  0  0  2  0  0  0  0  0  0
  187.4580  177.8420  136.7420 C   0  0  0  0  0  2  0  0  0  0  0  0
  1  4  2  0  0  0  0
  2  8  2  0  0  0  0
  5 30  1  0  0  0  0
  5 10  1  0  0  0  0
  6 10  2  0  0  0  0
  6  2  1  0  0  0  0
  7  1  1  0  0  0  0
  7 11  1  6  0  0  0
  8  1  1  0  0  0  0
  9  3  1  1  0  0  0
  9  7  1  0  0  0  0
 10  9  1  0  0  0  0
 12 18  1  1  0  0  0
 13 15  1  0  0  0  0
 14 12  1  0  0  0  0
 15 22  1  0  0  0  0
 15 12  1  0  0  0  0
 16 11  1  6  0  0  0
 16 13  1  0  0  0  0
 16 14  1  0  0  0  0
 17 18  1  0  0  0  0
 18 20  1  0  0  0  0
 18 19  1  0  0  0  0
 22 21  1  1  0  0  0
 23 24  1  0  0  0  0
 23 22  1  1  0  0  0
 24 25  1  0  0  0  0
 26 23  1  0  0  0  0
 26 24  1  0  0  0  0
 27 26  1  0  0  0  0
 28 27  1  0  0  0  0
 28 26  1  0  0  0  0
 29 24  1  0  0  0  0
 31 30  1  0  0  0  0
 32 31  1  1  0  0  0
 32 33  1  0  0  0  0
 34 36  1  6  0  0  0
 34 35  1  0  0  0  0
 35 33  1  0  0  0  0
 37 34  1  0  0  0  0
 37 32  1  0  0  0  0
 38 39  1  0  0  0  0
 40 43  1  0  0  0  0
 40 38  1  0  0  0  0
 41 31  1  6  0  0  0
 42 41  1  0  0  0  0
 42 39  1  0  0  0  0
 43 41  1  0  0  0  0
M  END
>  <MODEL>
6

>  <REMARK>
 VINA RESULT:      -7.3      2.847      6.359
  Name = 
  9 active torsions:
  status: ('A' for Active; 'I' for Inactive)
    1  A    between atoms: C_1  and  C_40
    2  A    between atoms: C_2  and  C_15
    3  A    between atoms: C_8  and  N_27
    4  A    between atoms: O_16  and  C_31
    5  A    between atoms: O_16  and  C_43
    6  A    between atoms: N_20  and  C_38
    7  A    between atoms: C_25  and  N_27
    8  A    between atoms: N_27  and  C_38
    9  A    between atoms: N_37  and  C_40
                            x       y       z     vdW  Elec       q    Type
                         _______ _______ _______ _____ _____    ______ ____

>  <TORSDO>
F 9

$$$$
=
 OpenBabel11062412223D

 43 48  0  0  1  0  0  0  0  0999 V2000
  182.8420  179.3050  143.5590 C   0  0  0  0  0  0  0  0  0  0  0  0
  184.1810  178.4970  145.5060 C   0  0  0  0  0  3  0  0  0  0  0  0
  185.9720  180.0150  141.8430 F   0  0  0  0  0  0  0  0  0  0  0  0
  181.6510  179.6920  143.2460 N   0  0  0  0  0  2  0  0  0  0  0  0
  187.1020  177.8660  143.2700 N   0  0  0  0  0  2  0  0  0  0  0  0
  185.3970  178.1000  144.8480 N   0  0  0  0  0  0  0  0  0  0  0  0
  183.8400  179.1540  142.4590 C   0  0  1  0  0  3  0  0  0  0  0  0
  183.1220  179.0040  144.9360 N   0  0  0  0  0  0  0  0  0  0  0  0
  185.2210  179.5780  142.9180 C   0  0  1  0  0  3  0  0  0  0  0  0
  185.8910  178.4920  143.7150 C   0  0  0  0  0  0  0  0  0  0  0  0
  183.8370  177.8470  141.9530 O   0  0  0  0  0  0  0  0  0  0  0  0
  182.7400  178.8310  138.7810 C   0  0  1  0  0  3  0  0  0  0  0  0
  183.4300  176.8380  139.8320 C   0  0  0  0  0  2  0  0  0  0  0  0
  183.3910  179.2340  140.0850 C   0  0  0  0  0  2  0  0  0  0  0  0
  182.5200  177.3860  138.8230 N   0  0  0  0  0  0  0  0  0  0  0  0
  184.0690  177.9870  140.5840 C   0  0  1  0  0  3  0  0  0  0  0  0
  181.3440  180.6720  139.4250 F   0  0  0  0  0  0  0  0  0  0  0  0
  181.4250  179.5870  138.5680 C   0  0  0  0  0  0  0  0  0  0  0  0
  180.3590  178.7390  138.8060 F   0  0  0  0  0  0  0  0  0  0  0  0
  181.3500  180.0320  137.2590 F   0  0  0  0  0  0  0  0  0  0  0  0
  181.5650  176.8040  136.5710 C   0  0  0  0  0  1  0  0  0  0  0  0
  182.7890  176.8120  137.4890 C   0  0  1  0  0  3  0  0  0  0  0  0
  183.9740  177.4750  136.7670 C   0  0  2  0  0  3  0  0  0  0  0  0
  184.6050  176.5810  135.7610 C   0  0  0  0  0  0  0  0  0  0  0  0
  184.0300  175.3180  135.5760 O   0  0  0  0  0  1  0  0  0  0  0  0
  185.3430  176.8090  137.1040 C   0  0  0  0  0  0  0  0  0  0  0  0
  186.7590  177.1420  136.5950 C   0  0  0  0  0  2  0  0  0  0  0  0
  186.0580  178.1340  137.4250 C   0  0  0  0  0  2  0  0  0  0  0  0
  184.9980  177.2610  134.5980 O   0  0  0  0  0  1  0  0  0  0  0  0
  187.5900  177.8620  141.9020 C   0  0  0  0  0  2  0  0  0  0  0  0
  189.0450  178.0370  141.9050 N   0  0  0  0  0  0  0  0  0  0  0  0
  189.6670  177.0620  140.9880 C   0  0  1  0  0  3  0  0  0  0  0  0
  188.9090  176.8680  139.6790 C   0  0  0  0  0  2  0  0  0  0  0  0
  191.1500  177.2340  138.8490 C   0  0  2  0  0  3  0  0  0  0  0  0
  189.9160  176.3780  138.6680 C   0  0  0  0  0  2  0  0  0  0  0  0
  192.3600  176.5440  138.2520 C   0  0  0  0  0  1  0  0  0  0  0  0
  191.4060  177.4970  140.6290 S   0  0  0  0  0  0  0  0  0  0  0  0
  191.5370  177.5010  145.3430 C   0  0  0  0  0  2  0  0  0  0  0  0
  190.6360  176.3780  144.7900 C   0  0  0  0  0  2  0  0  0  0  0  0
  191.7680  178.6170  144.3270 C   0  0  0  0  0  2  0  0  0  0  0  0
  189.5540  177.8560  143.2730 C   0  0  1  0  0  3  0  0  0  0  0  0
  190.2980  176.5940  143.3820 N   0  0  0  0  0  2  0  0  0  0  0  0
  190.4500  179.0510  143.6800 C   0  0  0  0  0  2  0  0  0  0  0  0
  1  8  1  0  0  0  0
  4  1  2  0  0  0  0
  5 10  1  0  0  0  0
  6  2  1  0  0  0  0
  7 11  1  1  0  0  0
  7  9  1  0  0  0  0
  7  1  1  0  0  0  0
  8  2  2  0  0  0  0
  9  3  1  6  0  0  0
  9 10  1  0  0  0  0
 10  6  2  0  0  0  0
 12 18  1  1  0  0  0
 12 15  1  0  0  0  0
 12 14  1  0  0  0  0
 13 16  1  0  0  0  0
 14 16  1  0  0  0  0
 15 13  1  0  0  0  0
 16 11  1  1  0  0  0
 18 19  1  0  0  0  0
 18 17  1  0  0  0  0
 20 18  1  0  0  0  0
 22 21  1  6  0  0  0
 22 15  1  0  0  0  0
 23 26  1  0  0  0  0
 23 22  1  1  0  0  0
 24 23  1  0  0  0  0
 24 26  1  0  0  0  0
 25 24  1  0  0  0  0
 26 28  1  0  0  0  0
 27 26  1  0  0  0  0
 27 28  1  0  0  0  0
 29 24  1  0  0  0  0
 30 31  1  0  0  0  0
 30  5  1  0  0  0  0
 32 31  1  6  0  0  0
 33 32  1  0  0  0  0
 34 36  1  1  0  0  0
 34 37  1  0  0  0  0
 35 34  1  0  0  0  0
 35 33  1  0  0  0  0
 37 32  1  0  0  0  0
 39 38  1  0  0  0  0
 40 38  1  0  0  0  0
 41 31  1  6  0  0  0
 41 42  1  0  0  0  0
 41 43  1  0  0  0  0
 42 39  1  0  0  0  0
 43 40  1  0  0  0  0
M  END
>  <MODEL>
7

>  <REMARK>
 VINA RESULT:      -6.6      3.731      8.888
  Name = 
  9 active torsions:
  status: ('A' for Active; 'I' for Inactive)
    1  A    between atoms: C_1  and  C_40
    2  A    between atoms: C_2  and  C_15
    3  A    between atoms: C_8  and  N_27
    4  A    between atoms: O_16  and  C_31
    5  A    between atoms: O_16  and  C_43
    6  A    between atoms: N_20  and  C_38
    7  A    between atoms: C_25  and  N_27
    8  A    between atoms: N_27  and  C_38
    9  A    between atoms: N_37  and  C_40
                            x       y       z     vdW  Elec       q    Type
                         _______ _______ _______ _____ _____    ______ ____

>  <TORSDO>
F 9

$$$$
=
 OpenBabel11062412223D

 43 48  0  0  1  0  0  0  0  0999 V2000
  182.9390  179.0380  143.6770 C   0  0  0  0  0  0  0  0  0  0  0  0
  184.5770  178.2050  145.3660 C   0  0  0  0  0  3  0  0  0  0  0  0
  185.7560  180.0790  141.6200 F   0  0  0  0  0  0  0  0  0  0  0  0
  181.6940  179.3600  143.5520 N   0  0  0  0  0  2  0  0  0  0  0  0
  187.2000  177.9290  142.7260 N   0  0  0  0  0  2  0  0  0  0  0  0
  185.7150  177.9390  144.5270 N   0  0  0  0  0  0  0  0  0  0  0  0
  183.7850  179.0300  142.4470 C   0  0  1  0  0  3  0  0  0  0  0  0
  183.4210  178.6710  144.9790 N   0  0  0  0  0  0  0  0  0  0  0  0
  185.1860  179.5220  142.7500 C   0  0  1  0  0  3  0  0  0  0  0  0
  186.0250  178.4370  143.3710 C   0  0  0  0  0  0  0  0  0  0  0  0
  183.7950  177.7610  141.8520 O   0  0  0  0  0  0  0  0  0  0  0  0
  181.4650  176.9340  139.3770 C   0  0  1  0  0  3  0  0  0  0  0  0
  183.8070  176.9020  139.6280 C   0  0  0  0  0  2  0  0  0  0  0  0
  181.7780  177.7560  140.6080 C   0  0  0  0  0  2  0  0  0  0  0  0
  182.6770  176.2030  139.0100 N   0  0  0  0  0  0  0  0  0  0  0  0
  183.2690  177.9560  140.5730 C   0  0  1  0  0  3  0  0  0  0  0  0
  179.4090  176.5310  140.5460 F   0  0  0  0  0  0  0  0  0  0  0  0
  180.2980  175.9780  139.6390 C   0  0  0  0  0  0  0  0  0  0  0  0
  180.7800  174.7860  140.1460 F   0  0  0  0  0  0  0  0  0  0  0  0
  179.6350  175.7150  138.4520 F   0  0  0  0  0  0  0  0  0  0  0  0
  182.9680  177.5600  136.9140 C   0  0  0  0  0  1  0  0  0  0  0  0
  182.8030  176.1730  137.5390 C   0  0  1  0  0  3  0  0  0  0  0  0
  183.9220  175.2440  137.0420 C   0  0  2  0  0  3  0  0  0  0  0  0
  183.5170  174.4420  135.8570 C   0  0  0  0  0  0  0  0  0  0  0  0
  182.2360  174.6660  135.3400 O   0  0  0  0  0  1  0  0  0  0  0  0
  183.5890  173.7320  137.2320 C   0  0  0  0  0  0  0  0  0  0  0  0
  184.4100  172.4820  136.8620 C   0  0  0  0  0  2  0  0  0  0  0  0
  184.9320  173.3840  137.8990 C   0  0  0  0  0  2  0  0  0  0  0  0
  184.5500  174.2990  134.9180 O   0  0  0  0  0  1  0  0  0  0  0  0
  187.4970  178.0470  141.3090 C   0  0  0  0  0  2  0  0  0  0  0  0
  188.9350  177.8620  141.0970 N   0  0  0  0  0  0  0  0  0  0  0  0
  189.1590  176.9500  139.9580 C   0  0  1  0  0  3  0  0  0  0  0  0
  188.1660  177.1300  138.8140 C   0  0  0  0  0  2  0  0  0  0  0  0
  190.2590  177.1820  137.6040 C   0  0  2  0  0  3  0  0  0  0  0  0
  188.8520  176.6260  137.5680 C   0  0  0  0  0  2  0  0  0  0  0  0
  191.1640  176.3770  136.6940 C   0  0  0  0  0  1  0  0  0  0  0  0
  190.8640  177.0890  139.3150 S   0  0  0  0  0  0  0  0  0  0  0  0
  191.6480  176.3000  144.0160 C   0  0  0  0  0  2  0  0  0  0  0  0
  190.5780  175.4270  143.3290 C   0  0  0  0  0  2  0  0  0  0  0  0
  191.9130  177.6000  143.2590 C   0  0  0  0  0  2  0  0  0  0  0  0
  189.5410  177.3150  142.3200 C   0  0  1  0  0  3  0  0  0  0  0  0
  190.1420  176.0010  142.0550 N   0  0  0  0  0  2  0  0  0  0  0  0
  190.6010  178.2930  142.8840 C   0  0  0  0  0  2  0  0  0  0  0  0
  1  8  1  0  0  0  0
  4  1  2  0  0  0  0
  5 10  1  0  0  0  0
  6  2  1  0  0  0  0
  7 11  1  1  0  0  0
  7  9  1  0  0  0  0
  7  1  1  0  0  0  0
  8  2  2  0  0  0  0
  9  3  1  6  0  0  0
  9 10  1  0  0  0  0
 10  6  2  0  0  0  0
 12 18  1  1  0  0  0
 12 14  1  0  0  0  0
 13 16  1  0  0  0  0
 15 12  1  0  0  0  0
 15 13  1  0  0  0  0
 16 14  1  0  0  0  0
 16 11  1  1  0  0  0
 18 19  1  0  0  0  0
 18 17  1  0  0  0  0
 20 18  1  0  0  0  0
 22 21  1  1  0  0  0
 22 15  1  0  0  0  0
 23 26  1  0  0  0  0
 23 22  1  1  0  0  0
 24 23  1  0  0  0  0
 24 26  1  0  0  0  0
 25 24  1  0  0  0  0
 26 28  1  0  0  0  0
 27 26  1  0  0  0  0
 27 28  1  0  0  0  0
 29 24  1  0  0  0  0
 30  5  1  0  0  0  0
 31 30  1  0  0  0  0
 32 31  1  1  0  0  0
 33 32  1  0  0  0  0
 34 36  1  6  0  0  0
 34 37  1  0  0  0  0
 35 34  1  0  0  0  0
 35 33  1  0  0  0  0
 37 32  1  0  0  0  0
 39 38  1  0  0  0  0
 40 38  1  0  0  0  0
 41 31  1  6  0  0  0
 41 43  1  0  0  0  0
 42 41  1  0  0  0  0
 42 39  1  0  0  0  0
 43 40  1  0  0  0  0
M  END
>  <MODEL>
8

>  <REMARK>
 VINA RESULT:      -6.4      4.011      8.699
  Name = 
  9 active torsions:
  status: ('A' for Active; 'I' for Inactive)
    1  A    between atoms: C_1  and  C_40
    2  A    between atoms: C_2  and  C_15
    3  A    between atoms: C_8  and  N_27
    4  A    between atoms: O_16  and  C_31
    5  A    between atoms: O_16  and  C_43
    6  A    between atoms: N_20  and  C_38
    7  A    between atoms: C_25  and  N_27
    8  A    between atoms: N_27  and  C_38
    9  A    between atoms: N_37  and  C_40
                            x       y       z     vdW  Elec       q    Type
                         _______ _______ _______ _____ _____    ______ ____

>  <TORSDO>
F 9

$$$$
=
 OpenBabel11062412223D

 43 48  0  0  1  0  0  0  0  0999 V2000
  181.5540  179.0280  141.6320 C   0  0  0  0  0  0  0  0  0  0  0  0
  181.8000  179.1580  144.1130 C   0  0  0  0  0  3  0  0  0  0  0  0
  185.1680  179.3610  141.3660 F   0  0  0  0  0  0  0  0  0  0  0  0
  180.6680  179.1430  140.6990 N   0  0  0  0  0  2  0  0  0  0  0  0
  185.3500  178.0380  143.8460 N   0  0  0  0  0  2  0  0  0  0  0  0
  183.1440  178.6710  144.2740 N   0  0  0  0  0  0  0  0  0  0  0  0
  182.9230  178.5780  141.2430 C   0  0  1  0  0  3  0  0  0  0  0  0
  181.1580  179.2990  142.9860 N   0  0  0  0  0  0  0  0  0  0  0  0
  183.9800  179.2860  142.0690 C   0  0  1  0  0  3  0  0  0  0  0  0
  184.1260  178.6560  143.4270 C   0  0  0  0  0  0  0  0  0  0  0  0
  183.0390  177.1850  141.3320 O   0  0  0  0  0  0  0  0  0  0  0  0
  182.4820  177.5510  137.8980 C   0  0  1  0  0  3  0  0  0  0  0  0
  182.0680  175.9270  139.5540 C   0  0  0  0  0  2  0  0  0  0  0  0
  183.3050  177.9460  139.1040 C   0  0  0  0  0  2  0  0  0  0  0  0
  181.5380  176.5180  138.3230 N   0  0  0  0  0  0  0  0  0  0  0  0
  183.2490  176.7540  140.0210 C   0  0  1  0  0  3  0  0  0  0  0  0
  180.3940  178.6910  137.5830 F   0  0  0  0  0  0  0  0  0  0  0  0
  181.7520  178.7630  137.3120 C   0  0  0  0  0  0  0  0  0  0  0  0
  181.9390  178.8010  135.9430 F   0  0  0  0  0  0  0  0  0  0  0  0
  182.2660  179.9260  137.8590 F   0  0  0  0  0  0  0  0  0  0  0  0
  180.3100  175.8350  136.2390 C   0  0  0  0  0  1  0  0  0  0  0  0
  181.4060  175.5070  137.2550 C   0  0  1  0  0  3  0  0  0  0  0  0
  182.7260  175.2210  136.5200 C   0  0  2  0  0  3  0  0  0  0  0  0
  182.7850  173.8430  135.9640 C   0  0  0  0  0  0  0  0  0  0  0  0
  181.6560  173.0340  136.1350 O   0  0  0  0  0  1  0  0  0  0  0  0
  183.6060  174.1550  137.2400 C   0  0  0  0  0  0  0  0  0  0  0  0
  184.9760  173.5690  136.8450 C   0  0  0  0  0  2  0  0  0  0  0  0
  184.8950  174.9950  137.1940 C   0  0  0  0  0  2  0  0  0  0  0  0
  183.4030  173.7900  134.7050 O   0  0  0  0  0  1  0  0  0  0  0  0
  186.3990  177.5690  142.9580 C   0  0  0  0  0  2  0  0  0  0  0  0
  187.5590  177.1550  143.7520 N   0  0  0  0  0  0  0  0  0  0  0  0
  187.5950  177.9140  145.0170 C   0  0  1  0  0  3  0  0  0  0  0  0
  186.5750  177.4480  146.0500 C   0  0  0  0  0  2  0  0  0  0  0  0
  188.5870  177.4860  147.3920 C   0  0  2  0  0  3  0  0  0  0  0  0
  187.1180  177.8490  147.4000 C   0  0  0  0  0  2  0  0  0  0  0  0
  189.3250  178.2590  148.4660 C   0  0  0  0  0  1  0  0  0  0  0  0
  189.2660  177.9000  145.7580 S   0  0  0  0  0  0  0  0  0  0  0  0
  190.5630  177.2280  140.7040 C   0  0  0  0  0  2  0  0  0  0  0  0
  190.7090  176.3900  141.9910 C   0  0  0  0  0  2  0  0  0  0  0  0
  189.1190  177.6520  140.4450 C   0  0  0  0  0  2  0  0  0  0  0  0
  188.7870  177.3860  142.9770 C   0  0  1  0  0  3  0  0  0  0  0  0
  189.4110  176.1080  142.6080 N   0  0  0  0  0  2  0  0  0  0  0  0
  188.4810  178.2250  141.7120 C   0  0  0  0  0  2  0  0  0  0  0  0
  1  8  1  0  0  0  0
  2  6  1  0  0  0  0
  4  1  2  0  0  0  0
  7 11  1  1  0  0  0
  7  1  1  0  0  0  0
  7  9  1  0  0  0  0
  8  2  2  0  0  0  0
  9  3  1  6  0  0  0
  9 10  1  0  0  0  0
 10  5  1  0  0  0  0
 10  6  2  0  0  0  0
 12 18  1  1  0  0  0
 12 15  1  0  0  0  0
 12 14  1  0  0  0  0
 13 16  1  0  0  0  0
 14 16  1  0  0  0  0
 15 13  1  0  0  0  0
 16 11  1  1  0  0  0
 18 17  1  0  0  0  0
 18 20  1  0  0  0  0
 19 18  1  0  0  0  0
 22 21  1  6  0  0  0
 22 15  1  0  0  0  0
 23 26  1  0  0  0  0
 23 22  1  1  0  0  0
 24 25  1  0  0  0  0
 24 23  1  0  0  0  0
 24 26  1  0  0  0  0
 27 28  1  0  0  0  0
 27 26  1  0  0  0  0
 28 26  1  0  0  0  0
 29 24  1  0  0  0  0
 30 31  1  0  0  0  0
 30  5  1  0  0  0  0
 32 31  1  6  0  0  0
 32 37  1  0  0  0  0
 32 33  1  0  0  0  0
 33 35  1  0  0  0  0
 34 35  1  0  0  0  0
 34 36  1  1  0  0  0
 37 34  1  0  0  0  0
 38 39  1  0  0  0  0
 39 42  1  0  0  0  0
 40 38  1  0  0  0  0
 40 43  1  0  0  0  0
 41 31  1  6  0  0  0
 42 41  1  0  0  0  0
 43 41  1  0  0  0  0
M  END
>  <MODEL>
9

>  <REMARK>
 VINA RESULT:      -6.4      4.228      9.349
  Name = 
  9 active torsions:
  status: ('A' for Active; 'I' for Inactive)
    1  A    between atoms: C_1  and  C_40
    2  A    between atoms: C_2  and  C_15
    3  A    between atoms: C_8  and  N_27
    4  A    between atoms: O_16  and  C_31
    5  A    between atoms: O_16  and  C_43
    6  A    between atoms: N_20  and  C_38
    7  A    between atoms: C_25  and  N_27
    8  A    between atoms: N_27  and  C_38
    9  A    between atoms: N_37  and  C_40
                            x       y       z     vdW  Elec       q    Type
                         _______ _______ _______ _____ _____    ______ ____

>  <TORSDO>
F 9

$$$$
