=
 OpenBabel11062414363D

 38 41  0  0  1  0  0  0  0  0999 V2000
  190.4460  177.2900  139.4770 C   0  0  1  0  0  3  0  0  0  0  0  0
  194.7680  173.8870  135.9400 C   0  0  0  0  0  3  0  0  0  0  0  0
  193.4100  175.5850  137.6310 C   0  0  0  0  0  0  0  0  0  0  0  0
  190.6160  175.1510  138.1410 C   0  0  0  0  0  2  0  0  0  0  0  0
  195.4570  174.8190  136.7140 C   0  0  0  0  0  3  0  0  0  0  0  0
  192.7030  176.4700  138.6190 C   0  0  0  0  0  2  0  0  0  0  0  0
  194.7650  175.6420  137.5440 N   0  0  0  0  0  0  0  0  0  0  0  0
  191.2150  174.5480  136.8750 C   0  0  0  0  0  2  0  0  0  0  0  0
  191.1940  176.5450  138.3660 C   0  0  2  0  0  3  0  0  0  0  0  0
  192.7150  174.6240  136.8670 C   0  0  0  0  0  0  0  0  0  0  0  0
  193.4140  173.8130  136.0300 N   0  0  0  0  0  0  0  0  0  0  0  0
  187.4320  178.2010  137.3720 C   0  0  0  0  0  0  0  0  0  0  0  0
  188.7180  177.7970  137.7350 C   0  0  0  0  0  3  0  0  0  0  0  0
  189.0590  177.7270  139.0880 C   0  0  0  0  0  0  0  0  0  0  0  0
  185.6290  178.8830  140.8530 Cl  0  0  0  0  0  0  0  0  0  0  0  0
  186.9900  178.2940  135.6810 Cl  0  0  0  0  0  0  0  0  0  0  0  0
  186.5220  178.5210  138.3310 N   0  0  0  0  0  0  0  0  0  0  0  0
  188.1060  178.0630  140.0580 C   0  0  0  0  0  3  0  0  0  0  0  0
  186.8300  178.4600  139.6540 C   0  0  0  0  0  0  0  0  0  0  0  0
  190.4220  176.5110  140.6690 O   0  0  0  0  0  0  0  0  0  0  0  0
  190.9560  176.9720  141.8750 C   0  0  0  0  0  0  0  0  0  0  0  0
  191.8040  177.9050  141.8890 O   0  0  0  0  0  0  0  0  0  0  0  0
  191.6370  175.5980  143.7970 C   0  0  0  0  0  1  0  0  0  0  0  0
  190.5000  176.3780  143.1650 C   0  0  1  0  0  3  0  0  0  0  0  0
  190.0840  177.3860  144.0400 O   0  0  0  0  0  0  0  0  0  0  0  0
  188.9670  176.8660  144.7020 C   0  0  2  0  0  3  0  0  0  0  0  0
  187.1040  177.7260  146.2320 C   0  0  0  0  0  2  0  0  0  0  0  0
  186.9510  177.8380  143.7910 O   0  0  0  0  0  0  0  0  0  0  0  0
  187.8070  176.7260  143.7080 C   0  0  0  0  0  2  0  0  0  0  0  0
  188.5940  177.7870  145.8760 C   0  0  1  0  0  3  0  0  0  0  0  0
  186.2120  177.6690  144.9780 C   0  0  2  0  0  3  0  0  0  0  0  0
  184.9250  179.4830  144.1040 O   0  0  0  0  0  0  0  0  0  0  0  0
  185.1350  178.6960  145.0640 C   0  0  0  0  0  0  0  0  0  0  0  0
  184.3710  178.7960  146.2180 O   0  0  0  0  0  1  0  0  0  0  0  0
  189.3060  178.1740  148.0930 O   0  0  0  0  0  0  0  0  0  0  0  0
  189.4460  177.5050  147.0810 C   0  0  0  0  0  0  0  0  0  0  0  0
  190.4670  176.4070  147.0740 C   0  0  0  0  0  2  0  0  0  0  0  0
  191.7650  176.9210  147.0720 O   0  0  0  0  0  1  0  0  0  0  0  0
  1 20  1  1  0  0  0
  2 11  2  0  0  0  0
  2  5  1  0  0  0  0
  3  6  1  0  0  0  0
  4  9  1  0  0  0  0
  5  7  2  0  0  0  0
  7  3  1  0  0  0  0
  8  4  1  0  0  0  0
  9  6  1  0  0  0  0
  9  1  1  1  0  0  0
 10  8  1  0  0  0  0
 10  3  2  0  0  0  0
 11 10  1  0  0  0  0
 12 13  2  0  0  0  0
 12 17  1  0  0  0  0
 13 14  1  0  0  0  0
 14  1  1  0  0  0  0
 14 18  2  0  0  0  0
 16 12  1  0  0  0  0
 17 19  2  0  0  0  0
 19 18  1  0  0  0  0
 19 15  1  0  0  0  0
 20 21  1  0  0  0  0
 21 22  2  0  0  0  0
 21 24  1  0  0  0  0
 24 23  1  1  0  0  0
 24 25  1  0  0  0  0
 26 25  1  6  0  0  0
 26 30  1  0  0  0  0
 28 31  1  0  0  0  0
 29 28  1  0  0  0  0
 29 26  1  0  0  0  0
 30 27  1  0  0  0  0
 30 36  1  1  0  0  0
 31 33  1  1  0  0  0
 31 27  1  0  0  0  0
 32 33  2  0  0  0  0
 33 34  1  0  0  0  0
 36 35  2  0  0  0  0
 37 36  1  0  0  0  0
 38 37  1  0  0  0  0
M  END
>  <MODEL>
1

>  <REMARK>
 VINA RESULT:      -8.8      0.000      0.000
  Name = 
  10 active torsions:
  status: ('A' for Active; 'I' for Inactive)
    1  A    between atoms: C_2  and  O_6
    2  A    between atoms: C_2  and  C_23
    3  A    between atoms: C_2  and  C_26
    4  A    between atoms: O_6  and  C_15
    5  A    between atoms: C_7  and  O_29
    6  A    between atoms: C_8  and  C_38
    7  A    between atoms: C_15  and  C_21
    8  A    between atoms: C_18  and  C_38
    9  A    between atoms: C_21  and  O_29
   10  A    between atoms: C_25  and  C_27
                            x       y       z     vdW  Elec       q    Type
                         _______ _______ _______ _____ _____    ______ ____

>  <TORSDO>
F 10

$$$$
=
 OpenBabel11062414363D

 38 41  0  0  1  0  0  0  0  0999 V2000
  188.5450  177.6370  144.0620 C   0  0  1  0  0  3  0  0  0  0  0  0
  182.2540  178.8860  142.7810 C   0  0  0  0  0  3  0  0  0  0  0  0
  184.9540  178.3370  142.7540 C   0  0  0  0  0  0  0  0  0  0  0  0
  186.2880  177.6340  145.1990 C   0  0  0  0  0  2  0  0  0  0  0  0
  182.9370  178.7350  141.5750 C   0  0  0  0  0  3  0  0  0  0  0  0
  186.4080  177.9610  142.7090 C   0  0  0  0  0  2  0  0  0  0  0  0
  184.2670  178.4610  141.5880 N   0  0  0  0  0  0  0  0  0  0  0  0
  184.9700  178.3940  145.2960 C   0  0  0  0  0  2  0  0  0  0  0  0
  187.1170  178.1920  144.0470 C   0  0  2  0  0  3  0  0  0  0  0  0
  184.2580  178.4630  143.9750 C   0  0  0  0  0  0  0  0  0  0  0  0
  182.9300  178.7500  143.9520 N   0  0  0  0  0  0  0  0  0  0  0  0
  190.8770  176.6630  146.8830 C   0  0  0  0  0  0  0  0  0  0  0  0
  190.3500  176.8280  145.6010 C   0  0  0  0  0  3  0  0  0  0  0  0
  189.1120  177.4580  145.4450 C   0  0  0  0  0  0  0  0  0  0  0  0
  188.1350  178.2910  149.2620 Cl  0  0  0  0  0  0  0  0  0  0  0  0
  192.4270  175.8760  147.0940 Cl  0  0  0  0  0  0  0  0  0  0  0  0
  190.1900  177.1130  147.9670 N   0  0  0  0  0  0  0  0  0  0  0  0
  188.4220  177.9120  146.5760 C   0  0  0  0  0  3  0  0  0  0  0  0
  188.9850  177.7290  147.8400 C   0  0  0  0  0  0  0  0  0  0  0  0
  188.6150  176.4240  143.3190 O   0  0  0  0  0  0  0  0  0  0  0  0
  189.7500  176.0560  142.5920 C   0  0  0  0  0  0  0  0  0  0  0  0
  190.3010  174.9380  142.7800 O   0  0  0  0  0  0  0  0  0  0  0  0
  191.6920  177.4250  141.9640 C   0  0  0  0  0  1  0  0  0  0  0  0
  190.3010  176.9790  141.5570 C   0  0  1  0  0  3  0  0  0  0  0  0
  190.3610  176.3340  140.3180 O   0  0  0  0  0  0  0  0  0  0  0  0
  190.2700  177.3530  139.3650 C   0  0  2  0  0  3  0  0  0  0  0  0
  189.4140  177.6310  136.9680 C   0  0  0  0  0  2  0  0  0  0  0  0
  187.9480  177.8490  138.9170 O   0  0  0  0  0  0  0  0  0  0  0  0
  189.0600  178.2400  139.6830 C   0  0  0  0  0  2  0  0  0  0  0  0
  190.1590  176.7310  137.9620 C   0  0  1  0  0  3  0  0  0  0  0  0
  188.1950  178.3150  137.6110 C   0  0  2  0  0  3  0  0  0  0  0  0
  187.0880  178.0960  135.5050 O   0  0  0  0  0  0  0  0  0  0  0  0
  186.9870  178.1230  136.7590 C   0  0  0  0  0  0  0  0  0  0  0  0
  185.7390  177.9920  137.3540 O   0  0  0  0  0  1  0  0  0  0  0  0
  191.6000  175.8050  136.3370 O   0  0  0  0  0  0  0  0  0  0  0  0
  191.5110  176.3470  137.4290 C   0  0  0  0  0  0  0  0  0  0  0  0
  192.7620  176.6190  138.2070 C   0  0  0  0  0  2  0  0  0  0  0  0
  193.8660  176.7550  137.3640 O   0  0  0  0  0  1  0  0  0  0  0  0
  1 20  1  1  0  0  0
  1 14  1  0  0  0  0
  2 11  1  0  0  0  0
  3 10  1  0  0  0  0
  4  8  1  0  0  0  0
  5  7  1  0  0  0  0
  5  2  2  0  0  0  0
  6  3  1  0  0  0  0
  6  9  1  0  0  0  0
  7  3  2  0  0  0  0
  9  1  1  6  0  0  0
  9  4  1  0  0  0  0
 10  8  1  0  0  0  0
 11 10  2  0  0  0  0
 12 16  1  0  0  0  0
 12 17  1  0  0  0  0
 13 12  2  0  0  0  0
 14 13  1  0  0  0  0
 14 18  2  0  0  0  0
 18 19  1  0  0  0  0
 19 17  2  0  0  0  0
 19 15  1  0  0  0  0
 21 22  2  0  0  0  0
 21 20  1  0  0  0  0
 24 23  1  1  0  0  0
 24 21  1  0  0  0  0
 25 24  1  0  0  0  0
 26 29  1  0  0  0  0
 26 25  1  1  0  0  0
 27 31  1  0  0  0  0
 27 30  1  0  0  0  0
 28 29  1  0  0  0  0
 30 36  1  6  0  0  0
 30 26  1  0  0  0  0
 31 33  1  6  0  0  0
 31 28  1  0  0  0  0
 32 33  2  0  0  0  0
 33 34  1  0  0  0  0
 35 36  2  0  0  0  0
 36 37  1  0  0  0  0
 38 37  1  0  0  0  0
M  END
>  <MODEL>
2

>  <REMARK>
 VINA RESULT:      -8.7      4.331      8.907
  Name = 
  10 active torsions:
  status: ('A' for Active; 'I' for Inactive)
    1  A    between atoms: C_2  and  O_6
    2  A    between atoms: C_2  and  C_23
    3  A    between atoms: C_2  and  C_26
    4  A    between atoms: O_6  and  C_15
    5  A    between atoms: C_7  and  O_29
    6  A    between atoms: C_8  and  C_38
    7  A    between atoms: C_15  and  C_21
    8  A    between atoms: C_18  and  C_38
    9  A    between atoms: C_21  and  O_29
   10  A    between atoms: C_25  and  C_27
                            x       y       z     vdW  Elec       q    Type
                         _______ _______ _______ _____ _____    ______ ____

>  <TORSDO>
F 10

$$$$
=
 OpenBabel11062414363D

 38 41  0  0  1  0  0  0  0  0999 V2000
  188.5470  177.6400  144.0740 C   0  0  1  0  0  3  0  0  0  0  0  0
  182.2290  178.9010  142.9450 C   0  0  0  0  0  3  0  0  0  0  0  0
  184.9290  178.3580  142.8530 C   0  0  0  0  0  0  0  0  0  0  0  0
  186.3130  177.6110  145.2560 C   0  0  0  0  0  2  0  0  0  0  0  0
  182.8870  178.7750  141.7220 C   0  0  0  0  0  3  0  0  0  0  0  0
  186.3820  177.9850  142.7710 C   0  0  0  0  0  2  0  0  0  0  0  0
  184.2180  178.5030  141.7030 N   0  0  0  0  0  0  0  0  0  0  0  0
  184.9960  178.3670  145.3940 C   0  0  0  0  0  2  0  0  0  0  0  0
  187.1180  178.1930  144.0990 C   0  0  2  0  0  3  0  0  0  0  0  0
  184.2580  178.4600  144.0900 C   0  0  0  0  0  0  0  0  0  0  0  0
  182.9290  178.7450  144.1000 N   0  0  0  0  0  0  0  0  0  0  0  0
  189.0120  177.7340  147.8320 C   0  0  0  0  0  0  0  0  0  0  0  0
  188.4560  177.9130  146.5640 C   0  0  0  0  0  3  0  0  0  0  0  0
  189.1470  177.4480  145.4410 C   0  0  0  0  0  0  0  0  0  0  0  0
  192.4460  175.8560  147.1160 Cl  0  0  0  0  0  0  0  0  0  0  0  0
  188.1580  178.3120  149.2470 Cl  0  0  0  0  0  0  0  0  0  0  0  0
  190.2130  177.1110  147.9700 N   0  0  0  0  0  0  0  0  0  0  0  0
  190.3830  176.8110  145.6070 C   0  0  0  0  0  3  0  0  0  0  0  0
  190.9030  176.6500  146.8930 C   0  0  0  0  0  0  0  0  0  0  0  0
  188.6000  176.4350  143.3180 O   0  0  0  0  0  0  0  0  0  0  0  0
  189.7290  176.0630  142.5820 C   0  0  0  0  0  0  0  0  0  0  0  0
  190.2760  174.9420  142.7650 O   0  0  0  0  0  0  0  0  0  0  0  0
  191.6710  177.4260  141.9420 C   0  0  0  0  0  1  0  0  0  0  0  0
  190.2760  176.9840  141.5440 C   0  0  1  0  0  3  0  0  0  0  0  0
  190.3260  176.3390  140.3050 O   0  0  0  0  0  0  0  0  0  0  0  0
  190.2590  177.3600  139.3520 C   0  0  2  0  0  3  0  0  0  0  0  0
  189.4360  177.6520  136.9450 C   0  0  0  0  0  2  0  0  0  0  0  0
  187.9480  177.8830  138.8760 O   0  0  0  0  0  0  0  0  0  0  0  0
  189.0540  178.2610  139.6560 C   0  0  0  0  0  2  0  0  0  0  0  0
  190.1590  176.7430  137.9470 C   0  0  1  0  0  3  0  0  0  0  0  0
  188.2160  178.3490  137.5740 C   0  0  2  0  0  3  0  0  0  0  0  0
  187.1100  178.2940  135.4570 O   0  0  0  0  0  0  0  0  0  0  0  0
  187.0170  178.1710  136.7070 C   0  0  0  0  0  0  0  0  0  0  0  0
  185.7870  177.8870  137.2830 O   0  0  0  0  0  1  0  0  0  0  0  0
  191.6070  175.7720  136.3540 O   0  0  0  0  0  0  0  0  0  0  0  0
  191.5120  176.3440  137.4300 C   0  0  0  0  0  0  0  0  0  0  0  0
  192.7610  176.6380  138.2060 C   0  0  0  0  0  2  0  0  0  0  0  0
  193.8780  176.6910  137.3700 O   0  0  0  0  0  1  0  0  0  0  0  0
  1 20  1  1  0  0  0
  1 14  1  0  0  0  0
  2 11  1  0  0  0  0
  3 10  1  0  0  0  0
  4  8  1  0  0  0  0
  5  2  2  0  0  0  0
  6  3  1  0  0  0  0
  6  9  1  0  0  0  0
  7  5  1  0  0  0  0
  7  3  2  0  0  0  0
  9  1  1  6  0  0  0
  9  4  1  0  0  0  0
 10 11  2  0  0  0  0
 10  8  1  0  0  0  0
 12 17  1  0  0  0  0
 12 16  1  0  0  0  0
 13 12  2  0  0  0  0
 14 18  2  0  0  0  0
 14 13  1  0  0  0  0
 18 19  1  0  0  0  0
 19 15  1  0  0  0  0
 19 17  2  0  0  0  0
 21 22  2  0  0  0  0
 21 20  1  0  0  0  0
 24 23  1  1  0  0  0
 24 21  1  0  0  0  0
 25 24  1  0  0  0  0
 26 29  1  0  0  0  0
 26 25  1  1  0  0  0
 27 31  1  0  0  0  0
 27 30  1  0  0  0  0
 28 29  1  0  0  0  0
 30 36  1  6  0  0  0
 30 26  1  0  0  0  0
 31 33  1  6  0  0  0
 31 28  1  0  0  0  0
 32 33  2  0  0  0  0
 33 34  1  0  0  0  0
 35 36  2  0  0  0  0
 36 37  1  0  0  0  0
 38 37  1  0  0  0  0
M  END
>  <MODEL>
3

>  <REMARK>
 VINA RESULT:      -8.7      4.344      9.016
  Name = 
  10 active torsions:
  status: ('A' for Active; 'I' for Inactive)
    1  A    between atoms: C_2  and  O_6
    2  A    between atoms: C_2  and  C_23
    3  A    between atoms: C_2  and  C_26
    4  A    between atoms: O_6  and  C_15
    5  A    between atoms: C_7  and  O_29
    6  A    between atoms: C_8  and  C_38
    7  A    between atoms: C_15  and  C_21
    8  A    between atoms: C_18  and  C_38
    9  A    between atoms: C_21  and  O_29
   10  A    between atoms: C_25  and  C_27
                            x       y       z     vdW  Elec       q    Type
                         _______ _______ _______ _____ _____    ______ ____

>  <TORSDO>
F 10

$$$$
=
 OpenBabel11062414363D

 38 41  0  0  1  0  0  0  0  0999 V2000
  189.3700  177.9470  143.6730 C   0  0  1  0  0  3  0  0  0  0  0  0
  183.4750  178.7880  140.9660 C   0  0  0  0  0  3  0  0  0  0  0  0
  186.1500  178.5870  141.5930 C   0  0  0  0  0  0  0  0  0  0  0  0
  186.9450  177.3440  144.0570 C   0  0  0  0  0  2  0  0  0  0  0  0
  184.4520  179.0850  140.0160 C   0  0  0  0  0  3  0  0  0  0  0  0
  187.6140  178.4120  141.8820 C   0  0  0  0  0  2  0  0  0  0  0  0
  185.7640  178.9740  140.3480 N   0  0  0  0  0  0  0  0  0  0  0  0
  185.5230  177.8830  143.9540 C   0  0  0  0  0  2  0  0  0  0  0  0
  187.9100  178.3130  143.3820 C   0  0  2  0  0  3  0  0  0  0  0  0
  185.1630  178.2610  142.5460 C   0  0  0  0  0  0  0  0  0  0  0  0
  183.8520  178.3870  142.2090 N   0  0  0  0  0  0  0  0  0  0  0  0
  191.0280  176.5950  146.7980 C   0  0  0  0  0  0  0  0  0  0  0  0
  190.7770  176.8910  145.4570 C   0  0  0  0  0  3  0  0  0  0  0  0
  189.6380  177.6270  145.1190 C   0  0  0  0  0  0  0  0  0  0  0  0
  187.9790  178.2670  148.7330 Cl  0  0  0  0  0  0  0  0  0  0  0  0
  192.4500  175.6740  147.2370 Cl  0  0  0  0  0  0  0  0  0  0  0  0
  190.1700  177.0220  147.7630 N   0  0  0  0  0  0  0  0  0  0  0  0
  188.7680  178.0550  146.1290 C   0  0  0  0  0  3  0  0  0  0  0  0
  189.0560  177.7400  147.4590 C   0  0  0  0  0  0  0  0  0  0  0  0
  189.7940  176.8830  142.8260 O   0  0  0  0  0  0  0  0  0  0  0  0
  191.0100  176.9140  142.1390 C   0  0  0  0  0  0  0  0  0  0  0  0
  192.0580  176.4470  142.6630 O   0  0  0  0  0  0  0  0  0  0  0  0
  192.4970  177.4220  140.2490 C   0  0  0  0  0  1  0  0  0  0  0  0
  191.0700  177.4750  140.7580 C   0  0  1  0  0  3  0  0  0  0  0  0
  190.2420  176.7400  139.9030 O   0  0  0  0  0  0  0  0  0  0  0  0
  190.2720  177.4200  138.6820 C   0  0  2  0  0  3  0  0  0  0  0  0
  189.3800  177.0840  136.3060 C   0  0  0  0  0  2  0  0  0  0  0  0
  188.0360  178.1110  138.0770 O   0  0  0  0  0  0  0  0  0  0  0  0
  189.2220  178.5390  138.6980 C   0  0  0  0  0  2  0  0  0  0  0  0
  190.0160  176.4260  137.5360 C   0  0  1  0  0  3  0  0  0  0  0  0
  188.3020  178.1130  136.6940 C   0  0  2  0  0  3  0  0  0  0  0  0
  187.0570  177.8690  134.6690 O   0  0  0  0  0  0  0  0  0  0  0  0
  187.0490  177.8600  135.9280 C   0  0  0  0  0  0  0  0  0  0  0  0
  185.8610  177.6320  136.6090 O   0  0  0  0  0  1  0  0  0  0  0  0
  192.2800  176.3200  136.8740 O   0  0  0  0  0  0  0  0  0  0  0  0
  191.2730  175.6920  137.1620 C   0  0  0  0  0  0  0  0  0  0  0  0
  191.3230  174.1940  137.1400 C   0  0  0  0  0  2  0  0  0  0  0  0
  190.0890  173.6390  137.4880 O   0  0  0  0  0  1  0  0  0  0  0  0
  1 20  1  6  0  0  0
  1 14  1  0  0  0  0
  2 11  1  0  0  0  0
  3  6  1  0  0  0  0
  3 10  1  0  0  0  0
  5  7  1  0  0  0  0
  5  2  2  0  0  0  0
  6  9  1  0  0  0  0
  7  3  2  0  0  0  0
  8  4  1  0  0  0  0
  9  1  1  6  0  0  0
  9  4  1  0  0  0  0
 10  8  1  0  0  0  0
 11 10  2  0  0  0  0
 12 16  1  0  0  0  0
 12 17  1  0  0  0  0
 13 12  2  0  0  0  0
 14 13  1  0  0  0  0
 14 18  2  0  0  0  0
 18 19  1  0  0  0  0
 19 17  2  0  0  0  0
 19 15  1  0  0  0  0
 21 22  2  0  0  0  0
 21 20  1  0  0  0  0
 24 23  1  6  0  0  0
 24 21  1  0  0  0  0
 25 24  1  0  0  0  0
 26 29  1  0  0  0  0
 26 25  1  1  0  0  0
 27 31  1  0  0  0  0
 27 30  1  0  0  0  0
 28 29  1  0  0  0  0
 30 36  1  6  0  0  0
 30 26  1  0  0  0  0
 31 33  1  6  0  0  0
 31 28  1  0  0  0  0
 32 33  2  0  0  0  0
 33 34  1  0  0  0  0
 35 36  2  0  0  0  0
 37 36  1  0  0  0  0
 37 38  1  0  0  0  0
M  END
>  <MODEL>
4

>  <REMARK>
 VINA RESULT:      -8.5      4.172      8.570
  Name = 
  10 active torsions:
  status: ('A' for Active; 'I' for Inactive)
    1  A    between atoms: C_2  and  O_6
    2  A    between atoms: C_2  and  C_23
    3  A    between atoms: C_2  and  C_26
    4  A    between atoms: O_6  and  C_15
    5  A    between atoms: C_7  and  O_29
    6  A    between atoms: C_8  and  C_38
    7  A    between atoms: C_15  and  C_21
    8  A    between atoms: C_18  and  C_38
    9  A    between atoms: C_21  and  O_29
   10  A    between atoms: C_25  and  C_27
                            x       y       z     vdW  Elec       q    Type
                         _______ _______ _______ _____ _____    ______ ____

>  <TORSDO>
F 10

$$$$
=
 OpenBabel11062414363D

 38 41  0  0  1  0  0  0  0  0999 V2000
  187.0240  177.8720  142.7850 C   0  0  1  0  0  3  0  0  0  0  0  0
  191.9810  176.1370  146.6830 C   0  0  0  0  0  3  0  0  0  0  0  0
  189.6760  177.0930  145.5160 C   0  0  0  0  0  0  0  0  0  0  0  0
  188.9920  176.2870  142.8450 C   0  0  0  0  0  2  0  0  0  0  0  0
  191.0380  176.8310  147.4380 C   0  0  0  0  0  3  0  0  0  0  0  0
  188.3750  177.5580  144.9250 C   0  0  0  0  0  2  0  0  0  0  0  0
  189.9070  177.2890  146.8410 N   0  0  0  0  0  0  0  0  0  0  0  0
  190.4490  176.1670  143.2780 C   0  0  0  0  0  2  0  0  0  0  0  0
  188.4010  177.5810  143.3930 C   0  0  2  0  0  3  0  0  0  0  0  0
  190.6180  176.3680  144.7570 C   0  0  0  0  0  0  0  0  0  0  0  0
  191.7530  175.9250  145.3600 N   0  0  0  0  0  0  0  0  0  0  0  0
  185.4120  178.9350  146.0430 C   0  0  0  0  0  0  0  0  0  0  0  0
  186.3780  178.5750  145.1020 C   0  0  0  0  0  3  0  0  0  0  0  0
  185.9820  178.2590  143.7990 C   0  0  0  0  0  0  0  0  0  0  0  0
  181.9900  178.7450  144.0220 Cl  0  0  0  0  0  0  0  0  0  0  0  0
  185.8930  179.3330  147.6780 Cl  0  0  0  0  0  0  0  0  0  0  0  0
  184.0990  178.9790  145.6910 N   0  0  0  0  0  0  0  0  0  0  0  0
  184.6240  178.3090  143.4600 C   0  0  0  0  0  3  0  0  0  0  0  0
  183.6900  178.6770  144.4300 C   0  0  0  0  0  0  0  0  0  0  0  0
  187.1320  178.8550  141.7600 O   0  0  0  0  0  0  0  0  0  0  0  0
  186.3470  178.8200  140.6040 C   0  0  0  0  0  0  0  0  0  0  0  0
  185.2710  179.4720  140.5360 O   0  0  0  0  0  0  0  0  0  0  0  0
  185.8120  178.2020  138.2860 C   0  0  0  0  0  1  0  0  0  0  0  0
  186.8000  178.0280  139.4230 C   0  0  1  0  0  3  0  0  0  0  0  0
  188.0660  178.4580  139.0120 O   0  0  0  0  0  0  0  0  0  0  0  0
  188.7760  177.2900  138.7160 C   0  0  2  0  0  3  0  0  0  0  0  0
  190.8420  176.6240  137.3590 C   0  0  0  0  0  2  0  0  0  0  0  0
  190.9930  177.4190  139.6700 O   0  0  0  0  0  0  0  0  0  0  0  0
  189.6910  176.9400  139.8970 C   0  0  0  0  0  2  0  0  0  0  0  0
  189.5810  177.4950  137.4220 C   0  0  1  0  0  3  0  0  0  0  0  0
  191.5630  176.5520  138.7170 C   0  0  2  0  0  3  0  0  0  0  0  0
  193.5590  176.7520  137.4190 O   0  0  0  0  0  0  0  0  0  0  0  0
  193.0120  176.8550  138.5480 C   0  0  0  0  0  0  0  0  0  0  0  0
  193.7680  177.2370  139.6480 O   0  0  0  0  0  1  0  0  0  0  0  0
  188.2140  178.2460  135.6500 O   0  0  0  0  0  0  0  0  0  0  0  0
  188.7220  177.2850  136.2070 C   0  0  0  0  0  0  0  0  0  0  0  0
  188.4780  175.9130  135.6540 C   0  0  0  0  0  2  0  0  0  0  0  0
  187.2510  175.4040  136.0840 O   0  0  0  0  0  1  0  0  0  0  0  0
  1 20  1  6  0  0  0
  1 14  1  0  0  0  0
  2  5  1  0  0  0  0
  3  7  1  0  0  0  0
  4  8  1  0  0  0  0
  4  9  1  0  0  0  0
  6  3  1  0  0  0  0
  7  5  2  0  0  0  0
  8 10  1  0  0  0  0
  9  1  1  6  0  0  0
  9  6  1  0  0  0  0
 10 11  1  0  0  0  0
 10  3  2  0  0  0  0
 11  2  2  0  0  0  0
 12 16  1  0  0  0  0
 13 12  2  0  0  0  0
 14 13  1  0  0  0  0
 15 19  1  0  0  0  0
 17 12  1  0  0  0  0
 18 14  2  0  0  0  0
 18 19  1  0  0  0  0
 19 17  2  0  0  0  0
 21 20  1  0  0  0  0
 22 21  2  0  0  0  0
 24 23  1  6  0  0  0
 24 21  1  0  0  0  0
 25 24  1  0  0  0  0
 26 25  1  1  0  0  0
 26 29  1  0  0  0  0
 27 30  1  0  0  0  0
 27 31  1  0  0  0  0
 28 29  1  0  0  0  0
 30 36  1  6  0  0  0
 30 26  1  0  0  0  0
 31 33  1  6  0  0  0
 31 28  1  0  0  0  0
 32 33  2  0  0  0  0
 33 34  1  0  0  0  0
 35 36  2  0  0  0  0
 37 38  1  0  0  0  0
 37 36  1  0  0  0  0
M  END
>  <MODEL>
5

>  <REMARK>
 VINA RESULT:      -8.1      3.918      8.483
  Name = 
  10 active torsions:
  status: ('A' for Active; 'I' for Inactive)
    1  A    between atoms: C_2  and  O_6
    2  A    between atoms: C_2  and  C_23
    3  A    between atoms: C_2  and  C_26
    4  A    between atoms: O_6  and  C_15
    5  A    between atoms: C_7  and  O_29
    6  A    between atoms: C_8  and  C_38
    7  A    between atoms: C_15  and  C_21
    8  A    between atoms: C_18  and  C_38
    9  A    between atoms: C_21  and  O_29
   10  A    between atoms: C_25  and  C_27
                            x       y       z     vdW  Elec       q    Type
                         _______ _______ _______ _____ _____    ______ ____

>  <TORSDO>
F 10

$$$$
=
 OpenBabel11062414363D

 38 41  0  0  1  0  0  0  0  0999 V2000
  187.6340  177.4780  142.7510 C   0  0  1  0  0  3  0  0  0  0  0  0
  192.8370  176.8520  138.8380 C   0  0  0  0  0  3  0  0  0  0  0  0
  190.3550  176.9360  140.0310 C   0  0  0  0  0  0  0  0  0  0  0  0
  190.0450  178.2170  142.5830 C   0  0  0  0  0  2  0  0  0  0  0  0
  191.6960  176.4740  138.1310 C   0  0  0  0  0  3  0  0  0  0  0  0
  188.9820  177.0450  140.6290 C   0  0  0  0  0  2  0  0  0  0  0  0
  190.4830  176.5280  138.7400 N   0  0  0  0  0  0  0  0  0  0  0  0
  191.4400  177.7490  142.1820 C   0  0  0  0  0  2  0  0  0  0  0  0
  189.0140  177.1790  142.1550 C   0  0  2  0  0  3  0  0  0  0  0  0
  191.5060  177.3430  140.7370 C   0  0  0  0  0  0  0  0  0  0  0  0
  192.7170  177.2730  140.1250 N   0  0  0  0  0  0  0  0  0  0  0  0
  186.4060  177.8190  146.3180 C   0  0  0  0  0  0  0  0  0  0  0  0
  186.4290  177.8200  144.9220 C   0  0  0  0  0  3  0  0  0  0  0  0
  187.6100  177.4790  144.2560 C   0  0  0  0  0  0  0  0  0  0  0  0
  190.0960  176.7330  147.3360 Cl  0  0  0  0  0  0  0  0  0  0  0  0
  184.9350  178.2450  147.1650 Cl  0  0  0  0  0  0  0  0  0  0  0  0
  187.5230  177.4880  147.0190 N   0  0  0  0  0  0  0  0  0  0  0  0
  188.7480  177.1420  144.9990 C   0  0  0  0  0  3  0  0  0  0  0  0
  188.6830  177.1510  146.3930 C   0  0  0  0  0  0  0  0  0  0  0  0
  187.1230  178.7020  142.2300 O   0  0  0  0  0  0  0  0  0  0  0  0
  186.0040  178.7500  141.3950 C   0  0  0  0  0  0  0  0  0  0  0  0
  186.1360  178.8610  140.1460 O   0  0  0  0  0  0  0  0  0  0  0  0
  184.5390  179.5060  143.2180 C   0  0  0  0  0  1  0  0  0  0  0  0
  184.6360  178.6370  141.9790 C   0  0  1  0  0  3  0  0  0  0  0  0
  183.6780  179.0460  141.0460 O   0  0  0  0  0  0  0  0  0  0  0  0
  182.6680  178.0810  141.1030 C   0  0  2  0  0  3  0  0  0  0  0  0
  180.2420  177.8320  140.3240 C   0  0  0  0  0  2  0  0  0  0  0  0
  182.1450  177.3140  138.8720 O   0  0  0  0  0  0  0  0  0  0  0  0
  182.9110  177.0270  140.0150 C   0  0  0  0  0  2  0  0  0  0  0  0
  181.3000  178.7620  140.9310 C   0  0  1  0  0  3  0  0  0  0  0  0
  180.8210  176.9590  139.1960 C   0  0  2  0  0  3  0  0  0  0  0  0
  179.1400  177.9900  137.8460 O   0  0  0  0  0  1  0  0  0  0  0  0
  179.9550  177.0410  137.9850 C   0  0  0  0  0  0  0  0  0  0  0  0
  180.0370  176.0540  137.0130 O   0  0  0  0  0  0  0  0  0  0  0  0
  180.3190  180.4650  142.2400 O   0  0  0  0  0  0  0  0  0  0  0  0
  180.8170  179.3500  142.2270 C   0  0  0  0  0  0  0  0  0  0  0  0
  180.9280  178.5910  143.5160 C   0  0  0  0  0  2  0  0  0  0  0  0
  179.7580  177.8780  143.7870 O   0  0  0  0  0  1  0  0  0  0  0  0
  1 20  1  1  0  0  0
  1 14  1  0  0  0  0
  2 11  1  0  0  0  0
  3  6  1  0  0  0  0
  3 10  1  0  0  0  0
  5  7  1  0  0  0  0
  5  2  2  0  0  0  0
  6  9  1  0  0  0  0
  7  3  2  0  0  0  0
  8  4  1  0  0  0  0
  9  4  1  0  0  0  0
  9  1  1  6  0  0  0
 10  8  1  0  0  0  0
 11 10  2  0  0  0  0
 12 17  1  0  0  0  0
 12 16  1  0  0  0  0
 13 12  2  0  0  0  0
 14 13  1  0  0  0  0
 14 18  2  0  0  0  0
 18 19  1  0  0  0  0
 19 17  2  0  0  0  0
 19 15  1  0  0  0  0
 21 24  1  0  0  0  0
 21 20  1  0  0  0  0
 22 21  2  0  0  0  0
 24 23  1  1  0  0  0
 25 24  1  0  0  0  0
 26 25  1  6  0  0  0
 27 30  1  0  0  0  0
 28 31  1  0  0  0  0
 28 29  1  0  0  0  0
 29 26  1  0  0  0  0
 30 26  1  0  0  0  0
 30 36  1  1  0  0  0
 31 33  1  6  0  0  0
 31 27  1  0  0  0  0
 32 33  1  0  0  0  0
 34 33  2  0  0  0  0
 36 35  2  0  0  0  0
 36 37  1  0  0  0  0
 37 38  1  0  0  0  0
M  END
>  <MODEL>
6

>  <REMARK>
 VINA RESULT:      -7.9      4.552      7.495
  Name = 
  10 active torsions:
  status: ('A' for Active; 'I' for Inactive)
    1  A    between atoms: C_2  and  O_6
    2  A    between atoms: C_2  and  C_23
    3  A    between atoms: C_2  and  C_26
    4  A    between atoms: O_6  and  C_15
    5  A    between atoms: C_7  and  O_29
    6  A    between atoms: C_8  and  C_38
    7  A    between atoms: C_15  and  C_21
    8  A    between atoms: C_18  and  C_38
    9  A    between atoms: C_21  and  O_29
   10  A    between atoms: C_25  and  C_27
                            x       y       z     vdW  Elec       q    Type
                         _______ _______ _______ _____ _____    ______ ____

>  <TORSDO>
F 10

$$$$
=
 OpenBabel11062414363D

 38 41  0  0  1  0  0  0  0  0999 V2000
  185.3450  178.0950  142.6520 C   0  0  1  0  0  3  0  0  0  0  0  0
  188.2370  177.8770  148.5140 C   0  0  0  0  0  3  0  0  0  0  0  0
  187.4710  177.6670  145.8760 C   0  0  0  0  0  0  0  0  0  0  0  0
  185.2840  179.2520  144.8990 C   0  0  0  0  0  2  0  0  0  0  0  0
  189.0240  177.1780  147.5990 C   0  0  0  0  0  3  0  0  0  0  0  0
  187.1180  177.6010  144.4170 C   0  0  0  0  0  2  0  0  0  0  0  0
  188.6270  177.0920  146.3030 N   0  0  0  0  0  0  0  0  0  0  0  0
  185.3730  179.0040  146.4000 C   0  0  0  0  0  2  0  0  0  0  0  0
  185.6580  177.9780  144.1480 C   0  0  2  0  0  3  0  0  0  0  0  0
  186.6880  178.3960  146.7960 C   0  0  0  0  0  0  0  0  0  0  0  0
  187.0870  178.4660  148.0930 N   0  0  0  0  0  0  0  0  0  0  0  0
  182.1730  178.9300  140.7580 C   0  0  0  0  0  0  0  0  0  0  0  0
  183.5070  178.6230  141.0320 C   0  0  0  0  0  3  0  0  0  0  0  0
  183.9070  178.4280  142.3570 C   0  0  0  0  0  0  0  0  0  0  0  0
  180.4500  178.9980  144.3440 Cl  0  0  0  0  0  0  0  0  0  0  0  0
  181.6570  179.1770  139.1030 Cl  0  0  0  0  0  0  0  0  0  0  0  0
  181.2740  179.0360  141.7730 N   0  0  0  0  0  0  0  0  0  0  0  0
  182.9640  178.5440  143.3860 C   0  0  0  0  0  3  0  0  0  0  0  0
  181.6400  178.8500  143.0690 C   0  0  0  0  0  0  0  0  0  0  0  0
  186.2240  179.0290  142.0320 O   0  0  0  0  0  0  0  0  0  0  0  0
  187.0100  178.6960  140.9260 C   0  0  0  0  0  0  0  0  0  0  0  0
  186.5030  178.6280  139.7730 O   0  0  0  0  0  0  0  0  0  0  0  0
  188.6900  177.0430  141.6240 C   0  0  0  0  0  1  0  0  0  0  0  0
  188.4710  178.4500  141.0990 C   0  0  1  0  0  3  0  0  0  0  0  0
  189.1340  178.6000  139.8780 O   0  0  0  0  0  0  0  0  0  0  0  0
  189.4830  177.3050  139.4830 C   0  0  2  0  0  3  0  0  0  0  0  0
  190.5760  176.1730  137.4640 C   0  0  0  0  0  2  0  0  0  0  0  0
  191.8860  177.1280  139.2980 O   0  0  0  0  0  0  0  0  0  0  0  0
  190.8000  176.9050  140.1610 C   0  0  0  0  0  2  0  0  0  0  0  0
  189.6020  177.2530  137.9500 C   0  0  1  0  0  3  0  0  0  0  0  0
  191.8380  176.0960  138.3420 C   0  0  2  0  0  3  0  0  0  0  0  0
  192.9720  176.3300  136.2510 O   0  0  0  0  0  0  0  0  0  0  0  0
  193.0610  176.1250  137.4910 C   0  0  0  0  0  0  0  0  0  0  0  0
  194.3060  175.9070  138.0660 O   0  0  0  0  0  1  0  0  0  0  0  0
  187.5550  176.1310  137.5950 O   0  0  0  0  0  0  0  0  0  0  0  0
  188.2550  177.0900  137.3050 C   0  0  0  0  0  0  0  0  0  0  0  0
  187.7410  178.0870  136.3110 C   0  0  0  0  0  2  0  0  0  0  0  0
  187.7330  179.3780  136.8430 O   0  0  0  0  0  1  0  0  0  0  0  0
  1 20  1  1  0  0  0
  3  7  2  0  0  0  0
  3 10  1  0  0  0  0
  4  8  1  0  0  0  0
  5  2  2  0  0  0  0
  6  3  1  0  0  0  0
  7  5  1  0  0  0  0
  8 10  1  0  0  0  0
  9  1  1  6  0  0  0
  9  6  1  0  0  0  0
  9  4  1  0  0  0  0
 10 11  2  0  0  0  0
 11  2  1  0  0  0  0
 12 13  2  0  0  0  0
 12 17  1  0  0  0  0
 13 14  1  0  0  0  0
 14  1  1  0  0  0  0
 14 18  2  0  0  0  0
 16 12  1  0  0  0  0
 17 19  2  0  0  0  0
 19 18  1  0  0  0  0
 19 15  1  0  0  0  0
 21 24  1  0  0  0  0
 21 20  1  0  0  0  0
 22 21  2  0  0  0  0
 24 23  1  6  0  0  0
 25 24  1  0  0  0  0
 26 25  1  6  0  0  0
 26 29  1  0  0  0  0
 27 30  1  0  0  0  0
 27 31  1  0  0  0  0
 28 29  1  0  0  0  0
 30 36  1  6  0  0  0
 30 26  1  0  0  0  0
 31 33  1  6  0  0  0
 31 28  1  0  0  0  0
 32 33  2  0  0  0  0
 33 34  1  0  0  0  0
 36 35  2  0  0  0  0
 37 38  1  0  0  0  0
 37 36  1  0  0  0  0
M  END
>  <MODEL>
7

>  <REMARK>
 VINA RESULT:      -7.6      3.966      8.941
  Name = 
  10 active torsions:
  status: ('A' for Active; 'I' for Inactive)
    1  A    between atoms: C_2  and  O_6
    2  A    between atoms: C_2  and  C_23
    3  A    between atoms: C_2  and  C_26
    4  A    between atoms: O_6  and  C_15
    5  A    between atoms: C_7  and  O_29
    6  A    between atoms: C_8  and  C_38
    7  A    between atoms: C_15  and  C_21
    8  A    between atoms: C_18  and  C_38
    9  A    between atoms: C_21  and  O_29
   10  A    between atoms: C_25  and  C_27
                            x       y       z     vdW  Elec       q    Type
                         _______ _______ _______ _____ _____    ______ ____

>  <TORSDO>
F 10

$$$$
=
 OpenBabel11062414363D

 38 41  0  0  1  0  0  0  0  0999 V2000
  190.1200  176.3440  138.8580 C   0  0  1  0  0  3  0  0  0  0  0  0
  184.3040  176.6400  135.8800 C   0  0  0  0  0  3  0  0  0  0  0  0
  186.7870  176.0020  136.8910 C   0  0  0  0  0  0  0  0  0  0  0  0
  187.9500  177.6380  138.9450 C   0  0  0  0  0  2  0  0  0  0  0  0
  184.9080  175.4230  135.5660 C   0  0  0  0  0  3  0  0  0  0  0  0
  188.1030  175.5940  137.4890 C   0  0  0  0  0  2  0  0  0  0  0  0
  186.1310  175.1300  136.0800 N   0  0  0  0  0  0  0  0  0  0  0  0
  186.8600  178.2510  138.0740 C   0  0  0  0  0  2  0  0  0  0  0  0
  188.8710  176.7790  138.0840 C   0  0  2  0  0  3  0  0  0  0  0  0
  186.1640  177.2220  137.2300 C   0  0  0  0  0  0  0  0  0  0  0  0
  184.9470  177.5120  136.7010 N   0  0  0  0  0  0  0  0  0  0  0  0
  193.3120  176.1710  136.8260 C   0  0  0  0  0  0  0  0  0  0  0  0
  192.2860  176.6590  137.6390 C   0  0  0  0  0  3  0  0  0  0  0  0
  191.2240  175.8180  137.9810 C   0  0  0  0  0  0  0  0  0  0  0  0
  192.2430  172.4090  136.0930 Cl  0  0  0  0  0  0  0  0  0  0  0  0
  194.6480  177.2130  136.3890 Cl  0  0  0  0  0  0  0  0  0  0  0  0
  193.2740  174.8880  136.3760 N   0  0  0  0  0  0  0  0  0  0  0  0
  191.2060  174.5010  137.5050 C   0  0  0  0  0  3  0  0  0  0  0  0
  192.2510  174.0510  136.6970 C   0  0  0  0  0  0  0  0  0  0  0  0
  190.5860  177.4050  139.6870 O   0  0  0  0  0  0  0  0  0  0  0  0
  190.8780  177.2230  141.0410 C   0  0  0  0  0  0  0  0  0  0  0  0
  192.0200  177.5040  141.4970 O   0  0  0  0  0  0  0  0  0  0  0  0
  190.3890  175.6080  142.8290 C   0  0  0  0  0  1  0  0  0  0  0  0
  189.8230  176.7220  141.9690 C   0  0  1  0  0  3  0  0  0  0  0  0
  189.3690  177.7590  142.7880 O   0  0  0  0  0  0  0  0  0  0  0  0
  188.7250  177.1320  143.8590 C   0  0  2  0  0  3  0  0  0  0  0  0
  187.9000  177.7580  146.2000 C   0  0  0  0  0  2  0  0  0  0  0  0
  186.5440  178.1180  144.1930 O   0  0  0  0  0  0  0  0  0  0  0  0
  187.2200  177.0540  143.5720 C   0  0  0  0  0  2  0  0  0  0  0  0
  189.0110  177.9110  145.1540 C   0  0  1  0  0  3  0  0  0  0  0  0
  186.4980  177.8000  145.5640 C   0  0  2  0  0  3  0  0  0  0  0  0
  186.0600  179.3710  147.3100 O   0  0  0  0  0  1  0  0  0  0  0  0
  185.6310  178.7710  146.2900 C   0  0  0  0  0  0  0  0  0  0  0  0
  184.3360  179.0010  145.8470 O   0  0  0  0  0  0  0  0  0  0  0  0
  191.3710  177.8770  145.1620 O   0  0  0  0  0  0  0  0  0  0  0  0
  190.3460  177.5360  145.7320 C   0  0  0  0  0  0  0  0  0  0  0  0
  190.4520  176.7520  147.0060 C   0  0  0  0  0  2  0  0  0  0  0  0
  191.6600  177.0050  147.6590 O   0  0  0  0  0  1  0  0  0  0  0  0
  1 20  1  6  0  0  0
  2 11  1  0  0  0  0
  3 10  1  0  0  0  0
  3  6  1  0  0  0  0
  5  2  2  0  0  0  0
  5  7  1  0  0  0  0
  6  9  1  0  0  0  0
  7  3  2  0  0  0  0
  8  4  1  0  0  0  0
  9  1  1  1  0  0  0
  9  4  1  0  0  0  0
 10  8  1  0  0  0  0
 11 10  2  0  0  0  0
 12 13  1  0  0  0  0
 13 14  2  0  0  0  0
 14  1  1  0  0  0  0
 15 19  1  0  0  0  0
 16 12  1  0  0  0  0
 17 19  1  0  0  0  0
 17 12  2  0  0  0  0
 18 14  1  0  0  0  0
 19 18  2  0  0  0  0
 20 21  1  0  0  0  0
 21 22  2  0  0  0  0
 21 24  1  0  0  0  0
 24 25  1  0  0  0  0
 24 23  1  1  0  0  0
 26 25  1  6  0  0  0
 26 30  1  0  0  0  0
 28 31  1  0  0  0  0
 29 26  1  0  0  0  0
 29 28  1  0  0  0  0
 30 36  1  1  0  0  0
 30 27  1  0  0  0  0
 31 27  1  0  0  0  0
 31 33  1  1  0  0  0
 33 32  1  0  0  0  0
 34 33  2  0  0  0  0
 35 36  2  0  0  0  0
 36 37  1  0  0  0  0
 37 38  1  0  0  0  0
M  END
>  <MODEL>
8

>  <REMARK>
 VINA RESULT:      -7.6      2.455      5.100
  Name = 
  10 active torsions:
  status: ('A' for Active; 'I' for Inactive)
    1  A    between atoms: C_2  and  O_6
    2  A    between atoms: C_2  and  C_23
    3  A    between atoms: C_2  and  C_26
    4  A    between atoms: O_6  and  C_15
    5  A    between atoms: C_7  and  O_29
    6  A    between atoms: C_8  and  C_38
    7  A    between atoms: C_15  and  C_21
    8  A    between atoms: C_18  and  C_38
    9  A    between atoms: C_21  and  O_29
   10  A    between atoms: C_25  and  C_27
                            x       y       z     vdW  Elec       q    Type
                         _______ _______ _______ _____ _____    ______ ____

>  <TORSDO>
F 10

$$$$
=
 OpenBabel11062414363D

 38 41  0  0  1  0  0  0  0  0999 V2000
  188.4110  177.9970  141.2700 C   0  0  1  0  0  3  0  0  0  0  0  0
  191.1160  176.7560  147.0940 C   0  0  0  0  0  3  0  0  0  0  0  0
  189.4870  177.2650  144.9310 C   0  0  0  0  0  0  0  0  0  0  0  0
  190.5760  177.1660  142.2750 C   0  0  0  0  0  2  0  0  0  0  0  0
  189.7330  176.8490  147.2510 C   0  0  0  0  0  3  0  0  0  0  0  0
  188.5680  177.4640  143.7590 C   0  0  0  0  0  2  0  0  0  0  0  0
  188.9510  177.0970  146.1690 N   0  0  0  0  0  0  0  0  0  0  0  0
  191.5410  177.3760  143.4370 C   0  0  0  0  0  2  0  0  0  0  0  0
  189.3040  177.9730  142.5150 C   0  0  2  0  0  3  0  0  0  0  0  0
  190.8830  177.1440  144.7670 C   0  0  0  0  0  0  0  0  0  0  0  0
  191.6590  176.9100  145.8570 N   0  0  0  0  0  0  0  0  0  0  0  0
  185.1900  178.6360  143.1580 C   0  0  0  0  0  0  0  0  0  0  0  0
  186.5250  178.3290  142.8860 C   0  0  0  0  0  3  0  0  0  0  0  0
  186.9710  178.3270  141.5620 C   0  0  0  0  0  0  0  0  0  0  0  0
  183.6150  179.3210  139.5690 Cl  0  0  0  0  0  0  0  0  0  0  0  0
  184.6160  178.6420  144.8120 Cl  0  0  0  0  0  0  0  0  0  0  0  0
  184.3370  178.9310  142.1410 N   0  0  0  0  0  0  0  0  0  0  0  0
  186.0740  178.6330  140.5310 C   0  0  0  0  0  3  0  0  0  0  0  0
  184.7480  178.9370  140.8450 C   0  0  0  0  0  0  0  0  0  0  0  0
  188.9490  178.8790  140.2890 O   0  0  0  0  0  0  0  0  0  0  0  0
  189.0560  178.5240  138.9420 C   0  0  0  0  0  0  0  0  0  0  0  0
  189.0050  179.4030  138.0390 O   0  0  0  0  0  0  0  0  0  0  0  0
  187.9950  176.5460  137.9420 C   0  0  0  0  0  1  0  0  0  0  0  0
  189.2630  177.0960  138.5640 C   0  0  1  0  0  3  0  0  0  0  0  0
  190.3160  176.9880  137.6500 O   0  0  0  0  0  0  0  0  0  0  0  0
  191.1000  175.9260  138.1110 C   0  0  2  0  0  3  0  0  0  0  0  0
  192.7470  174.2260  137.1350 C   0  0  0  0  0  2  0  0  0  0  0  0
  193.4410  176.4630  137.8470 O   0  0  0  0  0  0  0  0  0  0  0  0
  192.3740  176.4800  138.7620 C   0  0  0  0  0  2  0  0  0  0  0  0
  191.4300  174.9870  136.9390 C   0  0  1  0  0  3  0  0  0  0  0  0
  193.8430  175.1170  137.7470 C   0  0  2  0  0  3  0  0  0  0  0  0
  195.5230  176.0010  136.2950 O   0  0  0  0  0  0  0  0  0  0  0  0
  195.0970  175.0130  136.9480 C   0  0  0  0  0  0  0  0  0  0  0  0
  195.7910  173.8110  136.9100 O   0  0  0  0  0  1  0  0  0  0  0  0
  189.7810  173.4280  137.5900 O   0  0  0  0  0  0  0  0  0  0  0  0
  190.2970  174.0380  136.6660 C   0  0  0  0  0  0  0  0  0  0  0  0
  189.7770  173.8250  135.2760 C   0  0  0  0  0  2  0  0  0  0  0  0
  188.7980  174.7650  134.9510 O   0  0  0  0  0  1  0  0  0  0  0  0
  1 20  1  6  0  0  0
  1 14  1  0  0  0  0
  2  5  1  0  0  0  0
  3  7  1  0  0  0  0
  4  9  1  0  0  0  0
  4  8  1  0  0  0  0
  6  3  1  0  0  0  0
  7  5  2  0  0  0  0
  8 10  1  0  0  0  0
  9  1  1  6  0  0  0
  9  6  1  0  0  0  0
 10  3  2  0  0  0  0
 10 11  1  0  0  0  0
 11  2  2  0  0  0  0
 12 16  1  0  0  0  0
 13 12  1  0  0  0  0
 14 13  2  0  0  0  0
 15 19  1  0  0  0  0
 17 12  2  0  0  0  0
 18 19  2  0  0  0  0
 18 14  1  0  0  0  0
 19 17  1  0  0  0  0
 21 20  1  0  0  0  0
 22 21  2  0  0  0  0
 24 23  1  6  0  0  0
 24 21  1  0  0  0  0
 25 24  1  0  0  0  0
 26 25  1  6  0  0  0
 26 29  1  0  0  0  0
 27 31  1  0  0  0  0
 28 29  1  0  0  0  0
 30 36  1  1  0  0  0
 30 27  1  0  0  0  0
 30 26  1  0  0  0  0
 31 33  1  6  0  0  0
 31 28  1  0  0  0  0
 32 33  2  0  0  0  0
 34 33  1  0  0  0  0
 36 35  2  0  0  0  0
 37 36  1  0  0  0  0
 38 37  1  0  0  0  0
M  END
>  <MODEL>
9

>  <REMARK>
 VINA RESULT:      -7.6      3.787      8.662
  Name = 
  10 active torsions:
  status: ('A' for Active; 'I' for Inactive)
    1  A    between atoms: C_2  and  O_6
    2  A    between atoms: C_2  and  C_23
    3  A    between atoms: C_2  and  C_26
    4  A    between atoms: O_6  and  C_15
    5  A    between atoms: C_7  and  O_29
    6  A    between atoms: C_8  and  C_38
    7  A    between atoms: C_15  and  C_21
    8  A    between atoms: C_18  and  C_38
    9  A    between atoms: C_21  and  O_29
   10  A    between atoms: C_25  and  C_27
                            x       y       z     vdW  Elec       q    Type
                         _______ _______ _______ _____ _____    ______ ____

>  <TORSDO>
F 10

$$$$
