=
 OpenBabel11062413443D

 35 35  0  0  1  0  0  0  0  0999 V2000
  188.5940  178.7090  139.4070 N   0  0  0  0  0  2  0  0  0  0  0  0
  188.1860  177.8730  141.6590 C   0  0  0  0  0  0  0  0  0  0  0  0
  186.9630  178.6000  141.7630 N   0  0  0  0  0  1  0  0  0  0  0  0
  188.9090  177.8840  140.5380 C   0  0  0  0  0  3  0  0  0  0  0  0
  188.6550  177.0600  142.8180 C   0  0  0  0  0  2  0  0  0  0  0  0
  189.2220  177.9610  143.9090 C   0  0  1  0  0  3  0  0  0  0  0  0
  188.8140  177.4910  145.2310 N   0  0  0  0  0  2  0  0  0  0  0  0
  187.2860  177.2590  146.9620 O   0  0  0  0  0  0  0  0  0  0  0  0
  184.2690  179.4870  144.6690 C   0  0  0  0  0  1  0  0  0  0  0  0
  184.7970  178.3660  146.7250 N   0  0  0  0  0  2  0  0  0  0  0  0
  186.5170  178.4340  145.0860 N   0  0  0  0  0  2  0  0  0  0  0  0
  185.1960  178.7320  145.5510 C   0  0  0  0  0  0  0  0  0  0  0  0
  187.5230  177.7110  145.8110 C   0  0  0  0  0  0  0  0  0  0  0  0
  190.7410  178.0710  143.8100 C   0  0  0  0  0  2  0  0  0  0  0  0
  191.3930  176.9710  144.5730 C   0  0  0  0  0  0  0  0  0  0  0  0
  191.5760  175.8530  144.0200 O   0  0  0  0  0  0  0  0  0  0  0  0
  191.7650  177.1830  145.9010 O   0  0  0  0  0  0  0  0  0  0  0  0
  192.0040  176.1050  146.7920 C   0  0  0  0  0  1  0  0  0  0  0  0
  189.5530  177.9590  137.3710 C   0  0  0  0  0  2  0  0  0  0  0  0
  188.4520  178.2310  138.0640 C   0  0  0  0  0  0  0  0  0  0  0  0
  184.8780  178.0230  138.7570 C   0  0  0  0  0  3  0  0  0  0  0  0
  187.1190  178.1870  137.4280 C   0  0  0  0  0  3  0  0  0  0  0  0
  186.0000  178.1030  138.0980 C   0  0  0  0  0  0  0  0  0  0  0  0
  183.5790  178.3960  138.1090 C   0  0  2  0  0  3  0  0  0  0  0  0
  182.8560  179.8450  138.9680 S   0  0  0  0  0  1  0  0  0  0  0  0
  182.9730  175.8080  136.0850 C   0  0  2  0  0  3  0  0  0  0  0  0
  182.1090  176.9310  136.5870 C   0  0  2  0  0  3  0  0  0  0  0  0
  182.2750  174.1400  137.6260 O   0  0  0  0  0  1  0  0  0  0  0  0
  182.1290  178.0510  135.7480 O   0  0  0  0  0  1  0  0  0  0  0  0
  182.6090  177.1870  138.0120 C   0  0  1  0  0  0  0  0  0  0  0  0
  184.5070  174.4210  137.3320 O   0  0  0  0  0  1  0  0  0  0  0  0
  183.2770  175.0820  137.3860 C   0  0  0  0  0  0  0  0  0  0  0  0
  183.2900  176.0190  138.4410 O   0  0  0  0  0  0  0  0  0  0  0  0
  181.4010  177.3870  138.9190 C   0  0  0  0  0  1  0  0  0  0  0  0
  184.2450  176.3340  135.4150 C   0  0  0  0  0  1  0  0  0  0  0  0
  1  4  1  0  0  0  0
  2  3  1  0  0  0  0
  2  5  1  0  0  0  0
  4  2  2  0  0  0  0
  6  5  1  6  0  0  0
  6  7  1  0  0  0  0
  7 13  1  0  0  0  0
  9 12  1  0  0  0  0
 11 12  1  0  0  0  0
 11 13  1  0  0  0  0
 12 10  2  0  0  0  0
 13  8  2  0  0  0  0
 14  6  1  0  0  0  0
 14 15  1  0  0  0  0
 15 17  1  0  0  0  0
 16 15  2  0  0  0  0
 17 18  1  0  0  0  0
 19 20  2  0  0  0  0
 20  1  1  0  0  0  0
 22 20  1  0  0  0  0
 22 23  2  0  0  0  0
 23 21  2  0  0  0  0
 24 21  1  0  0  0  0
 24 25  1  1  0  0  0
 26 35  1  1  0  0  0
 26 27  1  0  0  0  0
 26 32  1  0  0  0  0
 27 29  1  6  0  0  0
 27 30  1  0  0  0  0
 30 24  1  0  0  0  0
 30 33  1  0  0  0  0
 30 34  1  1  0  0  0
 31 32  1  0  0  0  0
 32 28  1  0  0  0  0
 32 33  1  0  0  0  0
M  END
>  <MODEL>
1

>  <REMARK>
 VINA RESULT:      -7.2      0.000      0.000
  Name = 
  11 active torsions:
  status: ('A' for Active; 'I' for Inactive)
    1  A    between atoms: N_1  and  C_22
    2  A    between atoms: N_1  and  C_30
    3  A    between atoms: N_2  and  C_12
    4  A    between atoms: C_5  and  C_8
    5  A    between atoms: C_8  and  C_14
    6  A    between atoms: C_10  and  C_28
    7  A    between atoms: C_12  and  C_28
    8  A    between atoms: C_12  and  C_29
    9  A    between atoms: O_13  and  C_27
   10  A    between atoms: C_25  and  C_30
   11  A    between atoms: C_27  and  C_29
                            x       y       z     vdW  Elec       q    Type
                         _______ _______ _______ _____ _____    ______ ____

>  <TORSDO>
F 11

$$$$
=
 OpenBabel11062413443D

 35 35  0  0  1  0  0  0  0  0999 V2000
  189.3880  177.0800  140.7580 N   0  0  0  0  0  2  0  0  0  0  0  0
  188.5760  177.3410  143.0400 C   0  0  0  0  0  0  0  0  0  0  0  0
  188.6110  175.9340  143.2680 N   0  0  0  0  0  1  0  0  0  0  0  0
  188.9930  177.8690  141.8890 C   0  0  0  0  0  3  0  0  0  0  0  0
  188.0870  178.2460  144.1200 C   0  0  0  0  0  2  0  0  0  0  0  0
  187.5480  177.4350  145.2940 C   0  0  1  0  0  3  0  0  0  0  0  0
  188.0040  177.9980  146.5630 N   0  0  0  0  0  2  0  0  0  0  0  0
  189.5470  178.2490  148.2780 O   0  0  0  0  0  0  0  0  0  0  0  0
  192.3040  175.4720  146.2760 C   0  0  0  0  0  1  0  0  0  0  0  0
  191.9000  176.8590  148.1930 N   0  0  0  0  0  2  0  0  0  0  0  0
  190.1840  176.8020  146.5500 N   0  0  0  0  0  2  0  0  0  0  0  0
  191.4650  176.4140  147.0600 C   0  0  0  0  0  0  0  0  0  0  0  0
  189.2630  177.7030  147.1790 C   0  0  0  0  0  0  0  0  0  0  0  0
  186.0250  177.3360  145.2520 C   0  0  0  0  0  2  0  0  0  0  0  0
  185.4090  178.6120  145.7090 C   0  0  0  0  0  0  0  0  0  0  0  0
  185.1340  178.7690  146.9290 O   0  0  0  0  0  0  0  0  0  0  0  0
  185.1160  179.6060  144.7740 O   0  0  0  0  0  0  0  0  0  0  0  0
  184.5640  179.2980  143.5030 C   0  0  0  0  0  1  0  0  0  0  0  0
  191.7200  177.4420  140.9940 C   0  0  0  0  0  2  0  0  0  0  0  0
  190.7180  177.0180  140.2310 C   0  0  0  0  0  0  0  0  0  0  0  0
  193.3050  176.2510  137.7770 C   0  0  0  0  0  3  0  0  0  0  0  0
  190.9420  176.6300  138.8230 C   0  0  0  0  0  3  0  0  0  0  0  0
  192.1270  176.4440  138.3030 C   0  0  0  0  0  0  0  0  0  0  0  0
  193.4580  175.4740  136.5050 C   0  0  2  0  0  3  0  0  0  0  0  0
  191.9960  175.7510  135.4340 S   0  0  0  0  0  1  0  0  0  0  0  0
  196.0900  173.4580  136.9230 C   0  0  2  0  0  3  0  0  0  0  0  0
  194.9360  173.4380  135.9600 C   0  0  2  0  0  3  0  0  0  0  0  0
  195.2460  171.8760  138.4810 O   0  0  0  0  0  1  0  0  0  0  0  0
  195.2010  174.1410  134.7780 O   0  0  0  0  0  1  0  0  0  0  0  0
  193.7530  173.9720  136.7730 C   0  0  1  0  0  0  0  0  0  0  0  0
  196.0480  173.8310  139.3090 O   0  0  0  0  0  1  0  0  0  0  0  0
  195.3610  173.2460  138.2410 C   0  0  0  0  0  0  0  0  0  0  0  0
  194.0690  173.8070  138.1450 O   0  0  0  0  0  0  0  0  0  0  0  0
  192.5300  173.1160  136.4660 C   0  0  0  0  0  1  0  0  0  0  0  0
  196.8280  174.8000  136.8890 C   0  0  0  0  0  1  0  0  0  0  0  0
  1  4  1  0  0  0  0
  2  3  1  0  0  0  0
  2  5  1  0  0  0  0
  4  2  2  0  0  0  0
  6  5  1  6  0  0  0
  6  7  1  0  0  0  0
  7 13  1  0  0  0  0
  9 12  1  0  0  0  0
 11 12  1  0  0  0  0
 11 13  1  0  0  0  0
 12 10  2  0  0  0  0
 13  8  2  0  0  0  0
 14  6  1  0  0  0  0
 14 15  1  0  0  0  0
 15 16  2  0  0  0  0
 17 15  1  0  0  0  0
 18 17  1  0  0  0  0
 20  1  1  0  0  0  0
 20 19  2  0  0  0  0
 21 23  2  0  0  0  0
 22 20  1  0  0  0  0
 23 22  2  0  0  0  0
 24 25  1  6  0  0  0
 24 30  1  0  0  0  0
 24 21  1  0  0  0  0
 26 35  1  1  0  0  0
 26 32  1  0  0  0  0
 27 29  1  6  0  0  0
 27 30  1  0  0  0  0
 27 26  1  0  0  0  0
 30 34  1  6  0  0  0
 30 33  1  0  0  0  0
 32 28  1  0  0  0  0
 32 31  1  0  0  0  0
 33 32  1  0  0  0  0
M  END
>  <MODEL>
2

>  <REMARK>
 VINA RESULT:      -7.2      5.234      8.379
  Name = 
  11 active torsions:
  status: ('A' for Active; 'I' for Inactive)
    1  A    between atoms: N_1  and  C_22
    2  A    between atoms: N_1  and  C_30
    3  A    between atoms: N_2  and  C_12
    4  A    between atoms: C_5  and  C_8
    5  A    between atoms: C_8  and  C_14
    6  A    between atoms: C_10  and  C_28
    7  A    between atoms: C_12  and  C_28
    8  A    between atoms: C_12  and  C_29
    9  A    between atoms: O_13  and  C_27
   10  A    between atoms: C_25  and  C_30
   11  A    between atoms: C_27  and  C_29
                            x       y       z     vdW  Elec       q    Type
                         _______ _______ _______ _____ _____    ______ ____

>  <TORSDO>
F 11

$$$$
=
 OpenBabel11062413443D

 35 35  0  0  1  0  0  0  0  0999 V2000
  185.7220  178.9640  144.6070 N   0  0  0  0  0  2  0  0  0  0  0  0
  187.5730  177.3960  144.3720 C   0  0  0  0  0  0  0  0  0  0  0  0
  188.1370  177.7950  145.6200 N   0  0  0  0  0  1  0  0  0  0  0  0
  186.4190  177.9050  143.9360 C   0  0  0  0  0  3  0  0  0  0  0  0
  188.2720  176.3700  143.5470 C   0  0  0  0  0  2  0  0  0  0  0  0
  189.2170  177.0360  142.5520 C   0  0  1  0  0  3  0  0  0  0  0  0
  188.4660  177.7950  141.5560 N   0  0  0  0  0  2  0  0  0  0  0  0
  188.0680  178.5420  139.3950 O   0  0  0  0  0  0  0  0  0  0  0  0
  191.5410  176.2880  137.9180 C   0  0  0  0  0  1  0  0  0  0  0  0
  189.7430  177.7810  137.3720 N   0  0  0  0  0  2  0  0  0  0  0  0
  189.9160  177.1250  139.6490 N   0  0  0  0  0  2  0  0  0  0  0  0
  190.3540  177.1010  138.2860 C   0  0  0  0  0  0  0  0  0  0  0  0
  188.7890  177.8500  140.1610 C   0  0  0  0  0  0  0  0  0  0  0  0
  190.2410  177.9200  143.2610 C   0  0  0  0  0  2  0  0  0  0  0  0
  191.2350  177.0840  143.9870 C   0  0  0  0  0  0  0  0  0  0  0  0
  191.7070  176.0540  143.4330 O   0  0  0  0  0  0  0  0  0  0  0  0
  191.6090  177.4340  145.2850 O   0  0  0  0  0  0  0  0  0  0  0  0
  191.6990  176.4710  146.3240 C   0  0  0  0  0  1  0  0  0  0  0  0
  184.5790  178.1850  146.5340 C   0  0  0  0  0  2  0  0  0  0  0  0
  184.5130  178.7980  145.3570 C   0  0  0  0  0  0  0  0  0  0  0  0
  182.6090  178.8190  142.2460 C   0  0  0  0  0  3  0  0  0  0  0  0
  183.2130  179.1710  144.7620 C   0  0  0  0  0  3  0  0  0  0  0  0
  182.9160  178.9950  143.5020 C   0  0  0  0  0  0  0  0  0  0  0  0
  181.1790  178.8230  141.7990 C   0  0  2  0  0  3  0  0  0  0  0  0
  180.0880  178.4410  143.2220 S   0  0  0  0  0  1  0  0  0  0  0  0
  181.7350  178.8100  138.5040 C   0  0  2  0  0  3  0  0  0  0  0  0
  180.4870  178.6490  139.3260 C   0  0  2  0  0  3  0  0  0  0  0  0
  182.1590  176.5090  138.0930 O   0  0  0  0  0  1  0  0  0  0  0  0
  179.8410  179.8650  139.5810 O   0  0  0  0  0  1  0  0  0  0  0  0
  180.9490  177.8930  140.5760 C   0  0  1  0  0  0  0  0  0  0  0  0
  183.8920  177.7750  138.8310 O   0  0  0  0  0  1  0  0  0  0  0  0
  182.5120  177.5730  138.9260 C   0  0  0  0  0  0  0  0  0  0  0  0
  182.1710  177.2490  140.2560 O   0  0  0  0  0  0  0  0  0  0  0  0
  179.9200  176.8170  140.8990 C   0  0  0  0  0  1  0  0  0  0  0  0
  182.4800  180.1000  138.8610 C   0  0  0  0  0  1  0  0  0  0  0  0
  1 20  1  0  0  0  0
  2  3  1  0  0  0  0
  4  2  2  0  0  0  0
  4  1  1  0  0  0  0
  5  2  1  0  0  0  0
  6 14  1  1  0  0  0
  6  5  1  0  0  0  0
  7  6  1  0  0  0  0
  8 13  2  0  0  0  0
  9 12  1  0  0  0  0
 10 12  2  0  0  0  0
 11 13  1  0  0  0  0
 12 11  1  0  0  0  0
 13  7  1  0  0  0  0
 14 15  1  0  0  0  0
 15 17  1  0  0  0  0
 16 15  2  0  0  0  0
 17 18  1  0  0  0  0
 20 19  2  0  0  0  0
 21 23  2  0  0  0  0
 22 20  1  0  0  0  0
 23 22  2  0  0  0  0
 24 21  1  0  0  0  0
 24 25  1  1  0  0  0
 26 35  1  1  0  0  0
 26 32  1  0  0  0  0
 26 27  1  0  0  0  0
 27 29  1  1  0  0  0
 27 30  1  0  0  0  0
 28 32  1  0  0  0  0
 30 34  1  1  0  0  0
 30 24  1  0  0  0  0
 31 32  1  0  0  0  0
 32 33  1  0  0  0  0
 33 30  1  0  0  0  0
M  END
>  <MODEL>
3

>  <REMARK>
 VINA RESULT:      -7.2      2.292      5.405
  Name = 
  11 active torsions:
  status: ('A' for Active; 'I' for Inactive)
    1  A    between atoms: N_1  and  C_22
    2  A    between atoms: N_1  and  C_30
    3  A    between atoms: N_2  and  C_12
    4  A    between atoms: C_5  and  C_8
    5  A    between atoms: C_8  and  C_14
    6  A    between atoms: C_10  and  C_28
    7  A    between atoms: C_12  and  C_28
    8  A    between atoms: C_12  and  C_29
    9  A    between atoms: O_13  and  C_27
   10  A    between atoms: C_25  and  C_30
   11  A    between atoms: C_27  and  C_29
                            x       y       z     vdW  Elec       q    Type
                         _______ _______ _______ _____ _____    ______ ____

>  <TORSDO>
F 11

$$$$
=
 OpenBabel11062413443D

 35 35  0  0  1  0  0  0  0  0999 V2000
  188.6020  178.6990  139.4740 N   0  0  0  0  0  2  0  0  0  0  0  0
  188.2140  177.8350  141.7180 C   0  0  0  0  0  0  0  0  0  0  0  0
  186.9730  178.5290  141.8270 N   0  0  0  0  0  1  0  0  0  0  0  0
  188.9370  177.8740  140.5980 C   0  0  0  0  0  3  0  0  0  0  0  0
  188.7030  177.0250  142.8710 C   0  0  0  0  0  2  0  0  0  0  0  0
  189.2600  177.9320  143.9640 C   0  0  1  0  0  3  0  0  0  0  0  0
  188.8390  177.4670  145.2830 N   0  0  0  0  0  2  0  0  0  0  0  0
  187.2960  177.2450  147.0020 O   0  0  0  0  0  0  0  0  0  0  0  0
  184.3040  179.4720  144.6750 C   0  0  0  0  0  1  0  0  0  0  0  0
  184.8120  178.3580  146.7390 N   0  0  0  0  0  2  0  0  0  0  0  0
  186.5460  178.4150  145.1160 N   0  0  0  0  0  2  0  0  0  0  0  0
  185.2210  178.7180  145.5670 C   0  0  0  0  0  0  0  0  0  0  0  0
  187.5440  177.6920  145.8510 C   0  0  0  0  0  0  0  0  0  0  0  0
  190.7800  178.0410  143.8780 C   0  0  0  0  0  2  0  0  0  0  0  0
  191.4240  176.9390  144.6450 C   0  0  0  0  0  0  0  0  0  0  0  0
  191.6040  175.8200  144.0940 O   0  0  0  0  0  0  0  0  0  0  0  0
  191.7930  177.1520  145.9740 O   0  0  0  0  0  0  0  0  0  0  0  0
  191.9870  176.0750  146.8780 C   0  0  0  0  0  1  0  0  0  0  0  0
  189.1860  178.7920  137.1760 C   0  0  0  0  0  2  0  0  0  0  0  0
  188.4540  178.2250  138.1300 C   0  0  0  0  0  0  0  0  0  0  0  0
  184.8750  177.8240  137.5540 C   0  0  0  0  0  3  0  0  0  0  0  0
  187.4070  177.2350  137.8020 C   0  0  0  0  0  3  0  0  0  0  0  0
  186.1400  177.5340  137.6810 C   0  0  0  0  0  0  0  0  0  0  0  0
  183.9460  176.8970  136.8300 C   0  0  2  0  0  3  0  0  0  0  0  0
  184.5910  176.5720  135.1450 S   0  0  0  0  0  1  0  0  0  0  0  0
  181.2530  176.7890  138.8050 C   0  0  2  0  0  3  0  0  0  0  0  0
  181.4840  176.3820  137.3770 C   0  0  2  0  0  3  0  0  0  0  0  0
  180.2600  178.9070  138.3870 O   0  0  0  0  0  1  0  0  0  0  0  0
  181.8950  175.0490  137.2510 O   0  0  0  0  0  1  0  0  0  0  0  0
  182.4810  177.4150  136.8430 C   0  0  1  0  0  0  0  0  0  0  0  0
  181.9360  178.8230  139.9150 O   0  0  0  0  0  1  0  0  0  0  0  0
  181.4710  178.2920  138.7080 C   0  0  0  0  0  0  0  0  0  0  0  0
  182.4070  178.5530  137.6850 O   0  0  0  0  0  0  0  0  0  0  0  0
  182.0420  177.8330  135.4460 C   0  0  0  0  0  1  0  0  0  0  0  0
  182.2600  176.1270  139.7500 C   0  0  0  0  0  1  0  0  0  0  0  0
  1  4  1  0  0  0  0
  2  3  1  0  0  0  0
  2  5  1  0  0  0  0
  4  2  2  0  0  0  0
  6  5  1  6  0  0  0
  6  7  1  0  0  0  0
  7 13  1  0  0  0  0
  9 12  1  0  0  0  0
 11 12  1  0  0  0  0
 11 13  1  0  0  0  0
 12 10  2  0  0  0  0
 13  8  2  0  0  0  0
 14  6  1  0  0  0  0
 14 15  1  0  0  0  0
 15 17  1  0  0  0  0
 16 15  2  0  0  0  0
 17 18  1  0  0  0  0
 19 20  2  0  0  0  0
 20  1  1  0  0  0  0
 21 23  2  0  0  0  0
 22 20  1  0  0  0  0
 23 22  2  0  0  0  0
 24 25  1  6  0  0  0
 24 30  1  0  0  0  0
 24 21  1  0  0  0  0
 26 35  1  1  0  0  0
 27 29  1  1  0  0  0
 27 26  1  0  0  0  0
 28 32  1  0  0  0  0
 30 34  1  6  0  0  0
 30 27  1  0  0  0  0
 30 33  1  0  0  0  0
 32 26  1  0  0  0  0
 32 31  1  0  0  0  0
 33 32  1  0  0  0  0
M  END
>  <MODEL>
4

>  <REMARK>
 VINA RESULT:      -7.2      1.427      2.270
  Name = 
  11 active torsions:
  status: ('A' for Active; 'I' for Inactive)
    1  A    between atoms: N_1  and  C_22
    2  A    between atoms: N_1  and  C_30
    3  A    between atoms: N_2  and  C_12
    4  A    between atoms: C_5  and  C_8
    5  A    between atoms: C_8  and  C_14
    6  A    between atoms: C_10  and  C_28
    7  A    between atoms: C_12  and  C_28
    8  A    between atoms: C_12  and  C_29
    9  A    between atoms: O_13  and  C_27
   10  A    between atoms: C_25  and  C_30
   11  A    between atoms: C_27  and  C_29
                            x       y       z     vdW  Elec       q    Type
                         _______ _______ _______ _____ _____    ______ ____

>  <TORSDO>
F 11

$$$$
=
 OpenBabel11062413443D

 35 35  0  0  1  0  0  0  0  0999 V2000
  185.9710  177.6330  144.2740 N   0  0  0  0  0  2  0  0  0  0  0  0
  187.7140  178.0900  142.6330 C   0  0  0  0  0  0  0  0  0  0  0  0
  186.7640  178.5600  141.6790 N   0  0  0  0  0  1  0  0  0  0  0  0
  187.3420  177.7140  143.8580 C   0  0  0  0  0  3  0  0  0  0  0  0
  189.1580  178.0410  142.2650 C   0  0  0  0  0  2  0  0  0  0  0  0
  189.5320  176.6550  141.7520 C   0  0  1  0  0  3  0  0  0  0  0  0
  190.4210  176.7550  140.5970 N   0  0  0  0  0  2  0  0  0  0  0  0
  190.8610  177.1730  138.3560 O   0  0  0  0  0  0  0  0  0  0  0  0
  186.6220  178.0900  137.6400 C   0  0  0  0  0  1  0  0  0  0  0  0
  188.8120  177.8670  136.6840 N   0  0  0  0  0  2  0  0  0  0  0  0
  188.6260  177.4270  139.0120 N   0  0  0  0  0  2  0  0  0  0  0  0
  188.0750  177.7960  137.7430 C   0  0  0  0  0  0  0  0  0  0  0  0
  190.0030  177.1210  139.2770 C   0  0  0  0  0  0  0  0  0  0  0  0
  190.1570  175.8010  142.8530 C   0  0  0  0  0  2  0  0  0  0  0  0
  190.9800  176.6450  143.7610 C   0  0  0  0  0  0  0  0  0  0  0  0
  192.0160  177.2110  143.3170 O   0  0  0  0  0  0  0  0  0  0  0  0
  190.6110  176.7740  145.1010 O   0  0  0  0  0  0  0  0  0  0  0  0
  191.5650  176.6990  146.1500 C   0  0  0  0  0  1  0  0  0  0  0  0
  185.6540  178.8540  146.2830 C   0  0  0  0  0  2  0  0  0  0  0  0
  185.2850  178.6430  145.0240 C   0  0  0  0  0  0  0  0  0  0  0  0
  182.9010  178.5460  142.2660 C   0  0  0  0  0  3  0  0  0  0  0  0
  184.1050  179.3210  144.4490 C   0  0  0  0  0  3  0  0  0  0  0  0
  183.5070  178.9310  143.3550 C   0  0  0  0  0  0  0  0  0  0  0  0
  181.5030  178.9960  141.9670 C   0  0  2  0  0  3  0  0  0  0  0  0
  180.4790  178.8740  143.4830 S   0  0  0  0  0  1  0  0  0  0  0  0
  181.8140  178.9280  138.6410 C   0  0  2  0  0  3  0  0  0  0  0  0
  180.6380  179.1600  139.5480 C   0  0  2  0  0  3  0  0  0  0  0  0
  181.4130  176.6350  138.1640 O   0  0  0  0  0  1  0  0  0  0  0  0
  180.4560  180.5110  139.8680 O   0  0  0  0  0  1  0  0  0  0  0  0
  180.8980  178.2460  140.7490 C   0  0  1  0  0  0  0  0  0  0  0  0
  183.5140  177.2190  138.7940 O   0  0  0  0  0  1  0  0  0  0  0  0
  182.1550  177.4860  138.9850 C   0  0  0  0  0  0  0  0  0  0  0  0
  181.8090  177.2430  140.3320 O   0  0  0  0  0  0  0  0  0  0  0  0
  179.5900  177.5630  141.1290 C   0  0  0  0  0  1  0  0  0  0  0  0
  182.9690  179.8800  138.9620 C   0  0  0  0  0  1  0  0  0  0  0  0
  1 20  1  0  0  0  0
  2  4  2  0  0  0  0
  3  2  1  0  0  0  0
  4  1  1  0  0  0  0
  5  2  1  0  0  0  0
  6  5  1  1  0  0  0
  6 14  1  0  0  0  0
  7  6  1  0  0  0  0
  8 13  2  0  0  0  0
  9 12  1  0  0  0  0
 10 12  2  0  0  0  0
 11 13  1  0  0  0  0
 12 11  1  0  0  0  0
 13  7  1  0  0  0  0
 14 15  1  0  0  0  0
 15 17  1  0  0  0  0
 16 15  2  0  0  0  0
 17 18  1  0  0  0  0
 20 19  2  0  0  0  0
 21 23  2  0  0  0  0
 22 20  1  0  0  0  0
 23 22  2  0  0  0  0
 24 21  1  0  0  0  0
 24 25  1  1  0  0  0
 26 35  1  1  0  0  0
 26 32  1  0  0  0  0
 26 27  1  0  0  0  0
 27 29  1  1  0  0  0
 27 30  1  0  0  0  0
 28 32  1  0  0  0  0
 30 34  1  1  0  0  0
 30 24  1  0  0  0  0
 31 32  1  0  0  0  0
 32 33  1  0  0  0  0
 33 30  1  0  0  0  0
M  END
>  <MODEL>
5

>  <REMARK>
 VINA RESULT:      -7.1      2.329      5.256
  Name = 
  11 active torsions:
  status: ('A' for Active; 'I' for Inactive)
    1  A    between atoms: N_1  and  C_22
    2  A    between atoms: N_1  and  C_30
    3  A    between atoms: N_2  and  C_12
    4  A    between atoms: C_5  and  C_8
    5  A    between atoms: C_8  and  C_14
    6  A    between atoms: C_10  and  C_28
    7  A    between atoms: C_12  and  C_28
    8  A    between atoms: C_12  and  C_29
    9  A    between atoms: O_13  and  C_27
   10  A    between atoms: C_25  and  C_30
   11  A    between atoms: C_27  and  C_29
                            x       y       z     vdW  Elec       q    Type
                         _______ _______ _______ _____ _____    ______ ____

>  <TORSDO>
F 11

$$$$
=
 OpenBabel11062413443D

 35 35  0  0  1  0  0  0  0  0999 V2000
  184.8000  179.0600  143.2880 N   0  0  0  0  0  2  0  0  0  0  0  0
  184.4340  178.4510  140.9580 C   0  0  0  0  0  0  0  0  0  0  0  0
  185.4180  179.3780  140.5070 N   0  0  0  0  0  1  0  0  0  0  0  0
  184.1930  178.2680  142.2570 C   0  0  0  0  0  3  0  0  0  0  0  0
  183.6730  177.6460  139.9590 C   0  0  0  0  0  2  0  0  0  0  0  0
  183.6620  178.3470  138.6040 C   0  0  1  0  0  3  0  0  0  0  0  0
  184.1610  177.4570  137.5580 N   0  0  0  0  0  2  0  0  0  0  0  0
  185.8570  176.4640  136.3240 O   0  0  0  0  0  0  0  0  0  0  0  0
  188.8920  178.6290  138.6530 C   0  0  0  0  0  1  0  0  0  0  0  0
  188.4630  177.0990  136.8540 N   0  0  0  0  0  2  0  0  0  0  0  0
  186.5600  177.9480  137.9950 N   0  0  0  0  0  2  0  0  0  0  0  0
  187.9730  177.8480  137.7870 C   0  0  0  0  0  0  0  0  0  0  0  0
  185.5460  177.2570  137.2520 C   0  0  0  0  0  0  0  0  0  0  0  0
  182.2720  178.8750  138.2600 C   0  0  0  0  0  2  0  0  0  0  0  0
  182.2110  180.3490  138.4590 C   0  0  0  0  0  0  0  0  0  0  0  0
  183.2670  180.9860  138.7190 O   0  0  0  0  0  0  0  0  0  0  0  0
  180.9800  181.0010  138.3850 O   0  0  0  0  0  0  0  0  0  0  0  0
  180.1960  181.2520  139.5410 C   0  0  0  0  0  1  0  0  0  0  0  0
  183.4870  179.0030  145.2640 C   0  0  0  0  0  2  0  0  0  0  0  0
  184.6710  178.8070  144.6930 C   0  0  0  0  0  0  0  0  0  0  0  0
  187.8490  177.0190  144.6410 C   0  0  0  0  0  3  0  0  0  0  0  0
  185.8640  178.4820  145.5010 C   0  0  0  0  0  3  0  0  0  0  0  0
  186.8540  177.7470  145.0670 C   0  0  0  0  0  0  0  0  0  0  0  0
  189.1820  177.0680  145.3250 C   0  0  2  0  0  3  0  0  0  0  0  0
  189.0060  177.8780  146.9600 S   0  0  0  0  0  1  0  0  0  0  0  0
  191.6730  176.1200  143.3100 C   0  0  2  0  0  3  0  0  0  0  0  0
  191.6270  177.0050  144.5240 C   0  0  2  0  0  3  0  0  0  0  0  0
  191.6360  177.8280  141.6570 O   0  0  0  0  0  1  0  0  0  0  0  0
  191.8380  176.3030  145.7170 O   0  0  0  0  0  1  0  0  0  0  0  0
  190.2730  177.7140  144.4280 C   0  0  1  0  0  0  0  0  0  0  0  0
  190.1830  176.1020  141.4090 O   0  0  0  0  0  1  0  0  0  0  0  0
  190.8190  176.9260  142.3420 C   0  0  0  0  0  0  0  0  0  0  0  0
  189.8520  177.6460  143.0760 O   0  0  0  0  0  0  0  0  0  0  0  0
  190.4690  179.1820  144.7850 C   0  0  0  0  0  1  0  0  0  0  0  0
  191.0670  174.7430  143.5940 C   0  0  0  0  0  1  0  0  0  0  0  0
  1 20  1  0  0  0  0
  2  4  2  0  0  0  0
  3  2  1  0  0  0  0
  4  1  1  0  0  0  0
  5  2  1  0  0  0  0
  6 14  1  6  0  0  0
  6  5  1  0  0  0  0
  7  6  1  0  0  0  0
  8 13  2  0  0  0  0
 10 12  2  0  0  0  0
 12 11  1  0  0  0  0
 12  9  1  0  0  0  0
 13  7  1  0  0  0  0
 13 11  1  0  0  0  0
 14 15  1  0  0  0  0
 15 16  2  0  0  0  0
 17 15  1  0  0  0  0
 17 18  1  0  0  0  0
 20 19  2  0  0  0  0
 20 22  1  0  0  0  0
 21 23  2  0  0  0  0
 21 24  1  0  0  0  0
 23 22  2  0  0  0  0
 24 25  1  1  0  0  0
 26 35  1  1  0  0  0
 26 27  1  0  0  0  0
 27 29  1  1  0  0  0
 28 32  1  0  0  0  0
 30 27  1  0  0  0  0
 30 34  1  1  0  0  0
 30 24  1  0  0  0  0
 31 32  1  0  0  0  0
 32 33  1  0  0  0  0
 32 26  1  0  0  0  0
 33 30  1  0  0  0  0
M  END
>  <MODEL>
6

>  <REMARK>
 VINA RESULT:      -7.0      2.985      9.475
  Name = 
  11 active torsions:
  status: ('A' for Active; 'I' for Inactive)
    1  A    between atoms: N_1  and  C_22
    2  A    between atoms: N_1  and  C_30
    3  A    between atoms: N_2  and  C_12
    4  A    between atoms: C_5  and  C_8
    5  A    between atoms: C_8  and  C_14
    6  A    between atoms: C_10  and  C_28
    7  A    between atoms: C_12  and  C_28
    8  A    between atoms: C_12  and  C_29
    9  A    between atoms: O_13  and  C_27
   10  A    between atoms: C_25  and  C_30
   11  A    between atoms: C_27  and  C_29
                            x       y       z     vdW  Elec       q    Type
                         _______ _______ _______ _____ _____    ______ ____

>  <TORSDO>
F 11

$$$$
=
 OpenBabel11062413443D

 35 35  0  0  1  0  0  0  0  0999 V2000
  185.3860  179.0340  143.5800 N   0  0  0  0  0  2  0  0  0  0  0  0
  187.2200  177.4490  143.8230 C   0  0  0  0  0  0  0  0  0  0  0  0
  187.4880  177.8840  145.1550 N   0  0  0  0  0  1  0  0  0  0  0  0
  186.2040  177.9500  143.1190 C   0  0  0  0  0  3  0  0  0  0  0  0
  188.0760  176.3920  143.2120 C   0  0  0  0  0  2  0  0  0  0  0  0
  189.3930  176.9860  142.7230 C   0  0  1  0  0  3  0  0  0  0  0  0
  190.5010  176.0720  142.9860 N   0  0  0  0  0  2  0  0  0  0  0  0
  192.0930  175.0960  144.3640 O   0  0  0  0  0  0  0  0  0  0  0  0
  190.6850  177.4860  147.7740 C   0  0  0  0  0  1  0  0  0  0  0  0
  192.2650  175.8610  146.9830 N   0  0  0  0  0  2  0  0  0  0  0  0
  190.7050  176.6810  145.3890 N   0  0  0  0  0  2  0  0  0  0  0  0
  191.2630  176.6290  146.7070 C   0  0  0  0  0  0  0  0  0  0  0  0
  191.1430  175.9150  144.2570 C   0  0  0  0  0  0  0  0  0  0  0  0
  189.3230  177.3540  141.2430 C   0  0  0  0  0  2  0  0  0  0  0  0
  190.5970  176.9980  140.5590 C   0  0  0  0  0  0  0  0  0  0  0  0
  191.6590  177.6030  140.8660 O   0  0  0  0  0  0  0  0  0  0  0  0
  190.5910  176.0190  139.5640 O   0  0  0  0  0  0  0  0  0  0  0  0
  190.0110  176.2510  138.2900 C   0  0  0  0  0  1  0  0  0  0  0  0
  183.9690  178.8540  145.4740 C   0  0  0  0  0  2  0  0  0  0  0  0
  184.0800  178.8860  144.1500 C   0  0  0  0  0  0  0  0  0  0  0  0
  183.0710  178.3280  140.6900 C   0  0  0  0  0  3  0  0  0  0  0  0
  182.9150  178.6290  143.2790 C   0  0  0  0  0  3  0  0  0  0  0  0
  182.9980  178.4810  141.9830 C   0  0  0  0  0  0  0  0  0  0  0  0
  181.9580  177.6710  139.9320 C   0  0  2  0  0  3  0  0  0  0  0  0
  182.6540  176.6420  138.5840 S   0  0  0  0  0  1  0  0  0  0  0  0
  179.0070  178.9060  140.8990 C   0  0  2  0  0  3  0  0  0  0  0  0
  179.4600  178.2200  139.6400 C   0  0  2  0  0  3  0  0  0  0  0  0
  179.1400  181.1460  140.1190 O   0  0  0  0  0  1  0  0  0  0  0  0
  179.3060  176.8290  139.6930 O   0  0  0  0  0  1  0  0  0  0  0  0
  180.9010  178.6990  139.4420 C   0  0  1  0  0  0  0  0  0  0  0  0
  180.1040  180.6780  142.1190 O   0  0  0  0  0  1  0  0  0  0  0  0
  179.8390  180.1780  140.8410 C   0  0  0  0  0  0  0  0  0  0  0  0
  181.0560  179.9000  140.1810 O   0  0  0  0  0  0  0  0  0  0  0  0
  181.1040  179.0250  137.9680 C   0  0  0  0  0  1  0  0  0  0  0  0
  179.3280  178.0710  142.1410 C   0  0  0  0  0  1  0  0  0  0  0  0
  1 20  1  0  0  0  0
  2  3  1  0  0  0  0
  4  1  1  0  0  0  0
  4  2  2  0  0  0  0
  5  2  1  0  0  0  0
  6 14  1  6  0  0  0
  6  7  1  0  0  0  0
  6  5  1  0  0  0  0
  7 13  1  0  0  0  0
 11 12  1  0  0  0  0
 12 10  2  0  0  0  0
 12  9  1  0  0  0  0
 13  8  2  0  0  0  0
 13 11  1  0  0  0  0
 15 16  2  0  0  0  0
 15 14  1  0  0  0  0
 17 15  1  0  0  0  0
 18 17  1  0  0  0  0
 20 19  2  0  0  0  0
 21 23  2  0  0  0  0
 22 20  1  0  0  0  0
 23 22  2  0  0  0  0
 24 25  1  6  0  0  0
 24 21  1  0  0  0  0
 26 35  1  1  0  0  0
 27 29  1  1  0  0  0
 27 26  1  0  0  0  0
 28 32  1  0  0  0  0
 30 34  1  6  0  0  0
 30 27  1  0  0  0  0
 30 24  1  0  0  0  0
 30 33  1  0  0  0  0
 32 26  1  0  0  0  0
 32 31  1  0  0  0  0
 33 32  1  0  0  0  0
M  END
>  <MODEL>
7

>  <REMARK>
 VINA RESULT:      -6.8      3.097      5.641
  Name = 
  11 active torsions:
  status: ('A' for Active; 'I' for Inactive)
    1  A    between atoms: N_1  and  C_22
    2  A    between atoms: N_1  and  C_30
    3  A    between atoms: N_2  and  C_12
    4  A    between atoms: C_5  and  C_8
    5  A    between atoms: C_8  and  C_14
    6  A    between atoms: C_10  and  C_28
    7  A    between atoms: C_12  and  C_28
    8  A    between atoms: C_12  and  C_29
    9  A    between atoms: O_13  and  C_27
   10  A    between atoms: C_25  and  C_30
   11  A    between atoms: C_27  and  C_29
                            x       y       z     vdW  Elec       q    Type
                         _______ _______ _______ _____ _____    ______ ____

>  <TORSDO>
F 11

$$$$
=
 OpenBabel11062413443D

 35 35  0  0  1  0  0  0  0  0999 V2000
  190.6490  176.3150  140.1050 N   0  0  0  0  0  2  0  0  0  0  0  0
  190.3150  176.8080  142.4680 C   0  0  0  0  0  0  0  0  0  0  0  0
  190.3070  175.4230  142.8090 N   0  0  0  0  0  1  0  0  0  0  0  0
  190.5320  177.2150  141.2160 C   0  0  0  0  0  3  0  0  0  0  0  0
  190.1030  177.8260  143.5360 C   0  0  0  0  0  2  0  0  0  0  0  0
  188.6140  178.0120  143.8100 C   0  0  1  0  0  3  0  0  0  0  0  0
  187.8560  178.0160  142.5620 N   0  0  0  0  0  2  0  0  0  0  0  0
  185.8990  178.2250  141.3320 O   0  0  0  0  0  0  0  0  0  0  0  0
  183.6110  179.0010  145.0040 C   0  0  0  0  0  1  0  0  0  0  0  0
  183.5400  178.7240  142.6210 N   0  0  0  0  0  2  0  0  0  0  0  0
  185.6720  178.5050  143.6470 N   0  0  0  0  0  2  0  0  0  0  0  0
  184.2610  178.7420  143.6940 C   0  0  0  0  0  0  0  0  0  0  0  0
  186.4460  178.2480  142.4660 C   0  0  0  0  0  0  0  0  0  0  0  0
  188.0860  176.9500  144.7710 C   0  0  0  0  0  2  0  0  0  0  0  0
  188.0380  177.4840  146.1600 C   0  0  0  0  0  0  0  0  0  0  0  0
  186.9270  177.6010  146.7440 O   0  0  0  0  0  0  0  0  0  0  0  0
  189.2220  177.8750  146.7870 O   0  0  0  0  0  0  0  0  0  0  0  0
  190.1490  176.9280  147.2930 C   0  0  0  0  0  1  0  0  0  0  0  0
  190.2360  176.9010  137.8430 C   0  0  0  0  0  2  0  0  0  0  0  0
  191.1270  176.6810  138.8050 C   0  0  0  0  0  0  0  0  0  0  0  0
  193.6880  175.1220  136.7290 C   0  0  0  0  0  3  0  0  0  0  0  0
  192.5750  176.6680  138.5150 C   0  0  0  0  0  3  0  0  0  0  0  0
  193.1280  175.8900  137.6220 C   0  0  0  0  0  0  0  0  0  0  0  0
  195.0510  175.4360  136.1940 C   0  0  2  0  0  3  0  0  0  0  0  0
  194.8950  176.3600  134.6180 S   0  0  0  0  0  1  0  0  0  0  0  0
  197.0750  173.5990  138.1150 C   0  0  2  0  0  3  0  0  0  0  0  0
  197.2820  174.3070  136.8060 C   0  0  2  0  0  3  0  0  0  0  0  0
  196.7090  171.4140  137.2550 O   0  0  0  0  0  1  0  0  0  0  0  0
  197.7290  175.6240  136.9630 O   0  0  0  0  0  1  0  0  0  0  0  0
  195.9390  174.1670  136.0810 C   0  0  1  0  0  0  0  0  0  0  0  0
  195.2280  172.1950  138.7870 O   0  0  0  0  0  1  0  0  0  0  0  0
  196.0450  172.5540  137.7120 C   0  0  0  0  0  0  0  0  0  0  0  0
  195.2510  173.0740  136.6680 O   0  0  0  0  0  0  0  0  0  0  0  0
  196.2110  173.8230  134.6220 C   0  0  0  0  0  1  0  0  0  0  0  0
  196.5340  174.5480  139.1880 C   0  0  0  0  0  1  0  0  0  0  0  0
  1  4  1  0  0  0  0
  2  3  1  0  0  0  0
  2  5  1  0  0  0  0
  4  2  2  0  0  0  0
  6  5  1  6  0  0  0
  6 14  1  0  0  0  0
  7  6  1  0  0  0  0
  8 13  2  0  0  0  0
 10 12  2  0  0  0  0
 11 12  1  0  0  0  0
 12  9  1  0  0  0  0
 13  7  1  0  0  0  0
 13 11  1  0  0  0  0
 14 15  1  0  0  0  0
 15 16  2  0  0  0  0
 15 17  1  0  0  0  0
 17 18  1  0  0  0  0
 19 20  2  0  0  0  0
 20  1  1  0  0  0  0
 21 23  2  0  0  0  0
 22 20  1  0  0  0  0
 23 22  2  0  0  0  0
 24 25  1  6  0  0  0
 24 21  1  0  0  0  0
 26 35  1  1  0  0  0
 27 29  1  1  0  0  0
 27 26  1  0  0  0  0
 28 32  1  0  0  0  0
 30 34  1  6  0  0  0
 30 24  1  0  0  0  0
 30 33  1  0  0  0  0
 30 27  1  0  0  0  0
 32 26  1  0  0  0  0
 32 31  1  0  0  0  0
 33 32  1  0  0  0  0
M  END
>  <MODEL>
8

>  <REMARK>
 VINA RESULT:      -6.7      5.551      8.742
  Name = 
  11 active torsions:
  status: ('A' for Active; 'I' for Inactive)
    1  A    between atoms: N_1  and  C_22
    2  A    between atoms: N_1  and  C_30
    3  A    between atoms: N_2  and  C_12
    4  A    between atoms: C_5  and  C_8
    5  A    between atoms: C_8  and  C_14
    6  A    between atoms: C_10  and  C_28
    7  A    between atoms: C_12  and  C_28
    8  A    between atoms: C_12  and  C_29
    9  A    between atoms: O_13  and  C_27
   10  A    between atoms: C_25  and  C_30
   11  A    between atoms: C_27  and  C_29
                            x       y       z     vdW  Elec       q    Type
                         _______ _______ _______ _____ _____    ______ ____

>  <TORSDO>
F 11

$$$$
=
 OpenBabel11062413443D

 35 35  0  0  1  0  0  0  0  0999 V2000
  186.5350  177.3620  143.4440 N   0  0  0  0  0  2  0  0  0  0  0  0
  188.6650  177.1920  142.2730 C   0  0  0  0  0  0  0  0  0  0  0  0
  188.8380  175.8350  142.6770 N   0  0  0  0  0  1  0  0  0  0  0  0
  187.5640  177.8760  142.5870 C   0  0  0  0  0  3  0  0  0  0  0  0
  189.7250  177.8540  141.4600 C   0  0  0  0  0  2  0  0  0  0  0  0
  189.7000  177.3370  140.0250 C   0  0  1  0  0  3  0  0  0  0  0  0
  189.2270  178.3730  139.1110 N   0  0  0  0  0  2  0  0  0  0  0  0
  187.8860  179.1520  137.3840 O   0  0  0  0  0  0  0  0  0  0  0  0
  185.9980  175.2010  136.9980 C   0  0  0  0  0  1  0  0  0  0  0  0
  186.1300  177.4470  136.1640 N   0  0  0  0  0  2  0  0  0  0  0  0
  187.5760  176.9040  137.9690 N   0  0  0  0  0  2  0  0  0  0  0  0
  186.5600  176.5760  137.0160 C   0  0  0  0  0  0  0  0  0  0  0  0
  188.2120  178.1820  138.1190 C   0  0  0  0  0  0  0  0  0  0  0  0
  191.0680  176.8100  139.5980 C   0  0  0  0  0  2  0  0  0  0  0  0
  190.9580  176.0600  138.3160 C   0  0  0  0  0  0  0  0  0  0  0  0
  190.6460  174.8390  138.3340 O   0  0  0  0  0  0  0  0  0  0  0  0
  191.2330  176.7130  137.1140 O   0  0  0  0  0  0  0  0  0  0  0  0
  190.6250  176.3190  135.8930 C   0  0  0  0  0  1  0  0  0  0  0  0
  186.2240  178.0200  145.7020 C   0  0  0  0  0  2  0  0  0  0  0  0
  185.8400  178.1290  144.4340 C   0  0  0  0  0  0  0  0  0  0  0  0
  183.2060  178.4370  141.9300 C   0  0  0  0  0  3  0  0  0  0  0  0
  184.6360  178.9010  144.0650 C   0  0  0  0  0  3  0  0  0  0  0  0
  183.9250  178.6660  142.9940 C   0  0  0  0  0  0  0  0  0  0  0  0
  181.8040  178.9530  141.8250 C   0  0  2  0  0  3  0  0  0  0  0  0
  180.9640  178.7870  143.4470 S   0  0  0  0  0  1  0  0  0  0  0  0
  181.5130  179.2470  138.5100 C   0  0  2  0  0  3  0  0  0  0  0  0
  180.5110  179.3060  139.6280 C   0  0  2  0  0  3  0  0  0  0  0  0
  181.1440  176.9930  137.8540 O   0  0  0  0  0  1  0  0  0  0  0  0
  180.3250  180.6020  140.1250 O   0  0  0  0  0  1  0  0  0  0  0  0
  181.0260  178.2920  140.6550 C   0  0  1  0  0  0  0  0  0  0  0  0
  183.2930  177.6490  138.1720 O   0  0  0  0  0  1  0  0  0  0  0  0
  181.9790  177.8030  138.6250 C   0  0  0  0  0  0  0  0  0  0  0  0
  181.8940  177.4010  139.9750 O   0  0  0  0  0  0  0  0  0  0  0  0
  179.8410  177.4890  141.1770 C   0  0  0  0  0  1  0  0  0  0  0  0
  182.6620  180.2350  138.7310 C   0  0  0  0  0  1  0  0  0  0  0  0
  1 20  1  0  0  0  0
  2  4  2  0  0  0  0
  2  3  1  0  0  0  0
  4  1  1  0  0  0  0
  5  2  1  0  0  0  0
  6 14  1  6  0  0  0
  6  5  1  0  0  0  0
  7  6  1  0  0  0  0
  8 13  2  0  0  0  0
  9 12  1  0  0  0  0
 10 12  2  0  0  0  0
 11 13  1  0  0  0  0
 12 11  1  0  0  0  0
 13  7  1  0  0  0  0
 15 16  2  0  0  0  0
 15 14  1  0  0  0  0
 17 15  1  0  0  0  0
 18 17  1  0  0  0  0
 20 19  2  0  0  0  0
 21 23  2  0  0  0  0
 22 20  1  0  0  0  0
 23 22  2  0  0  0  0
 24 21  1  0  0  0  0
 24 25  1  1  0  0  0
 26 32  1  0  0  0  0
 26 35  1  1  0  0  0
 26 27  1  0  0  0  0
 27 29  1  1  0  0  0
 27 30  1  0  0  0  0
 28 32  1  0  0  0  0
 30 34  1  1  0  0  0
 30 24  1  0  0  0  0
 31 32  1  0  0  0  0
 32 33  1  0  0  0  0
 33 30  1  0  0  0  0
M  END
>  <MODEL>
9

>  <REMARK>
 VINA RESULT:      -6.7      3.284      6.069
  Name = 
  11 active torsions:
  status: ('A' for Active; 'I' for Inactive)
    1  A    between atoms: N_1  and  C_22
    2  A    between atoms: N_1  and  C_30
    3  A    between atoms: N_2  and  C_12
    4  A    between atoms: C_5  and  C_8
    5  A    between atoms: C_8  and  C_14
    6  A    between atoms: C_10  and  C_28
    7  A    between atoms: C_12  and  C_28
    8  A    between atoms: C_12  and  C_29
    9  A    between atoms: O_13  and  C_27
   10  A    between atoms: C_25  and  C_30
   11  A    between atoms: C_27  and  C_29
                            x       y       z     vdW  Elec       q    Type
                         _______ _______ _______ _____ _____    ______ ____

>  <TORSDO>
F 11

$$$$
