=
 OpenBabel11062417063D

 69 76  0  0  1  0  0  0  0  0999 V2000
  183.4300  176.2680  140.2910 O   0  0  0  0  0  0  0  0  0  0  0  0
  184.0020  176.7710  139.2880 C   0  0  0  0  0  0  0  0  0  0  0  0
  183.8310  176.1410  138.0130 N   0  0  0  0  0  2  0  0  0  0  0  0
  184.8570  177.9920  139.4660 C   0  0  0  0  0  0  0  0  0  0  0  0
  184.8700  178.9520  138.2890 C   0  0  0  0  0  2  0  0  0  0  0  0
  184.0940  179.3070  139.5430 C   0  0  0  0  0  2  0  0  0  0  0  0
  191.2960  176.9600  139.8450 O   0  0  0  0  0  1  0  0  0  0  0  0
  191.7910  177.6970  142.5980 C   0  0  0  0  0  2  0  0  0  0  0  0
  189.2810  178.2360  139.6480 C   0  0  0  0  0  2  0  0  0  0  0  0
  188.1490  176.6140  146.8730 O   0  0  0  0  0  0  0  0  0  0  0  0
  188.9010  177.0780  145.9720 C   0  0  0  0  0  0  0  0  0  0  0  0
  188.3500  177.7920  144.9020 O   0  0  0  0  0  0  0  0  0  0  0  0
  186.1530  177.8930  140.2840 C   0  0  2  0  0  3  0  0  0  0  0  0
  191.4890  177.8010  144.0560 C   0  0  0  0  0  3  0  0  0  0  0  0
  185.8830  177.7770  141.6570 O   0  0  0  0  0  0  0  0  0  0  0  0
  186.9720  179.0160  140.0520 O   0  0  0  0  0  0  0  0  0  0  0  0
  190.9410  176.7620  144.6820 C   0  0  0  0  0  3  0  0  0  0  0  0
  189.4320  177.2940  142.1880 O   0  0  0  0  0  0  0  0  0  0  0  0
  188.2760  178.0880  142.0210 C   0  0  1  0  0  3  0  0  0  0  0  0
  186.9750  177.6850  144.5460 C   0  0  2  0  0  3  0  0  0  0  0  0
  188.2470  178.8010  140.6290 C   0  0  1  0  0  3  0  0  0  0  0  0
  190.3970  176.9030  146.0620 C   0  0  2  0  0  3  0  0  0  0  0  0
  190.6710  178.1240  140.3030 C   0  0  1  0  0  3  0  0  0  0  0  0
  186.7880  176.7160  143.5220 O   0  0  0  0  0  0  0  0  0  0  0  0
  190.5320  178.0930  141.8330 C   0  0  2  0  0  3  0  0  0  0  0  0
  190.7570  175.6590  146.8570 C   0  0  0  0  0  1  0  0  0  0  0  0
  187.0340  177.1950  142.2020 C   0  0  1  0  0  3  0  0  0  0  0  0
  186.3340  179.0500  144.2760 C   0  0  0  0  0  2  0  0  0  0  0  0
  182.7120  178.8810  142.4170 C   0  0  0  0  0  2  0  0  0  0  0  0
  185.1090  179.2240  145.1100 C   0  0  0  0  0  0  0  0  0  0  0  0
  183.6610  178.1360  143.3520 C   0  0  0  0  0  2  0  0  0  0  0  0
  180.3500  179.9110  142.3270 C   0  0  0  0  0  1  0  0  0  0  0  0
  183.8120  178.8890  144.5930 N   0  0  0  0  0  0  0  0  0  0  0  0
  181.4990  179.4200  143.1370 C   0  0  0  0  0  0  0  0  0  0  0  0
  182.6070  179.1720  145.3680 C   0  0  0  0  0  2  0  0  0  0  0  0
  185.2230  179.7180  146.2650 O   0  0  0  0  0  0  0  0  0  0  0  0
  181.4840  179.6130  144.4680 C   0  0  0  0  0  3  0  0  0  0  0  0
  184.5070  176.5350  136.7810 C   0  0  1  0  0  3  0  0  0  0  0  0
  185.6220  175.5740  136.4690 C   0  0  0  0  0  0  0  0  0  0  0  0
  185.3730  174.4150  136.1800 O   0  0  0  0  0  0  0  0  0  0  0  0
  187.0460  176.0270  136.5020 C   0  0  2  0  0  3  0  0  0  0  0  0
  187.1190  177.4010  136.2570 O   0  0  0  0  0  1  0  0  0  0  0  0
  187.8700  175.2620  135.4780 C   0  0  0  0  0  2  0  0  0  0  0  0
  189.3320  175.2420  135.8830 C   0  0  0  0  0  2  0  0  0  0  0  0
  190.3610  173.9830  137.6170 O   0  0  0  0  0  0  0  0  0  0  0  0
  189.6380  173.9680  136.5850 C   0  0  0  0  0  0  0  0  0  0  0  0
  189.1370  172.7660  136.0800 O   0  0  0  0  0  0  0  0  0  0  0  0
  189.8850  171.9600  135.1840 C   0  0  0  0  0  1  0  0  0  0  0  0
  183.5320  176.6710  135.6090 C   0  0  0  0  0  2  0  0  0  0  0  0
  179.1280  181.6650  135.4560 C   0  0  0  0  0  3  0  0  0  0  0  0
  179.2730  180.6060  134.6430 C   0  0  0  0  0  3  0  0  0  0  0  0
  181.1470  176.7150  134.8430 C   0  0  0  0  0  2  0  0  0  0  0  0
  180.7690  178.2780  137.2670 C   0  0  1  0  0  0  0  0  0  0  0  0
  179.7530  178.6760  136.1790 C   0  0  2  0  0  0  0  0  0  0  0  0
  182.0990  176.9230  136.0500 C   0  0  2  0  0  3  0  0  0  0  0  0
  179.6040  176.6010  135.1370 C   0  0  2  0  0  3  0  0  0  0  0  0
  179.8350  181.9190  136.7720 C   0  0  0  0  0  2  0  0  0  0  0  0
  180.7030  180.7770  137.3000 C   0  0  0  0  0  2  0  0  0  0  0  0
  178.9330  177.5530  135.9840 O   0  0  0  0  0  0  0  0  0  0  0  0
  180.1940  179.4540  134.9130 C   0  0  0  0  0  2  0  0  0  0  0  0
  182.0180  178.2210  136.6270 O   0  0  0  0  0  0  0  0  0  0  0  0
  179.8830  179.4990  137.4670 C   0  0  2  0  0  3  0  0  0  0  0  0
  179.1430  176.7440  138.2560 F   0  0  0  0  0  0  0  0  0  0  0  0
  180.4570  177.1840  138.3180 C   0  0  2  0  0  3  0  0  0  0  0  0
  180.7460  177.7050  139.7140 C   0  0  0  0  0  1  0  0  0  0  0  0
  179.9820  174.1630  134.5950 C   0  0  0  0  0  1  0  0  0  0  0  0
  179.1360  175.1640  135.3630 C   0  0  1  0  0  3  0  0  0  0  0  0
  179.4690  173.6260  137.2500 C   0  0  0  0  0  2  0  0  0  0  0  0
  179.1370  174.8420  136.8220 C   0  0  0  0  0  3  0  0  0  0  0  0
  2  4  1  0  0  0  0
  2  1  2  0  0  0  0
  3  2  1  0  0  0  0
  4  6  1  0  0  0  0
  5  4  1  0  0  0  0
  5  6  1  0  0  0  0
  8 14  1  0  0  0  0
  9 23  1  0  0  0  0
 11 22  1  0  0  0  0
 11 10  2  0  0  0  0
 12 11  1  0  0  0  0
 13  4  1  6  0  0  0
 13 15  1  0  0  0  0
 14 17  2  0  0  0  0
 16 13  1  0  0  0  0
 16 21  1  0  0  0  0
 17 22  1  0  0  0  0
 19 18  1  6  0  0  0
 19 27  1  0  0  0  0
 20 28  1  6  0  0  0
 20 12  1  0  0  0  0
 21  9  1  6  0  0  0
 21 19  1  0  0  0  0
 22 26  1  1  0  0  0
 23  7  1  6  0  0  0
 23 25  1  0  0  0  0
 24 20  1  0  0  0  0
 25 18  1  0  0  0  0
 25  8  1  1  0  0  0
 27 15  1  1  0  0  0
 27 24  1  0  0  0  0
 28 30  1  0  0  0  0
 29 34  1  0  0  0  0
 29 31  1  0  0  0  0
 30 36  2  0  0  0  0
 31 33  1  0  0  0  0
 32 34  1  0  0  0  0
 33 30  1  0  0  0  0
 33 35  1  0  0  0  0
 34 37  2  0  0  0  0
 37 35  1  0  0  0  0
 38 49  1  6  0  0  0
 38  3  1  0  0  0  0
 39 41  1  0  0  0  0
 39 38  1  0  0  0  0
 40 39  2  0  0  0  0
 41 42  1  6  0  0  0
 43 44  1  0  0  0  0
 43 41  1  0  0  0  0
 44 46  1  0  0  0  0
 46 45  2  0  0  0  0
 47 46  1  0  0  0  0
 48 47  1  0  0  0  0
 50 57  1  0  0  0  0
 51 60  1  0  0  0  0
 51 50  2  0  0  0  0
 52 56  1  0  0  0  0
 52 55  1  0  0  0  0
 53 62  1  0  0  0  0
 53 64  1  1  0  0  0
 54 60  1  6  0  0  0
 54 53  1  0  0  0  0
 54 62  1  0  0  0  0
 55 49  1  6  0  0  0
 55 61  1  0  0  0  0
 56 67  1  1  0  0  0
 56 59  1  0  0  0  0
 57 58  1  0  0  0  0
 59 54  1  0  0  0  0
 61 53  1  0  0  0  0
 62 58  1  6  0  0  0
 63 64  1  0  0  0  0
 64 65  1  1  0  0  0
 67 66  1  6  0  0  0
 67 69  1  0  0  0  0
 69 68  2  0  0  0  0
M  END
>  <MODEL>
1

>  <REMARK>
 VINA RESULT:      -3.4      0.000      0.000
  Name = 
  16 active torsions:
  status: ('A' for Active; 'I' for Inactive)
    1  A    between atoms: C_4  and  C_67
    2  A    between atoms: C_10  and  C_45
    3  A    between atoms: C_10  and  C_59
    4  A    between atoms: C_18  and  C_19
    5  A    between atoms: C_19  and  C_37
    6  A    between atoms: C_21  and  C_52
    7  A    between atoms: C_21  and  C_59
    8  A    between atoms: C_22  and  C_45
    9  A    between atoms: C_22  and  C_49
   10  A    between atoms: C_22  and  N_60
   11  A    between atoms: C_23  and  C_29
   12  A    between atoms: C_25  and  C_49
   13  A    between atoms: C_27  and  C_36
   14  A    between atoms: C_36  and  C_57
   15  A    between atoms: C_47  and  C_67
   16  A    between atoms: O_50  and  C_52
                            x       y       z     vdW  Elec       q    Type
                         _______ _______ _______ _____ _____    ______ ____

>  <TORSDO>
F 16

$$$$
=
 OpenBabel11062417063D

 69 76  0  0  1  0  0  0  0  0999 V2000
  189.6050  177.5490  140.3550 O   0  0  0  0  0  0  0  0  0  0  0  0
  189.6980  177.0610  139.1970 C   0  0  0  0  0  0  0  0  0  0  0  0
  190.4960  175.8870  139.0090 N   0  0  0  0  0  2  0  0  0  0  0  0
  188.9920  177.7370  138.0570 C   0  0  0  0  0  0  0  0  0  0  0  0
  189.5710  179.0780  137.6400 C   0  0  0  0  0  2  0  0  0  0  0  0
  189.8050  177.8540  136.7760 C   0  0  0  0  0  2  0  0  0  0  0  0
  183.7900  175.8300  134.5970 O   0  0  0  0  0  1  0  0  0  0  0  0
  181.6970  176.1400  136.5700 C   0  0  0  0  0  2  0  0  0  0  0  0
  185.5580  175.6370  136.1990 C   0  0  0  0  0  2  0  0  0  0  0  0
  181.5700  180.3710  140.4170 O   0  0  0  0  0  0  0  0  0  0  0  0
  181.6300  179.2980  139.7550 C   0  0  0  0  0  0  0  0  0  0  0  0
  182.8070  178.5410  139.7570 O   0  0  0  0  0  0  0  0  0  0  0  0
  187.4740  177.5680  137.9020 C   0  0  2  0  0  3  0  0  0  0  0  0
  180.9880  176.7850  137.7140 C   0  0  0  0  0  3  0  0  0  0  0  0
  186.7750  178.3390  138.8450 O   0  0  0  0  0  0  0  0  0  0  0  0
  187.1100  176.2120  138.0320 O   0  0  0  0  0  0  0  0  0  0  0  0
  180.8980  178.1120  137.7590 C   0  0  0  0  0  3  0  0  0  0  0  0
  183.7070  177.3510  137.1970 O   0  0  0  0  0  0  0  0  0  0  0  0
  184.7620  177.1680  138.1170 C   0  0  1  0  0  3  0  0  0  0  0  0
  184.0660  179.0980  140.1240 C   0  0  2  0  0  3  0  0  0  0  0  0
  185.7530  176.0480  137.6620 C   0  0  1  0  0  3  0  0  0  0  0  0
  180.4260  178.8040  138.9920 C   0  0  2  0  0  3  0  0  0  0  0  0
  184.0720  175.3700  135.8860 C   0  0  1  0  0  3  0  0  0  0  0  0
  184.7820  179.5370  138.9760 O   0  0  0  0  0  0  0  0  0  0  0  0
  183.1810  176.0780  136.9180 C   0  0  2  0  0  3  0  0  0  0  0  0
  179.5230  179.9570  138.5860 C   0  0  0  0  0  1  0  0  0  0  0  0
  185.4990  178.5090  138.2960 C   0  0  1  0  0  3  0  0  0  0  0  0
  184.8520  178.1870  141.0730 C   0  0  0  0  0  2  0  0  0  0  0  0
  187.9180  177.5620  143.6840 C   0  0  0  0  0  2  0  0  0  0  0  0
  184.6700  178.6290  142.4880 C   0  0  0  0  0  0  0  0  0  0  0  0
  187.1620  178.6250  142.8920 C   0  0  0  0  0  2  0  0  0  0  0  0
  188.5120  176.8710  146.0960 C   0  0  0  0  0  1  0  0  0  0  0  0
  185.7900  178.7130  143.3820 N   0  0  0  0  0  0  0  0  0  0  0  0
  187.6390  177.6390  145.1660 C   0  0  0  0  0  0  0  0  0  0  0  0
  185.5910  179.0300  144.7940 C   0  0  0  0  0  2  0  0  0  0  0  0
  183.5070  178.8810  142.9020 O   0  0  0  0  0  0  0  0  0  0  0  0
  186.5460  178.2490  145.6570 C   0  0  0  0  0  3  0  0  0  0  0  0
  190.7900  175.2640  137.7220 C   0  0  1  0  0  3  0  0  0  0  0  0
  189.5120  174.8910  137.0220 C   0  0  0  0  0  0  0  0  0  0  0  0
  188.5220  174.5860  137.6680 O   0  0  0  0  0  0  0  0  0  0  0  0
  189.4340  174.8970  135.5290 C   0  0  2  0  0  3  0  0  0  0  0  0
  189.2450  176.2010  135.0620 O   0  0  0  0  0  1  0  0  0  0  0  0
  188.3070  173.9940  135.0520 C   0  0  0  0  0  2  0  0  0  0  0  0
  188.8320  172.6010  134.7620 C   0  0  0  0  0  2  0  0  0  0  0  0
  188.6660  170.4700  135.8030 O   0  0  0  0  0  0  0  0  0  0  0  0
  188.1740  171.6220  135.6680 C   0  0  0  0  0  0  0  0  0  0  0  0
  187.0070  171.9860  136.3440 O   0  0  0  0  0  0  0  0  0  0  0  0
  185.7200  171.6580  135.8460 C   0  0  0  0  0  1  0  0  0  0  0  0
  191.6800  176.1490  136.8450 C   0  0  0  0  0  2  0  0  0  0  0  0
  194.5070  170.3000  135.3760 C   0  0  0  0  0  3  0  0  0  0  0  0
  194.2300  171.3560  134.5940 C   0  0  0  0  0  3  0  0  0  0  0  0
  193.4310  175.5680  135.1500 C   0  0  0  0  0  2  0  0  0  0  0  0
  194.5180  173.9880  137.3370 C   0  0  1  0  0  0  0  0  0  0  0  0
  194.8560  173.3620  135.9710 C   0  0  2  0  0  0  0  0  0  0  0  0
  193.0820  175.5900  136.6620 C   0  0  2  0  0  3  0  0  0  0  0  0
  194.9360  175.3400  134.7480 C   0  0  2  0  0  3  0  0  0  0  0  0
  194.4110  170.2250  136.8860 C   0  0  0  0  0  2  0  0  0  0  0  0
  194.1030  171.5370  137.6070 C   0  0  0  0  0  2  0  0  0  0  0  0
  195.7100  174.2720  135.3280 O   0  0  0  0  0  0  0  0  0  0  0  0
  193.7650  172.6870  135.1030 C   0  0  0  0  0  2  0  0  0  0  0  0
  193.1520  174.3140  137.2850 O   0  0  0  0  0  0  0  0  0  0  0  0
  195.1450  172.6030  137.2730 C   0  0  2  0  0  3  0  0  0  0  0  0
  196.7990  174.6350  137.9300 F   0  0  0  0  0  0  0  0  0  0  0  0
  195.4640  174.9970  138.0340 C   0  0  2  0  0  3  0  0  0  0  0  0
  195.0930  175.1340  139.4990 C   0  0  0  0  0  1  0  0  0  0  0  0
  195.2030  177.7310  135.5170 C   0  0  0  0  0  1  0  0  0  0  0  0
  195.7260  176.6400  134.6000 C   0  0  1  0  0  3  0  0  0  0  0  0
  197.6800  175.1640  134.8000 C   0  0  0  0  0  2  0  0  0  0  0  0
  197.1790  176.3960  134.8500 C   0  0  0  0  0  3  0  0  0  0  0  0
  2  1  2  0  0  0  0
  3  2  1  0  0  0  0
  4  2  1  0  0  0  0
  5  4  1  0  0  0  0
  6  5  1  0  0  0  0
  6  4  1  0  0  0  0
  8 14  1  0  0  0  0
 11 12  1  0  0  0  0
 11 10  2  0  0  0  0
 12 20  1  0  0  0  0
 13 16  1  0  0  0  0
 13  4  1  1  0  0  0
 13 15  1  0  0  0  0
 14 17  2  0  0  0  0
 17 22  1  0  0  0  0
 19 18  1  6  0  0  0
 19 27  1  0  0  0  0
 20 28  1  6  0  0  0
 21  9  1  6  0  0  0
 21 16  1  0  0  0  0
 21 19  1  0  0  0  0
 22 26  1  6  0  0  0
 22 11  1  0  0  0  0
 23  7  1  6  0  0  0
 23  9  1  0  0  0  0
 23 25  1  0  0  0  0
 24 20  1  0  0  0  0
 25  8  1  6  0  0  0
 25 18  1  0  0  0  0
 27 15  1  1  0  0  0
 27 24  1  0  0  0  0
 28 30  1  0  0  0  0
 29 34  1  0  0  0  0
 30 36  2  0  0  0  0
 30 33  1  0  0  0  0
 31 33  1  0  0  0  0
 31 29  1  0  0  0  0
 33 35  1  0  0  0  0
 34 37  2  0  0  0  0
 34 32  1  0  0  0  0
 35 37  1  0  0  0  0
 38 49  1  6  0  0  0
 38  3  1  0  0  0  0
 39 40  2  0  0  0  0
 39 38  1  0  0  0  0
 41 42  1  1  0  0  0
 41 39  1  0  0  0  0
 43 41  1  0  0  0  0
 44 43  1  0  0  0  0
 44 46  1  0  0  0  0
 46 45  2  0  0  0  0
 46 47  1  0  0  0  0
 48 47  1  0  0  0  0
 50 57  1  0  0  0  0
 51 60  1  0  0  0  0
 51 50  2  0  0  0  0
 52 55  1  0  0  0  0
 53 64  1  1  0  0  0
 54 60  1  6  0  0  0
 54 62  1  0  0  0  0
 54 53  1  0  0  0  0
 55 49  1  6  0  0  0
 55 61  1  0  0  0  0
 56 67  1  1  0  0  0
 56 52  1  0  0  0  0
 56 59  1  0  0  0  0
 57 58  1  0  0  0  0
 59 54  1  0  0  0  0
 61 53  1  0  0  0  0
 62 53  1  0  0  0  0
 62 58  1  6  0  0  0
 63 64  1  0  0  0  0
 64 65  1  1  0  0  0
 67 69  1  0  0  0  0
 67 66  1  1  0  0  0
 68 69  2  0  0  0  0
M  END
>  <MODEL>
2

>  <REMARK>
 VINA RESULT:      -2.8      4.028     10.347
  Name = 
  16 active torsions:
  status: ('A' for Active; 'I' for Inactive)
    1  A    between atoms: C_4  and  C_67
    2  A    between atoms: C_10  and  C_45
    3  A    between atoms: C_10  and  C_59
    4  A    between atoms: C_18  and  C_19
    5  A    between atoms: C_19  and  C_37
    6  A    between atoms: C_21  and  C_52
    7  A    between atoms: C_21  and  C_59
    8  A    between atoms: C_22  and  C_45
    9  A    between atoms: C_22  and  C_49
   10  A    between atoms: C_22  and  N_60
   11  A    between atoms: C_23  and  C_29
   12  A    between atoms: C_25  and  C_49
   13  A    between atoms: C_27  and  C_36
   14  A    between atoms: C_36  and  C_57
   15  A    between atoms: C_47  and  C_67
   16  A    between atoms: O_50  and  C_52
                            x       y       z     vdW  Elec       q    Type
                         _______ _______ _______ _____ _____    ______ ____

>  <TORSDO>
F 16

$$$$
=
 OpenBabel11062417063D

 69 76  0  0  1  0  0  0  0  0999 V2000
  187.3070  174.9540  137.4460 O   0  0  0  0  0  0  0  0  0  0  0  0
  186.6460  176.0100  137.6330 C   0  0  0  0  0  0  0  0  0  0  0  0
  185.2250  175.9710  137.4550 N   0  0  0  0  0  2  0  0  0  0  0  0
  187.3680  177.2710  138.0110 C   0  0  0  0  0  0  0  0  0  0  0  0
  188.0920  177.9690  136.8730 C   0  0  0  0  0  2  0  0  0  0  0  0
  186.7960  178.5460  137.4090 C   0  0  0  0  0  2  0  0  0  0  0  0
  192.4560  176.4960  142.0340 O   0  0  0  0  0  1  0  0  0  0  0  0
  191.4740  177.8410  144.3990 C   0  0  0  0  0  2  0  0  0  0  0  0
  191.0040  177.6480  140.5210 C   0  0  0  0  0  2  0  0  0  0  0  0
  186.0200  177.6600  146.1130 O   0  0  0  0  0  0  0  0  0  0  0  0
  187.1810  177.9280  145.6950 C   0  0  0  0  0  0  0  0  0  0  0  0
  187.3660  178.3710  144.3810 O   0  0  0  0  0  0  0  0  0  0  0  0
  188.0070  177.3870  139.4030 C   0  0  2  0  0  3  0  0  0  0  0  0
  190.4510  178.2620  145.4010 C   0  0  0  0  0  3  0  0  0  0  0  0
  187.0330  177.5750  140.3980 O   0  0  0  0  0  0  0  0  0  0  0  0
  188.9340  178.4480  139.4370 O   0  0  0  0  0  0  0  0  0  0  0  0
  189.5490  177.3770  145.8200 C   0  0  0  0  0  3  0  0  0  0  0  0
  189.6740  177.3030  142.8600 O   0  0  0  0  0  0  0  0  0  0  0  0
  188.8760  178.0130  141.9350 C   0  0  1  0  0  3  0  0  0  0  0  0
  186.3920  178.1570  143.3640 C   0  0  2  0  0  3  0  0  0  0  0  0
  189.6720  178.3950  140.6440 C   0  0  1  0  0  3  0  0  0  0  0  0
  188.3680  177.8120  146.6190 C   0  0  2  0  0  3  0  0  0  0  0  0
  191.8080  177.7170  141.8340 C   0  0  1  0  0  3  0  0  0  0  0  0
  186.6840  176.9790  142.6210 O   0  0  0  0  0  0  0  0  0  0  0  0
  190.8690  178.0270  143.0110 C   0  0  2  0  0  3  0  0  0  0  0  0
  188.1160  176.7850  147.7110 C   0  0  0  0  0  1  0  0  0  0  0  0
  187.6460  177.1550  141.5850 C   0  0  1  0  0  3  0  0  0  0  0  0
  186.1410  179.4120  142.5230 C   0  0  0  0  0  2  0  0  0  0  0  0
  182.5580  178.9650  144.4120 C   0  0  0  0  0  2  0  0  0  0  0  0
  184.9210  179.2390  141.6810 C   0  0  0  0  0  0  0  0  0  0  0  0
  183.4130  179.9220  143.5860 C   0  0  0  0  0  2  0  0  0  0  0  0
  180.3080  177.7080  144.3720 C   0  0  0  0  0  1  0  0  0  0  0  0
  183.6090  179.3700  142.2500 N   0  0  0  0  0  0  0  0  0  0  0  0
  181.3880  178.4170  143.6320 C   0  0  0  0  0  0  0  0  0  0  0  0
  182.4200  179.0830  141.4510 C   0  0  0  0  0  2  0  0  0  0  0  0
  185.0570  178.9260  140.4670 O   0  0  0  0  0  0  0  0  0  0  0  0
  181.3630  178.4130  142.2870 C   0  0  0  0  0  3  0  0  0  0  0  0
  184.3350  177.1250  137.5290 C   0  0  1  0  0  3  0  0  0  0  0  0
  183.8520  177.4980  136.1540 C   0  0  0  0  0  0  0  0  0  0  0  0
  184.5790  177.3510  135.1850 O   0  0  0  0  0  0  0  0  0  0  0  0
  182.4750  178.0460  135.9560 C   0  0  2  0  0  3  0  0  0  0  0  0
  182.1630  178.0820  134.5940 O   0  0  0  0  0  1  0  0  0  0  0  0
  182.3640  179.4360  136.5620 C   0  0  0  0  0  2  0  0  0  0  0  0
  180.9080  179.8440  136.6880 C   0  0  0  0  0  2  0  0  0  0  0  0
  180.8070  180.8020  138.8610 O   0  0  0  0  0  0  0  0  0  0  0  0
  180.7930  180.9990  137.6170 C   0  0  0  0  0  0  0  0  0  0  0  0
  180.6510  182.2880  137.0980 O   0  0  0  0  0  0  0  0  0  0  0  0
  179.6060  183.1530  137.5170 C   0  0  0  0  0  1  0  0  0  0  0  0
  183.1700  176.8910  138.4950 C   0  0  0  0  0  2  0  0  0  0  0  0
  183.5480  170.7990  135.8300 C   0  0  0  0  0  3  0  0  0  0  0  0
  183.3590  171.1840  137.1030 C   0  0  0  0  0  3  0  0  0  0  0  0
  182.0400  174.7540  139.1530 C   0  0  0  0  0  2  0  0  0  0  0  0
  181.6480  174.4920  136.2830 C   0  0  1  0  0  0  0  0  0  0  0  0
  181.7550  173.1140  136.9630 C   0  0  2  0  0  0  0  0  0  0  0  0
  182.2140  175.8060  138.0260 C   0  0  2  0  0  3  0  0  0  0  0  0
  180.8570  173.7250  139.0200 C   0  0  2  0  0  3  0  0  0  0  0  0
  183.5440  171.6760  134.5940 C   0  0  0  0  0  2  0  0  0  0  0  0
  183.1410  173.1350  134.8060 C   0  0  0  0  0  2  0  0  0  0  0  0
  180.6300  173.0020  137.7950 O   0  0  0  0  0  0  0  0  0  0  0  0
  183.1020  172.5980  137.5290 C   0  0  0  0  0  2  0  0  0  0  0  0
  182.7000  175.2620  136.8050 O   0  0  0  0  0  0  0  0  0  0  0  0
  181.7520  173.2330  135.4340 C   0  0  2  0  0  3  0  0  0  0  0  0
  179.2200  174.4550  136.5580 F   0  0  0  0  0  0  0  0  0  0  0  0
  180.2860  175.1970  136.0710 C   0  0  2  0  0  3  0  0  0  0  0  0
  180.0690  175.4810  134.5960 C   0  0  0  0  0  1  0  0  0  0  0  0
  179.0880  173.2390  140.7570 C   0  0  0  0  0  1  0  0  0  0  0  0
  179.5650  174.2010  139.6830 C   0  0  1  0  0  3  0  0  0  0  0  0
  179.0670  175.9580  141.3270 C   0  0  0  0  0  2  0  0  0  0  0  0
  179.7460  175.5710  140.2490 C   0  0  0  0  0  3  0  0  0  0  0  0
  1  2  2  0  0  0  0
  2  4  1  0  0  0  0
  3 38  1  0  0  0  0
  3  2  1  0  0  0  0
  5  6  1  0  0  0  0
  5  4  1  0  0  0  0
  6  4  1  0  0  0  0
  8 14  1  0  0  0  0
  9 23  1  0  0  0  0
 11 10  2  0  0  0  0
 11 22  1  0  0  0  0
 12 11  1  0  0  0  0
 13  4  1  6  0  0  0
 13 16  1  0  0  0  0
 13 15  1  0  0  0  0
 14 17  2  0  0  0  0
 16 21  1  0  0  0  0
 17 22  1  0  0  0  0
 18 25  1  0  0  0  0
 19 18  1  1  0  0  0
 20 28  1  6  0  0  0
 20 12  1  0  0  0  0
 21  9  1  6  0  0  0
 21 19  1  0  0  0  0
 22 26  1  1  0  0  0
 23  7  1  1  0  0  0
 23 25  1  0  0  0  0
 24 20  1  0  0  0  0
 25  8  1  1  0  0  0
 27 15  1  6  0  0  0
 27 19  1  0  0  0  0
 27 24  1  0  0  0  0
 30 33  1  0  0  0  0
 30 28  1  0  0  0  0
 31 29  1  0  0  0  0
 33 31  1  0  0  0  0
 34 32  1  0  0  0  0
 34 29  1  0  0  0  0
 35 33  1  0  0  0  0
 35 37  1  0  0  0  0
 36 30  2  0  0  0  0
 37 34  2  0  0  0  0
 38 49  1  1  0  0  0
 39 38  1  0  0  0  0
 40 39  2  0  0  0  0
 41 42  1  6  0  0  0
 41 39  1  0  0  0  0
 41 43  1  0  0  0  0
 43 44  1  0  0  0  0
 44 46  1  0  0  0  0
 46 45  2  0  0  0  0
 47 48  1  0  0  0  0
 47 46  1  0  0  0  0
 50 51  2  0  0  0  0
 51 60  1  0  0  0  0
 53 64  1  1  0  0  0
 53 61  1  0  0  0  0
 53 54  1  0  0  0  0
 54 60  1  1  0  0  0
 54 59  1  0  0  0  0
 55 49  1  1  0  0  0
 55 52  1  0  0  0  0
 56 52  1  0  0  0  0
 56 67  1  6  0  0  0
 57 58  1  0  0  0  0
 57 50  1  0  0  0  0
 59 56  1  0  0  0  0
 61 55  1  0  0  0  0
 62 58  1  1  0  0  0
 62 53  1  0  0  0  0
 62 54  1  0  0  0  0
 64 65  1  6  0  0  0
 64 63  1  0  0  0  0
 67 69  1  0  0  0  0
 67 66  1  1  0  0  0
 69 68  2  0  0  0  0
M  END
>  <MODEL>
3

>  <REMARK>
 VINA RESULT:      -2.7      2.257      5.334
  Name = 
  16 active torsions:
  status: ('A' for Active; 'I' for Inactive)
    1  A    between atoms: C_4  and  C_67
    2  A    between atoms: C_10  and  C_45
    3  A    between atoms: C_10  and  C_59
    4  A    between atoms: C_18  and  C_19
    5  A    between atoms: C_19  and  C_37
    6  A    between atoms: C_21  and  C_52
    7  A    between atoms: C_21  and  C_59
    8  A    between atoms: C_22  and  C_45
    9  A    between atoms: C_22  and  C_49
   10  A    between atoms: C_22  and  N_60
   11  A    between atoms: C_23  and  C_29
   12  A    between atoms: C_25  and  C_49
   13  A    between atoms: C_27  and  C_36
   14  A    between atoms: C_36  and  C_57
   15  A    between atoms: C_47  and  C_67
   16  A    between atoms: O_50  and  C_52
                            x       y       z     vdW  Elec       q    Type
                         _______ _______ _______ _____ _____    ______ ____

>  <TORSDO>
F 16

$$$$
=
 OpenBabel11062417063D

 69 76  0  0  1  0  0  0  0  0999 V2000
  183.9340  176.1210  140.2270 O   0  0  0  0  0  0  0  0  0  0  0  0
  184.3480  176.7790  139.2360 C   0  0  0  0  0  0  0  0  0  0  0  0
  184.0090  176.3260  137.9200 N   0  0  0  0  0  2  0  0  0  0  0  0
  185.1980  177.9950  139.4660 C   0  0  0  0  0  0  0  0  0  0  0  0
  185.2080  179.0050  138.3320 C   0  0  0  0  0  2  0  0  0  0  0  0
  184.4300  179.3020  139.5990 C   0  0  0  0  0  2  0  0  0  0  0  0
  191.6150  176.8220  139.8220 O   0  0  0  0  0  1  0  0  0  0  0  0
  192.1350  177.5430  142.5750 C   0  0  0  0  0  2  0  0  0  0  0  0
  189.6270  178.1410  139.6340 C   0  0  0  0  0  2  0  0  0  0  0  0
  188.4840  176.5330  146.8600 O   0  0  0  0  0  0  0  0  0  0  0  0
  189.2430  176.9820  145.9570 C   0  0  0  0  0  0  0  0  0  0  0  0
  188.7040  177.7090  144.8900 O   0  0  0  0  0  0  0  0  0  0  0  0
  186.4950  177.8670  140.2800 C   0  0  2  0  0  3  0  0  0  0  0  0
  191.8400  177.6510  144.0350 C   0  0  0  0  0  3  0  0  0  0  0  0
  186.2270  177.7540  141.6540 O   0  0  0  0  0  0  0  0  0  0  0  0
  187.3380  178.9720  140.0480 O   0  0  0  0  0  0  0  0  0  0  0  0
  191.2720  176.6230  144.6600 C   0  0  0  0  0  3  0  0  0  0  0  0
  189.7660  177.1930  142.1720 O   0  0  0  0  0  0  0  0  0  0  0  0
  188.6270  178.0110  142.0100 C   0  0  1  0  0  3  0  0  0  0  0  0
  187.3260  177.6330  144.5390 C   0  0  2  0  0  3  0  0  0  0  0  0
  188.6100  178.7270  140.6200 C   0  0  1  0  0  3  0  0  0  0  0  0
  190.7350  176.7740  146.0430 C   0  0  2  0  0  3  0  0  0  0  0  0
  191.0170  177.9980  140.2850 C   0  0  1  0  0  3  0  0  0  0  0  0
  187.1150  176.6700  143.5140 O   0  0  0  0  0  0  0  0  0  0  0  0
  190.8820  177.9670  141.8150 C   0  0  2  0  0  3  0  0  0  0  0  0
  191.0700  175.5200  146.8340 C   0  0  0  0  0  1  0  0  0  0  0  0
  187.3670  177.1460  142.1940 C   0  0  1  0  0  3  0  0  0  0  0  0
  186.7150  179.0120  144.2740 C   0  0  0  0  0  2  0  0  0  0  0  0
  183.0580  178.7460  142.4940 C   0  0  0  0  0  2  0  0  0  0  0  0
  185.5050  179.2180  145.1230 C   0  0  0  0  0  0  0  0  0  0  0  0
  184.0290  178.0470  143.4430 C   0  0  0  0  0  2  0  0  0  0  0  0
  180.6900  179.7610  142.4050 C   0  0  0  0  0  1  0  0  0  0  0  0
  184.2000  178.8550  144.6460 N   0  0  0  0  0  0  0  0  0  0  0  0
  181.8570  179.3110  143.2130 C   0  0  0  0  0  0  0  0  0  0  0  0
  183.0080  179.1670  145.4310 C   0  0  0  0  0  2  0  0  0  0  0  0
  185.6390  179.7630  146.2520 O   0  0  0  0  0  0  0  0  0  0  0  0
  181.8660  179.5620  144.5350 C   0  0  0  0  0  3  0  0  0  0  0  0
  184.4950  176.9130  136.6750 C   0  0  1  0  0  3  0  0  0  0  0  0
  185.7710  176.2400  136.2480 C   0  0  0  0  0  0  0  0  0  0  0  0
  186.6320  176.8710  135.6550 O   0  0  0  0  0  0  0  0  0  0  0  0
  186.0050  174.7940  136.5500 C   0  0  2  0  0  3  0  0  0  0  0  0
  187.3400  174.4620  136.3040 O   0  0  0  0  0  1  0  0  0  0  0  0
  185.0790  173.9220  135.7180 C   0  0  0  0  0  2  0  0  0  0  0  0
  184.4290  172.8620  136.5870 C   0  0  0  0  0  2  0  0  0  0  0  0
  184.1630  170.6930  135.6510 O   0  0  0  0  0  0  0  0  0  0  0  0
  183.7270  171.8730  135.7260 C   0  0  0  0  0  0  0  0  0  0  0  0
  182.6050  172.2690  134.9950 O   0  0  0  0  0  0  0  0  0  0  0  0
  181.3930  171.5320  135.0250 C   0  0  0  0  0  1  0  0  0  0  0  0
  183.4370  176.8760  135.5700 C   0  0  0  0  0  2  0  0  0  0  0  0
  179.3840  182.1580  135.3640 C   0  0  0  0  0  3  0  0  0  0  0  0
  179.4180  181.0540  134.6000 C   0  0  0  0  0  3  0  0  0  0  0  0
  181.0260  177.0530  134.9110 C   0  0  0  0  0  2  0  0  0  0  0  0
  180.8730  178.7510  137.2670 C   0  0  1  0  0  0  0  0  0  0  0  0
  179.8370  179.1680  136.2070 C   0  0  2  0  0  0  0  0  0  0  0  0
  182.0470  177.2500  136.0620 C   0  0  2  0  0  3  0  0  0  0  0  0
  179.4950  177.0630  135.2780 C   0  0  2  0  0  3  0  0  0  0  0  0
  180.1690  182.4220  136.6320 C   0  0  0  0  0  2  0  0  0  0  0  0
  180.9810  181.2470  137.1780 C   0  0  0  0  0  2  0  0  0  0  0  0
  178.9320  178.0990  136.1050 O   0  0  0  0  0  0  0  0  0  0  0  0
  180.2680  179.8530  134.8860 C   0  0  0  0  0  2  0  0  0  0  0  0
  182.0830  178.5760  136.5760 O   0  0  0  0  0  0  0  0  0  0  0  0
  180.0840  180.0400  137.4450 C   0  0  2  0  0  3  0  0  0  0  0  0
  179.1720  177.5650  138.5600 F   0  0  0  0  0  0  0  0  0  0  0  0
  180.5370  177.7330  138.3850 C   0  0  2  0  0  3  0  0  0  0  0  0
  181.1620  178.1730  139.6960 C   0  0  0  0  0  1  0  0  0  0  0  0
  179.4330  174.6270  134.6140 C   0  0  0  0  0  1  0  0  0  0  0  0
  178.9410  175.6750  135.5960 C   0  0  1  0  0  3  0  0  0  0  0  0
  179.9830  174.1770  137.2410 C   0  0  0  0  0  2  0  0  0  0  0  0
  179.2900  175.2860  136.9960 C   0  0  0  0  0  3  0  0  0  0  0  0
  2  4  1  0  0  0  0
  2  1  2  0  0  0  0
  3  2  1  0  0  0  0
  4  6  1  0  0  0  0
  5  4  1  0  0  0  0
  5  6  1  0  0  0  0
  8 14  1  0  0  0  0
  9 23  1  0  0  0  0
 11 22  1  0  0  0  0
 11 10  2  0  0  0  0
 12 11  1  0  0  0  0
 13  4  1  6  0  0  0
 13 15  1  0  0  0  0
 14 17  2  0  0  0  0
 16 13  1  0  0  0  0
 16 21  1  0  0  0  0
 17 22  1  0  0  0  0
 19 18  1  6  0  0  0
 19 27  1  0  0  0  0
 20 28  1  6  0  0  0
 20 12  1  0  0  0  0
 21  9  1  6  0  0  0
 21 19  1  0  0  0  0
 22 26  1  1  0  0  0
 23  7  1  6  0  0  0
 23 25  1  0  0  0  0
 24 20  1  0  0  0  0
 25 18  1  0  0  0  0
 25  8  1  1  0  0  0
 27 15  1  1  0  0  0
 27 24  1  0  0  0  0
 28 30  1  0  0  0  0
 29 34  1  0  0  0  0
 29 31  1  0  0  0  0
 30 36  2  0  0  0  0
 31 33  1  0  0  0  0
 32 34  1  0  0  0  0
 33 30  1  0  0  0  0
 33 35  1  0  0  0  0
 34 37  2  0  0  0  0
 37 35  1  0  0  0  0
 38 49  1  6  0  0  0
 38  3  1  0  0  0  0
 39 41  1  0  0  0  0
 39 38  1  0  0  0  0
 40 39  2  0  0  0  0
 41 42  1  6  0  0  0
 43 41  1  0  0  0  0
 43 44  1  0  0  0  0
 45 46  2  0  0  0  0
 46 44  1  0  0  0  0
 47 48  1  0  0  0  0
 47 46  1  0  0  0  0
 50 57  1  0  0  0  0
 51 60  1  0  0  0  0
 51 50  2  0  0  0  0
 52 56  1  0  0  0  0
 52 55  1  0  0  0  0
 53 62  1  0  0  0  0
 53 64  1  1  0  0  0
 54 60  1  6  0  0  0
 54 53  1  0  0  0  0
 54 62  1  0  0  0  0
 55 49  1  6  0  0  0
 55 61  1  0  0  0  0
 56 67  1  1  0  0  0
 56 59  1  0  0  0  0
 57 58  1  0  0  0  0
 59 54  1  0  0  0  0
 61 53  1  0  0  0  0
 62 58  1  6  0  0  0
 64 63  1  0  0  0  0
 64 65  1  1  0  0  0
 67 66  1  6  0  0  0
 67 69  1  0  0  0  0
 69 68  2  0  0  0  0
M  END
>  <MODEL>
4

>  <REMARK>
 VINA RESULT:      -2.6      1.150      2.017
  Name = 
  16 active torsions:
  status: ('A' for Active; 'I' for Inactive)
    1  A    between atoms: C_4  and  C_67
    2  A    between atoms: C_10  and  C_45
    3  A    between atoms: C_10  and  C_59
    4  A    between atoms: C_18  and  C_19
    5  A    between atoms: C_19  and  C_37
    6  A    between atoms: C_21  and  C_52
    7  A    between atoms: C_21  and  C_59
    8  A    between atoms: C_22  and  C_45
    9  A    between atoms: C_22  and  C_49
   10  A    between atoms: C_22  and  N_60
   11  A    between atoms: C_23  and  C_29
   12  A    between atoms: C_25  and  C_49
   13  A    between atoms: C_27  and  C_36
   14  A    between atoms: C_36  and  C_57
   15  A    between atoms: C_47  and  C_67
   16  A    between atoms: O_50  and  C_52
                            x       y       z     vdW  Elec       q    Type
                         _______ _______ _______ _____ _____    ______ ____

>  <TORSDO>
F 16

$$$$
=
 OpenBabel11062417063D

 69 76  0  0  1  0  0  0  0  0999 V2000
  185.5270  177.1920  143.0810 O   0  0  0  0  0  0  0  0  0  0  0  0
  185.0140  177.6410  142.0220 C   0  0  0  0  0  0  0  0  0  0  0  0
  183.7480  177.1220  141.5980 N   0  0  0  0  0  2  0  0  0  0  0  0
  185.7540  178.6820  141.2330 C   0  0  0  0  0  0  0  0  0  0  0  0
  185.0760  180.0390  141.1530 C   0  0  0  0  0  2  0  0  0  0  0  0
  186.2850  179.8520  142.0480 C   0  0  0  0  0  2  0  0  0  0  0  0
  186.3110  177.6320  134.8090 O   0  0  0  0  0  1  0  0  0  0  0  0
  189.1530  177.1410  134.5950 C   0  0  0  0  0  2  0  0  0  0  0  0
  186.4650  178.8570  136.8590 C   0  0  0  0  0  2  0  0  0  0  0  0
  192.1890  174.3290  138.5440 O   0  0  0  0  0  0  0  0  0  0  0  0
  191.6470  175.1360  137.7390 C   0  0  0  0  0  0  0  0  0  0  0  0
  190.9250  176.2300  138.2270 O   0  0  0  0  0  0  0  0  0  0  0  0
  186.5800  178.2570  140.0100 C   0  0  2  0  0  3  0  0  0  0  0  0
  190.4820  176.6170  135.0300 C   0  0  0  0  0  3  0  0  0  0  0  0
  187.7440  177.5690  140.3940 O   0  0  0  0  0  0  0  0  0  0  0  0
  186.9250  179.3780  139.2290 O   0  0  0  0  0  0  0  0  0  0  0  0
  190.5560  175.4080  135.5800 C   0  0  0  0  0  3  0  0  0  0  0  0
  188.3770  176.9330  136.8870 O   0  0  0  0  0  0  0  0  0  0  0  0
  188.4430  177.7140  138.0610 C   0  0  1  0  0  3  0  0  0  0  0  0
  190.4220  176.2740  139.5590 C   0  0  2  0  0  3  0  0  0  0  0  0
  187.4830  178.9480  138.0010 C   0  0  1  0  0  3  0  0  0  0  0  0
  191.8060  174.9490  136.2500 C   0  0  2  0  0  3  0  0  0  0  0  0
  187.1490  178.4890  135.5280 C   0  0  1  0  0  3  0  0  0  0  0  0
  189.0720  175.8270  139.6070 O   0  0  0  0  0  0  0  0  0  0  0  0
  188.5020  177.8140  135.8000 C   0  0  2  0  0  3  0  0  0  0  0  0
  192.0360  173.4880  135.9010 C   0  0  0  0  0  1  0  0  0  0  0  0
  188.1060  176.8200  139.2690 C   0  0  1  0  0  3  0  0  0  0  0  0
  190.6860  177.6210  140.2390 C   0  0  0  0  0  2  0  0  0  0  0  0
  188.6020  177.2060  143.7170 C   0  0  0  0  0  2  0  0  0  0  0  0
  191.4590  177.4240  141.5000 C   0  0  0  0  0  0  0  0  0  0  0  0
  189.4430  176.4660  142.6800 C   0  0  0  0  0  2  0  0  0  0  0  0
  188.5530  177.8240  146.2190 C   0  0  0  0  0  1  0  0  0  0  0  0
  190.8080  176.9820  142.7020 N   0  0  0  0  0  0  0  0  0  0  0  0
  189.3310  177.3870  145.0270 C   0  0  0  0  0  0  0  0  0  0  0  0
  191.5440  176.9050  143.9610 C   0  0  0  0  0  2  0  0  0  0  0  0
  192.6890  177.6990  141.5100 O   0  0  0  0  0  0  0  0  0  0  0  0
  190.6700  177.3150  145.1160 C   0  0  0  0  0  3  0  0  0  0  0  0
  183.0750  177.4580  140.3470 C   0  0  1  0  0  3  0  0  0  0  0  0
  182.5640  178.8720  140.3970 C   0  0  0  0  0  0  0  0  0  0  0  0
  182.1730  179.3490  141.4500 O   0  0  0  0  0  0  0  0  0  0  0  0
  182.5360  179.7130  139.1600 C   0  0  2  0  0  3  0  0  0  0  0  0
  183.5330  180.6910  139.2220 O   0  0  0  0  0  1  0  0  0  0  0  0
  181.1700  180.3580  138.9880 C   0  0  0  0  0  2  0  0  0  0  0  0
  181.3060  181.7230  138.3420 C   0  0  0  0  0  2  0  0  0  0  0  0
  180.8030  180.6690  136.2720 O   0  0  0  0  0  0  0  0  0  0  0  0
  180.6890  181.6990  136.9890 C   0  0  0  0  0  0  0  0  0  0  0  0
  180.0080  182.8250  136.5230 O   0  0  0  0  0  0  0  0  0  0  0  0
  180.6780  183.8830  135.8560 C   0  0  0  0  0  1  0  0  0  0  0  0
  183.9720  177.2220  139.1300 C   0  0  0  0  0  2  0  0  0  0  0  0
  185.6050  171.7420  135.7140 C   0  0  0  0  0  3  0  0  0  0  0  0
  184.8760  171.8870  136.8330 C   0  0  0  0  0  3  0  0  0  0  0  0
  182.7190  175.0780  138.7950 C   0  0  0  0  0  2  0  0  0  0  0  0
  183.6120  175.3980  136.0460 C   0  0  1  0  0  0  0  0  0  0  0  0
  183.4470  173.9110  136.4130 C   0  0  2  0  0  0  0  0  0  0  0  0
  183.3380  176.3130  138.0890 C   0  0  2  0  0  3  0  0  0  0  0  0
  181.7330  174.1750  137.9640 C   0  0  2  0  0  3  0  0  0  0  0  0
  186.1160  172.8370  134.8010 C   0  0  0  0  0  2  0  0  0  0  0  0
  185.6280  174.2520  135.1090 C   0  0  0  0  0  2  0  0  0  0  0  0
  182.0750  173.7170  136.6420 O   0  0  0  0  0  0  0  0  0  0  0  0
  184.4280  173.2070  137.3840 C   0  0  0  0  0  2  0  0  0  0  0  0
  184.3170  175.9820  137.1110 O   0  0  0  0  0  0  0  0  0  0  0  0
  184.1020  174.3220  135.0880 C   0  0  2  0  0  3  0  0  0  0  0  0
  181.6460  175.4560  134.5960 F   0  0  0  0  0  0  0  0  0  0  0  0
  182.4590  176.2200  135.4190 C   0  0  2  0  0  3  0  0  0  0  0  0
  183.0220  177.3860  134.6260 C   0  0  0  0  0  1  0  0  0  0  0  0
  179.5430  174.5410  136.7600 C   0  0  0  0  0  1  0  0  0  0  0  0
  180.2710  174.6000  138.0910 C   0  0  1  0  0  3  0  0  0  0  0  0
  179.0020  174.3130  140.1760 C   0  0  0  0  0  2  0  0  0  0  0  0
  179.5720  173.7580  139.1090 C   0  0  0  0  0  3  0  0  0  0  0  0
  2  1  2  0  0  0  0
  3  2  1  0  0  0  0
  4  2  1  0  0  0  0
  4  6  1  0  0  0  0
  5  4  1  0  0  0  0
  5  6  1  0  0  0  0
  8 14  1  0  0  0  0
 11 12  1  0  0  0  0
 11 10  2  0  0  0  0
 12 20  1  0  0  0  0
 13 15  1  0  0  0  0
 13  4  1  1  0  0  0
 14 17  2  0  0  0  0
 16 13  1  0  0  0  0
 17 22  1  0  0  0  0
 19 18  1  6  0  0  0
 19 27  1  0  0  0  0
 20 24  1  0  0  0  0
 20 28  1  6  0  0  0
 21  9  1  6  0  0  0
 21 19  1  0  0  0  0
 21 16  1  0  0  0  0
 22 26  1  1  0  0  0
 22 11  1  0  0  0  0
 23  7  1  1  0  0  0
 23 25  1  0  0  0  0
 23  9  1  0  0  0  0
 25  8  1  6  0  0  0
 25 18  1  0  0  0  0
 27 24  1  1  0  0  0
 27 15  1  0  0  0  0
 28 30  1  0  0  0  0
 29 34  1  0  0  0  0
 30 36  2  0  0  0  0
 30 33  1  0  0  0  0
 31 33  1  0  0  0  0
 31 29  1  0  0  0  0
 33 35  1  0  0  0  0
 34 37  2  0  0  0  0
 34 32  1  0  0  0  0
 35 37  1  0  0  0  0
 38 49  1  6  0  0  0
 38 39  1  0  0  0  0
 38  3  1  0  0  0  0
 39 40  2  0  0  0  0
 41 42  1  1  0  0  0
 41 39  1  0  0  0  0
 43 41  1  0  0  0  0
 44 43  1  0  0  0  0
 45 46  2  0  0  0  0
 46 44  1  0  0  0  0
 47 46  1  0  0  0  0
 48 47  1  0  0  0  0
 50 51  2  0  0  0  0
 51 60  1  0  0  0  0
 53 64  1  6  0  0  0
 53 54  1  0  0  0  0
 53 61  1  0  0  0  0
 54 59  1  0  0  0  0
 54 60  1  1  0  0  0
 55 52  1  0  0  0  0
 55 49  1  1  0  0  0
 56 67  1  6  0  0  0
 56 52  1  0  0  0  0
 57 58  1  0  0  0  0
 57 50  1  0  0  0  0
 59 56  1  0  0  0  0
 61 55  1  0  0  0  0
 62 58  1  1  0  0  0
 62 53  1  0  0  0  0
 62 54  1  0  0  0  0
 63 64  1  0  0  0  0
 64 65  1  6  0  0  0
 67 66  1  6  0  0  0
 67 69  1  0  0  0  0
 69 68  2  0  0  0  0
M  END
>  <MODEL>
5

>  <REMARK>
 VINA RESULT:      -1.9      2.425      7.169
  Name = 
  16 active torsions:
  status: ('A' for Active; 'I' for Inactive)
    1  A    between atoms: C_4  and  C_67
    2  A    between atoms: C_10  and  C_45
    3  A    between atoms: C_10  and  C_59
    4  A    between atoms: C_18  and  C_19
    5  A    between atoms: C_19  and  C_37
    6  A    between atoms: C_21  and  C_52
    7  A    between atoms: C_21  and  C_59
    8  A    between atoms: C_22  and  C_45
    9  A    between atoms: C_22  and  C_49
   10  A    between atoms: C_22  and  N_60
   11  A    between atoms: C_23  and  C_29
   12  A    between atoms: C_25  and  C_49
   13  A    between atoms: C_27  and  C_36
   14  A    between atoms: C_36  and  C_57
   15  A    between atoms: C_47  and  C_67
   16  A    between atoms: O_50  and  C_52
                            x       y       z     vdW  Elec       q    Type
                         _______ _______ _______ _____ _____    ______ ____

>  <TORSDO>
F 16

$$$$
=
 OpenBabel11062417063D

 69 76  0  0  1  0  0  0  0  0999 V2000
  185.6980  177.1560  143.0280 O   0  0  0  0  0  0  0  0  0  0  0  0
  185.0760  177.5720  142.0150 C   0  0  0  0  0  0  0  0  0  0  0  0
  183.8190  176.9700  141.6860 N   0  0  0  0  0  2  0  0  0  0  0  0
  185.6820  178.6620  141.1780 C   0  0  0  0  0  0  0  0  0  0  0  0
  184.8460  179.9240  141.0520 C   0  0  0  0  0  2  0  0  0  0  0  0
  186.0730  179.9180  141.9430 C   0  0  0  0  0  2  0  0  0  0  0  0
  186.4500  177.9030  134.7360 O   0  0  0  0  0  1  0  0  0  0  0  0
  189.2970  177.4140  134.5940 C   0  0  0  0  0  2  0  0  0  0  0  0
  186.5380  179.0330  136.8430 C   0  0  0  0  0  2  0  0  0  0  0  0
  192.1970  174.4170  138.5080 O   0  0  0  0  0  0  0  0  0  0  0  0
  191.6830  175.2610  137.7230 C   0  0  0  0  0  0  0  0  0  0  0  0
  190.9470  176.3340  138.2360 O   0  0  0  0  0  0  0  0  0  0  0  0
  186.5480  178.2900  139.9660 C   0  0  2  0  0  3  0  0  0  0  0  0
  190.6100  176.8670  135.0470 C   0  0  0  0  0  3  0  0  0  0  0  0
  187.6970  177.5820  140.3560 O   0  0  0  0  0  0  0  0  0  0  0  0
  186.9200  179.4440  139.2480 O   0  0  0  0  0  0  0  0  0  0  0  0
  190.6640  175.6340  135.5440 C   0  0  0  0  0  3  0  0  0  0  0  0
  188.4450  177.1040  136.8460 O   0  0  0  0  0  0  0  0  0  0  0  0
  188.4730  177.8310  138.0570 C   0  0  1  0  0  3  0  0  0  0  0  0
  190.4000  176.3190  139.5510 C   0  0  2  0  0  3  0  0  0  0  0  0
  187.5180  179.0690  138.0210 C   0  0  1  0  0  3  0  0  0  0  0  0
  191.8900  175.1420  136.2330 C   0  0  2  0  0  3  0  0  0  0  0  0
  187.2650  178.7230  135.5200 C   0  0  1  0  0  3  0  0  0  0  0  0
  189.0480  175.8740  139.5350 O   0  0  0  0  0  0  0  0  0  0  0  0
  188.6080  178.0330  135.8050 C   0  0  2  0  0  3  0  0  0  0  0  0
  192.1310  173.6970  135.8260 C   0  0  0  0  0  1  0  0  0  0  0  0
  188.0960  176.8840  139.2110 C   0  0  1  0  0  3  0  0  0  0  0  0
  190.6430  177.6330  140.3000 C   0  0  0  0  0  2  0  0  0  0  0  0
  188.5720  177.3700  143.8010 C   0  0  0  0  0  2  0  0  0  0  0  0
  191.4130  177.3820  141.5540 C   0  0  0  0  0  0  0  0  0  0  0  0
  189.3470  176.5710  142.7560 C   0  0  0  0  0  2  0  0  0  0  0  0
  188.5940  177.9910  146.3020 C   0  0  0  0  0  1  0  0  0  0  0  0
  190.7460  176.9880  142.7630 N   0  0  0  0  0  0  0  0  0  0  0  0
  189.3260  177.4990  145.1030 C   0  0  0  0  0  0  0  0  0  0  0  0
  191.4880  176.8600  144.0140 C   0  0  0  0  0  2  0  0  0  0  0  0
  192.6600  177.5690  141.5500 O   0  0  0  0  0  0  0  0  0  0  0  0
  190.6580  177.3320  145.1780 C   0  0  0  0  0  3  0  0  0  0  0  0
  183.0300  177.2640  140.4930 C   0  0  1  0  0  3  0  0  0  0  0  0
  182.2740  178.5520  140.6730 C   0  0  0  0  0  0  0  0  0  0  0  0
  182.3860  179.4520  139.8560 O   0  0  0  0  0  0  0  0  0  0  0  0
  181.3710  178.7440  141.8490 C   0  0  2  0  0  3  0  0  0  0  0  0
  180.1410  179.2580  141.4320 O   0  0  0  0  0  1  0  0  0  0  0  0
  182.0160  179.6700  142.8680 C   0  0  0  0  0  2  0  0  0  0  0  0
  182.0360  179.0180  144.2380 C   0  0  0  0  0  2  0  0  0  0  0  0
  184.2080  179.9740  144.3920 O   0  0  0  0  0  0  0  0  0  0  0  0
  183.4100  179.0890  144.8030 C   0  0  0  0  0  0  0  0  0  0  0  0
  183.8060  178.1620  145.7690 O   0  0  0  0  0  0  0  0  0  0  0  0
  185.1650  178.0090  146.1490 C   0  0  0  0  0  1  0  0  0  0  0  0
  183.8900  177.2840  139.2260 C   0  0  0  0  0  2  0  0  0  0  0  0
  185.9400  172.2210  135.4140 C   0  0  0  0  0  3  0  0  0  0  0  0
  185.1960  172.2250  136.5330 C   0  0  0  0  0  3  0  0  0  0  0  0
  182.7990  175.0870  138.7130 C   0  0  0  0  0  2  0  0  0  0  0  0
  183.6800  175.6840  136.0060 C   0  0  1  0  0  0  0  0  0  0  0  0
  183.6230  174.1650  136.2560 C   0  0  2  0  0  0  0  0  0  0  0  0
  183.3300  176.4150  138.1110 C   0  0  2  0  0  3  0  0  0  0  0  0
  181.8870  174.1810  137.8040 C   0  0  2  0  0  3  0  0  0  0  0  0
  186.3730  173.4190  134.5940 C   0  0  0  0  0  2  0  0  0  0  0  0
  185.7790  174.7660  135.0050 C   0  0  0  0  0  2  0  0  0  0  0  0
  182.2690  173.8540  136.4550 O   0  0  0  0  0  0  0  0  0  0  0  0
  184.6490  173.4620  137.1800 C   0  0  0  0  0  2  0  0  0  0  0  0
  184.3350  176.2340  137.1210 O   0  0  0  0  0  0  0  0  0  0  0  0
  184.2530  174.7250  134.9730 C   0  0  2  0  0  3  0  0  0  0  0  0
  181.6570  175.6770  134.6350 F   0  0  0  0  0  0  0  0  0  0  0  0
  182.4730  176.4660  135.4330 C   0  0  2  0  0  3  0  0  0  0  0  0
  182.9580  177.6600  134.6300 C   0  0  0  0  0  1  0  0  0  0  0  0
  179.5330  173.4430  137.2630 C   0  0  0  0  0  1  0  0  0  0  0  0
  180.3970  174.4870  137.9490 C   0  0  1  0  0  3  0  0  0  0  0  0
  179.7650  173.5230  140.1190 C   0  0  0  0  0  2  0  0  0  0  0  0
  180.0290  174.6070  139.3920 C   0  0  0  0  0  3  0  0  0  0  0  0
  2  1  2  0  0  0  0
  3  2  1  0  0  0  0
  4  6  1  0  0  0  0
  4  2  1  0  0  0  0
  5  4  1  0  0  0  0
  5  6  1  0  0  0  0
  8 14  1  0  0  0  0
 11 12  1  0  0  0  0
 11 10  2  0  0  0  0
 12 20  1  0  0  0  0
 13 15  1  0  0  0  0
 13  4  1  1  0  0  0
 14 17  2  0  0  0  0
 16 13  1  0  0  0  0
 17 22  1  0  0  0  0
 19 18  1  6  0  0  0
 19 27  1  0  0  0  0
 20 28  1  6  0  0  0
 21  9  1  6  0  0  0
 21 19  1  0  0  0  0
 21 16  1  0  0  0  0
 22 26  1  1  0  0  0
 22 11  1  0  0  0  0
 23  7  1  6  0  0  0
 23 25  1  0  0  0  0
 23  9  1  0  0  0  0
 24 20  1  0  0  0  0
 25  8  1  6  0  0  0
 25 18  1  0  0  0  0
 27 24  1  1  0  0  0
 27 15  1  0  0  0  0
 28 30  1  0  0  0  0
 29 34  1  0  0  0  0
 30 33  1  0  0  0  0
 31 33  1  0  0  0  0
 31 29  1  0  0  0  0
 33 35  1  0  0  0  0
 34 37  2  0  0  0  0
 34 32  1  0  0  0  0
 35 37  1  0  0  0  0
 36 30  2  0  0  0  0
 38 49  1  6  0  0  0
 38 39  1  0  0  0  0
 38  3  1  0  0  0  0
 39 41  1  0  0  0  0
 40 39  2  0  0  0  0
 41 42  1  6  0  0  0
 41 43  1  0  0  0  0
 43 44  1  0  0  0  0
 44 46  1  0  0  0  0
 45 46  2  0  0  0  0
 46 47  1  0  0  0  0
 47 48  1  0  0  0  0
 50 51  2  0  0  0  0
 51 60  1  0  0  0  0
 53 64  1  6  0  0  0
 53 54  1  0  0  0  0
 53 61  1  0  0  0  0
 54 59  1  0  0  0  0
 54 60  1  1  0  0  0
 55 52  1  0  0  0  0
 55 49  1  1  0  0  0
 56 67  1  6  0  0  0
 56 52  1  0  0  0  0
 57 58  1  0  0  0  0
 57 50  1  0  0  0  0
 59 56  1  0  0  0  0
 61 55  1  0  0  0  0
 62 58  1  1  0  0  0
 62 53  1  0  0  0  0
 62 54  1  0  0  0  0
 63 64  1  0  0  0  0
 64 65  1  6  0  0  0
 67 66  1  1  0  0  0
 67 69  1  0  0  0  0
 69 68  2  0  0  0  0
M  END
>  <MODEL>
6

>  <REMARK>
 VINA RESULT:      -1.5      2.572      7.138
  Name = 
  16 active torsions:
  status: ('A' for Active; 'I' for Inactive)
    1  A    between atoms: C_4  and  C_67
    2  A    between atoms: C_10  and  C_45
    3  A    between atoms: C_10  and  C_59
    4  A    between atoms: C_18  and  C_19
    5  A    between atoms: C_19  and  C_37
    6  A    between atoms: C_21  and  C_52
    7  A    between atoms: C_21  and  C_59
    8  A    between atoms: C_22  and  C_45
    9  A    between atoms: C_22  and  C_49
   10  A    between atoms: C_22  and  N_60
   11  A    between atoms: C_23  and  C_29
   12  A    between atoms: C_25  and  C_49
   13  A    between atoms: C_27  and  C_36
   14  A    between atoms: C_36  and  C_57
   15  A    between atoms: C_47  and  C_67
   16  A    between atoms: O_50  and  C_52
                            x       y       z     vdW  Elec       q    Type
                         _______ _______ _______ _____ _____    ______ ____

>  <TORSDO>
F 16

$$$$
=
 OpenBabel11062417063D

 69 76  0  0  1  0  0  0  0  0999 V2000
  186.9170  175.2610  138.8780 O   0  0  0  0  0  0  0  0  0  0  0  0
  186.7980  176.0320  137.8890 C   0  0  0  0  0  0  0  0  0  0  0  0
  185.5520  176.7090  137.6930 N   0  0  0  0  0  2  0  0  0  0  0  0
  187.9530  176.1950  136.9430 C   0  0  0  0  0  0  0  0  0  0  0  0
  187.7320  177.1900  135.8160 C   0  0  0  0  0  2  0  0  0  0  0  0
  188.6290  177.5580  136.9820 C   0  0  0  0  0  2  0  0  0  0  0  0
  188.6730  169.9070  135.3270 O   0  0  0  0  0  1  0  0  0  0  0  0
  191.5250  169.8030  134.8550 C   0  0  0  0  0  2  0  0  0  0  0  0
  188.4880  172.2650  134.9610 C   0  0  0  0  0  2  0  0  0  0  0  0
  195.3540  172.7490  137.9170 O   0  0  0  0  0  0  0  0  0  0  0  0
  194.5750  172.2390  137.0650 C   0  0  0  0  0  0  0  0  0  0  0  0
  193.5640  173.0170  136.4900 O   0  0  0  0  0  0  0  0  0  0  0  0
  188.8450  174.9870  136.6250 C   0  0  2  0  0  3  0  0  0  0  0  0
  192.9590  170.1450  135.0920 C   0  0  0  0  0  3  0  0  0  0  0  0
  190.1700  175.2070  137.0360 O   0  0  0  0  0  0  0  0  0  0  0  0
  188.8150  174.6970  135.2470 O   0  0  0  0  0  0  0  0  0  0  0  0
  193.4090  170.2280  136.3410 C   0  0  0  0  0  3  0  0  0  0  0  0
  190.8960  171.7820  136.1140 O   0  0  0  0  0  0  0  0  0  0  0  0
  190.7440  173.1590  135.8400 C   0  0  1  0  0  3  0  0  0  0  0  0
  193.0980  174.2210  137.0910 C   0  0  2  0  0  3  0  0  0  0  0  0
  189.4530  173.4550  135.0090 C   0  0  1  0  0  3  0  0  0  0  0  0
  194.7520  170.8050  136.6310 C   0  0  2  0  0  3  0  0  0  0  0  0
  189.2250  170.9620  134.5940 C   0  0  1  0  0  3  0  0  0  0  0  0
  191.9500  173.9770  137.8950 O   0  0  0  0  0  0  0  0  0  0  0  0
  190.7240  171.1010  134.8970 C   0  0  2  0  0  3  0  0  0  0  0  0
  195.4110  169.9790  137.7240 C   0  0  0  0  0  1  0  0  0  0  0  0
  190.7210  173.9280  137.1750 C   0  0  1  0  0  3  0  0  0  0  0  0
  192.9520  175.3610  136.0780 C   0  0  0  0  0  2  0  0  0  0  0  0
  196.5850  173.8400  135.0300 C   0  0  0  0  0  2  0  0  0  0  0  0
  194.1370  176.2670  136.1410 C   0  0  0  0  0  0  0  0  0  0  0  0
  195.4600  174.7750  134.5940 C   0  0  0  0  0  2  0  0  0  0  0  0
  199.0980  173.8250  135.6060 C   0  0  0  0  0  1  0  0  0  0  0  0
  195.3780  175.9020  135.5170 N   0  0  0  0  0  0  0  0  0  0  0  0
  197.8320  174.5890  135.4360 C   0  0  0  0  0  0  0  0  0  0  0  0
  196.5660  176.7350  135.6820 C   0  0  0  0  0  2  0  0  0  0  0  0
  194.0480  177.3420  136.7940 O   0  0  0  0  0  0  0  0  0  0  0  0
  197.8030  175.8850  135.7950 C   0  0  0  0  0  3  0  0  0  0  0  0
  185.2200  177.5490  136.5450 C   0  0  1  0  0  3  0  0  0  0  0  0
  184.3150  176.8050  135.6010 C   0  0  0  0  0  0  0  0  0  0  0  0
  183.6970  177.4070  134.7380 O   0  0  0  0  0  0  0  0  0  0  0  0
  184.1690  175.3200  135.7020 C   0  0  2  0  0  3  0  0  0  0  0  0
  185.1210  174.6870  134.8980 O   0  0  0  0  0  1  0  0  0  0  0  0
  182.7660  174.8970  135.2960 C   0  0  0  0  0  2  0  0  0  0  0  0
  182.1700  173.9710  136.3380 C   0  0  0  0  0  2  0  0  0  0  0  0
  181.7070  171.8660  135.3350 O   0  0  0  0  0  0  0  0  0  0  0  0
  182.5130  172.5620  136.0080 C   0  0  0  0  0  0  0  0  0  0  0  0
  183.7160  172.0210  136.4660 O   0  0  0  0  0  0  0  0  0  0  0  0
  184.6510  171.4200  135.5840 C   0  0  0  0  0  1  0  0  0  0  0  0
  184.6180  178.8900  136.9690 C   0  0  0  0  0  2  0  0  0  0  0  0
  180.0730  174.9200  139.7880 C   0  0  0  0  0  3  0  0  0  0  0  0
  181.4070  174.9630  139.9380 C   0  0  0  0  0  3  0  0  0  0  0  0
  184.5670  177.8290  139.2380 C   0  0  0  0  0  2  0  0  0  0  0  0
  181.7870  178.6810  139.1850 C   0  0  1  0  0  0  0  0  0  0  0  0
  181.9680  177.4100  140.0360 C   0  0  2  0  0  0  0  0  0  0  0  0
  183.8470  178.8120  138.2770 C   0  0  2  0  0  3  0  0  0  0  0  0
  184.1390  177.8380  140.7530 C   0  0  2  0  0  3  0  0  0  0  0  0
  179.1990  175.9140  139.0510 C   0  0  0  0  0  2  0  0  0  0  0  0
  179.8950  177.1770  138.5450 C   0  0  0  0  0  2  0  0  0  0  0  0
  182.7520  177.7890  141.1380 O   0  0  0  0  0  0  0  0  0  0  0  0
  182.2860  176.0420  139.3830 C   0  0  0  0  0  2  0  0  0  0  0  0
  182.4990  178.4540  137.9960 O   0  0  0  0  0  0  0  0  0  0  0  0
  180.5650  177.9290  139.6930 C   0  0  2  0  0  3  0  0  0  0  0  0
  180.7380  180.4220  140.5430 F   0  0  0  0  0  0  0  0  0  0  0  0
  181.8660  180.0990  139.8020 C   0  0  2  0  0  3  0  0  0  0  0  0
  182.0610  181.1340  138.7090 C   0  0  0  0  0  1  0  0  0  0  0  0
  184.2450  179.1810  142.8900 C   0  0  0  0  0  1  0  0  0  0  0  0
  184.9640  178.7990  141.6090 C   0  0  1  0  0  3  0  0  0  0  0  0
  186.6890  178.0160  143.1740 C   0  0  0  0  0  2  0  0  0  0  0  0
  186.3000  178.2040  141.9150 C   0  0  0  0  0  3  0  0  0  0  0  0
  2  1  2  0  0  0  0
  3  2  1  0  0  0  0
  4  6  1  0  0  0  0
  4  2  1  0  0  0  0
  5  4  1  0  0  0  0
  5  6  1  0  0  0  0
  8 14  1  0  0  0  0
 11 10  2  0  0  0  0
 12 11  1  0  0  0  0
 12 20  1  0  0  0  0
 13  4  1  6  0  0  0
 13 15  1  0  0  0  0
 14 17  2  0  0  0  0
 16 13  1  0  0  0  0
 17 22  1  0  0  0  0
 19 18  1  1  0  0  0
 19 27  1  0  0  0  0
 20 28  1  6  0  0  0
 20 24  1  0  0  0  0
 21  9  1  1  0  0  0
 21 16  1  0  0  0  0
 21 19  1  0  0  0  0
 22 11  1  0  0  0  0
 22 26  1  1  0  0  0
 23 25  1  0  0  0  0
 23  9  1  0  0  0  0
 23  7  1  1  0  0  0
 25  8  1  1  0  0  0
 25 18  1  0  0  0  0
 27 15  1  6  0  0  0
 27 24  1  0  0  0  0
 28 30  1  0  0  0  0
 29 34  1  0  0  0  0
 30 36  2  0  0  0  0
 31 29  1  0  0  0  0
 31 33  1  0  0  0  0
 33 35  1  0  0  0  0
 33 30  1  0  0  0  0
 34 32  1  0  0  0  0
 34 37  2  0  0  0  0
 35 37  1  0  0  0  0
 38 49  1  1  0  0  0
 38  3  1  0  0  0  0
 39 41  1  0  0  0  0
 39 38  1  0  0  0  0
 40 39  2  0  0  0  0
 41 42  1  6  0  0  0
 43 41  1  0  0  0  0
 43 44  1  0  0  0  0
 45 46  2  0  0  0  0
 46 44  1  0  0  0  0
 46 47  1  0  0  0  0
 48 47  1  0  0  0  0
 50 51  2  0  0  0  0
 52 56  1  0  0  0  0
 53 62  1  0  0  0  0
 53 64  1  1  0  0  0
 53 54  1  0  0  0  0
 54 60  1  6  0  0  0
 54 59  1  0  0  0  0
 55 49  1  6  0  0  0
 55 52  1  0  0  0  0
 56 59  1  0  0  0  0
 56 67  1  6  0  0  0
 57 50  1  0  0  0  0
 58 57  1  0  0  0  0
 60 51  1  0  0  0  0
 61 55  1  0  0  0  0
 61 53  1  0  0  0  0
 62 58  1  6  0  0  0
 62 54  1  0  0  0  0
 64 65  1  6  0  0  0
 64 63  1  0  0  0  0
 67 69  1  0  0  0  0
 67 66  1  1  0  0  0
 69 68  2  0  0  0  0
M  END
>  <MODEL>
7

>  <REMARK>
 VINA RESULT:      -0.9      3.743      9.178
  Name = 
  16 active torsions:
  status: ('A' for Active; 'I' for Inactive)
    1  A    between atoms: C_4  and  C_67
    2  A    between atoms: C_10  and  C_45
    3  A    between atoms: C_10  and  C_59
    4  A    between atoms: C_18  and  C_19
    5  A    between atoms: C_19  and  C_37
    6  A    between atoms: C_21  and  C_52
    7  A    between atoms: C_21  and  C_59
    8  A    between atoms: C_22  and  C_45
    9  A    between atoms: C_22  and  C_49
   10  A    between atoms: C_22  and  N_60
   11  A    between atoms: C_23  and  C_29
   12  A    between atoms: C_25  and  C_49
   13  A    between atoms: C_27  and  C_36
   14  A    between atoms: C_36  and  C_57
   15  A    between atoms: C_47  and  C_67
   16  A    between atoms: O_50  and  C_52
                            x       y       z     vdW  Elec       q    Type
                         _______ _______ _______ _____ _____    ______ ____

>  <TORSDO>
F 16

$$$$
=
 OpenBabel11062417063D

 69 76  0  0  1  0  0  0  0  0999 V2000
  187.9190  174.7710  138.6550 O   0  0  0  0  0  0  0  0  0  0  0  0
  187.5610  175.1190  137.4980 C   0  0  0  0  0  0  0  0  0  0  0  0
  188.2900  176.1590  136.8370 N   0  0  0  0  0  2  0  0  0  0  0  0
  186.3730  174.4510  136.8670 C   0  0  0  0  0  0  0  0  0  0  0  0
  186.6800  173.6020  135.6450 C   0  0  0  0  0  2  0  0  0  0  0  0
  186.3600  172.9320  136.9670 C   0  0  0  0  0  2  0  0  0  0  0  0
  180.2800  175.1500  134.6190 O   0  0  0  0  0  1  0  0  0  0  0  0
  179.2310  177.0670  136.5140 C   0  0  0  0  0  2  0  0  0  0  0  0
  182.0130  174.3560  136.0650 C   0  0  0  0  0  2  0  0  0  0  0  0
  182.3100  181.3540  138.7180 O   0  0  0  0  0  0  0  0  0  0  0  0
  181.6300  180.3250  138.4520 C   0  0  0  0  0  0  0  0  0  0  0  0
  182.1890  179.0540  138.6260 O   0  0  0  0  0  0  0  0  0  0  0  0
  185.0110  175.1590  136.8840 C   0  0  2  0  0  3  0  0  0  0  0  0
  179.2780  178.2510  137.4230 C   0  0  0  0  0  3  0  0  0  0  0  0
  185.0830  176.3890  137.5600 O   0  0  0  0  0  0  0  0  0  0  0  0
  184.0340  174.3410  137.4860 O   0  0  0  0  0  0  0  0  0  0  0  0
  179.9150  179.3500  137.0250 C   0  0  0  0  0  3  0  0  0  0  0  0
  181.6580  177.0000  136.5570 O   0  0  0  0  0  0  0  0  0  0  0  0
  182.6490  176.4650  137.4090 C   0  0  1  0  0  3  0  0  0  0  0  0
  183.5970  178.8480  138.6960 C   0  0  2  0  0  3  0  0  0  0  0  0
  182.7520  174.9090  137.2890 C   0  0  1  0  0  3  0  0  0  0  0  0
  180.2010  180.4550  137.9840 C   0  0  2  0  0  3  0  0  0  0  0  0
  180.5870  174.9320  135.9650 C   0  0  1  0  0  3  0  0  0  0  0  0
  184.1250  178.5060  137.4200 O   0  0  0  0  0  0  0  0  0  0  0  0
  180.4910  176.2430  136.7590 C   0  0  2  0  0  3  0  0  0  0  0  0
  179.9730  181.7820  137.2790 C   0  0  0  0  0  1  0  0  0  0  0  0
  183.9980  177.1290  137.0760 C   0  0  1  0  0  3  0  0  0  0  0  0
  183.9930  177.9070  139.8380 C   0  0  0  0  0  2  0  0  0  0  0  0
  185.7680  178.7970  143.3970 C   0  0  0  0  0  2  0  0  0  0  0  0
  183.1140  178.1290  141.0240 C   0  0  0  0  0  0  0  0  0  0  0  0
  184.9430  179.3680  142.2460 C   0  0  0  0  0  2  0  0  0  0  0  0
  185.6880  178.3900  145.9410 C   0  0  0  0  0  1  0  0  0  0  0  0
  183.6320  178.7270  142.2230 N   0  0  0  0  0  0  0  0  0  0  0  0
  184.9640  178.6530  144.6660 C   0  0  0  0  0  0  0  0  0  0  0  0
  182.8010  178.8340  143.4190 C   0  0  0  0  0  2  0  0  0  0  0  0
  181.9160  177.7390  140.9770 O   0  0  0  0  0  0  0  0  0  0  0  0
  183.6210  178.6030  144.6610 C   0  0  0  0  0  3  0  0  0  0  0  0
  187.9390  176.7450  135.5470 C   0  0  1  0  0  3  0  0  0  0  0  0
  187.3260  178.1050  135.7440 C   0  0  0  0  0  0  0  0  0  0  0  0
  186.6590  178.6140  134.8580 O   0  0  0  0  0  0  0  0  0  0  0  0
  187.5180  178.8450  137.0290 C   0  0  2  0  0  3  0  0  0  0  0  0
  188.7000  179.5900  136.9820 O   0  0  0  0  0  1  0  0  0  0  0  0
  187.5470  177.8770  138.2010 C   0  0  0  0  0  2  0  0  0  0  0  0
  187.4760  178.6320  139.5140 C   0  0  0  0  0  2  0  0  0  0  0  0
  189.7320  177.9410  139.8000 O   0  0  0  0  0  0  0  0  0  0  0  0
  188.6540  178.2860  140.3530 C   0  0  0  0  0  0  0  0  0  0  0  0
  188.5450  178.3280  141.7440 O   0  0  0  0  0  0  0  0  0  0  0  0
  189.2540  177.4260  142.5790 C   0  0  0  0  0  1  0  0  0  0  0  0
  189.1350  176.7950  134.5940 C   0  0  0  0  0  2  0  0  0  0  0  0
  192.6160  176.1630  140.2370 C   0  0  0  0  0  3  0  0  0  0  0  0
  191.6300  175.4050  139.7310 C   0  0  0  0  0  3  0  0  0  0  0  0
  189.8340  174.7460  135.8540 C   0  0  0  0  0  2  0  0  0  0  0  0
  192.3610  176.1700  136.0680 C   0  0  1  0  0  0  0  0  0  0  0  0
  192.1370  175.2400  137.2760 C   0  0  2  0  0  0  0  0  0  0  0  0
  190.3320  176.0040  135.0960 C   0  0  2  0  0  3  0  0  0  0  0  0
  190.8840  173.6180  136.1760 C   0  0  2  0  0  3  0  0  0  0  0  0
  193.3470  177.2990  139.5500 C   0  0  0  0  0  2  0  0  0  0  0  0
  193.0230  177.5100  138.0720 C   0  0  0  0  0  2  0  0  0  0  0  0
  192.1590  173.9310  136.7680 O   0  0  0  0  0  0  0  0  0  0  0  0
  191.0670  175.5600  138.3500 C   0  0  0  0  0  2  0  0  0  0  0  0
  191.1520  176.8600  135.8830 O   0  0  0  0  0  0  0  0  0  0  0  0
  193.2980  176.2430  137.2650 C   0  0  2  0  0  3  0  0  0  0  0  0
  193.2920  174.3230  134.7660 F   0  0  0  0  0  0  0  0  0  0  0  0
  193.1120  175.6980  134.7990 C   0  0  2  0  0  3  0  0  0  0  0  0
  194.4640  176.3830  134.7080 C   0  0  0  0  0  1  0  0  0  0  0  0
  192.0110  171.4890  135.4150 C   0  0  0  0  0  1  0  0  0  0  0  0
  190.9760  172.5500  135.0860 C   0  0  1  0  0  3  0  0  0  0  0  0
  189.4830  170.6040  134.9280 C   0  0  0  0  0  2  0  0  0  0  0  0
  189.6380  171.9250  134.8580 C   0  0  0  0  0  3  0  0  0  0  0  0
  2  1  2  0  0  0  0
  3  2  1  0  0  0  0
  4  6  1  0  0  0  0
  4  2  1  0  0  0  0
  5  4  1  0  0  0  0
  5  6  1  0  0  0  0
  8 14  1  0  0  0  0
 11 12  1  0  0  0  0
 11 10  2  0  0  0  0
 12 20  1  0  0  0  0
 13  4  1  1  0  0  0
 13 16  1  0  0  0  0
 13 15  1  0  0  0  0
 17 14  2  0  0  0  0
 17 22  1  0  0  0  0
 18 25  1  0  0  0  0
 19 18  1  6  0  0  0
 20 28  1  1  0  0  0
 21  9  1  6  0  0  0
 21 19  1  0  0  0  0
 21 16  1  0  0  0  0
 22 26  1  6  0  0  0
 22 11  1  0  0  0  0
 23  7  1  6  0  0  0
 23  9  1  0  0  0  0
 23 25  1  0  0  0  0
 24 20  1  0  0  0  0
 25  8  1  6  0  0  0
 27 19  1  0  0  0  0
 27 24  1  1  0  0  0
 27 15  1  0  0  0  0
 28 30  1  0  0  0  0
 29 34  1  0  0  0  0
 30 33  1  0  0  0  0
 31 29  1  0  0  0  0
 33 31  1  0  0  0  0
 33 35  1  0  0  0  0
 34 32  1  0  0  0  0
 35 37  1  0  0  0  0
 36 30  2  0  0  0  0
 37 34  2  0  0  0  0
 38 49  1  6  0  0  0
 38 39  1  0  0  0  0
 38  3  1  0  0  0  0
 39 41  1  0  0  0  0
 40 39  2  0  0  0  0
 41 42  1  6  0  0  0
 41 43  1  0  0  0  0
 43 44  1  0  0  0  0
 44 46  1  0  0  0  0
 45 46  2  0  0  0  0
 46 47  1  0  0  0  0
 47 48  1  0  0  0  0
 51 50  2  0  0  0  0
 52 56  1  0  0  0  0
 53 64  1  6  0  0  0
 53 62  1  0  0  0  0
 53 54  1  0  0  0  0
 54 60  1  1  0  0  0
 55 49  1  1  0  0  0
 55 52  1  0  0  0  0
 55 61  1  0  0  0  0
 56 67  1  6  0  0  0
 56 59  1  0  0  0  0
 57 50  1  0  0  0  0
 58 57  1  0  0  0  0
 59 54  1  0  0  0  0
 60 51  1  0  0  0  0
 61 53  1  0  0  0  0
 62 54  1  0  0  0  0
 62 58  1  1  0  0  0
 63 64  1  0  0  0  0
 64 65  1  1  0  0  0
 67 66  1  1  0  0  0
 69 68  2  0  0  0  0
 69 67  1  0  0  0  0
M  END
>  <MODEL>
8

>  <REMARK>
 VINA RESULT:      -0.6      2.858      9.394
  Name = 
  16 active torsions:
  status: ('A' for Active; 'I' for Inactive)
    1  A    between atoms: C_4  and  C_67
    2  A    between atoms: C_10  and  C_45
    3  A    between atoms: C_10  and  C_59
    4  A    between atoms: C_18  and  C_19
    5  A    between atoms: C_19  and  C_37
    6  A    between atoms: C_21  and  C_52
    7  A    between atoms: C_21  and  C_59
    8  A    between atoms: C_22  and  C_45
    9  A    between atoms: C_22  and  C_49
   10  A    between atoms: C_22  and  N_60
   11  A    between atoms: C_23  and  C_29
   12  A    between atoms: C_25  and  C_49
   13  A    between atoms: C_27  and  C_36
   14  A    between atoms: C_36  and  C_57
   15  A    between atoms: C_47  and  C_67
   16  A    between atoms: O_50  and  C_52
                            x       y       z     vdW  Elec       q    Type
                         _______ _______ _______ _____ _____    ______ ____

>  <TORSDO>
F 16

$$$$
=
 OpenBabel11062417063D

 69 76  0  0  1  0  0  0  0  0999 V2000
  186.0030  179.1320  136.6580 O   0  0  0  0  0  0  0  0  0  0  0  0
  185.3980  178.6850  137.6680 C   0  0  0  0  0  0  0  0  0  0  0  0
  185.7250  179.2180  138.9560 N   0  0  0  0  0  2  0  0  0  0  0  0
  184.3770  177.5980  137.4900 C   0  0  0  0  0  0  0  0  0  0  0  0
  183.2180  177.6290  138.4710 C   0  0  0  0  0  2  0  0  0  0  0  0
  183.0040  178.0720  137.0370 C   0  0  0  0  0  2  0  0  0  0  0  0
  183.3300  171.1900  136.7740 O   0  0  0  0  0  1  0  0  0  0  0  0
  185.5690  170.4700  135.0890 C   0  0  0  0  0  2  0  0  0  0  0  0
  183.3360  173.5000  136.1520 C   0  0  0  0  0  2  0  0  0  0  0  0
  190.7710  172.8000  135.5650 O   0  0  0  0  0  0  0  0  0  0  0  0
  189.6170  172.3960  135.2520 C   0  0  0  0  0  0  0  0  0  0  0  0
  188.5780  173.3170  135.0770 O   0  0  0  0  0  0  0  0  0  0  0  0
  184.8270  176.2110  137.0060 C   0  0  2  0  0  3  0  0  0  0  0  0
  186.9760  170.5300  134.5940 C   0  0  0  0  0  3  0  0  0  0  0  0
  186.2050  176.1880  136.7320 O   0  0  0  0  0  0  0  0  0  0  0  0
  184.1060  175.8290  135.8570 O   0  0  0  0  0  0  0  0  0  0  0  0
  187.9710  170.6150  135.4720 C   0  0  0  0  0  3  0  0  0  0  0  0
  185.9040  172.6270  136.1540 O   0  0  0  0  0  0  0  0  0  0  0  0
  185.8410  173.9810  135.7580 C   0  0  1  0  0  3  0  0  0  0  0  0
  188.6320  174.6330  135.6190 C   0  0  2  0  0  3  0  0  0  0  0  0
  184.3680  174.4690  135.5630 C   0  0  1  0  0  3  0  0  0  0  0  0
  189.3590  170.9270  135.0260 C   0  0  2  0  0  3  0  0  0  0  0  0
  183.6140  172.0500  135.7100 C   0  0  1  0  0  3  0  0  0  0  0  0
  187.9810  174.6910  136.8820 O   0  0  0  0  0  0  0  0  0  0  0  0
  185.0800  171.9030  135.2750 C   0  0  2  0  0  3  0  0  0  0  0  0
  190.3290  170.0700  135.8220 C   0  0  0  0  0  1  0  0  0  0  0  0
  186.5650  174.8380  136.8140 C   0  0  1  0  0  3  0  0  0  0  0  0
  188.1900  175.6980  134.6100 C   0  0  0  0  0  2  0  0  0  0  0  0
  190.5730  176.1860  137.8790 C   0  0  0  0  0  2  0  0  0  0  0  0
  188.2780  177.0590  135.2160 C   0  0  0  0  0  0  0  0  0  0  0  0
  190.4390  176.4830  136.3880 C   0  0  0  0  0  2  0  0  0  0  0  0
  190.7820  177.3560  140.1670 C   0  0  0  0  0  1  0  0  0  0  0  0
  189.3050  177.3750  136.1690 N   0  0  0  0  0  0  0  0  0  0  0  0
  190.3960  177.4210  138.7300 C   0  0  0  0  0  0  0  0  0  0  0  0
  189.3160  178.6680  136.8480 C   0  0  0  0  0  2  0  0  0  0  0  0
  187.4060  177.9170  134.9160 O   0  0  0  0  0  0  0  0  0  0  0  0
  189.7650  178.5180  138.2770 C   0  0  0  0  0  3  0  0  0  0  0  0
  185.1940  178.7350  140.2280 C   0  0  1  0  0  3  0  0  0  0  0  0
  186.3200  178.3790  141.1590 C   0  0  0  0  0  0  0  0  0  0  0  0
  187.4800  178.5290  140.8100 O   0  0  0  0  0  0  0  0  0  0  0  0
  186.0340  177.8460  142.5270 C   0  0  2  0  0  3  0  0  0  0  0  0
  185.5990  178.8770  143.3640 O   0  0  0  0  0  1  0  0  0  0  0  0
  187.2720  177.1790  143.1060 C   0  0  0  0  0  2  0  0  0  0  0  0
  187.4460  177.5600  144.5630 C   0  0  0  0  0  2  0  0  0  0  0  0
  189.4910  176.3510  144.4660 O   0  0  0  0  0  0  0  0  0  0  0  0
  188.8510  177.3070  144.9810 C   0  0  0  0  0  0  0  0  0  0  0  0
  189.4370  178.1190  145.9540 O   0  0  0  0  0  0  0  0  0  0  0  0
  189.5020  177.7280  147.3160 C   0  0  0  0  0  1  0  0  0  0  0  0
  184.2270  179.7370  140.8640 C   0  0  0  0  0  2  0  0  0  0  0  0
  178.9310  179.0780  144.8490 C   0  0  0  0  0  3  0  0  0  0  0  0
  179.2860  180.0810  144.0290 C   0  0  0  0  0  3  0  0  0  0  0  0
  181.8840  180.5870  140.6100 C   0  0  0  0  0  2  0  0  0  0  0  0
  181.1930  177.9170  141.5350 C   0  0  1  0  0  0  0  0  0  0  0  0
  180.1260  178.9480  141.9490 C   0  0  2  0  0  0  0  0  0  0  0  0
  182.7700  179.3200  140.7410 C   0  0  2  0  0  3  0  0  0  0  0  0
  180.3910  180.3940  140.1470 C   0  0  2  0  0  3  0  0  0  0  0  0
  179.5670  177.7070  144.9530 C   0  0  0  0  0  2  0  0  0  0  0  0
  180.6380  177.3810  143.9130 C   0  0  0  0  0  2  0  0  0  0  0  0
  179.5420  179.4040  140.7570 O   0  0  0  0  0  0  0  0  0  0  0  0
  180.4120  180.0080  143.0420 C   0  0  0  0  0  2  0  0  0  0  0  0
  182.4330  178.4960  141.8500 O   0  0  0  0  0  0  0  0  0  0  0  0
  180.0840  177.5150  142.4960 C   0  0  2  0  0  3  0  0  0  0  0  0
  179.8750  177.3010  139.5700 F   0  0  0  0  0  0  0  0  0  0  0  0
  181.0950  177.1250  140.2070 C   0  0  2  0  0  3  0  0  0  0  0  0
  181.3190  175.6450  140.4650 C   0  0  0  0  0  1  0  0  0  0  0  0
  179.2600  179.4270  138.1060 C   0  0  0  0  0  1  0  0  0  0  0  0
  180.2130  180.4860  138.6320 C   0  0  1  0  0  3  0  0  0  0  0  0
  179.0560  182.6020  139.1020 C   0  0  0  0  0  2  0  0  0  0  0  0
  179.7450  181.8510  138.2460 C   0  0  0  0  0  3  0  0  0  0  0  0
  1  2  2  0  0  0  0
  2  3  1  0  0  0  0
  3 38  1  0  0  0  0
  4  2  1  0  0  0  0
  4  5  1  0  0  0  0
  6  4  1  0  0  0  0
  6  5  1  0  0  0  0
 11 10  2  0  0  0  0
 12 11  1  0  0  0  0
 12 20  1  0  0  0  0
 13  4  1  6  0  0  0
 14  8  1  0  0  0  0
 14 17  2  0  0  0  0
 15 13  1  0  0  0  0
 16 13  1  0  0  0  0
 19 18  1  1  0  0  0
 19 27  1  0  0  0  0
 20 28  1  6  0  0  0
 20 24  1  0  0  0  0
 21 19  1  0  0  0  0
 21 16  1  0  0  0  0
 21  9  1  1  0  0  0
 22 11  1  0  0  0  0
 22 17  1  0  0  0  0
 22 26  1  1  0  0  0
 23  9  1  0  0  0  0
 23  7  1  1  0  0  0
 25  8  1  1  0  0  0
 25 23  1  0  0  0  0
 25 18  1  0  0  0  0
 27 15  1  6  0  0  0
 27 24  1  0  0  0  0
 28 30  1  0  0  0  0
 29 34  1  0  0  0  0
 30 33  1  0  0  0  0
 31 29  1  0  0  0  0
 33 31  1  0  0  0  0
 33 35  1  0  0  0  0
 34 32  1  0  0  0  0
 35 37  1  0  0  0  0
 36 30  2  0  0  0  0
 37 34  2  0  0  0  0
 38 49  1  1  0  0  0
 38 39  1  0  0  0  0
 39 41  1  0  0  0  0
 40 39  2  0  0  0  0
 41 43  1  0  0  0  0
 41 42  1  1  0  0  0
 43 44  1  0  0  0  0
 44 46  1  0  0  0  0
 45 46  2  0  0  0  0
 46 47  1  0  0  0  0
 47 48  1  0  0  0  0
 50 57  1  0  0  0  0
 51 50  2  0  0  0  0
 52 55  1  0  0  0  0
 53 64  1  6  0  0  0
 53 61  1  0  0  0  0
 53 54  1  0  0  0  0
 53 62  1  0  0  0  0
 54 62  1  0  0  0  0
 54 60  1  1  0  0  0
 55 49  1  1  0  0  0
 55 61  1  0  0  0  0
 56 67  1  6  0  0  0
 56 52  1  0  0  0  0
 56 59  1  0  0  0  0
 58 57  1  0  0  0  0
 59 54  1  0  0  0  0
 60 51  1  0  0  0  0
 62 58  1  1  0  0  0
 63 64  1  0  0  0  0
 64 65  1  1  0  0  0
 67 66  1  1  0  0  0
 69 67  1  0  0  0  0
 69 68  2  0  0  0  0
M  END
>  <MODEL>
9

>  <REMARK>
 VINA RESULT:      -0.5      2.446      8.380
  Name = 
  16 active torsions:
  status: ('A' for Active; 'I' for Inactive)
    1  A    between atoms: C_4  and  C_67
    2  A    between atoms: C_10  and  C_45
    3  A    between atoms: C_10  and  C_59
    4  A    between atoms: C_18  and  C_19
    5  A    between atoms: C_19  and  C_37
    6  A    between atoms: C_21  and  C_52
    7  A    between atoms: C_21  and  C_59
    8  A    between atoms: C_22  and  C_45
    9  A    between atoms: C_22  and  C_49
   10  A    between atoms: C_22  and  N_60
   11  A    between atoms: C_23  and  C_29
   12  A    between atoms: C_25  and  C_49
   13  A    between atoms: C_27  and  C_36
   14  A    between atoms: C_36  and  C_57
   15  A    between atoms: C_47  and  C_67
   16  A    between atoms: O_50  and  C_52
                            x       y       z     vdW  Elec       q    Type
                         _______ _______ _______ _____ _____    ______ ____

>  <TORSDO>
F 16

$$$$
