=
 OpenBabel11062415483D

 44 47  0  0  1  0  0  0  0  0999 V2000
  186.7550  177.3720  145.1070 C   0  0  2  0  0  3  0  0  0  0  0  0
  189.8200  176.8180  144.5510 C   0  0  1  0  0  3  0  0  0  0  0  0
  187.9150  178.3270  145.4500 C   0  0  0  0  0  2  0  0  0  0  0  0
  189.2670  177.6490  145.7220 C   0  0  1  0  0  3  0  0  0  0  0  0
  187.0550  176.3810  143.9670 C   0  0  0  0  0  2  0  0  0  0  0  0
  189.2660  177.1750  143.1830 C   0  0  0  0  0  0  0  0  0  0  0  0
  187.9680  176.9640  142.9200 C   0  0  0  0  0  3  0  0  0  0  0  0
  189.1860  176.8680  146.8570 F   0  0  0  0  0  0  0  0  0  0  0  0
  185.5880  178.1670  144.7570 N   0  0  0  0  0  2  0  0  0  0  0  0
  183.4140  179.2320  145.2940 N   0  0  0  0  0  2  0  0  0  0  0  0
  184.8410  178.4520  146.9500 O   0  0  0  0  0  0  0  0  0  0  0  0
  184.6290  178.6150  145.7200 C   0  0  0  0  0  0  0  0  0  0  0  0
  182.1930  178.6460  143.3380 C   0  0  0  0  0  3  0  0  0  0  0  0
  183.1060  179.4070  143.9120 C   0  0  0  0  0  3  0  0  0  0  0  0
  181.8800  178.8260  141.8960 C   0  0  0  0  0  2  0  0  0  0  0  0
  182.8660  178.0650  141.0290 C   0  0  0  0  0  2  0  0  0  0  0  0
  183.4500  178.9810  139.9700 C   0  0  0  0  0  2  0  0  0  0  0  0
  185.4150  179.4980  141.4020 O   0  0  0  0  0  1  0  0  0  0  0  0
  184.9180  179.1140  140.1650 C   0  0  0  0  0  0  0  0  0  0  0  0
  185.7060  178.9060  139.2070 O   0  0  0  0  0  0  0  0  0  0  0  0
  191.9170  175.4390  144.1830 N   0  0  0  0  0  1  0  0  0  0  0  0
  191.3060  176.6570  144.5930 C   0  0  0  0  0  0  0  0  0  0  0  0
  192.0160  177.5950  145.0350 O   0  0  0  0  0  0  0  0  0  0  0  0
  190.0860  177.8880  142.1550 C   0  0  0  0  0  2  0  0  0  0  0  0
  190.3740  176.6260  139.9500 N   0  0  0  0  0  0  0  0  0  0  0  0
  191.5150  177.5270  140.1790 C   0  0  2  0  0  3  0  0  0  0  0  0
  192.6910  176.8680  139.8730 F   0  0  0  0  0  0  0  0  0  0  0  0
  190.8880  176.8780  141.3240 C   0  0  1  0  0  3  0  0  0  0  0  0
  189.2530  177.4830  139.5620 C   0  0  0  0  0  2  0  0  0  0  0  0
  188.4160  176.8140  138.4760 C   0  0  0  0  0  2  0  0  0  0  0  0
  189.5660  177.5790  135.0130 O   0  0  0  0  0  1  0  0  0  0  0  0
  188.4470  177.5880  137.1580 C   0  0  1  0  0  0  0  0  0  0  0  0
  188.9100  176.7760  135.9490 C   0  0  1  0  0  3  0  0  0  0  0  0
  187.4480  177.2090  136.0610 C   0  0  1  0  0  3  0  0  0  0  0  0
  188.8040  179.0680  137.1920 C   0  0  0  0  0  1  0  0  0  0  0  0
  186.5520  174.8960  135.5000 C   0  0  0  0  0  3  0  0  0  0  0  0
  183.0200  175.6040  138.0120 C   0  0  0  0  0  1  0  0  0  0  0  0
  186.0170  173.4360  137.4100 C   0  0  0  0  0  2  0  0  0  0  0  0
  186.3450  173.6640  135.9670 C   0  0  0  0  0  3  0  0  0  0  0  0
  184.2350  175.3110  137.5670 C   0  0  0  0  0  0  0  0  0  0  0  0
  186.4470  176.0800  136.4130 C   0  0  2  0  0  3  0  0  0  0  0  0
  184.4600  177.4400  136.5640 O   0  0  0  0  0  0  0  0  0  0  0  0
  184.6960  173.9620  137.7400 N   0  0  0  0  0  0  0  0  0  0  0  0
  185.0220  176.3530  136.8550 C   0  0  0  0  0  0  0  0  0  0  0  0
  1  9  1  6  0  0  0
  1  3  1  0  0  0  0
  2 22  1  6  0  0  0
  2  4  1  0  0  0  0
  3  4  1  0  0  0  0
  4  8  1  1  0  0  0
  5  1  1  0  0  0  0
  6  2  1  0  0  0  0
  7  6  2  0  0  0  0
  7  5  1  0  0  0  0
  9 12  1  0  0  0  0
 10 12  1  0  0  0  0
 12 11  2  0  0  0  0
 13 14  2  0  0  0  0
 14 10  1  0  0  0  0
 15 13  1  0  0  0  0
 16 15  1  0  0  0  0
 17 19  1  0  0  0  0
 17 16  1  0  0  0  0
 19 18  1  0  0  0  0
 20 19  2  0  0  0  0
 21 22  1  0  0  0  0
 22 23  2  0  0  0  0
 24  6  1  0  0  0  0
 25 26  1  0  0  0  0
 25 28  1  0  0  0  0
 26 27  1  6  0  0  0
 26 28  1  0  0  0  0
 28 24  1  1  0  0  0
 29 25  1  0  0  0  0
 30 29  1  0  0  0  0
 32 35  1  1  0  0  0
 32 30  1  0  0  0  0
 33 31  1  6  0  0  0
 33 34  1  0  0  0  0
 33 32  1  0  0  0  0
 34 41  1  1  0  0  0
 34 32  1  0  0  0  0
 36 39  2  0  0  0  0
 38 43  1  0  0  0  0
 39 38  1  0  0  0  0
 40 43  2  0  0  0  0
 40 37  1  0  0  0  0
 41 36  1  6  0  0  0
 41 44  1  0  0  0  0
 42 44  2  0  0  0  0
 44 40  1  0  0  0  0
M  END
>  <MODEL>
1

>  <REMARK>
 VINA RESULT:      -8.4      0.000      0.000
  Name = 
  13 active torsions:
  status: ('A' for Active; 'I' for Inactive)
    1  A    between atoms: C_2  and  C_21
    2  A    between atoms: N_3  and  C_44
    3  A    between atoms: N_7  and  C_13
    4  A    between atoms: C_8  and  C_9
    5  A    between atoms: C_9  and  C_44
    6  A    between atoms: C_10  and  C_21
    7  A    between atoms: C_10  and  C_29
    8  A    between atoms: N_11  and  C_20
    9  A    between atoms: C_14  and  C_38
   10  A    between atoms: C_18  and  C_29
   11  A    between atoms: C_19  and  C_25
   12  A    between atoms: C_19  and  C_33
   13  A    between atoms: C_27  and  C_30
                            x       y       z     vdW  Elec       q    Type
                         _______ _______ _______ _____ _____    ______ ____

>  <TORSDO>
F 13

$$$$
=
 OpenBabel11062415483D

 44 47  0  0  1  0  0  0  0  0999 V2000
  186.7670  177.2870  145.1810 C   0  0  2  0  0  3  0  0  0  0  0  0
  189.8600  176.7270  144.8230 C   0  0  1  0  0  3  0  0  0  0  0  0
  187.9060  178.1910  145.6890 C   0  0  0  0  0  2  0  0  0  0  0  0
  189.2260  177.4720  146.0100 C   0  0  1  0  0  3  0  0  0  0  0  0
  187.1450  176.3850  143.9920 C   0  0  0  0  0  2  0  0  0  0  0  0
  189.4190  177.2010  143.4490 C   0  0  0  0  0  0  0  0  0  0  0  0
  188.1440  177.0340  143.0700 C   0  0  0  0  0  3  0  0  0  0  0  0
  189.0470  176.6040  147.0690 F   0  0  0  0  0  0  0  0  0  0  0  0
  185.6400  178.1260  144.8070 N   0  0  0  0  0  2  0  0  0  0  0  0
  183.5030  179.2850  145.3010 N   0  0  0  0  0  2  0  0  0  0  0  0
  184.8700  178.4590  146.9860 O   0  0  0  0  0  0  0  0  0  0  0  0
  184.6850  178.6210  145.7510 C   0  0  0  0  0  0  0  0  0  0  0  0
  182.3930  178.6420  143.2970 C   0  0  0  0  0  3  0  0  0  0  0  0
  183.2250  179.4620  143.9130 C   0  0  0  0  0  3  0  0  0  0  0  0
  182.1110  178.8250  141.8490 C   0  0  0  0  0  2  0  0  0  0  0  0
  183.3280  178.4730  141.0130 C   0  0  0  0  0  2  0  0  0  0  0  0
  182.9780  178.5090  139.5370 C   0  0  0  0  0  2  0  0  0  0  0  0
  181.9390  180.5020  138.4730 O   0  0  0  0  0  0  0  0  0  0  0  0
  183.0610  179.9040  139.0290 C   0  0  0  0  0  0  0  0  0  0  0  0
  184.1510  180.5320  139.0770 O   0  0  0  0  0  1  0  0  0  0  0  0
  191.9700  175.3630  144.4750 N   0  0  0  0  0  1  0  0  0  0  0  0
  191.3360  176.5390  144.9670 C   0  0  0  0  0  0  0  0  0  0  0  0
  192.0140  177.4110  145.5670 O   0  0  0  0  0  0  0  0  0  0  0  0
  190.3250  177.9800  142.5480 C   0  0  0  0  0  2  0  0  0  0  0  0
  190.8450  176.9100  140.2850 N   0  0  0  0  0  0  0  0  0  0  0  0
  191.9670  177.7560  140.7230 C   0  0  2  0  0  3  0  0  0  0  0  0
  193.1600  177.0960  140.4940 F   0  0  0  0  0  0  0  0  0  0  0  0
  191.2010  177.0260  141.7260 C   0  0  1  0  0  3  0  0  0  0  0  0
  189.7910  177.8280  139.8520 C   0  0  0  0  0  2  0  0  0  0  0  0
  188.5670  177.0520  139.3750 C   0  0  0  0  0  2  0  0  0  0  0  0
  188.0720  179.6820  136.7780 O   0  0  0  0  0  1  0  0  0  0  0  0
  187.8560  177.7440  138.2110 C   0  0  1  0  0  0  0  0  0  0  0  0
  188.7620  178.5960  137.3230 C   0  0  1  0  0  3  0  0  0  0  0  0
  188.1740  177.2920  136.7840 C   0  0  1  0  0  3  0  0  0  0  0  0
  186.4220  178.2130  138.4120 C   0  0  0  0  0  1  0  0  0  0  0  0
  190.5580  176.5640  136.2790 C   0  0  0  0  0  3  0  0  0  0  0  0
  189.2350  172.4070  135.7810 C   0  0  0  0  0  2  0  0  0  0  0  0
  191.4680  174.7490  137.6720 C   0  0  0  0  0  2  0  0  0  0  0  0
  191.6260  175.9210  136.7530 C   0  0  0  0  0  3  0  0  0  0  0  0
  189.6290  173.5740  136.2760 C   0  0  0  0  0  0  0  0  0  0  0  0
  189.1770  176.1180  136.6500 C   0  0  2  0  0  3  0  0  0  0  0  0
  187.8370  174.7040  135.2260 O   0  0  0  0  0  0  0  0  0  0  0  0
  190.8810  173.6080  136.9760 N   0  0  0  0  0  2  0  0  0  0  0  0
  188.8050  174.7870  136.0240 C   0  0  0  0  0  0  0  0  0  0  0  0
  1  9  1  6  0  0  0
  1  3  1  0  0  0  0
  2 22  1  6  0  0  0
  2  4  1  0  0  0  0
  3  4  1  0  0  0  0
  4  8  1  1  0  0  0
  5  1  1  0  0  0  0
  6  2  1  0  0  0  0
  7  6  2  0  0  0  0
  7  5  1  0  0  0  0
  9 12  1  0  0  0  0
 10 12  1  0  0  0  0
 12 11  2  0  0  0  0
 13 14  2  0  0  0  0
 14 10  1  0  0  0  0
 15 13  1  0  0  0  0
 16 15  1  0  0  0  0
 17 16  1  0  0  0  0
 18 19  2  0  0  0  0
 19 20  1  0  0  0  0
 19 17  1  0  0  0  0
 21 22  1  0  0  0  0
 22 23  2  0  0  0  0
 24  6  1  0  0  0  0
 25 26  1  0  0  0  0
 25 28  1  0  0  0  0
 26 27  1  6  0  0  0
 26 28  1  0  0  0  0
 28 24  1  1  0  0  0
 29 25  1  0  0  0  0
 30 29  1  0  0  0  0
 32 35  1  1  0  0  0
 32 30  1  0  0  0  0
 33 31  1  6  0  0  0
 33 32  1  0  0  0  0
 34 41  1  1  0  0  0
 34 33  1  0  0  0  0
 34 32  1  0  0  0  0
 36 39  2  0  0  0  0
 37 40  2  0  0  0  0
 39 38  1  0  0  0  0
 40 43  1  0  0  0  0
 41 36  1  6  0  0  0
 42 44  2  0  0  0  0
 43 38  1  0  0  0  0
 44 40  1  0  0  0  0
 44 41  1  0  0  0  0
M  END
>  <MODEL>
2

>  <REMARK>
 VINA RESULT:      -8.2      1.854      2.697
  Name = 
  13 active torsions:
  status: ('A' for Active; 'I' for Inactive)
    1  A    between atoms: C_2  and  C_21
    2  A    between atoms: N_3  and  C_44
    3  A    between atoms: N_7  and  C_13
    4  A    between atoms: C_8  and  C_9
    5  A    between atoms: C_9  and  C_44
    6  A    between atoms: C_10  and  C_21
    7  A    between atoms: C_10  and  C_29
    8  A    between atoms: N_11  and  C_20
    9  A    between atoms: C_14  and  C_38
   10  A    between atoms: C_18  and  C_29
   11  A    between atoms: C_19  and  C_25
   12  A    between atoms: C_19  and  C_33
   13  A    between atoms: C_27  and  C_30
                            x       y       z     vdW  Elec       q    Type
                         _______ _______ _______ _____ _____    ______ ____

>  <TORSDO>
F 13

$$$$
=
 OpenBabel11062415483D

 44 47  0  0  1  0  0  0  0  0999 V2000
  186.7100  177.3130  145.0930 C   0  0  2  0  0  3  0  0  0  0  0  0
  189.7810  176.7710  144.5640 C   0  0  1  0  0  3  0  0  0  0  0  0
  187.8650  178.2610  145.4680 C   0  0  0  0  0  2  0  0  0  0  0  0
  189.2140  177.5800  145.7430 C   0  0  1  0  0  3  0  0  0  0  0  0
  187.0240  176.3430  143.9390 C   0  0  0  0  0  2  0  0  0  0  0  0
  189.2440  177.1530  143.1970 C   0  0  0  0  0  0  0  0  0  0  0  0
  187.9490  176.9460  142.9140 C   0  0  0  0  0  3  0  0  0  0  0  0
  189.1200  176.7770  146.8630 F   0  0  0  0  0  0  0  0  0  0  0  0
  185.5460  178.1130  144.7440 N   0  0  0  0  0  2  0  0  0  0  0  0
  183.4030  179.2320  145.2960 N   0  0  0  0  0  2  0  0  0  0  0  0
  184.8610  178.4890  146.9430 O   0  0  0  0  0  0  0  0  0  0  0  0
  184.6200  178.6110  145.7140 C   0  0  0  0  0  0  0  0  0  0  0  0
  181.9210  178.8700  143.4700 C   0  0  0  0  0  3  0  0  0  0  0  0
  183.0630  179.3620  143.9170 C   0  0  0  0  0  3  0  0  0  0  0  0
  181.5730  179.0000  142.0310 C   0  0  0  0  0  2  0  0  0  0  0  0
  182.5770  178.2640  141.1620 C   0  0  0  0  0  2  0  0  0  0  0  0
  182.7890  179.0100  139.8580 C   0  0  0  0  0  2  0  0  0  0  0  0
  184.6850  178.2730  138.4290 O   0  0  0  0  0  0  0  0  0  0  0  0
  184.2330  179.0210  139.5070 C   0  0  0  0  0  0  0  0  0  0  0  0
  185.0490  179.6830  140.2000 O   0  0  0  0  0  1  0  0  0  0  0  0
  191.8950  175.4600  144.0670 N   0  0  0  0  0  1  0  0  0  0  0  0
  191.2670  176.6110  144.6210 C   0  0  0  0  0  0  0  0  0  0  0  0
  191.9600  177.4830  145.2020 O   0  0  0  0  0  0  0  0  0  0  0  0
  190.0750  177.8860  142.1910 C   0  0  0  0  0  2  0  0  0  0  0  0
  189.7480  178.2200  139.6780 N   0  0  0  0  0  0  0  0  0  0  0  0
  188.7330  177.2970  140.2100 C   0  0  2  0  0  3  0  0  0  0  0  0
  187.4970  177.6150  139.6780 F   0  0  0  0  0  0  0  0  0  0  0  0
  189.1920  178.3980  141.0470 C   0  0  1  0  0  3  0  0  0  0  0  0
  191.0000  177.4620  139.6330 C   0  0  0  0  0  2  0  0  0  0  0  0
  190.7760  176.0940  138.9970 C   0  0  0  0  0  2  0  0  0  0  0  0
  192.9810  173.9730  136.8650 O   0  0  0  0  0  1  0  0  0  0  0  0
  191.7650  175.8100  137.8650 C   0  0  1  0  0  0  0  0  0  0  0  0
  191.7270  174.3810  137.3250 C   0  0  1  0  0  3  0  0  0  0  0  0
  191.2160  175.5360  136.4630 C   0  0  1  0  0  3  0  0  0  0  0  0
  193.1100  176.5220  137.8800 C   0  0  0  0  0  1  0  0  0  0  0  0
  189.0760  174.3670  135.7390 C   0  0  0  0  0  3  0  0  0  0  0  0
  186.9260  178.1950  135.7460 C   0  0  0  0  0  2  0  0  0  0  0  0
  187.0970  174.7280  137.1590 C   0  0  0  0  0  2  0  0  0  0  0  0
  187.8700  173.9570  136.1350 C   0  0  0  0  0  3  0  0  0  0  0  0
  187.5070  177.0540  136.0930 C   0  0  0  0  0  0  0  0  0  0  0  0
  189.6760  175.6170  136.3070 C   0  0  2  0  0  3  0  0  0  0  0  0
  189.5740  177.7450  135.1740 O   0  0  0  0  0  0  0  0  0  0  0  0
  186.6690  176.0220  136.6340 N   0  0  0  0  0  2  0  0  0  0  0  0
  188.9620  176.8720  135.8420 C   0  0  0  0  0  0  0  0  0  0  0  0
  1  9  1  6  0  0  0
  1  3  1  0  0  0  0
  2 22  1  6  0  0  0
  2  4  1  0  0  0  0
  3  4  1  0  0  0  0
  4  8  1  1  0  0  0
  5  1  1  0  0  0  0
  6  2  1  0  0  0  0
  7  6  2  0  0  0  0
  7  5  1  0  0  0  0
  9 12  1  0  0  0  0
 10 12  1  0  0  0  0
 12 11  2  0  0  0  0
 13 14  2  0  0  0  0
 14 10  1  0  0  0  0
 15 13  1  0  0  0  0
 16 15  1  0  0  0  0
 17 16  1  0  0  0  0
 18 19  2  0  0  0  0
 19 17  1  0  0  0  0
 19 20  1  0  0  0  0
 21 22  1  0  0  0  0
 22 23  2  0  0  0  0
 24  6  1  0  0  0  0
 25 26  1  0  0  0  0
 25 28  1  0  0  0  0
 26 27  1  6  0  0  0
 26 28  1  0  0  0  0
 28 24  1  1  0  0  0
 29 25  1  0  0  0  0
 30 29  1  0  0  0  0
 32 35  1  1  0  0  0
 32 30  1  0  0  0  0
 33 31  1  6  0  0  0
 33 32  1  0  0  0  0
 34 41  1  1  0  0  0
 34 33  1  0  0  0  0
 34 32  1  0  0  0  0
 36 39  2  0  0  0  0
 37 40  2  0  0  0  0
 39 38  1  0  0  0  0
 40 43  1  0  0  0  0
 41 36  1  6  0  0  0
 42 44  2  0  0  0  0
 43 38  1  0  0  0  0
 44 40  1  0  0  0  0
 44 41  1  0  0  0  0
M  END
>  <MODEL>
3

>  <REMARK>
 VINA RESULT:      -7.8      1.756      2.563
  Name = 
  13 active torsions:
  status: ('A' for Active; 'I' for Inactive)
    1  A    between atoms: C_2  and  C_21
    2  A    between atoms: N_3  and  C_44
    3  A    between atoms: N_7  and  C_13
    4  A    between atoms: C_8  and  C_9
    5  A    between atoms: C_9  and  C_44
    6  A    between atoms: C_10  and  C_21
    7  A    between atoms: C_10  and  C_29
    8  A    between atoms: N_11  and  C_20
    9  A    between atoms: C_14  and  C_38
   10  A    between atoms: C_18  and  C_29
   11  A    between atoms: C_19  and  C_25
   12  A    between atoms: C_19  and  C_33
   13  A    between atoms: C_27  and  C_30
                            x       y       z     vdW  Elec       q    Type
                         _______ _______ _______ _____ _____    ______ ____

>  <TORSDO>
F 13

$$$$
=
 OpenBabel11062415483D

 44 47  0  0  1  0  0  0  0  0999 V2000
  186.6810  177.4340  145.1660 C   0  0  2  0  0  3  0  0  0  0  0  0
  189.7200  176.8360  144.5220 C   0  0  1  0  0  3  0  0  0  0  0  0
  187.8570  178.4000  145.4110 C   0  0  0  0  0  2  0  0  0  0  0  0
  189.2160  177.7320  145.6670 C   0  0  1  0  0  3  0  0  0  0  0  0
  186.9340  176.3810  144.0710 C   0  0  0  0  0  2  0  0  0  0  0  0
  189.1140  177.1210  143.1600 C   0  0  0  0  0  0  0  0  0  0  0  0
  187.8070  176.9020  142.9600 C   0  0  0  0  0  3  0  0  0  0  0  0
  189.1780  177.0140  146.8450 F   0  0  0  0  0  0  0  0  0  0  0  0
  185.5040  178.2140  144.8190 N   0  0  0  0  0  2  0  0  0  0  0  0
  183.2970  179.2150  145.3480 N   0  0  0  0  0  2  0  0  0  0  0  0
  184.7110  178.4140  147.0050 O   0  0  0  0  0  0  0  0  0  0  0  0
  184.5180  178.6110  145.7780 C   0  0  0  0  0  0  0  0  0  0  0  0
  181.9650  178.8400  143.4120 C   0  0  0  0  0  3  0  0  0  0  0  0
  183.0110  179.4260  143.9670 C   0  0  0  0  0  3  0  0  0  0  0  0
  181.6730  179.0570  141.9710 C   0  0  0  0  0  2  0  0  0  0  0  0
  182.2780  177.9520  141.1250 C   0  0  0  0  0  2  0  0  0  0  0  0
  181.2250  177.3590  140.2060 C   0  0  0  0  0  2  0  0  0  0  0  0
  181.2670  179.0280  138.3650 O   0  0  0  0  0  0  0  0  0  0  0  0
  180.5770  178.4360  139.4140 C   0  0  0  0  0  0  0  0  0  0  0  0
  179.4180  178.8300  139.7070 O   0  0  0  0  0  1  0  0  0  0  0  0
  191.8060  175.5130  143.9460 N   0  0  0  0  0  1  0  0  0  0  0  0
  191.2070  176.6710  144.5150 C   0  0  0  0  0  0  0  0  0  0  0  0
  191.9280  177.5470  145.0560 O   0  0  0  0  0  0  0  0  0  0  0  0
  189.8950  177.7730  142.0630 C   0  0  0  0  0  2  0  0  0  0  0  0
  189.2870  176.9510  139.7190 N   0  0  0  0  0  0  0  0  0  0  0  0
  190.6720  177.4500  139.7450 C   0  0  2  0  0  3  0  0  0  0  0  0
  191.4890  176.5780  139.0520 F   0  0  0  0  0  0  0  0  0  0  0  0
  190.1430  176.7750  140.9240 C   0  0  1  0  0  3  0  0  0  0  0  0
  188.4290  178.1360  139.7610 C   0  0  0  0  0  2  0  0  0  0  0  0
  187.3060  178.0210  138.7350 C   0  0  0  0  0  2  0  0  0  0  0  0
  184.2590  180.1500  139.0250 O   0  0  0  0  0  1  0  0  0  0  0  0
  185.9510  178.4440  139.3040 C   0  0  1  0  0  0  0  0  0  0  0  0
  185.0730  179.2430  138.3420 C   0  0  1  0  0  3  0  0  0  0  0  0
  184.6820  177.8150  138.7240 C   0  0  1  0  0  3  0  0  0  0  0  0
  185.8600  178.7800  140.7870 C   0  0  0  0  0  1  0  0  0  0  0  0
  184.8350  177.3220  136.2340 C   0  0  0  0  0  3  0  0  0  0  0  0
  184.3830  173.0230  137.0100 C   0  0  0  0  0  1  0  0  0  0  0  0
  186.5550  175.7020  135.5420 C   0  0  0  0  0  2  0  0  0  0  0  0
  185.6060  176.8270  135.2660 C   0  0  0  0  0  3  0  0  0  0  0  0
  184.8580  174.2530  136.8600 C   0  0  0  0  0  0  0  0  0  0  0  0
  184.8950  176.7510  137.6190 C   0  0  2  0  0  3  0  0  0  0  0  0
  183.3130  175.1190  138.4270 O   0  0  0  0  0  0  0  0  0  0  0  0
  185.8360  174.4640  135.8310 N   0  0  0  0  0  0  0  0  0  0  0  0
  184.3130  175.3530  137.7000 C   0  0  0  0  0  0  0  0  0  0  0  0
  1  9  1  6  0  0  0
  1  3  1  0  0  0  0
  2 22  1  6  0  0  0
  2  4  1  0  0  0  0
  3  4  1  0  0  0  0
  4  8  1  1  0  0  0
  5  1  1  0  0  0  0
  6  2  1  0  0  0  0
  7  6  2  0  0  0  0
  7  5  1  0  0  0  0
  9 12  1  0  0  0  0
 10 12  1  0  0  0  0
 12 11  2  0  0  0  0
 13 14  2  0  0  0  0
 14 10  1  0  0  0  0
 15 13  1  0  0  0  0
 16 15  1  0  0  0  0
 17 16  1  0  0  0  0
 18 19  2  0  0  0  0
 19 20  1  0  0  0  0
 19 17  1  0  0  0  0
 21 22  1  0  0  0  0
 22 23  2  0  0  0  0
 24  6  1  0  0  0  0
 25 26  1  0  0  0  0
 25 29  1  0  0  0  0
 25 28  1  0  0  0  0
 26 27  1  6  0  0  0
 26 28  1  0  0  0  0
 28 24  1  1  0  0  0
 30 32  1  0  0  0  0
 30 29  1  0  0  0  0
 32 35  1  1  0  0  0
 33 34  1  0  0  0  0
 33 31  1  1  0  0  0
 33 32  1  0  0  0  0
 34 41  1  6  0  0  0
 34 32  1  0  0  0  0
 38 43  1  0  0  0  0
 39 38  1  0  0  0  0
 39 36  2  0  0  0  0
 40 37  1  0  0  0  0
 40 44  1  0  0  0  0
 41 36  1  6  0  0  0
 41 44  1  0  0  0  0
 43 40  2  0  0  0  0
 44 42  2  0  0  0  0
M  END
>  <MODEL>
4

>  <REMARK>
 VINA RESULT:      -7.6      1.667      2.578
  Name = 
  13 active torsions:
  status: ('A' for Active; 'I' for Inactive)
    1  A    between atoms: C_2  and  C_21
    2  A    between atoms: N_3  and  C_44
    3  A    between atoms: N_7  and  C_13
    4  A    between atoms: C_8  and  C_9
    5  A    between atoms: C_9  and  C_44
    6  A    between atoms: C_10  and  C_21
    7  A    between atoms: C_10  and  C_29
    8  A    between atoms: N_11  and  C_20
    9  A    between atoms: C_14  and  C_38
   10  A    between atoms: C_18  and  C_29
   11  A    between atoms: C_19  and  C_25
   12  A    between atoms: C_19  and  C_33
   13  A    between atoms: C_27  and  C_30
                            x       y       z     vdW  Elec       q    Type
                         _______ _______ _______ _____ _____    ______ ____

>  <TORSDO>
F 13

$$$$
=
 OpenBabel11062415483D

 44 47  0  0  1  0  0  0  0  0999 V2000
  186.7500  177.2420  145.1360 C   0  0  2  0  0  3  0  0  0  0  0  0
  189.8130  176.8330  144.4600 C   0  0  1  0  0  3  0  0  0  0  0  0
  187.8700  178.2690  145.3940 C   0  0  0  0  0  2  0  0  0  0  0  0
  189.2670  177.6750  145.6270 C   0  0  1  0  0  3  0  0  0  0  0  0
  187.0530  176.2290  144.0170 C   0  0  0  0  0  2  0  0  0  0  0  0
  189.1810  177.1120  143.1080 C   0  0  0  0  0  0  0  0  0  0  0  0
  187.8870  176.8230  142.9110 C   0  0  0  0  0  3  0  0  0  0  0  0
  189.2790  176.9310  146.7890 F   0  0  0  0  0  0  0  0  0  0  0  0
  185.5270  177.9610  144.8130 N   0  0  0  0  0  2  0  0  0  0  0  0
  183.4420  179.1460  145.4480 N   0  0  0  0  0  2  0  0  0  0  0  0
  185.1270  178.7150  146.9860 O   0  0  0  0  0  0  0  0  0  0  0  0
  184.7220  178.6160  145.7990 C   0  0  0  0  0  0  0  0  0  0  0  0
  181.6290  178.8110  143.9440 C   0  0  0  0  0  3  0  0  0  0  0  0
  182.9190  179.0280  144.1260 C   0  0  0  0  0  3  0  0  0  0  0  0
  181.0880  178.6820  142.5660 C   0  0  0  0  0  2  0  0  0  0  0  0
  180.2450  179.8900  142.2000 C   0  0  0  0  0  2  0  0  0  0  0  0
  179.2370  179.5210  141.1280 C   0  0  0  0  0  2  0  0  0  0  0  0
  180.0700  177.5250  139.9020 O   0  0  0  0  0  1  0  0  0  0  0  0
  179.9320  178.9040  139.9670 C   0  0  0  0  0  0  0  0  0  0  0  0
  180.4170  179.6290  139.0600 O   0  0  0  0  0  0  0  0  0  0  0  0
  192.0960  177.9380  144.4450 N   0  0  0  0  0  1  0  0  0  0  0  0
  191.3060  176.7540  144.4400 C   0  0  0  0  0  0  0  0  0  0  0  0
  191.8640  175.6300  144.3750 O   0  0  0  0  0  0  0  0  0  0  0  0
  189.9150  177.8310  142.0200 C   0  0  0  0  0  2  0  0  0  0  0  0
  189.9930  176.7030  139.7270 N   0  0  0  0  0  0  0  0  0  0  0  0
  191.2110  177.5000  139.9490 C   0  0  2  0  0  3  0  0  0  0  0  0
  192.3150  176.7790  139.5370 F   0  0  0  0  0  0  0  0  0  0  0  0
  190.5940  176.8230  141.0840 C   0  0  1  0  0  3  0  0  0  0  0  0
  188.9240  177.6650  139.4570 C   0  0  0  0  0  2  0  0  0  0  0  0
  187.9330  177.0960  138.4460 C   0  0  0  0  0  2  0  0  0  0  0  0
  188.3070  177.4120  134.7500 O   0  0  0  0  0  1  0  0  0  0  0  0
  187.9760  177.8360  137.1080 C   0  0  1  0  0  0  0  0  0  0  0  0
  187.6270  176.9810  135.8910 C   0  0  1  0  0  3  0  0  0  0  0  0
  186.6640  178.0730  136.3570 C   0  0  1  0  0  3  0  0  0  0  0  0
  189.0090  178.9390  136.9220 C   0  0  0  0  0  1  0  0  0  0  0  0
  184.2940  177.1860  136.0970 C   0  0  0  0  0  3  0  0  0  0  0  0
  183.4770  177.9890  140.3370 C   0  0  0  0  0  1  0  0  0  0  0  0
  183.6220  175.3880  137.6410 C   0  0  0  0  0  2  0  0  0  0  0  0
  183.4730  176.1720  136.3740 C   0  0  0  0  0  3  0  0  0  0  0  0
  183.8720  177.4520  139.1890 C   0  0  0  0  0  0  0  0  0  0  0  0
  185.3780  177.5670  137.0600 C   0  0  2  0  0  3  0  0  0  0  0  0
  185.1400  179.3720  138.6430 O   0  0  0  0  0  0  0  0  0  0  0  0
  183.2820  176.2010  138.8060 N   0  0  0  0  0  0  0  0  0  0  0  0
  184.8370  178.1920  138.3320 C   0  0  0  0  0  0  0  0  0  0  0  0
  1  9  1  6  0  0  0
  1  3  1  0  0  0  0
  2 22  1  6  0  0  0
  2  4  1  0  0  0  0
  3  4  1  0  0  0  0
  4  8  1  1  0  0  0
  5  1  1  0  0  0  0
  6  2  1  0  0  0  0
  7  6  2  0  0  0  0
  7  5  1  0  0  0  0
  9 12  1  0  0  0  0
 10 12  1  0  0  0  0
 12 11  2  0  0  0  0
 13 14  2  0  0  0  0
 14 10  1  0  0  0  0
 15 13  1  0  0  0  0
 16 15  1  0  0  0  0
 17 16  1  0  0  0  0
 18 19  1  0  0  0  0
 19 17  1  0  0  0  0
 20 19  2  0  0  0  0
 22 21  1  0  0  0  0
 23 22  2  0  0  0  0
 24  6  1  0  0  0  0
 25 26  1  0  0  0  0
 25 28  1  0  0  0  0
 26 27  1  6  0  0  0
 26 28  1  0  0  0  0
 28 24  1  1  0  0  0
 29 25  1  0  0  0  0
 30 29  1  0  0  0  0
 32 35  1  6  0  0  0
 32 30  1  0  0  0  0
 33 31  1  6  0  0  0
 33 34  1  0  0  0  0
 33 32  1  0  0  0  0
 34 41  1  1  0  0  0
 34 32  1  0  0  0  0
 36 39  2  0  0  0  0
 38 43  1  0  0  0  0
 39 38  1  0  0  0  0
 40 37  1  0  0  0  0
 41 36  1  6  0  0  0
 41 44  1  0  0  0  0
 43 40  2  0  0  0  0
 44 42  2  0  0  0  0
 44 40  1  0  0  0  0
M  END
>  <MODEL>
5

>  <REMARK>
 VINA RESULT:      -7.2      1.645      2.228
  Name = 
  13 active torsions:
  status: ('A' for Active; 'I' for Inactive)
    1  A    between atoms: C_2  and  C_21
    2  A    between atoms: N_3  and  C_44
    3  A    between atoms: N_7  and  C_13
    4  A    between atoms: C_8  and  C_9
    5  A    between atoms: C_9  and  C_44
    6  A    between atoms: C_10  and  C_21
    7  A    between atoms: C_10  and  C_29
    8  A    between atoms: N_11  and  C_20
    9  A    between atoms: C_14  and  C_38
   10  A    between atoms: C_18  and  C_29
   11  A    between atoms: C_19  and  C_25
   12  A    between atoms: C_19  and  C_33
   13  A    between atoms: C_27  and  C_30
                            x       y       z     vdW  Elec       q    Type
                         _______ _______ _______ _____ _____    ______ ____

>  <TORSDO>
F 13

$$$$
=
 OpenBabel11062415483D

 44 47  0  0  1  0  0  0  0  0999 V2000
  188.9620  176.4400  136.6820 C   0  0  2  0  0  3  0  0  0  0  0  0
  191.6740  176.7860  138.2730 C   0  0  1  0  0  3  0  0  0  0  0  0
  189.6990  175.3260  137.4500 C   0  0  0  0  0  2  0  0  0  0  0  0
  191.2220  175.4990  137.5620 C   0  0  1  0  0  3  0  0  0  0  0  0
  189.2670  177.8680  137.1720 C   0  0  0  0  0  2  0  0  0  0  0  0
  190.6390  177.4210  139.1850 C   0  0  0  0  0  0  0  0  0  0  0  0
  189.5150  177.9270  138.6570 C   0  0  0  0  0  3  0  0  0  0  0  0
  191.8010  175.4250  136.3110 F   0  0  0  0  0  0  0  0  0  0  0  0
  187.5310  176.1980  136.7720 N   0  0  0  0  0  2  0  0  0  0  0  0
  185.3800  175.3700  135.8540 N   0  0  0  0  0  2  0  0  0  0  0  0
  187.4220  174.7880  134.9150 O   0  0  0  0  0  0  0  0  0  0  0  0
  186.8070  175.4200  135.8130 C   0  0  0  0  0  0  0  0  0  0  0  0
  183.5480  176.7580  136.4670 C   0  0  0  0  0  3  0  0  0  0  0  0
  184.6330  176.0960  136.8270 C   0  0  0  0  0  3  0  0  0  0  0  0
  182.7750  177.5200  137.4830 C   0  0  0  0  0  2  0  0  0  0  0  0
  183.1460  177.0800  138.8870 C   0  0  0  0  0  2  0  0  0  0  0  0
  183.3100  178.2880  139.7900 C   0  0  0  0  0  2  0  0  0  0  0  0
  184.1860  180.5060  139.0900 O   0  0  0  0  0  1  0  0  0  0  0  0
  184.4110  179.1520  139.2890 C   0  0  0  0  0  0  0  0  0  0  0  0
  185.5350  178.6540  139.0190 O   0  0  0  0  0  0  0  0  0  0  0  0
  193.5400  177.6970  139.7300 N   0  0  0  0  0  1  0  0  0  0  0  0
  193.0410  176.6790  138.8700 C   0  0  0  0  0  0  0  0  0  0  0  0
  193.7680  175.6980  138.5750 O   0  0  0  0  0  0  0  0  0  0  0  0
  190.7610  177.3820  140.6760 C   0  0  0  0  0  2  0  0  0  0  0  0
  189.2050  177.8350  142.6530 N   0  0  0  0  0  0  0  0  0  0  0  0
  188.6930  178.4860  141.4360 C   0  0  2  0  0  3  0  0  0  0  0  0
  187.3290  178.2820  141.3430 F   0  0  0  0  0  0  0  0  0  0  0  0
  189.3780  177.2050  141.3150 C   0  0  1  0  0  3  0  0  0  0  0  0
  190.3480  178.6370  143.0910 C   0  0  0  0  0  2  0  0  0  0  0  0
  190.5120  178.5540  144.6050 C   0  0  0  0  0  2  0  0  0  0  0  0
  192.2700  176.0750  146.7660 O   0  0  0  0  0  1  0  0  0  0  0  0
  190.9250  177.1570  145.0700 C   0  0  1  0  0  0  0  0  0  0  0  0
  191.3030  177.0590  146.5480 C   0  0  1  0  0  3  0  0  0  0  0  0
  190.0140  176.4080  146.0460 C   0  0  1  0  0  3  0  0  0  0  0  0
  191.6670  176.2550  144.0920 C   0  0  0  0  0  1  0  0  0  0  0  0
  188.3230  176.9100  147.8780 C   0  0  0  0  0  3  0  0  0  0  0  0
  185.4450  178.3540  144.8930 C   0  0  0  0  0  2  0  0  0  0  0  0
  187.4370  179.2070  147.9510 C   0  0  0  0  0  2  0  0  0  0  0  0
  187.7270  177.8780  148.5770 C   0  0  0  0  0  3  0  0  0  0  0  0
  186.4450  178.2470  145.7580 C   0  0  0  0  0  0  0  0  0  0  0  0
  188.7050  177.1340  146.4460 C   0  0  2  0  0  3  0  0  0  0  0  0
  187.3400  176.3880  144.6010 O   0  0  0  0  0  0  0  0  0  0  0  0
  186.4120  179.0910  146.9180 N   0  0  0  0  0  2  0  0  0  0  0  0
  187.5010  177.2230  145.5280 C   0  0  0  0  0  0  0  0  0  0  0  0
  1  9  1  1  0  0  0
  1  5  1  0  0  0  0
  1  3  1  0  0  0  0
  2 22  1  1  0  0  0
  2  6  1  0  0  0  0
  3  4  1  0  0  0  0
  4  8  1  6  0  0  0
  4  2  1  0  0  0  0
  5  7  1  0  0  0  0
  6 24  1  0  0  0  0
  7  6  2  0  0  0  0
 10 14  1  0  0  0  0
 11 12  2  0  0  0  0
 12 10  1  0  0  0  0
 12  9  1  0  0  0  0
 13 14  2  0  0  0  0
 13 15  1  0  0  0  0
 15 16  1  0  0  0  0
 16 17  1  0  0  0  0
 18 19  1  0  0  0  0
 19 17  1  0  0  0  0
 20 19  2  0  0  0  0
 22 21  1  0  0  0  0
 23 22  2  0  0  0  0
 25 29  1  0  0  0  0
 26 27  1  1  0  0  0
 26 25  1  0  0  0  0
 28 24  1  6  0  0  0
 28 26  1  0  0  0  0
 28 25  1  0  0  0  0
 29 30  1  0  0  0  0
 30 32  1  0  0  0  0
 32 35  1  6  0  0  0
 32 34  1  0  0  0  0
 32 33  1  0  0  0  0
 33 31  1  6  0  0  0
 34 41  1  1  0  0  0
 34 33  1  0  0  0  0
 36 39  2  0  0  0  0
 37 40  2  0  0  0  0
 38 39  1  0  0  0  0
 40 43  1  0  0  0  0
 41 36  1  1  0  0  0
 42 44  2  0  0  0  0
 43 38  1  0  0  0  0
 44 40  1  0  0  0  0
 44 41  1  0  0  0  0
M  END
>  <MODEL>
6

>  <REMARK>
 VINA RESULT:      -7.2      2.400      8.025
  Name = 
  13 active torsions:
  status: ('A' for Active; 'I' for Inactive)
    1  A    between atoms: C_2  and  C_21
    2  A    between atoms: N_3  and  C_44
    3  A    between atoms: N_7  and  C_13
    4  A    between atoms: C_8  and  C_9
    5  A    between atoms: C_9  and  C_44
    6  A    between atoms: C_10  and  C_21
    7  A    between atoms: C_10  and  C_29
    8  A    between atoms: N_11  and  C_20
    9  A    between atoms: C_14  and  C_38
   10  A    between atoms: C_18  and  C_29
   11  A    between atoms: C_19  and  C_25
   12  A    between atoms: C_19  and  C_33
   13  A    between atoms: C_27  and  C_30
                            x       y       z     vdW  Elec       q    Type
                         _______ _______ _______ _____ _____    ______ ____

>  <TORSDO>
F 13

$$$$
=
 OpenBabel11062415483D

 44 47  0  0  1  0  0  0  0  0999 V2000
  190.7970  177.2580  142.4740 C   0  0  2  0  0  3  0  0  0  0  0  0
  189.5150  177.5350  145.3520 C   0  0  1  0  0  3  0  0  0  0  0  0
  190.4780  176.0910  143.4290 C   0  0  0  0  0  2  0  0  0  0  0  0
  190.5060  176.4390  144.9250 C   0  0  1  0  0  3  0  0  0  0  0  0
  189.9580  178.5270  142.7070 C   0  0  0  0  0  2  0  0  0  0  0  0
  188.3410  177.7500  144.4140 C   0  0  0  0  0  0  0  0  0  0  0  0
  188.5600  178.2170  143.1770 C   0  0  0  0  0  3  0  0  0  0  0  0
  191.7860  176.7870  145.3070 F   0  0  0  0  0  0  0  0  0  0  0  0
  190.6070  176.8030  141.1050 N   0  0  0  0  0  2  0  0  0  0  0  0
  191.2410  176.7230  138.7080 N   0  0  0  0  0  2  0  0  0  0  0  0
  192.6910  177.5220  140.3360 O   0  0  0  0  0  0  0  0  0  0  0  0
  191.5640  177.0310  140.0650 C   0  0  0  0  0  0  0  0  0  0  0  0
  189.7670  175.7410  137.1190 C   0  0  0  0  0  3  0  0  0  0  0  0
  189.9650  176.2000  138.3420 C   0  0  0  0  0  3  0  0  0  0  0  0
  188.4350  175.2030  136.7390 C   0  0  0  0  0  2  0  0  0  0  0  0
  187.3230  176.1130  137.2300 C   0  0  0  0  0  2  0  0  0  0  0  0
  187.1950  177.3230  136.3220 C   0  0  0  0  0  2  0  0  0  0  0  0
  187.3600  179.7990  136.4650 O   0  0  0  0  0  0  0  0  0  0  0  0
  187.3700  178.5710  137.1110 C   0  0  0  0  0  0  0  0  0  0  0  0
  187.5550  178.5150  138.3540 O   0  0  0  0  0  1  0  0  0  0  0  0
  188.7520  178.6320  147.5080 N   0  0  0  0  0  1  0  0  0  0  0  0
  189.1450  177.4620  146.7990 C   0  0  0  0  0  0  0  0  0  0  0  0
  189.2220  176.3620  147.4020 O   0  0  0  0  0  0  0  0  0  0  0  0
  186.9510  177.3260  144.7700 C   0  0  0  0  0  2  0  0  0  0  0  0
  185.0070  178.9860  144.8080 N   0  0  0  0  0  0  0  0  0  0  0  0
  184.8940  178.0370  145.9280 C   0  0  2  0  0  3  0  0  0  0  0  0
  184.5520  178.7220  147.0790 F   0  0  0  0  0  0  0  0  0  0  0  0
  186.2200  178.4630  145.4950 C   0  0  1  0  0  3  0  0  0  0  0  0
  184.6290  178.2400  143.6070 C   0  0  0  0  0  2  0  0  0  0  0  0
  183.7080  179.0760  142.7240 C   0  0  0  0  0  2  0  0  0  0  0  0
  180.0920  179.9240  143.0580 O   0  0  0  0  0  1  0  0  0  0  0  0
  182.2290  178.7910  142.9910 C   0  0  1  0  0  0  0  0  0  0  0  0
  181.2580  179.7530  142.3070 C   0  0  1  0  0  3  0  0  0  0  0  0
  181.3550  178.3030  141.8340 C   0  0  1  0  0  3  0  0  0  0  0  0
  181.8310  178.2360  144.3520 C   0  0  0  0  0  1  0  0  0  0  0  0
  181.9240  179.2590  139.5470 C   0  0  0  0  0  3  0  0  0  0  0  0
  183.1440  175.2840  138.1350 C   0  0  0  0  0  2  0  0  0  0  0  0
  184.2030  178.8320  138.7170 C   0  0  0  0  0  2  0  0  0  0  0  0
  182.9160  179.5980  138.7220 C   0  0  0  0  0  3  0  0  0  0  0  0
  183.1040  176.4850  138.6980 C   0  0  0  0  0  0  0  0  0  0  0  0
  182.0750  178.0940  140.4780 C   0  0  2  0  0  3  0  0  0  0  0  0
  181.2030  175.9010  139.9770 O   0  0  0  0  0  0  0  0  0  0  0  0
  184.0100  177.4800  138.1990 N   0  0  0  0  0  2  0  0  0  0  0  0
  182.0910  176.7630  139.7510 C   0  0  0  0  0  0  0  0  0  0  0  0
  1  9  1  6  0  0  0
  1  5  1  0  0  0  0
  1  3  1  0  0  0  0
  2 22  1  1  0  0  0
  3  4  1  0  0  0  0
  4  8  1  6  0  0  0
  4  2  1  0  0  0  0
  5  7  1  0  0  0  0
  6 24  1  0  0  0  0
  6  2  1  0  0  0  0
  7  6  2  0  0  0  0
 10 12  1  0  0  0  0
 12 11  2  0  0  0  0
 12  9  1  0  0  0  0
 13 14  2  0  0  0  0
 14 10  1  0  0  0  0
 15 13  1  0  0  0  0
 15 16  1  0  0  0  0
 17 19  1  0  0  0  0
 17 16  1  0  0  0  0
 18 19  2  0  0  0  0
 19 20  1  0  0  0  0
 22 23  2  0  0  0  0
 22 21  1  0  0  0  0
 25 28  1  0  0  0  0
 25 26  1  0  0  0  0
 26 27  1  1  0  0  0
 28 24  1  6  0  0  0
 28 26  1  0  0  0  0
 29 25  1  0  0  0  0
 30 32  1  0  0  0  0
 30 29  1  0  0  0  0
 32 35  1  1  0  0  0
 33 32  1  0  0  0  0
 33 31  1  1  0  0  0
 34 41  1  6  0  0  0
 34 33  1  0  0  0  0
 34 32  1  0  0  0  0
 37 40  2  0  0  0  0
 38 39  1  0  0  0  0
 39 36  2  0  0  0  0
 40 44  1  0  0  0  0
 41 36  1  6  0  0  0
 43 40  1  0  0  0  0
 43 38  1  0  0  0  0
 44 42  2  0  0  0  0
 44 41  1  0  0  0  0
M  END
>  <MODEL>
7

>  <REMARK>
 VINA RESULT:      -7.2      2.264      6.772
  Name = 
  13 active torsions:
  status: ('A' for Active; 'I' for Inactive)
    1  A    between atoms: C_2  and  C_21
    2  A    between atoms: N_3  and  C_44
    3  A    between atoms: N_7  and  C_13
    4  A    between atoms: C_8  and  C_9
    5  A    between atoms: C_9  and  C_44
    6  A    between atoms: C_10  and  C_21
    7  A    between atoms: C_10  and  C_29
    8  A    between atoms: N_11  and  C_20
    9  A    between atoms: C_14  and  C_38
   10  A    between atoms: C_18  and  C_29
   11  A    between atoms: C_19  and  C_25
   12  A    between atoms: C_19  and  C_33
   13  A    between atoms: C_27  and  C_30
                            x       y       z     vdW  Elec       q    Type
                         _______ _______ _______ _____ _____    ______ ____

>  <TORSDO>
F 13

$$$$
=
 OpenBabel11062415483D

 44 47  0  0  1  0  0  0  0  0999 V2000
  189.6200  177.3570  142.0790 C   0  0  2  0  0  3  0  0  0  0  0  0
  187.5820  177.9020  144.4370 C   0  0  1  0  0  3  0  0  0  0  0  0
  188.9890  176.2820  142.9850 C   0  0  0  0  0  2  0  0  0  0  0  0
  188.6040  176.7520  144.3960 C   0  0  1  0  0  3  0  0  0  0  0  0
  188.8060  178.6590  141.9660 C   0  0  0  0  0  2  0  0  0  0  0  0
  186.7360  178.0620  143.1860 C   0  0  0  0  0  0  0  0  0  0  0  0
  187.3210  178.4190  142.0340 C   0  0  0  0  0  3  0  0  0  0  0  0
  189.7350  177.1040  145.1040 F   0  0  0  0  0  0  0  0  0  0  0  0
  189.8090  176.7930  140.7520 N   0  0  0  0  0  2  0  0  0  0  0  0
  191.0670  176.5450  138.6290 N   0  0  0  0  0  2  0  0  0  0  0  0
  192.0200  177.5040  140.5160 O   0  0  0  0  0  0  0  0  0  0  0  0
  191.0100  176.9650  139.9930 C   0  0  0  0  0  0  0  0  0  0  0  0
  189.6320  176.3250  136.7440 C   0  0  0  0  0  3  0  0  0  0  0  0
  189.9410  175.9630  137.9760 C   0  0  0  0  0  3  0  0  0  0  0  0
  188.4530  175.7220  136.0700 C   0  0  0  0  0  2  0  0  0  0  0  0
  187.3800  176.7660  135.8190 C   0  0  0  0  0  2  0  0  0  0  0  0
  186.4800  176.8960  137.0340 C   0  0  0  0  0  2  0  0  0  0  0  0
  187.5380  179.1450  137.0940 O   0  0  0  0  0  0  0  0  0  0  0  0
  186.6160  178.2530  137.6240 C   0  0  0  0  0  0  0  0  0  0  0  0
  185.9180  178.5860  138.6170 O   0  0  0  0  0  1  0  0  0  0  0  0
  185.9790  179.0740  146.0150 N   0  0  0  0  0  1  0  0  0  0  0  0
  186.8100  177.9590  145.7170 C   0  0  0  0  0  0  0  0  0  0  0  0
  186.9330  177.0290  146.5530 O   0  0  0  0  0  0  0  0  0  0  0  0
  185.2840  177.7000  143.1560 C   0  0  0  0  0  2  0  0  0  0  0  0
  183.4860  179.0030  141.8910 N   0  0  0  0  0  0  0  0  0  0  0  0
  183.0140  178.6560  143.2410 C   0  0  2  0  0  3  0  0  0  0  0  0
  182.3840  179.7490  143.8050 F   0  0  0  0  0  0  0  0  0  0  0  0
  184.4250  178.9650  143.0450 C   0  0  1  0  0  3  0  0  0  0  0  0
  183.4390  177.7630  141.1140 C   0  0  0  0  0  2  0  0  0  0  0  0
  182.5790  177.9430  139.8670 C   0  0  0  0  0  2  0  0  0  0  0  0
  179.4030  176.7550  141.4190 O   0  0  0  0  0  1  0  0  0  0  0  0
  181.2770  177.1440  139.9380 C   0  0  1  0  0  0  0  0  0  0  0  0
  180.2050  177.7450  140.8460 C   0  0  1  0  0  3  0  0  0  0  0  0
  180.0100  177.7490  139.3300 C   0  0  1  0  0  3  0  0  0  0  0  0
  181.3500  175.6260  139.8440 C   0  0  0  0  0  1  0  0  0  0  0  0
  179.5040  180.2410  139.3880 C   0  0  0  0  0  3  0  0  0  0  0  0
  180.6790  180.6270  135.1740 C   0  0  0  0  0  2  0  0  0  0  0  0
  181.3260  181.7450  138.6920 C   0  0  0  0  0  2  0  0  0  0  0  0
  180.0400  181.4630  139.4050 C   0  0  0  0  0  3  0  0  0  0  0  0
  180.6760  180.5310  136.4980 C   0  0  0  0  0  0  0  0  0  0  0  0
  180.1770  179.1290  138.6430 C   0  0  2  0  0  3  0  0  0  0  0  0
  179.5240  178.4670  136.4170 O   0  0  0  0  0  0  0  0  0  0  0  0
  181.1580  181.6570  137.2450 N   0  0  0  0  0  2  0  0  0  0  0  0
  180.1150  179.3110  137.1390 C   0  0  0  0  0  0  0  0  0  0  0  0
  1  9  1  6  0  0  0
  1  3  1  0  0  0  0
  2 22  1  1  0  0  0
  3  4  1  0  0  0  0
  4  2  1  0  0  0  0
  4  8  1  6  0  0  0
  5  7  1  0  0  0  0
  5  1  1  0  0  0  0
  6  2  1  0  0  0  0
  7  6  2  0  0  0  0
 10 12  1  0  0  0  0
 12 11  2  0  0  0  0
 12  9  1  0  0  0  0
 13 14  2  0  0  0  0
 14 10  1  0  0  0  0
 15 13  1  0  0  0  0
 16 15  1  0  0  0  0
 16 17  1  0  0  0  0
 17 19  1  0  0  0  0
 18 19  2  0  0  0  0
 19 20  1  0  0  0  0
 22 21  1  0  0  0  0
 22 23  2  0  0  0  0
 24  6  1  0  0  0  0
 25 28  1  0  0  0  0
 25 26  1  0  0  0  0
 26 27  1  1  0  0  0
 28 24  1  6  0  0  0
 28 26  1  0  0  0  0
 29 25  1  0  0  0  0
 30 32  1  0  0  0  0
 30 29  1  0  0  0  0
 32 35  1  6  0  0  0
 32 33  1  0  0  0  0
 33 31  1  1  0  0  0
 34 41  1  6  0  0  0
 34 32  1  0  0  0  0
 34 33  1  0  0  0  0
 36 39  2  0  0  0  0
 37 40  2  0  0  0  0
 38 39  1  0  0  0  0
 40 44  1  0  0  0  0
 40 43  1  0  0  0  0
 41 36  1  1  0  0  0
 42 44  2  0  0  0  0
 43 38  1  0  0  0  0
 44 41  1  0  0  0  0
M  END
>  <MODEL>
8

>  <REMARK>
 VINA RESULT:      -7.2      3.218      7.227
  Name = 
  13 active torsions:
  status: ('A' for Active; 'I' for Inactive)
    1  A    between atoms: C_2  and  C_21
    2  A    between atoms: N_3  and  C_44
    3  A    between atoms: N_7  and  C_13
    4  A    between atoms: C_8  and  C_9
    5  A    between atoms: C_9  and  C_44
    6  A    between atoms: C_10  and  C_21
    7  A    between atoms: C_10  and  C_29
    8  A    between atoms: N_11  and  C_20
    9  A    between atoms: C_14  and  C_38
   10  A    between atoms: C_18  and  C_29
   11  A    between atoms: C_19  and  C_25
   12  A    between atoms: C_19  and  C_33
   13  A    between atoms: C_27  and  C_30
                            x       y       z     vdW  Elec       q    Type
                         _______ _______ _______ _____ _____    ______ ____

>  <TORSDO>
F 13

$$$$
=
 OpenBabel11062415483D

 44 47  0  0  1  0  0  0  0  0999 V2000
  187.2770  177.2060  136.6400 C   0  0  2  0  0  3  0  0  0  0  0  0
  190.2080  176.5770  137.6500 C   0  0  1  0  0  3  0  0  0  0  0  0
  187.7250  175.9080  137.3390 C   0  0  0  0  0  2  0  0  0  0  0  0
  189.2010  175.5300  137.1430 C   0  0  1  0  0  3  0  0  0  0  0  0
  188.1520  178.4360  136.9490 C   0  0  0  0  0  2  0  0  0  0  0  0
  189.6700  177.5440  138.6900 C   0  0  0  0  0  0  0  0  0  0  0  0
  188.7070  178.4120  138.3490 C   0  0  0  0  0  3  0  0  0  0  0  0
  189.4460  175.2460  135.8140 F   0  0  0  0  0  0  0  0  0  0  0  0
  185.9020  177.4890  137.0220 N   0  0  0  0  0  2  0  0  0  0  0  0
  183.4600  177.5020  136.5880 N   0  0  0  0  0  2  0  0  0  0  0  0
  184.9290  176.2500  135.2990 O   0  0  0  0  0  0  0  0  0  0  0  0
  184.7720  177.0410  136.2650 C   0  0  0  0  0  0  0  0  0  0  0  0
  182.8150  177.9920  138.8260 C   0  0  0  0  0  3  0  0  0  0  0  0
  183.2300  178.4270  137.6500 C   0  0  0  0  0  3  0  0  0  0  0  0
  182.5710  178.9590  139.9280 C   0  0  0  0  0  2  0  0  0  0  0  0
  182.8310  178.3170  141.2790 C   0  0  0  0  0  2  0  0  0  0  0  0
  182.0040  179.0000  142.3520 C   0  0  0  0  0  2  0  0  0  0  0  0
  180.0020  177.6660  141.7260 O   0  0  0  0  0  0  0  0  0  0  0  0
  180.5590  178.9030  142.0190 C   0  0  0  0  0  0  0  0  0  0  0  0
  179.8470  179.9400  141.9760 O   0  0  0  0  0  1  0  0  0  0  0  0
  192.7300  176.7700  137.8410 N   0  0  0  0  0  1  0  0  0  0  0  0
  191.5450  175.9940  137.9810 C   0  0  0  0  0  0  0  0  0  0  0  0
  191.6230  174.7950  138.3470 O   0  0  0  0  0  0  0  0  0  0  0  0
  190.0770  177.4730  140.1280 C   0  0  0  0  0  2  0  0  0  0  0  0
  189.0010  177.5960  142.4440 N   0  0  0  0  0  0  0  0  0  0  0  0
  188.2880  178.4710  141.5000 C   0  0  2  0  0  3  0  0  0  0  0  0
  186.9250  178.3220  141.6720 F   0  0  0  0  0  0  0  0  0  0  0  0
  188.8500  177.2170  141.0130 C   0  0  1  0  0  3  0  0  0  0  0  0
  190.2600  178.2750  142.7550 C   0  0  0  0  0  2  0  0  0  0  0  0
  190.4570  178.3740  144.2640 C   0  0  0  0  0  2  0  0  0  0  0  0
  192.3450  176.2210  146.6530 O   0  0  0  0  0  1  0  0  0  0  0  0
  190.9280  177.0550  144.8780 C   0  0  1  0  0  0  0  0  0  0  0  0
  191.3400  177.1420  146.3470 C   0  0  1  0  0  3  0  0  0  0  0  0
  190.0640  176.3970  145.9560 C   0  0  1  0  0  3  0  0  0  0  0  0
  191.6780  176.0690  143.9930 C   0  0  0  0  0  1  0  0  0  0  0  0
  188.3030  176.9040  147.7200 C   0  0  0  0  0  3  0  0  0  0  0  0
  185.5420  178.3370  144.6200 C   0  0  0  0  0  2  0  0  0  0  0  0
  187.4130  179.2000  147.7510 C   0  0  0  0  0  2  0  0  0  0  0  0
  187.6790  177.8730  148.3920 C   0  0  0  0  0  3  0  0  0  0  0  0
  186.5080  178.2330  145.5230 C   0  0  0  0  0  0  0  0  0  0  0  0
  188.7400  177.1230  146.3030 C   0  0  2  0  0  3  0  0  0  0  0  0
  187.4490  176.3710  144.4090 O   0  0  0  0  0  0  0  0  0  0  0  0
  186.4290  179.0810  146.6790 N   0  0  0  0  0  2  0  0  0  0  0  0
  187.5730  177.2090  145.3380 C   0  0  0  0  0  0  0  0  0  0  0  0
  1  5  1  0  0  0  0
  1  9  1  1  0  0  0
  1  3  1  0  0  0  0
  2 22  1  1  0  0  0
  2  6  1  0  0  0  0
  4  8  1  6  0  0  0
  4  3  1  0  0  0  0
  4  2  1  0  0  0  0
  5  7  1  0  0  0  0
  6 24  1  0  0  0  0
  7  6  2  0  0  0  0
 10 14  1  0  0  0  0
 11 12  2  0  0  0  0
 12 10  1  0  0  0  0
 12  9  1  0  0  0  0
 13 15  1  0  0  0  0
 14 13  2  0  0  0  0
 15 16  1  0  0  0  0
 16 17  1  0  0  0  0
 18 19  2  0  0  0  0
 19 17  1  0  0  0  0
 20 19  1  0  0  0  0
 21 22  1  0  0  0  0
 22 23  2  0  0  0  0
 25 29  1  0  0  0  0
 26 27  1  1  0  0  0
 26 25  1  0  0  0  0
 28 24  1  6  0  0  0
 28 26  1  0  0  0  0
 28 25  1  0  0  0  0
 29 30  1  0  0  0  0
 30 32  1  0  0  0  0
 32 35  1  6  0  0  0
 32 34  1  0  0  0  0
 32 33  1  0  0  0  0
 33 31  1  6  0  0  0
 34 41  1  1  0  0  0
 34 33  1  0  0  0  0
 36 39  2  0  0  0  0
 37 40  2  0  0  0  0
 38 39  1  0  0  0  0
 40 43  1  0  0  0  0
 41 36  1  1  0  0  0
 42 44  2  0  0  0  0
 43 38  1  0  0  0  0
 44 40  1  0  0  0  0
 44 41  1  0  0  0  0
M  END
>  <MODEL>
9

>  <REMARK>
 VINA RESULT:      -7.2      2.639      7.924
  Name = 
  13 active torsions:
  status: ('A' for Active; 'I' for Inactive)
    1  A    between atoms: C_2  and  C_21
    2  A    between atoms: N_3  and  C_44
    3  A    between atoms: N_7  and  C_13
    4  A    between atoms: C_8  and  C_9
    5  A    between atoms: C_9  and  C_44
    6  A    between atoms: C_10  and  C_21
    7  A    between atoms: C_10  and  C_29
    8  A    between atoms: N_11  and  C_20
    9  A    between atoms: C_14  and  C_38
   10  A    between atoms: C_18  and  C_29
   11  A    between atoms: C_19  and  C_25
   12  A    between atoms: C_19  and  C_33
   13  A    between atoms: C_27  and  C_30
                            x       y       z     vdW  Elec       q    Type
                         _______ _______ _______ _____ _____    ______ ____

>  <TORSDO>
F 13

$$$$
