=
 OpenBabel11062414533D

 56 63  0  0  1  0  0  0  0  0999 V2000
  192.8780  176.4390  137.8700 C   0  0  1  0  0  0  0  0  0  0  0  0
  191.7410  175.4710  137.9480 N   0  0  2  0  0  0  0  0  0  0  0  0
  193.6450  176.6320  139.0530 O   0  0  0  0  0  0  0  0  0  0  0  0
  193.1090  174.9770  137.7820 C   0  0  1  0  0  3  0  0  0  0  0  0
  192.5560  177.4610  138.9610 C   0  0  2  0  0  3  0  0  0  0  0  0
  197.1730  172.5750  137.2360 O   0  0  0  0  0  1  0  0  0  0  0  0
  193.5380  172.9610  136.3120 C   0  0  0  0  0  2  0  0  0  0  0  0
  194.7460  175.0950  135.7720 C   0  0  0  0  0  2  0  0  0  0  0  0
  195.9680  174.6550  136.5780 C   0  0  0  0  0  2  0  0  0  0  0  0
  194.8730  172.4240  136.7660 C   0  0  0  0  0  3  0  0  0  0  0  0
  193.4640  174.4880  136.3580 C   0  0  2  0  0  3  0  0  0  0  0  0
  195.9850  173.1720  136.8340 C   0  0  0  0  0  0  0  0  0  0  0  0
  188.6960  176.2750  135.8660 O   0  0  0  0  0  0  0  0  0  0  0  0
  189.4530  177.2570  136.4720 C   0  0  2  0  0  3  0  0  0  0  0  0
  189.9570  174.2240  135.0530 O   0  0  0  0  0  1  0  0  0  0  0  0
  190.1230  173.4440  137.2940 O   0  0  0  0  0  1  0  0  0  0  0  0
  189.4870  175.8360  136.9680 C   0  0  2  0  0  0  0  0  0  0  0  0
  191.0080  175.6460  136.6900 C   0  0  2  0  0  3  0  0  0  0  0  0
  190.0900  174.5280  136.4120 C   0  0  0  0  0  0  0  0  0  0  0  0
  187.1330  178.0960  136.9810 N   0  0  0  0  0  2  0  0  0  0  0  0
  188.5340  178.1420  137.2610 C   0  0  0  0  0  0  0  0  0  0  0  0
  188.9840  178.9070  138.1570 O   0  0  0  0  0  0  0  0  0  0  0  0
  186.0910  178.3210  137.9820 C   0  0  0  0  0  2  0  0  0  0  0  0
  185.2360  176.1390  137.1040 N   0  0  0  0  0  2  0  0  0  0  0  0
  182.7030  177.3420  136.7670 C   0  0  0  0  0  3  0  0  0  0  0  0
  182.9490  175.9370  136.2840 C   0  0  0  0  0  2  0  0  0  0  0  0
  184.0560  175.2690  137.1030 C   0  0  0  0  0  2  0  0  0  0  0  0
  183.6340  178.0120  137.4620 C   0  0  0  0  0  3  0  0  0  0  0  0
  184.9190  177.3410  137.8920 C   0  0  2  0  0  3  0  0  0  0  0  0
  191.5830  177.0960  140.0850 C   0  0  0  0  0  2  0  0  0  0  0  0
  192.1440  177.5500  141.4300 C   0  0  0  0  0  2  0  0  0  0  0  0
  191.5190  176.7640  142.5750 C   0  0  0  0  0  2  0  0  0  0  0  0
  190.4070  177.5630  143.2490 C   0  0  1  0  0  3  0  0  0  0  0  0
  188.7010  178.9230  142.2110 F   0  0  0  0  0  0  0  0  0  0  0  0
  189.1350  177.6170  142.3840 C   0  0  2  0  0  3  0  0  0  0  0  0
  188.2450  175.5450  143.2120 O   0  0  0  0  0  0  0  0  0  0  0  0
  188.0250  176.7500  142.8990 C   0  0  0  0  0  0  0  0  0  0  0  0
  186.7530  177.3020  143.0200 O   0  0  0  0  0  0  0  0  0  0  0  0
  186.4470  178.3460  143.9310 C   0  0  2  0  0  3  0  0  0  0  0  0
  187.9870  178.4520  146.1200 O   0  0  0  0  0  1  0  0  0  0  0  0
  185.6690  178.7380  146.2760 N   0  0  0  0  0  0  0  0  0  0  0  0
  184.5950  178.2360  147.1110 C   0  0  0  0  0  1  0  0  0  0  0  0
  185.8780  177.7280  145.2190 C   0  0  2  0  0  3  0  0  0  0  0  0
  186.7860  177.7860  146.3850 C   0  0  1  0  0  3  0  0  0  0  0  0
  185.4660  179.3110  143.2660 C   0  0  0  0  0  2  0  0  0  0  0  0
  181.5900  178.5920  141.5650 C   0  0  0  0  0  2  0  0  0  0  0  0
  184.0180  178.7460  141.3570 N   0  0  0  0  0  2  0  0  0  0  0  0
  181.7880  178.9830  143.0100 C   0  0  0  0  0  3  0  0  0  0  0  0
  184.2190  178.5750  142.7970 C   0  0  2  0  0  3  0  0  0  0  0  0
  183.0080  179.0270  143.5740 C   0  0  0  0  0  3  0  0  0  0  0  0
  182.8550  177.9420  140.9910 C   0  0  0  0  0  2  0  0  0  0  0  0
  190.1370  177.0170  144.5080 O   0  0  0  0  0  0  0  0  0  0  0  0
  191.2370  177.3660  145.3000 C   0  0  0  0  0  2  0  0  0  0  0  0
  191.1360  176.7100  146.6310 C   0  0  0  0  0  0  0  0  0  0  0  0
  190.0100  176.4670  147.1330 O   0  0  0  0  0  0  0  0  0  0  0  0
  192.2920  176.4250  147.3460 O   0  0  0  0  0  1  0  0  0  0  0  0
  1  2  1  0  0  0  0
  1  5  1  0  0  0  0
  1  3  1  1  0  0  0
  2 18  1  6  0  0  0
  4 11  1  6  0  0  0
  4  1  1  0  0  0  0
  4  2  1  0  0  0  0
  5  3  1  0  0  0  0
  5 30  1  1  0  0  0
  7 11  1  0  0  0  0
  7 10  1  0  0  0  0
  8  9  1  0  0  0  0
  9 12  1  0  0  0  0
 10 12  2  0  0  0  0
 11  8  1  1  0  0  0
 12  6  1  0  0  0  0
 13 14  1  0  0  0  0
 14 17  1  0  0  0  0
 14 21  1  1  0  0  0
 15 19  1  0  0  0  0
 17 13  1  6  0  0  0
 18 19  1  6  0  0  0
 18 17  1  0  0  0  0
 19 17  1  0  0  0  0
 19 16  1  0  0  0  0
 20 21  1  0  0  0  0
 20 23  1  0  0  0  0
 21 22  2  0  0  0  0
 24 29  1  0  0  0  0
 25 28  2  0  0  0  0
 26 25  1  0  0  0  0
 26 27  1  0  0  0  0
 27 24  1  0  0  0  0
 28 29  1  0  0  0  0
 29 23  1  6  0  0  0
 30 31  1  0  0  0  0
 31 32  1  0  0  0  0
 33 32  1  6  0  0  0
 33 52  1  0  0  0  0
 35 34  1  1  0  0  0
 35 37  1  0  0  0  0
 35 33  1  0  0  0  0
 37 38  1  0  0  0  0
 37 36  2  0  0  0  0
 38 39  1  0  0  0  0
 39 45  1  6  0  0  0
 41 44  1  0  0  0  0
 41 42  1  0  0  0  0
 43 39  1  6  0  0  0
 43 41  1  0  0  0  0
 43 44  1  0  0  0  0
 44 40  1  6  0  0  0
 46 48  1  0  0  0  0
 47 49  1  0  0  0  0
 48 50  2  0  0  0  0
 49 45  1  1  0  0  0
 49 50  1  0  0  0  0
 51 47  1  0  0  0  0
 51 46  1  0  0  0  0
 52 53  1  0  0  0  0
 53 54  1  0  0  0  0
 54 55  2  0  0  0  0
 54 56  1  0  0  0  0
M  END
>  <MODEL>
1

>  <REMARK>
 VINA RESULT:      -7.3      0.000      0.000
  Name = 
  19 active torsions:
  status: ('A' for Active; 'I' for Inactive)
    1  A    between atoms: O_1  and  C_31
    2  A    between atoms: O_1  and  C_35
    3  A    between atoms: C_8  and  N_25
    4  A    between atoms: C_8  and  C_44
    5  A    between atoms: C_11  and  C_35
    6  A    between atoms: C_11  and  C_49
    7  A    between atoms: O_14  and  C_21
    8  A    between atoms: O_14  and  C_27
    9  A    between atoms: C_15  and  C_27
   10  A    between atoms: C_15  and  C_35
   11  A    between atoms: C_17  and  C_38
   12  A    between atoms: N_20  and  C_50
   13  A    between atoms: C_21  and  CA_30
   14  A    between atoms: C_21  and  C_53
   15  A    between atoms: C_22  and  C_31
   16  A    between atoms: C_33  and  C_49
   17  A    between atoms: C_33  and  C_55
   18  A    between atoms: C_39  and  C_53
   19  A    between atoms: C_47  and  C_51
                            x       y       z     vdW  Elec       q    Type
                         _______ _______ _______ _____ _____    ______ ____

>  <TORSDO>
F 19

$$$$
=
 OpenBabel11062414533D

 56 63  0  0  1  0  0  0  0  0999 V2000
  191.7870  175.8660  137.2480 C   0  0  1  0  0  0  0  0  0  0  0  0
  190.6320  174.9690  137.5560 N   0  0  2  0  0  0  0  0  0  0  0  0
  192.7590  176.0440  138.2740 O   0  0  0  0  0  0  0  0  0  0  0  0
  191.9210  174.3910  137.1730 C   0  0  1  0  0  3  0  0  0  0  0  0
  191.7170  176.9320  138.3420 C   0  0  2  0  0  3  0  0  0  0  0  0
  195.8570  172.0470  135.9080 O   0  0  0  0  0  1  0  0  0  0  0  0
  192.1010  172.3210  135.7270 C   0  0  0  0  0  2  0  0  0  0  0  0
  193.1150  174.4520  134.8700 C   0  0  0  0  0  2  0  0  0  0  0  0
  194.4860  174.0720  135.4270 C   0  0  0  0  0  2  0  0  0  0  0  0
  193.5150  171.8310  135.9220 C   0  0  0  0  0  3  0  0  0  0  0  0
  191.9950  173.8460  135.7270 C   0  0  2  0  0  3  0  0  0  0  0  0
  194.5960  172.6020  135.7330 C   0  0  0  0  0  0  0  0  0  0  0  0
  187.3470  175.9820  135.9950 O   0  0  0  0  0  0  0  0  0  0  0  0
  188.2920  176.9090  136.3860 C   0  0  2  0  0  3  0  0  0  0  0  0
  188.2360  173.7700  135.1180 O   0  0  0  0  0  1  0  0  0  0  0  0
  188.7360  173.0940  137.3440 O   0  0  0  0  0  1  0  0  0  0  0  0
  188.2820  175.5200  136.9680 C   0  0  2  0  0  0  0  0  0  0  0  0
  189.7000  175.1550  136.4390 C   0  0  2  0  0  3  0  0  0  0  0  0
  188.6440  174.1280  136.4080 C   0  0  0  0  0  0  0  0  0  0  0  0
  186.1980  178.0320  137.2200 N   0  0  0  0  0  2  0  0  0  0  0  0
  187.6220  177.9270  137.2610 C   0  0  0  0  0  0  0  0  0  0  0  0
  188.2980  178.6700  138.0230 O   0  0  0  0  0  0  0  0  0  0  0  0
  185.3720  178.4180  138.3630 C   0  0  0  0  0  2  0  0  0  0  0  0
  183.0040  178.8180  139.0700 N   0  0  0  0  0  2  0  0  0  0  0  0
  182.5700  176.0300  138.9620 C   0  0  0  0  0  3  0  0  0  0  0  0
  181.4930  176.9490  139.4760 C   0  0  0  0  0  2  0  0  0  0  0  0
  181.6330  178.3430  138.8620 C   0  0  0  0  0  2  0  0  0  0  0  0
  183.7090  176.5130  138.4430 C   0  0  0  0  0  3  0  0  0  0  0  0
  183.9050  177.9980  138.2430 C   0  0  2  0  0  3  0  0  0  0  0  0
  190.9370  176.6540  139.6300 C   0  0  0  0  0  2  0  0  0  0  0  0
  191.5670  177.4100  140.7970 C   0  0  0  0  0  2  0  0  0  0  0  0
  191.6280  176.5370  142.0430 C   0  0  0  0  0  2  0  0  0  0  0  0
  191.2720  177.3360  143.2930 C   0  0  1  0  0  3  0  0  0  0  0  0
  190.1930  179.4000  143.9360 F   0  0  0  0  0  0  0  0  0  0  0  0
  190.1540  178.3580  143.0210 C   0  0  2  0  0  3  0  0  0  0  0  0
  188.6000  176.6440  142.3790 O   0  0  0  0  0  0  0  0  0  0  0  0
  188.7860  177.7470  142.9670 C   0  0  0  0  0  0  0  0  0  0  0  0
  187.7320  178.4230  143.5730 O   0  0  0  0  0  0  0  0  0  0  0  0
  186.4690  177.8240  143.8190 C   0  0  2  0  0  3  0  0  0  0  0  0
  184.8110  177.8300  141.7160 O   0  0  0  0  0  1  0  0  0  0  0  0
  184.0250  178.3520  143.8570 N   0  0  0  0  0  0  0  0  0  0  0  0
  183.1940  179.3780  144.4580 C   0  0  0  0  0  1  0  0  0  0  0  0
  185.3870  178.9160  143.7820 C   0  0  2  0  0  3  0  0  0  0  0  0
  184.5240  178.8900  142.5810 C   0  0  1  0  0  3  0  0  0  0  0  0
  186.5190  177.0990  145.1640 C   0  0  0  0  0  2  0  0  0  0  0  0
  188.5280  178.1580  148.8070 C   0  0  0  0  0  2  0  0  0  0  0  0
  188.4520  176.9600  146.6810 N   0  0  0  0  0  2  0  0  0  0  0  0
  187.1410  178.6480  148.4680 C   0  0  0  0  0  3  0  0  0  0  0  0
  187.4140  177.8420  146.1450 C   0  0  2  0  0  3  0  0  0  0  0  0
  186.5980  178.4600  147.2520 C   0  0  0  0  0  3  0  0  0  0  0  0
  189.3040  177.7780  147.5400 C   0  0  0  0  0  2  0  0  0  0  0  0
  190.9120  176.4590  144.3210 O   0  0  0  0  0  0  0  0  0  0  0  0
  191.7110  176.8270  145.4110 C   0  0  0  0  0  2  0  0  0  0  0  0
  192.1230  175.6180  146.1730 C   0  0  0  0  0  0  0  0  0  0  0  0
  192.2400  175.6690  147.4240 O   0  0  0  0  0  1  0  0  0  0  0  0
  192.4390  174.4500  145.4920 O   0  0  0  0  0  0  0  0  0  0  0  0
  1  2  1  0  0  0  0
  1  3  1  1  0  0  0
  1  5  1  0  0  0  0
  2 18  1  6  0  0  0
  3  5  1  0  0  0  0
  4 11  1  6  0  0  0
  4  1  1  0  0  0  0
  4  2  1  0  0  0  0
  5 30  1  1  0  0  0
  7 11  1  0  0  0  0
  7 10  1  0  0  0  0
  8  9  1  0  0  0  0
  9 12  1  0  0  0  0
 11  8  1  1  0  0  0
 12  6  1  0  0  0  0
 12 10  2  0  0  0  0
 13 14  1  0  0  0  0
 14 17  1  0  0  0  0
 14 21  1  1  0  0  0
 15 19  1  0  0  0  0
 17 13  1  6  0  0  0
 18 19  1  1  0  0  0
 18 17  1  0  0  0  0
 19 17  1  0  0  0  0
 19 16  1  0  0  0  0
 20 21  1  0  0  0  0
 20 23  1  0  0  0  0
 21 22  2  0  0  0  0
 25 26  1  0  0  0  0
 27 24  1  0  0  0  0
 27 26  1  0  0  0  0
 28 25  2  0  0  0  0
 29 23  1  1  0  0  0
 29 28  1  0  0  0  0
 29 24  1  0  0  0  0
 30 31  1  0  0  0  0
 31 32  1  0  0  0  0
 33 32  1  6  0  0  0
 33 52  1  0  0  0  0
 35 33  1  0  0  0  0
 35 34  1  1  0  0  0
 36 37  2  0  0  0  0
 37 35  1  0  0  0  0
 37 38  1  0  0  0  0
 38 39  1  0  0  0  0
 39 45  1  1  0  0  0
 41 42  1  0  0  0  0
 43 39  1  6  0  0  0
 43 41  1  0  0  0  0
 44 40  1  6  0  0  0
 44 43  1  0  0  0  0
 44 41  1  0  0  0  0
 47 51  1  0  0  0  0
 48 46  1  0  0  0  0
 49 45  1  6  0  0  0
 49 47  1  0  0  0  0
 49 50  1  0  0  0  0
 50 48  2  0  0  0  0
 51 46  1  0  0  0  0
 52 53  1  0  0  0  0
 53 54  1  0  0  0  0
 54 55  1  0  0  0  0
 56 54  2  0  0  0  0
M  END
>  <MODEL>
2

>  <REMARK>
 VINA RESULT:      -7.3      1.576      3.188
  Name = 
  19 active torsions:
  status: ('A' for Active; 'I' for Inactive)
    1  A    between atoms: O_1  and  C_31
    2  A    between atoms: O_1  and  C_35
    3  A    between atoms: C_8  and  N_25
    4  A    between atoms: C_8  and  C_44
    5  A    between atoms: C_11  and  C_35
    6  A    between atoms: C_11  and  C_49
    7  A    between atoms: O_14  and  C_21
    8  A    between atoms: O_14  and  C_27
    9  A    between atoms: C_15  and  C_27
   10  A    between atoms: C_15  and  C_35
   11  A    between atoms: C_17  and  C_38
   12  A    between atoms: N_20  and  C_50
   13  A    between atoms: C_21  and  CA_30
   14  A    between atoms: C_21  and  C_53
   15  A    between atoms: C_22  and  C_31
   16  A    between atoms: C_33  and  C_49
   17  A    between atoms: C_33  and  C_55
   18  A    between atoms: C_39  and  C_53
   19  A    between atoms: C_47  and  C_51
                            x       y       z     vdW  Elec       q    Type
                         _______ _______ _______ _____ _____    ______ ____

>  <TORSDO>
F 19

$$$$
=
 OpenBabel11062414533D

 56 63  0  0  1  0  0  0  0  0999 V2000
  186.9810  177.5320  143.1050 C   0  0  1  0  0  0  0  0  0  0  0  0
  186.0920  178.7280  142.9790 N   0  0  2  0  0  0  0  0  0  0  0  0
  188.3780  177.7440  142.9320 O   0  0  0  0  0  0  0  0  0  0  0  0
  186.8240  178.4930  144.2240 C   0  0  1  0  0  3  0  0  0  0  0  0
  187.7110  177.4830  141.7630 C   0  0  2  0  0  3  0  0  0  0  0  0
  188.8570  178.3130  148.5160 O   0  0  0  0  0  1  0  0  0  0  0  0
  185.7740  179.0240  146.4660 C   0  0  0  0  0  2  0  0  0  0  0  0
  186.5110  176.6620  146.0360 C   0  0  0  0  0  2  0  0  0  0  0  0
  187.8590  176.9160  146.7090 C   0  0  0  0  0  2  0  0  0  0  0  0
  186.9330  179.1160  147.4280 C   0  0  0  0  0  3  0  0  0  0  0  0
  185.9730  177.9490  145.3960 C   0  0  2  0  0  3  0  0  0  0  0  0
  187.8450  178.1440  147.5810 C   0  0  0  0  0  0  0  0  0  0  0  0
  182.5680  178.3970  141.6650 O   0  0  0  0  0  0  0  0  0  0  0  0
  183.6460  177.8070  141.0360 C   0  0  2  0  0  3  0  0  0  0  0  0
  182.6870  178.5430  144.1990 O   0  0  0  0  0  1  0  0  0  0  0  0
  184.2310  180.3430  144.0180 O   0  0  0  0  0  1  0  0  0  0  0  0
  183.8360  178.9750  141.9680 C   0  0  2  0  0  0  0  0  0  0  0  0
  184.7290  178.1870  142.9710 C   0  0  2  0  0  3  0  0  0  0  0  0
  183.7400  179.1420  143.4990 C   0  0  0  0  0  0  0  0  0  0  0  0
  184.4580  177.4900  138.6740 N   0  0  0  0  0  2  0  0  0  0  0  0
  183.6190  178.1980  139.5880 C   0  0  0  0  0  0  0  0  0  0  0  0
  182.8700  179.1280  139.1830 O   0  0  0  0  0  0  0  0  0  0  0  0
  184.1210  177.2510  137.2710 C   0  0  0  0  0  2  0  0  0  0  0  0
  185.6610  175.3400  136.7800 N   0  0  0  0  0  2  0  0  0  0  0  0
  187.7170  177.2110  136.2810 C   0  0  0  0  0  3  0  0  0  0  0  0
  188.0140  175.7340  136.2780 C   0  0  0  0  0  2  0  0  0  0  0  0
  186.7650  174.9320  135.9060 C   0  0  0  0  0  2  0  0  0  0  0  0
  186.4620  177.6690  136.4080 C   0  0  0  0  0  3  0  0  0  0  0  0
  185.2860  176.7210  136.4320 C   0  0  2  0  0  3  0  0  0  0  0  0
  187.7800  178.7350  140.8850 C   0  0  0  0  0  2  0  0  0  0  0  0
  188.8430  178.5590  139.8040 C   0  0  0  0  0  2  0  0  0  0  0  0
  189.1570  177.0850  139.5830 C   0  0  0  0  0  2  0  0  0  0  0  0
  190.6560  176.8200  139.6860 C   0  0  1  0  0  3  0  0  0  0  0  0
  190.6510  177.6340  137.4110 F   0  0  0  0  0  0  0  0  0  0  0  0
  191.3350  176.8230  138.3050 C   0  0  2  0  0  3  0  0  0  0  0  0
  190.8800  174.4670  138.1860 O   0  0  0  0  0  0  0  0  0  0  0  0
  191.5340  175.4500  137.7350 C   0  0  0  0  0  0  0  0  0  0  0  0
  192.4540  175.2870  136.7040 O   0  0  0  0  0  0  0  0  0  0  0  0
  193.8500  175.1580  136.9280 C   0  0  2  0  0  3  0  0  0  0  0  0
  194.5310  177.6730  136.3120 O   0  0  0  0  0  1  0  0  0  0  0  0
  195.9570  175.8900  135.7980 N   0  0  0  0  0  0  0  0  0  0  0  0
  196.7280  175.4480  134.6520 C   0  0  0  0  0  1  0  0  0  0  0  0
  194.5870  175.3780  135.5970 C   0  0  2  0  0  3  0  0  0  0  0  0
  194.9070  176.7900  135.2940 C   0  0  1  0  0  3  0  0  0  0  0  0
  194.1300  173.7790  137.5270 C   0  0  0  0  0  2  0  0  0  0  0  0
  197.7740  175.0050  139.4380 C   0  0  0  0  0  2  0  0  0  0  0  0
  195.3580  175.1850  139.1320 N   0  0  0  0  0  2  0  0  0  0  0  0
  197.7330  173.9510  138.3580 C   0  0  0  0  0  3  0  0  0  0  0  0
  195.2670  173.8510  138.5360 C   0  0  2  0  0  3  0  0  0  0  0  0
  196.5730  173.4480  137.8980 C   0  0  0  0  0  3  0  0  0  0  0  0
  196.4150  175.1300  140.1390 C   0  0  0  0  0  2  0  0  0  0  0  0
  191.2390  177.7660  140.5360 O   0  0  0  0  0  0  0  0  0  0  0  0
  192.1390  177.0410  141.3250 C   0  0  0  0  0  2  0  0  0  0  0  0
  191.6520  176.9800  142.7290 C   0  0  0  0  0  0  0  0  0  0  0  0
  191.1150  175.9310  143.1670 O   0  0  0  0  0  0  0  0  0  0  0  0
  191.7350  178.1070  143.5360 O   0  0  0  0  0  1  0  0  0  0  0  0
  1  3  1  6  0  0  0
  1  4  1  0  0  0  0
  2 18  1  1  0  0  0
  2  1  1  0  0  0  0
  2  4  1  0  0  0  0
  4 11  1  1  0  0  0
  5 30  1  6  0  0  0
  5  3  1  0  0  0  0
  5  1  1  0  0  0  0
  7 10  1  0  0  0  0
  8  9  1  0  0  0  0
  9 12  1  0  0  0  0
 10 12  2  0  0  0  0
 11  8  1  1  0  0  0
 11  7  1  0  0  0  0
 12  6  1  0  0  0  0
 14 21  1  6  0  0  0
 14 13  1  0  0  0  0
 14 17  1  0  0  0  0
 17 13  1  1  0  0  0
 17 18  1  0  0  0  0
 17 19  1  0  0  0  0
 18 19  1  1  0  0  0
 19 16  1  0  0  0  0
 19 15  1  0  0  0  0
 20 21  1  0  0  0  0
 22 21  2  0  0  0  0
 23 20  1  0  0  0  0
 25 28  2  0  0  0  0
 26 25  1  0  0  0  0
 27 26  1  0  0  0  0
 27 24  1  0  0  0  0
 28 29  1  0  0  0  0
 29 24  1  0  0  0  0
 29 23  1  1  0  0  0
 31 30  1  0  0  0  0
 32 31  1  0  0  0  0
 33 32  1  6  0  0  0
 33 52  1  0  0  0  0
 35 34  1  6  0  0  0
 35 33  1  0  0  0  0
 37 36  2  0  0  0  0
 37 35  1  0  0  0  0
 38 39  1  0  0  0  0
 38 37  1  0  0  0  0
 39 45  1  6  0  0  0
 42 41  1  0  0  0  0
 43 41  1  0  0  0  0
 43 39  1  1  0  0  0
 44 43  1  0  0  0  0
 44 41  1  0  0  0  0
 44 40  1  1  0  0  0
 46 51  1  0  0  0  0
 47 51  1  0  0  0  0
 48 46  1  0  0  0  0
 49 45  1  6  0  0  0
 49 47  1  0  0  0  0
 50 48  2  0  0  0  0
 50 49  1  0  0  0  0
 52 53  1  0  0  0  0
 53 54  1  0  0  0  0
 54 55  2  0  0  0  0
 54 56  1  0  0  0  0
M  END
>  <MODEL>
3

>  <REMARK>
 VINA RESULT:      -6.8      2.420      9.870
  Name = 
  19 active torsions:
  status: ('A' for Active; 'I' for Inactive)
    1  A    between atoms: O_1  and  C_31
    2  A    between atoms: O_1  and  C_35
    3  A    between atoms: C_8  and  N_25
    4  A    between atoms: C_8  and  C_44
    5  A    between atoms: C_11  and  C_35
    6  A    between atoms: C_11  and  C_49
    7  A    between atoms: O_14  and  C_21
    8  A    between atoms: O_14  and  C_27
    9  A    between atoms: C_15  and  C_27
   10  A    between atoms: C_15  and  C_35
   11  A    between atoms: C_17  and  C_38
   12  A    between atoms: N_20  and  C_50
   13  A    between atoms: C_21  and  CA_30
   14  A    between atoms: C_21  and  C_53
   15  A    between atoms: C_22  and  C_31
   16  A    between atoms: C_33  and  C_49
   17  A    between atoms: C_33  and  C_55
   18  A    between atoms: C_39  and  C_53
   19  A    between atoms: C_47  and  C_51
                            x       y       z     vdW  Elec       q    Type
                         _______ _______ _______ _____ _____    ______ ____

>  <TORSDO>
F 19

$$$$
=
 OpenBabel11062414533D

 56 63  0  0  1  0  0  0  0  0999 V2000
  185.3390  178.2750  137.7550 C   0  0  1  0  0  0  0  0  0  0  0  0
  184.7880  176.8870  137.8410 N   0  0  2  0  0  0  0  0  0  0  0  0
  186.0940  178.7400  138.8690 O   0  0  0  0  0  0  0  0  0  0  0  0
  186.1920  177.0930  137.4830 C   0  0  1  0  0  3  0  0  0  0  0  0
  184.7470  178.9730  138.9790 C   0  0  2  0  0  3  0  0  0  0  0  0
  190.7470  176.3960  136.3200 O   0  0  0  0  0  1  0  0  0  0  0  0
  187.1280  175.5140  135.7390 C   0  0  0  0  0  2  0  0  0  0  0  0
  187.4310  177.9810  135.3840 C   0  0  0  0  0  2  0  0  0  0  0  0
  188.8170  177.9450  136.0280 C   0  0  0  0  0  2  0  0  0  0  0  0
  188.6100  175.4620  136.0150 C   0  0  0  0  0  3  0  0  0  0  0  0
  186.5260  176.8980  135.9850 C   0  0  2  0  0  3  0  0  0  0  0  0
  189.3860  176.5530  136.0910 C   0  0  0  0  0  0  0  0  0  0  0  0
  181.4110  176.8360  136.1550 O   0  0  0  0  0  0  0  0  0  0  0  0
  182.0160  178.0100  136.5520 C   0  0  2  0  0  3  0  0  0  0  0  0
  182.9590  174.9850  135.3600 O   0  0  0  0  0  1  0  0  0  0  0  0
  183.5570  174.5240  137.6150 O   0  0  0  0  0  1  0  0  0  0  0  0
  182.4050  176.6920  137.1670 C   0  0  2  0  0  0  0  0  0  0  0  0
  183.8860  176.7670  136.6910 C   0  0  2  0  0  3  0  0  0  0  0  0
  183.1920  175.4680  136.6520 C   0  0  0  0  0  0  0  0  0  0  0  0
  180.9150  180.1950  137.1520 N   0  0  0  0  0  2  0  0  0  0  0  0
  181.0380  178.7890  137.3810 C   0  0  0  0  0  0  0  0  0  0  0  0
  180.3340  178.2180  138.2580 O   0  0  0  0  0  0  0  0  0  0  0  0
  179.6730  180.9470  137.3290 C   0  0  0  0  0  2  0  0  0  0  0  0
  180.7720  182.5140  135.7160 N   0  0  0  0  0  2  0  0  0  0  0  0
  180.2680  184.6240  137.5230 C   0  0  0  0  0  3  0  0  0  0  0  0
  181.0770  184.8660  136.2760 C   0  0  0  0  0  2  0  0  0  0  0  0
  180.6890  183.8740  135.1780 C   0  0  0  0  0  2  0  0  0  0  0  0
  179.6760  183.4420  137.7510 C   0  0  0  0  0  3  0  0  0  0  0  0
  179.6990  182.3460  136.7100 C   0  0  2  0  0  3  0  0  0  0  0  0
  184.2140  178.1420  140.1500 C   0  0  0  0  0  2  0  0  0  0  0  0
  183.9120  179.0480  141.3410 C   0  0  0  0  0  2  0  0  0  0  0  0
  184.9550  178.8730  142.4370 C   0  0  0  0  0  2  0  0  0  0  0  0
  184.2970  178.5570  143.7770 C   0  0  1  0  0  3  0  0  0  0  0  0
  185.6100  180.0590  145.1410 F   0  0  0  0  0  0  0  0  0  0  0  0
  185.2790  178.7250  144.9500 C   0  0  2  0  0  3  0  0  0  0  0  0
  186.4760  176.7820  144.2030 O   0  0  0  0  0  0  0  0  0  0  0  0
  186.5130  177.8830  144.8220 C   0  0  0  0  0  0  0  0  0  0  0  0
  187.6920  178.3390  145.4030 O   0  0  0  0  0  0  0  0  0  0  0  0
  188.9560  177.7440  145.1570 C   0  0  2  0  0  3  0  0  0  0  0  0
  188.0420  176.4110  147.2930 O   0  0  0  0  0  1  0  0  0  0  0  0
  190.3350  176.4990  146.8320 N   0  0  0  0  0  0  0  0  0  0  0  0
  191.5540  176.7600  147.5730 C   0  0  0  0  0  1  0  0  0  0  0  0
  189.7980  177.8170  146.4420 C   0  0  2  0  0  3  0  0  0  0  0  0
  189.2260  177.0910  147.5970 C   0  0  1  0  0  3  0  0  0  0  0  0
  189.6220  178.4630  143.9830 C   0  0  0  0  0  2  0  0  0  0  0  0
  189.8690  177.3480  139.8450 C   0  0  0  0  0  2  0  0  0  0  0  0
  190.8310  177.4630  142.0860 N   0  0  0  0  0  2  0  0  0  0  0  0
  188.6740  178.0630  140.4270 C   0  0  0  0  0  3  0  0  0  0  0  0
  189.5180  177.6310  142.7130 C   0  0  2  0  0  3  0  0  0  0  0  0
  188.5290  178.2430  141.7520 C   0  0  0  0  0  3  0  0  0  0  0  0
  190.6420  176.5890  140.9310 C   0  0  0  0  0  2  0  0  0  0  0  0
  183.1680  179.3660  143.9450 O   0  0  0  0  0  0  0  0  0  0  0  0
  182.1100  178.4740  144.1590 C   0  0  0  0  0  2  0  0  0  0  0  0
  180.8360  179.0690  143.6730 C   0  0  0  0  0  0  0  0  0  0  0  0
  180.8540  180.0060  142.8360 O   0  0  0  0  0  0  0  0  0  0  0  0
  179.6280  178.6270  144.1960 O   0  0  0  0  0  1  0  0  0  0  0  0
  1  2  1  0  0  0  0
  1  3  1  1  0  0  0
  1  5  1  0  0  0  0
  2 18  1  6  0  0  0
  3  5  1  0  0  0  0
  4 11  1  6  0  0  0
  4  1  1  0  0  0  0
  4  2  1  0  0  0  0
  5 30  1  1  0  0  0
  7 11  1  0  0  0  0
  7 10  1  0  0  0  0
  8  9  1  0  0  0  0
  9 12  1  0  0  0  0
 10 12  2  0  0  0  0
 11  8  1  1  0  0  0
 12  6  1  0  0  0  0
 13 14  1  0  0  0  0
 14 17  1  0  0  0  0
 14 21  1  1  0  0  0
 15 19  1  0  0  0  0
 17 13  1  6  0  0  0
 18 19  1  1  0  0  0
 18 17  1  0  0  0  0
 19 17  1  0  0  0  0
 19 16  1  0  0  0  0
 20 23  1  0  0  0  0
 20 21  1  0  0  0  0
 21 22  2  0  0  0  0
 24 29  1  0  0  0  0
 25 28  2  0  0  0  0
 26 25  1  0  0  0  0
 27 24  1  0  0  0  0
 27 26  1  0  0  0  0
 29 23  1  1  0  0  0
 29 28  1  0  0  0  0
 30 31  1  0  0  0  0
 31 32  1  0  0  0  0
 33 32  1  6  0  0  0
 33 52  1  0  0  0  0
 33 35  1  0  0  0  0
 35 34  1  6  0  0  0
 36 37  2  0  0  0  0
 37 35  1  0  0  0  0
 37 38  1  0  0  0  0
 39 45  1  6  0  0  0
 39 38  1  0  0  0  0
 41 42  1  0  0  0  0
 41 44  1  0  0  0  0
 43 39  1  6  0  0  0
 43 41  1  0  0  0  0
 43 44  1  0  0  0  0
 44 40  1  6  0  0  0
 46 48  1  0  0  0  0
 46 51  1  0  0  0  0
 47 49  1  0  0  0  0
 48 50  2  0  0  0  0
 49 45  1  1  0  0  0
 50 49  1  0  0  0  0
 51 47  1  0  0  0  0
 52 53  1  0  0  0  0
 54 53  1  0  0  0  0
 54 56  1  0  0  0  0
 55 54  2  0  0  0  0
M  END
>  <MODEL>
4

>  <REMARK>
 VINA RESULT:      -6.7      3.792      7.207
  Name = 
  19 active torsions:
  status: ('A' for Active; 'I' for Inactive)
    1  A    between atoms: O_1  and  C_31
    2  A    between atoms: O_1  and  C_35
    3  A    between atoms: C_8  and  N_25
    4  A    between atoms: C_8  and  C_44
    5  A    between atoms: C_11  and  C_35
    6  A    between atoms: C_11  and  C_49
    7  A    between atoms: O_14  and  C_21
    8  A    between atoms: O_14  and  C_27
    9  A    between atoms: C_15  and  C_27
   10  A    between atoms: C_15  and  C_35
   11  A    between atoms: C_17  and  C_38
   12  A    between atoms: N_20  and  C_50
   13  A    between atoms: C_21  and  CA_30
   14  A    between atoms: C_21  and  C_53
   15  A    between atoms: C_22  and  C_31
   16  A    between atoms: C_33  and  C_49
   17  A    between atoms: C_33  and  C_55
   18  A    between atoms: C_39  and  C_53
   19  A    between atoms: C_47  and  C_51
                            x       y       z     vdW  Elec       q    Type
                         _______ _______ _______ _____ _____    ______ ____

>  <TORSDO>
F 19

$$$$
=
 OpenBabel11062414533D

 56 63  0  0  1  0  0  0  0  0999 V2000
  181.8710  179.9890  139.2030 C   0  0  1  0  0  0  0  0  0  0  0  0
  181.6420  178.8000  138.3240 N   0  0  2  0  0  0  0  0  0  0  0  0
  183.1590  180.5950  139.1470 O   0  0  0  0  0  0  0  0  0  0  0  0
  181.5720  180.1490  137.7590 C   0  0  1  0  0  3  0  0  0  0  0  0
  183.0670  179.5760  140.0620 C   0  0  2  0  0  3  0  0  0  0  0  0
  181.1630  184.2590  135.4080 O   0  0  0  0  0  1  0  0  0  0  0  0
  179.8880  180.7560  135.9690 C   0  0  0  0  0  2  0  0  0  0  0  0
  179.8050  182.0100  138.1430 C   0  0  0  0  0  2  0  0  0  0  0  0
  180.6750  183.1310  137.5760 C   0  0  0  0  0  2  0  0  0  0  0  0
  180.4120  182.0310  135.3560 C   0  0  0  0  0  3  0  0  0  0  0  0
  180.1430  180.6700  137.4740 C   0  0  2  0  0  3  0  0  0  0  0  0
  180.7160  183.1240  136.0710 C   0  0  0  0  0  0  0  0  0  0  0  0
  179.3500  176.8640  140.6160 O   0  0  0  0  0  0  0  0  0  0  0  0
  179.8110  178.1250  140.9320 C   0  0  2  0  0  3  0  0  0  0  0  0
  178.9310  176.4040  138.1520 O   0  0  0  0  0  1  0  0  0  0  0  0
  181.2740  176.2050  137.7960 O   0  0  0  0  0  1  0  0  0  0  0  0
  180.5360  177.2630  139.9330 C   0  0  2  0  0  0  0  0  0  0  0  0
  180.3470  178.2600  138.7510 C   0  0  2  0  0  3  0  0  0  0  0  0
  180.2250  176.8150  138.4890 C   0  0  0  0  0  0  0  0  0  0  0  0
  181.7030  178.6540  142.5080 N   0  0  0  0  0  2  0  0  0  0  0  0
  180.4110  178.0780  142.3060 C   0  0  0  0  0  0  0  0  0  0  0  0
  179.7880  177.5480  143.2660 O   0  0  0  0  0  0  0  0  0  0  0  0
  182.1350  179.2780  143.7580 C   0  0  0  0  0  2  0  0  0  0  0  0
  183.7930  179.2780  145.6330 N   0  0  0  0  0  2  0  0  0  0  0  0
  185.7130  178.2300  143.8480 C   0  0  0  0  0  3  0  0  0  0  0  0
  186.1070  178.6190  145.2490 C   0  0  0  0  0  2  0  0  0  0  0  0
  184.9110  178.5160  146.1960 C   0  0  0  0  0  2  0  0  0  0  0  0
  184.4330  178.2650  143.4500 C   0  0  0  0  0  3  0  0  0  0  0  0
  183.3220  178.5800  144.4260 C   0  0  2  0  0  3  0  0  0  0  0  0
  183.9810  178.4380  139.6010 C   0  0  0  0  0  2  0  0  0  0  0  0
  185.0080  178.9630  138.6010 C   0  0  0  0  0  2  0  0  0  0  0  0
  186.2740  178.1180  138.6230 C   0  0  0  0  0  2  0  0  0  0  0  0
  186.6950  177.7200  137.2120 C   0  0  1  0  0  3  0  0  0  0  0  0
  188.0810  176.0290  138.2400 F   0  0  0  0  0  0  0  0  0  0  0  0
  188.0300  176.9540  137.2070 C   0  0  2  0  0  3  0  0  0  0  0  0
  189.6550  178.3860  136.1700 O   0  0  0  0  0  0  0  0  0  0  0  0
  189.2330  177.8490  137.2330 C   0  0  0  0  0  0  0  0  0  0  0  0
  189.8720  178.0670  138.4490 O   0  0  0  0  0  0  0  0  0  0  0  0
  190.9650  177.2820  138.9000 C   0  0  2  0  0  3  0  0  0  0  0  0
  193.5980  176.8120  138.7630 O   0  0  0  0  0  1  0  0  0  0  0  0
  192.0570  175.1420  138.2050 N   0  0  0  0  0  0  0  0  0  0  0  0
  191.8760  174.1860  137.1300 C   0  0  0  0  0  1  0  0  0  0  0  0
  191.4620  176.4090  137.7360 C   0  0  2  0  0  3  0  0  0  0  0  0
  192.9270  176.2120  137.6930 C   0  0  1  0  0  3  0  0  0  0  0  0
  190.5140  176.4490  140.1000 C   0  0  0  0  0  2  0  0  0  0  0  0
  190.3080  177.6300  144.2230 C   0  0  0  0  0  2  0  0  0  0  0  0
  191.5700  177.2840  142.1620 N   0  0  0  0  0  2  0  0  0  0  0  0
  189.1110  177.1130  143.4620 C   0  0  0  0  0  3  0  0  0  0  0  0
  190.3610  177.3240  141.3370 C   0  0  2  0  0  3  0  0  0  0  0  0
  189.1450  176.9200  142.1310 C   0  0  0  0  0  3  0  0  0  0  0  0
  191.3590  178.2120  143.2700 C   0  0  0  0  0  2  0  0  0  0  0  0
  185.6790  176.9650  136.6170 O   0  0  0  0  0  0  0  0  0  0  0  0
  186.2460  176.4510  135.4450 C   0  0  0  0  0  2  0  0  0  0  0  0
  186.1970  174.9640  135.4630 C   0  0  0  0  0  0  0  0  0  0  0  0
  185.1930  174.3700  135.9310 O   0  0  0  0  0  1  0  0  0  0  0  0
  187.2910  174.2340  135.0190 O   0  0  0  0  0  0  0  0  0  0  0  0
  1  3  1  6  0  0  0
  1  5  1  0  0  0  0
  2 18  1  1  0  0  0
  2  1  1  0  0  0  0
  3  5  1  0  0  0  0
  4 11  1  1  0  0  0
  4  2  1  0  0  0  0
  4  1  1  0  0  0  0
  5 30  1  6  0  0  0
  6 12  1  0  0  0  0
  9  8  1  0  0  0  0
 10  7  1  0  0  0  0
 10 12  2  0  0  0  0
 11  7  1  6  0  0  0
 11  8  1  0  0  0  0
 12  9  1  0  0  0  0
 13 14  1  0  0  0  0
 14 21  1  1  0  0  0
 15 19  1  0  0  0  0
 16 19  1  0  0  0  0
 17 13  1  6  0  0  0
 17 14  1  0  0  0  0
 18 19  1  6  0  0  0
 18 17  1  0  0  0  0
 19 17  1  0  0  0  0
 20 23  1  0  0  0  0
 21 20  1  0  0  0  0
 21 22  2  0  0  0  0
 24 27  1  0  0  0  0
 25 26  1  0  0  0  0
 26 27  1  0  0  0  0
 28 25  2  0  0  0  0
 28 29  1  0  0  0  0
 29 23  1  6  0  0  0
 29 24  1  0  0  0  0
 31 32  1  0  0  0  0
 31 30  1  0  0  0  0
 33 32  1  1  0  0  0
 35 33  1  0  0  0  0
 35 37  1  0  0  0  0
 35 34  1  1  0  0  0
 36 37  2  0  0  0  0
 37 38  1  0  0  0  0
 38 39  1  0  0  0  0
 39 45  1  1  0  0  0
 42 41  1  0  0  0  0
 43 41  1  0  0  0  0
 43 39  1  1  0  0  0
 44 43  1  0  0  0  0
 44 41  1  0  0  0  0
 44 40  1  1  0  0  0
 47 51  1  0  0  0  0
 48 46  1  0  0  0  0
 49 45  1  6  0  0  0
 49 50  1  0  0  0  0
 49 47  1  0  0  0  0
 50 48  2  0  0  0  0
 51 46  1  0  0  0  0
 52 33  1  0  0  0  0
 53 54  1  0  0  0  0
 53 52  1  0  0  0  0
 54 55  1  0  0  0  0
 56 54  2  0  0  0  0
M  END
>  <MODEL>
5

>  <REMARK>
 VINA RESULT:      -6.6      3.686     10.636
  Name = 
  19 active torsions:
  status: ('A' for Active; 'I' for Inactive)
    1  A    between atoms: O_1  and  C_31
    2  A    between atoms: O_1  and  C_35
    3  A    between atoms: C_8  and  N_25
    4  A    between atoms: C_8  and  C_44
    5  A    between atoms: C_11  and  C_35
    6  A    between atoms: C_11  and  C_49
    7  A    between atoms: O_14  and  C_21
    8  A    between atoms: O_14  and  C_27
    9  A    between atoms: C_15  and  C_27
   10  A    between atoms: C_15  and  C_35
   11  A    between atoms: C_17  and  C_38
   12  A    between atoms: N_20  and  C_50
   13  A    between atoms: C_21  and  CA_30
   14  A    between atoms: C_21  and  C_53
   15  A    between atoms: C_22  and  C_31
   16  A    between atoms: C_33  and  C_49
   17  A    between atoms: C_33  and  C_55
   18  A    between atoms: C_39  and  C_53
   19  A    between atoms: C_47  and  C_51
                            x       y       z     vdW  Elec       q    Type
                         _______ _______ _______ _____ _____    ______ ____

>  <TORSDO>
F 19

$$$$
=
 OpenBabel11062414533D

 56 63  0  0  1  0  0  0  0  0999 V2000
  181.6240  180.0510  138.5510 C   0  0  1  0  0  0  0  0  0  0  0  0
  181.5390  179.0050  137.4850 N   0  0  2  0  0  0  0  0  0  0  0  0
  182.8830  180.6910  138.7280 O   0  0  0  0  0  0  0  0  0  0  0  0
  181.4700  180.4220  137.1240 C   0  0  1  0  0  3  0  0  0  0  0  0
  182.7400  179.5430  139.4640 C   0  0  2  0  0  3  0  0  0  0  0  0
  181.1420  184.7980  135.2990 O   0  0  0  0  0  1  0  0  0  0  0  0
  179.9480  181.2220  135.2660 C   0  0  0  0  0  2  0  0  0  0  0  0
  179.6060  182.1730  137.5650 C   0  0  0  0  0  2  0  0  0  0  0  0
  180.4860  183.3800  137.2410 C   0  0  0  0  0  2  0  0  0  0  0  0
  180.4820  182.5800  134.8810 C   0  0  0  0  0  3  0  0  0  0  0  0
  180.0580  180.9430  136.7650 C   0  0  2  0  0  3  0  0  0  0  0  0
  180.6740  183.5740  135.7600 C   0  0  0  0  0  0  0  0  0  0  0  0
  179.1040  176.6850  139.2000 O   0  0  0  0  0  0  0  0  0  0  0  0
  179.4730  177.8980  139.7460 C   0  0  2  0  0  3  0  0  0  0  0  0
  178.9700  176.5870  136.6650 O   0  0  0  0  0  1  0  0  0  0  0  0
  181.3440  176.5080  136.5480 O   0  0  0  0  0  1  0  0  0  0  0  0
  180.3380  177.2150  138.7190 C   0  0  2  0  0  0  0  0  0  0  0  0
  180.2310  178.3710  137.6820 C   0  0  2  0  0  3  0  0  0  0  0  0
  180.2020  176.9790  137.2000 C   0  0  0  0  0  0  0  0  0  0  0  0
  180.9750  178.4770  141.6830 N   0  0  0  0  0  2  0  0  0  0  0  0
  179.9250  177.6630  141.1570 C   0  0  0  0  0  0  0  0  0  0  0  0
  179.3870  176.7710  141.8680 O   0  0  0  0  0  0  0  0  0  0  0  0
  181.0880  178.8580  143.0900 C   0  0  0  0  0  2  0  0  0  0  0  0
  182.6910  179.3350  144.9530 N   0  0  0  0  0  2  0  0  0  0  0  0
  184.8030  179.1940  143.0840 C   0  0  0  0  0  3  0  0  0  0  0  0
  185.0720  179.6010  144.5090 C   0  0  0  0  0  2  0  0  0  0  0  0
  184.0280  178.9990  145.4500 C   0  0  0  0  0  2  0  0  0  0  0  0
  183.5860  178.7850  142.6950 C   0  0  0  0  0  3  0  0  0  0  0  0
  182.4690  178.6000  143.6970 C   0  0  2  0  0  3  0  0  0  0  0  0
  183.7460  178.5140  138.9410 C   0  0  0  0  0  2  0  0  0  0  0  0
  185.1300  179.1460  138.8260 C   0  0  0  0  0  2  0  0  0  0  0  0
  186.1140  178.1900  138.1650 C   0  0  0  0  0  2  0  0  0  0  0  0
  187.5310  178.4140  138.6820 C   0  0  1  0  0  3  0  0  0  0  0  0
  186.8210  177.7940  140.9070 F   0  0  0  0  0  0  0  0  0  0  0  0
  187.8120  177.5970  139.9560 C   0  0  2  0  0  3  0  0  0  0  0  0
  190.2100  177.4690  139.9350 O   0  0  0  0  0  0  0  0  0  0  0  0
  189.1690  177.8500  140.5410 C   0  0  0  0  0  0  0  0  0  0  0  0
  189.2530  178.5070  141.7650 O   0  0  0  0  0  0  0  0  0  0  0  0
  189.4960  177.8330  142.9900 C   0  0  2  0  0  3  0  0  0  0  0  0
  187.9360  175.6710  143.2440 O   0  0  0  0  0  1  0  0  0  0  0  0
  188.3230  177.0860  145.0680 N   0  0  0  0  0  0  0  0  0  0  0  0
  187.5280  177.7260  146.0980 C   0  0  0  0  0  1  0  0  0  0  0  0
  188.2540  177.9670  143.8850 C   0  0  2  0  0  3  0  0  0  0  0  0
  187.4130  176.7530  143.9600 C   0  0  1  0  0  3  0  0  0  0  0  0
  190.7490  178.4230  143.6380 C   0  0  0  0  0  2  0  0  0  0  0  0
  191.9850  174.8930  145.7470 C   0  0  0  0  0  2  0  0  0  0  0  0
  191.2040  176.0040  143.7180 N   0  0  0  0  0  2  0  0  0  0  0  0
  191.8930  176.2480  146.4070 C   0  0  0  0  0  3  0  0  0  0  0  0
  191.6400  177.3200  144.1910 C   0  0  2  0  0  3  0  0  0  0  0  0
  191.6820  177.3710  145.6980 C   0  0  0  0  0  3  0  0  0  0  0  0
  192.1640  175.0290  144.2300 C   0  0  0  0  0  2  0  0  0  0  0  0
  188.4510  178.1050  137.6740 O   0  0  0  0  0  0  0  0  0  0  0  0
  187.7940  177.1790  136.8540 C   0  0  0  0  0  2  0  0  0  0  0  0
  188.6380  175.9670  136.6760 C   0  0  0  0  0  0  0  0  0  0  0  0
  188.6360  175.0610  137.5470 O   0  0  0  0  0  1  0  0  0  0  0  0
  189.4770  175.8690  135.5740 O   0  0  0  0  0  0  0  0  0  0  0  0
  1  3  1  6  0  0  0
  1  5  1  0  0  0  0
  2 18  1  1  0  0  0
  2  1  1  0  0  0  0
  3  5  1  0  0  0  0
  4 11  1  1  0  0  0
  4  2  1  0  0  0  0
  4  1  1  0  0  0  0
  5 30  1  6  0  0  0
  6 12  1  0  0  0  0
  9  8  1  0  0  0  0
 10  7  1  0  0  0  0
 10 12  2  0  0  0  0
 11  7  1  6  0  0  0
 11  8  1  0  0  0  0
 12  9  1  0  0  0  0
 13 14  1  0  0  0  0
 14 21  1  1  0  0  0
 15 19  1  0  0  0  0
 16 19  1  0  0  0  0
 17 13  1  6  0  0  0
 17 14  1  0  0  0  0
 18 19  1  6  0  0  0
 18 17  1  0  0  0  0
 19 17  1  0  0  0  0
 20 23  1  0  0  0  0
 21 20  1  0  0  0  0
 21 22  2  0  0  0  0
 24 27  1  0  0  0  0
 25 26  1  0  0  0  0
 26 27  1  0  0  0  0
 28 25  2  0  0  0  0
 28 29  1  0  0  0  0
 29 23  1  6  0  0  0
 29 24  1  0  0  0  0
 31 30  1  0  0  0  0
 32 31  1  0  0  0  0
 33 32  1  6  0  0  0
 33 35  1  0  0  0  0
 35 37  1  0  0  0  0
 35 34  1  1  0  0  0
 36 37  2  0  0  0  0
 37 38  1  0  0  0  0
 38 39  1  0  0  0  0
 39 45  1  1  0  0  0
 41 42  1  0  0  0  0
 43 39  1  6  0  0  0
 43 44  1  0  0  0  0
 43 41  1  0  0  0  0
 44 40  1  6  0  0  0
 44 41  1  0  0  0  0
 46 48  1  0  0  0  0
 47 49  1  0  0  0  0
 47 51  1  0  0  0  0
 49 45  1  1  0  0  0
 49 50  1  0  0  0  0
 50 48  2  0  0  0  0
 51 46  1  0  0  0  0
 52 33  1  0  0  0  0
 53 52  1  0  0  0  0
 54 53  1  0  0  0  0
 54 55  1  0  0  0  0
 56 54  2  0  0  0  0
M  END
>  <MODEL>
6

>  <REMARK>
 VINA RESULT:      -6.5      3.882     10.018
  Name = 
  19 active torsions:
  status: ('A' for Active; 'I' for Inactive)
    1  A    between atoms: O_1  and  C_31
    2  A    between atoms: O_1  and  C_35
    3  A    between atoms: C_8  and  N_25
    4  A    between atoms: C_8  and  C_44
    5  A    between atoms: C_11  and  C_35
    6  A    between atoms: C_11  and  C_49
    7  A    between atoms: O_14  and  C_21
    8  A    between atoms: O_14  and  C_27
    9  A    between atoms: C_15  and  C_27
   10  A    between atoms: C_15  and  C_35
   11  A    between atoms: C_17  and  C_38
   12  A    between atoms: N_20  and  C_50
   13  A    between atoms: C_21  and  CA_30
   14  A    between atoms: C_21  and  C_53
   15  A    between atoms: C_22  and  C_31
   16  A    between atoms: C_33  and  C_49
   17  A    between atoms: C_33  and  C_55
   18  A    between atoms: C_39  and  C_53
   19  A    between atoms: C_47  and  C_51
                            x       y       z     vdW  Elec       q    Type
                         _______ _______ _______ _____ _____    ______ ____

>  <TORSDO>
F 19

$$$$
=
 OpenBabel11062414533D

 56 63  0  0  1  0  0  0  0  0999 V2000
  182.2750  179.9760  139.1740 C   0  0  1  0  0  0  0  0  0  0  0  0
  181.7770  178.7340  138.5060 N   0  0  2  0  0  0  0  0  0  0  0  0
  183.5650  180.4420  138.7920 O   0  0  0  0  0  0  0  0  0  0  0  0
  181.6940  180.0190  137.8110 C   0  0  1  0  0  3  0  0  0  0  0  0
  183.5880  179.5350  139.8200 C   0  0  2  0  0  3  0  0  0  0  0  0
  181.1590  183.9940  135.2610 O   0  0  0  0  0  1  0  0  0  0  0  0
  179.7490  180.6630  136.3220 C   0  0  0  0  0  2  0  0  0  0  0  0
  180.1820  182.0530  138.3690 C   0  0  0  0  0  2  0  0  0  0  0  0
  181.0110  183.0530  137.5640 C   0  0  0  0  0  2  0  0  0  0  0  0
  180.2430  181.8450  135.5240 C   0  0  0  0  0  3  0  0  0  0  0  0
  180.2820  180.6490  137.7560 C   0  0  2  0  0  3  0  0  0  0  0  0
  180.7610  182.9480  136.0830 C   0  0  0  0  0  0  0  0  0  0  0  0
  179.8720  177.3010  141.4340 O   0  0  0  0  0  0  0  0  0  0  0  0
  180.4730  178.5420  141.4840 C   0  0  2  0  0  3  0  0  0  0  0  0
  178.9310  176.5980  139.1810 O   0  0  0  0  0  1  0  0  0  0  0  0
  181.1330  176.1400  138.4090 O   0  0  0  0  0  1  0  0  0  0  0  0
  180.9200  177.5050  140.4870 C   0  0  2  0  0  0  0  0  0  0  0  0
  180.5620  178.3700  139.2430 C   0  0  2  0  0  3  0  0  0  0  0  0
  180.2910  176.9230  139.2040 C   0  0  0  0  0  0  0  0  0  0  0  0
  182.6940  179.0200  142.5720 N   0  0  0  0  0  2  0  0  0  0  0  0
  181.3360  178.5990  142.7110 C   0  0  0  0  0  0  0  0  0  0  0  0
  180.8730  178.2900  143.8420 O   0  0  0  0  0  0  0  0  0  0  0  0
  183.4360  179.7430  143.6030 C   0  0  0  0  0  2  0  0  0  0  0  0
  185.2630  178.2270  142.8100 N   0  0  0  0  0  2  0  0  0  0  0  0
  186.1760  178.0390  145.4760 C   0  0  0  0  0  3  0  0  0  0  0  0
  186.8090  177.2040  144.3930 C   0  0  0  0  0  2  0  0  0  0  0  0
  186.6720  177.8900  143.0320 C   0  0  0  0  0  2  0  0  0  0  0  0
  185.2490  178.9650  145.1890 C   0  0  0  0  0  3  0  0  0  0  0  0
  184.8910  179.2910  143.7570 C   0  0  2  0  0  3  0  0  0  0  0  0
  184.2960  178.2710  139.3250 C   0  0  0  0  0  2  0  0  0  0  0  0
  185.5720  178.6450  138.5740 C   0  0  0  0  0  2  0  0  0  0  0  0
  186.2780  177.4040  138.0460 C   0  0  0  0  0  2  0  0  0  0  0  0
  187.1950  177.7490  136.8760 C   0  0  1  0  0  3  0  0  0  0  0  0
  189.4530  176.8910  136.8780 F   0  0  0  0  0  0  0  0  0  0  0  0
  188.6550  177.9330  137.3260 C   0  0  2  0  0  3  0  0  0  0  0  0
  188.7260  179.2740  139.3180 O   0  0  0  0  0  0  0  0  0  0  0  0
  188.8040  178.1210  138.8070 C   0  0  0  0  0  0  0  0  0  0  0  0
  189.0350  177.0000  139.5980 O   0  0  0  0  0  0  0  0  0  0  0  0
  190.2640  176.7680  140.2690 C   0  0  2  0  0  3  0  0  0  0  0  0
  190.2580  175.2480  142.4740 O   0  0  0  0  0  1  0  0  0  0  0  0
  191.4600  177.2560  142.4110 N   0  0  0  0  0  0  0  0  0  0  0  0
  191.6280  178.4150  143.2650 C   0  0  0  0  0  1  0  0  0  0  0  0
  190.2350  177.4970  141.6220 C   0  0  2  0  0  3  0  0  0  0  0  0
  190.1990  176.6060  142.8030 C   0  0  1  0  0  3  0  0  0  0  0  0
  191.4120  177.2410  139.3770 C   0  0  0  0  0  2  0  0  0  0  0  0
  193.3360  174.5070  136.6830 C   0  0  0  0  0  2  0  0  0  0  0  0
  193.3730  176.5090  138.0800 N   0  0  0  0  0  2  0  0  0  0  0  0
  191.8940  174.3580  137.1050 C   0  0  0  0  0  3  0  0  0  0  0  0
  192.2260  176.0580  138.8720 C   0  0  2  0  0  3  0  0  0  0  0  0
  191.3580  175.1100  138.0840 C   0  0  0  0  0  3  0  0  0  0  0  0
  194.1320  175.3160  137.7150 C   0  0  0  0  0  2  0  0  0  0  0  0
  187.0920  176.7570  135.8950 O   0  0  0  0  0  0  0  0  0  0  0  0
  186.0810  175.9010  136.3470 C   0  0  0  0  0  2  0  0  0  0  0  0
  186.5660  174.4950  136.3500 C   0  0  0  0  0  0  0  0  0  0  0  0
  186.3660  173.7590  137.3490 O   0  0  0  0  0  1  0  0  0  0  0  0
  187.2970  174.0170  135.2700 O   0  0  0  0  0  0  0  0  0  0  0  0
  1  3  1  6  0  0  0
  1  5  1  0  0  0  0
  2  1  1  0  0  0  0
  2 18  1  1  0  0  0
  3  5  1  0  0  0  0
  4 11  1  1  0  0  0
  4  2  1  0  0  0  0
  4  1  1  0  0  0  0
  5 30  1  6  0  0  0
  6 12  1  0  0  0  0
  9  8  1  0  0  0  0
 10 12  2  0  0  0  0
 10  7  1  0  0  0  0
 11  7  1  6  0  0  0
 11  8  1  0  0  0  0
 12  9  1  0  0  0  0
 13 14  1  0  0  0  0
 14 21  1  1  0  0  0
 15 19  1  0  0  0  0
 16 19  1  0  0  0  0
 17 13  1  6  0  0  0
 17 14  1  0  0  0  0
 18 19  1  6  0  0  0
 18 17  1  0  0  0  0
 19 17  1  0  0  0  0
 20 21  1  0  0  0  0
 20 23  1  0  0  0  0
 21 22  2  0  0  0  0
 24 27  1  0  0  0  0
 24 29  1  0  0  0  0
 26 25  1  0  0  0  0
 27 26  1  0  0  0  0
 28 25  2  0  0  0  0
 29 23  1  1  0  0  0
 29 28  1  0  0  0  0
 31 30  1  0  0  0  0
 32 31  1  0  0  0  0
 33 35  1  0  0  0  0
 33 32  1  1  0  0  0
 35 34  1  1  0  0  0
 35 37  1  0  0  0  0
 37 36  2  0  0  0  0
 37 38  1  0  0  0  0
 38 39  1  0  0  0  0
 39 45  1  6  0  0  0
 41 44  1  0  0  0  0
 41 42  1  0  0  0  0
 43 39  1  6  0  0  0
 43 41  1  0  0  0  0
 43 44  1  0  0  0  0
 44 40  1  6  0  0  0
 46 48  1  0  0  0  0
 46 51  1  0  0  0  0
 47 49  1  0  0  0  0
 48 50  2  0  0  0  0
 49 45  1  6  0  0  0
 50 49  1  0  0  0  0
 51 47  1  0  0  0  0
 52 53  1  0  0  0  0
 52 33  1  0  0  0  0
 53 54  1  0  0  0  0
 54 55  1  0  0  0  0
 56 54  2  0  0  0  0
M  END
>  <MODEL>
7

>  <REMARK>
 VINA RESULT:      -6.4      3.540     10.408
  Name = 
  19 active torsions:
  status: ('A' for Active; 'I' for Inactive)
    1  A    between atoms: O_1  and  C_31
    2  A    between atoms: O_1  and  C_35
    3  A    between atoms: C_8  and  N_25
    4  A    between atoms: C_8  and  C_44
    5  A    between atoms: C_11  and  C_35
    6  A    between atoms: C_11  and  C_49
    7  A    between atoms: O_14  and  C_21
    8  A    between atoms: O_14  and  C_27
    9  A    between atoms: C_15  and  C_27
   10  A    between atoms: C_15  and  C_35
   11  A    between atoms: C_17  and  C_38
   12  A    between atoms: N_20  and  C_50
   13  A    between atoms: C_21  and  CA_30
   14  A    between atoms: C_21  and  C_53
   15  A    between atoms: C_22  and  C_31
   16  A    between atoms: C_33  and  C_49
   17  A    between atoms: C_33  and  C_55
   18  A    between atoms: C_39  and  C_53
   19  A    between atoms: C_47  and  C_51
                            x       y       z     vdW  Elec       q    Type
                         _______ _______ _______ _____ _____    ______ ____

>  <TORSDO>
F 19

$$$$
=
 OpenBabel11062414533D

 56 63  0  0  1  0  0  0  0  0999 V2000
  185.6540  177.8600  141.8190 C   0  0  1  0  0  0  0  0  0  0  0  0
  185.3370  179.0200  142.7090 N   0  0  2  0  0  0  0  0  0  0  0  0
  186.3370  178.1460  140.6030 O   0  0  0  0  0  0  0  0  0  0  0  0
  186.6840  178.4480  142.7080 C   0  0  1  0  0  3  0  0  0  0  0  0
  184.9710  178.2220  140.5000 C   0  0  2  0  0  3  0  0  0  0  0  0
  191.2270  177.1850  143.3040 O   0  0  0  0  0  1  0  0  0  0  0  0
  187.9850  178.2960  144.8750 C   0  0  0  0  0  2  0  0  0  0  0  0
  187.5820  176.1780  143.5880 C   0  0  0  0  0  2  0  0  0  0  0  0
  188.9360  176.2970  142.8890 C   0  0  0  0  0  2  0  0  0  0  0  0
  189.4290  178.1710  144.4560 C   0  0  0  0  0  3  0  0  0  0  0  0
  187.0270  177.5670  143.9330 C   0  0  2  0  0  3  0  0  0  0  0  0
  189.8720  177.2350  143.6030 C   0  0  0  0  0  0  0  0  0  0  0  0
  182.1480  178.8580  144.7230 O   0  0  0  0  0  0  0  0  0  0  0  0
  182.2260  178.3810  143.4300 C   0  0  2  0  0  3  0  0  0  0  0  0
  184.2440  178.6190  146.1390 O   0  0  0  0  0  1  0  0  0  0  0  0
  185.2340  180.4410  144.9720 O   0  0  0  0  0  1  0  0  0  0  0  0
  183.2140  179.3960  143.9430 C   0  0  2  0  0  0  0  0  0  0  0  0
  184.4520  178.4730  143.7420 C   0  0  2  0  0  3  0  0  0  0  0  0
  184.3890  179.3270  144.9410 C   0  0  0  0  0  0  0  0  0  0  0  0
  180.9970  178.6560  141.2490 N   0  0  0  0  0  2  0  0  0  0  0  0
  181.1080  178.9870  142.6350 C   0  0  0  0  0  0  0  0  0  0  0  0
  180.2790  179.7680  143.1760 O   0  0  0  0  0  0  0  0  0  0  0  0
  179.7290  178.5780  140.5260 C   0  0  0  0  0  2  0  0  0  0  0  0
  179.8980  179.0450  138.0720 N   0  0  0  0  0  2  0  0  0  0  0  0
  180.8470  181.6310  138.6960 C   0  0  0  0  0  3  0  0  0  0  0  0
  180.8060  181.1580  137.2660 C   0  0  0  0  0  2  0  0  0  0  0  0
  179.7140  180.1040  137.0750 C   0  0  0  0  0  2  0  0  0  0  0  0
  180.3350  180.8880  139.6900 C   0  0  0  0  0  3  0  0  0  0  0  0
  179.5910  179.6050  139.3990 C   0  0  2  0  0  3  0  0  0  0  0  0
  184.5950  179.6770  140.2080 C   0  0  0  0  0  2  0  0  0  0  0  0
  183.7310  179.7530  138.9530 C   0  0  0  0  0  2  0  0  0  0  0  0
  183.2700  178.3670  138.5230 C   0  0  0  0  0  2  0  0  0  0  0  0
  183.6240  178.0980  137.0630 C   0  0  1  0  0  3  0  0  0  0  0  0
  184.7700  176.1990  138.0230 F   0  0  0  0  0  0  0  0  0  0  0  0
  184.7460  177.0530  136.9300 C   0  0  2  0  0  3  0  0  0  0  0  0
  186.4870  178.6450  137.3780 O   0  0  0  0  0  0  0  0  0  0  0  0
  186.0990  177.6560  136.6940 C   0  0  0  0  0  0  0  0  0  0  0  0
  186.9090  177.1030  135.7080 O   0  0  0  0  0  0  0  0  0  0  0  0
  187.7660  175.9960  135.9410 C   0  0  2  0  0  3  0  0  0  0  0  0
  188.8680  176.3780  138.3530 O   0  0  0  0  0  1  0  0  0  0  0  0
  190.1330  175.5060  136.5860 N   0  0  0  0  0  0  0  0  0  0  0  0
  191.4380  175.7440  136.0020 C   0  0  0  0  0  1  0  0  0  0  0  0
  189.2210  176.4940  135.9770 C   0  0  2  0  0  3  0  0  0  0  0  0
  189.7630  176.7190  137.3340 C   0  0  1  0  0  3  0  0  0  0  0  0
  187.5350  174.9520  134.8490 C   0  0  0  0  0  2  0  0  0  0  0  0
  184.4540  172.8930  137.0180 C   0  0  0  0  0  2  0  0  0  0  0  0
  185.2410  174.0770  135.0330 N   0  0  0  0  0  2  0  0  0  0  0  0
  185.8280  173.1450  137.5920 C   0  0  0  0  0  3  0  0  0  0  0  0
  186.6470  173.8260  135.3590 C   0  0  2  0  0  3  0  0  0  0  0  0
  186.8350  173.6260  136.8420 C   0  0  0  0  0  3  0  0  0  0  0  0
  184.4860  172.9110  135.4840 C   0  0  0  0  0  2  0  0  0  0  0  0
  182.4760  177.6960  136.3710 O   0  0  0  0  0  0  0  0  0  0  0  0
  182.6480  176.3250  136.1470 C   0  0  0  0  0  2  0  0  0  0  0  0
  181.4550  175.5760  136.6260 C   0  0  0  0  0  0  0  0  0  0  0  0
  181.1040  175.6500  137.8300 O   0  0  0  0  0  1  0  0  0  0  0  0
  180.7700  174.7430  135.7510 O   0  0  0  0  0  0  0  0  0  0  0  0
  1  3  1  6  0  0  0
  1  4  1  0  0  0  0
  1  2  1  0  0  0  0
  2 18  1  1  0  0  0
  4  2  1  0  0  0  0
  4 11  1  1  0  0  0
  5 30  1  1  0  0  0
  5  3  1  0  0  0  0
  5  1  1  0  0  0  0
  6 12  1  0  0  0  0
  9  8  1  0  0  0  0
  9 12  1  0  0  0  0
 10  7  1  0  0  0  0
 11  8  1  6  0  0  0
 11  7  1  0  0  0  0
 12 10  2  0  0  0  0
 14 21  1  6  0  0  0
 14 17  1  0  0  0  0
 14 13  1  0  0  0  0
 17 13  1  1  0  0  0
 17 19  1  0  0  0  0
 18 17  1  0  0  0  0
 18 19  1  1  0  0  0
 19 16  1  0  0  0  0
 19 15  1  0  0  0  0
 20 21  1  0  0  0  0
 21 22  2  0  0  0  0
 23 20  1  0  0  0  0
 24 29  1  0  0  0  0
 25 28  2  0  0  0  0
 26 25  1  0  0  0  0
 27 26  1  0  0  0  0
 27 24  1  0  0  0  0
 29 28  1  0  0  0  0
 29 23  1  1  0  0  0
 31 30  1  0  0  0  0
 32 31  1  0  0  0  0
 33 32  1  1  0  0  0
 35 33  1  0  0  0  0
 35 34  1  1  0  0  0
 37 35  1  0  0  0  0
 37 36  2  0  0  0  0
 38 39  1  0  0  0  0
 38 37  1  0  0  0  0
 39 45  1  6  0  0  0
 41 44  1  0  0  0  0
 42 41  1  0  0  0  0
 43 39  1  1  0  0  0
 43 41  1  0  0  0  0
 43 44  1  0  0  0  0
 44 40  1  1  0  0  0
 46 48  1  0  0  0  0
 47 49  1  0  0  0  0
 47 51  1  0  0  0  0
 49 45  1  1  0  0  0
 49 50  1  0  0  0  0
 50 48  2  0  0  0  0
 51 46  1  0  0  0  0
 52 33  1  0  0  0  0
 53 52  1  0  0  0  0
 53 54  1  0  0  0  0
 54 55  1  0  0  0  0
 56 54  2  0  0  0  0
M  END
>  <MODEL>
8

>  <REMARK>
 VINA RESULT:      -6.1      3.196      9.517
  Name = 
  19 active torsions:
  status: ('A' for Active; 'I' for Inactive)
    1  A    between atoms: O_1  and  C_31
    2  A    between atoms: O_1  and  C_35
    3  A    between atoms: C_8  and  N_25
    4  A    between atoms: C_8  and  C_44
    5  A    between atoms: C_11  and  C_35
    6  A    between atoms: C_11  and  C_49
    7  A    between atoms: O_14  and  C_21
    8  A    between atoms: O_14  and  C_27
    9  A    between atoms: C_15  and  C_27
   10  A    between atoms: C_15  and  C_35
   11  A    between atoms: C_17  and  C_38
   12  A    between atoms: N_20  and  C_50
   13  A    between atoms: C_21  and  CA_30
   14  A    between atoms: C_21  and  C_53
   15  A    between atoms: C_22  and  C_31
   16  A    between atoms: C_33  and  C_49
   17  A    between atoms: C_33  and  C_55
   18  A    between atoms: C_39  and  C_53
   19  A    between atoms: C_47  and  C_51
                            x       y       z     vdW  Elec       q    Type
                         _______ _______ _______ _____ _____    ______ ____

>  <TORSDO>
F 19

$$$$
=
 OpenBabel11062414533D

 56 63  0  0  1  0  0  0  0  0999 V2000
  185.7450  177.7890  141.9840 C   0  0  1  0  0  0  0  0  0  0  0  0
  185.4090  178.9730  142.8330 N   0  0  2  0  0  0  0  0  0  0  0  0
  186.4780  178.0370  140.7890 O   0  0  0  0  0  0  0  0  0  0  0  0
  186.7480  178.3850  142.8990 C   0  0  1  0  0  3  0  0  0  0  0  0
  185.1180  178.1260  140.6310 C   0  0  2  0  0  3  0  0  0  0  0  0
  191.2280  176.9820  143.6360 O   0  0  0  0  0  1  0  0  0  0  0  0
  187.9940  178.2520  145.0980 C   0  0  0  0  0  2  0  0  0  0  0  0
  187.5440  176.1120  143.8640 C   0  0  0  0  0  2  0  0  0  0  0  0
  188.9160  176.1620  143.1940 C   0  0  0  0  0  2  0  0  0  0  0  0
  189.4410  178.0640  144.7160 C   0  0  0  0  0  3  0  0  0  0  0  0
  187.0310  177.5290  144.1560 C   0  0  2  0  0  3  0  0  0  0  0  0
  189.8690  177.0880  143.9020 C   0  0  0  0  0  0  0  0  0  0  0  0
  182.1630  178.9320  144.7610 O   0  0  0  0  0  0  0  0  0  0  0  0
  182.2590  178.4470  143.4730 C   0  0  2  0  0  3  0  0  0  0  0  0
  184.2110  178.6250  146.2340 O   0  0  0  0  0  1  0  0  0  0  0  0
  185.2950  180.4060  145.0880 O   0  0  0  0  0  1  0  0  0  0  0  0
  183.2680  179.4290  144.0080 C   0  0  2  0  0  0  0  0  0  0  0  0
  184.4780  178.4620  143.8440 C   0  0  2  0  0  3  0  0  0  0  0  0
  184.4130  179.3230  145.0380 C   0  0  0  0  0  0  0  0  0  0  0  0
  181.0120  178.6560  141.2940 N   0  0  0  0  0  2  0  0  0  0  0  0
  181.1850  179.0890  142.6450 C   0  0  0  0  0  0  0  0  0  0  0  0
  180.4450  179.9870  143.1300 O   0  0  0  0  0  0  0  0  0  0  0  0
  179.7260  178.6400  140.5990 C   0  0  0  0  0  2  0  0  0  0  0  0
  180.1700  178.9760  138.1580 N   0  0  0  0  0  2  0  0  0  0  0  0
  180.8370  181.6620  138.7160 C   0  0  0  0  0  3  0  0  0  0  0  0
  181.0140  181.1060  137.3280 C   0  0  0  0  0  2  0  0  0  0  0  0
  180.0370  179.9560  137.0770 C   0  0  0  0  0  2  0  0  0  0  0  0
  180.2600  180.9390  139.6880 C   0  0  0  0  0  3  0  0  0  0  0  0
  179.6560  179.5850  139.3960 C   0  0  2  0  0  3  0  0  0  0  0  0
  184.7730  179.5790  140.2910 C   0  0  0  0  0  2  0  0  0  0  0  0
  183.8050  179.6240  139.1120 C   0  0  0  0  0  2  0  0  0  0  0  0
  183.5080  178.2230  138.5950 C   0  0  0  0  0  2  0  0  0  0  0  0
  183.9870  178.0530  137.1570 C   0  0  1  0  0  3  0  0  0  0  0  0
  185.0110  175.9950  137.9010 F   0  0  0  0  0  0  0  0  0  0  0  0
  185.1800  177.0860  137.0610 C   0  0  2  0  0  3  0  0  0  0  0  0
  186.6160  179.0030  137.2460 O   0  0  0  0  0  0  0  0  0  0  0  0
  186.5050  177.7450  137.3050 C   0  0  0  0  0  0  0  0  0  0  0  0
  187.6040  176.9420  137.5920 O   0  0  0  0  0  0  0  0  0  0  0  0
  188.4520  176.4050  136.5870 C   0  0  2  0  0  3  0  0  0  0  0  0
  186.9880  174.8440  134.9780 O   0  0  0  0  0  1  0  0  0  0  0  0
  189.1460  174.2060  135.6190 N   0  0  0  0  0  0  0  0  0  0  0  0
  189.7900  173.0080  136.1220 C   0  0  0  0  0  1  0  0  0  0  0  0
  188.5640  174.8860  136.7940 C   0  0  2  0  0  3  0  0  0  0  0  0
  187.7070  174.0760  135.9000 C   0  0  1  0  0  3  0  0  0  0  0  0
  189.8090  177.1040  136.6610 C   0  0  0  0  0  2  0  0  0  0  0  0
  192.6580  177.1270  139.8730 C   0  0  0  0  0  2  0  0  0  0  0  0
  190.4600  177.6790  138.9650 N   0  0  0  0  0  2  0  0  0  0  0  0
  192.9670  176.5510  138.5120 C   0  0  0  0  0  3  0  0  0  0  0  0
  190.5710  176.6730  137.9060 C   0  0  2  0  0  3  0  0  0  0  0  0
  192.0140  176.3860  137.5770 C   0  0  0  0  0  3  0  0  0  0  0  0
  191.1470  177.1410  140.1360 C   0  0  0  0  0  2  0  0  0  0  0  0
  182.9230  177.6210  136.3580 O   0  0  0  0  0  0  0  0  0  0  0  0
  182.3910  176.5130  137.0290 C   0  0  0  0  0  2  0  0  0  0  0  0
  181.1420  176.0610  136.3580 C   0  0  0  0  0  0  0  0  0  0  0  0
  180.1910  175.6000  137.0370 O   0  0  0  0  0  1  0  0  0  0  0  0
  181.0570  176.0920  134.9720 O   0  0  0  0  0  0  0  0  0  0  0  0
  1  3  1  6  0  0  0
  1  2  1  0  0  0  0
  1  4  1  0  0  0  0
  2  4  1  0  0  0  0
  2 18  1  1  0  0  0
  4 11  1  1  0  0  0
  5 30  1  1  0  0  0
  5  3  1  0  0  0  0
  5  1  1  0  0  0  0
  6 12  1  0  0  0  0
  9  8  1  0  0  0  0
  9 12  1  0  0  0  0
 10  7  1  0  0  0  0
 11  8  1  6  0  0  0
 11  7  1  0  0  0  0
 12 10  2  0  0  0  0
 14 21  1  6  0  0  0
 14 17  1  0  0  0  0
 14 13  1  0  0  0  0
 17 13  1  1  0  0  0
 17 19  1  0  0  0  0
 18 17  1  0  0  0  0
 18 19  1  1  0  0  0
 19 16  1  0  0  0  0
 19 15  1  0  0  0  0
 20 21  1  0  0  0  0
 21 22  2  0  0  0  0
 23 20  1  0  0  0  0
 24 29  1  0  0  0  0
 25 28  2  0  0  0  0
 26 25  1  0  0  0  0
 27 26  1  0  0  0  0
 27 24  1  0  0  0  0
 29 28  1  0  0  0  0
 29 23  1  1  0  0  0
 31 30  1  0  0  0  0
 32 31  1  0  0  0  0
 33 32  1  1  0  0  0
 35 33  1  0  0  0  0
 35 37  1  0  0  0  0
 35 34  1  1  0  0  0
 36 37  2  0  0  0  0
 37 38  1  0  0  0  0
 39 45  1  1  0  0  0
 39 38  1  0  0  0  0
 41 44  1  0  0  0  0
 41 42  1  0  0  0  0
 41 43  1  0  0  0  0
 43 39  1  6  0  0  0
 44 40  1  6  0  0  0
 44 43  1  0  0  0  0
 46 51  1  0  0  0  0
 47 51  1  0  0  0  0
 48 46  1  0  0  0  0
 49 45  1  6  0  0  0
 49 47  1  0  0  0  0
 50 49  1  0  0  0  0
 50 48  2  0  0  0  0
 52 53  1  0  0  0  0
 52 33  1  0  0  0  0
 54 53  1  0  0  0  0
 54 55  1  0  0  0  0
 56 54  2  0  0  0  0
M  END
>  <MODEL>
9

>  <REMARK>
 VINA RESULT:      -6.0      3.083      9.734
  Name = 
  19 active torsions:
  status: ('A' for Active; 'I' for Inactive)
    1  A    between atoms: O_1  and  C_31
    2  A    between atoms: O_1  and  C_35
    3  A    between atoms: C_8  and  N_25
    4  A    between atoms: C_8  and  C_44
    5  A    between atoms: C_11  and  C_35
    6  A    between atoms: C_11  and  C_49
    7  A    between atoms: O_14  and  C_21
    8  A    between atoms: O_14  and  C_27
    9  A    between atoms: C_15  and  C_27
   10  A    between atoms: C_15  and  C_35
   11  A    between atoms: C_17  and  C_38
   12  A    between atoms: N_20  and  C_50
   13  A    between atoms: C_21  and  CA_30
   14  A    between atoms: C_21  and  C_53
   15  A    between atoms: C_22  and  C_31
   16  A    between atoms: C_33  and  C_49
   17  A    between atoms: C_33  and  C_55
   18  A    between atoms: C_39  and  C_53
   19  A    between atoms: C_47  and  C_51
                            x       y       z     vdW  Elec       q    Type
                         _______ _______ _______ _____ _____    ______ ____

>  <TORSDO>
F 19

$$$$
