=
 OpenBabel11062417153D

 26 30  0  0  1  0  0  0  0  0999 V2000
  187.3730  177.4680  139.1220 C   0  0  0  0  0  3  0  0  0  0  0  0
  190.0500  177.1290  138.2500 C   0  0  2  0  0  0  0  0  0  0  0  0
  190.8730  175.2350  137.1800 C   0  0  0  0  0  0  0  0  0  0  0  0
  191.0620  173.2620  135.7310 C   0  0  0  0  0  2  0  0  0  0  0  0
  189.8150  177.9420  139.5340 C   0  0  2  0  0  3  0  0  0  0  0  0
  193.1400  174.5280  136.4040 C   0  0  1  0  0  3  0  0  0  0  0  0
  191.6470  174.4200  136.4530 C   0  0  0  0  0  0  0  0  0  0  0  0
  191.3620  176.3880  138.0200 C   0  0  0  0  0  2  0  0  0  0  0  0
  188.2980  178.2030  142.3420 C   0  0  2  0  0  3  0  0  0  0  0  0
  189.4880  175.1120  137.2460 O   0  0  0  0  0  0  0  0  0  0  0  0
  193.6510  173.4200  135.5010 C   0  0  0  0  0  2  0  0  0  0  0  0
  187.7340  176.4970  138.1690 O   0  0  0  0  0  0  0  0  0  0  0  0
  190.6550  177.5390  140.7540 C   0  0  0  0  0  2  0  0  0  0  0  0
  190.0580  176.4230  141.6220 C   0  0  2  0  0  3  0  0  0  0  0  0
  187.9530  178.9560  141.0370 C   0  0  2  0  0  3  0  0  0  0  0  0
  189.8250  178.0590  137.0560 C   0  0  0  0  0  1  0  0  0  0  0  0
  189.0580  175.9930  138.2560 C   0  0  2  0  0  3  0  0  0  0  0  0
  192.4110  172.0920  135.4120 S   0  0  0  0  0  0  0  0  0  0  0  0
  188.6550  176.7130  142.1840 C   0  0  0  0  0  2  0  0  0  0  0  0
  186.8570  178.3570  141.9040 C   0  0  0  0  0  2  0  0  0  0  0  0
  188.3210  178.1320  139.8320 C   0  0  0  0  0  0  0  0  0  0  0  0
  193.1910  176.2210  134.7250 O   0  0  0  0  0  0  0  0  0  0  0  0
  193.5890  175.8480  135.8590 C   0  0  0  0  0  0  0  0  0  0  0  0
  194.4280  176.6710  136.6020 O   0  0  0  0  0  1  0  0  0  0  0  0
  191.7890  177.2390  142.7330 C   0  0  0  0  0  1  0  0  0  0  0  0
  190.9310  176.1400  142.6740 O   0  0  0  0  0  0  0  0  0  0  0  0
  1 21  2  0  0  0  0
  2 16  1  6  0  0  0
  2 17  1  0  0  0  0
  2  5  1  0  0  0  0
  3 10  1  0  0  0  0
  3  8  1  0  0  0  0
  4  7  1  0  0  0  0
  5 21  1  0  0  0  0
  5 13  1  1  0  0  0
  6 23  1  6  0  0  0
  6  7  1  0  0  0  0
  7  3  2  0  0  0  0
  8  2  1  0  0  0  0
  9 20  1  1  0  0  0
 11  6  1  0  0  0  0
 12 17  1  0  0  0  0
 12  1  1  0  0  0  0
 13 14  1  0  0  0  0
 14 19  1  0  0  0  0
 14 26  1  1  0  0  0
 15 20  1  1  0  0  0
 15  9  1  0  0  0  0
 17 10  1  6  0  0  0
 18 11  1  0  0  0  0
 18  4  1  0  0  0  0
 19  9  1  0  0  0  0
 21 15  1  0  0  0  0
 22 23  2  0  0  0  0
 23 24  1  0  0  0  0
 26 25  1  0  0  0  0
M  END
>  <MODEL>
1

>  <REMARK>
 VINA RESULT:      -5.7      0.000      0.000
  Name = 
  2 active torsions:
  status: ('A' for Active; 'I' for Inactive)
    1  A    between atoms: C_6  and  C_8
    2  A    between atoms: C_17  and  O_24
                            x       y       z     vdW  Elec       q    Type
                         _______ _______ _______ _____ _____    ______ ____

>  <TORSDO>
F 2

$$$$
=
 OpenBabel11062417153D

 26 30  0  0  1  0  0  0  0  0999 V2000
  190.1000  177.2820  136.8310 C   0  0  0  0  0  3  0  0  0  0  0  0
  187.3480  177.7780  137.2960 C   0  0  2  0  0  0  0  0  0  0  0  0
  186.4060  178.2250  139.3760 C   0  0  0  0  0  0  0  0  0  0  0  0
  186.0580  179.0750  141.6530 C   0  0  0  0  0  2  0  0  0  0  0  0
  187.7160  176.7830  136.1830 C   0  0  2  0  0  3  0  0  0  0  0  0
  184.0680  178.5700  140.1840 C   0  0  1  0  0  3  0  0  0  0  0  0
  185.5580  178.6340  140.3260 C   0  0  0  0  0  0  0  0  0  0  0  0
  186.0130  177.6780  138.0270 C   0  0  0  0  0  2  0  0  0  0  0  0
  189.5070  174.3000  135.2440 C   0  0  2  0  0  3  0  0  0  0  0  0
  187.7900  178.2590  139.5240 O   0  0  0  0  0  0  0  0  0  0  0  0
  183.4610  179.0940  141.4720 C   0  0  0  0  0  2  0  0  0  0  0  0
  189.6380  177.9060  138.0050 O   0  0  0  0  0  0  0  0  0  0  0  0
  186.9980  175.4260  136.2220 C   0  0  0  0  0  2  0  0  0  0  0  0
  187.6700  174.3540  137.0900 C   0  0  2  0  0  3  0  0  0  0  0  0
  189.7270  175.7840  134.8730 C   0  0  2  0  0  3  0  0  0  0  0  0
  187.4590  179.1910  136.7210 C   0  0  0  0  0  1  0  0  0  0  0  0
  188.3260  177.5640  138.4240 C   0  0  2  0  0  3  0  0  0  0  0  0
  184.6750  178.9440  142.8180 S   0  0  0  0  0  0  0  0  0  0  0  0
  189.1250  174.0230  136.7110 C   0  0  0  0  0  2  0  0  0  0  0  0
  190.8980  174.8970  135.2600 C   0  0  0  0  0  2  0  0  0  0  0  0
  189.2330  176.6880  135.9720 C   0  0  0  0  0  0  0  0  0  0  0  0
  183.9870  180.5820  138.9080 O   0  0  0  0  0  1  0  0  0  0  0  0
  183.5770  179.4000  139.0400 C   0  0  0  0  0  0  0  0  0  0  0  0
  182.6880  178.8700  138.1120 O   0  0  0  0  0  0  0  0  0  0  0  0
  185.5990  173.6090  137.3190 C   0  0  0  0  0  1  0  0  0  0  0  0
  186.9040  173.1870  137.0570 O   0  0  0  0  0  0  0  0  0  0  0  0
  1 12  1  0  0  0  0
  2 16  1  6  0  0  0
  2  8  1  0  0  0  0
  2 17  1  0  0  0  0
  3 10  1  0  0  0  0
  3  7  2  0  0  0  0
  4 18  1  0  0  0  0
  5 13  1  1  0  0  0
  5  2  1  0  0  0  0
  6 23  1  6  0  0  0
  6  7  1  0  0  0  0
  6 11  1  0  0  0  0
  7  4  1  0  0  0  0
  8  3  1  0  0  0  0
  9 20  1  1  0  0  0
  9 19  1  0  0  0  0
 11 18  1  0  0  0  0
 13 14  1  0  0  0  0
 14 26  1  6  0  0  0
 15  9  1  0  0  0  0
 15 20  1  1  0  0  0
 15 21  1  0  0  0  0
 17 12  1  6  0  0  0
 17 10  1  0  0  0  0
 19 14  1  0  0  0  0
 21  5  1  0  0  0  0
 21  1  2  0  0  0  0
 22 23  1  0  0  0  0
 24 23  2  0  0  0  0
 26 25  1  0  0  0  0
M  END
>  <MODEL>
2

>  <REMARK>
 VINA RESULT:      -5.4      3.836      7.813
  Name = 
  2 active torsions:
  status: ('A' for Active; 'I' for Inactive)
    1  A    between atoms: C_6  and  C_8
    2  A    between atoms: C_17  and  O_24
                            x       y       z     vdW  Elec       q    Type
                         _______ _______ _______ _____ _____    ______ ____

>  <TORSDO>
F 2

$$$$
=
 OpenBabel11062417153D

 26 30  0  0  1  0  0  0  0  0999 V2000
  181.6340  178.8690  141.3660 C   0  0  0  0  0  3  0  0  0  0  0  0
  182.8040  177.8600  138.9880 C   0  0  2  0  0  0  0  0  0  0  0  0
  185.0440  178.0920  138.4030 C   0  0  0  0  0  0  0  0  0  0  0  0
  187.4920  178.2290  138.5240 C   0  0  0  0  0  2  0  0  0  0  0  0
  181.3470  178.3470  138.9160 C   0  0  2  0  0  3  0  0  0  0  0  0
  186.3820  177.4770  136.3860 C   0  0  1  0  0  3  0  0  0  0  0  0
  186.2300  177.9030  137.8130 C   0  0  0  0  0  0  0  0  0  0  0  0
  183.6990  177.8780  137.7540 C   0  0  0  0  0  2  0  0  0  0  0  0
  179.1950  180.5920  139.6800 C   0  0  2  0  0  3  0  0  0  0  0  0
  184.9070  178.5170  139.7220 O   0  0  0  0  0  0  0  0  0  0  0  0
  187.8680  177.4000  136.0850 C   0  0  0  0  0  2  0  0  0  0  0  0
  183.0240  178.7000  141.2270 O   0  0  0  0  0  0  0  0  0  0  0  0
  181.0170  179.3280  137.7810 C   0  0  0  0  0  2  0  0  0  0  0  0
  181.2570  180.8090  138.1040 C   0  0  2  0  0  3  0  0  0  0  0  0
  179.3760  179.2200  140.3680 C   0  0  2  0  0  3  0  0  0  0  0  0
  182.7960  176.4320  139.5370 C   0  0  0  0  0  1  0  0  0  0  0  0
  183.5410  178.8000  139.9100 C   0  0  2  0  0  3  0  0  0  0  0  0
  188.7770  178.4450  137.2630 S   0  0  0  0  0  0  0  0  0  0  0  0
  180.4920  181.3440  139.3270 C   0  0  0  0  0  2  0  0  0  0  0  0
  179.1500  180.4790  141.1890 C   0  0  0  0  0  2  0  0  0  0  0  0
  180.8110  178.7700  140.2910 C   0  0  0  0  0  0  0  0  0  0  0  0
  185.0420  175.9700  135.1120 O   0  0  0  0  0  0  0  0  0  0  0  0
  185.7630  176.1380  136.1300 C   0  0  0  0  0  0  0  0  0  0  0  0
  185.9920  175.0760  136.9980 O   0  0  0  0  0  1  0  0  0  0  0  0
  180.9910  182.9010  137.4350 C   0  0  0  0  0  1  0  0  0  0  0  0
  180.9430  181.5810  136.9840 O   0  0  0  0  0  0  0  0  0  0  0  0
  2 16  1  1  0  0  0
  2 17  1  0  0  0  0
  3 10  1  0  0  0  0
  5 13  1  6  0  0  0
  5  2  1  0  0  0  0
  5 21  1  0  0  0  0
  6 23  1  1  0  0  0
  6  7  1  0  0  0  0
  7  3  2  0  0  0  0
  7  4  1  0  0  0  0
  8  3  1  0  0  0  0
  8  2  1  0  0  0  0
  9 19  1  1  0  0  0
  9 15  1  0  0  0  0
  9 20  1  0  0  0  0
 11  6  1  0  0  0  0
 11 18  1  0  0  0  0
 12  1  1  0  0  0  0
 13 14  1  0  0  0  0
 14 26  1  6  0  0  0
 14 19  1  0  0  0  0
 15 20  1  1  0  0  0
 17 10  1  1  0  0  0
 17 12  1  0  0  0  0
 18  4  1  0  0  0  0
 21 15  1  0  0  0  0
 21  1  2  0  0  0  0
 22 23  2  0  0  0  0
 23 24  1  0  0  0  0
 26 25  1  0  0  0  0
M  END
>  <MODEL>
3

>  <REMARK>
 VINA RESULT:      -5.2      5.674      8.404
  Name = 
  2 active torsions:
  status: ('A' for Active; 'I' for Inactive)
    1  A    between atoms: C_6  and  C_8
    2  A    between atoms: C_17  and  O_24
                            x       y       z     vdW  Elec       q    Type
                         _______ _______ _______ _____ _____    ______ ____

>  <TORSDO>
F 2

$$$$
=
 OpenBabel11062417153D

 26 30  0  0  1  0  0  0  0  0999 V2000
  189.0330  175.9570  136.8990 C   0  0  0  0  0  3  0  0  0  0  0  0
  191.8670  175.9270  136.9780 C   0  0  2  0  0  0  0  0  0  0  0  0
  193.1750  174.0130  137.1840 C   0  0  0  0  0  0  0  0  0  0  0  0
  194.0170  171.7190  136.9550 C   0  0  0  0  0  2  0  0  0  0  0  0
  191.1480  177.1280  137.6130 C   0  0  2  0  0  3  0  0  0  0  0  0
  195.6270  173.6060  137.4210 C   0  0  1  0  0  3  0  0  0  0  0  0
  194.2190  173.1770  137.1500 C   0  0  0  0  0  0  0  0  0  0  0  0
  193.2480  175.4940  137.4590 C   0  0  0  0  0  2  0  0  0  0  0  0
  188.7800  178.1930  139.4870 C   0  0  2  0  0  3  0  0  0  0  0  0
  191.8630  173.6040  136.9620 O   0  0  0  0  0  0  0  0  0  0  0  0
  196.5100  172.3750  137.3150 C   0  0  0  0  0  2  0  0  0  0  0  0
  189.7780  174.7890  136.6490 O   0  0  0  0  0  0  0  0  0  0  0  0
  191.5790  177.4980  139.0400 C   0  0  0  0  0  2  0  0  0  0  0  0
  190.8410  176.7530  140.1610 C   0  0  2  0  0  3  0  0  0  0  0  0
  188.8080  178.2110  137.9420 C   0  0  2  0  0  3  0  0  0  0  0  0
  191.9560  176.1740  135.4710 C   0  0  0  0  0  1  0  0  0  0  0  0
  191.0430  174.7020  137.2860 C   0  0  2  0  0  3  0  0  0  0  0  0
  195.5030  170.8840  137.5750 S   0  0  0  0  0  0  0  0  0  0  0  0
  189.3110  176.9110  140.1550 C   0  0  0  0  0  2  0  0  0  0  0  0
  187.5530  177.7970  138.6930 C   0  0  0  0  0  2  0  0  0  0  0  0
  189.6280  177.0650  137.4100 C   0  0  0  0  0  0  0  0  0  0  0  0
  196.7630  175.6220  136.8440 O   0  0  0  0  0  1  0  0  0  0  0  0
  196.1000  174.6310  136.4380 C   0  0  0  0  0  0  0  0  0  0  0  0
  195.8300  174.4900  135.0820 O   0  0  0  0  0  0  0  0  0  0  0  0
  190.5630  176.4990  142.3420 C   0  0  0  0  0  1  0  0  0  0  0  0
  191.3470  177.1630  141.3970 O   0  0  0  0  0  0  0  0  0  0  0  0
  1 21  2  0  0  0  0
  2 16  1  6  0  0  0
  2 17  1  0  0  0  0
  2  8  1  0  0  0  0
  2  5  1  0  0  0  0
  3  8  1  0  0  0  0
  4  7  1  0  0  0  0
  4 18  1  0  0  0  0
  5 13  1  1  0  0  0
  6 23  1  6  0  0  0
  7  3  2  0  0  0  0
  7  6  1  0  0  0  0
  9 20  1  6  0  0  0
  9 19  1  0  0  0  0
 10  3  1  0  0  0  0
 10 17  1  0  0  0  0
 11  6  1  0  0  0  0
 11 18  1  0  0  0  0
 12  1  1  0  0  0  0
 13 14  1  0  0  0  0
 14 26  1  1  0  0  0
 15 20  1  6  0  0  0
 15  9  1  0  0  0  0
 17 12  1  6  0  0  0
 19 14  1  0  0  0  0
 21  5  1  0  0  0  0
 21 15  1  0  0  0  0
 23 22  1  0  0  0  0
 24 23  2  0  0  0  0
 26 25  1  0  0  0  0
M  END
>  <MODEL>
4

>  <REMARK>
 VINA RESULT:      -4.9      1.949      2.883
  Name = 
  2 active torsions:
  status: ('A' for Active; 'I' for Inactive)
    1  A    between atoms: C_6  and  C_8
    2  A    between atoms: C_17  and  O_24
                            x       y       z     vdW  Elec       q    Type
                         _______ _______ _______ _____ _____    ______ ____

>  <TORSDO>
F 2

$$$$
=
 OpenBabel11062417153D

 26 30  0  0  1  0  0  0  0  0999 V2000
  187.5350  175.5410  136.1660 C   0  0  0  0  0  3  0  0  0  0  0  0
  190.2760  176.2640  136.1100 C   0  0  2  0  0  0  0  0  0  0  0  0
  192.0280  174.9030  136.8090 C   0  0  0  0  0  0  0  0  0  0  0  0
  193.4440  172.9420  137.2270 C   0  0  0  0  0  2  0  0  0  0  0  0
  189.2500  177.3730  136.3960 C   0  0  2  0  0  3  0  0  0  0  0  0
  194.4940  175.2290  137.0340 C   0  0  1  0  0  3  0  0  0  0  0  0
  193.2540  174.3920  136.9720 C   0  0  0  0  0  0  0  0  0  0  0  0
  191.7060  176.3650  136.6290 C   0  0  0  0  0  2  0  0  0  0  0  0
  186.6300  178.3040  137.9840 C   0  0  2  0  0  3  0  0  0  0  0  0
  190.8750  174.1240  136.7820 O   0  0  0  0  0  0  0  0  0  0  0  0
  195.6690  174.2940  137.2540 C   0  0  0  0  0  2  0  0  0  0  0  0
  188.5650  174.5840  136.2360 O   0  0  0  0  0  0  0  0  0  0  0  0
  189.5260  178.2500  137.6260 C   0  0  0  0  0  2  0  0  0  0  0  0
  188.9730  177.7110  138.9520 C   0  0  2  0  0  3  0  0  0  0  0  0
  186.7000  177.8650  136.5040 C   0  0  2  0  0  3  0  0  0  0  0  0
  190.3430  176.0650  134.5940 C   0  0  0  0  0  1  0  0  0  0  0  0
  189.7880  175.0180  136.8070 C   0  0  2  0  0  3  0  0  0  0  0  0
  195.0760  172.7420  137.9930 S   0  0  0  0  0  0  0  0  0  0  0  0
  187.4550  177.4610  138.9750 C   0  0  0  0  0  2  0  0  0  0  0  0
  185.5730  177.3870  137.4050 C   0  0  0  0  0  2  0  0  0  0  0  0
  187.8060  176.8640  136.2950 C   0  0  0  0  0  0  0  0  0  0  0  0
  194.6050  175.4180  134.6590 O   0  0  0  0  0  0  0  0  0  0  0  0
  194.7140  176.0000  135.7700 C   0  0  0  0  0  0  0  0  0  0  0  0
  195.0210  177.3550  135.8120 O   0  0  0  0  0  1  0  0  0  0  0  0
  188.4370  178.2760  141.0240 C   0  0  0  0  0  1  0  0  0  0  0  0
  189.3160  178.5860  139.9840 O   0  0  0  0  0  0  0  0  0  0  0  0
  1 12  1  0  0  0  0
  1 21  2  0  0  0  0
  2 16  1  6  0  0  0
  2  5  1  0  0  0  0
  2  8  1  0  0  0  0
  2 17  1  0  0  0  0
  3  7  2  0  0  0  0
  4 18  1  0  0  0  0
  5 13  1  1  0  0  0
  6 23  1  6  0  0  0
  6 11  1  0  0  0  0
  7  6  1  0  0  0  0
  7  4  1  0  0  0  0
  8  3  1  0  0  0  0
  9 20  1  1  0  0  0
  9 19  1  0  0  0  0
 10 17  1  0  0  0  0
 10  3  1  0  0  0  0
 11 18  1  0  0  0  0
 13 14  1  0  0  0  0
 14 19  1  0  0  0  0
 14 26  1  1  0  0  0
 15 20  1  1  0  0  0
 15  9  1  0  0  0  0
 17 12  1  6  0  0  0
 21  5  1  0  0  0  0
 21 15  1  0  0  0  0
 22 23  2  0  0  0  0
 23 24  1  0  0  0  0
 26 25  1  0  0  0  0
M  END
>  <MODEL>
5

>  <REMARK>
 VINA RESULT:      -4.8      1.991      3.072
  Name = 
  2 active torsions:
  status: ('A' for Active; 'I' for Inactive)
    1  A    between atoms: C_6  and  C_8
    2  A    between atoms: C_17  and  O_24
                            x       y       z     vdW  Elec       q    Type
                         _______ _______ _______ _____ _____    ______ ____

>  <TORSDO>
F 2

$$$$
=
 OpenBabel11062417153D

 26 30  0  0  1  0  0  0  0  0999 V2000
  182.9980  178.5860  141.9020 C   0  0  0  0  0  3  0  0  0  0  0  0
  184.9360  178.7600  139.8400 C   0  0  2  0  0  0  0  0  0  0  0  0
  185.2440  177.1770  138.1640 C   0  0  0  0  0  0  0  0  0  0  0  0
  184.8190  175.4820  136.4390 C   0  0  0  0  0  2  0  0  0  0  0  0
  185.3040  179.3360  141.2170 C   0  0  2  0  0  3  0  0  0  0  0  0
  186.8910  176.9180  136.3040 C   0  0  1  0  0  3  0  0  0  0  0  0
  185.6150  176.5940  137.0180 C   0  0  0  0  0  0  0  0  0  0  0  0
  186.0130  178.2530  138.8880 C   0  0  0  0  0  2  0  0  0  0  0  0
  185.3170  178.9690  144.3980 C   0  0  2  0  0  3  0  0  0  0  0  0
  184.0710  176.8510  138.8400 O   0  0  0  0  0  0  0  0  0  0  0  0
  186.9640  176.0370  135.0700 C   0  0  0  0  0  2  0  0  0  0  0  0
  182.9070  177.8250  140.7210 O   0  0  0  0  0  0  0  0  0  0  0  0
  186.6500  178.8830  141.8030 C   0  0  0  0  0  2  0  0  0  0  0  0
  186.6070  177.5800  142.6130 C   0  0  2  0  0  3  0  0  0  0  0  0
  184.3450  179.8470  143.5780 C   0  0  2  0  0  3  0  0  0  0  0  0
  184.1130  179.8120  139.0940 C   0  0  0  0  0  1  0  0  0  0  0  0
  184.1330  177.5060  140.0840 C   0  0  2  0  0  3  0  0  0  0  0  0
  185.9100  174.5740  135.3100 S   0  0  0  0  0  0  0  0  0  0  0  0
  185.6350  177.5830  143.8060 C   0  0  0  0  0  2  0  0  0  0  0  0
  183.8380  178.9800  144.7180 C   0  0  0  0  0  2  0  0  0  0  0  0
  184.1320  179.2680  142.2050 C   0  0  0  0  0  0  0  0  0  0  0  0
  186.4300  178.7020  134.7900 O   0  0  0  0  0  0  0  0  0  0  0  0
  186.9490  178.3530  135.8820 C   0  0  0  0  0  0  0  0  0  0  0  0
  187.5560  179.3050  136.6940 O   0  0  0  0  0  1  0  0  0  0  0  0
  188.7320  177.6140  141.9990 C   0  0  0  0  0  1  0  0  0  0  0  0
  187.8930  177.2730  143.0610 O   0  0  0  0  0  0  0  0  0  0  0  0
  1 21  2  0  0  0  0
  2 16  1  6  0  0  0
  2 17  1  0  0  0  0
  2  5  1  0  0  0  0
  3 10  1  0  0  0  0
  3  8  1  0  0  0  0
  4  7  1  0  0  0  0
  5 13  1  1  0  0  0
  5 21  1  0  0  0  0
  6 23  1  6  0  0  0
  6  7  1  0  0  0  0
  7  3  2  0  0  0  0
  8  2  1  0  0  0  0
  9 19  1  6  0  0  0
  9 20  1  0  0  0  0
 11 18  1  0  0  0  0
 11  6  1  0  0  0  0
 12  1  1  0  0  0  0
 13 14  1  0  0  0  0
 14 26  1  1  0  0  0
 14 19  1  0  0  0  0
 15  9  1  0  0  0  0
 15 20  1  1  0  0  0
 17 10  1  6  0  0  0
 17 12  1  0  0  0  0
 18  4  1  0  0  0  0
 21 15  1  0  0  0  0
 22 23  2  0  0  0  0
 23 24  1  0  0  0  0
 25 26  1  0  0  0  0
M  END
>  <MODEL>
6

>  <REMARK>
 VINA RESULT:      -4.8      4.356      5.614
  Name = 
  2 active torsions:
  status: ('A' for Active; 'I' for Inactive)
    1  A    between atoms: C_6  and  C_8
    2  A    between atoms: C_17  and  O_24
                            x       y       z     vdW  Elec       q    Type
                         _______ _______ _______ _____ _____    ______ ____

>  <TORSDO>
F 2

$$$$
=
 OpenBabel11062417153D

 26 30  0  0  1  0  0  0  0  0999 V2000
  186.5850  175.3800  134.7420 C   0  0  0  0  0  3  0  0  0  0  0  0
  185.2240  176.3090  137.0500 C   0  0  2  0  0  0  0  0  0  0  0  0
  183.3990  177.7510  137.0310 C   0  0  0  0  0  0  0  0  0  0  0  0
  181.3020  178.8630  136.4030 C   0  0  0  0  0  2  0  0  0  0  0  0
  186.7400  176.0740  137.1600 C   0  0  2  0  0  3  0  0  0  0  0  0
  182.0540  178.8710  138.8130 C   0  0  1  0  0  3  0  0  0  0  0  0
  182.3020  178.4190  137.4070 C   0  0  0  0  0  0  0  0  0  0  0  0
  184.5200  177.3240  137.9440 C   0  0  0  0  0  2  0  0  0  0  0  0
  189.6450  176.4430  135.8650 C   0  0  2  0  0  3  0  0  0  0  0  0
  183.6390  177.3590  135.7160 O   0  0  0  0  0  0  0  0  0  0  0  0
  180.7290  179.6110  138.8300 C   0  0  0  0  0  2  0  0  0  0  0  0
  185.2900  175.9290  134.6790 O   0  0  0  0  0  0  0  0  0  0  0  0
  187.5620  177.2280  137.7530 C   0  0  0  0  0  2  0  0  0  0  0  0
  188.0300  178.2860  136.7450 C   0  0  2  0  0  3  0  0  0  0  0  0
  188.7970  175.1510  135.8680 C   0  0  2  0  0  3  0  0  0  0  0  0
  184.5240  174.9610  137.2350 C   0  0  0  0  0  1  0  0  0  0  0  0
  184.9620  176.8810  135.6790 C   0  0  2  0  0  3  0  0  0  0  0  0
  180.3490  180.2110  137.1560 S   0  0  0  0  0  0  0  0  0  0  0  0
  188.8800  177.7490  135.5800 C   0  0  0  0  0  2  0  0  0  0  0  0
  189.5390  175.5930  134.6180 C   0  0  0  0  0  2  0  0  0  0  0  0
  187.3270  175.4770  135.8740 C   0  0  0  0  0  0  0  0  0  0  0  0
  182.6150  177.7750  140.8550 O   0  0  0  0  0  1  0  0  0  0  0  0
  181.9830  177.7210  139.7680 C   0  0  0  0  0  0  0  0  0  0  0  0
  181.2110  176.6030  139.4730 O   0  0  0  0  0  0  0  0  0  0  0  0
  189.0720  178.7150  138.6490 C   0  0  0  0  0  1  0  0  0  0  0  0
  188.7380  179.2830  137.4180 O   0  0  0  0  0  0  0  0  0  0  0  0
  1 21  2  0  0  0  0
  2  5  1  0  0  0  0
  2 16  1  1  0  0  0
  2  8  1  0  0  0  0
  3  7  2  0  0  0  0
  3  8  1  0  0  0  0
  4 18  1  0  0  0  0
  4  7  1  0  0  0  0
  5 13  1  6  0  0  0
  6 11  1  0  0  0  0
  6 23  1  1  0  0  0
  7  6  1  0  0  0  0
  9 20  1  6  0  0  0
  9 15  1  0  0  0  0
 10  3  1  0  0  0  0
 12  1  1  0  0  0  0
 14 26  1  1  0  0  0
 14 13  1  0  0  0  0
 15 20  1  6  0  0  0
 15 21  1  0  0  0  0
 17 12  1  6  0  0  0
 17 10  1  0  0  0  0
 17  2  1  0  0  0  0
 18 11  1  0  0  0  0
 19  9  1  0  0  0  0
 19 14  1  0  0  0  0
 21  5  1  0  0  0  0
 23 22  1  0  0  0  0
 24 23  2  0  0  0  0
 26 25  1  0  0  0  0
M  END
>  <MODEL>
7

>  <REMARK>
 VINA RESULT:      -4.7      5.067      8.642
  Name = 
  2 active torsions:
  status: ('A' for Active; 'I' for Inactive)
    1  A    between atoms: C_6  and  C_8
    2  A    between atoms: C_17  and  O_24
                            x       y       z     vdW  Elec       q    Type
                         _______ _______ _______ _____ _____    ______ ____

>  <TORSDO>
F 2

$$$$
=
 OpenBabel11062417153D

 26 30  0  0  1  0  0  0  0  0999 V2000
  191.9060  176.4150  136.8080 C   0  0  0  0  0  3  0  0  0  0  0  0
  189.5760  177.1190  138.2620 C   0  0  2  0  0  0  0  0  0  0  0  0
  189.4010  177.1130  140.5830 C   0  0  0  0  0  0  0  0  0  0  0  0
  189.9210  177.3630  142.9690 C   0  0  0  0  0  2  0  0  0  0  0  0
  189.3870  176.4180  136.9070 C   0  0  2  0  0  3  0  0  0  0  0  0
  187.5280  177.5270  142.1820 C   0  0  1  0  0  3  0  0  0  0  0  0
  188.9730  177.3600  141.8260 C   0  0  0  0  0  0  0  0  0  0  0  0
  188.5250  177.0010  139.3600 C   0  0  0  0  0  2  0  0  0  0  0  0
  190.2680  174.0660  134.9210 C   0  0  2  0  0  3  0  0  0  0  0  0
  190.7430  176.9280  140.2620 O   0  0  0  0  0  0  0  0  0  0  0  0
  187.4480  177.7630  143.6790 C   0  0  0  0  0  2  0  0  0  0  0  0
  191.9490  176.7570  138.1720 O   0  0  0  0  0  0  0  0  0  0  0  0
  188.4470  175.2040  136.8980 C   0  0  0  0  0  2  0  0  0  0  0  0
  189.1070  173.8620  137.2420 C   0  0  2  0  0  3  0  0  0  0  0  0
  190.6720  175.5540  134.8190 C   0  0  2  0  0  3  0  0  0  0  0  0
  189.8050  178.6080  137.9950 C   0  0  0  0  0  1  0  0  0  0  0  0
  190.7760  176.4890  138.9250 C   0  0  2  0  0  3  0  0  0  0  0  0
  188.9440  177.1050  144.4760 S   0  0  0  0  0  0  0  0  0  0  0  0
  190.2840  173.4600  136.3370 C   0  0  0  0  0  2  0  0  0  0  0  0
  191.6950  174.4530  134.5950 C   0  0  0  0  0  2  0  0  0  0  0  0
  190.7220  176.1880  136.1850 C   0  0  0  0  0  0  0  0  0  0  0  0
  187.5620  179.7520  141.3240 O   0  0  0  0  0  1  0  0  0  0  0  0
  186.9060  178.6880  141.4710 C   0  0  0  0  0  0  0  0  0  0  0  0
  185.6180  178.5950  140.9570 O   0  0  0  0  0  0  0  0  0  0  0  0
  186.9930  173.4690  136.7170 C   0  0  0  0  0  1  0  0  0  0  0  0
  188.1400  172.8550  137.2230 O   0  0  0  0  0  0  0  0  0  0  0  0
  1 12  1  0  0  0  0
  2 16  1  6  0  0  0
  2 17  1  0  0  0  0
  2  8  1  0  0  0  0
  3  7  2  0  0  0  0
  4 18  1  0  0  0  0
  5 13  1  1  0  0  0
  5  2  1  0  0  0  0
  6 23  1  6  0  0  0
  6 11  1  0  0  0  0
  7  6  1  0  0  0  0
  7  4  1  0  0  0  0
  8  3  1  0  0  0  0
  9 20  1  6  0  0  0
  9 19  1  0  0  0  0
 10  3  1  0  0  0  0
 11 18  1  0  0  0  0
 13 14  1  0  0  0  0
 14 26  1  6  0  0  0
 15 20  1  1  0  0  0
 15  9  1  0  0  0  0
 15 21  1  0  0  0  0
 17 12  1  6  0  0  0
 17 10  1  0  0  0  0
 19 14  1  0  0  0  0
 21  1  2  0  0  0  0
 21  5  1  0  0  0  0
 22 23  1  0  0  0  0
 24 23  2  0  0  0  0
 25 26  1  0  0  0  0
M  END
>  <MODEL>
8

>  <REMARK>
 VINA RESULT:      -4.7      2.970      7.003
  Name = 
  2 active torsions:
  status: ('A' for Active; 'I' for Inactive)
    1  A    between atoms: C_6  and  C_8
    2  A    between atoms: C_17  and  O_24
                            x       y       z     vdW  Elec       q    Type
                         _______ _______ _______ _____ _____    ______ ____

>  <TORSDO>
F 2

$$$$
=
 OpenBabel11062417153D

 26 30  0  0  1  0  0  0  0  0999 V2000
  180.5990  177.1490  140.5920 C   0  0  0  0  0  3  0  0  0  0  0  0
  182.7620  177.5490  138.8020 C   0  0  2  0  0  0  0  0  0  0  0  0
  184.1310  175.8620  137.9690 C   0  0  0  0  0  0  0  0  0  0  0  0
  184.9200  173.7140  137.0810 C   0  0  0  0  0  2  0  0  0  0  0  0
  182.4790  178.6490  139.8370 C   0  0  2  0  0  3  0  0  0  0  0  0
  186.1650  175.8370  136.5190 C   0  0  1  0  0  3  0  0  0  0  0  0
  184.9990  175.1920  137.2020 C   0  0  0  0  0  0  0  0  0  0  0  0
  184.1630  177.3460  138.2350 C   0  0  0  0  0  2  0  0  0  0  0  0
  181.7980  179.4120  142.8720 C   0  0  2  0  0  3  0  0  0  0  0  0
  183.0650  175.2520  138.6260 O   0  0  0  0  0  0  0  0  0  0  0  0
  186.9210  174.7510  135.7760 C   0  0  0  0  0  2  0  0  0  0  0  0
  181.1480  176.0980  139.8330 O   0  0  0  0  0  0  0  0  0  0  0  0
  183.6820  179.1300  140.6610 C   0  0  0  0  0  2  0  0  0  0  0  0
  183.9700  178.3240  141.9340 C   0  0  2  0  0  3  0  0  0  0  0  0
  180.8050  179.3780  141.6880 C   0  0  2  0  0  3  0  0  0  0  0  0
  181.8070  177.7530  137.6240 C   0  0  0  0  0  1  0  0  0  0  0  0
  182.5180  176.2250  139.4840 C   0  0  2  0  0  3  0  0  0  0  0  0
  186.5460  173.1350  136.5210 S   0  0  0  0  0  0  0  0  0  0  0  0
  182.8060  178.2490  142.9380 C   0  0  0  0  0  2  0  0  0  0  0  0
  180.4210  178.8080  143.0430 C   0  0  0  0  0  2  0  0  0  0  0  0
  181.2240  178.3510  140.6700 C   0  0  0  0  0  0  0  0  0  0  0  0
  186.4010  177.9480  135.4360 O   0  0  0  0  0  1  0  0  0  0  0  0
  185.7330  176.8860  135.5440 C   0  0  0  0  0  0  0  0  0  0  0  0
  184.6140  176.6910  134.7430 O   0  0  0  0  0  0  0  0  0  0  0  0
  186.0400  179.0030  141.5500 C   0  0  0  0  0  1  0  0  0  0  0  0
  185.0980  178.8480  142.5680 O   0  0  0  0  0  0  0  0  0  0  0  0
  1 21  2  0  0  0  0
  2 16  1  6  0  0  0
  2 17  1  0  0  0  0
  2  5  1  0  0  0  0
  3  8  1  0  0  0  0
  3 10  1  0  0  0  0
  4  7  1  0  0  0  0
  5 13  1  1  0  0  0
  5 21  1  0  0  0  0
  6 23  1  6  0  0  0
  6  7  1  0  0  0  0
  7  3  2  0  0  0  0
  8  2  1  0  0  0  0
  9 19  1  6  0  0  0
  9 20  1  0  0  0  0
 11  6  1  0  0  0  0
 11 18  1  0  0  0  0
 12  1  1  0  0  0  0
 13 14  1  0  0  0  0
 14 26  1  1  0  0  0
 14 19  1  0  0  0  0
 15  9  1  0  0  0  0
 15 20  1  1  0  0  0
 17 10  1  6  0  0  0
 17 12  1  0  0  0  0
 18  4  1  0  0  0  0
 21 15  1  0  0  0  0
 22 23  1  0  0  0  0
 24 23  2  0  0  0  0
 25 26  1  0  0  0  0
M  END
>  <MODEL>
9

>  <REMARK>
 VINA RESULT:      -4.7      4.975      7.025
  Name = 
  2 active torsions:
  status: ('A' for Active; 'I' for Inactive)
    1  A    between atoms: C_6  and  C_8
    2  A    between atoms: C_17  and  O_24
                            x       y       z     vdW  Elec       q    Type
                         _______ _______ _______ _____ _____    ______ ____

>  <TORSDO>
F 2

$$$$
