=
 OpenBabel11062417073D

 65 72  0  0  1  0  0  0  0  0999 V2000
  188.5800  175.6570  142.0610 O   0  0  0  0  0  0  0  0  0  0  0  0
  188.4940  177.2740  135.7560 C   0  0  0  0  0  2  0  0  0  0  0  0
  183.1460  178.3800  137.6250 C   0  0  1  0  0  3  0  0  0  0  0  0
  192.3210  177.3940  140.8560 C   0  0  0  0  0  0  0  0  0  0  0  0
  190.9240  177.4730  142.7250 O   0  0  0  0  0  0  0  0  0  0  0  0
  187.4170  177.2480  134.6930 C   0  0  2  0  0  3  0  0  0  0  0  0
  183.8690  178.8640  138.9100 C   0  0  2  0  0  0  0  0  0  0  0  0
  193.6280  177.7520  138.8370 C   0  0  0  0  0  2  0  0  0  0  0  0
  189.1630  173.7680  135.0270 C   0  0  0  0  0  2  0  0  0  0  0  0
  193.0790  174.7750  135.3140 S   0  0  0  0  0  0  0  0  0  0  0  0
  186.0960  176.7850  135.2990 C   0  0  0  0  0  2  0  0  0  0  0  0
  190.5440  174.1160  135.4980 C   0  0  0  0  0  0  0  0  0  0  0  0
  188.3160  177.6130  145.3550 C   0  0  0  0  0  2  0  0  0  0  0  0
  192.3340  174.6020  136.9770 C   0  0  1  0  0  3  0  0  0  0  0  0
  193.4790  177.6500  140.3170 C   0  0  0  0  0  3  0  0  0  0  0  0
  185.0350  178.7440  136.1510 O   0  0  0  0  0  0  0  0  0  0  0  0
  187.2860  177.6630  142.3990 C   0  0  2  0  0  3  0  0  0  0  0  0
  183.2420  178.6050  140.2790 C   0  0  2  0  0  3  0  0  0  0  0  0
  188.1530  174.8610  135.3680 C   0  0  0  0  0  2  0  0  0  0  0  0
  192.3970  175.8790  137.6770 N   0  0  0  0  0  2  0  0  0  0  0  0
  186.4640  177.7150  143.6820 C   0  0  0  0  0  2  0  0  0  0  0  0
  191.5510  174.3830  134.5940 O   0  0  0  0  0  0  0  0  0  0  0  0
  185.6770  178.3490  140.6310 C   0  0  0  0  0  2  0  0  0  0  0  0
  193.6170  176.4020  138.2060 C   0  0  0  0  0  0  0  0  0  0  0  0
  185.0310  177.8420  135.0820 C   0  0  0  0  0  2  0  0  0  0  0  0
  194.6780  175.7240  138.1640 O   0  0  0  0  0  0  0  0  0  0  0  0
  189.5360  177.7300  144.5610 N   0  0  0  0  0  0  0  0  0  0  0  0
  183.6870  179.0570  136.3590 C   0  0  0  0  0  2  0  0  0  0  0  0
  189.6670  177.3460  143.3250 C   0  0  0  0  0  0  0  0  0  0  0  0
  190.9070  174.2100  136.7690 C   0  0  0  0  0  0  0  0  0  0  0  0
  186.4100  177.1810  141.2520 C   0  0  0  0  0  2  0  0  0  0  0  0
  184.5250  180.0990  138.8500 O   0  0  0  0  0  1  0  0  0  0  0  0
  188.5230  176.1860  134.7030 C   0  0  2  0  0  3  0  0  0  0  0  0
  184.4850  177.8260  139.8450 C   0  0  2  0  0  3  0  0  0  0  0  0
  188.5150  176.8110  142.5660 C   0  0  0  0  0  0  0  0  0  0  0  0
  191.1590  177.1520  141.3900 C   0  0  0  0  0  3  0  0  0  0  0  0
  187.1950  178.4680  144.7820 C   0  0  0  0  0  2  0  0  0  0  0  0
  182.0000  177.7590  140.2300 C   0  0  0  0  0  0  0  0  0  0  0  0
  180.7520  178.3400  139.8650 N   0  0  0  0  0  2  0  0  0  0  0  0
  182.0380  176.5400  140.5510 O   0  0  0  0  0  0  0  0  0  0  0  0
  180.5470  179.7270  139.9420 N   0  0  0  0  0  2  0  0  0  0  0  0
  179.6480  181.2290  135.8640 C   0  0  0  0  0  2  0  0  0  0  0  0
  180.2670  179.2340  137.5100 C   0  0  1  0  0  3  0  0  0  0  0  0
  180.6520  181.8830  138.3220 S   0  0  0  0  0  0  0  0  0  0  0  0
  180.0370  180.2160  138.6650 C   0  0  2  0  0  3  0  0  0  0  0  0
  178.9320  178.9890  136.8250 C   0  0  0  0  0  2  0  0  0  0  0  0
  179.3340  182.0610  137.1010 C   0  0  0  0  0  2  0  0  0  0  0  0
  180.0130  179.7440  136.0820 C   0  0  1  0  0  3  0  0  0  0  0  0
  183.1240  176.8520  137.4660 C   0  0  0  0  0  2  0  0  0  0  0  0
  180.6250  175.3390  138.2130 O   0  0  0  0  0  0  0  0  0  0  0  0
  180.2220  175.0350  135.8400 C   0  0  0  0  0  2  0  0  0  0  0  0
  182.0670  176.3310  135.2160 C   0  0  0  0  0  3  0  0  0  0  0  0
  180.9260  175.5910  137.0160 C   0  0  0  0  0  0  0  0  0  0  0  0
  181.0800  175.5790  134.7340 C   0  0  0  0  0  3  0  0  0  0  0  0
  182.0120  176.4140  136.6310 N   0  0  0  0  0  0  0  0  0  0  0  0
  189.9880  173.9200  137.9170 C   0  0  0  0  0  2  0  0  0  0  0  0
  189.0100  175.0300  138.0930 C   0  0  0  0  0  0  0  0  0  0  0  0
  189.4600  176.2650  138.2900 C   0  0  0  0  0  1  0  0  0  0  0  0
  187.6170  174.7700  137.8880 N   0  0  0  0  0  0  0  0  0  0  0  0
  187.0970  173.4940  137.4140 C   0  0  0  0  0  2  0  0  0  0  0  0
  185.5770  173.4860  137.5260 C   0  0  2  0  0  3  0  0  0  0  0  0
  185.1810  172.6930  138.5900 F   0  0  0  0  0  0  0  0  0  0  0  0
  184.9050  173.0070  136.2390 C   0  0  1  0  0  3  0  0  0  0  0  0
  185.6810  173.4070  135.0770 N   0  0  0  0  0  1  0  0  0  0  0  0
  184.6960  171.5000  136.2270 C   0  0  0  0  0  1  0  0  0  0  0  0
  1 35  2  0  0  0  0
  3 49  1  6  0  0  0
  3  7  1  0  0  0  0
  4 36  2  0  0  0  0
  5 29  1  0  0  0  0
  6 33  1  0  0  0  0
  6 11  1  1  0  0  0
  6  2  1  0  0  0  0
  7 32  1  6  0  0  0
  7 34  1  0  0  0  0
  7 18  1  0  0  0  0
  8 15  1  0  0  0  0
  9 19  1  0  0  0  0
  9 12  1  0  0  0  0
 12 30  2  0  0  0  0
 14 10  1  6  0  0  0
 14 20  1  0  0  0  0
 15  4  2  0  0  0  0
 16 28  1  0  0  0  0
 17 31  1  6  0  0  0
 17 35  1  0  0  0  0
 17 21  1  0  0  0  0
 18 38  1  6  0  0  0
 20 24  1  0  0  0  0
 21 37  1  0  0  0  0
 22 10  1  0  0  0  0
 22 12  1  0  0  0  0
 23 31  1  0  0  0  0
 24  8  1  0  0  0  0
 25 11  1  0  0  0  0
 25 16  1  0  0  0  0
 26 24  2  0  0  0  0
 27 13  1  0  0  0  0
 28  3  1  0  0  0  0
 29 27  2  0  0  0  0
 30 14  1  0  0  0  0
 30 56  1  0  0  0  0
 33 19  1  1  0  0  0
 33  2  1  0  0  0  0
 34 18  1  0  0  0  0
 34 23  1  1  0  0  0
 35 29  1  0  0  0  0
 36  5  1  0  0  0  0
 37 13  1  0  0  0  0
 38 40  2  0  0  0  0
 39 41  1  0  0  0  0
 39 38  1  0  0  0  0
 42 47  1  0  0  0  0
 43 46  1  1  0  0  0
 43 45  1  0  0  0  0
 44 45  1  0  0  0  0
 45 41  1  1  0  0  0
 47 44  1  0  0  0  0
 48 42  1  1  0  0  0
 48 46  1  0  0  0  0
 48 43  1  0  0  0  0
 51 53  1  0  0  0  0
 52 55  1  0  0  0  0
 53 50  2  0  0  0  0
 54 52  2  0  0  0  0
 54 51  1  0  0  0  0
 55 53  1  0  0  0  0
 55 49  1  0  0  0  0
 56 57  1  0  0  0  0
 57 58  1  0  0  0  0
 59 57  2  0  0  0  0
 60 61  1  0  0  0  0
 60 59  1  0  0  0  0
 61 62  1  1  0  0  0
 63 65  1  1  0  0  0
 63 61  1  0  0  0  0
 64 63  1  0  0  0  0
M  END
>  <MODEL>
1

>  <REMARK>
 VINA RESULT:       0.5      0.000      0.000
  Name = 
  11 active torsions:
  status: ('A' for Active; 'I' for Inactive)
    1  A    between atoms: C_3  and  C_31
    2  A    between atoms: C_5  and  N_48
    3  A    between atoms: C_5  and  C_64
    4  A    between atoms: C_6  and  C_49
    5  A    between atoms: C_17  and  C_38
    6  A    between atoms: C_17  and  C_39
    7  A    between atoms: C_21  and  N_30
    8  A    between atoms: N_28  and  N_30
    9  A    between atoms: C_39  and  N_48
   10  A    between atoms: C_49  and  N_59
   11  A    between atoms: C_53  and  C_64
                            x       y       z     vdW  Elec       q    Type
                         _______ _______ _______ _____ _____    ______ ____

>  <TORSDO>
F 11

$$$$
=
 OpenBabel11062417073D

 65 72  0  0  1  0  0  0  0  0999 V2000
  186.7190  179.2760  140.2060 O   0  0  0  0  0  0  0  0  0  0  0  0
  183.2180  175.0120  136.7510 C   0  0  0  0  0  2  0  0  0  0  0  0
  188.7090  173.7870  135.4600 C   0  0  1  0  0  3  0  0  0  0  0  0
  183.2420  177.9990  142.3860 C   0  0  0  0  0  0  0  0  0  0  0  0
  185.4750  178.4840  142.8630 O   0  0  0  0  0  0  0  0  0  0  0  0
  183.4340  174.3320  135.4160 C   0  0  2  0  0  3  0  0  0  0  0  0
  188.9610  174.0960  136.9590 C   0  0  2  0  0  0  0  0  0  0  0  0
  181.0440  177.0490  141.9660 C   0  0  0  0  0  2  0  0  0  0  0  0
  181.8290  177.8660  134.9640 C   0  0  0  0  0  2  0  0  0  0  0  0
  179.0160  177.9320  137.8820 S   0  0  0  0  0  0  0  0  0  0  0  0
  184.7870  174.7340  134.8390 C   0  0  0  0  0  2  0  0  0  0  0  0
  181.0560  178.0620  136.2350 C   0  0  0  0  0  0  0  0  0  0  0  0
  189.1310  179.0080  143.1810 C   0  0  0  0  0  2  0  0  0  0  0  0
  180.5780  178.6770  138.4760 C   0  0  1  0  0  3  0  0  0  0  0  0
  182.0330  177.7730  142.8140 C   0  0  0  0  0  3  0  0  0  0  0  0
  186.3750  173.1970  135.7380 O   0  0  0  0  0  0  0  0  0  0  0  0
  188.1890  177.4180  140.6540 C   0  0  2  0  0  3  0  0  0  0  0  0
  190.2450  174.8080  137.3840 C   0  0  2  0  0  3  0  0  0  0  0  0
  182.9650  176.8610  135.1370 C   0  0  0  0  0  2  0  0  0  0  0  0
  181.1010  177.8970  139.5910 N   0  0  0  0  0  2  0  0  0  0  0  0
  189.6130  177.7820  141.0590 C   0  0  0  0  0  2  0  0  0  0  0  0
  179.7500  177.6310  136.3400 O   0  0  0  0  0  0  0  0  0  0  0  0
  188.4930  175.6920  138.8890 C   0  0  0  0  0  2  0  0  0  0  0  0
  180.5130  177.9340  140.8920 C   0  0  0  0  0  0  0  0  0  0  0  0
  185.6300  173.4970  134.5940 C   0  0  0  0  0  2  0  0  0  0  0  0
  179.5640  178.7230  141.1460 O   0  0  0  0  0  0  0  0  0  0  0  0
  187.7040  178.8010  143.4100 N   0  0  0  0  0  0  0  0  0  0  0  0
  187.6050  172.7400  135.2550 C   0  0  0  0  0  2  0  0  0  0  0  0
  186.8150  178.6050  142.4800 C   0  0  0  0  0  0  0  0  0  0  0  0
  181.5380  178.6280  137.3320 C   0  0  0  0  0  0  0  0  0  0  0  0
  188.1410  177.1390  139.1590 C   0  0  0  0  0  2  0  0  0  0  0  0
  188.5540  173.1320  137.8900 O   0  0  0  0  0  1  0  0  0  0  0  0
  182.4350  175.4880  135.5450 C   0  0  2  0  0  3  0  0  0  0  0  0
  188.9060  175.5450  137.4340 C   0  0  2  0  0  3  0  0  0  0  0  0
  187.2110  178.4880  141.0590 C   0  0  0  0  0  0  0  0  0  0  0  0
  184.4530  178.2090  141.9580 C   0  0  0  0  0  3  0  0  0  0  0  0
  189.7810  177.7750  142.5710 C   0  0  0  0  0  2  0  0  0  0  0  0
  191.0980  175.2630  136.2330 C   0  0  0  0  0  0  0  0  0  0  0  0
  192.1420  174.4280  135.7420 N   0  0  0  0  0  2  0  0  0  0  0  0
  190.9300  176.4010  135.7170 O   0  0  0  0  0  0  0  0  0  0  0  0
  192.6730  173.3920  136.5270 N   0  0  0  0  0  2  0  0  0  0  0  0
  196.9710  174.2110  137.2670 C   0  0  0  0  0  2  0  0  0  0  0  0
  194.7250  172.9210  137.8700 C   0  0  1  0  0  3  0  0  0  0  0  0
  194.6260  175.2420  136.3120 S   0  0  0  0  0  0  0  0  0  0  0  0
  194.1250  173.5270  136.5960 C   0  0  2  0  0  3  0  0  0  0  0  0
  195.8240  171.9530  137.4610 C   0  0  0  0  0  2  0  0  0  0  0  0
  196.2940  174.6430  135.9720 C   0  0  0  0  0  2  0  0  0  0  0  0
  196.1990  173.2320  138.1780 C   0  0  1  0  0  3  0  0  0  0  0  0
  188.4460  175.0370  134.6060 C   0  0  0  0  0  2  0  0  0  0  0  0
  185.9680  176.0200  136.0150 O   0  0  0  0  0  0  0  0  0  0  0  0
  187.1390  178.1090  136.3990 C   0  0  0  0  0  2  0  0  0  0  0  0
  189.1310  177.3320  135.4500 C   0  0  0  0  0  3  0  0  0  0  0  0
  187.0260  176.7010  135.9610 C   0  0  0  0  0  0  0  0  0  0  0  0
  188.5530  178.4030  135.9910 C   0  0  0  0  0  3  0  0  0  0  0  0
  188.2490  176.2210  135.4320 N   0  0  0  0  0  0  0  0  0  0  0  0
  182.9180  179.2070  137.4270 C   0  0  0  0  0  2  0  0  0  0  0  0
  182.9530  180.3020  138.4370 C   0  0  0  0  0  0  0  0  0  0  0  0
  184.0130  180.4180  139.2300 C   0  0  0  0  0  2  0  0  0  0  0  0
  181.9220  181.2960  138.4240 N   0  0  0  0  0  2  0  0  0  0  0  0
  182.0770  182.6100  137.8170 C   0  0  0  0  0  2  0  0  0  0  0  0
  180.7200  183.2970  137.7260 C   0  0  2  0  0  3  0  0  0  0  0  0
  179.8080  182.4710  137.0890 F   0  0  0  0  0  0  0  0  0  0  0  0
  180.8000  184.6420  137.0030 C   0  0  1  0  0  3  0  0  0  0  0  0
  180.5930  184.4680  135.5750 N   0  0  0  0  0  1  0  0  0  0  0  0
  179.7990  185.6490  137.5500 C   0  0  0  0  0  1  0  0  0  0  0  0
  1 35  2  0  0  0  0
  3 49  1  6  0  0  0
  3  7  1  0  0  0  0
  4 15  2  0  0  0  0
  6 11  1  6  0  0  0
  6 33  1  0  0  0  0
  6  2  1  0  0  0  0
  7 18  1  0  0  0  0
  7 34  1  0  0  0  0
  7 32  1  1  0  0  0
  8 15  1  0  0  0  0
  9 19  1  0  0  0  0
  9 12  1  0  0  0  0
 10 14  1  0  0  0  0
 12 22  1  0  0  0  0
 12 30  2  0  0  0  0
 13 27  1  0  0  0  0
 14 30  1  6  0  0  0
 14 20  1  0  0  0  0
 17 31  1  6  0  0  0
 17 35  1  0  0  0  0
 17 21  1  0  0  0  0
 18 38  1  6  0  0  0
 18 34  1  0  0  0  0
 20 24  1  0  0  0  0
 21 37  1  0  0  0  0
 22 10  1  0  0  0  0
 23 31  1  0  0  0  0
 24 26  2  0  0  0  0
 24  8  1  0  0  0  0
 25 11  1  0  0  0  0
 25 16  1  0  0  0  0
 28  3  1  0  0  0  0
 28 16  1  0  0  0  0
 29  5  1  0  0  0  0
 29 27  2  0  0  0  0
 30 56  1  0  0  0  0
 33 19  1  6  0  0  0
 33  2  1  0  0  0  0
 34 23  1  1  0  0  0
 35 29  1  0  0  0  0
 36  4  2  0  0  0  0
 36  5  1  0  0  0  0
 37 13  1  0  0  0  0
 39 38  1  0  0  0  0
 39 41  1  0  0  0  0
 40 38  2  0  0  0  0
 43 46  1  6  0  0  0
 43 48  1  0  0  0  0
 44 45  1  0  0  0  0
 45 41  1  1  0  0  0
 45 43  1  0  0  0  0
 46 48  1  0  0  0  0
 47 44  1  0  0  0  0
 47 42  1  0  0  0  0
 48 42  1  6  0  0  0
 49 55  1  0  0  0  0
 52 54  2  0  0  0  0
 53 50  2  0  0  0  0
 53 51  1  0  0  0  0
 54 51  1  0  0  0  0
 55 52  1  0  0  0  0
 55 53  1  0  0  0  0
 56 57  1  0  0  0  0
 57 58  2  0  0  0  0
 59 57  1  0  0  0  0
 60 59  1  0  0  0  0
 61 62  1  6  0  0  0
 61 60  1  0  0  0  0
 63 65  1  1  0  0  0
 63 61  1  0  0  0  0
 64 63  1  0  0  0  0
M  END
>  <MODEL>
2

>  <REMARK>
 VINA RESULT:       3.4      2.894     10.070
  Name = 
  11 active torsions:
  status: ('A' for Active; 'I' for Inactive)
    1  A    between atoms: C_3  and  C_31
    2  A    between atoms: C_5  and  N_48
    3  A    between atoms: C_5  and  C_64
    4  A    between atoms: C_6  and  C_49
    5  A    between atoms: C_17  and  C_38
    6  A    between atoms: C_17  and  C_39
    7  A    between atoms: C_21  and  N_30
    8  A    between atoms: N_28  and  N_30
    9  A    between atoms: C_39  and  N_48
   10  A    between atoms: C_49  and  N_59
   11  A    between atoms: C_53  and  C_64
                            x       y       z     vdW  Elec       q    Type
                         _______ _______ _______ _____ _____    ______ ____

>  <TORSDO>
F 11

$$$$
