=
 OpenBabel11062414283D

 50 56  0  0  1  0  0  0  0  0999 V2000
  191.5330  176.6190  138.2550 N   0  0  0  0  0  0  0  0  0  0  0  0
  192.1180  177.0280  139.5030 C   0  0  0  0  0  0  0  0  0  0  0  0
  190.0780  176.4880  138.1340 C   0  0  0  0  0  2  0  0  0  0  0  0
  190.3210  174.1210  135.3550 O   0  0  0  0  0  0  0  0  0  0  0  0
  189.7140  175.2020  137.3930 C   0  0  2  0  0  3  0  0  0  0  0  0
  193.3730  177.0710  139.6320 O   0  0  0  0  0  0  0  0  0  0  0  0
  192.4100  176.3780  137.0990 C   0  0  0  0  0  2  0  0  0  0  0  0
  190.5350  175.0530  136.1230 C   0  0  0  0  0  0  0  0  0  0  0  0
  191.6180  176.0670  135.8230 C   0  0  2  0  0  3  0  0  0  0  0  0
  192.5210  175.5780  134.7970 N   0  0  0  0  0  2  0  0  0  0  0  0
  193.8250  175.3790  135.4030 C   0  0  0  0  0  2  0  0  0  0  0  0
  195.5000  173.0760  138.5620 C   0  0  0  0  0  3  0  0  0  0  0  0
  194.2830  173.9510  135.1560 C   0  0  1  0  0  3  0  0  0  0  0  0
  195.8020  173.8630  135.2830 C   0  0  0  0  0  2  0  0  0  0  0  0
  195.0860  171.9010  136.6210 C   0  0  0  0  0  3  0  0  0  0  0  0
  195.2080  174.0370  137.6930 C   0  0  0  0  0  3  0  0  0  0  0  0
  194.9220  173.3530  136.4050 C   0  0  2  0  0  0  0  0  0  0  0  0
  195.4240  171.7600  137.9010 C   0  0  0  0  0  3  0  0  0  0  0  0
  191.2590  177.4110  140.6690 C   0  0  0  0  0  2  0  0  0  0  0  0
  192.0710  177.4040  141.9560 C   0  0  0  0  0  2  0  0  0  0  0  0
  191.2760  176.8200  143.1220 C   0  0  0  0  0  2  0  0  0  0  0  0
  186.9670  177.6050  146.6090 C   0  0  1  0  0  3  0  0  0  0  0  0
  185.2640  179.1980  145.9560 O   0  0  0  0  0  0  0  0  0  0  0  0
  185.4840  177.9750  146.6030 C   0  0  0  0  0  2  0  0  0  0  0  0
  189.0910  177.3940  145.2470 C   0  0  1  0  0  3  0  0  0  0  0  0
  189.0640  176.6290  143.9420 C   0  0  1  0  0  3  0  0  0  0  0  0
  187.6830  176.7940  143.3310 C   0  0  0  0  0  2  0  0  0  0  0  0
  187.0480  177.9860  144.0120 C   0  0  2  0  0  3  0  0  0  0  0  0
  190.1070  178.2730  144.5490 C   0  0  0  0  0  2  0  0  0  0  0  0
  185.0950  178.9930  144.5620 C   0  0  1  0  0  3  0  0  0  0  0  0
  187.7540  178.1250  145.3790 C   0  0  1  0  0  3  0  0  0  0  0  0
  190.0140  177.5310  143.2980 N   0  0  0  0  0  0  0  0  0  0  0  0
  185.6600  177.7890  144.0930 O   0  0  0  0  0  0  0  0  0  0  0  0
  183.3480  178.9470  142.8350 C   0  0  0  0  0  0  0  0  0  0  0  0
  183.2560  178.2710  141.7820 O   0  0  0  0  0  0  0  0  0  0  0  0
  183.2430  180.2440  143.5820 O   0  0  0  0  0  0  0  0  0  0  0  0
  182.6640  178.5550  145.0200 O   0  0  0  0  0  1  0  0  0  0  0  0
  183.6290  179.0780  144.1690 C   0  0  2  0  0  0  0  0  0  0  0  0
  188.1690  177.0990  148.6270 O   0  0  0  0  0  1  0  0  0  0  0  0
  187.5740  178.1340  147.9010 C   0  0  0  0  0  2  0  0  0  0  0  0
  188.1890  175.1140  137.2090 C   0  0  1  0  0  3  0  0  0  0  0  0
  187.5330  176.3040  136.4760 C   0  0  1  0  0  3  0  0  0  0  0  0
  186.9930  175.9130  135.1050 C   0  0  0  0  0  1  0  0  0  0  0  0
  186.5060  176.9120  137.2650 O   0  0  0  0  0  0  0  0  0  0  0  0
  185.4860  178.8000  138.4030 O   0  0  0  0  0  1  0  0  0  0  0  0
  187.2930  179.0560  137.0230 O   0  0  0  0  0  0  0  0  0  0  0  0
  186.4470  178.2840  137.5440 C   0  0  0  0  0  0  0  0  0  0  0  0
  187.7590  173.7370  136.6930 C   0  0  0  0  0  2  0  0  0  0  0  0
  185.4160  172.9210  137.7030 C   0  0  0  0  0  3  0  0  0  0  0  0
  186.4730  173.2900  137.2510 C   0  0  0  0  0  0  0  0  0  0  0  0
  1  2  1  0  0  0  0
  2  6  2  0  0  0  0
  2 19  1  0  0  0  0
  3  1  1  0  0  0  0
  4  8  2  0  0  0  0
  5 41  1  6  0  0  0
  5  3  1  0  0  0  0
  7  1  1  0  0  0  0
  8  5  1  0  0  0  0
  9 10  1  6  0  0  0
  9  8  1  0  0  0  0
  9  7  1  0  0  0  0
 10 11  1  0  0  0  0
 13 14  1  0  0  0  0
 13 11  1  1  0  0  0
 13 17  1  0  0  0  0
 14 17  1  0  0  0  0
 15 18  2  0  0  0  0
 16 12  2  0  0  0  0
 17 15  1  0  0  0  0
 17 16  1  0  0  0  0
 18 12  1  0  0  0  0
 19 20  1  0  0  0  0
 20 21  1  0  0  0  0
 21 32  1  0  0  0  0
 22 40  1  1  0  0  0
 23 24  1  0  0  0  0
 24 22  1  0  0  0  0
 25 29  1  6  0  0  0
 25 31  1  0  0  0  0
 26 27  1  6  0  0  0
 26 25  1  0  0  0  0
 28 27  1  1  0  0  0
 28 33  1  0  0  0  0
 28 31  1  0  0  0  0
 30 33  1  1  0  0  0
 30 23  1  0  0  0  0
 31 22  1  0  0  0  0
 32 26  1  0  0  0  0
 32 29  1  0  0  0  0
 34 36  1  0  0  0  0
 34 38  1  0  0  0  0
 35 34  2  0  0  0  0
 36 38  1  0  0  0  0
 38 30  1  0  0  0  0
 38 37  1  0  0  0  0
 40 39  1  0  0  0  0
 42 41  1  0  0  0  0
 42 44  1  0  0  0  0
 43 42  1  0  0  0  0
 44 47  1  0  0  0  0
 46 47  2  0  0  0  0
 47 45  1  0  0  0  0
 48 41  1  0  0  0  0
 48 50  1  0  0  0  0
 50 49  3  0  0  0  0
M  END
>  <MODEL>
1

>  <REMARK>
 VINA RESULT:      -8.1      0.000      0.000
  Name = 
  15 active torsions:
  status: ('A' for Active; 'I' for Inactive)
    1  A    between atoms: O_3  and  C_20
    2  A    between atoms: O_3  and  C_39
    3  A    between atoms: C_4  and  C_38
    4  A    between atoms: C_4  and  N_40
    5  A    between atoms: C_6  and  C_36
    6  A    between atoms: C_10  and  C_29
    7  A    between atoms: N_12  and  C_18
    8  A    between atoms: N_12  and  C_50
    9  A    between atoms: C_14  and  C_46
   10  A    between atoms: C_15  and  C_44
   11  A    between atoms: C_15  and  C_46
   12  A    between atoms: C_18  and  C_22
   13  A    between atoms: C_33  and  C_43
   14  A    between atoms: C_36  and  C_38
   15  A    between atoms: C_39  and  C_46
                            x       y       z     vdW  Elec       q    Type
                         _______ _______ _______ _____ _____    ______ ____

>  <TORSDO>
F 15

$$$$
=
 OpenBabel11062414283D

 50 56  0  0  1  0  0  0  0  0999 V2000
  181.2540  178.5960  138.7780 N   0  0  0  0  0  0  0  0  0  0  0  0
  181.1940  179.2140  140.0750 C   0  0  0  0  0  0  0  0  0  0  0  0
  182.1150  177.4290  138.5610 C   0  0  0  0  0  2  0  0  0  0  0  0
  182.3880  178.0510  134.9660 O   0  0  0  0  0  0  0  0  0  0  0  0
  182.8850  177.5670  137.2480 C   0  0  2  0  0  3  0  0  0  0  0  0
  180.5120  180.2630  140.2480 O   0  0  0  0  0  0  0  0  0  0  0  0
  180.4130  179.1250  137.6940 C   0  0  0  0  0  2  0  0  0  0  0  0
  181.9610  177.9730  136.1130 C   0  0  0  0  0  0  0  0  0  0  0  0
  180.5100  178.2800  136.4180 C   0  0  2  0  0  3  0  0  0  0  0  0
  179.8830  178.9880  135.3170 N   0  0  0  0  0  2  0  0  0  0  0  0
  179.4760  180.2960  135.7970 C   0  0  0  0  0  2  0  0  0  0  0  0
  180.0660  184.2570  137.2280 C   0  0  0  0  0  3  0  0  0  0  0  0
  180.0480  181.3690  134.8830 C   0  0  1  0  0  3  0  0  0  0  0  0
  178.9850  182.4260  134.5940 C   0  0  0  0  0  2  0  0  0  0  0  0
  180.9470  183.8420  135.1380 C   0  0  0  0  0  3  0  0  0  0  0  0
  179.5620  183.0660  136.9280 C   0  0  0  0  0  3  0  0  0  0  0  0
  180.0930  182.7230  135.5830 C   0  0  2  0  0  0  0  0  0  0  0  0
  180.9190  184.7350  136.1240 C   0  0  0  0  0  3  0  0  0  0  0  0
  181.9320  178.6330  141.2430 C   0  0  0  0  0  2  0  0  0  0  0  0
  181.2990  179.0830  142.5520 C   0  0  0  0  0  2  0  0  0  0  0  0
  182.3550  179.4900  143.5770 C   0  0  0  0  0  2  0  0  0  0  0  0
  187.3890  178.4390  145.7890 C   0  0  1  0  0  3  0  0  0  0  0  0
  188.6470  176.5730  144.8940 O   0  0  0  0  0  0  0  0  0  0  0  0
  188.7570  177.8680  145.4150 C   0  0  0  0  0  2  0  0  0  0  0  0
  184.9950  178.8160  145.0610 C   0  0  1  0  0  3  0  0  0  0  0  0
  184.7170  179.4470  143.7140 C   0  0  1  0  0  3  0  0  0  0  0  0
  185.8330  179.0370  142.7670 C   0  0  0  0  0  2  0  0  0  0  0  0
  186.5100  177.8370  143.3890 C   0  0  2  0  0  3  0  0  0  0  0  0
  183.7300  178.0260  144.7930 C   0  0  0  0  0  2  0  0  0  0  0  0
  188.4190  176.6240  143.4940 C   0  0  1  0  0  3  0  0  0  0  0  0
  186.2250  177.9230  144.9050 C   0  0  1  0  0  3  0  0  0  0  0  0
  183.5300  178.6300  143.4820 N   0  0  0  0  0  0  0  0  0  0  0  0
  187.8730  177.8470  143.0520 O   0  0  0  0  0  0  0  0  0  0  0  0
  190.5300  177.3520  142.4680 C   0  0  0  0  0  0  0  0  0  0  0  0
  191.3580  178.2220  142.8300 O   0  0  0  0  0  0  0  0  0  0  0  0
  189.6950  176.6850  141.4150 O   0  0  0  0  0  0  0  0  0  0  0  0
  190.3250  175.0850  142.9330 O   0  0  0  0  0  1  0  0  0  0  0  0
  189.6880  176.3010  142.7210 C   0  0  2  0  0  0  0  0  0  0  0  0
  188.2830  178.3550  148.0170 O   0  0  0  0  0  1  0  0  0  0  0  0
  187.1360  178.1190  147.2560 C   0  0  0  0  0  2  0  0  0  0  0  0
  183.7270  176.3040  136.9970 C   0  0  1  0  0  3  0  0  0  0  0  0
  185.2080  176.5470  136.6350 C   0  0  1  0  0  3  0  0  0  0  0  0
  185.5570  176.0250  135.2460 C   0  0  0  0  0  1  0  0  0  0  0  0
  185.5640  177.9280  136.7550 O   0  0  0  0  0  0  0  0  0  0  0  0
  187.7270  178.9140  137.2550 O   0  0  0  0  0  0  0  0  0  0  0  0
  186.2210  178.4110  138.9030 O   0  0  0  0  0  1  0  0  0  0  0  0
  186.5020  178.4120  137.6770 C   0  0  0  0  0  0  0  0  0  0  0  0
  183.5060  175.2500  138.0870 C   0  0  0  0  0  2  0  0  0  0  0  0
  184.2910  172.8000  137.3410 C   0  0  0  0  0  3  0  0  0  0  0  0
  183.9380  173.9040  137.6810 C   0  0  0  0  0  0  0  0  0  0  0  0
  1  2  1  0  0  0  0
  2  6  2  0  0  0  0
  2 19  1  0  0  0  0
  3  1  1  0  0  0  0
  4  8  2  0  0  0  0
  5 41  1  6  0  0  0
  5  3  1  0  0  0  0
  7  1  1  0  0  0  0
  8  9  1  0  0  0  0
  8  5  1  0  0  0  0
  9 10  1  6  0  0  0
  9  7  1  0  0  0  0
 10 11  1  0  0  0  0
 13 17  1  0  0  0  0
 13 11  1  1  0  0  0
 14 13  1  0  0  0  0
 14 17  1  0  0  0  0
 15 17  1  0  0  0  0
 15 18  2  0  0  0  0
 16 12  2  0  0  0  0
 17 16  1  0  0  0  0
 18 12  1  0  0  0  0
 19 20  1  0  0  0  0
 20 21  1  0  0  0  0
 22 40  1  1  0  0  0
 23 24  1  0  0  0  0
 24 22  1  0  0  0  0
 25 29  1  6  0  0  0
 26 27  1  6  0  0  0
 26 25  1  0  0  0  0
 28 27  1  6  0  0  0
 28 31  1  0  0  0  0
 30 33  1  6  0  0  0
 30 23  1  0  0  0  0
 31 25  1  0  0  0  0
 31 22  1  0  0  0  0
 32 21  1  0  0  0  0
 32 26  1  0  0  0  0
 32 29  1  0  0  0  0
 33 28  1  0  0  0  0
 34 38  1  0  0  0  0
 34 35  2  0  0  0  0
 36 34  1  0  0  0  0
 36 38  1  0  0  0  0
 38 37  1  0  0  0  0
 38 30  1  0  0  0  0
 40 39  1  0  0  0  0
 41 48  1  0  0  0  0
 42 44  1  0  0  0  0
 42 41  1  0  0  0  0
 43 42  1  0  0  0  0
 44 47  1  0  0  0  0
 45 47  2  0  0  0  0
 47 46  1  0  0  0  0
 49 50  3  0  0  0  0
 50 48  1  0  0  0  0
M  END
>  <MODEL>
2

>  <REMARK>
 VINA RESULT:      -7.9      4.924      9.573
  Name = 
  15 active torsions:
  status: ('A' for Active; 'I' for Inactive)
    1  A    between atoms: O_3  and  C_20
    2  A    between atoms: O_3  and  C_39
    3  A    between atoms: C_4  and  C_38
    4  A    between atoms: C_4  and  N_40
    5  A    between atoms: C_6  and  C_36
    6  A    between atoms: C_10  and  C_29
    7  A    between atoms: N_12  and  C_18
    8  A    between atoms: N_12  and  C_50
    9  A    between atoms: C_14  and  C_46
   10  A    between atoms: C_15  and  C_44
   11  A    between atoms: C_15  and  C_46
   12  A    between atoms: C_18  and  C_22
   13  A    between atoms: C_33  and  C_43
   14  A    between atoms: C_36  and  C_38
   15  A    between atoms: C_39  and  C_46
                            x       y       z     vdW  Elec       q    Type
                         _______ _______ _______ _____ _____    ______ ____

>  <TORSDO>
F 15

$$$$
=
 OpenBabel11062414283D

 50 56  0  0  1  0  0  0  0  0999 V2000
  187.6320  178.4520  140.6280 N   0  0  0  0  0  0  0  0  0  0  0  0
  188.0980  178.3040  139.2760 C   0  0  0  0  0  0  0  0  0  0  0  0
  188.5750  178.3380  141.7450 C   0  0  0  0  0  2  0  0  0  0  0  0
  185.9540  177.4050  144.1210 O   0  0  0  0  0  0  0  0  0  0  0  0
  187.9800  177.4840  142.8640 C   0  0  2  0  0  3  0  0  0  0  0  0
  187.2780  178.3290  138.3150 O   0  0  0  0  0  0  0  0  0  0  0  0
  186.2150  178.7600  140.8660 C   0  0  0  0  0  2  0  0  0  0  0  0
  186.5620  177.9220  143.1900 C   0  0  0  0  0  0  0  0  0  0  0  0
  185.9130  179.0030  142.3510 C   0  0  2  0  0  3  0  0  0  0  0  0
  184.4770  179.0330  142.5570 N   0  0  0  0  0  2  0  0  0  0  0  0
  183.8330  178.9220  141.2610 C   0  0  0  0  0  2  0  0  0  0  0  0
  182.7980  177.2760  137.4780 C   0  0  0  0  0  3  0  0  0  0  0  0
  183.1040  177.5900  141.1730 C   0  0  1  0  0  3  0  0  0  0  0  0
  181.6920  177.8060  140.6340 C   0  0  0  0  0  2  0  0  0  0  0  0
  182.4440  175.8730  139.2730 C   0  0  0  0  0  3  0  0  0  0  0  0
  182.9740  178.0810  138.5190 C   0  0  0  0  0  3  0  0  0  0  0  0
  182.7660  177.2410  139.7270 C   0  0  2  0  0  0  0  0  0  0  0  0
  182.4710  175.9160  137.9440 C   0  0  0  0  0  3  0  0  0  0  0  0
  189.5540  178.1200  138.9760 C   0  0  0  0  0  2  0  0  0  0  0  0
  189.8380  176.6810  138.5680 C   0  0  0  0  0  2  0  0  0  0  0  0
  189.9500  176.5370  137.0520 C   0  0  0  0  0  2  0  0  0  0  0  0
  194.0350  172.7140  136.8410 C   0  0  1  0  0  3  0  0  0  0  0  0
  196.1360  173.3640  135.8280 O   0  0  0  0  0  0  0  0  0  0  0  0
  195.5590  172.6000  136.8500 C   0  0  0  0  0  2  0  0  0  0  0  0
  192.0400  174.2680  136.7240 C   0  0  1  0  0  3  0  0  0  0  0  0
  191.9680  175.4570  137.6560 C   0  0  1  0  0  3  0  0  0  0  0  0
  193.3880  175.9260  137.9260 C   0  0  0  0  0  2  0  0  0  0  0  0
  194.2550  175.3310  136.8400 C   0  0  2  0  0  3  0  0  0  0  0  0
  191.3410  175.1780  135.7350 C   0  0  0  0  0  2  0  0  0  0  0  0
  196.3530  174.6940  136.2720 C   0  0  1  0  0  3  0  0  0  0  0  0
  193.5060  174.0790  136.3320 C   0  0  1  0  0  3  0  0  0  0  0  0
  191.3350  176.3100  136.6540 N   0  0  0  0  0  0  0  0  0  0  0  0
  195.5340  175.0720  137.3570 O   0  0  0  0  0  0  0  0  0  0  0  0
  198.4200  173.9820  137.3940 C   0  0  0  0  0  0  0  0  0  0  0  0
  198.8930  172.8360  137.5850 O   0  0  0  0  0  0  0  0  0  0  0  0
  198.0700  175.3600  137.8730 O   0  0  0  0  0  0  0  0  0  0  0  0
  198.6500  175.5100  135.6600 O   0  0  0  0  0  1  0  0  0  0  0  0
  197.8180  174.9280  136.6080 C   0  0  2  0  0  0  0  0  0  0  0  0
  194.0040  170.3480  136.4240 O   0  0  0  0  0  1  0  0  0  0  0  0
  193.4880  171.5730  135.9940 C   0  0  0  0  0  2  0  0  0  0  0  0
  188.9480  177.4330  144.0580 C   0  0  1  0  0  3  0  0  0  0  0  0
  190.4260  177.7390  143.7360 C   0  0  1  0  0  3  0  0  0  0  0  0
  190.8400  179.1370  144.1820 C   0  0  0  0  0  1  0  0  0  0  0  0
  191.3050  176.7550  144.2920 O   0  0  0  0  0  0  0  0  0  0  0  0
  192.3550  174.5650  144.3210 O   0  0  0  0  0  1  0  0  0  0  0  0
  190.6060  175.0450  142.9260 O   0  0  0  0  0  0  0  0  0  0  0  0
  191.4050  175.4410  143.8130 C   0  0  0  0  0  0  0  0  0  0  0  0
  188.3940  178.1920  145.2690 C   0  0  0  0  0  2  0  0  0  0  0  0
  188.8930  176.9660  147.5980 C   0  0  0  0  0  3  0  0  0  0  0  0
  188.6700  177.5160  146.5470 C   0  0  0  0  0  0  0  0  0  0  0  0
  1  7  1  0  0  0  0
  1  3  1  0  0  0  0
  2  1  1  0  0  0  0
  3  5  1  0  0  0  0
  5  8  1  0  0  0  0
  5 41  1  1  0  0  0
  6  2  2  0  0  0  0
  7  9  1  0  0  0  0
  8  4  2  0  0  0  0
  9 10  1  6  0  0  0
  9  8  1  0  0  0  0
 11 10  1  0  0  0  0
 12 18  1  0  0  0  0
 12 16  2  0  0  0  0
 13 11  1  6  0  0  0
 14 13  1  0  0  0  0
 15 17  1  0  0  0  0
 16 17  1  0  0  0  0
 17 14  1  0  0  0  0
 17 13  1  0  0  0  0
 18 15  2  0  0  0  0
 19  2  1  0  0  0  0
 20 19  1  0  0  0  0
 21 20  1  0  0  0  0
 22 40  1  6  0  0  0
 22 24  1  0  0  0  0
 23 24  1  0  0  0  0
 25 29  1  6  0  0  0
 25 26  1  0  0  0  0
 26 27  1  6  0  0  0
 28 33  1  0  0  0  0
 28 27  1  1  0  0  0
 29 32  1  0  0  0  0
 30 23  1  1  0  0  0
 30 38  1  0  0  0  0
 30 33  1  0  0  0  0
 31 25  1  0  0  0  0
 31 28  1  0  0  0  0
 31 22  1  0  0  0  0
 32 21  1  0  0  0  0
 32 26  1  0  0  0  0
 34 35  2  0  0  0  0
 34 36  1  0  0  0  0
 37 38  1  0  0  0  0
 38 34  1  0  0  0  0
 38 36  1  0  0  0  0
 40 39  1  0  0  0  0
 41 48  1  0  0  0  0
 42 41  1  0  0  0  0
 42 43  1  0  0  0  0
 42 44  1  0  0  0  0
 46 47  2  0  0  0  0
 47 44  1  0  0  0  0
 47 45  1  0  0  0  0
 48 50  1  0  0  0  0
 50 49  3  0  0  0  0
M  END
>  <MODEL>
3

>  <REMARK>
 VINA RESULT:      -7.8      3.194     11.396
  Name = 
  15 active torsions:
  status: ('A' for Active; 'I' for Inactive)
    1  A    between atoms: O_3  and  C_20
    2  A    between atoms: O_3  and  C_39
    3  A    between atoms: C_4  and  C_38
    4  A    between atoms: C_4  and  N_40
    5  A    between atoms: C_6  and  C_36
    6  A    between atoms: C_10  and  C_29
    7  A    between atoms: N_12  and  C_18
    8  A    between atoms: N_12  and  C_50
    9  A    between atoms: C_14  and  C_46
   10  A    between atoms: C_15  and  C_44
   11  A    between atoms: C_15  and  C_46
   12  A    between atoms: C_18  and  C_22
   13  A    between atoms: C_33  and  C_43
   14  A    between atoms: C_36  and  C_38
   15  A    between atoms: C_39  and  C_46
                            x       y       z     vdW  Elec       q    Type
                         _______ _______ _______ _____ _____    ______ ____

>  <TORSDO>
F 15

$$$$
=
 OpenBabel11062414283D

 50 56  0  0  1  0  0  0  0  0999 V2000
  189.2470  177.2800  138.1800 N   0  0  0  0  0  0  0  0  0  0  0  0
  188.1630  177.7400  137.3560 C   0  0  0  0  0  0  0  0  0  0  0  0
  189.0370  177.0640  139.6150 C   0  0  0  0  0  2  0  0  0  0  0  0
  192.5840  177.4960  140.4000 O   0  0  0  0  0  0  0  0  0  0  0  0
  190.2040  177.6380  140.4190 C   0  0  2  0  0  3  0  0  0  0  0  0
  188.3570  177.9970  136.1350 O   0  0  0  0  0  0  0  0  0  0  0  0
  190.5460  176.9910  137.5560 C   0  0  0  0  0  2  0  0  0  0  0  0
  191.5370  177.2010  139.8360 C   0  0  0  0  0  0  0  0  0  0  0  0
  191.5510  176.3980  138.5520 C   0  0  2  0  0  3  0  0  0  0  0  0
  192.8760  176.3860  137.9580 N   0  0  0  0  0  2  0  0  0  0  0  0
  192.8710  175.4280  136.8670 C   0  0  0  0  0  2  0  0  0  0  0  0
  196.9520  174.2570  137.1130 C   0  0  0  0  0  3  0  0  0  0  0  0
  193.2490  174.0550  137.4010 C   0  0  1  0  0  3  0  0  0  0  0  0
  193.8440  173.2070  136.2790 C   0  0  0  0  0  2  0  0  0  0  0  0
  195.4670  172.8030  138.1100 C   0  0  0  0  0  3  0  0  0  0  0  0
  195.7740  174.7170  136.7080 C   0  0  0  0  0  3  0  0  0  0  0  0
  194.7540  173.8260  137.3190 C   0  0  2  0  0  0  0  0  0  0  0  0
  196.7620  173.0780  137.9770 C   0  0  0  0  0  3  0  0  0  0  0  0
  186.7870  177.9230  137.9210 C   0  0  0  0  0  2  0  0  0  0  0  0
  185.7310  177.5720  136.8820 C   0  0  0  0  0  2  0  0  0  0  0  0
  184.3350  177.5070  137.4970 C   0  0  0  0  0  2  0  0  0  0  0  0
  181.7860  179.0250  142.2440 C   0  0  1  0  0  3  0  0  0  0  0  0
  182.7550  178.2760  144.3330 O   0  0  0  0  0  0  0  0  0  0  0  0
  182.0880  179.3390  143.7090 C   0  0  0  0  0  2  0  0  0  0  0  0
  182.6910  178.1550  140.0460 C   0  0  1  0  0  3  0  0  0  0  0  0
  183.9810  178.7220  139.4970 C   0  0  1  0  0  3  0  0  0  0  0  0
  184.8590  179.1150  140.6740 C   0  0  0  0  0  2  0  0  0  0  0  0
  184.3090  178.3930  141.8840 C   0  0  2  0  0  3  0  0  0  0  0  0
  183.1600  176.8570  139.4230 C   0  0  0  0  0  2  0  0  0  0  0  0
  184.1560  178.3960  144.1430 C   0  0  1  0  0  3  0  0  0  0  0  0
  182.8260  178.0960  141.5680 C   0  0  1  0  0  3  0  0  0  0  0  0
  184.4110  177.4370  138.9520 N   0  0  0  0  0  0  0  0  0  0  0  0
  184.5120  179.1810  143.0270 O   0  0  0  0  0  0  0  0  0  0  0  0
  185.5050  177.9950  146.1570 C   0  0  0  0  0  0  0  0  0  0  0  0
  186.4600  177.2070  146.3590 O   0  0  0  0  0  0  0  0  0  0  0  0
  184.2100  178.6300  146.5710 O   0  0  0  0  0  0  0  0  0  0  0  0
  185.4090  180.1850  145.3860 O   0  0  0  0  0  1  0  0  0  0  0  0
  184.8360  178.9190  145.3980 C   0  0  2  0  0  0  0  0  0  0  0  0
  179.9230  178.1140  143.4580 O   0  0  0  0  0  1  0  0  0  0  0  0
  180.3920  178.4150  142.1770 C   0  0  0  0  0  2  0  0  0  0  0  0
  190.0070  177.3400  141.9160 C   0  0  1  0  0  3  0  0  0  0  0  0
  188.7660  177.9840  142.5700 C   0  0  1  0  0  3  0  0  0  0  0  0
  187.7880  176.9450  143.1060 C   0  0  0  0  0  1  0  0  0  0  0  0
  189.1300  178.9090  143.6000 O   0  0  0  0  0  0  0  0  0  0  0  0
  189.9200  177.9190  145.6730 O   0  0  0  0  0  1  0  0  0  0  0  0
  191.3000  179.1420  144.3170 O   0  0  0  0  0  0  0  0  0  0  0  0
  190.1510  178.6760  144.5310 C   0  0  0  0  0  0  0  0  0  0  0  0
  190.1830  175.8490  142.2250 C   0  0  0  0  0  2  0  0  0  0  0  0
  191.8750  175.3970  144.2510 C   0  0  0  0  0  3  0  0  0  0  0  0
  191.1100  175.5990  143.3400 C   0  0  0  0  0  0  0  0  0  0  0  0
  1  3  1  0  0  0  0
  2 19  1  0  0  0  0
  2  1  1  0  0  0  0
  3  5  1  0  0  0  0
  5 41  1  1  0  0  0
  6  2  2  0  0  0  0
  7  1  1  0  0  0  0
  7  9  1  0  0  0  0
  8  4  2  0  0  0  0
  8  5  1  0  0  0  0
  9 10  1  6  0  0  0
  9  8  1  0  0  0  0
 11 10  1  0  0  0  0
 12 18  1  0  0  0  0
 13 11  1  6  0  0  0
 14 17  1  0  0  0  0
 14 13  1  0  0  0  0
 16 12  2  0  0  0  0
 16 17  1  0  0  0  0
 17 13  1  0  0  0  0
 17 15  1  0  0  0  0
 18 15  2  0  0  0  0
 20 21  1  0  0  0  0
 20 19  1  0  0  0  0
 21 32  1  0  0  0  0
 22 40  1  1  0  0  0
 22 24  1  0  0  0  0
 24 23  1  0  0  0  0
 25 29  1  6  0  0  0
 25 31  1  0  0  0  0
 26 25  1  0  0  0  0
 26 27  1  1  0  0  0
 28 27  1  6  0  0  0
 28 33  1  0  0  0  0
 30 33  1  6  0  0  0
 30 23  1  0  0  0  0
 30 38  1  0  0  0  0
 31 28  1  0  0  0  0
 31 22  1  0  0  0  0
 32 29  1  0  0  0  0
 32 26  1  0  0  0  0
 34 35  2  0  0  0  0
 34 36  1  0  0  0  0
 37 38  1  0  0  0  0
 38 34  1  0  0  0  0
 38 36  1  0  0  0  0
 40 39  1  0  0  0  0
 41 48  1  0  0  0  0
 41 42  1  0  0  0  0
 42 43  1  0  0  0  0
 42 44  1  0  0  0  0
 44 47  1  0  0  0  0
 46 47  2  0  0  0  0
 47 45  1  0  0  0  0
 48 50  1  0  0  0  0
 50 49  3  0  0  0  0
M  END
>  <MODEL>
4

>  <REMARK>
 VINA RESULT:      -7.6      2.241      5.688
  Name = 
  15 active torsions:
  status: ('A' for Active; 'I' for Inactive)
    1  A    between atoms: O_3  and  C_20
    2  A    between atoms: O_3  and  C_39
    3  A    between atoms: C_4  and  C_38
    4  A    between atoms: C_4  and  N_40
    5  A    between atoms: C_6  and  C_36
    6  A    between atoms: C_10  and  C_29
    7  A    between atoms: N_12  and  C_18
    8  A    between atoms: N_12  and  C_50
    9  A    between atoms: C_14  and  C_46
   10  A    between atoms: C_15  and  C_44
   11  A    between atoms: C_15  and  C_46
   12  A    between atoms: C_18  and  C_22
   13  A    between atoms: C_33  and  C_43
   14  A    between atoms: C_36  and  C_38
   15  A    between atoms: C_39  and  C_46
                            x       y       z     vdW  Elec       q    Type
                         _______ _______ _______ _____ _____    ______ ____

>  <TORSDO>
F 15

$$$$
=
 OpenBabel11062414283D

 50 56  0  0  1  0  0  0  0  0999 V2000
  189.4560  176.9270  137.9860 N   0  0  0  0  0  0  0  0  0  0  0  0
  188.4710  177.1950  136.9740 C   0  0  0  0  0  0  0  0  0  0  0  0
  189.0470  176.7690  139.3850 C   0  0  0  0  0  2  0  0  0  0  0  0
  192.3450  177.7010  140.6640 O   0  0  0  0  0  0  0  0  0  0  0  0
  189.9920  177.5340  140.3110 C   0  0  2  0  0  3  0  0  0  0  0  0
  188.8270  177.4040  135.7800 O   0  0  0  0  0  0  0  0  0  0  0  0
  190.8640  176.7730  137.5910 C   0  0  0  0  0  2  0  0  0  0  0  0
  191.4440  177.2410  139.9720 C   0  0  0  0  0  0  0  0  0  0  0  0
  191.7600  176.3740  138.7700 C   0  0  2  0  0  3  0  0  0  0  0  0
  193.1540  176.5000  138.3880 N   0  0  0  0  0  2  0  0  0  0  0  0
  193.4650  175.4250  137.4630 C   0  0  0  0  0  2  0  0  0  0  0  0
  197.4110  175.2960  135.8820 C   0  0  0  0  0  3  0  0  0  0  0  0
  194.5140  174.5150  138.0820 C   0  0  1  0  0  3  0  0  0  0  0  0
  194.8820  173.4040  137.1010 C   0  0  0  0  0  2  0  0  0  0  0  0
  197.1230  174.1480  137.8600 C   0  0  0  0  0  3  0  0  0  0  0  0
  196.0920  175.2990  136.0330 C   0  0  0  0  0  3  0  0  0  0  0  0
  195.8240  174.5730  137.3030 C   0  0  2  0  0  0  0  0  0  0  0  0
  198.0460  174.5870  137.0070 C   0  0  0  0  0  3  0  0  0  0  0  0
  187.0110  177.2300  137.3080 C   0  0  0  0  0  2  0  0  0  0  0  0
  186.1840  177.5010  136.0590 C   0  0  0  0  0  2  0  0  0  0  0  0
  184.8430  176.7720  136.1020 C   0  0  0  0  0  2  0  0  0  0  0  0
  179.9430  177.2740  138.7630 C   0  0  1  0  0  3  0  0  0  0  0  0
  179.9780  177.3490  141.1830 O   0  0  0  0  0  0  0  0  0  0  0  0
  179.3380  177.8510  140.0430 C   0  0  0  0  0  2  0  0  0  0  0  0
  182.0650  176.7590  137.4830 C   0  0  1  0  0  3  0  0  0  0  0  0
  183.1060  177.8420  137.3020 C   0  0  1  0  0  3  0  0  0  0  0  0
  183.0550  178.7490  138.5210 C   0  0  0  0  0  2  0  0  0  0  0  0
  182.3290  177.9800  139.6020 C   0  0  2  0  0  3  0  0  0  0  0  0
  183.2540  175.8230  137.5470 C   0  0  0  0  0  2  0  0  0  0  0  0
  181.1090  178.1440  141.5030 C   0  0  1  0  0  3  0  0  0  0  0  0
  181.4520  176.9380  138.8720 C   0  0  1  0  0  3  0  0  0  0  0  0
  184.2210  176.9050  137.4150 N   0  0  0  0  0  0  0  0  0  0  0  0
  181.6140  178.8780  140.4090 O   0  0  0  0  0  0  0  0  0  0  0  0
  181.6400  178.9570  143.7600 C   0  0  0  0  0  0  0  0  0  0  0  0
  182.7450  179.1100  144.3350 O   0  0  0  0  0  0  0  0  0  0  0  0
  180.2150  178.4900  143.7470 O   0  0  0  0  0  0  0  0  0  0  0  0
  180.3550  180.3580  142.4240 O   0  0  0  0  0  1  0  0  0  0  0  0
  180.8150  179.0700  142.6720 C   0  0  2  0  0  0  0  0  0  0  0  0
  179.6130  174.9150  139.0690 O   0  0  0  0  0  1  0  0  0  0  0  0
  179.1410  176.0370  138.3860 C   0  0  0  0  0  2  0  0  0  0  0  0
  189.5950  177.3000  141.7780 C   0  0  1  0  0  3  0  0  0  0  0  0
  188.0820  177.3540  142.0800 C   0  0  1  0  0  3  0  0  0  0  0  0
  187.7440  176.7810  143.4510 C   0  0  0  0  0  1  0  0  0  0  0  0
  187.5620  178.6810  141.9490 O   0  0  0  0  0  0  0  0  0  0  0  0
  185.9780  178.9350  140.1260 O   0  0  0  0  0  0  0  0  0  0  0  0
  185.3650  179.2440  142.3090 O   0  0  0  0  0  1  0  0  0  0  0  0
  186.2730  178.9700  141.4830 C   0  0  0  0  0  0  0  0  0  0  0  0
  190.3160  176.0860  142.3740 C   0  0  0  0  0  2  0  0  0  0  0  0
  191.5430  176.6380  144.6910 C   0  0  0  0  0  3  0  0  0  0  0  0
  190.9900  176.3850  143.6470 C   0  0  0  0  0  0  0  0  0  0  0  0
  1  3  1  0  0  0  0
  2 19  1  0  0  0  0
  2  1  1  0  0  0  0
  3  5  1  0  0  0  0
  5 41  1  1  0  0  0
  6  2  2  0  0  0  0
  7  1  1  0  0  0  0
  7  9  1  0  0  0  0
  8  5  1  0  0  0  0
  8  4  2  0  0  0  0
  9 10  1  6  0  0  0
  9  8  1  0  0  0  0
 11 10  1  0  0  0  0
 12 16  2  0  0  0  0
 12 18  1  0  0  0  0
 13 11  1  6  0  0  0
 14 17  1  0  0  0  0
 14 13  1  0  0  0  0
 16 17  1  0  0  0  0
 17 15  1  0  0  0  0
 17 13  1  0  0  0  0
 18 15  2  0  0  0  0
 20 21  1  0  0  0  0
 20 19  1  0  0  0  0
 21 32  1  0  0  0  0
 22 40  1  1  0  0  0
 22 31  1  0  0  0  0
 22 24  1  0  0  0  0
 23 30  1  0  0  0  0
 24 23  1  0  0  0  0
 25 29  1  1  0  0  0
 25 31  1  0  0  0  0
 26 32  1  0  0  0  0
 26 25  1  0  0  0  0
 26 27  1  1  0  0  0
 28 27  1  6  0  0  0
 28 33  1  0  0  0  0
 30 33  1  6  0  0  0
 30 38  1  0  0  0  0
 31 28  1  0  0  0  0
 32 29  1  0  0  0  0
 34 35  2  0  0  0  0
 36 34  1  0  0  0  0
 37 38  1  0  0  0  0
 38 36  1  0  0  0  0
 38 34  1  0  0  0  0
 40 39  1  0  0  0  0
 41 42  1  0  0  0  0
 41 48  1  0  0  0  0
 42 43  1  0  0  0  0
 44 42  1  0  0  0  0
 45 47  2  0  0  0  0
 47 44  1  0  0  0  0
 47 46  1  0  0  0  0
 48 50  1  0  0  0  0
 50 49  3  0  0  0  0
M  END
>  <MODEL>
5

>  <REMARK>
 VINA RESULT:      -7.5      2.941      6.437
  Name = 
  15 active torsions:
  status: ('A' for Active; 'I' for Inactive)
    1  A    between atoms: O_3  and  C_20
    2  A    between atoms: O_3  and  C_39
    3  A    between atoms: C_4  and  C_38
    4  A    between atoms: C_4  and  N_40
    5  A    between atoms: C_6  and  C_36
    6  A    between atoms: C_10  and  C_29
    7  A    between atoms: N_12  and  C_18
    8  A    between atoms: N_12  and  C_50
    9  A    between atoms: C_14  and  C_46
   10  A    between atoms: C_15  and  C_44
   11  A    between atoms: C_15  and  C_46
   12  A    between atoms: C_18  and  C_22
   13  A    between atoms: C_33  and  C_43
   14  A    between atoms: C_36  and  C_38
   15  A    between atoms: C_39  and  C_46
                            x       y       z     vdW  Elec       q    Type
                         _______ _______ _______ _____ _____    ______ ____

>  <TORSDO>
F 15

$$$$
=
 OpenBabel11062414283D

 50 56  0  0  1  0  0  0  0  0999 V2000
  189.0090  176.6920  138.3060 N   0  0  0  0  0  0  0  0  0  0  0  0
  189.9000  177.3210  139.2430 C   0  0  0  0  0  0  0  0  0  0  0  0
  189.3880  175.4260  137.6710 C   0  0  0  0  0  2  0  0  0  0  0  0
  187.1990  175.9850  134.7930 O   0  0  0  0  0  0  0  0  0  0  0  0
  189.0700  175.4590  136.1760 C   0  0  2  0  0  3  0  0  0  0  0  0
  189.6110  178.4470  139.7360 O   0  0  0  0  0  0  0  0  0  0  0  0
  187.7060  177.3140  138.0300 C   0  0  0  0  0  2  0  0  0  0  0  0
  187.6600  175.9690  135.9290 C   0  0  0  0  0  0  0  0  0  0  0  0
  186.8360  176.4550  137.1030 C   0  0  2  0  0  3  0  0  0  0  0  0
  185.6930  177.2280  136.6540 N   0  0  0  0  0  2  0  0  0  0  0  0
  184.4930  176.6040  137.1820 C   0  0  0  0  0  2  0  0  0  0  0  0
  180.6120  175.8240  138.7370 C   0  0  0  0  0  3  0  0  0  0  0  0
  183.9130  177.4780  138.2840 C   0  0  1  0  0  3  0  0  0  0  0  0
  182.7270  178.2740  137.7450 C   0  0  0  0  0  2  0  0  0  0  0  0
  181.8120  177.4220  139.8870 C   0  0  0  0  0  3  0  0  0  0  0  0
  181.6530  176.0380  137.9420 C   0  0  0  0  0  3  0  0  0  0  0  0
  182.4850  177.0640  138.6230 C   0  0  2  0  0  0  0  0  0  0  0  0
  180.7100  176.6770  139.9350 C   0  0  0  0  0  3  0  0  0  0  0  0
  191.1800  176.6610  139.6550 C   0  0  0  0  0  2  0  0  0  0  0  0
  191.9670  177.5610  140.5970 C   0  0  0  0  0  2  0  0  0  0  0  0
  191.7650  177.1620  142.0570 C   0  0  0  0  0  2  0  0  0  0  0  0
  188.2380  177.1830  146.4040 C   0  0  1  0  0  3  0  0  0  0  0  0
  186.4800  178.8490  146.4220 O   0  0  0  0  0  0  0  0  0  0  0  0
  186.7910  177.5260  146.7610 C   0  0  0  0  0  2  0  0  0  0  0  0
  190.0500  177.2740  144.6390 C   0  0  1  0  0  3  0  0  0  0  0  0
  189.7510  176.7810  143.2410 C   0  0  1  0  0  3  0  0  0  0  0  0
  188.2810  177.0440  142.9550 C   0  0  0  0  0  2  0  0  0  0  0  0
  187.8210  178.0690  143.9680 C   0  0  2  0  0  3  0  0  0  0  0  0
  190.9320  178.2880  143.9410 C   0  0  0  0  0  2  0  0  0  0  0  0
  186.0380  178.9200  145.0750 C   0  0  1  0  0  3  0  0  0  0  0  0
  188.7830  177.9460  145.1700 C   0  0  1  0  0  3  0  0  0  0  0  0
  190.5800  177.8060  142.6120 N   0  0  0  0  0  0  0  0  0  0  0  0
  186.4710  177.8400  144.2780 O   0  0  0  0  0  0  0  0  0  0  0  0
  183.9520  178.8170  143.7820 C   0  0  0  0  0  0  0  0  0  0  0  0
  183.6020  178.0500  142.8530 O   0  0  0  0  0  0  0  0  0  0  0  0
  184.0680  180.1850  144.3880 O   0  0  0  0  0  0  0  0  0  0  0  0
  183.7520  178.6840  146.0930 O   0  0  0  0  0  1  0  0  0  0  0  0
  184.5260  179.0600  145.0020 C   0  0  2  0  0  0  0  0  0  0  0  0
  188.3150  177.9310  148.6860 O   0  0  0  0  0  1  0  0  0  0  0  0
  189.0970  177.4560  147.6310 C   0  0  0  0  0  2  0  0  0  0  0  0
  189.4030  174.0990  135.5370 C   0  0  1  0  0  3  0  0  0  0  0  0
  190.8210  173.9680  134.9430 C   0  0  1  0  0  3  0  0  0  0  0  0
  191.4740  175.3240  134.6960 C   0  0  0  0  0  1  0  0  0  0  0  0
  191.6640  173.1470  135.7580 O   0  0  0  0  0  0  0  0  0  0  0  0
  194.0580  173.5250  135.9150 O   0  0  0  0  0  0  0  0  0  0  0  0
  192.6220  174.1800  137.5720 O   0  0  0  0  0  1  0  0  0  0  0  0
  192.7820  173.6280  136.4530 C   0  0  0  0  0  0  0  0  0  0  0  0
  188.9830  172.9330  136.4370 C   0  0  0  0  0  2  0  0  0  0  0  0
  186.5220  172.0240  135.8970 C   0  0  0  0  0  3  0  0  0  0  0  0
  187.6330  172.4320  136.1370 C   0  0  0  0  0  0  0  0  0  0  0  0
  1  2  1  0  0  0  0
  2 19  1  0  0  0  0
  2  6  2  0  0  0  0
  3  1  1  0  0  0  0
  4  8  2  0  0  0  0
  5 41  1  1  0  0  0
  5  3  1  0  0  0  0
  7  1  1  0  0  0  0
  8  5  1  0  0  0  0
  8  9  1  0  0  0  0
  9 10  1  6  0  0  0
  9  7  1  0  0  0  0
 10 11  1  0  0  0  0
 12 18  1  0  0  0  0
 13 11  1  6  0  0  0
 13 17  1  0  0  0  0
 14 13  1  0  0  0  0
 14 17  1  0  0  0  0
 15 18  2  0  0  0  0
 16 17  1  0  0  0  0
 16 12  2  0  0  0  0
 17 15  1  0  0  0  0
 19 20  1  0  0  0  0
 20 21  1  0  0  0  0
 21 32  1  0  0  0  0
 22 24  1  0  0  0  0
 22 40  1  1  0  0  0
 23 24  1  0  0  0  0
 25 29  1  6  0  0  0
 25 31  1  0  0  0  0
 26 27  1  6  0  0  0
 26 25  1  0  0  0  0
 28 27  1  6  0  0  0
 28 33  1  0  0  0  0
 28 31  1  0  0  0  0
 30 33  1  6  0  0  0
 30 23  1  0  0  0  0
 31 22  1  0  0  0  0
 32 26  1  0  0  0  0
 32 29  1  0  0  0  0
 34 36  1  0  0  0  0
 34 38  1  0  0  0  0
 35 34  2  0  0  0  0
 36 38  1  0  0  0  0
 38 30  1  0  0  0  0
 38 37  1  0  0  0  0
 40 39  1  0  0  0  0
 41 48  1  0  0  0  0
 42 41  1  0  0  0  0
 42 44  1  0  0  0  0
 43 42  1  0  0  0  0
 44 47  1  0  0  0  0
 45 47  2  0  0  0  0
 47 46  1  0  0  0  0
 49 50  3  0  0  0  0
 50 48  1  0  0  0  0
M  END
>  <MODEL>
6

>  <REMARK>
 VINA RESULT:      -7.4      2.358      6.289
  Name = 
  15 active torsions:
  status: ('A' for Active; 'I' for Inactive)
    1  A    between atoms: O_3  and  C_20
    2  A    between atoms: O_3  and  C_39
    3  A    between atoms: C_4  and  C_38
    4  A    between atoms: C_4  and  N_40
    5  A    between atoms: C_6  and  C_36
    6  A    between atoms: C_10  and  C_29
    7  A    between atoms: N_12  and  C_18
    8  A    between atoms: N_12  and  C_50
    9  A    between atoms: C_14  and  C_46
   10  A    between atoms: C_15  and  C_44
   11  A    between atoms: C_15  and  C_46
   12  A    between atoms: C_18  and  C_22
   13  A    between atoms: C_33  and  C_43
   14  A    between atoms: C_36  and  C_38
   15  A    between atoms: C_39  and  C_46
                            x       y       z     vdW  Elec       q    Type
                         _______ _______ _______ _____ _____    ______ ____

>  <TORSDO>
F 15

$$$$
=
 OpenBabel11062414283D

 50 56  0  0  1  0  0  0  0  0999 V2000
  188.3460  176.6700  137.8680 N   0  0  0  0  0  0  0  0  0  0  0  0
  189.3790  177.2990  138.6440 C   0  0  0  0  0  0  0  0  0  0  0  0
  188.4360  175.2420  137.5460 C   0  0  0  0  0  2  0  0  0  0  0  0
  186.3010  175.5700  134.5940 O   0  0  0  0  0  0  0  0  0  0  0  0
  188.0760  174.9990  136.0800 C   0  0  2  0  0  3  0  0  0  0  0  0
  189.3430  178.5430  138.8610 O   0  0  0  0  0  0  0  0  0  0  0  0
  187.1860  177.4670  137.4420 C   0  0  0  0  0  2  0  0  0  0  0  0
  186.7900  175.7180  135.7080 C   0  0  0  0  0  0  0  0  0  0  0  0
  186.1260  176.6170  136.7290 C   0  0  2  0  0  3  0  0  0  0  0  0
  185.1470  177.4860  136.1020 N   0  0  0  0  0  2  0  0  0  0  0  0
  183.8260  177.0420  136.5090 C   0  0  0  0  0  2  0  0  0  0  0  0
  180.9840  175.7800  139.4100 C   0  0  0  0  0  3  0  0  0  0  0  0
  183.2440  178.0370  137.5010 C   0  0  1  0  0  3  0  0  0  0  0  0
  181.7570  178.2420  137.2190 C   0  0  0  0  0  2  0  0  0  0  0  0
  181.7500  177.9380  139.6800 C   0  0  0  0  0  3  0  0  0  0  0  0
  181.6560  175.9960  138.2850 C   0  0  0  0  0  3  0  0  0  0  0  0
  182.1900  177.3800  138.3860 C   0  0  2  0  0  0  0  0  0  0  0  0
  181.0430  176.9770  140.2690 C   0  0  0  0  0  3  0  0  0  0  0  0
  190.5140  176.5010  139.2110 C   0  0  0  0  0  2  0  0  0  0  0  0
  191.5070  177.4120  139.9180 C   0  0  0  0  0  2  0  0  0  0  0  0
  191.5850  177.1090  141.4120 C   0  0  0  0  0  2  0  0  0  0  0  0
  188.7720  177.1250  146.2530 C   0  0  1  0  0  3  0  0  0  0  0  0
  186.9380  178.6900  146.4860 O   0  0  0  0  0  0  0  0  0  0  0  0
  187.3790  177.4030  146.8190 C   0  0  0  0  0  2  0  0  0  0  0  0
  190.2820  177.2400  144.2250 C   0  0  1  0  0  3  0  0  0  0  0  0
  189.8040  176.6700  142.9080 C   0  0  1  0  0  3  0  0  0  0  0  0
  188.2940  176.8370  142.8460 C   0  0  0  0  0  2  0  0  0  0  0  0
  187.9320  177.8780  143.8810 C   0  0  2  0  0  3  0  0  0  0  0  0
  190.9830  178.2690  143.3630 C   0  0  0  0  0  2  0  0  0  0  0  0
  186.2910  178.6770  145.2230 C   0  0  1  0  0  3  0  0  0  0  0  0
  189.0730  177.8620  144.9230 C   0  0  1  0  0  3  0  0  0  0  0  0
  190.4610  177.7100  142.1220 N   0  0  0  0  0  0  0  0  0  0  0  0
  186.6630  177.5880  144.4060 O   0  0  0  0  0  0  0  0  0  0  0  0
  184.0490  178.7730  144.2230 C   0  0  0  0  0  0  0  0  0  0  0  0
  183.5970  178.2510  143.1760 O   0  0  0  0  0  0  0  0  0  0  0  0
  184.2050  179.9410  145.1510 O   0  0  0  0  0  0  0  0  0  0  0  0
  184.1790  178.0320  146.4210 O   0  0  0  0  0  1  0  0  0  0  0  0
  184.7800  178.7290  145.3810 C   0  0  2  0  0  0  0  0  0  0  0  0
  190.7580  176.5000  147.4510 O   0  0  0  0  0  1  0  0  0  0  0  0
  189.7910  177.5000  147.3200 C   0  0  0  0  0  2  0  0  0  0  0  0
  188.1030  173.4910  135.7760 C   0  0  1  0  0  3  0  0  0  0  0  0
  186.7250  172.8180  135.6010 C   0  0  1  0  0  3  0  0  0  0  0  0
  186.8050  171.5430  134.7690 C   0  0  0  0  0  1  0  0  0  0  0  0
  186.0990  172.5560  136.8610 O   0  0  0  0  0  0  0  0  0  0  0  0
  184.3240  173.7900  137.9680 O   0  0  0  0  0  1  0  0  0  0  0  0
  183.8800  172.0540  136.5440 O   0  0  0  0  0  0  0  0  0  0  0  0
  184.7390  172.7750  137.1150 C   0  0  0  0  0  0  0  0  0  0  0  0
  189.1170  173.1530  134.6780 C   0  0  0  0  0  2  0  0  0  0  0  0
  191.6270  172.9760  135.5960 C   0  0  0  0  0  3  0  0  0  0  0  0
  190.4970  173.0580  135.1790 C   0  0  0  0  0  0  0  0  0  0  0  0
  1  2  1  0  0  0  0
  2  6  2  0  0  0  0
  2 19  1  0  0  0  0
  3  1  1  0  0  0  0
  4  8  2  0  0  0  0
  5 41  1  1  0  0  0
  5  3  1  0  0  0  0
  7  1  1  0  0  0  0
  8  5  1  0  0  0  0
  8  9  1  0  0  0  0
  9 10  1  6  0  0  0
  9  7  1  0  0  0  0
 10 11  1  0  0  0  0
 12 18  1  0  0  0  0
 13 11  1  6  0  0  0
 13 17  1  0  0  0  0
 14 13  1  0  0  0  0
 14 17  1  0  0  0  0
 15 18  2  0  0  0  0
 16 17  1  0  0  0  0
 16 12  2  0  0  0  0
 17 15  1  0  0  0  0
 19 20  1  0  0  0  0
 20 21  1  0  0  0  0
 21 32  1  0  0  0  0
 22 24  1  0  0  0  0
 22 40  1  1  0  0  0
 23 24  1  0  0  0  0
 25 29  1  6  0  0  0
 25 31  1  0  0  0  0
 26 27  1  1  0  0  0
 26 25  1  0  0  0  0
 28 27  1  6  0  0  0
 28 33  1  0  0  0  0
 28 31  1  0  0  0  0
 30 33  1  1  0  0  0
 30 38  1  0  0  0  0
 30 23  1  0  0  0  0
 31 22  1  0  0  0  0
 32 26  1  0  0  0  0
 32 29  1  0  0  0  0
 34 36  1  0  0  0  0
 34 38  1  0  0  0  0
 35 34  2  0  0  0  0
 36 38  1  0  0  0  0
 38 37  1  0  0  0  0
 40 39  1  0  0  0  0
 42 41  1  0  0  0  0
 42 44  1  0  0  0  0
 43 42  1  0  0  0  0
 44 47  1  0  0  0  0
 46 47  2  0  0  0  0
 47 45  1  0  0  0  0
 48 50  1  0  0  0  0
 48 41  1  0  0  0  0
 50 49  3  0  0  0  0
M  END
>  <MODEL>
7

>  <REMARK>
 VINA RESULT:      -7.1      2.679      6.378
  Name = 
  15 active torsions:
  status: ('A' for Active; 'I' for Inactive)
    1  A    between atoms: O_3  and  C_20
    2  A    between atoms: O_3  and  C_39
    3  A    between atoms: C_4  and  C_38
    4  A    between atoms: C_4  and  N_40
    5  A    between atoms: C_6  and  C_36
    6  A    between atoms: C_10  and  C_29
    7  A    between atoms: N_12  and  C_18
    8  A    between atoms: N_12  and  C_50
    9  A    between atoms: C_14  and  C_46
   10  A    between atoms: C_15  and  C_44
   11  A    between atoms: C_15  and  C_46
   12  A    between atoms: C_18  and  C_22
   13  A    between atoms: C_33  and  C_43
   14  A    between atoms: C_36  and  C_38
   15  A    between atoms: C_39  and  C_46
                            x       y       z     vdW  Elec       q    Type
                         _______ _______ _______ _____ _____    ______ ____

>  <TORSDO>
F 15

$$$$
=
 OpenBabel11062414283D

 50 56  0  0  1  0  0  0  0  0999 V2000
  189.3730  177.2600  137.9610 N   0  0  0  0  0  0  0  0  0  0  0  0
  188.3130  177.7660  137.1320 C   0  0  0  0  0  0  0  0  0  0  0  0
  189.1850  177.1610  139.4120 C   0  0  0  0  0  2  0  0  0  0  0  0
  192.7780  177.3040  140.0860 O   0  0  0  0  0  0  0  0  0  0  0  0
  190.4230  177.6730  140.1490 C   0  0  2  0  0  3  0  0  0  0  0  0
  188.4960  177.9220  135.8920 O   0  0  0  0  0  0  0  0  0  0  0  0
  190.6200  176.8080  137.3300 C   0  0  0  0  0  2  0  0  0  0  0  0
  191.6920  177.0730  139.5670 C   0  0  0  0  0  0  0  0  0  0  0  0
  191.5940  176.1890  138.3410 C   0  0  2  0  0  3  0  0  0  0  0  0
  192.8940  176.0120  137.7200 N   0  0  0  0  0  2  0  0  0  0  0  0
  193.1410  174.5870  137.5940 C   0  0  0  0  0  2  0  0  0  0  0  0
  194.5890  171.0590  135.7100 C   0  0  0  0  0  3  0  0  0  0  0  0
  194.6360  174.3450  137.4550 C   0  0  1  0  0  3  0  0  0  0  0  0
  195.0530  173.1600  138.3240 C   0  0  0  0  0  2  0  0  0  0  0  0
  196.2040  172.6320  136.1910 C   0  0  0  0  0  3  0  0  0  0  0  0
  193.9350  171.9270  136.4740 C   0  0  0  0  0  3  0  0  0  0  0  0
  194.9190  172.9850  136.8250 C   0  0  2  0  0  0  0  0  0  0  0  0
  195.9860  171.4950  135.5360 C   0  0  0  0  0  3  0  0  0  0  0  0
  186.9770  178.1170  137.7140 C   0  0  0  0  0  2  0  0  0  0  0  0
  185.8550  177.5730  136.8420 C   0  0  0  0  0  2  0  0  0  0  0  0
  184.5070  177.6320  137.5570 C   0  0  0  0  0  2  0  0  0  0  0  0
  182.4070  179.1440  142.5210 C   0  0  1  0  0  3  0  0  0  0  0  0
  183.4610  178.2530  144.5100 O   0  0  0  0  0  0  0  0  0  0  0  0
  182.8310  179.3810  143.9700 C   0  0  0  0  0  2  0  0  0  0  0  0
  183.0930  178.2960  140.2370 C   0  0  1  0  0  3  0  0  0  0  0  0
  184.3800  178.7920  139.6150 C   0  0  1  0  0  3  0  0  0  0  0  0
  185.3620  179.0790  140.7390 C   0  0  0  0  0  2  0  0  0  0  0  0
  184.8470  178.3520  141.9610 C   0  0  2  0  0  3  0  0  0  0  0  0
  183.4240  176.9930  139.5400 C   0  0  0  0  0  2  0  0  0  0  0  0
  184.8510  178.2810  144.2240 C   0  0  1  0  0  3  0  0  0  0  0  0
  183.3280  178.1710  141.7420 C   0  0  1  0  0  3  0  0  0  0  0  0
  184.6780  177.5020  139.0000 N   0  0  0  0  0  0  0  0  0  0  0  0
  185.1850  179.0810  143.1120 O   0  0  0  0  0  0  0  0  0  0  0  0
  185.0240  178.5930  146.6560 C   0  0  0  0  0  0  0  0  0  0  0  0
  184.5560  177.9160  147.6020 O   0  0  0  0  0  0  0  0  0  0  0  0
  185.3040  179.9070  145.9870 O   0  0  0  0  0  0  0  0  0  0  0  0
  187.0220  178.4770  145.4750 O   0  0  0  0  0  1  0  0  0  0  0  0
  185.6520  178.7090  145.4440 C   0  0  2  0  0  0  0  0  0  0  0  0
  180.2370  179.2570  143.5460 O   0  0  0  0  0  1  0  0  0  0  0  0
  180.9720  178.6350  142.5340 C   0  0  0  0  0  2  0  0  0  0  0  0
  190.2420  177.4950  141.6670 C   0  0  1  0  0  3  0  0  0  0  0  0
  191.3770  178.0590  142.5470 C   0  0  1  0  0  3  0  0  0  0  0  0
  190.8720  179.0810  143.5600 C   0  0  0  0  0  1  0  0  0  0  0  0
  192.1050  177.0180  143.2060 O   0  0  0  0  0  0  0  0  0  0  0  0
  191.2420  176.3680  145.3820 O   0  0  0  0  0  1  0  0  0  0  0  0
  191.2050  174.9400  143.5940 O   0  0  0  0  0  0  0  0  0  0  0  0
  191.5130  176.0700  144.0530 C   0  0  0  0  0  0  0  0  0  0  0  0
  188.8330  177.8910  142.1200 C   0  0  0  0  0  2  0  0  0  0  0  0
  187.6320  176.0030  143.5930 C   0  0  0  0  0  3  0  0  0  0  0  0
  188.1750  176.8510  142.9270 C   0  0  0  0  0  0  0  0  0  0  0  0
  1  3  1  0  0  0  0
  2 19  1  0  0  0  0
  2  1  1  0  0  0  0
  3  5  1  0  0  0  0
  5 41  1  1  0  0  0
  6  2  2  0  0  0  0
  7  1  1  0  0  0  0
  7  9  1  0  0  0  0
  8  4  2  0  0  0  0
  8  5  1  0  0  0  0
  9 10  1  6  0  0  0
  9  8  1  0  0  0  0
 11 10  1  0  0  0  0
 12 16  2  0  0  0  0
 13 11  1  1  0  0  0
 13 14  1  0  0  0  0
 15 17  1  0  0  0  0
 16 17  1  0  0  0  0
 17 13  1  0  0  0  0
 17 14  1  0  0  0  0
 18 12  1  0  0  0  0
 18 15  2  0  0  0  0
 20 21  1  0  0  0  0
 20 19  1  0  0  0  0
 21 32  1  0  0  0  0
 22 40  1  1  0  0  0
 22 24  1  0  0  0  0
 24 23  1  0  0  0  0
 25 29  1  6  0  0  0
 25 31  1  0  0  0  0
 26 25  1  0  0  0  0
 26 27  1  1  0  0  0
 28 27  1  6  0  0  0
 28 33  1  0  0  0  0
 30 33  1  6  0  0  0
 30 23  1  0  0  0  0
 30 38  1  0  0  0  0
 31 28  1  0  0  0  0
 31 22  1  0  0  0  0
 32 29  1  0  0  0  0
 32 26  1  0  0  0  0
 34 35  2  0  0  0  0
 36 34  1  0  0  0  0
 38 37  1  0  0  0  0
 38 36  1  0  0  0  0
 38 34  1  0  0  0  0
 40 39  1  0  0  0  0
 41 48  1  0  0  0  0
 41 42  1  0  0  0  0
 42 44  1  0  0  0  0
 42 43  1  0  0  0  0
 44 47  1  0  0  0  0
 46 47  2  0  0  0  0
 47 45  1  0  0  0  0
 48 50  1  0  0  0  0
 50 49  3  0  0  0  0
M  END
>  <MODEL>
8

>  <REMARK>
 VINA RESULT:      -7.1      2.288      5.674
  Name = 
  15 active torsions:
  status: ('A' for Active; 'I' for Inactive)
    1  A    between atoms: O_3  and  C_20
    2  A    between atoms: O_3  and  C_39
    3  A    between atoms: C_4  and  C_38
    4  A    between atoms: C_4  and  N_40
    5  A    between atoms: C_6  and  C_36
    6  A    between atoms: C_10  and  C_29
    7  A    between atoms: N_12  and  C_18
    8  A    between atoms: N_12  and  C_50
    9  A    between atoms: C_14  and  C_46
   10  A    between atoms: C_15  and  C_44
   11  A    between atoms: C_15  and  C_46
   12  A    between atoms: C_18  and  C_22
   13  A    between atoms: C_33  and  C_43
   14  A    between atoms: C_36  and  C_38
   15  A    between atoms: C_39  and  C_46
                            x       y       z     vdW  Elec       q    Type
                         _______ _______ _______ _____ _____    ______ ____

>  <TORSDO>
F 15

$$$$
=
 OpenBabel11062414283D

 50 56  0  0  1  0  0  0  0  0999 V2000
  192.0090  175.0260  137.2820 N   0  0  0  0  0  0  0  0  0  0  0  0
  191.8440  176.3390  137.8440 C   0  0  0  0  0  0  0  0  0  0  0  0
  193.1500  174.1950  137.6810 C   0  0  0  0  0  2  0  0  0  0  0  0
  193.0580  172.2350  134.5950 O   0  0  0  0  0  0  0  0  0  0  0  0
  193.7840  173.5310  136.4590 C   0  0  2  0  0  3  0  0  0  0  0  0
  190.9050  177.0850  137.4480 O   0  0  0  0  0  0  0  0  0  0  0  0
  191.0010  174.5190  136.3400 C   0  0  0  0  0  2  0  0  0  0  0  0
  192.7270  172.8870  135.5780 C   0  0  0  0  0  0  0  0  0  0  0  0
  191.2660  173.0640  135.9310 C   0  0  2  0  0  3  0  0  0  0  0  0
  190.4120  172.7090  134.8120 N   0  0  0  0  0  2  0  0  0  0  0  0
  189.1080  173.3100  135.0330 C   0  0  0  0  0  2  0  0  0  0  0  0
  185.4700  174.4620  136.9110 C   0  0  0  0  0  3  0  0  0  0  0  0
  188.1540  172.2580  135.5750 C   0  0  1  0  0  3  0  0  0  0  0  0
  188.1010  172.3400  137.0990 C   0  0  0  0  0  2  0  0  0  0  0  0
  185.6900  172.1980  136.5340 C   0  0  0  0  0  3  0  0  0  0  0  0
  186.7410  174.3480  136.5430 C   0  0  0  0  0  3  0  0  0  0  0  0
  186.9620  172.9020  136.2750 C   0  0  2  0  0  0  0  0  0  0  0  0
  184.8240  173.1370  136.9050 C   0  0  0  0  0  3  0  0  0  0  0  0
  192.7720  176.8480  138.9040 C   0  0  0  0  0  2  0  0  0  0  0  0
  191.9880  177.5200  140.0220 C   0  0  0  0  0  2  0  0  0  0  0  0
  190.9170  176.5940  140.5950 C   0  0  0  0  0  2  0  0  0  0  0  0
  190.2850  176.5300  146.1570 C   0  0  1  0  0  3  0  0  0  0  0  0
  188.8350  178.1970  147.1460 O   0  0  0  0  0  0  0  0  0  0  0  0
  189.2630  176.8670  147.2420 C   0  0  0  0  0  2  0  0  0  0  0  0
  190.8630  176.6550  143.6960 C   0  0  1  0  0  3  0  0  0  0  0  0
  189.8530  176.1930  142.6700 C   0  0  1  0  0  3  0  0  0  0  0  0
  188.4640  176.4640  143.2250 C   0  0  0  0  0  2  0  0  0  0  0  0
  188.6340  177.4670  144.3440 C   0  0  2  0  0  3  0  0  0  0  0  0
  191.2450  177.6820  142.6500 C   0  0  0  0  0  2  0  0  0  0  0  0
  187.7390  178.2980  146.2510 C   0  0  1  0  0  3  0  0  0  0  0  0
  190.0900  177.3170  144.8370 C   0  0  1  0  0  3  0  0  0  0  0  0
  190.2250  177.2290  141.7110 N   0  0  0  0  0  0  0  0  0  0  0  0
  187.6610  177.2340  145.3280 O   0  0  0  0  0  0  0  0  0  0  0  0
  185.3360  178.8100  146.2630 C   0  0  0  0  0  0  0  0  0  0  0  0
  184.4460  178.5790  145.4100 O   0  0  0  0  0  0  0  0  0  0  0  0
  186.0200  179.7190  147.2410 O   0  0  0  0  0  0  0  0  0  0  0  0
  186.1490  177.5810  148.0600 O   0  0  0  0  0  1  0  0  0  0  0  0
  186.4270  178.4420  147.0060 C   0  0  2  0  0  0  0  0  0  0  0  0
  191.5950  177.1010  148.0880 O   0  0  0  0  0  1  0  0  0  0  0  0
  191.6730  176.7750  146.7320 C   0  0  0  0  0  2  0  0  0  0  0  0
  194.9320  172.6060  136.9000 C   0  0  1  0  0  3  0  0  0  0  0  0
  196.2670  172.7910  136.1490 C   0  0  1  0  0  3  0  0  0  0  0  0
  196.4580  171.7590  135.0440 C   0  0  0  0  0  1  0  0  0  0  0  0
  196.4030  174.1160  135.6260 O   0  0  0  0  0  0  0  0  0  0  0  0
  198.8000  174.3700  135.3300 O   0  0  0  0  0  0  0  0  0  0  0  0
  197.5050  176.0530  136.1830 O   0  0  0  0  0  1  0  0  0  0  0  0
  197.5730  174.8800  135.7340 C   0  0  0  0  0  0  0  0  0  0  0  0
  195.0650  172.5570  138.4260 C   0  0  0  0  0  2  0  0  0  0  0  0
  196.6040  174.5160  139.4100 C   0  0  0  0  0  3  0  0  0  0  0  0
  195.9140  173.6310  138.9640 C   0  0  0  0  0  0  0  0  0  0  0  0
  1  3  1  0  0  0  0
  1  2  1  0  0  0  0
  2 19  1  0  0  0  0
  4  8  2  0  0  0  0
  5 41  1  1  0  0  0
  5  3  1  0  0  0  0
  6  2  2  0  0  0  0
  7  1  1  0  0  0  0
  8  9  1  0  0  0  0
  8  5  1  0  0  0  0
  9 10  1  6  0  0  0
  9  7  1  0  0  0  0
 10 11  1  0  0  0  0
 13 11  1  6  0  0  0
 13 17  1  0  0  0  0
 13 14  1  0  0  0  0
 15 18  2  0  0  0  0
 16 12  2  0  0  0  0
 17 15  1  0  0  0  0
 17 16  1  0  0  0  0
 17 14  1  0  0  0  0
 18 12  1  0  0  0  0
 19 20  1  0  0  0  0
 20 21  1  0  0  0  0
 21 32  1  0  0  0  0
 22 40  1  1  0  0  0
 22 24  1  0  0  0  0
 23 24  1  0  0  0  0
 25 29  1  6  0  0  0
 25 31  1  0  0  0  0
 26 27  1  1  0  0  0
 26 25  1  0  0  0  0
 28 27  1  6  0  0  0
 28 31  1  0  0  0  0
 28 33  1  0  0  0  0
 30 33  1  1  0  0  0
 30 38  1  0  0  0  0
 30 23  1  0  0  0  0
 31 22  1  0  0  0  0
 32 29  1  0  0  0  0
 32 26  1  0  0  0  0
 34 38  1  0  0  0  0
 34 36  1  0  0  0  0
 35 34  2  0  0  0  0
 38 36  1  0  0  0  0
 38 37  1  0  0  0  0
 40 39  1  0  0  0  0
 41 48  1  0  0  0  0
 42 41  1  0  0  0  0
 43 42  1  0  0  0  0
 44 47  1  0  0  0  0
 44 42  1  0  0  0  0
 45 47  2  0  0  0  0
 47 46  1  0  0  0  0
 48 50  1  0  0  0  0
 50 49  3  0  0  0  0
M  END
>  <MODEL>
9

>  <REMARK>
 VINA RESULT:      -6.9      2.323      6.325
  Name = 
  15 active torsions:
  status: ('A' for Active; 'I' for Inactive)
    1  A    between atoms: O_3  and  C_20
    2  A    between atoms: O_3  and  C_39
    3  A    between atoms: C_4  and  C_38
    4  A    between atoms: C_4  and  N_40
    5  A    between atoms: C_6  and  C_36
    6  A    between atoms: C_10  and  C_29
    7  A    between atoms: N_12  and  C_18
    8  A    between atoms: N_12  and  C_50
    9  A    between atoms: C_14  and  C_46
   10  A    between atoms: C_15  and  C_44
   11  A    between atoms: C_15  and  C_46
   12  A    between atoms: C_18  and  C_22
   13  A    between atoms: C_33  and  C_43
   14  A    between atoms: C_36  and  C_38
   15  A    between atoms: C_39  and  C_46
                            x       y       z     vdW  Elec       q    Type
                         _______ _______ _______ _____ _____    ______ ____

>  <TORSDO>
F 15

$$$$
