=
 OpenBabel11062412533D

 50 52  0  0  1  0  0  0  0  0999 V2000
  189.6970  176.8120  139.2120 O   0  0  0  0  0  0  0  0  0  0  0  0
  190.2230  177.2850  140.4170 C   0  0  0  0  0  2  0  0  0  0  0  0
  189.1470  177.2660  141.4940 C   0  0  1  0  0  3  0  0  0  0  0  0
  189.7480  177.5530  142.8730 C   0  0  0  0  0  2  0  0  0  0  0  0
  190.7450  176.4810  143.2920 C   0  0  0  0  0  2  0  0  0  0  0  0
  190.3100  175.2190  142.8850 O   0  0  0  0  0  1  0  0  0  0  0  0
  188.0270  178.2430  141.1430 C   0  0  0  0  0  2  0  0  0  0  0  0
  187.0060  178.3850  142.2690 C   0  0  0  0  0  2  0  0  0  0  0  0
  184.6900  178.4190  141.3590 C   0  0  1  0  0  3  0  0  0  0  0  0
  185.8670  179.2750  141.7960 C   0  0  1  0  0  3  0  0  0  0  0  0
  184.6000  179.2050  142.6550 C   0  0  2  0  0  3  0  0  0  0  0  0
  183.9190  179.1100  140.2780 C   0  0  0  0  0  0  0  0  0  0  0  0
  184.4810  179.9180  139.5540 O   0  0  0  0  0  0  0  0  0  0  0  0
  182.4490  178.8610  140.1260 C   0  0  0  0  0  3  0  0  0  0  0  0
  181.8320  179.8570  139.1650 C   0  0  0  0  0  1  0  0  0  0  0  0
  182.1960  177.4550  139.6400 C   0  0  0  0  0  1  0  0  0  0  0  0
  184.6550  178.2330  143.8280 C   0  0  0  0  0  2  0  0  0  0  0  0
  184.3060  178.9570  145.1140 C   0  0  0  0  0  2  0  0  0  0  0  0
  185.1160  178.3710  146.2620 C   0  0  0  0  0  2  0  0  0  0  0  0
  186.2700  177.5400  145.7310 C   0  0  0  0  0  2  0  0  0  0  0  0
  187.6000  178.1440  146.1560 C   0  0  0  0  0  2  0  0  0  0  0  0
  188.6650  177.0580  146.1900 C   0  0  0  0  0  2  0  0  0  0  0  0
  190.9110  176.9040  147.3270 C   0  0  0  0  0  1  0  0  0  0  0  0
  189.0700  178.2010  148.4060 C   0  0  0  0  0  1  0  0  0  0  0  0
  189.4090  177.0080  147.5280 C   0  0  0  0  0  3  0  0  0  0  0  0
  190.1880  177.6860  138.2400 C   0  0  1  0  0  3  0  0  0  0  0  0
  191.0010  174.7250  136.4020 C   0  0  2  0  0  3  0  0  0  0  0  0
  190.9740  176.9120  137.1820 C   0  0  2  0  0  3  0  0  0  0  0  0
  192.2250  174.8810  137.1850 N   0  0  0  0  0  0  0  0  0  0  0  0
  190.1380  175.8850  136.5880 N   0  0  0  0  0  2  0  0  0  0  0  0
  192.1500  176.1920  137.8010 C   0  0  0  0  0  2  0  0  0  0  0  0
  190.2650  173.4740  136.8510 C   0  0  0  0  0  2  0  0  0  0  0  0
  188.9040  171.9420  135.4870 C   0  0  0  0  0  2  0  0  0  0  0  0
  188.9630  173.3300  136.0860 C   0  0  1  0  0  3  0  0  0  0  0  0
  188.1020  172.2630  136.7330 C   0  0  1  0  0  3  0  0  0  0  0  0
  186.7700  172.4770  136.3790 O   0  0  0  0  0  0  0  0  0  0  0  0
  186.2920  173.3910  137.3180 C   0  0  0  0  0  2  0  0  0  0  0  0
  184.4090  173.6290  135.7010 O   0  0  0  0  0  0  0  0  0  0  0  0
  184.8800  173.7370  137.0060 C   0  0  0  0  0  0  0  0  0  0  0  0
  184.1030  174.0910  137.9320 O   0  0  0  0  0  1  0  0  0  0  0  0
  193.3360  174.9250  136.2400 C   0  0  0  0  0  2  0  0  0  0  0  0
  194.3870  173.8800  136.6050 C   0  0  2  0  0  3  0  0  0  0  0  0
  194.5500  173.8310  138.1110 C   0  0  0  0  0  2  0  0  0  0  0  0
  195.3230  174.9100  138.5410 O   0  0  0  0  0  1  0  0  0  0  0  0
  195.7160  174.2460  135.9580 C   0  0  0  0  0  2  0  0  0  0  0  0
  195.5950  175.5740  135.2380 C   0  0  0  0  0  2  0  0  0  0  0  0
  196.6150  176.4260  135.6590 O   0  0  0  0  0  1  0  0  0  0  0  0
  189.0160  178.4170  137.5980 C   0  0  0  0  0  2  0  0  0  0  0  0
  186.8760  178.6320  137.6520 O   0  0  0  0  0  1  0  0  0  0  0  0
  187.8240  177.7430  137.8780 O   0  0  0  0  0  0  0  0  0  0  0  0
  1  2  1  0  0  0  0
  3  2  1  6  0  0  0
  3  4  1  0  0  0  0
  4  5  1  0  0  0  0
  6  5  1  0  0  0  0
  7  3  1  0  0  0  0
  7  8  1  0  0  0  0
  9 12  1  6  0  0  0
  9 10  1  0  0  0  0
  9 11  1  0  0  0  0
 10  8  1  1  0  0  0
 10 11  1  0  0  0  0
 11 17  1  1  0  0  0
 13 12  2  0  0  0  0
 14 12  1  0  0  0  0
 15 14  1  0  0  0  0
 16 14  1  0  0  0  0
 17 18  1  0  0  0  0
 18 19  1  0  0  0  0
 20 21  1  0  0  0  0
 20 19  1  0  0  0  0
 21 22  1  0  0  0  0
 22 25  1  0  0  0  0
 23 25  1  0  0  0  0
 25 24  1  0  0  0  0
 26 48  1  6  0  0  0
 26  1  1  0  0  0  0
 27 30  1  0  0  0  0
 27 32  1  1  0  0  0
 27 29  1  0  0  0  0
 28 31  1  0  0  0  0
 28 26  1  1  0  0  0
 29 31  1  0  0  0  0
 30 28  1  0  0  0  0
 33 34  1  0  0  0  0
 33 35  1  0  0  0  0
 34 35  1  0  0  0  0
 34 32  1  1  0  0  0
 35 36  1  6  0  0  0
 36 37  1  0  0  0  0
 38 39  2  0  0  0  0
 39 37  1  0  0  0  0
 39 40  1  0  0  0  0
 41 42  1  0  0  0  0
 41 29  1  0  0  0  0
 42 45  1  6  0  0  0
 42 43  1  0  0  0  0
 43 44  1  0  0  0  0
 46 47  1  0  0  0  0
 46 45  1  0  0  0  0
 48 50  1  0  0  0  0
 49 50  1  0  0  0  0
M  END
>  <MODEL>
1

>  <REMARK>
 VINA RESULT:      -6.5      0.000      0.000
  Name = 
  30 active torsions:
  status: ('A' for Active; 'I' for Inactive)
    1  A    between atoms: C_1  and  C_14
    2  A    between atoms: C_1  and  C_48
    3  A    between atoms: C_2  and  C_4
    4  A    between atoms: C_4  and  C_17
    5  A    between atoms: C_6  and  C_44
    6  A    between atoms: C_7  and  C_22
    7  A    between atoms: C_7  and  C_49
    8  A    between atoms: C_10  and  C_26
    9  A    between atoms: C_10  and  N_32
   10  A    between atoms: C_11  and  C_22
   11  A    between atoms: C_11  and  C_47
   12  A    between atoms: C_12  and  C_50
   13  A    between atoms: C_13  and  C_25
   14  A    between atoms: C_13  and  O_33
   15  A    between atoms: O_15  and  C_25
   16  A    between atoms: O_15  and  C_36
   17  A    between atoms: C_16  and  C_44
   18  A    between atoms: O_19  and  C_23
   19  A    between atoms: O_19  and  C_50
   20  A    between atoms: C_20  and  C_28
   21  A    between atoms: C_21  and  C_31
   22  A    between atoms: C_21  and  C_49
   23  A    between atoms: C_24  and  C_25
   24  A    between atoms: C_26  and  C_29
   25  A    between atoms: C_26  and  C_34
   26  A    between atoms: C_27  and  C_28
   27  A    between atoms: C_27  and  C_48
   28  A    between atoms: C_29  and  C_41
   29  A    between atoms: C_31  and  C_43
   30  A    between atoms: C_36  and  C_48
                            x       y       z     vdW  Elec       q    Type
                         _______ _______ _______ _____ _____    ______ ____

>  <TORSDO>
F 30

$$$$
=
 OpenBabel11062412533D

 50 52  0  0  1  0  0  0  0  0999 V2000
  182.1140  177.9130  139.7660 O   0  0  0  0  0  0  0  0  0  0  0  0
  182.9240  177.9720  140.9040 C   0  0  0  0  0  2  0  0  0  0  0  0
  182.2620  178.8370  141.9660 C   0  0  1  0  0  3  0  0  0  0  0  0
  180.7630  178.5400  142.0570 C   0  0  0  0  0  2  0  0  0  0  0  0
  180.0820  179.3710  143.1370 C   0  0  0  0  0  2  0  0  0  0  0  0
  180.2440  180.7340  142.8840 O   0  0  0  0  0  1  0  0  0  0  0  0
  182.9640  178.6600  143.3100 C   0  0  0  0  0  2  0  0  0  0  0  0
  184.4170  179.1270  143.2730 C   0  0  0  0  0  2  0  0  0  0  0  0
  186.7090  178.4210  143.9360 C   0  0  1  0  0  3  0  0  0  0  0  0
  185.3260  177.9360  143.5310 C   0  0  1  0  0  3  0  0  0  0  0  0
  185.8030  177.7960  144.9810 C   0  0  2  0  0  3  0  0  0  0  0  0
  187.7510  177.4380  143.4990 C   0  0  0  0  0  0  0  0  0  0  0  0
  187.6220  176.2550  143.7740 O   0  0  0  0  0  0  0  0  0  0  0  0
  188.9790  177.9140  142.7850 C   0  0  0  0  0  3  0  0  0  0  0  0
  189.9620  178.5330  143.7600 C   0  0  0  0  0  1  0  0  0  0  0  0
  189.6390  176.7760  142.0460 C   0  0  0  0  0  1  0  0  0  0  0  0
  185.3260  178.8840  145.9360 C   0  0  0  0  0  2  0  0  0  0  0  0
  186.4020  179.1750  146.9650 C   0  0  0  0  0  2  0  0  0  0  0  0
  186.8250  177.8770  147.6380 C   0  0  0  0  0  2  0  0  0  0  0  0
  188.2710  177.9580  148.0940 C   0  0  0  0  0  2  0  0  0  0  0  0
  189.1800  177.2390  147.1080 C   0  0  0  0  0  2  0  0  0  0  0  0
  190.6030  177.2210  147.6470 C   0  0  0  0  0  2  0  0  0  0  0  0
  191.8770  176.2660  145.6910 C   0  0  0  0  0  1  0  0  0  0  0  0
  192.6000  175.7180  148.0180 C   0  0  0  0  0  1  0  0  0  0  0  0
  191.4150  176.0340  147.1200 C   0  0  0  0  0  3  0  0  0  0  0  0
  182.9580  178.2590  138.7080 C   0  0  1  0  0  3  0  0  0  0  0  0
  186.2160  177.2390  137.6350 C   0  0  2  0  0  3  0  0  0  0  0  0
  184.1010  177.2500  138.5920 C   0  0  2  0  0  3  0  0  0  0  0  0
  185.3900  176.3870  136.7810 N   0  0  0  0  0  0  0  0  0  0  0  0
  185.3780  177.9380  138.6020 N   0  0  0  0  0  2  0  0  0  0  0  0
  184.0330  176.5050  137.2790 C   0  0  0  0  0  2  0  0  0  0  0  0
  186.9530  178.2560  136.7810 C   0  0  0  0  0  2  0  0  0  0  0  0
  189.1070  179.3820  137.1750 C   0  0  0  0  0  2  0  0  0  0  0  0
  188.4520  178.0460  136.8950 C   0  0  1  0  0  3  0  0  0  0  0  0
  188.9110  178.3840  138.2990 C   0  0  1  0  0  3  0  0  0  0  0  0
  190.1200  177.7330  138.5510 O   0  0  0  0  0  0  0  0  0  0  0  0
  189.8210  176.3740  138.4590 C   0  0  0  0  0  2  0  0  0  0  0  0
  190.9590  174.2480  137.8250 O   0  0  0  0  0  0  0  0  0  0  0  0
  191.0310  175.6220  138.0350 C   0  0  0  0  0  0  0  0  0  0  0  0
  192.1110  176.2370  137.8290 O   0  0  0  0  0  1  0  0  0  0  0  0
  185.8070  175.0090  137.0180 C   0  0  0  0  0  2  0  0  0  0  0  0
  185.4830  174.1400  135.8060 C   0  0  2  0  0  3  0  0  0  0  0  0
  184.7110  172.9150  136.2530 C   0  0  0  0  0  2  0  0  0  0  0  0
  184.6400  172.8790  137.6450 O   0  0  0  0  0  1  0  0  0  0  0  0
  186.7770  173.7090  135.1270 C   0  0  0  0  0  2  0  0  0  0  0  0
  187.8740  173.5390  136.1600 C   0  0  0  0  0  2  0  0  0  0  0  0
  188.6110  172.3920  135.8720 O   0  0  0  0  0  1  0  0  0  0  0  0
  182.1450  178.2880  137.4210 C   0  0  0  0  0  2  0  0  0  0  0  0
  181.2460  180.0740  138.2170 O   0  0  0  0  0  1  0  0  0  0  0  0
  180.9240  178.9310  137.6420 O   0  0  0  0  0  0  0  0  0  0  0  0
  1  2  1  0  0  0  0
  3  2  1  6  0  0  0
  3  4  1  0  0  0  0
  3  7  1  0  0  0  0
  4  5  1  0  0  0  0
  6  5  1  0  0  0  0
  8  7  1  0  0  0  0
  9 12  1  6  0  0  0
  9 11  1  0  0  0  0
 10  8  1  1  0  0  0
 10  9  1  0  0  0  0
 10 11  1  0  0  0  0
 11 17  1  1  0  0  0
 12 13  2  0  0  0  0
 14 12  1  0  0  0  0
 14 15  1  0  0  0  0
 16 14  1  0  0  0  0
 17 18  1  0  0  0  0
 18 19  1  0  0  0  0
 19 20  1  0  0  0  0
 21 22  1  0  0  0  0
 21 20  1  0  0  0  0
 23 25  1  0  0  0  0
 25 22  1  0  0  0  0
 25 24  1  0  0  0  0
 26 48  1  6  0  0  0
 26  1  1  0  0  0  0
 27 32  1  6  0  0  0
 27 30  1  0  0  0  0
 28 30  1  0  0  0  0
 28 26  1  6  0  0  0
 29 41  1  0  0  0  0
 29 31  1  0  0  0  0
 29 27  1  0  0  0  0
 31 28  1  0  0  0  0
 33 35  1  0  0  0  0
 34 32  1  1  0  0  0
 34 33  1  0  0  0  0
 34 35  1  0  0  0  0
 35 36  1  6  0  0  0
 37 36  1  0  0  0  0
 38 39  2  0  0  0  0
 39 37  1  0  0  0  0
 40 39  1  0  0  0  0
 42 45  1  1  0  0  0
 42 43  1  0  0  0  0
 42 41  1  0  0  0  0
 43 44  1  0  0  0  0
 45 46  1  0  0  0  0
 47 46  1  0  0  0  0
 48 50  1  0  0  0  0
 50 49  1  0  0  0  0
M  END
>  <MODEL>
2

>  <REMARK>
 VINA RESULT:      -6.0      2.549      6.742
  Name = 
  30 active torsions:
  status: ('A' for Active; 'I' for Inactive)
    1  A    between atoms: C_1  and  C_14
    2  A    between atoms: C_1  and  C_48
    3  A    between atoms: C_2  and  C_4
    4  A    between atoms: C_4  and  C_17
    5  A    between atoms: C_6  and  C_44
    6  A    between atoms: C_7  and  C_22
    7  A    between atoms: C_7  and  C_49
    8  A    between atoms: C_10  and  C_26
    9  A    between atoms: C_10  and  N_32
   10  A    between atoms: C_11  and  C_22
   11  A    between atoms: C_11  and  C_47
   12  A    between atoms: C_12  and  C_50
   13  A    between atoms: C_13  and  C_25
   14  A    between atoms: C_13  and  O_33
   15  A    between atoms: O_15  and  C_25
   16  A    between atoms: O_15  and  C_36
   17  A    between atoms: C_16  and  C_44
   18  A    between atoms: O_19  and  C_23
   19  A    between atoms: O_19  and  C_50
   20  A    between atoms: C_20  and  C_28
   21  A    between atoms: C_21  and  C_31
   22  A    between atoms: C_21  and  C_49
   23  A    between atoms: C_24  and  C_25
   24  A    between atoms: C_26  and  C_29
   25  A    between atoms: C_26  and  C_34
   26  A    between atoms: C_27  and  C_28
   27  A    between atoms: C_27  and  C_48
   28  A    between atoms: C_29  and  C_41
   29  A    between atoms: C_31  and  C_43
   30  A    between atoms: C_36  and  C_48
                            x       y       z     vdW  Elec       q    Type
                         _______ _______ _______ _____ _____    ______ ____

>  <TORSDO>
F 30

$$$$
=
 OpenBabel11062412533D

 50 52  0  0  1  0  0  0  0  0999 V2000
  190.3380  177.3790  139.6730 O   0  0  0  0  0  0  0  0  0  0  0  0
  190.5790  176.4920  138.6210 C   0  0  0  0  0  2  0  0  0  0  0  0
  189.5000  176.6430  137.5580 C   0  0  1  0  0  3  0  0  0  0  0  0
  189.5270  175.4660  136.5800 C   0  0  0  0  0  2  0  0  0  0  0  0
  189.5000  175.9300  135.1300 C   0  0  0  0  0  2  0  0  0  0  0  0
  189.6370  177.3180  135.0550 O   0  0  0  0  0  1  0  0  0  0  0  0
  188.1310  176.8150  138.2110 C   0  0  0  0  0  2  0  0  0  0  0  0
  187.3670  178.0120  137.6530 C   0  0  0  0  0  2  0  0  0  0  0  0
  185.4080  176.4810  137.7800 C   0  0  1  0  0  3  0  0  0  0  0  0
  186.1270  177.5140  136.9270 C   0  0  1  0  0  3  0  0  0  0  0  0
  184.8000  177.8620  137.6110 C   0  0  2  0  0  3  0  0  0  0  0  0
  184.6990  175.4920  136.9080 C   0  0  0  0  0  0  0  0  0  0  0  0
  184.4300  175.7850  135.7530 O   0  0  0  0  0  0  0  0  0  0  0  0
  184.2640  174.1730  137.4700 C   0  0  0  0  0  3  0  0  0  0  0  0
  183.1830  173.5520  136.6070 C   0  0  0  0  0  1  0  0  0  0  0  0
  185.4360  173.2290  137.5810 C   0  0  0  0  0  1  0  0  0  0  0  0
  184.9200  178.6200  138.9280 C   0  0  0  0  0  2  0  0  0  0  0  0
  183.5430  178.8320  139.5280 C   0  0  0  0  0  2  0  0  0  0  0  0
  183.1190  177.5800  140.2830 C   0  0  0  0  0  2  0  0  0  0  0  0
  181.9480  176.9090  139.5880 C   0  0  0  0  0  2  0  0  0  0  0  0
  180.6410  177.5820  139.9800 C   0  0  0  0  0  2  0  0  0  0  0  0
  180.7250  178.0570  141.4230 C   0  0  0  0  0  2  0  0  0  0  0  0
  179.2240  179.9590  140.7210 C   0  0  0  0  0  1  0  0  0  0  0  0
  180.2010  179.9430  143.0200 C   0  0  0  0  0  1  0  0  0  0  0  0
  180.4180  179.5510  141.5680 C   0  0  0  0  0  3  0  0  0  0  0  0
  191.5780  177.5420  140.2960 C   0  0  1  0  0  3  0  0  0  0  0  0
  189.8180  176.4740  143.2230 C   0  0  2  0  0  3  0  0  0  0  0  0
  191.5100  177.0500  141.7420 C   0  0  2  0  0  3  0  0  0  0  0  0
  190.3370  177.7570  143.6940 N   0  0  0  0  0  0  0  0  0  0  0  0
  190.3780  176.1580  141.9150 N   0  0  0  0  0  2  0  0  0  0  0  0
  191.2900  178.2010  142.6960 C   0  0  0  0  0  2  0  0  0  0  0  0
  188.3040  176.5450  143.1190 C   0  0  0  0  0  2  0  0  0  0  0  0
  187.5020  178.3010  141.5910 C   0  0  0  0  0  2  0  0  0  0  0  0
  187.8530  177.9910  143.0300 C   0  0  1  0  0  3  0  0  0  0  0  0
  186.4000  178.0500  142.6020 C   0  0  1  0  0  3  0  0  0  0  0  0
  185.8580  179.2720  143.0020 O   0  0  0  0  0  0  0  0  0  0  0  0
  184.5260  178.9910  143.3060 C   0  0  0  0  0  2  0  0  0  0  0  0
  185.2300  177.8350  145.4000 O   0  0  0  0  0  0  0  0  0  0  0  0
  184.3870  178.7420  144.7650 C   0  0  0  0  0  0  0  0  0  0  0  0
  183.5310  179.3830  145.4310 O   0  0  0  0  0  1  0  0  0  0  0  0
  191.0960  177.4920  144.9120 C   0  0  0  0  0  2  0  0  0  0  0  0
  190.2070  176.8280  145.9590 C   0  0  2  0  0  3  0  0  0  0  0  0
  189.1230  177.7960  146.3900 C   0  0  0  0  0  2  0  0  0  0  0  0
  187.9670  177.0940  146.7290 O   0  0  0  0  0  1  0  0  0  0  0  0
  191.0490  176.4330  147.1660 C   0  0  0  0  0  2  0  0  0  0  0  0
  192.3580  175.8210  146.7080 C   0  0  0  0  0  2  0  0  0  0  0  0
  192.1030  174.6280  146.0330 O   0  0  0  0  0  1  0  0  0  0  0  0
  192.6260  176.7580  139.5190 C   0  0  0  0  0  2  0  0  0  0  0  0
  194.6600  176.0600  139.5680 O   0  0  0  0  0  1  0  0  0  0  0  0
  193.9000  177.0380  140.0200 O   0  0  0  0  0  0  0  0  0  0  0  0
  1 26  1  0  0  0  0
  2  1  1  0  0  0  0
  3  4  1  6  0  0  0
  3  7  1  0  0  0  0
  3  2  1  0  0  0  0
  5  4  1  0  0  0  0
  6  5  1  0  0  0  0
  8  7  1  0  0  0  0
  9 12  1  6  0  0  0
 10 11  1  0  0  0  0
 10  8  1  1  0  0  0
 10  9  1  0  0  0  0
 11  9  1  0  0  0  0
 11 17  1  1  0  0  0
 12 14  1  0  0  0  0
 13 12  2  0  0  0  0
 14 16  1  0  0  0  0
 15 14  1  0  0  0  0
 17 18  1  0  0  0  0
 18 19  1  0  0  0  0
 20 21  1  0  0  0  0
 20 19  1  0  0  0  0
 21 22  1  0  0  0  0
 22 25  1  0  0  0  0
 23 25  1  0  0  0  0
 25 24  1  0  0  0  0
 26 48  1  6  0  0  0
 27 32  1  6  0  0  0
 27 29  1  0  0  0  0
 28 26  1  6  0  0  0
 28 30  1  0  0  0  0
 28 31  1  0  0  0  0
 29 41  1  0  0  0  0
 30 27  1  0  0  0  0
 31 29  1  0  0  0  0
 33 35  1  0  0  0  0
 33 34  1  0  0  0  0
 34 32  1  6  0  0  0
 35 36  1  1  0  0  0
 35 34  1  0  0  0  0
 36 37  1  0  0  0  0
 37 39  1  0  0  0  0
 39 38  2  0  0  0  0
 39 40  1  0  0  0  0
 42 41  1  6  0  0  0
 42 43  1  0  0  0  0
 42 45  1  0  0  0  0
 43 44  1  0  0  0  0
 46 45  1  0  0  0  0
 47 46  1  0  0  0  0
 48 50  1  0  0  0  0
 49 50  1  0  0  0  0
M  END
>  <MODEL>
3

>  <REMARK>
 VINA RESULT:      -5.6      2.696      7.910
  Name = 
  30 active torsions:
  status: ('A' for Active; 'I' for Inactive)
    1  A    between atoms: C_1  and  C_14
    2  A    between atoms: C_1  and  C_48
    3  A    between atoms: C_2  and  C_4
    4  A    between atoms: C_4  and  C_17
    5  A    between atoms: C_6  and  C_44
    6  A    between atoms: C_7  and  C_22
    7  A    between atoms: C_7  and  C_49
    8  A    between atoms: C_10  and  C_26
    9  A    between atoms: C_10  and  N_32
   10  A    between atoms: C_11  and  C_22
   11  A    between atoms: C_11  and  C_47
   12  A    between atoms: C_12  and  C_50
   13  A    between atoms: C_13  and  C_25
   14  A    between atoms: C_13  and  O_33
   15  A    between atoms: O_15  and  C_25
   16  A    between atoms: O_15  and  C_36
   17  A    between atoms: C_16  and  C_44
   18  A    between atoms: O_19  and  C_23
   19  A    between atoms: O_19  and  C_50
   20  A    between atoms: C_20  and  C_28
   21  A    between atoms: C_21  and  C_31
   22  A    between atoms: C_21  and  C_49
   23  A    between atoms: C_24  and  C_25
   24  A    between atoms: C_26  and  C_29
   25  A    between atoms: C_26  and  C_34
   26  A    between atoms: C_27  and  C_28
   27  A    between atoms: C_27  and  C_48
   28  A    between atoms: C_29  and  C_41
   29  A    between atoms: C_31  and  C_43
   30  A    between atoms: C_36  and  C_48
                            x       y       z     vdW  Elec       q    Type
                         _______ _______ _______ _____ _____    ______ ____

>  <TORSDO>
F 30

$$$$
=
 OpenBabel11062412533D

 50 52  0  0  1  0  0  0  0  0999 V2000
  189.2230  177.2830  139.6660 O   0  0  0  0  0  0  0  0  0  0  0  0
  189.1930  177.9670  138.4480 C   0  0  0  0  0  2  0  0  0  0  0  0
  187.8590  177.7310  137.7530 C   0  0  1  0  0  3  0  0  0  0  0  0
  187.7670  176.2990  137.2200 C   0  0  0  0  0  2  0  0  0  0  0  0
  188.2710  176.1910  135.7870 C   0  0  0  0  0  2  0  0  0  0  0  0
  189.2240  177.1780  135.5260 O   0  0  0  0  0  1  0  0  0  0  0  0
  186.7040  178.0690  138.6920 C   0  0  0  0  0  2  0  0  0  0  0  0
  185.3850  178.2560  137.9460 C   0  0  0  0  0  2  0  0  0  0  0  0
  182.9900  178.3840  138.6120 C   0  0  1  0  0  3  0  0  0  0  0  0
  184.2730  177.5760  138.7280 C   0  0  1  0  0  3  0  0  0  0  0  0
  183.1080  177.0630  137.8740 C   0  0  2  0  0  3  0  0  0  0  0  0
  182.1590  178.2160  139.8460 C   0  0  0  0  0  0  0  0  0  0  0  0
  182.6960  177.9300  140.9050 O   0  0  0  0  0  0  0  0  0  0  0  0
  180.6670  178.3340  139.7670 C   0  0  0  0  0  3  0  0  0  0  0  0
  180.0430  178.1800  141.1410 C   0  0  0  0  0  1  0  0  0  0  0  0
  180.2700  179.6620  139.1700 C   0  0  0  0  0  1  0  0  0  0  0  0
  183.2200  177.3410  136.3790 C   0  0  0  0  0  2  0  0  0  0  0  0
  181.9780  176.8390  135.6670 C   0  0  0  0  0  2  0  0  0  0  0  0
  181.5220  175.5320  136.3000 C   0  0  0  0  0  2  0  0  0  0  0  0
  181.9780  174.3480  135.4670 C   0  0  0  0  0  2  0  0  0  0  0  0
  181.6860  173.0430  136.1920 C   0  0  0  0  0  2  0  0  0  0  0  0
  182.8180  172.7340  137.1600 C   0  0  0  0  0  2  0  0  0  0  0  0
  185.2170  173.3770  137.5990 C   0  0  0  0  0  1  0  0  0  0  0  0
  184.6890  171.7680  135.7630 C   0  0  0  0  0  1  0  0  0  0  0  0
  184.1990  172.9770  136.5440 C   0  0  0  0  0  3  0  0  0  0  0  0
  190.4750  177.5760  140.2120 C   0  0  1  0  0  3  0  0  0  0  0  0
  189.2620  176.1180  143.2460 C   0  0  2  0  0  3  0  0  0  0  0  0
  190.6590  176.8350  141.5360 C   0  0  2  0  0  3  0  0  0  0  0  0
  190.0030  177.2550  143.7900 N   0  0  0  0  0  0  0  0  0  0  0  0
  189.4990  176.0070  141.8120 N   0  0  0  0  0  2  0  0  0  0  0  0
  190.7680  177.8070  142.6890 C   0  0  0  0  0  2  0  0  0  0  0  0
  187.7770  176.3100  143.4970 C   0  0  0  0  0  2  0  0  0  0  0  0
  186.5940  177.9190  142.0570 C   0  0  0  0  0  2  0  0  0  0  0  0
  187.4020  177.7710  143.3280 C   0  0  1  0  0  3  0  0  0  0  0  0
  185.8970  177.9280  143.4030 C   0  0  1  0  0  3  0  0  0  0  0  0
  185.5940  179.2440  143.7550 O   0  0  0  0  0  0  0  0  0  0  0  0
  185.8250  179.3100  145.1280 C   0  0  0  0  0  2  0  0  0  0  0  0
  183.3520  179.2690  145.4390 O   0  0  0  0  0  0  0  0  0  0  0  0
  184.6130  178.8610  145.8630 C   0  0  0  0  0  0  0  0  0  0  0  0
  184.7290  178.0810  146.8450 O   0  0  0  0  0  1  0  0  0  0  0  0
  190.9670  176.7220  144.7460 C   0  0  0  0  0  2  0  0  0  0  0  0
  190.7730  177.3680  146.1150 C   0  0  2  0  0  3  0  0  0  0  0  0
  191.3610  176.4720  147.1870 C   0  0  0  0  0  2  0  0  0  0  0  0
  192.4110  175.7230  146.6560 O   0  0  0  0  0  1  0  0  0  0  0  0
  189.2860  177.5710  146.3770 C   0  0  0  0  0  2  0  0  0  0  0  0
  189.0540  177.8840  147.8420 C   0  0  0  0  0  2  0  0  0  0  0  0
  187.7090  178.1860  148.0460 O   0  0  0  0  0  1  0  0  0  0  0  0
  191.5530  177.1620  139.2190 C   0  0  0  0  0  2  0  0  0  0  0  0
  193.6960  177.3400  139.1670 O   0  0  0  0  0  1  0  0  0  0  0  0
  192.7260  176.8300  139.9010 O   0  0  0  0  0  0  0  0  0  0  0  0
  1 26  1  0  0  0  0
  2  1  1  0  0  0  0
  3  4  1  1  0  0  0
  3  2  1  0  0  0  0
  3  7  1  0  0  0  0
  5  4  1  0  0  0  0
  6  5  1  0  0  0  0
  8  7  1  0  0  0  0
  9 10  1  0  0  0  0
  9 12  1  1  0  0  0
 10  8  1  6  0  0  0
 11 17  1  6  0  0  0
 11  9  1  0  0  0  0
 11 10  1  0  0  0  0
 12 13  2  0  0  0  0
 14 12  1  0  0  0  0
 14 15  1  0  0  0  0
 16 14  1  0  0  0  0
 18 19  1  0  0  0  0
 18 17  1  0  0  0  0
 20 21  1  0  0  0  0
 20 19  1  0  0  0  0
 21 22  1  0  0  0  0
 24 25  1  0  0  0  0
 25 22  1  0  0  0  0
 25 23  1  0  0  0  0
 26 48  1  6  0  0  0
 27 32  1  6  0  0  0
 27 29  1  0  0  0  0
 28 26  1  6  0  0  0
 28 30  1  0  0  0  0
 28 31  1  0  0  0  0
 29 41  1  0  0  0  0
 30 27  1  0  0  0  0
 31 29  1  0  0  0  0
 33 34  1  0  0  0  0
 33 35  1  0  0  0  0
 34 35  1  0  0  0  0
 34 32  1  6  0  0  0
 35 36  1  1  0  0  0
 36 37  1  0  0  0  0
 37 39  1  0  0  0  0
 38 39  2  0  0  0  0
 39 40  1  0  0  0  0
 42 41  1  6  0  0  0
 42 45  1  0  0  0  0
 42 43  1  0  0  0  0
 44 43  1  0  0  0  0
 45 46  1  0  0  0  0
 46 47  1  0  0  0  0
 48 50  1  0  0  0  0
 49 50  1  0  0  0  0
M  END
>  <MODEL>
4

>  <REMARK>
 VINA RESULT:      -5.4      3.058      8.492
  Name = 
  30 active torsions:
  status: ('A' for Active; 'I' for Inactive)
    1  A    between atoms: C_1  and  C_14
    2  A    between atoms: C_1  and  C_48
    3  A    between atoms: C_2  and  C_4
    4  A    between atoms: C_4  and  C_17
    5  A    between atoms: C_6  and  C_44
    6  A    between atoms: C_7  and  C_22
    7  A    between atoms: C_7  and  C_49
    8  A    between atoms: C_10  and  C_26
    9  A    between atoms: C_10  and  N_32
   10  A    between atoms: C_11  and  C_22
   11  A    between atoms: C_11  and  C_47
   12  A    between atoms: C_12  and  C_50
   13  A    between atoms: C_13  and  C_25
   14  A    between atoms: C_13  and  O_33
   15  A    between atoms: O_15  and  C_25
   16  A    between atoms: O_15  and  C_36
   17  A    between atoms: C_16  and  C_44
   18  A    between atoms: O_19  and  C_23
   19  A    between atoms: O_19  and  C_50
   20  A    between atoms: C_20  and  C_28
   21  A    between atoms: C_21  and  C_31
   22  A    between atoms: C_21  and  C_49
   23  A    between atoms: C_24  and  C_25
   24  A    between atoms: C_26  and  C_29
   25  A    between atoms: C_26  and  C_34
   26  A    between atoms: C_27  and  C_28
   27  A    between atoms: C_27  and  C_48
   28  A    between atoms: C_29  and  C_41
   29  A    between atoms: C_31  and  C_43
   30  A    between atoms: C_36  and  C_48
                            x       y       z     vdW  Elec       q    Type
                         _______ _______ _______ _____ _____    ______ ____

>  <TORSDO>
F 30

$$$$
=
 OpenBabel11062412533D

 50 52  0  0  1  0  0  0  0  0999 V2000
  190.2520  177.5510  139.7260 O   0  0  0  0  0  0  0  0  0  0  0  0
  190.3310  176.8320  138.5310 C   0  0  0  0  0  2  0  0  0  0  0  0
  189.3110  177.3680  137.5360 C   0  0  1  0  0  3  0  0  0  0  0  0
  189.4470  176.6670  136.1820 C   0  0  0  0  0  2  0  0  0  0  0  0
  189.7870  175.1910  136.3370 C   0  0  0  0  0  2  0  0  0  0  0  0
  190.9310  174.8710  135.6040 O   0  0  0  0  0  1  0  0  0  0  0  0
  187.8990  177.2490  138.1040 C   0  0  0  0  0  2  0  0  0  0  0  0
  187.0370  178.4650  137.7760 C   0  0  0  0  0  2  0  0  0  0  0  0
  185.0380  176.9820  137.8230 C   0  0  1  0  0  3  0  0  0  0  0  0
  185.8080  178.0070  137.0060 C   0  0  1  0  0  3  0  0  0  0  0  0
  184.4690  178.3790  137.6530 C   0  0  2  0  0  3  0  0  0  0  0  0
  184.3320  176.0210  136.9170 C   0  0  0  0  0  0  0  0  0  0  0  0
  183.4890  176.4330  136.1350 O   0  0  0  0  0  0  0  0  0  0  0  0
  184.6120  174.5530  137.0150 C   0  0  0  0  0  3  0  0  0  0  0  0
  184.0160  173.8120  135.8340 C   0  0  0  0  0  1  0  0  0  0  0  0
  186.0980  174.2980  137.0820 C   0  0  0  0  0  1  0  0  0  0  0  0
  184.5670  179.1170  138.9840 C   0  0  0  0  0  2  0  0  0  0  0  0
  183.2190  179.7130  139.3430 C   0  0  0  0  0  2  0  0  0  0  0  0
  182.2040  179.3600  138.2650 C   0  0  0  0  0  2  0  0  0  0  0  0
  180.8330  179.9030  138.6250 C   0  0  0  0  0  2  0  0  0  0  0  0
  180.9450  181.3310  139.1380 C   0  0  0  0  0  2  0  0  0  0  0  0
  181.2180  182.2710  137.9720 C   0  0  0  0  0  2  0  0  0  0  0  0
  179.8760  184.2560  137.1840 C   0  0  0  0  0  1  0  0  0  0  0  0
  179.7650  182.1100  135.9120 C   0  0  0  0  0  1  0  0  0  0  0  0
  179.9320  182.7410  137.2840 C   0  0  0  0  0  3  0  0  0  0  0  0
  191.5350  177.4760  140.2740 C   0  0  1  0  0  3  0  0  0  0  0  0
  189.8540  175.8490  142.9830 C   0  0  2  0  0  3  0  0  0  0  0  0
  191.5060  176.6720  141.5750 C   0  0  2  0  0  3  0  0  0  0  0  0
  190.4650  176.9680  143.6990 N   0  0  0  0  0  0  0  0  0  0  0  0
  190.3350  175.8150  141.6070 N   0  0  0  0  0  2  0  0  0  0  0  0
  191.3940  177.5850  142.7730 C   0  0  0  0  0  2  0  0  0  0  0  0
  188.3430  176.0080  142.9830 C   0  0  0  0  0  2  0  0  0  0  0  0
  187.5180  178.1470  142.0870 C   0  0  0  0  0  2  0  0  0  0  0  0
  187.9670  177.4330  143.3440 C   0  0  1  0  0  3  0  0  0  0  0  0
  186.4900  177.6550  143.0870 C   0  0  1  0  0  3  0  0  0  0  0  0
  186.0510  178.7300  143.8610 O   0  0  0  0  0  0  0  0  0  0  0  0
  186.0710  178.2590  145.1740 C   0  0  0  0  0  2  0  0  0  0  0  0
  183.7420  179.0070  145.6540 O   0  0  0  0  0  0  0  0  0  0  0  0
  185.0920  179.0190  145.9940 C   0  0  0  0  0  0  0  0  0  0  0  0
  185.4810  179.6400  147.0190 O   0  0  0  0  0  1  0  0  0  0  0  0
  191.2630  176.4000  144.7800 C   0  0  0  0  0  2  0  0  0  0  0  0
  190.9770  177.1280  146.0910 C   0  0  2  0  0  3  0  0  0  0  0  0
  191.4130  176.2620  147.2570 C   0  0  0  0  0  2  0  0  0  0  0  0
  192.2690  175.2570  146.8080 O   0  0  0  0  0  1  0  0  0  0  0  0
  189.4860  177.4170  146.1990 C   0  0  0  0  0  2  0  0  0  0  0  0
  188.9120  176.7370  147.4260 C   0  0  0  0  0  2  0  0  0  0  0  0
  188.8270  177.6550  148.4700 O   0  0  0  0  0  1  0  0  0  0  0  0
  192.4640  176.8170  139.2640 C   0  0  0  0  0  2  0  0  0  0  0  0
  194.5410  176.4860  138.8130 O   0  0  0  0  0  1  0  0  0  0  0  0
  193.7200  176.6080  139.8380 O   0  0  0  0  0  0  0  0  0  0  0  0
  1 26  1  0  0  0  0
  2  1  1  0  0  0  0
  3  4  1  6  0  0  0
  3  7  1  0  0  0  0
  3  2  1  0  0  0  0
  4  5  1  0  0  0  0
  6  5  1  0  0  0  0
  8  7  1  0  0  0  0
  9 12  1  6  0  0  0
 10 11  1  0  0  0  0
 10  8  1  1  0  0  0
 10  9  1  0  0  0  0
 11  9  1  0  0  0  0
 11 17  1  1  0  0  0
 12 14  1  0  0  0  0
 13 12  2  0  0  0  0
 14 16  1  0  0  0  0
 15 14  1  0  0  0  0
 17 18  1  0  0  0  0
 19 20  1  0  0  0  0
 19 18  1  0  0  0  0
 20 21  1  0  0  0  0
 22 21  1  0  0  0  0
 23 25  1  0  0  0  0
 24 25  1  0  0  0  0
 25 22  1  0  0  0  0
 26 48  1  6  0  0  0
 27 32  1  6  0  0  0
 27 29  1  0  0  0  0
 28 26  1  6  0  0  0
 28 30  1  0  0  0  0
 28 31  1  0  0  0  0
 29 41  1  0  0  0  0
 30 27  1  0  0  0  0
 31 29  1  0  0  0  0
 33 35  1  0  0  0  0
 33 34  1  0  0  0  0
 34 32  1  6  0  0  0
 35 34  1  0  0  0  0
 35 36  1  1  0  0  0
 36 37  1  0  0  0  0
 37 39  1  0  0  0  0
 38 39  2  0  0  0  0
 39 40  1  0  0  0  0
 42 41  1  6  0  0  0
 42 45  1  0  0  0  0
 42 43  1  0  0  0  0
 44 43  1  0  0  0  0
 45 46  1  0  0  0  0
 46 47  1  0  0  0  0
 48 50  1  0  0  0  0
 49 50  1  0  0  0  0
M  END
>  <MODEL>
5

>  <REMARK>
 VINA RESULT:      -5.3      2.995      8.617
  Name = 
  30 active torsions:
  status: ('A' for Active; 'I' for Inactive)
    1  A    between atoms: C_1  and  C_14
    2  A    between atoms: C_1  and  C_48
    3  A    between atoms: C_2  and  C_4
    4  A    between atoms: C_4  and  C_17
    5  A    between atoms: C_6  and  C_44
    6  A    between atoms: C_7  and  C_22
    7  A    between atoms: C_7  and  C_49
    8  A    between atoms: C_10  and  C_26
    9  A    between atoms: C_10  and  N_32
   10  A    between atoms: C_11  and  C_22
   11  A    between atoms: C_11  and  C_47
   12  A    between atoms: C_12  and  C_50
   13  A    between atoms: C_13  and  C_25
   14  A    between atoms: C_13  and  O_33
   15  A    between atoms: O_15  and  C_25
   16  A    between atoms: O_15  and  C_36
   17  A    between atoms: C_16  and  C_44
   18  A    between atoms: O_19  and  C_23
   19  A    between atoms: O_19  and  C_50
   20  A    between atoms: C_20  and  C_28
   21  A    between atoms: C_21  and  C_31
   22  A    between atoms: C_21  and  C_49
   23  A    between atoms: C_24  and  C_25
   24  A    between atoms: C_26  and  C_29
   25  A    between atoms: C_26  and  C_34
   26  A    between atoms: C_27  and  C_28
   27  A    between atoms: C_27  and  C_48
   28  A    between atoms: C_29  and  C_41
   29  A    between atoms: C_31  and  C_43
   30  A    between atoms: C_36  and  C_48
                            x       y       z     vdW  Elec       q    Type
                         _______ _______ _______ _____ _____    ______ ____

>  <TORSDO>
F 30

$$$$
=
 OpenBabel11062412533D

 50 52  0  0  1  0  0  0  0  0999 V2000
  189.0310  178.2900  139.2800 O   0  0  0  0  0  0  0  0  0  0  0  0
  188.3170  178.2600  140.4810 C   0  0  0  0  0  2  0  0  0  0  0  0
  189.0040  177.3270  141.4680 C   0  0  1  0  0  3  0  0  0  0  0  0
  190.5270  177.4360  141.3540 C   0  0  0  0  0  2  0  0  0  0  0  0
  191.1850  177.6570  142.7090 C   0  0  0  0  0  2  0  0  0  0  0  0
  191.8540  176.5040  143.1240 O   0  0  0  0  0  1  0  0  0  0  0  0
  188.5150  177.6020  142.8880 C   0  0  0  0  0  2  0  0  0  0  0  0
  187.0710  177.1550  143.1010 C   0  0  0  0  0  2  0  0  0  0  0  0
  187.2200  178.2720  145.3210 C   0  0  1  0  0  3  0  0  0  0  0  0
  186.8150  177.0000  144.5920 C   0  0  1  0  0  3  0  0  0  0  0  0
  185.7470  177.9410  145.1610 C   0  0  2  0  0  3  0  0  0  0  0  0
  187.6760  177.9500  146.7100 C   0  0  0  0  0  0  0  0  0  0  0  0
  186.8530  177.8320  147.6060 O   0  0  0  0  0  0  0  0  0  0  0  0
  189.1380  177.8400  147.0140 C   0  0  0  0  0  3  0  0  0  0  0  0
  189.3810  176.8470  148.1340 C   0  0  0  0  0  1  0  0  0  0  0  0
  189.9060  177.4200  145.7840 C   0  0  0  0  0  1  0  0  0  0  0  0
  185.1280  178.9110  144.1610 C   0  0  0  0  0  2  0  0  0  0  0  0
  183.6200  178.9310  144.3260 C   0  0  0  0  0  2  0  0  0  0  0  0
  182.9600  179.0140  142.9570 C   0  0  0  0  0  2  0  0  0  0  0  0
  183.7790  178.2630  141.9230 C   0  0  0  0  0  2  0  0  0  0  0  0
  183.3270  178.6290  140.5180 C   0  0  0  0  0  2  0  0  0  0  0  0
  181.8910  178.1700  140.3090 C   0  0  0  0  0  2  0  0  0  0  0  0
  181.8710  180.2880  138.9400 C   0  0  0  0  0  1  0  0  0  0  0  0
  181.0340  178.1610  137.9320 C   0  0  0  0  0  1  0  0  0  0  0  0
  181.1740  178.9660  139.2140 C   0  0  0  0  0  3  0  0  0  0  0  0
  188.0570  178.2170  138.2820 C   0  0  1  0  0  3  0  0  0  0  0  0
  189.9290  175.3520  137.2370 C   0  0  2  0  0  3  0  0  0  0  0  0
  188.2810  176.9780  137.4150 C   0  0  2  0  0  3  0  0  0  0  0  0
  190.0750  176.1950  136.0520 N   0  0  0  0  0  0  0  0  0  0  0  0
  188.9890  175.9610  138.1710 N   0  0  0  0  0  2  0  0  0  0  0  0
  189.1530  177.3010  136.2240 C   0  0  0  0  0  2  0  0  0  0  0  0
  191.2780  175.1900  137.9160 C   0  0  0  0  0  2  0  0  0  0  0  0
  193.0390  176.7320  138.6820 C   0  0  0  0  0  2  0  0  0  0  0  0
  192.2180  176.3010  137.4850 C   0  0  1  0  0  3  0  0  0  0  0  0
  193.6550  175.8400  137.6210 C   0  0  1  0  0  3  0  0  0  0  0  0
  194.4610  176.6130  136.7840 O   0  0  0  0  0  0  0  0  0  0  0  0
  194.4800  175.9250  135.5710 C   0  0  0  0  0  2  0  0  0  0  0  0
  196.9330  175.7680  135.1530 O   0  0  0  0  0  0  0  0  0  0  0  0
  195.7340  175.1330  135.4630 C   0  0  0  0  0  0  0  0  0  0  0  0
  195.7150  173.8950  135.6920 O   0  0  0  0  0  1  0  0  0  0  0  0
  189.5950  175.4210  134.9130 C   0  0  0  0  0  2  0  0  0  0  0  0
  189.4500  173.9500  135.2920 C   0  0  2  0  0  3  0  0  0  0  0  0
  190.5230  173.1390  134.5940 C   0  0  0  0  0  2  0  0  0  0  0  0
  191.7840  173.5390  135.0360 O   0  0  0  0  0  1  0  0  0  0  0  0
  188.0750  173.4480  134.8720 C   0  0  0  0  0  2  0  0  0  0  0  0
  187.0330  173.8730  135.8880 C   0  0  0  0  0  2  0  0  0  0  0  0
  187.2460  173.1920  137.0850 O   0  0  0  0  0  1  0  0  0  0  0  0
  186.6840  178.1630  138.9380 C   0  0  0  0  0  2  0  0  0  0  0  0
  186.1440  179.3820  137.2480 O   0  0  0  0  0  1  0  0  0  0  0  0
  185.6900  178.3830  137.9810 O   0  0  0  0  0  0  0  0  0  0  0  0
  1  2  1  0  0  0  0
  3  2  1  6  0  0  0
  3  7  1  0  0  0  0
  4  3  1  0  0  0  0
  4  5  1  0  0  0  0
  5  6  1  0  0  0  0
  7  8  1  0  0  0  0
  9 12  1  1  0  0  0
 10  8  1  6  0  0  0
 10 11  1  0  0  0  0
 10  9  1  0  0  0  0
 11 17  1  6  0  0  0
 11  9  1  0  0  0  0
 12 14  1  0  0  0  0
 12 13  2  0  0  0  0
 14 15  1  0  0  0  0
 16 14  1  0  0  0  0
 17 18  1  0  0  0  0
 19 18  1  0  0  0  0
 20 19  1  0  0  0  0
 21 20  1  0  0  0  0
 22 21  1  0  0  0  0
 23 25  1  0  0  0  0
 24 25  1  0  0  0  0
 25 22  1  0  0  0  0
 26 48  1  1  0  0  0
 26  1  1  0  0  0  0
 27 32  1  1  0  0  0
 27 30  1  0  0  0  0
 28 30  1  0  0  0  0
 28 26  1  1  0  0  0
 29 31  1  0  0  0  0
 29 27  1  0  0  0  0
 31 28  1  0  0  0  0
 34 35  1  0  0  0  0
 34 32  1  1  0  0  0
 34 33  1  0  0  0  0
 35 36  1  6  0  0  0
 35 33  1  0  0  0  0
 37 36  1  0  0  0  0
 38 39  2  0  0  0  0
 39 37  1  0  0  0  0
 39 40  1  0  0  0  0
 41 42  1  0  0  0  0
 41 29  1  0  0  0  0
 42 43  1  6  0  0  0
 43 44  1  0  0  0  0
 45 42  1  0  0  0  0
 45 46  1  0  0  0  0
 46 47  1  0  0  0  0
 49 50  1  0  0  0  0
 50 48  1  0  0  0  0
M  END
>  <MODEL>
6

>  <REMARK>
 VINA RESULT:      -5.2      1.813      6.739
  Name = 
  30 active torsions:
  status: ('A' for Active; 'I' for Inactive)
    1  A    between atoms: C_1  and  C_14
    2  A    between atoms: C_1  and  C_48
    3  A    between atoms: C_2  and  C_4
    4  A    between atoms: C_4  and  C_17
    5  A    between atoms: C_6  and  C_44
    6  A    between atoms: C_7  and  C_22
    7  A    between atoms: C_7  and  C_49
    8  A    between atoms: C_10  and  C_26
    9  A    between atoms: C_10  and  N_32
   10  A    between atoms: C_11  and  C_22
   11  A    between atoms: C_11  and  C_47
   12  A    between atoms: C_12  and  C_50
   13  A    between atoms: C_13  and  C_25
   14  A    between atoms: C_13  and  O_33
   15  A    between atoms: O_15  and  C_25
   16  A    between atoms: O_15  and  C_36
   17  A    between atoms: C_16  and  C_44
   18  A    between atoms: O_19  and  C_23
   19  A    between atoms: O_19  and  C_50
   20  A    between atoms: C_20  and  C_28
   21  A    between atoms: C_21  and  C_31
   22  A    between atoms: C_21  and  C_49
   23  A    between atoms: C_24  and  C_25
   24  A    between atoms: C_26  and  C_29
   25  A    between atoms: C_26  and  C_34
   26  A    between atoms: C_27  and  C_28
   27  A    between atoms: C_27  and  C_48
   28  A    between atoms: C_29  and  C_41
   29  A    between atoms: C_31  and  C_43
   30  A    between atoms: C_36  and  C_48
                            x       y       z     vdW  Elec       q    Type
                         _______ _______ _______ _____ _____    ______ ____

>  <TORSDO>
F 30

$$$$
=
 OpenBabel11062412533D

 50 52  0  0  1  0  0  0  0  0999 V2000
  189.0230  178.6830  139.3640 O   0  0  0  0  0  0  0  0  0  0  0  0
  188.7220  178.8400  140.7190 C   0  0  0  0  0  2  0  0  0  0  0  0
  187.5520  177.9420  141.0980 C   0  0  1  0  0  3  0  0  0  0  0  0
  187.8020  177.2580  142.4450 C   0  0  0  0  0  2  0  0  0  0  0  0
  189.1950  177.5540  142.9840 C   0  0  0  0  0  2  0  0  0  0  0  0
  189.8890  176.3680  143.2280 O   0  0  0  0  0  1  0  0  0  0  0  0
  186.2480  178.7350  141.0890 C   0  0  0  0  0  2  0  0  0  0  0  0
  185.1830  178.1110  141.9880 C   0  0  0  0  0  2  0  0  0  0  0  0
  182.8570  178.3760  142.8320 C   0  0  1  0  0  3  0  0  0  0  0  0
  183.8960  178.9100  141.8600 C   0  0  1  0  0  3  0  0  0  0  0  0
  183.5140  179.7170  143.1050 C   0  0  2  0  0  3  0  0  0  0  0  0
  181.4790  178.5770  142.2810 C   0  0  0  0  0  0  0  0  0  0  0  0
  181.2350  178.2530  141.1280 O   0  0  0  0  0  0  0  0  0  0  0  0
  180.4240  179.2320  143.1180 C   0  0  0  0  0  3  0  0  0  0  0  0
  179.1830  179.5140  142.2930 C   0  0  0  0  0  1  0  0  0  0  0  0
  180.0670  178.3640  144.2990 C   0  0  0  0  0  1  0  0  0  0  0  0
  184.4570  179.5720  144.2950 C   0  0  0  0  0  2  0  0  0  0  0  0
  183.7550  178.8380  145.4220 C   0  0  0  0  0  2  0  0  0  0  0  0
  184.7620  178.5010  146.5130 C   0  0  0  0  0  2  0  0  0  0  0  0
  186.1790  178.5740  145.9720 C   0  0  0  0  0  2  0  0  0  0  0  0
  186.9330  177.2900  146.2810 C   0  0  0  0  0  2  0  0  0  0  0  0
  188.4300  177.5420  146.1850 C   0  0  0  0  0  2  0  0  0  0  0  0
  190.6520  176.8720  147.1730 C   0  0  0  0  0  1  0  0  0  0  0  0
  189.0100  178.1290  148.5730 C   0  0  0  0  0  1  0  0  0  0  0  0
  189.1790  177.1160  147.4520 C   0  0  0  0  0  3  0  0  0  0  0  0
  189.0330  177.3010  139.1570 C   0  0  1  0  0  3  0  0  0  0  0  0
  186.8840  176.1400  136.5420 C   0  0  2  0  0  3  0  0  0  0  0  0
  188.7130  176.9840  137.6960 C   0  0  2  0  0  3  0  0  0  0  0  0
  187.8790  175.0690  136.5460 N   0  0  0  0  0  0  0  0  0  0  0  0
  187.3050  177.2160  137.4310 N   0  0  0  0  0  2  0  0  0  0  0  0
  188.9650  175.5260  137.3910 C   0  0  0  0  0  2  0  0  0  0  0  0
  185.5460  175.5950  137.0110 C   0  0  0  0  0  2  0  0  0  0  0  0
  184.2070  177.1080  135.6030 C   0  0  0  0  0  2  0  0  0  0  0  0
  184.5080  176.7020  137.0300 C   0  0  1  0  0  3  0  0  0  0  0  0
  183.2350  176.2240  136.3610 C   0  0  1  0  0  3  0  0  0  0  0  0
  182.1660  176.9990  136.8120 O   0  0  0  0  0  0  0  0  0  0  0  0
  181.5840  176.2470  137.8320 C   0  0  0  0  0  2  0  0  0  0  0  0
  181.0660  173.8380  137.4510 O   0  0  0  0  0  1  0  0  0  0  0  0
  180.7380  175.1750  137.2440 C   0  0  0  0  0  0  0  0  0  0  0  0
  179.7040  175.4780  136.5920 O   0  0  0  0  0  0  0  0  0  0  0  0
  188.4120  174.9720  135.1920 C   0  0  0  0  0  2  0  0  0  0  0  0
  188.4340  173.5180  134.7310 C   0  0  2  0  0  3  0  0  0  0  0  0
  187.6780  172.6590  135.7260 C   0  0  0  0  0  2  0  0  0  0  0  0
  186.7110  171.9040  135.0640 O   0  0  0  0  0  1  0  0  0  0  0  0
  189.8760  173.0360  134.6320 C   0  0  0  0  0  2  0  0  0  0  0  0
  190.8240  174.2160  134.7080 C   0  0  0  0  0  2  0  0  0  0  0  0
  192.0740  173.7810  135.1440 O   0  0  0  0  0  1  0  0  0  0  0  0
  190.4060  176.7590  139.5280 C   0  0  0  0  0  2  0  0  0  0  0  0
  192.2520  176.3240  138.5100 O   0  0  0  0  0  1  0  0  0  0  0  0
  191.3770  177.2970  138.6790 O   0  0  0  0  0  0  0  0  0  0  0  0
  1  2  1  0  0  0  0
  3  2  1  1  0  0  0
  3  4  1  0  0  0  0
  4  5  1  0  0  0  0
  5  6  1  0  0  0  0
  7  3  1  0  0  0  0
  7  8  1  0  0  0  0
  9 12  1  6  0  0  0
  9 11  1  0  0  0  0
 10  8  1  1  0  0  0
 10  9  1  0  0  0  0
 10 11  1  0  0  0  0
 11 17  1  1  0  0  0
 12 14  1  0  0  0  0
 13 12  2  0  0  0  0
 14 16  1  0  0  0  0
 15 14  1  0  0  0  0
 17 18  1  0  0  0  0
 18 19  1  0  0  0  0
 20 21  1  0  0  0  0
 20 19  1  0  0  0  0
 22 21  1  0  0  0  0
 22 25  1  0  0  0  0
 23 25  1  0  0  0  0
 25 24  1  0  0  0  0
 26  1  1  0  0  0  0
 26 48  1  6  0  0  0
 27 29  1  0  0  0  0
 27 32  1  1  0  0  0
 27 30  1  0  0  0  0
 28 26  1  1  0  0  0
 29 31  1  0  0  0  0
 30 28  1  0  0  0  0
 31 28  1  0  0  0  0
 33 35  1  0  0  0  0
 33 34  1  0  0  0  0
 34 32  1  6  0  0  0
 35 36  1  1  0  0  0
 35 34  1  0  0  0  0
 36 37  1  0  0  0  0
 39 38  1  0  0  0  0
 39 37  1  0  0  0  0
 40 39  2  0  0  0  0
 41 29  1  0  0  0  0
 42 45  1  1  0  0  0
 42 41  1  0  0  0  0
 42 43  1  0  0  0  0
 44 43  1  0  0  0  0
 45 46  1  0  0  0  0
 46 47  1  0  0  0  0
 49 50  1  0  0  0  0
 50 48  1  0  0  0  0
M  END
>  <MODEL>
7

>  <REMARK>
 VINA RESULT:      -5.2      2.446      4.080
  Name = 
  30 active torsions:
  status: ('A' for Active; 'I' for Inactive)
    1  A    between atoms: C_1  and  C_14
    2  A    between atoms: C_1  and  C_48
    3  A    between atoms: C_2  and  C_4
    4  A    between atoms: C_4  and  C_17
    5  A    between atoms: C_6  and  C_44
    6  A    between atoms: C_7  and  C_22
    7  A    between atoms: C_7  and  C_49
    8  A    between atoms: C_10  and  C_26
    9  A    between atoms: C_10  and  N_32
   10  A    between atoms: C_11  and  C_22
   11  A    between atoms: C_11  and  C_47
   12  A    between atoms: C_12  and  C_50
   13  A    between atoms: C_13  and  C_25
   14  A    between atoms: C_13  and  O_33
   15  A    between atoms: O_15  and  C_25
   16  A    between atoms: O_15  and  C_36
   17  A    between atoms: C_16  and  C_44
   18  A    between atoms: O_19  and  C_23
   19  A    between atoms: O_19  and  C_50
   20  A    between atoms: C_20  and  C_28
   21  A    between atoms: C_21  and  C_31
   22  A    between atoms: C_21  and  C_49
   23  A    between atoms: C_24  and  C_25
   24  A    between atoms: C_26  and  C_29
   25  A    between atoms: C_26  and  C_34
   26  A    between atoms: C_27  and  C_28
   27  A    between atoms: C_27  and  C_48
   28  A    between atoms: C_29  and  C_41
   29  A    between atoms: C_31  and  C_43
   30  A    between atoms: C_36  and  C_48
                            x       y       z     vdW  Elec       q    Type
                         _______ _______ _______ _____ _____    ______ ____

>  <TORSDO>
F 30

$$$$
=
 OpenBabel11062412533D

 50 52  0  0  1  0  0  0  0  0999 V2000
  189.6460  177.7500  139.8110 O   0  0  0  0  0  0  0  0  0  0  0  0
  188.9020  177.8740  140.9870 C   0  0  0  0  0  2  0  0  0  0  0  0
  189.6330  177.1950  142.1360 C   0  0  1  0  0  3  0  0  0  0  0  0
  190.4030  178.2190  142.9750 C   0  0  0  0  0  2  0  0  0  0  0  0
  191.6830  177.6320  143.5550 C   0  0  0  0  0  2  0  0  0  0  0  0
  192.3580  178.5850  144.3200 O   0  0  0  0  0  1  0  0  0  0  0  0
  188.6560  176.3800  142.9810 C   0  0  0  0  0  2  0  0  0  0  0  0
  187.2950  177.0600  143.1120 C   0  0  0  0  0  2  0  0  0  0  0  0
  186.7850  178.3500  145.1790 C   0  0  1  0  0  3  0  0  0  0  0  0
  186.8310  176.9630  144.5570 C   0  0  1  0  0  3  0  0  0  0  0  0
  185.4860  177.6390  144.8450 C   0  0  2  0  0  3  0  0  0  0  0  0
  187.0580  178.2690  146.6480 C   0  0  0  0  0  0  0  0  0  0  0  0
  186.3310  178.8570  147.4340 O   0  0  0  0  0  0  0  0  0  0  0  0
  188.2580  177.5230  147.1490 C   0  0  0  0  0  3  0  0  0  0  0  0
  189.5150  177.9910  146.4410 C   0  0  0  0  0  1  0  0  0  0  0  0
  188.4120  177.7040  148.6390 C   0  0  0  0  0  1  0  0  0  0  0  0
  184.8330  178.3340  143.6560 C   0  0  0  0  0  2  0  0  0  0  0  0
  184.4450  179.7500  144.0350 C   0  0  0  0  0  2  0  0  0  0  0  0
  182.9550  179.8050  144.3400 C   0  0  0  0  0  2  0  0  0  0  0  0
  182.2580  178.5620  143.8170 C   0  0  0  0  0  2  0  0  0  0  0  0
  181.0330  178.9430  143.0000 C   0  0  0  0  0  2  0  0  0  0  0  0
  181.3970  178.9790  141.5220 C   0  0  0  0  0  2  0  0  0  0  0  0
  179.3930  177.5060  141.1030 C   0  0  0  0  0  1  0  0  0  0  0  0
  181.0120  177.9400  139.2510 C   0  0  0  0  0  1  0  0  0  0  0  0
  180.8470  177.7740  140.7530 C   0  0  0  0  0  3  0  0  0  0  0  0
  188.8760  178.3820  138.8310 C   0  0  1  0  0  3  0  0  0  0  0  0
  189.0440  177.1020  135.4930 C   0  0  2  0  0  3  0  0  0  0  0  0
  189.5380  178.2300  137.4610 C   0  0  2  0  0  3  0  0  0  0  0  0
  190.1560  176.3720  136.1000 N   0  0  0  0  0  0  0  0  0  0  0  0
  188.5270  178.0930  136.4290 N   0  0  0  0  0  2  0  0  0  0  0  0
  190.3760  176.9740  137.4010 C   0  0  0  0  0  2  0  0  0  0  0  0
  187.9360  176.1300  135.1260 C   0  0  0  0  0  2  0  0  0  0  0  0
  185.7070  177.0620  134.6540 C   0  0  0  0  0  2  0  0  0  0  0  0
  186.6250  176.5710  135.7510 C   0  0  1  0  0  3  0  0  0  0  0  0
  185.4980  175.6870  135.2580 C   0  0  1  0  0  3  0  0  0  0  0  0
  184.4440  175.7420  136.1710 O   0  0  0  0  0  0  0  0  0  0  0  0
  183.4420  174.9510  135.6100 C   0  0  0  0  0  2  0  0  0  0  0  0
  182.3240  174.9360  137.8380 O   0  0  0  0  0  1  0  0  0  0  0  0
  182.6960  174.2480  136.6870 C   0  0  0  0  0  0  0  0  0  0  0  0
  182.3680  173.0410  136.5370 O   0  0  0  0  0  0  0  0  0  0  0  0
  191.3430  176.6530  135.3000 C   0  0  0  0  0  2  0  0  0  0  0  0
  192.2920  175.4580  135.3180 C   0  0  2  0  0  3  0  0  0  0  0  0
  191.6310  174.2970  136.0340 C   0  0  0  0  0  2  0  0  0  0  0  0
  191.3430  173.2800  135.1240 O   0  0  0  0  0  1  0  0  0  0  0  0
  193.5780  175.8400  136.0400 C   0  0  0  0  0  2  0  0  0  0  0  0
  193.7230  175.0230  137.3090 C   0  0  0  0  0  2  0  0  0  0  0  0
  193.8180  175.8780  138.4050 O   0  0  0  0  0  1  0  0  0  0  0  0
  187.4870  177.7590  138.8190 C   0  0  0  0  0  2  0  0  0  0  0  0
  185.3880  178.2000  138.9920 O   0  0  0  0  0  1  0  0  0  0  0  0
  186.5230  178.7470  138.6010 O   0  0  0  0  0  0  0  0  0  0  0  0
  1  2  1  0  0  0  0
  3  2  1  6  0  0  0
  3  4  1  0  0  0  0
  3  7  1  0  0  0  0
  4  5  1  0  0  0  0
  5  6  1  0  0  0  0
  7  8  1  0  0  0  0
  9 12  1  1  0  0  0
 10  8  1  6  0  0  0
 10 11  1  0  0  0  0
 10  9  1  0  0  0  0
 11 17  1  6  0  0  0
 11  9  1  0  0  0  0
 12 14  1  0  0  0  0
 12 13  2  0  0  0  0
 14 16  1  0  0  0  0
 15 14  1  0  0  0  0
 17 18  1  0  0  0  0
 18 19  1  0  0  0  0
 20 19  1  0  0  0  0
 21 20  1  0  0  0  0
 22 21  1  0  0  0  0
 24 25  1  0  0  0  0
 25 23  1  0  0  0  0
 25 22  1  0  0  0  0
 26 48  1  6  0  0  0
 26  1  1  0  0  0  0
 27 32  1  1  0  0  0
 27 29  1  0  0  0  0
 27 30  1  0  0  0  0
 28 26  1  1  0  0  0
 29 31  1  0  0  0  0
 30 28  1  0  0  0  0
 31 28  1  0  0  0  0
 33 35  1  0  0  0  0
 33 34  1  0  0  0  0
 34 32  1  6  0  0  0
 35 34  1  0  0  0  0
 35 36  1  1  0  0  0
 37 36  1  0  0  0  0
 37 39  1  0  0  0  0
 39 38  1  0  0  0  0
 40 39  2  0  0  0  0
 41 29  1  0  0  0  0
 42 41  1  1  0  0  0
 42 43  1  0  0  0  0
 42 45  1  0  0  0  0
 44 43  1  0  0  0  0
 45 46  1  0  0  0  0
 46 47  1  0  0  0  0
 50 48  1  0  0  0  0
 50 49  1  0  0  0  0
M  END
>  <MODEL>
8

>  <REMARK>
 VINA RESULT:      -5.2      2.274      5.287
  Name = 
  30 active torsions:
  status: ('A' for Active; 'I' for Inactive)
    1  A    between atoms: C_1  and  C_14
    2  A    between atoms: C_1  and  C_48
    3  A    between atoms: C_2  and  C_4
    4  A    between atoms: C_4  and  C_17
    5  A    between atoms: C_6  and  C_44
    6  A    between atoms: C_7  and  C_22
    7  A    between atoms: C_7  and  C_49
    8  A    between atoms: C_10  and  C_26
    9  A    between atoms: C_10  and  N_32
   10  A    between atoms: C_11  and  C_22
   11  A    between atoms: C_11  and  C_47
   12  A    between atoms: C_12  and  C_50
   13  A    between atoms: C_13  and  C_25
   14  A    between atoms: C_13  and  O_33
   15  A    between atoms: O_15  and  C_25
   16  A    between atoms: O_15  and  C_36
   17  A    between atoms: C_16  and  C_44
   18  A    between atoms: O_19  and  C_23
   19  A    between atoms: O_19  and  C_50
   20  A    between atoms: C_20  and  C_28
   21  A    between atoms: C_21  and  C_31
   22  A    between atoms: C_21  and  C_49
   23  A    between atoms: C_24  and  C_25
   24  A    between atoms: C_26  and  C_29
   25  A    between atoms: C_26  and  C_34
   26  A    between atoms: C_27  and  C_28
   27  A    between atoms: C_27  and  C_48
   28  A    between atoms: C_29  and  C_41
   29  A    between atoms: C_31  and  C_43
   30  A    between atoms: C_36  and  C_48
                            x       y       z     vdW  Elec       q    Type
                         _______ _______ _______ _____ _____    ______ ____

>  <TORSDO>
F 30

$$$$
=
 OpenBabel11062412533D

 50 52  0  0  1  0  0  0  0  0999 V2000
  186.7780  177.7120  139.8390 O   0  0  0  0  0  0  0  0  0  0  0  0
  187.6680  178.3980  140.6700 C   0  0  0  0  0  2  0  0  0  0  0  0
  188.3150  177.4280  141.6490 C   0  0  1  0  0  3  0  0  0  0  0  0
  189.6820  177.9430  142.1060 C   0  0  0  0  0  2  0  0  0  0  0  0
  190.8140  177.3920  141.2490 C   0  0  0  0  0  2  0  0  0  0  0  0
  190.9500  176.0160  141.4410 O   0  0  0  0  0  1  0  0  0  0  0  0
  187.3800  177.1580  142.8250 C   0  0  0  0  0  2  0  0  0  0  0  0
  187.6920  178.0430  144.0290 C   0  0  0  0  0  2  0  0  0  0  0  0
  188.7540  177.9860  146.2800 C   0  0  1  0  0  3  0  0  0  0  0  0
  188.0560  177.1590  145.2130 C   0  0  1  0  0  3  0  0  0  0  0  0
  187.3340  177.5070  146.5190 C   0  0  2  0  0  3  0  0  0  0  0  0
  189.7230  177.1370  147.0420 C   0  0  0  0  0  0  0  0  0  0  0  0
  189.6460  177.0730  148.2600 O   0  0  0  0  0  0  0  0  0  0  0  0
  190.8230  176.4200  146.3200 C   0  0  0  0  0  3  0  0  0  0  0  0
  191.4580  177.3210  145.2790 C   0  0  0  0  0  1  0  0  0  0  0  0
  191.8740  175.9420  147.2930 C   0  0  0  0  0  1  0  0  0  0  0  0
  186.3910  178.7030  146.4490 C   0  0  0  0  0  2  0  0  0  0  0  0
  185.0170  178.3070  146.9560 C   0  0  0  0  0  2  0  0  0  0  0  0
  184.0390  178.2600  145.7910 C   0  0  0  0  0  2  0  0  0  0  0  0
  184.6380  178.9240  144.5640 C   0  0  0  0  0  2  0  0  0  0  0  0
  183.5400  179.3660  143.6090 C   0  0  0  0  0  2  0  0  0  0  0  0
  182.2180  178.7410  144.0280 C   0  0  0  0  0  2  0  0  0  0  0  0
  181.1260  178.7770  141.7550 C   0  0  0  0  0  1  0  0  0  0  0  0
  179.7030  178.8540  143.8060 C   0  0  0  0  0  1  0  0  0  0  0  0
  181.0380  179.2510  143.1960 C   0  0  0  0  0  3  0  0  0  0  0  0
  186.3670  178.6570  138.8960 C   0  0  1  0  0  3  0  0  0  0  0  0
  186.3810  176.4050  136.1160 C   0  0  2  0  0  3  0  0  0  0  0  0
  186.7980  178.2260  137.4940 C   0  0  2  0  0  3  0  0  0  0  0  0
  187.7590  176.2450  136.5770 N   0  0  0  0  0  0  0  0  0  0  0  0
  185.7300  177.4830  136.8490 N   0  0  0  0  0  2  0  0  0  0  0  0
  187.9840  177.2920  137.5560 C   0  0  0  0  0  2  0  0  0  0  0  0
  185.6160  175.1110  136.3390 C   0  0  0  0  0  2  0  0  0  0  0  0
  183.7440  174.5950  134.8250 C   0  0  0  0  0  2  0  0  0  0  0  0
  184.1350  175.3300  136.0890 C   0  0  1  0  0  3  0  0  0  0  0  0
  183.3990  174.0090  136.1800 C   0  0  1  0  0  3  0  0  0  0  0  0
  182.0540  174.2560  136.4580 O   0  0  0  0  0  0  0  0  0  0  0  0
  181.4390  173.0060  136.3950 C   0  0  0  0  0  2  0  0  0  0  0  0
  179.6170  174.0620  137.7310 O   0  0  0  0  0  0  0  0  0  0  0  0
  180.3590  172.9270  137.4140 C   0  0  0  0  0  0  0  0  0  0  0  0
  180.0920  171.8240  137.9600 O   0  0  0  0  0  1  0  0  0  0  0  0
  188.6280  176.5370  135.4430 C   0  0  0  0  0  2  0  0  0  0  0  0
  189.6600  175.4270  135.2640 C   0  0  2  0  0  3  0  0  0  0  0  0
  189.2110  174.1910  136.0190 C   0  0  0  0  0  2  0  0  0  0  0  0
  188.7540  173.2260  135.1220 O   0  0  0  0  0  1  0  0  0  0  0  0
  191.0080  175.8920  135.8000 C   0  0  0  0  0  2  0  0  0  0  0  0
  191.7500  174.7260  136.4230 C   0  0  0  0  0  2  0  0  0  0  0  0
  191.4750  174.6760  137.7880 O   0  0  0  0  0  1  0  0  0  0  0  0
  184.8530  178.7950  138.9660 C   0  0  0  0  0  2  0  0  0  0  0  0
  183.1790  180.1460  139.0200 O   0  0  0  0  0  1  0  0  0  0  0  0
  184.4930  180.1440  138.9060 O   0  0  0  0  0  0  0  0  0  0  0  0
  1  2  1  0  0  0  0
  3  2  1  6  0  0  0
  3  4  1  0  0  0  0
  3  7  1  0  0  0  0
  5  6  1  0  0  0  0
  5  4  1  0  0  0  0
  7  8  1  0  0  0  0
  9 11  1  0  0  0  0
  9 12  1  1  0  0  0
 10  8  1  6  0  0  0
 10  9  1  0  0  0  0
 10 11  1  0  0  0  0
 11 17  1  6  0  0  0
 12 13  2  0  0  0  0
 14 12  1  0  0  0  0
 14 16  1  0  0  0  0
 15 14  1  0  0  0  0
 17 18  1  0  0  0  0
 19 18  1  0  0  0  0
 20 19  1  0  0  0  0
 21 22  1  0  0  0  0
 21 20  1  0  0  0  0
 23 25  1  0  0  0  0
 25 24  1  0  0  0  0
 25 22  1  0  0  0  0
 26 48  1  6  0  0  0
 26  1  1  0  0  0  0
 27 32  1  1  0  0  0
 27 29  1  0  0  0  0
 27 30  1  0  0  0  0
 28 31  1  0  0  0  0
 28 26  1  1  0  0  0
 29 31  1  0  0  0  0
 30 28  1  0  0  0  0
 33 34  1  0  0  0  0
 33 35  1  0  0  0  0
 34 35  1  0  0  0  0
 34 32  1  1  0  0  0
 35 36  1  6  0  0  0
 37 36  1  0  0  0  0
 37 39  1  0  0  0  0
 39 38  2  0  0  0  0
 39 40  1  0  0  0  0
 41 29  1  0  0  0  0
 42 41  1  1  0  0  0
 42 45  1  0  0  0  0
 42 43  1  0  0  0  0
 44 43  1  0  0  0  0
 45 46  1  0  0  0  0
 46 47  1  0  0  0  0
 50 48  1  0  0  0  0
 50 49  1  0  0  0  0
M  END
>  <MODEL>
9

>  <REMARK>
 VINA RESULT:      -5.2      2.435      5.963
  Name = 
  30 active torsions:
  status: ('A' for Active; 'I' for Inactive)
    1  A    between atoms: C_1  and  C_14
    2  A    between atoms: C_1  and  C_48
    3  A    between atoms: C_2  and  C_4
    4  A    between atoms: C_4  and  C_17
    5  A    between atoms: C_6  and  C_44
    6  A    between atoms: C_7  and  C_22
    7  A    between atoms: C_7  and  C_49
    8  A    between atoms: C_10  and  C_26
    9  A    between atoms: C_10  and  N_32
   10  A    between atoms: C_11  and  C_22
   11  A    between atoms: C_11  and  C_47
   12  A    between atoms: C_12  and  C_50
   13  A    between atoms: C_13  and  C_25
   14  A    between atoms: C_13  and  O_33
   15  A    between atoms: O_15  and  C_25
   16  A    between atoms: O_15  and  C_36
   17  A    between atoms: C_16  and  C_44
   18  A    between atoms: O_19  and  C_23
   19  A    between atoms: O_19  and  C_50
   20  A    between atoms: C_20  and  C_28
   21  A    between atoms: C_21  and  C_31
   22  A    between atoms: C_21  and  C_49
   23  A    between atoms: C_24  and  C_25
   24  A    between atoms: C_26  and  C_29
   25  A    between atoms: C_26  and  C_34
   26  A    between atoms: C_27  and  C_28
   27  A    between atoms: C_27  and  C_48
   28  A    between atoms: C_29  and  C_41
   29  A    between atoms: C_31  and  C_43
   30  A    between atoms: C_36  and  C_48
                            x       y       z     vdW  Elec       q    Type
                         _______ _______ _______ _____ _____    ______ ____

>  <TORSDO>
F 30

$$$$
