=
 OpenBabel11062417503D

 58 61  0  0  1  0  0  0  0  0999 V2000
  190.4050  177.4430  146.3850 C   0  0  2  0  0  3  0  0  0  0  0  0
  190.8470  176.8780  147.7400 C   0  0  0  0  0  2  0  0  0  0  0  0
  192.0700  176.0140  147.6450 C   0  0  0  0  0  0  0  0  0  0  0  0
  192.1410  175.1260  146.7530 O   0  0  0  0  0  0  0  0  0  0  0  0
  193.1330  176.1820  148.5830 N   0  0  0  0  0  2  0  0  0  0  0  0
  193.2000  177.2070  149.2930 O   0  0  0  0  0  1  0  0  0  0  0  0
  189.0440  176.8830  145.9980 C   0  0  0  0  0  2  0  0  0  0  0  0
  188.0430  177.9800  145.6670 C   0  0  0  0  0  2  0  0  0  0  0  0
  186.8450  177.9060  146.6070 C   0  0  1  0  0  3  0  0  0  0  0  0
  187.3100  178.2110  148.0150 C   0  0  0  0  0  1  0  0  0  0  0  0
  185.8470  178.8520  146.2270 O   0  0  0  0  0  0  0  0  0  0  0  0
  185.0360  178.7040  145.0950 C   0  0  0  0  0  0  0  0  0  0  0  0
  182.8590  178.9570  144.0530 C   0  0  0  0  0  3  0  0  0  0  0  0
  185.5530  178.2320  143.8770 C   0  0  0  0  0  3  0  0  0  0  0  0
  183.6830  179.0460  145.1800 C   0  0  0  0  0  3  0  0  0  0  0  0
  183.3800  178.5270  142.8300 C   0  0  0  0  0  0  0  0  0  0  0  0
  184.7320  178.1480  142.7510 C   0  0  0  0  0  3  0  0  0  0  0  0
  182.5470  178.5020  141.7060 O   0  0  0  0  0  0  0  0  0  0  0  0
  183.0510  178.4620  140.3760 C   0  0  2  0  0  3  0  0  0  0  0  0
  182.2590  177.4690  138.4220 N   0  0  1  0  0  0  0  0  0  0  0  0
  181.6010  178.6620  138.5130 O   0  0  0  0  0  0  0  0  0  0  0  0
  182.2710  179.4090  139.5030 C   0  0  0  0  0  2  0  0  0  0  0  0
  182.7590  177.1410  139.7480 C   0  0  0  0  0  2  0  0  0  0  0  0
  179.8480  176.5600  138.3870 C   0  0  2  0  0  3  0  0  0  0  0  0
  180.7850  174.0010  137.6440 C   0  0  0  0  0  2  0  0  0  0  0  0
  179.7460  174.6040  136.9090 O   0  0  0  0  0  0  0  0  0  0  0  0
  181.8870  175.0220  137.9690 C   0  0  0  0  0  2  0  0  0  0  0  0
  179.6940  176.5660  139.9010 C   0  0  0  0  0  1  0  0  0  0  0  0
  179.0150  175.3910  137.8230 C   0  0  0  0  0  2  0  0  0  0  0  0
  181.3230  176.4480  137.9270 C   0  0  2  0  0  3  0  0  0  0  0  0
  191.4530  177.2050  145.2950 C   0  0  0  0  0  2  0  0  0  0  0  0
  190.9480  177.7010  143.9460 C   0  0  1  0  0  3  0  0  0  0  0  0
  191.6900  178.9600  143.5220 C   0  0  0  0  0  2  0  0  0  0  0  0
  191.1080  180.1240  144.1760 N   0  0  0  0  0  1  0  0  0  0  0  0
  191.1670  175.0720  143.4020 S   0  0  0  0  0  0  0  0  0  0  0  0
  191.0180  176.6190  142.9050 C   0  0  0  0  0  0  0  0  0  0  0  0
  191.0350  176.8940  141.5010 N   0  0  0  0  0  2  0  0  0  0  0  0
  189.8680  176.7820  140.6390 C   0  0  0  0  0  2  0  0  0  0  0  0
  189.2060  178.1360  140.4810 C   0  0  2  0  0  3  0  0  0  0  0  0
  188.1540  178.3160  141.5630 C   0  0  0  0  0  1  0  0  0  0  0  0
  188.5650  178.2090  139.1020 C   0  0  0  0  0  2  0  0  0  0  0  0
  188.8640  176.9650  138.2700 C   0  0  0  0  0  2  0  0  0  0  0  0
  187.9360  178.4390  136.5110 C   0  0  0  0  0  1  0  0  0  0  0  0
  188.1650  176.9960  136.9130 C   0  0  2  0  0  3  0  0  0  0  0  0
  186.8480  176.2530  136.9200 C   0  0  0  0  0  0  0  0  0  0  0  0
  185.8080  176.8560  136.6970 O   0  0  0  0  0  0  0  0  0  0  0  0
  186.7950  174.7530  137.1030 C   0  0  1  0  0  3  0  0  0  0  0  0
  185.3850  174.2180  136.8250 C   0  0  2  0  0  3  0  0  0  0  0  0
  185.0320  173.0790  137.7590 C   0  0  0  0  0  2  0  0  0  0  0  0
  184.2530  172.7920  135.5400 C   0  0  0  0  0  2  0  0  0  0  0  0
  184.2640  172.1240  136.8940 C   0  0  0  0  0  2  0  0  0  0  0  0
  185.2880  173.7360  135.5070 O   0  0  0  0  0  0  0  0  0  0  0  0
  187.8110  174.0330  136.2180 C   0  0  0  0  0  2  0  0  0  0  0  0
  188.9220  173.4070  137.0410 C   0  0  0  0  0  2  0  0  0  0  0  0
  190.2660  173.6210  136.3630 C   0  0  0  0  0  2  0  0  0  0  0  0
  191.2850  174.2260  137.3150 C   0  0  0  0  0  2  0  0  0  0  0  0
  193.5020  175.3170  137.4000 C   0  0  0  0  0  1  0  0  0  0  0  0
  192.2270  175.1720  136.5970 C   0  0  0  0  0  2  0  0  0  0  0  0
  1 31  1  6  0  0  0
  1  2  1  0  0  0  0
  3  2  1  0  0  0  0
  3  5  1  0  0  0  0
  4  3  2  0  0  0  0
  5  6  1  0  0  0  0
  7  1  1  0  0  0  0
  8  7  1  0  0  0  0
  8  9  1  0  0  0  0
  9 10  1  1  0  0  0
 11  9  1  0  0  0  0
 12 15  1  0  0  0  0
 12 11  1  0  0  0  0
 13 15  2  0  0  0  0
 14 12  2  0  0  0  0
 16 13  1  0  0  0  0
 17 16  2  0  0  0  0
 17 14  1  0  0  0  0
 18 16  1  0  0  0  0
 19 18  1  1  0  0  0
 20 21  1  0  0  0  0
 20 23  1  1  0  0  0
 21 22  1  0  0  0  0
 22 19  1  0  0  0  0
 23 19  1  0  0  0  0
 24 28  1  1  0  0  0
 25 27  1  0  0  0  0
 26 25  1  0  0  0  0
 26 29  1  0  0  0  0
 29 24  1  0  0  0  0
 30 27  1  1  0  0  0
 30 24  1  0  0  0  0
 30 20  1  0  0  0  0
 32 33  1  6  0  0  0
 32 31  1  0  0  0  0
 33 34  1  0  0  0  0
 36 35  2  0  0  0  0
 36 32  1  0  0  0  0
 37 36  1  0  0  0  0
 38 37  1  0  0  0  0
 39 38  1  0  0  0  0
 39 40  1  1  0  0  0
 41 39  1  0  0  0  0
 42 41  1  0  0  0  0
 44 43  1  1  0  0  0
 44 45  1  0  0  0  0
 44 42  1  0  0  0  0
 45 47  1  0  0  0  0
 46 45  2  0  0  0  0
 47 53  1  6  0  0  0
 48 47  1  1  0  0  0
 48 49  1  0  0  0  0
 50 51  1  0  0  0  0
 51 49  1  0  0  0  0
 52 50  1  0  0  0  0
 52 48  1  0  0  0  0
 53 54  1  0  0  0  0
 55 54  1  0  0  0  0
 55 56  1  0  0  0  0
 58 56  1  0  0  0  0
 58 57  1  0  0  0  0
M  END
>  <MODEL>
1

>  <REMARK>
 VINA RESULT:      -6.7      0.000      0.000
  Name = 
  29 active torsions:
  status: ('A' for Active; 'I' for Inactive)
    1  A    between atoms: C_2  and  C_29
    2  A    between atoms: C_2  and  C_31
    3  A    between atoms: O_3  and  C_19
    4  A    between atoms: O_3  and  C_23
    5  A    between atoms: N_4  and  C_7
    6  A    between atoms: C_5  and  C_26
    7  A    between atoms: C_7  and  C_41
    8  A    between atoms: C_9  and  O_40
    9  A    between atoms: C_10  and  C_15
   10  A    between atoms: C_10  and  O_40
   11  A    between atoms: C_12  and  C_20
   12  A    between atoms: C_12  and  C_49
   13  A    between atoms: C_15  and  C_27
   14  A    between atoms: C_20  and  C_26
   15  A    between atoms: C_21  and  C_30
   16  A    between atoms: C_21  and  C_31
   17  A    between atoms: C_24  and  C_28
   18  A    between atoms: C_24  and  C_57
   19  A    between atoms: C_26  and  C_30
   20  A    between atoms: C_27  and  C_28
   21  A    between atoms: C_28  and  C_41
   22  A    between atoms: C_29  and  C_43
   23  A    between atoms: N_34  and  C_53
   24  A    between atoms: C_38  and  C_57
   25  A    between atoms: C_39  and  N_55
   26  A    between atoms: C_39  and  C_57
   27  A    between atoms: C_43  and  N_55
   28  A    between atoms: C_47  and  C_49
   29  A    between atoms: C_47  and  C_58
                            x       y       z     vdW  Elec       q    Type
                         _______ _______ _______ _____ _____    ______ ____

>  <TORSDO>
F 29

$$$$
=
 OpenBabel11062417503D

 58 61  0  0  1  0  0  0  0  0999 V2000
  189.2570  177.7150  146.4810 C   0  0  2  0  0  3  0  0  0  0  0  0
  190.0350  176.3950  146.5000 C   0  0  0  0  0  2  0  0  0  0  0  0
  191.2900  176.4650  147.3180 C   0  0  0  0  0  0  0  0  0  0  0  0
  191.5070  177.4710  148.0470 O   0  0  0  0  0  0  0  0  0  0  0  0
  192.2460  175.4070  147.2450 N   0  0  0  0  0  2  0  0  0  0  0  0
  193.3460  175.5000  147.8280 O   0  0  0  0  0  1  0  0  0  0  0  0
  187.8750  177.5220  147.0880 C   0  0  0  0  0  2  0  0  0  0  0  0
  186.8070  177.2930  146.0290 C   0  0  0  0  0  2  0  0  0  0  0  0
  185.7220  178.3590  146.1310 C   0  0  1  0  0  3  0  0  0  0  0  0
  186.0690  179.3010  147.2650 C   0  0  0  0  0  1  0  0  0  0  0  0
  185.6280  179.1010  144.9160 O   0  0  0  0  0  0  0  0  0  0  0  0
  184.5250  179.0370  144.0570 C   0  0  0  0  0  0  0  0  0  0  0  0
  183.6610  178.7840  141.8030 C   0  0  0  0  0  3  0  0  0  0  0  0
  183.2080  179.0950  144.5450 C   0  0  0  0  0  3  0  0  0  0  0  0
  184.7420  178.9010  142.6820 C   0  0  0  0  0  3  0  0  0  0  0  0
  182.3500  178.7990  142.2900 C   0  0  0  0  0  0  0  0  0  0  0  0
  182.1290  178.9710  143.6680 C   0  0  0  0  0  3  0  0  0  0  0  0
  181.2890  178.6220  141.3950 O   0  0  0  0  0  0  0  0  0  0  0  0
  181.0460  177.3910  140.7250 C   0  0  2  0  0  3  0  0  0  0  0  0
  180.7710  176.8530  138.4740 N   0  0  1  0  0  0  0  0  0  0  0  0
  182.1210  176.8810  138.6760 O   0  0  0  0  0  0  0  0  0  0  0  0
  182.3120  176.9020  140.0730 C   0  0  0  0  0  2  0  0  0  0  0  0
  180.1500  177.6070  139.5520 C   0  0  0  0  0  2  0  0  0  0  0  0
  180.4320  176.4810  135.9470 C   0  0  2  0  0  3  0  0  0  0  0  0
  181.0350  179.1910  135.4290 C   0  0  0  0  0  2  0  0  0  0  0  0
  179.8690  178.6200  134.8860 O   0  0  0  0  0  0  0  0  0  0  0  0
  181.2260  178.7550  136.8900 C   0  0  0  0  0  2  0  0  0  0  0  0
  181.7180  175.6860  135.7670 C   0  0  0  0  0  1  0  0  0  0  0  0
  180.1630  177.2620  134.6440 C   0  0  0  0  0  2  0  0  0  0  0  0
  180.4770  177.4440  137.1580 C   0  0  2  0  0  3  0  0  0  0  0  0
  189.1850  178.3180  145.0760 C   0  0  0  0  0  2  0  0  0  0  0  0
  189.5690  177.2830  144.0270 C   0  0  1  0  0  3  0  0  0  0  0  0
  188.4170  177.0390  143.0630 C   0  0  0  0  0  2  0  0  0  0  0  0
  188.0530  175.6290  143.0700 N   0  0  0  0  0  1  0  0  0  0  0  0
  191.6940  178.9340  143.8900 S   0  0  0  0  0  0  0  0  0  0  0  0
  190.8360  177.6700  143.3160 C   0  0  0  0  0  0  0  0  0  0  0  0
  191.2800  177.0260  142.1170 N   0  0  0  0  0  2  0  0  0  0  0  0
  191.0880  177.5750  140.7840 C   0  0  0  0  0  2  0  0  0  0  0  0
  191.4970  176.5570  139.7390 C   0  0  2  0  0  3  0  0  0  0  0  0
  192.7290  177.0540  139.0010 C   0  0  0  0  0  1  0  0  0  0  0  0
  190.3420  176.3610  138.7670 C   0  0  0  0  0  2  0  0  0  0  0  0
  190.7030  176.8150  137.3560 C   0  0  0  0  0  2  0  0  0  0  0  0
  191.0140  175.8810  135.0840 C   0  0  0  0  0  1  0  0  0  0  0  0
  190.0900  175.9150  136.2850 C   0  0  2  0  0  3  0  0  0  0  0  0
  188.7150  176.3770  135.8560 C   0  0  0  0  0  0  0  0  0  0  0  0
  188.5990  177.3580  135.1360 O   0  0  0  0  0  0  0  0  0  0  0  0
  187.4750  175.5900  136.2200 C   0  0  1  0  0  3  0  0  0  0  0  0
  186.6880  176.2960  137.3300 C   0  0  2  0  0  3  0  0  0  0  0  0
  185.2870  176.6510  136.8740 C   0  0  0  0  0  2  0  0  0  0  0  0
  186.3110  178.2950  138.2390 C   0  0  0  0  0  2  0  0  0  0  0  0
  185.0330  177.9940  137.4920 C   0  0  0  0  0  2  0  0  0  0  0  0
  187.3280  177.4870  137.7130 O   0  0  0  0  0  0  0  0  0  0  0  0
  186.5740  175.3520  135.0110 C   0  0  0  0  0  2  0  0  0  0  0  0
  186.2670  173.8770  134.8260 C   0  0  0  0  0  2  0  0  0  0  0  0
  184.8860  173.5530  135.3730 C   0  0  0  0  0  2  0  0  0  0  0  0
  184.4950  172.1110  135.0920 C   0  0  0  0  0  2  0  0  0  0  0  0
  185.7600  170.0400  134.6200 C   0  0  0  0  0  1  0  0  0  0  0  0
  185.5240  171.1380  135.6340 C   0  0  0  0  0  2  0  0  0  0  0  0
  1 31  1  6  0  0  0
  1  2  1  0  0  0  0
  1  7  1  0  0  0  0
  2  3  1  0  0  0  0
  3  4  2  0  0  0  0
  5  3  1  0  0  0  0
  5  6  1  0  0  0  0
  8  9  1  0  0  0  0
  8  7  1  0  0  0  0
  9 10  1  1  0  0  0
 11  9  1  0  0  0  0
 12 14  1  0  0  0  0
 12 11  1  0  0  0  0
 13 16  2  0  0  0  0
 13 15  1  0  0  0  0
 15 12  2  0  0  0  0
 16 17  1  0  0  0  0
 17 14  2  0  0  0  0
 18 16  1  0  0  0  0
 19 18  1  6  0  0  0
 20 21  1  0  0  0  0
 20 23  1  1  0  0  0
 21 22  1  0  0  0  0
 22 19  1  0  0  0  0
 23 19  1  0  0  0  0
 24 28  1  6  0  0  0
 24 30  1  0  0  0  0
 25 27  1  0  0  0  0
 26 25  1  0  0  0  0
 29 26  1  0  0  0  0
 29 24  1  0  0  0  0
 30 27  1  6  0  0  0
 30 20  1  0  0  0  0
 32 33  1  6  0  0  0
 32 31  1  0  0  0  0
 33 34  1  0  0  0  0
 36 35  2  0  0  0  0
 36 32  1  0  0  0  0
 37 36  1  0  0  0  0
 38 37  1  0  0  0  0
 39 40  1  6  0  0  0
 39 38  1  0  0  0  0
 41 39  1  0  0  0  0
 42 41  1  0  0  0  0
 44 43  1  6  0  0  0
 44 42  1  0  0  0  0
 45 47  1  0  0  0  0
 45 44  1  0  0  0  0
 46 45  2  0  0  0  0
 47 53  1  6  0  0  0
 48 47  1  6  0  0  0
 48 52  1  0  0  0  0
 49 48  1  0  0  0  0
 49 51  1  0  0  0  0
 51 50  1  0  0  0  0
 52 50  1  0  0  0  0
 54 53  1  0  0  0  0
 54 55  1  0  0  0  0
 56 55  1  0  0  0  0
 56 58  1  0  0  0  0
 57 58  1  0  0  0  0
M  END
>  <MODEL>
2

>  <REMARK>
 VINA RESULT:      -5.9      1.970      3.585
  Name = 
  29 active torsions:
  status: ('A' for Active; 'I' for Inactive)
    1  A    between atoms: C_2  and  C_29
    2  A    between atoms: C_2  and  C_31
    3  A    between atoms: O_3  and  C_19
    4  A    between atoms: O_3  and  C_23
    5  A    between atoms: N_4  and  C_7
    6  A    between atoms: C_5  and  C_26
    7  A    between atoms: C_7  and  C_41
    8  A    between atoms: C_9  and  O_40
    9  A    between atoms: C_10  and  C_15
   10  A    between atoms: C_10  and  O_40
   11  A    between atoms: C_12  and  C_20
   12  A    between atoms: C_12  and  C_49
   13  A    between atoms: C_15  and  C_27
   14  A    between atoms: C_20  and  C_26
   15  A    between atoms: C_21  and  C_30
   16  A    between atoms: C_21  and  C_31
   17  A    between atoms: C_24  and  C_28
   18  A    between atoms: C_24  and  C_57
   19  A    between atoms: C_26  and  C_30
   20  A    between atoms: C_27  and  C_28
   21  A    between atoms: C_28  and  C_41
   22  A    between atoms: C_29  and  C_43
   23  A    between atoms: N_34  and  C_53
   24  A    between atoms: C_38  and  C_57
   25  A    between atoms: C_39  and  N_55
   26  A    between atoms: C_39  and  C_57
   27  A    between atoms: C_43  and  N_55
   28  A    between atoms: C_47  and  C_49
   29  A    between atoms: C_47  and  C_58
                            x       y       z     vdW  Elec       q    Type
                         _______ _______ _______ _____ _____    ______ ____

>  <TORSDO>
F 29

$$$$
=
 OpenBabel11062417503D

 58 61  0  0  1  0  0  0  0  0999 V2000
  189.1690  177.9780  138.7920 C   0  0  2  0  0  3  0  0  0  0  0  0
  189.9030  177.0300  139.7470 C   0  0  0  0  0  2  0  0  0  0  0  0
  191.3900  177.0360  139.5510 C   0  0  0  0  0  0  0  0  0  0  0  0
  192.1270  177.6560  140.3660 O   0  0  0  0  0  0  0  0  0  0  0  0
  191.9610  176.3670  138.4270 N   0  0  0  0  0  2  0  0  0  0  0  0
  192.9120  176.8750  137.7970 O   0  0  0  0  0  1  0  0  0  0  0  0
  187.7270  178.1650  139.2410 C   0  0  0  0  0  2  0  0  0  0  0  0
  187.6280  178.5850  140.7010 C   0  0  0  0  0  2  0  0  0  0  0  0
  186.1750  178.8470  141.0800 C   0  0  1  0  0  3  0  0  0  0  0  0
  185.3200  178.7440  139.8340 C   0  0  0  0  0  1  0  0  0  0  0  0
  185.7240  177.8910  142.0390 O   0  0  0  0  0  0  0  0  0  0  0  0
  185.8910  178.0470  143.4200 C   0  0  0  0  0  0  0  0  0  0  0  0
  187.3120  177.8360  145.3760 C   0  0  0  0  0  3  0  0  0  0  0  0
  184.8830  178.6060  144.2240 C   0  0  0  0  0  3  0  0  0  0  0  0
  187.0950  177.6470  144.0070 C   0  0  0  0  0  3  0  0  0  0  0  0
  186.3270  178.4290  146.1710 C   0  0  0  0  0  0  0  0  0  0  0  0
  185.1010  178.8000  145.5890 C   0  0  0  0  0  3  0  0  0  0  0  0
  186.5920  178.6590  147.5250 O   0  0  0  0  0  0  0  0  0  0  0  0
  187.4840  177.8490  148.2820 C   0  0  2  0  0  3  0  0  0  0  0  0
  189.5090  176.8230  147.7550 N   0  0  1  0  0  0  0  0  0  0  0  0
  189.8310  178.1060  148.0880 O   0  0  0  0  0  0  0  0  0  0  0  0
  188.6850  178.6570  148.6960 C   0  0  0  0  0  2  0  0  0  0  0  0
  188.0940  176.7980  147.4160 C   0  0  0  0  0  2  0  0  0  0  0  0
  191.5030  175.4190  146.9200 C   0  0  2  0  0  3  0  0  0  0  0  0
  191.7690  177.0810  144.6520 C   0  0  0  0  0  2  0  0  0  0  0  0
  191.7130  175.6830  144.4900 O   0  0  0  0  0  0  0  0  0  0  0  0
  190.7290  177.5540  145.6790 C   0  0  0  0  0  2  0  0  0  0  0  0
  192.4670  175.9370  147.9780 C   0  0  0  0  0  1  0  0  0  0  0  0
  192.3090  175.1230  145.6390 C   0  0  0  0  0  2  0  0  0  0  0  0
  190.3460  176.4040  146.6190 C   0  0  2  0  0  3  0  0  0  0  0  0
  189.2590  177.5090  137.3380 C   0  0  0  0  0  2  0  0  0  0  0  0
  187.8770  177.1620  136.7990 C   0  0  1  0  0  3  0  0  0  0  0  0
  187.4980  178.0860  135.6500 C   0  0  0  0  0  2  0  0  0  0  0  0
  186.3500  177.5450  134.9350 N   0  0  0  0  0  1  0  0  0  0  0  0
  188.6920  175.1810  135.1650 S   0  0  0  0  0  0  0  0  0  0  0  0
  187.7890  175.7110  136.4160 C   0  0  0  0  0  0  0  0  0  0  0  0
  186.8930  174.7940  137.0530 N   0  0  0  0  0  2  0  0  0  0  0  0
  185.4690  175.0370  137.2210 C   0  0  0  0  0  2  0  0  0  0  0  0
  184.7580  173.7440  137.5680 C   0  0  2  0  0  3  0  0  0  0  0  0
  184.8380  172.7890  136.3890 C   0  0  0  0  0  1  0  0  0  0  0  0
  183.3050  174.0580  137.8970 C   0  0  0  0  0  2  0  0  0  0  0  0
  183.1300  175.4950  138.3810 C   0  0  0  0  0  2  0  0  0  0  0  0
  181.7230  175.7540  136.3610 C   0  0  0  0  0  1  0  0  0  0  0  0
  181.8680  176.1450  137.8170 C   0  0  2  0  0  3  0  0  0  0  0  0
  181.8870  177.6530  137.9410 C   0  0  0  0  0  0  0  0  0  0  0  0
  182.8630  178.2830  137.5610 O   0  0  0  0  0  0  0  0  0  0  0  0
  180.6780  178.4130  138.4370 C   0  0  1  0  0  3  0  0  0  0  0  0
  181.0080  179.1880  139.7180 C   0  0  2  0  0  3  0  0  0  0  0  0
  181.7680  178.3250  140.7050 C   0  0  0  0  0  2  0  0  0  0  0  0
  180.1750  179.7700  141.7010 C   0  0  0  0  0  2  0  0  0  0  0  0
  181.2100  178.7240  142.0400 C   0  0  0  0  0  2  0  0  0  0  0  0
  179.8310  179.6270  140.3500 O   0  0  0  0  0  0  0  0  0  0  0  0
  180.1270  179.3650  137.3780 C   0  0  0  0  0  2  0  0  0  0  0  0
  180.8150  180.7170  137.4310 C   0  0  0  0  0  2  0  0  0  0  0  0
  179.9370  181.7820  136.7930 C   0  0  0  0  0  2  0  0  0  0  0  0
  180.0050  183.0950  137.5550 C   0  0  0  0  0  2  0  0  0  0  0  0
  180.8940  183.6860  135.3250 C   0  0  0  0  0  1  0  0  0  0  0  0
  180.6800  184.1800  136.7400 C   0  0  0  0  0  2  0  0  0  0  0  0
  1 31  1  6  0  0  0
  1  7  1  0  0  0  0
  1  2  1  0  0  0  0
  3  2  1  0  0  0  0
  3  4  2  0  0  0  0
  5  3  1  0  0  0  0
  6  5  1  0  0  0  0
  7  8  1  0  0  0  0
  8  9  1  0  0  0  0
  9 10  1  6  0  0  0
  9 11  1  0  0  0  0
 11 12  1  0  0  0  0
 12 15  2  0  0  0  0
 12 14  1  0  0  0  0
 13 16  2  0  0  0  0
 14 17  2  0  0  0  0
 15 13  1  0  0  0  0
 16 18  1  0  0  0  0
 17 16  1  0  0  0  0
 19 18  1  6  0  0  0
 19 22  1  0  0  0  0
 20 23  1  6  0  0  0
 20 21  1  0  0  0  0
 21 22  1  0  0  0  0
 23 19  1  0  0  0  0
 24 28  1  1  0  0  0
 25 27  1  0  0  0  0
 26 25  1  0  0  0  0
 26 29  1  0  0  0  0
 29 24  1  0  0  0  0
 30 27  1  1  0  0  0
 30 24  1  0  0  0  0
 30 20  1  0  0  0  0
 32 33  1  6  0  0  0
 32 31  1  0  0  0  0
 34 33  1  0  0  0  0
 35 36  2  0  0  0  0
 36 32  1  0  0  0  0
 36 37  1  0  0  0  0
 37 38  1  0  0  0  0
 38 39  1  0  0  0  0
 39 40  1  6  0  0  0
 39 41  1  0  0  0  0
 41 42  1  0  0  0  0
 44 43  1  6  0  0  0
 44 45  1  0  0  0  0
 44 42  1  0  0  0  0
 45 47  1  0  0  0  0
 46 45  2  0  0  0  0
 47 53  1  6  0  0  0
 48 47  1  6  0  0  0
 48 52  1  0  0  0  0
 48 49  1  0  0  0  0
 49 51  1  0  0  0  0
 50 51  1  0  0  0  0
 52 50  1  0  0  0  0
 53 54  1  0  0  0  0
 55 54  1  0  0  0  0
 55 56  1  0  0  0  0
 57 58  1  0  0  0  0
 58 56  1  0  0  0  0
M  END
>  <MODEL>
3

>  <REMARK>
 VINA RESULT:      -5.7      2.945      9.335
  Name = 
  29 active torsions:
  status: ('A' for Active; 'I' for Inactive)
    1  A    between atoms: C_2  and  C_29
    2  A    between atoms: C_2  and  C_31
    3  A    between atoms: O_3  and  C_19
    4  A    between atoms: O_3  and  C_23
    5  A    between atoms: N_4  and  C_7
    6  A    between atoms: C_5  and  C_26
    7  A    between atoms: C_7  and  C_41
    8  A    between atoms: C_9  and  O_40
    9  A    between atoms: C_10  and  C_15
   10  A    between atoms: C_10  and  O_40
   11  A    between atoms: C_12  and  C_20
   12  A    between atoms: C_12  and  C_49
   13  A    between atoms: C_15  and  C_27
   14  A    between atoms: C_20  and  C_26
   15  A    between atoms: C_21  and  C_30
   16  A    between atoms: C_21  and  C_31
   17  A    between atoms: C_24  and  C_28
   18  A    between atoms: C_24  and  C_57
   19  A    between atoms: C_26  and  C_30
   20  A    between atoms: C_27  and  C_28
   21  A    between atoms: C_28  and  C_41
   22  A    between atoms: C_29  and  C_43
   23  A    between atoms: N_34  and  C_53
   24  A    between atoms: C_38  and  C_57
   25  A    between atoms: C_39  and  N_55
   26  A    between atoms: C_39  and  C_57
   27  A    between atoms: C_43  and  N_55
   28  A    between atoms: C_47  and  C_49
   29  A    between atoms: C_47  and  C_58
                            x       y       z     vdW  Elec       q    Type
                         _______ _______ _______ _____ _____    ______ ____

>  <TORSDO>
F 29

$$$$
=
 OpenBabel11062417503D

 58 61  0  0  1  0  0  0  0  0999 V2000
  190.4200  177.1610  146.1710 C   0  0  2  0  0  3  0  0  0  0  0  0
  190.7260  176.0230  147.1510 C   0  0  0  0  0  2  0  0  0  0  0  0
  192.1440  175.5420  147.0670 C   0  0  0  0  0  0  0  0  0  0  0  0
  193.0460  176.1320  147.7220 O   0  0  0  0  0  0  0  0  0  0  0  0
  192.4710  174.4390  146.2220 N   0  0  0  0  0  2  0  0  0  0  0  0
  192.4560  174.5610  144.9790 O   0  0  0  0  0  1  0  0  0  0  0  0
  188.9570  177.1180  145.7530 C   0  0  0  0  0  2  0  0  0  0  0  0
  188.1640  178.2920  146.3090 C   0  0  0  0  0  2  0  0  0  0  0  0
  186.9660  177.7910  147.1070 C   0  0  1  0  0  3  0  0  0  0  0  0
  187.3050  177.8430  148.5820 C   0  0  0  0  0  1  0  0  0  0  0  0
  185.8200  178.6060  146.8610 O   0  0  0  0  0  0  0  0  0  0  0  0
  185.1740  178.6720  145.6210 C   0  0  0  0  0  0  0  0  0  0  0  0
  185.2720  178.3980  143.2110 C   0  0  0  0  0  3  0  0  0  0  0  0
  183.8120  179.0050  145.5180 C   0  0  0  0  0  3  0  0  0  0  0  0
  185.9010  178.3890  144.4600 C   0  0  0  0  0  3  0  0  0  0  0  0
  183.9080  178.6870  143.1100 C   0  0  0  0  0  0  0  0  0  0  0  0
  183.1830  179.0070  144.2720 C   0  0  0  0  0  3  0  0  0  0  0  0
  183.2910  178.6330  141.8560 O   0  0  0  0  0  0  0  0  0  0  0  0
  183.8570  177.9380  140.7500 C   0  0  2  0  0  3  0  0  0  0  0  0
  182.9420  177.1300  138.7650 N   0  0  1  0  0  0  0  0  0  0  0  0
  183.2130  178.4470  138.5280 O   0  0  0  0  0  0  0  0  0  0  0  0
  184.0340  178.8800  139.5890 C   0  0  0  0  0  2  0  0  0  0  0  0
  182.8850  176.9460  140.2070 C   0  0  0  0  0  2  0  0  0  0  0  0
  181.6810  176.5710  136.5880 C   0  0  2  0  0  3  0  0  0  0  0  0
  179.2340  177.3510  137.7630 C   0  0  0  0  0  2  0  0  0  0  0  0
  179.3310  176.1040  137.1160 O   0  0  0  0  0  0  0  0  0  0  0  0
  180.4770  177.6160  138.6260 C   0  0  0  0  0  2  0  0  0  0  0  0
  182.2210  177.7710  135.8230 C   0  0  0  0  0  1  0  0  0  0  0  0
  180.2610  176.2680  136.0680 C   0  0  0  0  0  2  0  0  0  0  0  0
  181.6640  176.7860  138.1220 C   0  0  2  0  0  3  0  0  0  0  0  0
  191.3600  177.1470  144.9630 C   0  0  0  0  0  2  0  0  0  0  0  0
  190.7160  177.8460  143.7720 C   0  0  1  0  0  3  0  0  0  0  0  0
  191.4820  179.1110  143.4110 C   0  0  0  0  0  2  0  0  0  0  0  0
  191.6460  179.9470  144.5930 N   0  0  0  0  0  1  0  0  0  0  0  0
  189.8060  175.4900  142.8340 S   0  0  0  0  0  0  0  0  0  0  0  0
  190.5730  176.9120  142.6030 C   0  0  0  0  0  0  0  0  0  0  0  0
  191.1440  177.1830  141.3200 N   0  0  0  0  0  2  0  0  0  0  0  0
  190.4760  176.9010  140.0590 C   0  0  0  0  0  2  0  0  0  0  0  0
  189.6610  178.1020  139.6220 C   0  0  2  0  0  3  0  0  0  0  0  0
  188.2640  178.0090  140.2120 C   0  0  0  0  0  1  0  0  0  0  0  0
  189.5940  178.1210  138.1020 C   0  0  0  0  0  2  0  0  0  0  0  0
  188.3390  177.4270  137.5800 C   0  0  0  0  0  2  0  0  0  0  0  0
  187.1100  177.8880  135.4820 C   0  0  0  0  0  1  0  0  0  0  0  0
  188.3600  177.2580  136.0620 C   0  0  2  0  0  3  0  0  0  0  0  0
  188.4440  175.8090  135.6400 C   0  0  0  0  0  0  0  0  0  0  0  0
  187.9170  175.4460  134.5970 O   0  0  0  0  0  0  0  0  0  0  0  0
  189.2540  174.8070  136.4320 C   0  0  1  0  0  3  0  0  0  0  0  0
  188.3760  173.6390  136.8940 C   0  0  2  0  0  3  0  0  0  0  0  0
  188.2300  172.5930  135.8070 C   0  0  0  0  0  2  0  0  0  0  0  0
  186.2560  172.9740  137.0620 C   0  0  0  0  0  2  0  0  0  0  0  0
  186.8040  172.1430  135.9260 C   0  0  0  0  0  2  0  0  0  0  0  0
  187.0880  174.0890  137.2320 O   0  0  0  0  0  0  0  0  0  0  0  0
  190.4480  174.2810  135.6370 C   0  0  0  0  0  2  0  0  0  0  0  0
  191.5450  173.7690  136.5520 C   0  0  0  0  0  2  0  0  0  0  0  0
  191.9710  174.8560  137.5260 C   0  0  0  0  0  2  0  0  0  0  0  0
  193.4630  175.1350  137.4380 C   0  0  0  0  0  2  0  0  0  0  0  0
  195.4770  174.4370  138.6910 C   0  0  0  0  0  1  0  0  0  0  0  0
  194.2810  173.9460  137.9020 C   0  0  0  0  0  2  0  0  0  0  0  0
  1 31  1  6  0  0  0
  1  2  1  0  0  0  0
  3  2  1  0  0  0  0
  3  4  2  0  0  0  0
  5  3  1  0  0  0  0
  6  5  1  0  0  0  0
  7  1  1  0  0  0  0
  7  8  1  0  0  0  0
  8  9  1  0  0  0  0
  9 10  1  1  0  0  0
 11  9  1  0  0  0  0
 12 11  1  0  0  0  0
 13 15  1  0  0  0  0
 14 12  1  0  0  0  0
 15 12  2  0  0  0  0
 16 13  2  0  0  0  0
 16 17  1  0  0  0  0
 17 14  2  0  0  0  0
 18 16  1  0  0  0  0
 19 18  1  1  0  0  0
 20 23  1  1  0  0  0
 21 20  1  0  0  0  0
 21 22  1  0  0  0  0
 22 19  1  0  0  0  0
 23 19  1  0  0  0  0
 24 28  1  6  0  0  0
 24 30  1  0  0  0  0
 25 27  1  0  0  0  0
 26 25  1  0  0  0  0
 29 24  1  0  0  0  0
 29 26  1  0  0  0  0
 30 27  1  6  0  0  0
 30 20  1  0  0  0  0
 32 33  1  6  0  0  0
 32 31  1  0  0  0  0
 33 34  1  0  0  0  0
 36 35  2  0  0  0  0
 36 32  1  0  0  0  0
 37 36  1  0  0  0  0
 38 37  1  0  0  0  0
 39 38  1  0  0  0  0
 39 40  1  1  0  0  0
 41 39  1  0  0  0  0
 42 41  1  0  0  0  0
 44 43  1  6  0  0  0
 44 42  1  0  0  0  0
 45 44  1  0  0  0  0
 45 47  1  0  0  0  0
 46 45  2  0  0  0  0
 47 53  1  6  0  0  0
 48 47  1  6  0  0  0
 48 52  1  0  0  0  0
 49 51  1  0  0  0  0
 49 48  1  0  0  0  0
 50 52  1  0  0  0  0
 51 50  1  0  0  0  0
 53 54  1  0  0  0  0
 54 55  1  0  0  0  0
 56 55  1  0  0  0  0
 56 58  1  0  0  0  0
 58 57  1  0  0  0  0
M  END
>  <MODEL>
4

>  <REMARK>
 VINA RESULT:      -5.5      1.360      2.100
  Name = 
  29 active torsions:
  status: ('A' for Active; 'I' for Inactive)
    1  A    between atoms: C_2  and  C_29
    2  A    between atoms: C_2  and  C_31
    3  A    between atoms: O_3  and  C_19
    4  A    between atoms: O_3  and  C_23
    5  A    between atoms: N_4  and  C_7
    6  A    between atoms: C_5  and  C_26
    7  A    between atoms: C_7  and  C_41
    8  A    between atoms: C_9  and  O_40
    9  A    between atoms: C_10  and  C_15
   10  A    between atoms: C_10  and  O_40
   11  A    between atoms: C_12  and  C_20
   12  A    between atoms: C_12  and  C_49
   13  A    between atoms: C_15  and  C_27
   14  A    between atoms: C_20  and  C_26
   15  A    between atoms: C_21  and  C_30
   16  A    between atoms: C_21  and  C_31
   17  A    between atoms: C_24  and  C_28
   18  A    between atoms: C_24  and  C_57
   19  A    between atoms: C_26  and  C_30
   20  A    between atoms: C_27  and  C_28
   21  A    between atoms: C_28  and  C_41
   22  A    between atoms: C_29  and  C_43
   23  A    between atoms: N_34  and  C_53
   24  A    between atoms: C_38  and  C_57
   25  A    between atoms: C_39  and  N_55
   26  A    between atoms: C_39  and  C_57
   27  A    between atoms: C_43  and  N_55
   28  A    between atoms: C_47  and  C_49
   29  A    between atoms: C_47  and  C_58
                            x       y       z     vdW  Elec       q    Type
                         _______ _______ _______ _____ _____    ______ ____

>  <TORSDO>
F 29

$$$$
=
 OpenBabel11062417503D

 58 61  0  0  1  0  0  0  0  0999 V2000
  183.5310  175.4050  137.1600 C   0  0  2  0  0  3  0  0  0  0  0  0
  183.3270  173.8850  137.1560 C   0  0  0  0  0  2  0  0  0  0  0  0
  182.2110  173.4450  136.2570 C   0  0  0  0  0  0  0  0  0  0  0  0
  181.0140  173.6330  136.6050 O   0  0  0  0  0  0  0  0  0  0  0  0
  182.5100  172.7890  135.0240 N   0  0  0  0  0  2  0  0  0  0  0  0
  183.5010  172.0360  134.9270 O   0  0  0  0  0  1  0  0  0  0  0  0
  184.8660  175.7600  136.5210 C   0  0  0  0  0  2  0  0  0  0  0  0
  185.3890  177.1090  136.9900 C   0  0  0  0  0  2  0  0  0  0  0  0
  186.8340  177.3010  136.5460 C   0  0  1  0  0  3  0  0  0  0  0  0
  187.2640  178.7140  136.8790 C   0  0  0  0  0  1  0  0  0  0  0  0
  187.6940  176.3800  137.2160 O   0  0  0  0  0  0  0  0  0  0  0  0
  188.9960  176.0920  136.7920 C   0  0  0  0  0  0  0  0  0  0  0  0
  190.7080  176.2690  135.0810 C   0  0  0  0  0  3  0  0  0  0  0  0
  189.9080  175.4170  137.6210 C   0  0  0  0  0  3  0  0  0  0  0  0
  189.3990  176.4970  135.5150 C   0  0  0  0  0  3  0  0  0  0  0  0
  191.6300  175.6350  135.9190 C   0  0  0  0  0  0  0  0  0  0  0  0
  191.2170  175.1950  137.1890 C   0  0  0  0  0  3  0  0  0  0  0  0
  192.9480  175.4710  135.4810 O   0  0  0  0  0  0  0  0  0  0  0  0
  194.0630  176.0250  136.1720 C   0  0  2  0  0  3  0  0  0  0  0  0
  196.1890  175.1970  136.6450 N   0  0  1  0  0  0  0  0  0  0  0  0
  196.2730  175.7040  135.3810 O   0  0  0  0  0  0  0  0  0  0  0  0
  195.1070  176.4720  135.1840 C   0  0  0  0  0  2  0  0  0  0  0  0
  194.7830  174.9630  136.9330 C   0  0  0  0  0  2  0  0  0  0  0  0
  198.5140  174.0900  136.7550 C   0  0  2  0  0  3  0  0  0  0  0  0
  197.4540  171.6810  135.7300 C   0  0  0  0  0  2  0  0  0  0  0  0
  198.2400  171.6560  136.8970 O   0  0  0  0  0  0  0  0  0  0  0  0
  196.4660  172.8580  135.7620 C   0  0  0  0  0  2  0  0  0  0  0  0
  199.0780  174.8750  135.5790 C   0  0  0  0  0  1  0  0  0  0  0  0
  199.1800  172.6990  136.7690 C   0  0  0  0  0  2  0  0  0  0  0  0
  196.9720  173.9520  136.7090 C   0  0  2  0  0  3  0  0  0  0  0  0
  183.3920  175.9990  138.5630 C   0  0  0  0  0  2  0  0  0  0  0  0
  182.3030  177.0650  138.5900 C   0  0  1  0  0  3  0  0  0  0  0  0
  180.9240  176.4250  138.6580 C   0  0  0  0  0  2  0  0  0  0  0  0
  180.9240  175.3470  139.6370 N   0  0  0  0  0  1  0  0  0  0  0  0
  181.4580  179.2630  139.8990 S   0  0  0  0  0  0  0  0  0  0  0  0
  182.5310  178.0500  139.7020 C   0  0  0  0  0  0  0  0  0  0  0  0
  183.6870  178.0130  140.5460 N   0  0  0  0  0  2  0  0  0  0  0  0
  184.1370  179.1350  141.3540 C   0  0  0  0  0  2  0  0  0  0  0  0
  185.6120  178.9880  141.6730 C   0  0  2  0  0  3  0  0  0  0  0  0
  186.3520  178.5070  140.4360 C   0  0  0  0  0  1  0  0  0  0  0  0
  185.7690  177.9860  142.8070 C   0  0  0  0  0  2  0  0  0  0  0  0
  187.2370  177.6930  143.1060 C   0  0  0  0  0  2  0  0  0  0  0  0
  186.1830  177.3460  145.3190 C   0  0  0  0  0  1  0  0  0  0  0  0
  187.4370  177.1080  144.5030 C   0  0  2  0  0  3  0  0  0  0  0  0
  188.6300  177.7030  145.2160 C   0  0  0  0  0  0  0  0  0  0  0  0
  188.4620  178.5450  146.0870 O   0  0  0  0  0  0  0  0  0  0  0  0
  190.0330  177.2070  144.9450 C   0  0  1  0  0  3  0  0  0  0  0  0
  190.5470  176.3570  146.1130 C   0  0  2  0  0  3  0  0  0  0  0  0
  190.6340  177.1680  147.3900 C   0  0  0  0  0  2  0  0  0  0  0  0
  192.4140  175.6330  147.0900 C   0  0  0  0  0  2  0  0  0  0  0  0
  191.8870  176.6730  148.0490 C   0  0  0  0  0  2  0  0  0  0  0  0
  191.8310  175.8560  145.8350 O   0  0  0  0  0  0  0  0  0  0  0  0
  190.1170  176.4130  143.6440 C   0  0  0  0  0  2  0  0  0  0  0  0
  190.8750  177.1760  142.5730 C   0  0  0  0  0  2  0  0  0  0  0  0
  190.4490  176.7080  141.1900 C   0  0  0  0  0  2  0  0  0  0  0  0
  191.1380  177.5020  140.0920 C   0  0  0  0  0  2  0  0  0  0  0  0
  193.5120  176.8620  139.8340 C   0  0  0  0  0  1  0  0  0  0  0  0
  192.5630  177.8560  140.4690 C   0  0  0  0  0  2  0  0  0  0  0  0
  1  7  1  1  0  0  0
  1 31  1  0  0  0  0
  2  1  1  0  0  0  0
  3  4  2  0  0  0  0
  3  2  1  0  0  0  0
  5  3  1  0  0  0  0
  6  5  1  0  0  0  0
  7  8  1  0  0  0  0
  9 10  1  1  0  0  0
  9  8  1  0  0  0  0
  9 11  1  0  0  0  0
 12 11  1  0  0  0  0
 12 14  1  0  0  0  0
 13 15  1  0  0  0  0
 13 16  2  0  0  0  0
 15 12  2  0  0  0  0
 16 17  1  0  0  0  0
 17 14  2  0  0  0  0
 18 16  1  0  0  0  0
 19 18  1  6  0  0  0
 19 23  1  0  0  0  0
 20 30  1  0  0  0  0
 20 23  1  6  0  0  0
 21 20  1  0  0  0  0
 22 21  1  0  0  0  0
 22 19  1  0  0  0  0
 24 28  1  6  0  0  0
 24 29  1  0  0  0  0
 25 27  1  0  0  0  0
 25 26  1  0  0  0  0
 29 26  1  0  0  0  0
 30 27  1  6  0  0  0
 30 24  1  0  0  0  0
 32 31  1  1  0  0  0
 32 33  1  0  0  0  0
 32 36  1  0  0  0  0
 33 34  1  0  0  0  0
 36 35  2  0  0  0  0
 36 37  1  0  0  0  0
 37 38  1  0  0  0  0
 38 39  1  0  0  0  0
 39 40  1  6  0  0  0
 39 41  1  0  0  0  0
 41 42  1  0  0  0  0
 42 44  1  0  0  0  0
 44 45  1  0  0  0  0
 44 43  1  1  0  0  0
 45 46  2  0  0  0  0
 47 53  1  6  0  0  0
 47 45  1  0  0  0  0
 48 47  1  6  0  0  0
 48 49  1  0  0  0  0
 49 51  1  0  0  0  0
 50 51  1  0  0  0  0
 52 48  1  0  0  0  0
 52 50  1  0  0  0  0
 54 53  1  0  0  0  0
 55 54  1  0  0  0  0
 56 58  1  0  0  0  0
 56 55  1  0  0  0  0
 57 58  1  0  0  0  0
M  END
>  <MODEL>
5

>  <REMARK>
 VINA RESULT:      -5.3      3.775     11.908
  Name = 
  29 active torsions:
  status: ('A' for Active; 'I' for Inactive)
    1  A    between atoms: C_2  and  C_29
    2  A    between atoms: C_2  and  C_31
    3  A    between atoms: O_3  and  C_19
    4  A    between atoms: O_3  and  C_23
    5  A    between atoms: N_4  and  C_7
    6  A    between atoms: C_5  and  C_26
    7  A    between atoms: C_7  and  C_41
    8  A    between atoms: C_9  and  O_40
    9  A    between atoms: C_10  and  C_15
   10  A    between atoms: C_10  and  O_40
   11  A    between atoms: C_12  and  C_20
   12  A    between atoms: C_12  and  C_49
   13  A    between atoms: C_15  and  C_27
   14  A    between atoms: C_20  and  C_26
   15  A    between atoms: C_21  and  C_30
   16  A    between atoms: C_21  and  C_31
   17  A    between atoms: C_24  and  C_28
   18  A    between atoms: C_24  and  C_57
   19  A    between atoms: C_26  and  C_30
   20  A    between atoms: C_27  and  C_28
   21  A    between atoms: C_28  and  C_41
   22  A    between atoms: C_29  and  C_43
   23  A    between atoms: N_34  and  C_53
   24  A    between atoms: C_38  and  C_57
   25  A    between atoms: C_39  and  N_55
   26  A    between atoms: C_39  and  C_57
   27  A    between atoms: C_43  and  N_55
   28  A    between atoms: C_47  and  C_49
   29  A    between atoms: C_47  and  C_58
                            x       y       z     vdW  Elec       q    Type
                         _______ _______ _______ _____ _____    ______ ____

>  <TORSDO>
F 29

$$$$
=
 OpenBabel11062417503D

 58 61  0  0  1  0  0  0  0  0999 V2000
  184.5280  178.2100  142.3020 C   0  0  2  0  0  3  0  0  0  0  0  0
  183.5120  179.2660  142.7520 C   0  0  0  0  0  2  0  0  0  0  0  0
  182.6820  178.8220  143.9200 C   0  0  0  0  0  0  0  0  0  0  0  0
  183.2410  178.3000  144.9220 O   0  0  0  0  0  0  0  0  0  0  0  0
  181.2620  178.9650  143.8770 N   0  0  0  0  0  2  0  0  0  0  0  0
  180.5320  177.9940  143.5900 O   0  0  0  0  0  1  0  0  0  0  0  0
  185.9440  178.7510  142.4310 C   0  0  0  0  0  2  0  0  0  0  0  0
  186.9950  177.6990  142.1100 C   0  0  0  0  0  2  0  0  0  0  0  0
  187.5180  177.8890  140.6900 C   0  0  1  0  0  3  0  0  0  0  0  0
  187.7210  179.3680  140.4390 C   0  0  0  0  0  1  0  0  0  0  0  0
  188.7600  177.2080  140.5150 O   0  0  0  0  0  0  0  0  0  0  0  0
  189.5980  176.8490  141.5780 C   0  0  0  0  0  0  0  0  0  0  0  0
  191.6520  177.2160  142.8170 C   0  0  0  0  0  3  0  0  0  0  0  0
  189.2390  175.8420  142.4900 C   0  0  0  0  0  3  0  0  0  0  0  0
  190.8160  177.5170  141.7370 C   0  0  0  0  0  3  0  0  0  0  0  0
  191.2780  176.2450  143.7500 C   0  0  0  0  0  0  0  0  0  0  0  0
  190.0710  175.5460  143.5710 C   0  0  0  0  0  3  0  0  0  0  0  0
  192.1060  176.0030  144.8510 O   0  0  0  0  0  0  0  0  0  0  0  0
  191.8900  176.6060  146.1220 C   0  0  2  0  0  3  0  0  0  0  0  0
  189.9920  177.4980  147.1380 N   0  0  1  0  0  0  0  0  0  0  0  0
  189.9290  176.1550  147.3720 O   0  0  0  0  0  0  0  0  0  0  0  0
  191.1960  175.6350  147.0400 C   0  0  0  0  0  2  0  0  0  0  0  0
  190.8890  177.7070  146.0120 C   0  0  0  0  0  2  0  0  0  0  0  0
  187.7890  178.4710  148.0570 C   0  0  2  0  0  3  0  0  0  0  0  0
  186.3990  177.5850  145.7640 C   0  0  0  0  0  2  0  0  0  0  0  0
  186.2650  178.9210  146.1880 O   0  0  0  0  0  0  0  0  0  0  0  0
  187.8650  177.1300  145.8450 C   0  0  0  0  0  2  0  0  0  0  0  0
  187.6230  177.4040  149.1300 C   0  0  0  0  0  1  0  0  0  0  0  0
  186.3850  178.9080  147.5930 C   0  0  0  0  0  2  0  0  0  0  0  0
  188.6360  177.9930  146.8510 C   0  0  2  0  0  3  0  0  0  0  0  0
  184.2370  177.7000  140.8880 C   0  0  0  0  0  2  0  0  0  0  0  0
  183.0640  178.4560  140.2750 C   0  0  1  0  0  3  0  0  0  0  0  0
  183.5570  179.5600  139.3510 C   0  0  0  0  0  2  0  0  0  0  0  0
  182.4930  179.9570  138.4400 N   0  0  0  0  0  1  0  0  0  0  0  0
  180.5360  177.5640  140.0090 S   0  0  0  0  0  0  0  0  0  0  0  0
  182.1110  177.5180  139.5870 C   0  0  0  0  0  0  0  0  0  0  0  0
  182.5390  176.5390  138.6350 N   0  0  0  0  0  2  0  0  0  0  0  0
  182.1960  176.5780  137.2220 C   0  0  0  0  0  2  0  0  0  0  0  0
  183.3790  177.0700  136.4130 C   0  0  2  0  0  3  0  0  0  0  0  0
  183.1110  176.8490  134.9340 C   0  0  0  0  0  1  0  0  0  0  0  0
  184.6200  176.3010  136.8460 C   0  0  0  0  0  2  0  0  0  0  0  0
  185.6430  177.2090  137.5240 C   0  0  0  0  0  2  0  0  0  0  0  0
  187.2270  178.5580  136.1830 C   0  0  0  0  0  1  0  0  0  0  0  0
  186.9910  177.1980  136.8070 C   0  0  2  0  0  3  0  0  0  0  0  0
  187.0740  176.1270  135.7410 C   0  0  0  0  0  0  0  0  0  0  0  0
  186.6480  176.3530  134.6170 O   0  0  0  0  0  0  0  0  0  0  0  0
  187.7640  174.8090  136.0070 C   0  0  1  0  0  3  0  0  0  0  0  0
  189.2780  175.0040  136.1470 C   0  0  2  0  0  3  0  0  0  0  0  0
  190.0390  173.7750  135.6900 C   0  0  0  0  0  2  0  0  0  0  0  0
  190.9590  174.8340  137.6000 C   0  0  0  0  0  2  0  0  0  0  0  0
  191.1730  173.6660  136.6660 C   0  0  0  0  0  2  0  0  0  0  0  0
  189.6260  175.2480  137.4870 O   0  0  0  0  0  0  0  0  0  0  0  0
  187.2100  174.1130  137.2480 C   0  0  0  0  0  2  0  0  0  0  0  0
  186.6370  172.7480  136.9130 C   0  0  0  0  0  2  0  0  0  0  0  0
  185.4270  172.8920  136.0040 C   0  0  0  0  0  2  0  0  0  0  0  0
  184.4890  171.7020  136.1250 C   0  0  0  0  0  2  0  0  0  0  0  0
  182.2440  172.6940  136.4310 C   0  0  0  0  0  1  0  0  0  0  0  0
  183.3780  171.9660  137.1230 C   0  0  0  0  0  2  0  0  0  0  0  0
  1 31  1  6  0  0  0
  1  7  1  0  0  0  0
  1  2  1  0  0  0  0
  2  3  1  0  0  0  0
  3  4  2  0  0  0  0
  5  3  1  0  0  0  0
  6  5  1  0  0  0  0
  8  7  1  0  0  0  0
  9 10  1  1  0  0  0
  9  8  1  0  0  0  0
 11  9  1  0  0  0  0
 11 12  1  0  0  0  0
 12 15  2  0  0  0  0
 12 14  1  0  0  0  0
 13 16  2  0  0  0  0
 14 17  2  0  0  0  0
 15 13  1  0  0  0  0
 16 18  1  0  0  0  0
 17 16  1  0  0  0  0
 19 18  1  6  0  0  0
 19 22  1  0  0  0  0
 20 23  1  6  0  0  0
 20 21  1  0  0  0  0
 22 21  1  0  0  0  0
 23 19  1  0  0  0  0
 24 28  1  1  0  0  0
 25 27  1  0  0  0  0
 25 26  1  0  0  0  0
 26 29  1  0  0  0  0
 29 24  1  0  0  0  0
 30 27  1  1  0  0  0
 30 20  1  0  0  0  0
 30 24  1  0  0  0  0
 32 33  1  6  0  0  0
 32 31  1  0  0  0  0
 34 33  1  0  0  0  0
 36 35  2  0  0  0  0
 36 32  1  0  0  0  0
 37 36  1  0  0  0  0
 38 37  1  0  0  0  0
 39 40  1  6  0  0  0
 39 41  1  0  0  0  0
 39 38  1  0  0  0  0
 41 42  1  0  0  0  0
 44 43  1  6  0  0  0
 44 42  1  0  0  0  0
 45 47  1  0  0  0  0
 45 44  1  0  0  0  0
 46 45  2  0  0  0  0
 47 53  1  1  0  0  0
 48 47  1  1  0  0  0
 48 52  1  0  0  0  0
 49 48  1  0  0  0  0
 49 51  1  0  0  0  0
 51 50  1  0  0  0  0
 52 50  1  0  0  0  0
 54 53  1  0  0  0  0
 55 56  1  0  0  0  0
 55 54  1  0  0  0  0
 56 58  1  0  0  0  0
 57 58  1  0  0  0  0
M  END
>  <MODEL>
6

>  <REMARK>
 VINA RESULT:      -5.0      2.705      8.600
  Name = 
  29 active torsions:
  status: ('A' for Active; 'I' for Inactive)
    1  A    between atoms: C_2  and  C_29
    2  A    between atoms: C_2  and  C_31
    3  A    between atoms: O_3  and  C_19
    4  A    between atoms: O_3  and  C_23
    5  A    between atoms: N_4  and  C_7
    6  A    between atoms: C_5  and  C_26
    7  A    between atoms: C_7  and  C_41
    8  A    between atoms: C_9  and  O_40
    9  A    between atoms: C_10  and  C_15
   10  A    between atoms: C_10  and  O_40
   11  A    between atoms: C_12  and  C_20
   12  A    between atoms: C_12  and  C_49
   13  A    between atoms: C_15  and  C_27
   14  A    between atoms: C_20  and  C_26
   15  A    between atoms: C_21  and  C_30
   16  A    between atoms: C_21  and  C_31
   17  A    between atoms: C_24  and  C_28
   18  A    between atoms: C_24  and  C_57
   19  A    between atoms: C_26  and  C_30
   20  A    between atoms: C_27  and  C_28
   21  A    between atoms: C_28  and  C_41
   22  A    between atoms: C_29  and  C_43
   23  A    between atoms: N_34  and  C_53
   24  A    between atoms: C_38  and  C_57
   25  A    between atoms: C_39  and  N_55
   26  A    between atoms: C_39  and  C_57
   27  A    between atoms: C_43  and  N_55
   28  A    between atoms: C_47  and  C_49
   29  A    between atoms: C_47  and  C_58
                            x       y       z     vdW  Elec       q    Type
                         _______ _______ _______ _____ _____    ______ ____

>  <TORSDO>
F 29

$$$$
=
 OpenBabel11062417503D

 58 61  0  0  1  0  0  0  0  0999 V2000
  189.1420  177.8670  139.2730 C   0  0  2  0  0  3  0  0  0  0  0  0
  189.9630  176.7540  139.9360 C   0  0  0  0  0  2  0  0  0  0  0  0
  191.1830  176.3780  139.1490 C   0  0  0  0  0  0  0  0  0  0  0  0
  191.1730  175.3370  138.4370 O   0  0  0  0  0  0  0  0  0  0  0  0
  192.3590  177.1840  139.2330 N   0  0  0  0  0  2  0  0  0  0  0  0
  193.4240  176.8160  138.6950 O   0  0  0  0  0  1  0  0  0  0  0  0
  187.7090  177.8390  139.7830 C   0  0  0  0  0  2  0  0  0  0  0  0
  187.5320  178.6600  141.0520 C   0  0  0  0  0  2  0  0  0  0  0  0
  186.0670  179.0360  141.2400 C   0  0  1  0  0  3  0  0  0  0  0  0
  185.3650  178.9510  139.9010 C   0  0  0  0  0  1  0  0  0  0  0  0
  185.4330  178.1470  142.1590 O   0  0  0  0  0  0  0  0  0  0  0  0
  185.6510  178.1840  143.5420 C   0  0  0  0  0  0  0  0  0  0  0  0
  187.1630  177.8680  145.4140 C   0  0  0  0  0  3  0  0  0  0  0  0
  184.6510  178.6100  144.4330 C   0  0  0  0  0  3  0  0  0  0  0  0
  186.8970  177.7960  144.0420 C   0  0  0  0  0  3  0  0  0  0  0  0
  186.1840  178.3320  146.2980 C   0  0  0  0  0  0  0  0  0  0  0  0
  184.9180  178.6880  145.8010 C   0  0  0  0  0  3  0  0  0  0  0  0
  186.4950  178.4490  147.6570 O   0  0  0  0  0  0  0  0  0  0  0  0
  187.5500  177.7160  148.2710 C   0  0  2  0  0  3  0  0  0  0  0  0
  189.5950  176.9360  147.4720 N   0  0  1  0  0  0  0  0  0  0  0  0
  189.8180  178.2350  147.8270 O   0  0  0  0  0  0  0  0  0  0  0  0
  188.6990  178.6360  148.5840 C   0  0  0  0  0  2  0  0  0  0  0  0
  188.1610  176.7690  147.2930 C   0  0  0  0  0  2  0  0  0  0  0  0
  191.3920  175.5220  146.2830 C   0  0  2  0  0  3  0  0  0  0  0  0
  191.7340  177.5310  144.3290 C   0  0  0  0  0  2  0  0  0  0  0  0
  191.5230  176.1980  143.9290 O   0  0  0  0  0  0  0  0  0  0  0  0
  190.7940  177.9090  145.4850 C   0  0  0  0  0  2  0  0  0  0  0  0
  192.4510  175.7450  147.3540 C   0  0  0  0  0  1  0  0  0  0  0  0
  192.1060  175.3860  144.9230 C   0  0  0  0  0  2  0  0  0  0  0  0
  190.3340  176.6510  146.2310 C   0  0  2  0  0  3  0  0  0  0  0  0
  189.2080  177.7970  137.7460 C   0  0  0  0  0  2  0  0  0  0  0  0
  187.8230  177.5550  137.1590 C   0  0  1  0  0  3  0  0  0  0  0  0
  187.4910  178.6060  136.1090 C   0  0  0  0  0  2  0  0  0  0  0  0
  187.3610  177.9770  134.8020 N   0  0  0  0  0  1  0  0  0  0  0  0
  188.9270  175.5360  135.7570 S   0  0  0  0  0  0  0  0  0  0  0  0
  187.6930  176.1550  136.6270 C   0  0  0  0  0  0  0  0  0  0  0  0
  186.5050  175.3730  136.7860 N   0  0  0  0  0  2  0  0  0  0  0  0
  185.1630  175.9340  136.8190 C   0  0  0  0  0  2  0  0  0  0  0  0
  184.1520  174.8880  136.3940 C   0  0  2  0  0  3  0  0  0  0  0  0
  183.5120  175.3050  135.0800 C   0  0  0  0  0  1  0  0  0  0  0  0
  183.0940  174.7620  137.4810 C   0  0  0  0  0  2  0  0  0  0  0  0
  183.0160  176.0160  138.3460 C   0  0  0  0  0  2  0  0  0  0  0  0
  182.1740  178.3280  138.0740 C   0  0  0  0  0  1  0  0  0  0  0  0
  181.7860  176.8640  138.0260 C   0  0  2  0  0  3  0  0  0  0  0  0
  180.6400  176.6090  138.9800 C   0  0  0  0  0  0  0  0  0  0  0  0
  180.8590  176.1100  140.0750 O   0  0  0  0  0  0  0  0  0  0  0  0
  179.2320  177.0500  138.6490 C   0  0  1  0  0  3  0  0  0  0  0  0
  178.9330  178.4240  139.2580 C   0  0  2  0  0  3  0  0  0  0  0  0
  179.1550  179.5350  138.2510 C   0  0  0  0  0  2  0  0  0  0  0  0
  179.8450  180.0690  140.4540 C   0  0  0  0  0  2  0  0  0  0  0  0
  179.7630  180.6430  139.0590 C   0  0  0  0  0  2  0  0  0  0  0  0
  179.7710  178.6730  140.3600 O   0  0  0  0  0  0  0  0  0  0  0  0
  178.9820  177.0790  137.1430 C   0  0  0  0  0  2  0  0  0  0  0  0
  179.7700  176.0000  136.4250 C   0  0  0  0  0  2  0  0  0  0  0  0
  179.8890  176.3290  134.9450 C   0  0  0  0  0  2  0  0  0  0  0  0
  180.7780  177.5390  134.7080 C   0  0  0  0  0  2  0  0  0  0  0  0
  180.8960  180.0070  134.6490 C   0  0  0  0  0  1  0  0  0  0  0  0
  179.9670  178.8140  134.5940 C   0  0  0  0  0  2  0  0  0  0  0  0
  1 31  1  6  0  0  0
  1  7  1  0  0  0  0
  1  2  1  0  0  0  0
  3  5  1  0  0  0  0
  3  2  1  0  0  0  0
  4  3  2  0  0  0  0
  6  5  1  0  0  0  0
  7  8  1  0  0  0  0
  8  9  1  0  0  0  0
  9 10  1  6  0  0  0
  9 11  1  0  0  0  0
 11 12  1  0  0  0  0
 12 15  2  0  0  0  0
 12 14  1  0  0  0  0
 13 16  2  0  0  0  0
 14 17  2  0  0  0  0
 15 13  1  0  0  0  0
 16 18  1  0  0  0  0
 17 16  1  0  0  0  0
 19 18  1  6  0  0  0
 19 22  1  0  0  0  0
 20 23  1  6  0  0  0
 20 21  1  0  0  0  0
 21 22  1  0  0  0  0
 23 19  1  0  0  0  0
 24 28  1  1  0  0  0
 25 27  1  0  0  0  0
 26 25  1  0  0  0  0
 26 29  1  0  0  0  0
 29 24  1  0  0  0  0
 30 27  1  1  0  0  0
 30 24  1  0  0  0  0
 30 20  1  0  0  0  0
 32 33  1  6  0  0  0
 32 31  1  0  0  0  0
 34 33  1  0  0  0  0
 35 36  2  0  0  0  0
 36 37  1  0  0  0  0
 36 32  1  0  0  0  0
 37 38  1  0  0  0  0
 39 40  1  6  0  0  0
 39 38  1  0  0  0  0
 39 41  1  0  0  0  0
 41 42  1  0  0  0  0
 44 43  1  1  0  0  0
 44 42  1  0  0  0  0
 44 45  1  0  0  0  0
 45 46  2  0  0  0  0
 47 53  1  6  0  0  0
 47 45  1  0  0  0  0
 48 47  1  6  0  0  0
 48 52  1  0  0  0  0
 49 51  1  0  0  0  0
 49 48  1  0  0  0  0
 51 50  1  0  0  0  0
 52 50  1  0  0  0  0
 54 53  1  0  0  0  0
 55 54  1  0  0  0  0
 56 55  1  0  0  0  0
 58 57  1  0  0  0  0
 58 56  1  0  0  0  0
M  END
>  <MODEL>
7

>  <REMARK>
 VINA RESULT:      -4.8      2.808      9.058
  Name = 
  29 active torsions:
  status: ('A' for Active; 'I' for Inactive)
    1  A    between atoms: C_2  and  C_29
    2  A    between atoms: C_2  and  C_31
    3  A    between atoms: O_3  and  C_19
    4  A    between atoms: O_3  and  C_23
    5  A    between atoms: N_4  and  C_7
    6  A    between atoms: C_5  and  C_26
    7  A    between atoms: C_7  and  C_41
    8  A    between atoms: C_9  and  O_40
    9  A    between atoms: C_10  and  C_15
   10  A    between atoms: C_10  and  O_40
   11  A    between atoms: C_12  and  C_20
   12  A    between atoms: C_12  and  C_49
   13  A    between atoms: C_15  and  C_27
   14  A    between atoms: C_20  and  C_26
   15  A    between atoms: C_21  and  C_30
   16  A    between atoms: C_21  and  C_31
   17  A    between atoms: C_24  and  C_28
   18  A    between atoms: C_24  and  C_57
   19  A    between atoms: C_26  and  C_30
   20  A    between atoms: C_27  and  C_28
   21  A    between atoms: C_28  and  C_41
   22  A    between atoms: C_29  and  C_43
   23  A    between atoms: N_34  and  C_53
   24  A    between atoms: C_38  and  C_57
   25  A    between atoms: C_39  and  N_55
   26  A    between atoms: C_39  and  C_57
   27  A    between atoms: C_43  and  N_55
   28  A    between atoms: C_47  and  C_49
   29  A    between atoms: C_47  and  C_58
                            x       y       z     vdW  Elec       q    Type
                         _______ _______ _______ _____ _____    ______ ____

>  <TORSDO>
F 29

$$$$
=
 OpenBabel11062417503D

 58 61  0  0  1  0  0  0  0  0999 V2000
  190.5500  175.8730  136.0460 C   0  0  2  0  0  3  0  0  0  0  0  0
  190.0070  177.0770  135.2680 C   0  0  0  0  0  2  0  0  0  0  0  0
  188.8430  177.7360  135.9450 C   0  0  0  0  0  0  0  0  0  0  0  0
  187.7380  177.1320  136.0220 O   0  0  0  0  0  0  0  0  0  0  0  0
  188.9820  179.0560  136.4720 N   0  0  0  0  0  2  0  0  0  0  0  0
  188.0530  179.5880  137.1140 O   0  0  0  0  0  1  0  0  0  0  0  0
  189.9890  174.5790  135.4750 C   0  0  0  0  0  2  0  0  0  0  0  0
  189.0260  173.8950  136.4340 C   0  0  0  0  0  2  0  0  0  0  0  0
  188.3980  172.6730  135.7730 C   0  0  1  0  0  3  0  0  0  0  0  0
  188.1430  171.6230  136.8330 C   0  0  0  0  0  1  0  0  0  0  0  0
  187.1630  173.0180  135.1470 O   0  0  0  0  0  0  0  0  0  0  0  0
  186.0600  173.5260  135.8450 C   0  0  0  0  0  0  0  0  0  0  0  0
  184.0260  174.8490  135.8330 C   0  0  0  0  0  3  0  0  0  0  0  0
  185.8310  173.2030  137.1930 C   0  0  0  0  0  3  0  0  0  0  0  0
  185.1630  174.3660  135.1780 C   0  0  0  0  0  3  0  0  0  0  0  0
  183.7730  174.4950  137.1610 C   0  0  0  0  0  0  0  0  0  0  0  0
  184.6920  173.6800  137.8450 C   0  0  0  0  0  3  0  0  0  0  0  0
  182.5990  174.9460  137.7740 O   0  0  0  0  0  0  0  0  0  0  0  0
  182.6030  175.7250  138.9650 C   0  0  2  0  0  3  0  0  0  0  0  0
  181.5110  177.6960  139.5580 N   0  0  1  0  0  0  0  0  0  0  0  0
  180.6100  176.6990  139.7960 O   0  0  0  0  0  0  0  0  0  0  0  0
  181.3320  175.4900  139.7370 C   0  0  0  0  0  2  0  0  0  0  0  0
  182.5080  177.1770  138.6360 C   0  0  0  0  0  2  0  0  0  0  0  0
  181.6280  179.8440  138.1390 C   0  0  2  0  0  3  0  0  0  0  0  0
  179.3020  180.8420  139.3910 C   0  0  0  0  0  2  0  0  0  0  0  0
  179.3880  180.8320  137.9860 O   0  0  0  0  0  0  0  0  0  0  0  0
  179.8380  179.5280  139.9800 C   0  0  0  0  0  2  0  0  0  0  0  0
  182.8260  180.4170  138.8840 C   0  0  0  0  0  1  0  0  0  0  0  0
  180.7480  181.0200  137.6680 C   0  0  0  0  0  2  0  0  0  0  0  0
  180.7990  178.8540  138.9930 C   0  0  2  0  0  3  0  0  0  0  0  0
  190.2880  175.9960  137.5490 C   0  0  0  0  0  2  0  0  0  0  0  0
  191.5630  175.7330  138.3410 C   0  0  1  0  0  3  0  0  0  0  0  0
  192.7340  175.4720  137.4050 C   0  0  0  0  0  2  0  0  0  0  0  0
  193.1250  174.0710  137.4780 N   0  0  0  0  0  1  0  0  0  0  0  0
  193.3970  177.2460  139.6080 S   0  0  0  0  0  0  0  0  0  0  0  0
  191.8430  176.8480  139.3090 C   0  0  0  0  0  0  0  0  0  0  0  0
  190.8100  177.5220  140.0350 N   0  0  0  0  0  2  0  0  0  0  0  0
  190.1050  176.9420  141.1680 C   0  0  0  0  0  2  0  0  0  0  0  0
  188.6160  177.1870  141.0330 C   0  0  2  0  0  3  0  0  0  0  0  0
  188.3540  178.0730  139.8270 C   0  0  0  0  0  1  0  0  0  0  0  0
  188.1140  177.8590  142.3030 C   0  0  0  0  0  2  0  0  0  0  0  0
  189.2030  178.6920  142.9730 C   0  0  0  0  0  2  0  0  0  0  0  0
  190.6310  177.3220  144.4620 C   0  0  0  0  0  1  0  0  0  0  0  0
  189.4470  178.2670  144.4200 C   0  0  2  0  0  3  0  0  0  0  0  0
  188.2400  177.6000  145.0410 C   0  0  0  0  0  0  0  0  0  0  0  0
  188.0520  176.4040  144.8730 O   0  0  0  0  0  0  0  0  0  0  0  0
  187.3060  178.3630  145.9540 C   0  0  1  0  0  3  0  0  0  0  0  0
  185.8430  178.0950  145.5850 C   0  0  2  0  0  3  0  0  0  0  0  0
  185.5150  178.6290  144.2040 C   0  0  0  0  0  2  0  0  0  0  0  0
  183.7840  178.9200  145.7960 C   0  0  0  0  0  2  0  0  0  0  0  0
  184.1260  179.1770  144.3470 C   0  0  0  0  0  2  0  0  0  0  0  0
  184.9780  178.7190  146.5010 O   0  0  0  0  0  0  0  0  0  0  0  0
  187.5440  178.0270  147.4250 C   0  0  0  0  0  2  0  0  0  0  0  0
  188.3320  176.7400  147.5830 C   0  0  0  0  0  2  0  0  0  0  0  0
  189.8200  177.0400  147.6800 C   0  0  0  0  0  2  0  0  0  0  0  0
  190.6410  175.7690  147.8230 C   0  0  0  0  0  2  0  0  0  0  0  0
  193.0200  175.6160  148.4800 C   0  0  0  0  0  1  0  0  0  0  0  0
  192.0690  175.9720  147.3570 C   0  0  0  0  0  2  0  0  0  0  0  0
  1  2  1  6  0  0  0
  1 31  1  0  0  0  0
  2  3  1  0  0  0  0
  3  4  2  0  0  0  0
  3  5  1  0  0  0  0
  5  6  1  0  0  0  0
  7  1  1  0  0  0  0
  7  8  1  0  0  0  0
  9  8  1  0  0  0  0
  9 10  1  1  0  0  0
 11  9  1  0  0  0  0
 11 12  1  0  0  0  0
 12 14  1  0  0  0  0
 13 16  2  0  0  0  0
 14 17  2  0  0  0  0
 15 13  1  0  0  0  0
 15 12  2  0  0  0  0
 16 18  1  0  0  0  0
 16 17  1  0  0  0  0
 19 18  1  6  0  0  0
 19 22  1  0  0  0  0
 20 23  1  6  0  0  0
 20 21  1  0  0  0  0
 22 21  1  0  0  0  0
 23 19  1  0  0  0  0
 24 28  1  1  0  0  0
 24 30  1  0  0  0  0
 25 27  1  0  0  0  0
 26 25  1  0  0  0  0
 29 26  1  0  0  0  0
 29 24  1  0  0  0  0
 30 20  1  0  0  0  0
 30 27  1  1  0  0  0
 31 32  1  0  0  0  0
 32 33  1  6  0  0  0
 32 36  1  0  0  0  0
 33 34  1  0  0  0  0
 36 35  2  0  0  0  0
 36 37  1  0  0  0  0
 37 38  1  0  0  0  0
 39 40  1  6  0  0  0
 39 38  1  0  0  0  0
 39 41  1  0  0  0  0
 41 42  1  0  0  0  0
 42 44  1  0  0  0  0
 44 43  1  6  0  0  0
 44 45  1  0  0  0  0
 45 47  1  0  0  0  0
 46 45  2  0  0  0  0
 47 53  1  1  0  0  0
 48 47  1  1  0  0  0
 48 52  1  0  0  0  0
 49 51  1  0  0  0  0
 49 48  1  0  0  0  0
 50 52  1  0  0  0  0
 51 50  1  0  0  0  0
 53 54  1  0  0  0  0
 54 55  1  0  0  0  0
 55 56  1  0  0  0  0
 58 56  1  0  0  0  0
 58 57  1  0  0  0  0
M  END
>  <MODEL>
8

>  <REMARK>
 VINA RESULT:      -4.6      2.417      8.660
  Name = 
  29 active torsions:
  status: ('A' for Active; 'I' for Inactive)
    1  A    between atoms: C_2  and  C_29
    2  A    between atoms: C_2  and  C_31
    3  A    between atoms: O_3  and  C_19
    4  A    between atoms: O_3  and  C_23
    5  A    between atoms: N_4  and  C_7
    6  A    between atoms: C_5  and  C_26
    7  A    between atoms: C_7  and  C_41
    8  A    between atoms: C_9  and  O_40
    9  A    between atoms: C_10  and  C_15
   10  A    between atoms: C_10  and  O_40
   11  A    between atoms: C_12  and  C_20
   12  A    between atoms: C_12  and  C_49
   13  A    between atoms: C_15  and  C_27
   14  A    between atoms: C_20  and  C_26
   15  A    between atoms: C_21  and  C_30
   16  A    between atoms: C_21  and  C_31
   17  A    between atoms: C_24  and  C_28
   18  A    between atoms: C_24  and  C_57
   19  A    between atoms: C_26  and  C_30
   20  A    between atoms: C_27  and  C_28
   21  A    between atoms: C_28  and  C_41
   22  A    between atoms: C_29  and  C_43
   23  A    between atoms: N_34  and  C_53
   24  A    between atoms: C_38  and  C_57
   25  A    between atoms: C_39  and  N_55
   26  A    between atoms: C_39  and  C_57
   27  A    between atoms: C_43  and  N_55
   28  A    between atoms: C_47  and  C_49
   29  A    between atoms: C_47  and  C_58
                            x       y       z     vdW  Elec       q    Type
                         _______ _______ _______ _____ _____    ______ ____

>  <TORSDO>
F 29

$$$$
=
 OpenBabel11062417503D

 58 61  0  0  1  0  0  0  0  0999 V2000
  189.1860  177.8580  146.5380 C   0  0  2  0  0  3  0  0  0  0  0  0
  189.8980  176.5100  146.6980 C   0  0  0  0  0  2  0  0  0  0  0  0
  191.3040  176.6450  147.2010 C   0  0  0  0  0  0  0  0  0  0  0  0
  191.7630  177.7860  147.4800 O   0  0  0  0  0  0  0  0  0  0  0  0
  192.1260  175.4850  147.3320 N   0  0  0  0  0  2  0  0  0  0  0  0
  192.9460  175.3870  148.2680 O   0  0  0  0  0  1  0  0  0  0  0  0
  187.7080  177.7160  146.8720 C   0  0  0  0  0  2  0  0  0  0  0  0
  186.9040  177.1610  145.7050 C   0  0  0  0  0  2  0  0  0  0  0  0
  185.6100  177.9470  145.5320 C   0  0  1  0  0  3  0  0  0  0  0  0
  185.7710  179.3040  146.1850 C   0  0  0  0  0  1  0  0  0  0  0  0
  185.3100  178.1260  144.1480 O   0  0  0  0  0  0  0  0  0  0  0  0
  184.0310  178.4400  143.6700 C   0  0  0  0  0  0  0  0  0  0  0  0
  181.7280  179.0400  144.1450 C   0  0  0  0  0  3  0  0  0  0  0  0
  183.7620  178.5320  142.2940 C   0  0  0  0  0  3  0  0  0  0  0  0
  183.0030  178.6760  144.5890 C   0  0  0  0  0  3  0  0  0  0  0  0
  181.4680  179.1740  142.7780 C   0  0  0  0  0  0  0  0  0  0  0  0
  182.4910  178.9020  141.8520 C   0  0  0  0  0  3  0  0  0  0  0  0
  180.2000  179.5950  142.3630 O   0  0  0  0  0  0  0  0  0  0  0  0
  179.3600  178.8020  141.5330 C   0  0  2  0  0  3  0  0  0  0  0  0
  179.7200  177.7360  139.4920 N   0  0  1  0  0  0  0  0  0  0  0  0
  180.1940  176.8740  140.4370 O   0  0  0  0  0  0  0  0  0  0  0  0
  179.7210  177.3470  141.6780 C   0  0  0  0  0  2  0  0  0  0  0  0
  179.6590  179.0590  140.0940 C   0  0  0  0  0  2  0  0  0  0  0  0
  180.9290  179.0630  137.6430 C   0  0  2  0  0  3  0  0  0  0  0  0
  181.1750  176.7260  136.0760 C   0  0  0  0  0  2  0  0  0  0  0  0
  182.3080  177.5260  136.3180 O   0  0  0  0  0  0  0  0  0  0  0  0
  180.3400  176.5600  137.3560 C   0  0  0  0  0  2  0  0  0  0  0  0
  179.6770  179.7930  137.1770 C   0  0  0  0  0  1  0  0  0  0  0  0
  181.8460  178.8540  136.4200 C   0  0  0  0  0  2  0  0  0  0  0  0
  180.6230  177.7100  138.3300 C   0  0  2  0  0  3  0  0  0  0  0  0
  189.4030  178.4600  145.1480 C   0  0  0  0  0  2  0  0  0  0  0  0
  189.7430  177.3710  144.1380 C   0  0  1  0  0  3  0  0  0  0  0  0
  188.5430  177.0620  143.2540 C   0  0  0  0  0  2  0  0  0  0  0  0
  188.3510  175.6210  143.1660 N   0  0  0  0  0  1  0  0  0  0  0  0
  191.7630  179.1040  143.7140 S   0  0  0  0  0  0  0  0  0  0  0  0
  190.9640  177.7320  143.3370 C   0  0  0  0  0  0  0  0  0  0  0  0
  191.4090  176.9640  142.2150 N   0  0  0  0  0  2  0  0  0  0  0  0
  191.5100  177.4900  140.8620 C   0  0  0  0  0  2  0  0  0  0  0  0
  192.7820  176.9920  140.2050 C   0  0  2  0  0  3  0  0  0  0  0  0
  193.5940  178.1760  139.7080 C   0  0  0  0  0  1  0  0  0  0  0  0
  192.4080  176.0820  139.0430 C   0  0  0  0  0  2  0  0  0  0  0  0
  192.7690  176.7030  137.6960 C   0  0  0  0  0  2  0  0  0  0  0  0
  193.7980  175.8830  135.6000 C   0  0  0  0  0  1  0  0  0  0  0  0
  192.6250  175.7110  136.5440 C   0  0  2  0  0  3  0  0  0  0  0  0
  191.3290  175.8850  135.7850 C   0  0  0  0  0  0  0  0  0  0  0  0
  191.3530  176.1590  134.5940 O   0  0  0  0  0  0  0  0  0  0  0  0
  189.9930  175.6300  136.4460 C   0  0  1  0  0  3  0  0  0  0  0  0
  189.5140  176.8730  137.2060 C   0  0  2  0  0  3  0  0  0  0  0  0
  188.2500  176.5870  137.9910 C   0  0  0  0  0  2  0  0  0  0  0  0
  188.3040  178.7300  136.9810 C   0  0  0  0  0  2  0  0  0  0  0  0
  187.4400  177.8410  137.8440 C   0  0  0  0  0  2  0  0  0  0  0  0
  189.2360  177.9240  136.3150 O   0  0  0  0  0  0  0  0  0  0  0  0
  188.9310  175.1930  135.4400 C   0  0  0  0  0  2  0  0  0  0  0  0
  188.5290  173.7440  135.6470 C   0  0  0  0  0  2  0  0  0  0  0  0
  187.0430  173.5650  135.3830 C   0  0  0  0  0  2  0  0  0  0  0  0
  186.2140  173.8400  136.6270 C   0  0  0  0  0  2  0  0  0  0  0  0
  184.2140  174.9470  137.5690 C   0  0  0  0  0  1  0  0  0  0  0  0
  185.1010  174.8320  136.3480 C   0  0  0  0  0  2  0  0  0  0  0  0
  1 31  1  6  0  0  0
  1  2  1  0  0  0  0
  1  7  1  0  0  0  0
  2  3  1  0  0  0  0
  3  5  1  0  0  0  0
  3  4  2  0  0  0  0
  5  6  1  0  0  0  0
  8  7  1  0  0  0  0
  9  8  1  0  0  0  0
  9 10  1  6  0  0  0
 11  9  1  0  0  0  0
 12 11  1  0  0  0  0
 12 15  1  0  0  0  0
 13 15  2  0  0  0  0
 14 12  2  0  0  0  0
 16 13  1  0  0  0  0
 17 14  1  0  0  0  0
 17 16  2  0  0  0  0
 18 16  1  0  0  0  0
 19 22  1  0  0  0  0
 19 18  1  1  0  0  0
 20 23  1  1  0  0  0
 20 21  1  0  0  0  0
 21 22  1  0  0  0  0
 23 19  1  0  0  0  0
 24 28  1  6  0  0  0
 24 30  1  0  0  0  0
 25 26  1  0  0  0  0
 25 27  1  0  0  0  0
 26 29  1  0  0  0  0
 29 24  1  0  0  0  0
 30 27  1  6  0  0  0
 30 20  1  0  0  0  0
 32 33  1  6  0  0  0
 32 31  1  0  0  0  0
 34 33  1  0  0  0  0
 36 35  2  0  0  0  0
 36 32  1  0  0  0  0
 37 36  1  0  0  0  0
 38 37  1  0  0  0  0
 39 40  1  6  0  0  0
 39 38  1  0  0  0  0
 41 39  1  0  0  0  0
 42 41  1  0  0  0  0
 44 43  1  6  0  0  0
 44 42  1  0  0  0  0
 45 47  1  0  0  0  0
 45 44  1  0  0  0  0
 46 45  2  0  0  0  0
 47 53  1  6  0  0  0
 48 47  1  6  0  0  0
 48 49  1  0  0  0  0
 50 51  1  0  0  0  0
 51 49  1  0  0  0  0
 52 50  1  0  0  0  0
 52 48  1  0  0  0  0
 53 54  1  0  0  0  0
 55 54  1  0  0  0  0
 55 56  1  0  0  0  0
 58 56  1  0  0  0  0
 58 57  1  0  0  0  0
M  END
>  <MODEL>
9

>  <REMARK>
 VINA RESULT:      -4.6      2.110      3.839
  Name = 
  29 active torsions:
  status: ('A' for Active; 'I' for Inactive)
    1  A    between atoms: C_2  and  C_29
    2  A    between atoms: C_2  and  C_31
    3  A    between atoms: O_3  and  C_19
    4  A    between atoms: O_3  and  C_23
    5  A    between atoms: N_4  and  C_7
    6  A    between atoms: C_5  and  C_26
    7  A    between atoms: C_7  and  C_41
    8  A    between atoms: C_9  and  O_40
    9  A    between atoms: C_10  and  C_15
   10  A    between atoms: C_10  and  O_40
   11  A    between atoms: C_12  and  C_20
   12  A    between atoms: C_12  and  C_49
   13  A    between atoms: C_15  and  C_27
   14  A    between atoms: C_20  and  C_26
   15  A    between atoms: C_21  and  C_30
   16  A    between atoms: C_21  and  C_31
   17  A    between atoms: C_24  and  C_28
   18  A    between atoms: C_24  and  C_57
   19  A    between atoms: C_26  and  C_30
   20  A    between atoms: C_27  and  C_28
   21  A    between atoms: C_28  and  C_41
   22  A    between atoms: C_29  and  C_43
   23  A    between atoms: N_34  and  C_53
   24  A    between atoms: C_38  and  C_57
   25  A    between atoms: C_39  and  N_55
   26  A    between atoms: C_39  and  C_57
   27  A    between atoms: C_43  and  N_55
   28  A    between atoms: C_47  and  C_49
   29  A    between atoms: C_47  and  C_58
                            x       y       z     vdW  Elec       q    Type
                         _______ _______ _______ _____ _____    ______ ____

>  <TORSDO>
F 29

$$$$
