=
 OpenBabel11062414523D

 56 61  0  0  1  0  0  0  0  0999 V2000
  189.2490  175.0710  136.5870 C   0  0  0  0  0  0  0  0  0  0  0  0
  190.1270  174.1750  136.2340 C   0  0  0  0  0  0  0  0  0  0  0  0
  188.3830  175.9770  136.9480 C   0  0  0  0  0  0  0  0  0  0  0  0
  189.9540  173.4630  135.0550 O   0  0  0  0  0  1  0  0  0  0  0  0
  188.7410  177.7110  136.6690 S   0  0  0  0  0  0  0  0  0  0  0  0
  188.6510  178.3510  140.7270 C   0  0  0  0  0  2  0  0  0  0  0  0
  190.7400  177.2270  139.9760 C   0  0  0  0  0  2  0  0  0  0  0  0
  189.6880  177.2950  141.0870 C   0  0  1  0  0  3  0  0  0  0  0  0
  190.1260  176.8760  138.7580 O   0  0  0  0  0  0  0  0  0  0  0  0
  188.1400  178.1190  139.3090 C   0  0  0  0  0  2  0  0  0  0  0  0
  189.3350  177.9730  138.3660 C   0  0  2  0  0  3  0  0  0  0  0  0
  190.3300  177.6360  142.4220 C   0  0  0  0  0  2  0  0  0  0  0  0
  190.2810  175.3050  142.7640 O   0  0  0  0  0  0  0  0  0  0  0  0
  190.5610  176.3980  143.2310 C   0  0  0  0  0  0  0  0  0  0  0  0
  191.1160  176.5000  144.6140 C   0  0  0  0  0  2  0  0  0  0  0  0
  190.8460  177.8180  145.1640 N   0  0  0  0  0  2  0  0  0  0  0  0
  189.8430  177.6490  146.1310 N   0  0  0  0  0  2  0  0  0  0  0  0
  188.6550  178.3220  145.6280 C   0  0  0  0  0  2  0  0  0  0  0  0
  184.8410  179.7600  143.5050 C   0  0  0  0  0  2  0  0  0  0  0  0
  186.4530  177.9880  146.9680 C   0  0  1  0  0  3  0  0  0  0  0  0
  184.9650  178.3000  143.8740 C   0  0  1  0  0  0  0  0  0  0  0  0
  187.4200  177.4620  145.8780 C   0  0  1  0  0  3  0  0  0  0  0  0
  186.0520  179.4370  146.6940 C   0  0  0  0  0  2  0  0  0  0  0  0
  184.3970  177.9550  145.2770 C   0  0  0  0  0  2  0  0  0  0  0  0
  186.8560  176.7980  144.6210 C   0  0  0  0  0  2  0  0  0  0  0  0
  186.3310  177.7350  143.5180 C   0  0  2  0  0  3  0  0  0  0  0  0
  184.9940  178.3580  146.6520 C   0  0  1  0  0  3  0  0  0  0  0  0
  186.1900  179.2010  143.9040 C   0  0  1  0  0  3  0  0  0  0  0  0
  187.0500  175.5660  137.4600 C   0  0  0  0  0  2  0  0  0  0  0  0
  185.9700  175.8770  136.4410 C   0  0  0  0  0  2  0  0  0  0  0  0
  184.7240  175.0480  136.7100 C   0  0  2  0  0  3  0  0  0  0  0  0
  184.8380  173.6850  136.0290 C   0  0  2  0  0  3  0  0  0  0  0  0
  185.5610  172.6640  136.8930 C   0  0  0  0  0  1  0  0  0  0  0  0
  185.4910  173.8110  134.8020 O   0  0  0  0  0  1  0  0  0  0  0  0
  183.5510  175.7420  136.2990 O   0  0  0  0  0  0  0  0  0  0  0  0
  182.9290  176.7040  137.0990 C   0  0  0  0  0  0  0  0  0  0  0  0
  182.8090  177.8800  136.6600 O   0  0  0  0  0  0  0  0  0  0  0  0
  182.4170  176.3590  138.4690 C   0  0  2  0  0  3  0  0  0  0  0  0
  180.3270  176.8010  139.5340 O   0  0  0  0  0  0  0  0  0  0  0  0
  181.5870  175.1130  138.4220 C   0  0  0  0  0  2  0  0  0  0  0  0
  181.4710  177.4270  139.0020 C   0  0  1  0  0  3  0  0  0  0  0  0
  180.2220  175.5480  138.9050 C   0  0  2  0  0  3  0  0  0  0  0  0
  179.2980  175.6400  137.7840 N   0  0  0  0  0  2  0  0  0  0  0  0
  179.7760  174.7210  136.7660 C   0  0  0  0  0  1  0  0  0  0  0  0
  182.1260  178.3390  140.0730 C   0  0  1  0  0  0  0  0  0  0  0  0
  181.4520  178.1310  141.2770 O   0  0  0  0  0  1  0  0  0  0  0  0
  184.6070  178.9700  139.7740 C   0  0  0  0  0  1  0  0  0  0  0  0
  183.6020  177.9740  140.3340 C   0  0  0  0  0  2  0  0  0  0  0  0
  181.9920  179.7190  139.7600 O   0  0  0  0  0  0  0  0  0  0  0  0
  181.1890  179.9030  138.6180 C   0  0  0  0  0  2  0  0  0  0  0  0
  180.5060  181.2540  138.6940 C   0  0  0  0  0  1  0  0  0  0  0  0
  191.3000  173.9050  137.1200 C   0  0  0  0  0  2  0  0  0  0  0  0
  193.0670  175.3080  137.8900 F   0  0  0  0  0  0  0  0  0  0  0  0
  193.4500  173.9980  136.0900 F   0  0  0  0  0  0  0  0  0  0  0  0
  192.5060  174.7610  136.7520 C   0  0  0  0  0  0  0  0  0  0  0  0
  192.0910  175.7830  135.9210 F   0  0  0  0  0  0  0  0  0  0  0  0
  1  3  2  0  0  0  0
  2  1  2  0  0  0  0
  2 52  1  0  0  0  0
  3 29  1  0  0  0  0
  4  2  1  0  0  0  0
  5  3  1  0  0  0  0
  6  8  1  0  0  0  0
  7  8  1  0  0  0  0
  8 12  1  1  0  0  0
  9  7  1  0  0  0  0
 10  6  1  0  0  0  0
 11  5  1  6  0  0  0
 11  9  1  0  0  0  0
 11 10  1  0  0  0  0
 12 14  1  0  0  0  0
 13 14  2  0  0  0  0
 14 15  1  0  0  0  0
 15 16  1  0  0  0  0
 16 17  1  0  0  0  0
 18 17  1  0  0  0  0
 20 23  1  6  0  0  0
 21 19  1  6  0  0  0
 21 28  1  0  0  0  0
 21 24  1  0  0  0  0
 22 18  1  6  0  0  0
 22 20  1  0  0  0  0
 25 22  1  0  0  0  0
 26 21  1  0  0  0  0
 26 28  1  0  0  0  0
 26 25  1  1  0  0  0
 27 24  1  6  0  0  0
 27 23  1  0  0  0  0
 27 20  1  0  0  0  0
 28 19  1  6  0  0  0
 30 29  1  0  0  0  0
 31 30  1  6  0  0  0
 32 31  1  0  0  0  0
 32 33  1  1  0  0  0
 34 32  1  0  0  0  0
 35 31  1  0  0  0  0
 35 36  1  0  0  0  0
 37 36  2  0  0  0  0
 38 36  1  6  0  0  0
 38 41  1  0  0  0  0
 40 38  1  0  0  0  0
 40 42  1  0  0  0  0
 41 39  1  0  0  0  0
 41 45  1  1  0  0  0
 42 43  1  6  0  0  0
 42 39  1  0  0  0  0
 44 43  1  0  0  0  0
 45 48  1  0  0  0  0
 45 46  1  1  0  0  0
 47 48  1  0  0  0  0
 49 45  1  0  0  0  0
 50 51  1  0  0  0  0
 50 49  1  0  0  0  0
 54 55  1  0  0  0  0
 55 52  1  0  0  0  0
 55 53  1  0  0  0  0
 56 55  1  0  0  0  0
M  END
>  <MODEL>
1

>  <REMARK>
 VINA RESULT:      -6.1      0.000      0.000
  Name = 
  23 active torsions:
  status: ('A' for Active; 'I' for Inactive)
    1  A    between atoms: C_1  and  C_33
    2  A    between atoms: C_1  and  C_47
    3  A    between atoms: C_2  and  N_38
    4  A    between atoms: C_2  and  C_53
    5  A    between atoms: N_4  and  C_55
    6  A    between atoms: C_6  and  C_7
    7  A    between atoms: C_6  and  O_50
    8  A    between atoms: N_9  and  N_38
    9  A    between atoms: N_9  and  C_43
   10  A    between atoms: O_10  and  C_29
   11  A    between atoms: O_10  and  C_30
   12  A    between atoms: C_11  and  C_32
   13  A    between atoms: C_11  and  C_46
   14  A    between atoms: C_12  and  C_23
   15  A    between atoms: C_12  and  C_53
   16  A    between atoms: C_13  and  C_42
   17  A    between atoms: C_24  and  C_43
   18  A    between atoms: C_30  and  C_31
   19  A    between atoms: C_30  and  C_56
   20  A    between atoms: C_33  and  S_40
   21  A    between atoms: S_40  and  C_52
   22  A    between atoms: C_42  and  C_47
   23  A    between atoms: C_42  and  O_50
                            x       y       z     vdW  Elec       q    Type
                         _______ _______ _______ _____ _____    ______ ____

>  <TORSDO>
F 23

$$$$
=
 OpenBabel11062414523D

 56 61  0  0  1  0  0  0  0  0999 V2000
  182.4420  179.0140  143.0990 C   0  0  0  0  0  0  0  0  0  0  0  0
  181.1650  179.2280  142.9480 C   0  0  0  0  0  0  0  0  0  0  0  0
  183.7200  178.7940  143.2330 C   0  0  0  0  0  0  0  0  0  0  0  0
  180.5560  180.2810  143.6160 O   0  0  0  0  0  1  0  0  0  0  0  0
  184.8550  179.3400  141.9580 S   0  0  0  0  0  0  0  0  0  0  0  0
  183.5430  178.5620  138.1420 C   0  0  0  0  0  2  0  0  0  0  0  0
  182.8100  176.8400  139.7820 C   0  0  0  0  0  2  0  0  0  0  0  0
  183.2970  177.0740  138.3490 C   0  0  1  0  0  3  0  0  0  0  0  0
  183.7870  177.2790  140.6960 O   0  0  0  0  0  0  0  0  0  0  0  0
  184.4190  179.1080  139.2650 C   0  0  0  0  0  2  0  0  0  0  0  0
  183.8290  178.6840  140.6100 C   0  0  2  0  0  3  0  0  0  0  0  0
  182.2760  176.5730  137.3400 C   0  0  0  0  0  2  0  0  0  0  0  0
  181.7470  174.3170  136.9190 O   0  0  0  0  0  0  0  0  0  0  0  0
  182.6060  175.1830  136.8950 C   0  0  0  0  0  0  0  0  0  0  0  0
  183.9880  174.8520  136.4370 C   0  0  0  0  0  2  0  0  0  0  0  0
  184.2280  175.4230  135.1220 N   0  0  0  0  0  2  0  0  0  0  0  0
  185.4350  174.8740  134.6620 N   0  0  0  0  0  2  0  0  0  0  0  0
  186.4510  175.2020  135.6500 C   0  0  0  0  0  2  0  0  0  0  0  0
  190.2530  176.1960  138.0350 C   0  0  0  0  0  2  0  0  0  0  0  0
  186.7080  177.6980  136.3300 C   0  0  1  0  0  3  0  0  0  0  0  0
  190.0330  176.8660  136.6980 C   0  0  1  0  0  0  0  0  0  0  0  0
  187.0660  176.5630  135.3380 C   0  0  1  0  0  3  0  0  0  0  0  0
  187.0160  177.2880  137.7690 C   0  0  0  0  0  2  0  0  0  0  0  0
  189.2790  178.2200  136.7900 C   0  0  0  0  0  2  0  0  0  0  0  0
  188.4740  176.4920  134.7440 C   0  0  0  0  0  2  0  0  0  0  0  0
  189.5710  175.8820  135.6350 C   0  0  2  0  0  3  0  0  0  0  0  0
  187.7830  178.4340  137.1490 C   0  0  1  0  0  3  0  0  0  0  0  0
  189.1950  175.6600  137.0930 C   0  0  1  0  0  3  0  0  0  0  0  0
  184.2440  178.2170  144.4980 C   0  0  0  0  0  2  0  0  0  0  0  0
  185.7420  177.9960  144.4010 C   0  0  0  0  0  2  0  0  0  0  0  0
  186.3640  177.9140  145.7850 C   0  0  2  0  0  3  0  0  0  0  0  0
  185.4610  178.5920  146.8120 C   0  0  2  0  0  3  0  0  0  0  0  0
  186.0750  179.8640  147.3750 C   0  0  0  0  0  1  0  0  0  0  0  0
  185.1660  177.7110  147.8540 O   0  0  0  0  0  1  0  0  0  0  0  0
  187.6740  178.4710  145.7910 O   0  0  0  0  0  0  0  0  0  0  0  0
  188.7490  177.8560  146.4380 C   0  0  0  0  0  0  0  0  0  0  0  0
  188.9420  178.0920  147.6610 O   0  0  0  0  0  0  0  0  0  0  0  0
  189.6750  176.9330  145.6970 C   0  0  2  0  0  3  0  0  0  0  0  0
  192.0450  176.9620  145.4160 O   0  0  0  0  0  0  0  0  0  0  0  0
  190.2760  175.9290  146.6310 C   0  0  0  0  0  2  0  0  0  0  0  0
  190.8710  177.6800  145.1200 C   0  0  1  0  0  3  0  0  0  0  0  0
  191.7650  176.1770  146.5490 C   0  0  2  0  0  3  0  0  0  0  0  0
  192.2260  176.8650  147.7460 N   0  0  0  0  0  2  0  0  0  0  0  0
  192.7350  175.8480  148.6490 C   0  0  0  0  0  1  0  0  0  0  0  0
  190.7600  177.9130  143.5900 C   0  0  1  0  0  0  0  0  0  0  0  0
  190.7870  179.2910  143.3670 O   0  0  0  0  0  1  0  0  0  0  0  0
  191.8350  177.4120  141.3020 C   0  0  0  0  0  1  0  0  0  0  0  0
  191.9590  177.3270  142.8160 C   0  0  0  0  0  2  0  0  0  0  0  0
  189.5310  177.4350  143.0600 O   0  0  0  0  0  0  0  0  0  0  0  0
  188.9980  178.3400  142.1230 C   0  0  0  0  0  2  0  0  0  0  0  0
  187.7470  177.7470  141.5040 C   0  0  0  0  0  1  0  0  0  0  0  0
  180.3640  178.3170  142.0760 C   0  0  0  0  0  2  0  0  0  0  0  0
  180.8720  179.6100  140.1380 F   0  0  0  0  0  0  0  0  0  0  0  0
  179.1650  178.1340  140.0210 F   0  0  0  0  0  0  0  0  0  0  0  0
  179.8310  179.0290  140.8380 C   0  0  0  0  0  0  0  0  0  0  0  0
  178.9520  180.0160  141.2350 F   0  0  0  0  0  0  0  0  0  0  0  0
  1  3  2  0  0  0  0
  2  1  2  0  0  0  0
  2  4  1  0  0  0  0
  3 29  1  0  0  0  0
  5  3  1  0  0  0  0
  6  8  1  0  0  0  0
  6 10  1  0  0  0  0
  7  9  1  0  0  0  0
  8 12  1  6  0  0  0
  8  7  1  0  0  0  0
 10 11  1  0  0  0  0
 11  9  1  0  0  0  0
 11  5  1  1  0  0  0
 14 13  2  0  0  0  0
 14 12  1  0  0  0  0
 15 14  1  0  0  0  0
 16 15  1  0  0  0  0
 17 16  1  0  0  0  0
 17 18  1  0  0  0  0
 20 27  1  0  0  0  0
 20 23  1  1  0  0  0
 21 24  1  1  0  0  0
 21 28  1  0  0  0  0
 21 19  1  0  0  0  0
 22 18  1  1  0  0  0
 22 20  1  0  0  0  0
 25 22  1  0  0  0  0
 26 25  1  6  0  0  0
 26 21  1  0  0  0  0
 26 28  1  0  0  0  0
 27 24  1  6  0  0  0
 27 23  1  0  0  0  0
 28 19  1  1  0  0  0
 30 29  1  0  0  0  0
 31 30  1  6  0  0  0
 31 35  1  0  0  0  0
 31 32  1  0  0  0  0
 32 33  1  1  0  0  0
 32 34  1  0  0  0  0
 35 36  1  0  0  0  0
 36 37  2  0  0  0  0
 38 36  1  1  0  0  0
 38 40  1  0  0  0  0
 39 42  1  0  0  0  0
 41 45  1  6  0  0  0
 41 39  1  0  0  0  0
 41 38  1  0  0  0  0
 42 40  1  0  0  0  0
 42 43  1  1  0  0  0
 43 44  1  0  0  0  0
 45 46  1  6  0  0  0
 47 48  1  0  0  0  0
 48 45  1  0  0  0  0
 49 45  1  0  0  0  0
 50 49  1  0  0  0  0
 51 50  1  0  0  0  0
 52  2  1  0  0  0  0
 53 55  1  0  0  0  0
 54 55  1  0  0  0  0
 55 56  1  0  0  0  0
 55 52  1  0  0  0  0
M  END
>  <MODEL>
2

>  <REMARK>
 VINA RESULT:      -5.7      4.229     10.785
  Name = 
  23 active torsions:
  status: ('A' for Active; 'I' for Inactive)
    1  A    between atoms: C_1  and  C_33
    2  A    between atoms: C_1  and  C_47
    3  A    between atoms: C_2  and  N_38
    4  A    between atoms: C_2  and  C_53
    5  A    between atoms: N_4  and  C_55
    6  A    between atoms: C_6  and  C_7
    7  A    between atoms: C_6  and  O_50
    8  A    between atoms: N_9  and  N_38
    9  A    between atoms: N_9  and  C_43
   10  A    between atoms: O_10  and  C_29
   11  A    between atoms: O_10  and  C_30
   12  A    between atoms: C_11  and  C_32
   13  A    between atoms: C_11  and  C_46
   14  A    between atoms: C_12  and  C_23
   15  A    between atoms: C_12  and  C_53
   16  A    between atoms: C_13  and  C_42
   17  A    between atoms: C_24  and  C_43
   18  A    between atoms: C_30  and  C_31
   19  A    between atoms: C_30  and  C_56
   20  A    between atoms: C_33  and  S_40
   21  A    between atoms: S_40  and  C_52
   22  A    between atoms: C_42  and  C_47
   23  A    between atoms: C_42  and  O_50
                            x       y       z     vdW  Elec       q    Type
                         _______ _______ _______ _____ _____    ______ ____

>  <TORSDO>
F 23

$$$$
=
 OpenBabel11062414523D

 56 61  0  0  1  0  0  0  0  0999 V2000
  184.1480  178.1740  141.6970 C   0  0  0  0  0  0  0  0  0  0  0  0
  184.7510  178.3110  142.8440 C   0  0  0  0  0  0  0  0  0  0  0  0
  183.5370  178.0530  140.5520 C   0  0  0  0  0  0  0  0  0  0  0  0
  186.0270  177.7930  143.0220 O   0  0  0  0  0  1  0  0  0  0  0  0
  183.4990  179.4370  139.4130 S   0  0  0  0  0  0  0  0  0  0  0  0
  187.3300  178.1010  138.7610 C   0  0  0  0  0  2  0  0  0  0  0  0
  185.7710  177.4910  136.9190 C   0  0  0  0  0  2  0  0  0  0  0  0
  186.9610  177.0160  137.7580 C   0  0  1  0  0  3  0  0  0  0  0  0
  184.6670  177.7420  137.7560 O   0  0  0  0  0  0  0  0  0  0  0  0
  186.0880  178.5530  139.5220 C   0  0  0  0  0  2  0  0  0  0  0  0
  184.9810  178.8830  138.5200 C   0  0  2  0  0  3  0  0  0  0  0  0
  188.1570  176.7010  136.8740 C   0  0  0  0  0  2  0  0  0  0  0  0
  189.4350  174.9060  137.7060 O   0  0  0  0  0  0  0  0  0  0  0  0
  189.2740  176.1150  137.6790 C   0  0  0  0  0  0  0  0  0  0  0  0
  190.1800  177.0070  138.4630 C   0  0  0  0  0  2  0  0  0  0  0  0
  190.1940  176.6030  139.8590 N   0  0  0  0  0  2  0  0  0  0  0  0
  190.5620  177.7360  140.5990 N   0  0  0  0  0  2  0  0  0  0  0  0
  189.7690  177.7180  141.8190 C   0  0  0  0  0  2  0  0  0  0  0  0
  189.0340  178.3720  146.3100 C   0  0  0  0  0  2  0  0  0  0  0  0
  191.5940  176.7400  143.3910 C   0  0  1  0  0  3  0  0  0  0  0  0
  189.1190  176.9590  145.7810 C   0  0  1  0  0  0  0  0  0  0  0  0
  190.2110  176.5660  142.7150 C   0  0  1  0  0  3  0  0  0  0  0  0
  191.6740  178.0660  144.1450 C   0  0  0  0  0  2  0  0  0  0  0  0
  190.5510  176.3610  145.8120 C   0  0  0  0  0  2  0  0  0  0  0  0
  189.0690  175.9000  143.4860 C   0  0  0  0  0  2  0  0  0  0  0  0
  188.3170  176.7780  144.5030 C   0  0  2  0  0  3  0  0  0  0  0  0
  191.7550  176.7710  144.9200 C   0  0  1  0  0  3  0  0  0  0  0  0
  188.9530  178.1240  144.8180 C   0  0  1  0  0  3  0  0  0  0  0  0
  182.9950  176.7330  140.1370 C   0  0  0  0  0  2  0  0  0  0  0  0
  181.4820  176.7900  140.0290 C   0  0  0  0  0  2  0  0  0  0  0  0
  181.0510  176.8750  138.5750 C   0  0  2  0  0  3  0  0  0  0  0  0
  179.5350  177.0350  138.4800 C   0  0  2  0  0  3  0  0  0  0  0  0
  178.9420  177.6840  139.7210 C   0  0  0  0  0  1  0  0  0  0  0  0
  178.9310  175.7970  138.2620 O   0  0  0  0  0  1  0  0  0  0  0  0
  181.5040  175.7410  137.8410 O   0  0  0  0  0  0  0  0  0  0  0  0
  181.9710  175.8360  136.5270 C   0  0  0  0  0  0  0  0  0  0  0  0
  182.2520  176.9720  136.0580 O   0  0  0  0  0  0  0  0  0  0  0  0
  182.1300  174.6110  135.6710 C   0  0  2  0  0  3  0  0  0  0  0  0
  181.4800  172.3400  136.0230 O   0  0  0  0  0  0  0  0  0  0  0  0
  180.8780  174.3480  134.8910 C   0  0  0  0  0  2  0  0  0  0  0  0
  182.3230  173.3560  136.5140 C   0  0  1  0  0  3  0  0  0  0  0  0
  180.4240  172.9810  135.3500 C   0  0  2  0  0  3  0  0  0  0  0  0
  179.2800  173.1040  136.2420 N   0  0  0  0  0  2  0  0  0  0  0  0
  179.6010  172.3600  137.4470 C   0  0  0  0  0  1  0  0  0  0  0  0
  183.7940  172.8630  136.5380 C   0  0  1  0  0  0  0  0  0  0  0  0
  184.2820  172.9200  135.2310 O   0  0  0  0  0  1  0  0  0  0  0  0
  186.1810  173.3930  137.3540 C   0  0  0  0  0  1  0  0  0  0  0  0
  184.7080  173.7770  137.3800 C   0  0  0  0  0  2  0  0  0  0  0  0
  183.9010  171.5100  136.9590 O   0  0  0  0  0  0  0  0  0  0  0  0
  184.4080  170.6980  135.9280 C   0  0  0  0  0  2  0  0  0  0  0  0
  183.3750  169.6530  135.5540 C   0  0  0  0  0  1  0  0  0  0  0  0
  184.0490  179.0030  143.9670 C   0  0  0  0  0  2  0  0  0  0  0  0
  183.8100  178.7990  146.3310 F   0  0  0  0  0  0  0  0  0  0  0  0
  185.3840  177.5460  145.3030 F   0  0  0  0  0  0  0  0  0  0  0  0
  184.7380  178.7680  145.3070 C   0  0  0  0  0  0  0  0  0  0  0  0
  185.6660  179.7690  145.5120 F   0  0  0  0  0  0  0  0  0  0  0  0
  1  2  2  0  0  0  0
  2  4  1  0  0  0  0
  2 52  1  0  0  0  0
  3  1  2  0  0  0  0
  5  3  1  0  0  0  0
  6 10  1  0  0  0  0
  7  9  1  0  0  0  0
  7  8  1  0  0  0  0
  8 12  1  6  0  0  0
  8  6  1  0  0  0  0
  9 11  1  0  0  0  0
 11  5  1  1  0  0  0
 11 10  1  0  0  0  0
 12 14  1  0  0  0  0
 14 13  2  0  0  0  0
 14 15  1  0  0  0  0
 15 16  1  0  0  0  0
 16 17  1  0  0  0  0
 17 18  1  0  0  0  0
 20 23  1  6  0  0  0
 20 27  1  0  0  0  0
 21 24  1  1  0  0  0
 21 19  1  0  0  0  0
 22 18  1  1  0  0  0
 22 20  1  0  0  0  0
 22 25  1  0  0  0  0
 26 25  1  6  0  0  0
 26 28  1  0  0  0  0
 26 21  1  0  0  0  0
 27 23  1  1  0  0  0
 27 24  1  0  0  0  0
 28 21  1  0  0  0  0
 28 19  1  1  0  0  0
 29  3  1  0  0  0  0
 30 29  1  0  0  0  0
 31 30  1  1  0  0  0
 32 31  1  0  0  0  0
 32 33  1  1  0  0  0
 34 32  1  0  0  0  0
 35 31  1  0  0  0  0
 36 35  1  0  0  0  0
 37 36  2  0  0  0  0
 38 41  1  0  0  0  0
 38 36  1  1  0  0  0
 39 41  1  0  0  0  0
 40 42  1  0  0  0  0
 40 38  1  0  0  0  0
 41 45  1  6  0  0  0
 42 39  1  0  0  0  0
 42 43  1  1  0  0  0
 43 44  1  0  0  0  0
 45 46  1  6  0  0  0
 45 49  1  0  0  0  0
 45 48  1  0  0  0  0
 47 48  1  0  0  0  0
 50 49  1  0  0  0  0
 51 50  1  0  0  0  0
 52 55  1  0  0  0  0
 54 55  1  0  0  0  0
 55 56  1  0  0  0  0
 55 53  1  0  0  0  0
M  END
>  <MODEL>
3

>  <REMARK>
 VINA RESULT:      -5.4      3.602      6.784
  Name = 
  23 active torsions:
  status: ('A' for Active; 'I' for Inactive)
    1  A    between atoms: C_1  and  C_33
    2  A    between atoms: C_1  and  C_47
    3  A    between atoms: C_2  and  N_38
    4  A    between atoms: C_2  and  C_53
    5  A    between atoms: N_4  and  C_55
    6  A    between atoms: C_6  and  C_7
    7  A    between atoms: C_6  and  O_50
    8  A    between atoms: N_9  and  N_38
    9  A    between atoms: N_9  and  C_43
   10  A    between atoms: O_10  and  C_29
   11  A    between atoms: O_10  and  C_30
   12  A    between atoms: C_11  and  C_32
   13  A    between atoms: C_11  and  C_46
   14  A    between atoms: C_12  and  C_23
   15  A    between atoms: C_12  and  C_53
   16  A    between atoms: C_13  and  C_42
   17  A    between atoms: C_24  and  C_43
   18  A    between atoms: C_30  and  C_31
   19  A    between atoms: C_30  and  C_56
   20  A    between atoms: C_33  and  S_40
   21  A    between atoms: S_40  and  C_52
   22  A    between atoms: C_42  and  C_47
   23  A    between atoms: C_42  and  O_50
                            x       y       z     vdW  Elec       q    Type
                         _______ _______ _______ _____ _____    ______ ____

>  <TORSDO>
F 23

$$$$
=
 OpenBabel11062414523D

 56 61  0  0  1  0  0  0  0  0999 V2000
  181.8200  179.0590  139.9190 C   0  0  0  0  0  0  0  0  0  0  0  0
  180.8030  179.8160  140.2170 C   0  0  0  0  0  0  0  0  0  0  0  0
  182.8450  178.3140  139.6120 C   0  0  0  0  0  0  0  0  0  0  0  0
  180.1560  179.6600  141.4360 O   0  0  0  0  0  1  0  0  0  0  0  0
  184.5050  178.9690  139.7820 S   0  0  0  0  0  0  0  0  0  0  0  0
  183.2550  178.3910  143.6540 C   0  0  0  0  0  2  0  0  0  0  0  0
  185.4590  179.5390  143.5150 C   0  0  0  0  0  2  0  0  0  0  0  0
  184.6310  178.5130  144.2950 C   0  0  1  0  0  3  0  0  0  0  0  0
  185.6060  179.1170  142.1800 O   0  0  0  0  0  0  0  0  0  0  0  0
  183.3960  178.1630  142.1530 C   0  0  0  0  0  2  0  0  0  0  0  0
  184.3390  179.2200  141.5740 C   0  0  2  0  0  3  0  0  0  0  0  0
  184.4880  178.9250  145.7510 C   0  0  0  0  0  2  0  0  0  0  0  0
  186.0960  179.6650  147.3060 O   0  0  0  0  0  0  0  0  0  0  0  0
  185.8030  178.8350  146.4600 C   0  0  0  0  0  0  0  0  0  0  0  0
  186.7620  177.7410  146.1230 C   0  0  0  0  0  2  0  0  0  0  0  0
  187.5310  177.3710  147.2990 N   0  0  0  0  0  2  0  0  0  0  0  0
  188.8700  177.2830  146.8900 N   0  0  0  0  0  2  0  0  0  0  0  0
  188.8630  177.2100  145.4370 C   0  0  0  0  0  2  0  0  0  0  0  0
  189.3160  176.8130  140.8800 C   0  0  0  0  0  2  0  0  0  0  0  0
  191.2480  176.5850  144.6140 C   0  0  1  0  0  3  0  0  0  0  0  0
  190.1360  177.8530  141.6080 C   0  0  1  0  0  0  0  0  0  0  0  0
  190.1990  177.6930  144.8820 C   0  0  1  0  0  3  0  0  0  0  0  0
  190.6690  175.4800  143.7330 C   0  0  0  0  0  2  0  0  0  0  0  0
  191.5260  177.3430  142.0770 C   0  0  0  0  0  2  0  0  0  0  0  0
  190.0850  178.8760  143.9190 C   0  0  0  0  0  2  0  0  0  0  0  0
  189.3060  178.6340  142.6130 C   0  0  2  0  0  3  0  0  0  0  0  0
  191.8120  176.3180  143.2090 C   0  0  1  0  0  3  0  0  0  0  0  0
  188.9620  177.1840  142.3050 C   0  0  1  0  0  3  0  0  0  0  0  0
  182.6430  176.8850  139.2540 C   0  0  0  0  0  2  0  0  0  0  0  0
  181.2420  176.4370  139.6270 C   0  0  0  0  0  2  0  0  0  0  0  0
  180.6310  175.6050  138.5120 C   0  0  2  0  0  3  0  0  0  0  0  0
  179.5990  174.6340  139.0810 C   0  0  2  0  0  3  0  0  0  0  0  0
  179.3640  174.8420  140.5680 C   0  0  0  0  0  1  0  0  0  0  0  0
  179.9940  173.3160  138.8470 O   0  0  0  0  0  1  0  0  0  0  0  0
  181.6390  174.9230  137.7720 O   0  0  0  0  0  0  0  0  0  0  0  0
  181.6380  174.8690  136.3760 C   0  0  0  0  0  0  0  0  0  0  0  0
  180.5670  175.1080  135.7550 O   0  0  0  0  0  0  0  0  0  0  0  0
  182.8850  174.5210  135.6130 C   0  0  2  0  0  3  0  0  0  0  0  0
  184.9950  173.6680  136.3350 O   0  0  0  0  0  0  0  0  0  0  0  0
  182.9290  173.0530  135.3200 C   0  0  0  0  0  2  0  0  0  0  0  0
  184.1400  174.7830  136.4350 C   0  0  1  0  0  3  0  0  0  0  0  0
  184.1850  172.5660  136.0070 C   0  0  2  0  0  3  0  0  0  0  0  0
  183.8430  171.8340  137.2180 N   0  0  0  0  0  2  0  0  0  0  0  0
  182.6200  171.1030  136.9390 C   0  0  0  0  0  1  0  0  0  0  0  0
  184.8900  176.0710  136.0030 C   0  0  1  0  0  0  0  0  0  0  0  0
  185.9950  175.6830  135.2430 O   0  0  0  0  0  1  0  0  0  0  0  0
  183.1140  177.9310  135.8360 C   0  0  0  0  0  1  0  0  0  0  0  0
  184.0340  176.9740  135.0920 C   0  0  0  0  0  2  0  0  0  0  0  0
  185.3920  176.8000  137.1150 O   0  0  0  0  0  0  0  0  0  0  0  0
  186.7800  177.0040  137.0020 C   0  0  0  0  0  2  0  0  0  0  0  0
  187.0580  178.4820  136.8130 C   0  0  0  0  0  1  0  0  0  0  0  0
  180.3260  180.8310  139.2290 C   0  0  0  0  0  2  0  0  0  0  0  0
  179.9460  178.9450  137.8210 F   0  0  0  0  0  0  0  0  0  0  0  0
  179.4000  180.9920  137.0370 F   0  0  0  0  0  0  0  0  0  0  0  0
  180.3000  180.2810  137.8080 C   0  0  0  0  0  0  0  0  0  0  0  0
  181.5610  180.4060  137.2590 F   0  0  0  0  0  0  0  0  0  0  0  0
  1  2  2  0  0  0  0
  2  4  1  0  0  0  0
  3  5  1  0  0  0  0
  3  1  2  0  0  0  0
  6  8  1  0  0  0  0
  7  8  1  0  0  0  0
  8 12  1  1  0  0  0
  9  7  1  0  0  0  0
 10  6  1  0  0  0  0
 11  5  1  6  0  0  0
 11 10  1  0  0  0  0
 11  9  1  0  0  0  0
 12 14  1  0  0  0  0
 14 13  2  0  0  0  0
 15 14  1  0  0  0  0
 15 16  1  0  0  0  0
 17 16  1  0  0  0  0
 18 17  1  0  0  0  0
 20 23  1  6  0  0  0
 20 22  1  0  0  0  0
 21 19  1  6  0  0  0
 21 24  1  0  0  0  0
 21 28  1  0  0  0  0
 21 26  1  0  0  0  0
 22 18  1  6  0  0  0
 25 22  1  0  0  0  0
 26 25  1  1  0  0  0
 27 24  1  6  0  0  0
 27 23  1  0  0  0  0
 27 20  1  0  0  0  0
 28 19  1  6  0  0  0
 28 26  1  0  0  0  0
 29  3  1  0  0  0  0
 29 30  1  0  0  0  0
 31 32  1  0  0  0  0
 31 30  1  1  0  0  0
 32 33  1  1  0  0  0
 34 32  1  0  0  0  0
 35 31  1  0  0  0  0
 36 35  1  0  0  0  0
 37 36  2  0  0  0  0
 38 36  1  1  0  0  0
 38 41  1  0  0  0  0
 39 41  1  0  0  0  0
 40 38  1  0  0  0  0
 40 42  1  0  0  0  0
 41 45  1  6  0  0  0
 42 39  1  0  0  0  0
 42 43  1  1  0  0  0
 44 43  1  0  0  0  0
 45 46  1  6  0  0  0
 45 49  1  0  0  0  0
 48 47  1  0  0  0  0
 48 45  1  0  0  0  0
 50 49  1  0  0  0  0
 51 50  1  0  0  0  0
 52  2  1  0  0  0  0
 54 55  1  0  0  0  0
 55 53  1  0  0  0  0
 55 52  1  0  0  0  0
 56 55  1  0  0  0  0
M  END
>  <MODEL>
4

>  <REMARK>
 VINA RESULT:      -5.4      3.828      7.069
  Name = 
  23 active torsions:
  status: ('A' for Active; 'I' for Inactive)
    1  A    between atoms: C_1  and  C_33
    2  A    between atoms: C_1  and  C_47
    3  A    between atoms: C_2  and  N_38
    4  A    between atoms: C_2  and  C_53
    5  A    between atoms: N_4  and  C_55
    6  A    between atoms: C_6  and  C_7
    7  A    between atoms: C_6  and  O_50
    8  A    between atoms: N_9  and  N_38
    9  A    between atoms: N_9  and  C_43
   10  A    between atoms: O_10  and  C_29
   11  A    between atoms: O_10  and  C_30
   12  A    between atoms: C_11  and  C_32
   13  A    between atoms: C_11  and  C_46
   14  A    between atoms: C_12  and  C_23
   15  A    between atoms: C_12  and  C_53
   16  A    between atoms: C_13  and  C_42
   17  A    between atoms: C_24  and  C_43
   18  A    between atoms: C_30  and  C_31
   19  A    between atoms: C_30  and  C_56
   20  A    between atoms: C_33  and  S_40
   21  A    between atoms: S_40  and  C_52
   22  A    between atoms: C_42  and  C_47
   23  A    between atoms: C_42  and  O_50
                            x       y       z     vdW  Elec       q    Type
                         _______ _______ _______ _____ _____    ______ ____

>  <TORSDO>
F 23

$$$$
=
 OpenBabel11062414523D

 56 61  0  0  1  0  0  0  0  0999 V2000
  189.5500  175.9370  137.3180 C   0  0  0  0  0  0  0  0  0  0  0  0
  190.5260  175.1720  136.9170 C   0  0  0  0  0  0  0  0  0  0  0  0
  188.5760  176.7120  137.7060 C   0  0  0  0  0  0  0  0  0  0  0  0
  190.4600  173.8000  137.1190 O   0  0  0  0  0  1  0  0  0  0  0  0
  187.3760  177.2990  136.5110 S   0  0  0  0  0  0  0  0  0  0  0  0
  185.5460  173.6490  136.9770 C   0  0  0  0  0  2  0  0  0  0  0  0
  185.7020  174.3520  134.5940 C   0  0  0  0  0  2  0  0  0  0  0  0
  184.8240  173.6510  135.6360 C   0  0  1  0  0  3  0  0  0  0  0  0
  185.9440  175.6800  134.9910 O   0  0  0  0  0  0  0  0  0  0  0  0
  186.0240  175.0580  137.3140 C   0  0  0  0  0  2  0  0  0  0  0  0
  186.7880  175.6260  136.1170 C   0  0  2  0  0  3  0  0  0  0  0  0
  184.5150  172.2240  135.2130 C   0  0  0  0  0  2  0  0  0  0  0  0
  183.3400  170.7240  136.5980 O   0  0  0  0  0  0  0  0  0  0  0  0
  183.2830  171.7220  135.8980 C   0  0  0  0  0  0  0  0  0  0  0  0
  181.9820  172.4310  135.7120 C   0  0  0  0  0  2  0  0  0  0  0  0
  181.0180  171.9730  136.7000 N   0  0  0  0  0  2  0  0  0  0  0  0
  180.8570  173.0210  137.6180 N   0  0  0  0  0  2  0  0  0  0  0  0
  181.2560  174.2430  136.9360 C   0  0  0  0  0  2  0  0  0  0  0  0
  183.7870  178.0170  137.6320 C   0  0  0  0  0  2  0  0  0  0  0  0
  180.6090  175.6360  139.0340 C   0  0  1  0  0  3  0  0  0  0  0  0
  182.2990  178.1650  137.4120 C   0  0  1  0  0  0  0  0  0  0  0  0
  180.4890  175.4340  137.5030 C   0  0  1  0  0  3  0  0  0  0  0  0
  182.0730  175.6850  139.4680 C   0  0  0  0  0  2  0  0  0  0  0  0
  181.4640  178.1380  138.7200 C   0  0  0  0  0  2  0  0  0  0  0  0
  180.4540  176.6520  136.5780 C   0  0  0  0  0  2  0  0  0  0  0  0
  181.8050  177.3140  136.2540 C   0  0  2  0  0  3  0  0  0  0  0  0
  181.2100  176.9140  139.6430 C   0  0  1  0  0  3  0  0  0  0  0  0
  182.9900  176.8500  137.0890 C   0  0  1  0  0  3  0  0  0  0  0  0
  188.3850  176.9940  139.1530 C   0  0  0  0  0  2  0  0  0  0  0  0
  189.2910  178.1270  139.5980 C   0  0  0  0  0  2  0  0  0  0  0  0
  189.5710  178.0360  141.0890 C   0  0  2  0  0  3  0  0  0  0  0  0
  190.8380  177.2210  141.3410 C   0  0  2  0  0  3  0  0  0  0  0  0
  191.9810  177.6280  140.4250 C   0  0  0  0  0  1  0  0  0  0  0  0
  190.5750  175.8590  141.1890 O   0  0  0  0  0  1  0  0  0  0  0  0
  188.4530  177.4950  141.7860 O   0  0  0  0  0  0  0  0  0  0  0  0
  188.5390  177.0410  143.1040 C   0  0  0  0  0  0  0  0  0  0  0  0
  188.3040  175.8270  143.3500 O   0  0  0  0  0  0  0  0  0  0  0  0
  188.8950  177.9780  144.2250 C   0  0  2  0  0  3  0  0  0  0  0  0
  189.7410  177.5700  146.4190 O   0  0  0  0  0  0  0  0  0  0  0  0
  190.3650  178.2610  144.2270 C   0  0  0  0  0  2  0  0  0  0  0  0
  188.6250  177.3530  145.5880 C   0  0  1  0  0  3  0  0  0  0  0  0
  190.8460  177.7630  145.5720 C   0  0  2  0  0  3  0  0  0  0  0  0
  191.5670  176.5080  145.4140 N   0  0  0  0  0  2  0  0  0  0  0  0
  192.0290  176.1180  146.7340 C   0  0  0  0  0  1  0  0  0  0  0  0
  187.3410  177.9030  146.2640 C   0  0  1  0  0  0  0  0  0  0  0  0
  186.4990  176.8200  146.5190 O   0  0  0  0  0  1  0  0  0  0  0  0
  187.8410  177.5710  148.7710 C   0  0  0  0  0  1  0  0  0  0  0  0
  187.6300  178.5580  147.6310 C   0  0  0  0  0  2  0  0  0  0  0  0
  186.6250  178.7910  145.4170 O   0  0  0  0  0  0  0  0  0  0  0  0
  185.3170  178.3260  145.1860 C   0  0  0  0  0  2  0  0  0  0  0  0
  185.0320  178.3370  143.6970 C   0  0  0  0  0  1  0  0  0  0  0  0
  191.7220  175.7870  136.2640 C   0  0  0  0  0  2  0  0  0  0  0  0
  193.3950  177.0560  137.3950 F   0  0  0  0  0  0  0  0  0  0  0  0
  192.6340  175.1710  138.3810 F   0  0  0  0  0  0  0  0  0  0  0  0
  192.9460  175.7670  137.1730 C   0  0  0  0  0  0  0  0  0  0  0  0
  193.9460  175.0430  136.5580 F   0  0  0  0  0  0  0  0  0  0  0  0
  1  3  2  0  0  0  0
  2  4  1  0  0  0  0
  2  1  2  0  0  0  0
  3 29  1  0  0  0  0
  5  3  1  0  0  0  0
  6 10  1  0  0  0  0
  7  9  1  0  0  0  0
  7  8  1  0  0  0  0
  8 12  1  6  0  0  0
  8  6  1  0  0  0  0
  9 11  1  0  0  0  0
 11  5  1  1  0  0  0
 11 10  1  0  0  0  0
 12 14  1  0  0  0  0
 14 13  2  0  0  0  0
 15 14  1  0  0  0  0
 15 16  1  0  0  0  0
 16 17  1  0  0  0  0
 18 17  1  0  0  0  0
 20 23  1  6  0  0  0
 20 27  1  0  0  0  0
 21 19  1  6  0  0  0
 21 24  1  0  0  0  0
 22 18  1  6  0  0  0
 22 20  1  0  0  0  0
 23 27  1  0  0  0  0
 25 22  1  0  0  0  0
 26 25  1  1  0  0  0
 26 28  1  0  0  0  0
 26 21  1  0  0  0  0
 27 24  1  6  0  0  0
 28 21  1  0  0  0  0
 28 19  1  6  0  0  0
 29 30  1  0  0  0  0
 31 30  1  6  0  0  0
 31 32  1  0  0  0  0
 31 35  1  0  0  0  0
 32 33  1  6  0  0  0
 34 32  1  0  0  0  0
 35 36  1  0  0  0  0
 36 37  2  0  0  0  0
 38 36  1  6  0  0  0
 38 40  1  0  0  0  0
 38 41  1  0  0  0  0
 40 42  1  0  0  0  0
 41 45  1  1  0  0  0
 41 39  1  0  0  0  0
 42 43  1  6  0  0  0
 42 39  1  0  0  0  0
 43 44  1  0  0  0  0
 45 46  1  1  0  0  0
 45 48  1  0  0  0  0
 48 47  1  0  0  0  0
 49 45  1  0  0  0  0
 50 49  1  0  0  0  0
 51 50  1  0  0  0  0
 52  2  1  0  0  0  0
 52 55  1  0  0  0  0
 55 53  1  0  0  0  0
 55 54  1  0  0  0  0
 56 55  1  0  0  0  0
M  END
>  <MODEL>
5

>  <REMARK>
 VINA RESULT:      -5.4      2.315      8.560
  Name = 
  23 active torsions:
  status: ('A' for Active; 'I' for Inactive)
    1  A    between atoms: C_1  and  C_33
    2  A    between atoms: C_1  and  C_47
    3  A    between atoms: C_2  and  N_38
    4  A    between atoms: C_2  and  C_53
    5  A    between atoms: N_4  and  C_55
    6  A    between atoms: C_6  and  C_7
    7  A    between atoms: C_6  and  O_50
    8  A    between atoms: N_9  and  N_38
    9  A    between atoms: N_9  and  C_43
   10  A    between atoms: O_10  and  C_29
   11  A    between atoms: O_10  and  C_30
   12  A    between atoms: C_11  and  C_32
   13  A    between atoms: C_11  and  C_46
   14  A    between atoms: C_12  and  C_23
   15  A    between atoms: C_12  and  C_53
   16  A    between atoms: C_13  and  C_42
   17  A    between atoms: C_24  and  C_43
   18  A    between atoms: C_30  and  C_31
   19  A    between atoms: C_30  and  C_56
   20  A    between atoms: C_33  and  S_40
   21  A    between atoms: S_40  and  C_52
   22  A    between atoms: C_42  and  C_47
   23  A    between atoms: C_42  and  O_50
                            x       y       z     vdW  Elec       q    Type
                         _______ _______ _______ _____ _____    ______ ____

>  <TORSDO>
F 23

$$$$
=
 OpenBabel11062414523D

 56 61  0  0  1  0  0  0  0  0999 V2000
  188.8120  177.5620  142.9860 C   0  0  0  0  0  0  0  0  0  0  0  0
  188.1220  177.1160  143.9970 C   0  0  0  0  0  0  0  0  0  0  0  0
  189.5150  178.0130  141.9850 C   0  0  0  0  0  0  0  0  0  0  0  0
  187.3540  175.9680  143.8590 O   0  0  0  0  0  1  0  0  0  0  0  0
  191.2760  177.6860  141.9140 S   0  0  0  0  0  0  0  0  0  0  0  0
  192.6110  176.6950  138.1560 C   0  0  0  0  0  2  0  0  0  0  0  0
  190.3170  175.8480  138.6170 C   0  0  0  0  0  2  0  0  0  0  0  0
  191.6530  175.5320  137.9380 C   0  0  1  0  0  3  0  0  0  0  0  0
  190.5160  176.0330  139.9990 O   0  0  0  0  0  0  0  0  0  0  0  0
  192.6600  177.0620  139.6350 C   0  0  0  0  0  2  0  0  0  0  0  0
  191.2320  177.2350  140.1550 C   0  0  2  0  0  3  0  0  0  0  0  0
  191.4620  175.2910  136.4500 C   0  0  0  0  0  2  0  0  0  0  0  0
  190.1010  173.4450  136.9880 O   0  0  0  0  0  0  0  0  0  0  0  0
  190.8990  173.9270  136.2010 C   0  0  0  0  0  0  0  0  0  0  0  0
  191.3260  173.1490  135.0000 C   0  0  0  0  0  2  0  0  0  0  0  0
  192.7770  173.1160  134.9160 N   0  0  0  0  0  2  0  0  0  0  0  0
  193.2380  172.6490  136.1560 N   0  0  0  0  0  2  0  0  0  0  0  0
  194.4790  171.9320  135.9020 C   0  0  0  0  0  2  0  0  0  0  0  0
  197.6690  175.2380  135.7460 C   0  0  0  0  0  2  0  0  0  0  0  0
  196.7640  171.3130  136.9740 C   0  0  1  0  0  3  0  0  0  0  0  0
  197.2080  174.7290  137.0930 C   0  0  1  0  0  0  0  0  0  0  0  0
  195.3860  172.0050  137.1260 C   0  0  1  0  0  3  0  0  0  0  0  0
  197.4980  171.8150  135.7320 C   0  0  0  0  0  2  0  0  0  0  0  0
  198.0520  173.5470  137.6400 C   0  0  0  0  0  2  0  0  0  0  0  0
  195.2780  173.3150  137.9070 C   0  0  0  0  0  2  0  0  0  0  0  0
  195.6960  174.5990  137.1670 C   0  0  2  0  0  3  0  0  0  0  0  0
  198.0850  172.0920  137.0970 C   0  0  1  0  0  3  0  0  0  0  0  0
  196.4130  174.3980  135.8400 C   0  0  1  0  0  3  0  0  0  0  0  0
  188.8360  178.6770  140.8410 C   0  0  0  0  0  2  0  0  0  0  0  0
  187.6010  177.8960  140.4300 C   0  0  0  0  0  2  0  0  0  0  0  0
  186.3810  178.8010  140.3940 C   0  0  2  0  0  3  0  0  0  0  0  0
  185.5910  178.6770  141.6940 C   0  0  2  0  0  3  0  0  0  0  0  0
  184.1620  178.2120  141.4620 C   0  0  0  0  0  1  0  0  0  0  0  0
  185.5850  179.8950  142.3750 O   0  0  0  0  0  1  0  0  0  0  0  0
  185.5700  178.5180  139.2580 O   0  0  0  0  0  0  0  0  0  0  0  0
  186.1100  178.2390  138.0000 C   0  0  0  0  0  0  0  0  0  0  0  0
  186.7870  179.1270  137.4150 O   0  0  0  0  0  0  0  0  0  0  0  0
  185.8840  176.9090  137.3380 C   0  0  2  0  0  3  0  0  0  0  0  0
  185.5520  176.3170  135.0490 O   0  0  0  0  0  0  0  0  0  0  0  0
  187.1710  176.3670  136.7960 C   0  0  0  0  0  2  0  0  0  0  0  0
  184.9790  177.0330  136.1190 C   0  0  1  0  0  3  0  0  0  0  0  0
  186.9320  176.2370  135.3080 C   0  0  2  0  0  3  0  0  0  0  0  0
  187.6250  177.2990  134.5940 N   0  0  0  0  0  2  0  0  0  0  0  0
  188.8810  177.5250  135.2870 C   0  0  0  0  0  1  0  0  0  0  0  0
  183.5340  176.5320  136.3830 C   0  0  1  0  0  0  0  0  0  0  0  0
  182.6610  177.3750  135.6930 O   0  0  0  0  0  1  0  0  0  0  0  0
  183.6460  173.9900  136.7930 C   0  0  0  0  0  1  0  0  0  0  0  0
  183.2920  175.1130  135.8280 C   0  0  0  0  0  2  0  0  0  0  0  0
  183.1810  176.6080  137.7570 O   0  0  0  0  0  0  0  0  0  0  0  0
  181.8020  176.8440  137.9120 C   0  0  0  0  0  2  0  0  0  0  0  0
  181.3960  176.5390  139.3410 C   0  0  0  0  0  1  0  0  0  0  0  0
  188.1460  177.8630  145.2910 C   0  0  0  0  0  2  0  0  0  0  0  0
  186.0420  178.9830  145.2040 F   0  0  0  0  0  0  0  0  0  0  0  0
  186.0730  176.8130  145.8330 F   0  0  0  0  0  0  0  0  0  0  0  0
  186.7530  178.0160  145.8910 C   0  0  0  0  0  0  0  0  0  0  0  0
  186.8760  178.4020  147.2110 F   0  0  0  0  0  0  0  0  0  0  0  0
  1  2  2  0  0  0  0
  2 52  1  0  0  0  0
  3  1  2  0  0  0  0
  4  2  1  0  0  0  0
  5  3  1  0  0  0  0
  6 10  1  0  0  0  0
  7  9  1  0  0  0  0
  8 12  1  6  0  0  0
  8  6  1  0  0  0  0
  8  7  1  0  0  0  0
  9 11  1  0  0  0  0
 10 11  1  0  0  0  0
 11  5  1  1  0  0  0
 14 12  1  0  0  0  0
 14 13  2  0  0  0  0
 15 14  1  0  0  0  0
 16 15  1  0  0  0  0
 16 17  1  0  0  0  0
 18 17  1  0  0  0  0
 20 23  1  6  0  0  0
 20 27  1  0  0  0  0
 20 22  1  0  0  0  0
 21 19  1  1  0  0  0
 21 26  1  0  0  0  0
 21 24  1  0  0  0  0
 22 18  1  6  0  0  0
 22 25  1  0  0  0  0
 26 25  1  1  0  0  0
 27 23  1  6  0  0  0
 27 24  1  0  0  0  0
 28 19  1  6  0  0  0
 28 21  1  0  0  0  0
 28 26  1  0  0  0  0
 29  3  1  0  0  0  0
 30 29  1  0  0  0  0
 31 30  1  1  0  0  0
 31 32  1  0  0  0  0
 32 33  1  6  0  0  0
 32 34  1  0  0  0  0
 35 31  1  0  0  0  0
 36 35  1  0  0  0  0
 37 36  2  0  0  0  0
 38 36  1  6  0  0  0
 39 42  1  0  0  0  0
 39 41  1  0  0  0  0
 40 38  1  0  0  0  0
 41 45  1  1  0  0  0
 41 38  1  0  0  0  0
 42 43  1  6  0  0  0
 42 40  1  0  0  0  0
 43 44  1  0  0  0  0
 45 46  1  6  0  0  0
 45 49  1  0  0  0  0
 48 45  1  0  0  0  0
 48 47  1  0  0  0  0
 49 50  1  0  0  0  0
 50 51  1  0  0  0  0
 52 55  1  0  0  0  0
 53 55  1  0  0  0  0
 54 55  1  0  0  0  0
 55 56  1  0  0  0  0
M  END
>  <MODEL>
6

>  <REMARK>
 VINA RESULT:      -5.3      4.482      9.201
  Name = 
  23 active torsions:
  status: ('A' for Active; 'I' for Inactive)
    1  A    between atoms: C_1  and  C_33
    2  A    between atoms: C_1  and  C_47
    3  A    between atoms: C_2  and  N_38
    4  A    between atoms: C_2  and  C_53
    5  A    between atoms: N_4  and  C_55
    6  A    between atoms: C_6  and  C_7
    7  A    between atoms: C_6  and  O_50
    8  A    between atoms: N_9  and  N_38
    9  A    between atoms: N_9  and  C_43
   10  A    between atoms: O_10  and  C_29
   11  A    between atoms: O_10  and  C_30
   12  A    between atoms: C_11  and  C_32
   13  A    between atoms: C_11  and  C_46
   14  A    between atoms: C_12  and  C_23
   15  A    between atoms: C_12  and  C_53
   16  A    between atoms: C_13  and  C_42
   17  A    between atoms: C_24  and  C_43
   18  A    between atoms: C_30  and  C_31
   19  A    between atoms: C_30  and  C_56
   20  A    between atoms: C_33  and  S_40
   21  A    between atoms: S_40  and  C_52
   22  A    between atoms: C_42  and  C_47
   23  A    between atoms: C_42  and  O_50
                            x       y       z     vdW  Elec       q    Type
                         _______ _______ _______ _____ _____    ______ ____

>  <TORSDO>
F 23

$$$$
=
 OpenBabel11062414523D

 56 61  0  0  1  0  0  0  0  0999 V2000
  189.9730  175.3510  136.7540 C   0  0  0  0  0  0  0  0  0  0  0  0
  191.0160  174.6000  136.5460 C   0  0  0  0  0  0  0  0  0  0  0  0
  188.9380  176.1150  136.9690 C   0  0  0  0  0  0  0  0  0  0  0  0
  191.1080  173.8460  135.3840 O   0  0  0  0  0  1  0  0  0  0  0  0
  189.0550  177.8780  136.6680 S   0  0  0  0  0  0  0  0  0  0  0  0
  188.3190  178.5980  140.6470 C   0  0  0  0  0  2  0  0  0  0  0  0
  190.6290  177.7730  140.2280 C   0  0  0  0  0  2  0  0  0  0  0  0
  189.4360  177.7150  141.1870 C   0  0  1  0  0  3  0  0  0  0  0  0
  190.2440  177.3070  138.9570 O   0  0  0  0  0  0  0  0  0  0  0  0
  188.0450  178.2590  139.1850 C   0  0  0  0  0  2  0  0  0  0  0  0
  189.3670  178.2660  138.4160 C   0  0  2  0  0  3  0  0  0  0  0  0
  189.8340  178.1780  142.5790 C   0  0  0  0  0  2  0  0  0  0  0  0
  191.9440  177.1330  142.5280 O   0  0  0  0  0  0  0  0  0  0  0  0
  190.9040  177.2990  143.1450 C   0  0  0  0  0  0  0  0  0  0  0  0
  190.6940  176.6130  144.4550 C   0  0  0  0  0  2  0  0  0  0  0  0
  190.7960  177.5710  145.5430 N   0  0  0  0  0  2  0  0  0  0  0  0
  189.7010  177.3350  146.3870 N   0  0  0  0  0  2  0  0  0  0  0  0
  188.6080  178.1640  145.9030 C   0  0  0  0  0  2  0  0  0  0  0  0
  185.1440  179.7530  143.3320 C   0  0  0  0  0  2  0  0  0  0  0  0
  186.2810  178.1620  147.0610 C   0  0  1  0  0  3  0  0  0  0  0  0
  185.0900  178.3270  143.8310 C   0  0  1  0  0  0  0  0  0  0  0  0
  187.2760  177.4510  146.1110 C   0  0  1  0  0  3  0  0  0  0  0  0
  186.0520  179.6110  146.6330 C   0  0  0  0  0  2  0  0  0  0  0  0
  184.3770  178.1660  145.2000 C   0  0  0  0  0  2  0  0  0  0  0  0
  186.7520  176.7300  144.8670 C   0  0  0  0  0  2  0  0  0  0  0  0
  186.4170  177.6070  143.6480 C   0  0  2  0  0  3  0  0  0  0  0  0
  184.8970  178.6360  146.5860 C   0  0  1  0  0  3  0  0  0  0  0  0
  186.3930  179.1090  143.8970 C   0  0  1  0  0  3  0  0  0  0  0  0
  187.6310  175.5070  137.3310 C   0  0  0  0  0  2  0  0  0  0  0  0
  186.8010  175.2510  136.0870 C   0  0  0  0  0  2  0  0  0  0  0  0
  185.5570  174.4480  136.4280 C   0  0  2  0  0  3  0  0  0  0  0  0
  185.8860  172.9580  136.4850 C   0  0  2  0  0  3  0  0  0  0  0  0
  185.3770  172.2040  135.2670 C   0  0  0  0  0  1  0  0  0  0  0  0
  185.3590  172.3910  137.6450 O   0  0  0  0  0  1  0  0  0  0  0  0
  184.5060  174.7170  135.5040 O   0  0  0  0  0  0  0  0  0  0  0  0
  183.2500  175.1740  135.9080 C   0  0  0  0  0  0  0  0  0  0  0  0
  182.7100  176.1200  135.2750 O   0  0  0  0  0  0  0  0  0  0  0  0
  182.5460  174.5620  137.0880 C   0  0  2  0  0  3  0  0  0  0  0  0
  180.2260  174.3470  137.6070 O   0  0  0  0  0  0  0  0  0  0  0  0
  182.1180  173.1620  136.7760 C   0  0  0  0  0  2  0  0  0  0  0  0
  181.2490  175.2940  137.4100 C   0  0  1  0  0  3  0  0  0  0  0  0
  180.6120  173.1840  136.9160 C   0  0  2  0  0  3  0  0  0  0  0  0
  179.9850  173.1650  135.6020 N   0  0  0  0  0  2  0  0  0  0  0  0
  181.0510  173.0200  134.6280 C   0  0  0  0  0  1  0  0  0  0  0  0
  181.3670  176.2170  138.6520 C   0  0  1  0  0  0  0  0  0  0  0  0
  180.7350  177.4240  138.3440 O   0  0  0  0  0  1  0  0  0  0  0  0
  180.3280  176.6700  140.9670 C   0  0  0  0  0  1  0  0  0  0  0  0
  180.6310  175.6470  139.8820 C   0  0  0  0  0  2  0  0  0  0  0  0
  182.7170  176.5280  138.9660 O   0  0  0  0  0  0  0  0  0  0  0  0
  183.0590  177.8150  138.5100 C   0  0  0  0  0  2  0  0  0  0  0  0
  184.5450  177.8670  138.2140 C   0  0  0  0  0  1  0  0  0  0  0  0
  192.0960  174.5380  137.5790 C   0  0  0  0  0  2  0  0  0  0  0  0
  193.5660  175.4370  135.9300 F   0  0  0  0  0  0  0  0  0  0  0  0
  192.8790  176.7900  137.6040 F   0  0  0  0  0  0  0  0  0  0  0  0
  193.2390  175.4980  137.2720 C   0  0  0  0  0  0  0  0  0  0  0  0
  194.3410  175.1310  138.0190 F   0  0  0  0  0  0  0  0  0  0  0  0
  1  3  2  0  0  0  0
  2  1  2  0  0  0  0
  2 52  1  0  0  0  0
  3 29  1  0  0  0  0
  4  2  1  0  0  0  0
  5  3  1  0  0  0  0
  6  8  1  0  0  0  0
  7  8  1  0  0  0  0
  8 12  1  1  0  0  0
  9  7  1  0  0  0  0
 10  6  1  0  0  0  0
 11  5  1  6  0  0  0
 11  9  1  0  0  0  0
 11 10  1  0  0  0  0
 12 14  1  0  0  0  0
 13 14  2  0  0  0  0
 14 15  1  0  0  0  0
 15 16  1  0  0  0  0
 16 17  1  0  0  0  0
 18 17  1  0  0  0  0
 20 23  1  6  0  0  0
 21 19  1  6  0  0  0
 21 28  1  0  0  0  0
 21 24  1  0  0  0  0
 22 18  1  6  0  0  0
 22 20  1  0  0  0  0
 25 22  1  0  0  0  0
 26 21  1  0  0  0  0
 26 28  1  0  0  0  0
 26 25  1  1  0  0  0
 27 24  1  6  0  0  0
 27 23  1  0  0  0  0
 27 20  1  0  0  0  0
 28 19  1  6  0  0  0
 30 29  1  0  0  0  0
 31 30  1  6  0  0  0
 31 32  1  0  0  0  0
 32 33  1  6  0  0  0
 32 34  1  0  0  0  0
 35 36  1  0  0  0  0
 35 31  1  0  0  0  0
 37 36  2  0  0  0  0
 38 36  1  6  0  0  0
 38 41  1  0  0  0  0
 40 42  1  0  0  0  0
 40 38  1  0  0  0  0
 41 39  1  0  0  0  0
 41 45  1  1  0  0  0
 42 43  1  6  0  0  0
 42 39  1  0  0  0  0
 44 43  1  0  0  0  0
 45 46  1  6  0  0  0
 45 49  1  0  0  0  0
 45 48  1  0  0  0  0
 48 47  1  0  0  0  0
 50 49  1  0  0  0  0
 51 50  1  0  0  0  0
 53 55  1  0  0  0  0
 55 52  1  0  0  0  0
 55 54  1  0  0  0  0
 55 56  1  0  0  0  0
M  END
>  <MODEL>
7

>  <REMARK>
 VINA RESULT:      -5.2      1.435      2.037
  Name = 
  23 active torsions:
  status: ('A' for Active; 'I' for Inactive)
    1  A    between atoms: C_1  and  C_33
    2  A    between atoms: C_1  and  C_47
    3  A    between atoms: C_2  and  N_38
    4  A    between atoms: C_2  and  C_53
    5  A    between atoms: N_4  and  C_55
    6  A    between atoms: C_6  and  C_7
    7  A    between atoms: C_6  and  O_50
    8  A    between atoms: N_9  and  N_38
    9  A    between atoms: N_9  and  C_43
   10  A    between atoms: O_10  and  C_29
   11  A    between atoms: O_10  and  C_30
   12  A    between atoms: C_11  and  C_32
   13  A    between atoms: C_11  and  C_46
   14  A    between atoms: C_12  and  C_23
   15  A    between atoms: C_12  and  C_53
   16  A    between atoms: C_13  and  C_42
   17  A    between atoms: C_24  and  C_43
   18  A    between atoms: C_30  and  C_31
   19  A    between atoms: C_30  and  C_56
   20  A    between atoms: C_33  and  S_40
   21  A    between atoms: S_40  and  C_52
   22  A    between atoms: C_42  and  C_47
   23  A    between atoms: C_42  and  O_50
                            x       y       z     vdW  Elec       q    Type
                         _______ _______ _______ _____ _____    ______ ____

>  <TORSDO>
F 23

$$$$
=
 OpenBabel11062414523D

 56 61  0  0  1  0  0  0  0  0999 V2000
  187.8940  177.5920  142.5440 C   0  0  0  0  0  0  0  0  0  0  0  0
  188.1400  176.7270  143.4870 C   0  0  0  0  0  0  0  0  0  0  0  0
  187.6590  178.4680  141.6080 C   0  0  0  0  0  0  0  0  0  0  0  0
  188.0920  175.3670  143.2100 O   0  0  0  0  0  1  0  0  0  0  0  0
  189.0280  179.2970  140.8010 S   0  0  0  0  0  0  0  0  0  0  0  0
  189.1410  176.2210  138.0770 C   0  0  0  0  0  2  0  0  0  0  0  0
  187.3280  177.8600  137.6050 C   0  0  0  0  0  2  0  0  0  0  0  0
  187.7060  176.3760  137.5900 C   0  0  1  0  0  3  0  0  0  0  0  0
  187.4290  178.3650  138.9150 O   0  0  0  0  0  0  0  0  0  0  0  0
  189.3280  176.9660  139.3950 C   0  0  0  0  0  2  0  0  0  0  0  0
  188.7980  178.3930  139.2410 C   0  0  2  0  0  3  0  0  0  0  0  0
  187.5700  175.7950  136.1920 C   0  0  0  0  0  2  0  0  0  0  0  0
  186.7930  173.7470  137.0600 O   0  0  0  0  0  0  0  0  0  0  0  0
  187.5100  174.3010  136.2410 C   0  0  0  0  0  0  0  0  0  0  0  0
  188.3370  173.4870  135.3010 C   0  0  0  0  0  2  0  0  0  0  0  0
  189.7120  173.9580  135.3100 N   0  0  0  0  0  2  0  0  0  0  0  0
  190.4530  173.0140  136.0370 N   0  0  0  0  0  2  0  0  0  0  0  0
  191.4940  173.7460  136.7410 C   0  0  0  0  0  2  0  0  0  0  0  0
  195.7050  174.2470  138.5160 C   0  0  0  0  0  2  0  0  0  0  0  0
  192.8560  175.7530  135.8050 C   0  0  1  0  0  3  0  0  0  0  0  0
  195.5620  174.0040  137.0310 C   0  0  1  0  0  0  0  0  0  0  0  0
  192.5510  174.2350  135.7560 C   0  0  1  0  0  3  0  0  0  0  0  0
  193.2010  176.1980  137.2250 C   0  0  0  0  0  2  0  0  0  0  0  0
  195.4520  175.3030  136.1880 C   0  0  0  0  0  2  0  0  0  0  0  0
  193.6890  173.2410  135.5150 C   0  0  0  0  0  2  0  0  0  0  0  0
  194.5710  172.8920  136.7270 C   0  0  2  0  0  3  0  0  0  0  0  0
  194.2560  176.2920  136.1470 C   0  0  1  0  0  3  0  0  0  0  0  0
  194.3820  173.7640  137.9600 C   0  0  1  0  0  3  0  0  0  0  0  0
  186.2710  178.6770  141.1190 C   0  0  0  0  0  2  0  0  0  0  0  0
  185.2880  177.8730  141.9490 C   0  0  0  0  0  2  0  0  0  0  0  0
  184.1750  178.7640  142.4750 C   0  0  2  0  0  3  0  0  0  0  0  0
  184.3080  178.9420  143.9850 C   0  0  2  0  0  3  0  0  0  0  0  0
  182.9670  178.8720  144.6980 C   0  0  0  0  0  1  0  0  0  0  0  0
  184.9330  180.1550  144.2760 O   0  0  0  0  0  1  0  0  0  0  0  0
  182.8960  178.2470  142.1190 O   0  0  0  0  0  0  0  0  0  0  0  0
  182.1170  178.8070  141.1030 C   0  0  0  0  0  0  0  0  0  0  0  0
  181.0430  179.3910  141.4070 O   0  0  0  0  0  0  0  0  0  0  0  0
  182.5370  178.7100  139.6620 C   0  0  2  0  0  3  0  0  0  0  0  0
  181.2930  178.9200  137.6350 O   0  0  0  0  0  0  0  0  0  0  0  0
  182.7820  180.0730  139.0940 C   0  0  0  0  0  2  0  0  0  0  0  0
  181.4310  178.1280  138.7920 C   0  0  1  0  0  3  0  0  0  0  0  0
  181.7930  180.1950  137.9560 C   0  0  2  0  0  3  0  0  0  0  0  0
  180.6930  181.0690  138.3380 N   0  0  0  0  0  2  0  0  0  0  0  0
  180.2340  181.7240  137.1260 C   0  0  0  0  0  1  0  0  0  0  0  0
  181.6840  176.6480  138.3980 C   0  0  1  0  0  0  0  0  0  0  0  0
  181.6340  175.8840  139.5650 O   0  0  0  0  0  1  0  0  0  0  0  0
  179.3140  175.6590  138.1830 C   0  0  0  0  0  1  0  0  0  0  0  0
  180.5870  176.0900  137.4680 C   0  0  0  0  0  2  0  0  0  0  0  0
  182.9740  176.4550  137.8350 O   0  0  0  0  0  0  0  0  0  0  0  0
  183.4050  175.1250  138.0000 C   0  0  0  0  0  2  0  0  0  0  0  0
  183.5690  174.4760  136.6400 C   0  0  0  0  0  1  0  0  0  0  0  0
  188.4460  177.2100  144.8680 C   0  0  0  0  0  2  0  0  0  0  0  0
  190.3090  177.4380  146.3380 F   0  0  0  0  0  0  0  0  0  0  0  0
  190.7040  176.8410  144.1950 F   0  0  0  0  0  0  0  0  0  0  0  0
  189.9090  177.6080  145.0260 C   0  0  0  0  0  0  0  0  0  0  0  0
  190.0490  178.9380  144.6830 F   0  0  0  0  0  0  0  0  0  0  0  0
  1  2  2  0  0  0  0
  2 52  1  0  0  0  0
  3  1  2  0  0  0  0
  4  2  1  0  0  0  0
  5  3  1  0  0  0  0
  6 10  1  0  0  0  0
  7  9  1  0  0  0  0
  8 12  1  6  0  0  0
  8  7  1  0  0  0  0
  8  6  1  0  0  0  0
  9 11  1  0  0  0  0
 11 10  1  0  0  0  0
 11  5  1  1  0  0  0
 12 14  1  0  0  0  0
 14 13  2  0  0  0  0
 15 16  1  0  0  0  0
 15 14  1  0  0  0  0
 16 17  1  0  0  0  0
 17 18  1  0  0  0  0
 20 27  1  0  0  0  0
 20 23  1  1  0  0  0
 21 24  1  6  0  0  0
 21 28  1  0  0  0  0
 21 19  1  0  0  0  0
 22 20  1  0  0  0  0
 22 18  1  1  0  0  0
 25 22  1  0  0  0  0
 26 25  1  6  0  0  0
 26 21  1  0  0  0  0
 26 28  1  0  0  0  0
 27 24  1  1  0  0  0
 27 23  1  0  0  0  0
 28 19  1  1  0  0  0
 29  3  1  0  0  0  0
 29 30  1  0  0  0  0
 31 30  1  1  0  0  0
 31 32  1  0  0  0  0
 32 34  1  0  0  0  0
 32 33  1  1  0  0  0
 35 31  1  0  0  0  0
 36 37  2  0  0  0  0
 36 35  1  0  0  0  0
 38 36  1  1  0  0  0
 39 42  1  0  0  0  0
 39 41  1  0  0  0  0
 40 38  1  0  0  0  0
 41 45  1  6  0  0  0
 41 38  1  0  0  0  0
 42 43  1  1  0  0  0
 42 40  1  0  0  0  0
 44 43  1  0  0  0  0
 45 46  1  1  0  0  0
 48 47  1  0  0  0  0
 48 45  1  0  0  0  0
 49 50  1  0  0  0  0
 49 45  1  0  0  0  0
 51 50  1  0  0  0  0
 52 55  1  0  0  0  0
 54 55  1  0  0  0  0
 55 53  1  0  0  0  0
 56 55  1  0  0  0  0
M  END
>  <MODEL>
8

>  <REMARK>
 VINA RESULT:      -5.1      3.430      8.240
  Name = 
  23 active torsions:
  status: ('A' for Active; 'I' for Inactive)
    1  A    between atoms: C_1  and  C_33
    2  A    between atoms: C_1  and  C_47
    3  A    between atoms: C_2  and  N_38
    4  A    between atoms: C_2  and  C_53
    5  A    between atoms: N_4  and  C_55
    6  A    between atoms: C_6  and  C_7
    7  A    between atoms: C_6  and  O_50
    8  A    between atoms: N_9  and  N_38
    9  A    between atoms: N_9  and  C_43
   10  A    between atoms: O_10  and  C_29
   11  A    between atoms: O_10  and  C_30
   12  A    between atoms: C_11  and  C_32
   13  A    between atoms: C_11  and  C_46
   14  A    between atoms: C_12  and  C_23
   15  A    between atoms: C_12  and  C_53
   16  A    between atoms: C_13  and  C_42
   17  A    between atoms: C_24  and  C_43
   18  A    between atoms: C_30  and  C_31
   19  A    between atoms: C_30  and  C_56
   20  A    between atoms: C_33  and  S_40
   21  A    between atoms: S_40  and  C_52
   22  A    between atoms: C_42  and  C_47
   23  A    between atoms: C_42  and  O_50
                            x       y       z     vdW  Elec       q    Type
                         _______ _______ _______ _____ _____    ______ ____

>  <TORSDO>
F 23

$$$$
=
 OpenBabel11062414523D

 56 61  0  0  1  0  0  0  0  0999 V2000
  181.5510  178.6080  140.0950 C   0  0  0  0  0  0  0  0  0  0  0  0
  180.3690  179.1520  140.1580 C   0  0  0  0  0  0  0  0  0  0  0  0
  182.7390  178.0750  140.0200 C   0  0  0  0  0  0  0  0  0  0  0  0
  179.6840  179.1830  141.3660 O   0  0  0  0  0  1  0  0  0  0  0  0
  184.1890  179.1300  140.0120 S   0  0  0  0  0  0  0  0  0  0  0  0
  182.9840  178.9950  143.9380 C   0  0  0  0  0  2  0  0  0  0  0  0
  185.4060  178.4960  143.6560 C   0  0  0  0  0  2  0  0  0  0  0  0
  184.1390  178.1380  144.4390 C   0  0  1  0  0  3  0  0  0  0  0  0
  185.2060  178.2480  142.2850 O   0  0  0  0  0  0  0  0  0  0  0  0
  182.8980  178.9190  142.4180 C   0  0  0  0  0  2  0  0  0  0  0  0
  184.2790  179.2030  141.8250 C   0  0  2  0  0  3  0  0  0  0  0  0
  184.3400  178.3610  145.9290 C   0  0  0  0  0  2  0  0  0  0  0  0
  186.0880  179.8050  146.5690 O   0  0  0  0  0  0  0  0  0  0  0  0
  185.7720  178.6750  146.2300 C   0  0  0  0  0  0  0  0  0  0  0  0
  186.8150  177.6150  146.1010 C   0  0  0  0  0  2  0  0  0  0  0  0
  187.5930  177.5280  147.3250 N   0  0  0  0  0  2  0  0  0  0  0  0
  188.8940  177.9420  147.0020 N   0  0  0  0  0  2  0  0  0  0  0  0
  189.4070  176.9970  146.0230 C   0  0  0  0  0  2  0  0  0  0  0  0
  189.0190  176.8790  141.4440 C   0  0  0  0  0  2  0  0  0  0  0  0
  191.6310  176.6040  144.7350 C   0  0  1  0  0  3  0  0  0  0  0  0
  189.8900  177.9400  142.0770 C   0  0  1  0  0  0  0  0  0  0  0  0
  190.5790  177.6110  145.2640 C   0  0  1  0  0  3  0  0  0  0  0  0
  190.9710  175.5060  143.9030 C   0  0  0  0  0  2  0  0  0  0  0  0
  191.3740  177.5160  142.2470 C   0  0  0  0  0  2  0  0  0  0  0  0
  190.2070  178.8320  144.4200 C   0  0  0  0  0  2  0  0  0  0  0  0
  189.2140  178.5990  143.2670 C   0  0  2  0  0  3  0  0  0  0  0  0
  191.9360  176.4580  143.2350 C   0  0  1  0  0  3  0  0  0  0  0  0
  188.9150  177.1450  142.9310 C   0  0  1  0  0  3  0  0  0  0  0  0
  182.8950  176.5980  140.0780 C   0  0  0  0  0  2  0  0  0  0  0  0
  181.7700  175.9150  139.3230 C   0  0  0  0  0  2  0  0  0  0  0  0
  181.9980  176.0050  137.8240 C   0  0  2  0  0  3  0  0  0  0  0  0
  180.9100  175.2370  137.0760 C   0  0  2  0  0  3  0  0  0  0  0  0
  180.2700  174.1560  137.9320 C   0  0  0  0  0  1  0  0  0  0  0  0
  181.4330  174.6680  135.9130 O   0  0  0  0  0  1  0  0  0  0  0  0
  183.2990  175.5410  137.4770 O   0  0  0  0  0  0  0  0  0  0  0  0
  184.1880  176.3030  136.7140 C   0  0  0  0  0  0  0  0  0  0  0  0
  183.9230  177.5150  136.4940 O   0  0  0  0  0  0  0  0  0  0  0  0
  185.4420  175.6950  136.1490 C   0  0  2  0  0  3  0  0  0  0  0  0
  186.9360  174.0520  137.0240 O   0  0  0  0  0  0  0  0  0  0  0  0
  185.1400  174.3830  135.4940 C   0  0  0  0  0  2  0  0  0  0  0  0
  186.4450  175.3530  137.2430 C   0  0  1  0  0  3  0  0  0  0  0  0
  185.9660  173.3750  136.2640 C   0  0  2  0  0  3  0  0  0  0  0  0
  185.1110  172.5950  137.1460 N   0  0  0  0  0  2  0  0  0  0  0  0
  183.9340  172.2280  136.3790 C   0  0  0  0  0  1  0  0  0  0  0  0
  187.6220  176.3610  137.3240 C   0  0  1  0  0  0  0  0  0  0  0  0
  187.3990  177.1870  138.4280 O   0  0  0  0  0  1  0  0  0  0  0  0
  189.8390  175.5060  136.3270 C   0  0  0  0  0  1  0  0  0  0  0  0
  188.9770  175.6670  137.5700 C   0  0  0  0  0  2  0  0  0  0  0  0
  187.6840  177.2080  136.1840 O   0  0  0  0  0  0  0  0  0  0  0  0
  187.6170  178.5630  136.5550 C   0  0  0  0  0  2  0  0  0  0  0  0
  189.0130  179.0780  136.8430 C   0  0  0  0  0  1  0  0  0  0  0  0
  179.7500  179.7140  138.9200 C   0  0  0  0  0  2  0  0  0  0  0  0
  180.0760  181.3300  137.1970 F   0  0  0  0  0  0  0  0  0  0  0  0
  181.5340  181.2970  138.9230 F   0  0  0  0  0  0  0  0  0  0  0  0
  180.7460  180.5200  138.0940 C   0  0  0  0  0  0  0  0  0  0  0  0
  181.5540  179.6460  137.3940 F   0  0  0  0  0  0  0  0  0  0  0  0
  1  2  2  0  0  0  0
  2  4  1  0  0  0  0
  3 29  1  0  0  0  0
  3  1  2  0  0  0  0
  5  3  1  0  0  0  0
  6  8  1  0  0  0  0
  7  8  1  0  0  0  0
  8 12  1  1  0  0  0
  9  7  1  0  0  0  0
 10  6  1  0  0  0  0
 11  5  1  6  0  0  0
 11  9  1  0  0  0  0
 11 10  1  0  0  0  0
 12 14  1  0  0  0  0
 14 13  2  0  0  0  0
 15 14  1  0  0  0  0
 15 16  1  0  0  0  0
 17 16  1  0  0  0  0
 18 17  1  0  0  0  0
 20 23  1  6  0  0  0
 20 22  1  0  0  0  0
 21 19  1  6  0  0  0
 21 24  1  0  0  0  0
 21 28  1  0  0  0  0
 21 26  1  0  0  0  0
 22 18  1  6  0  0  0
 25 22  1  0  0  0  0
 26 25  1  1  0  0  0
 27 24  1  6  0  0  0
 27 23  1  0  0  0  0
 27 20  1  0  0  0  0
 28 19  1  6  0  0  0
 28 26  1  0  0  0  0
 30 29  1  0  0  0  0
 31 30  1  1  0  0  0
 32 31  1  0  0  0  0
 32 33  1  1  0  0  0
 34 32  1  0  0  0  0
 35 31  1  0  0  0  0
 36 35  1  0  0  0  0
 37 36  2  0  0  0  0
 38 36  1  1  0  0  0
 38 41  1  0  0  0  0
 39 41  1  0  0  0  0
 40 38  1  0  0  0  0
 40 42  1  0  0  0  0
 41 45  1  6  0  0  0
 42 39  1  0  0  0  0
 42 43  1  1  0  0  0
 44 43  1  0  0  0  0
 45 48  1  0  0  0  0
 45 46  1  1  0  0  0
 47 48  1  0  0  0  0
 49 50  1  0  0  0  0
 49 45  1  0  0  0  0
 50 51  1  0  0  0  0
 52  2  1  0  0  0  0
 53 55  1  0  0  0  0
 55 52  1  0  0  0  0
 55 54  1  0  0  0  0
 56 55  1  0  0  0  0
M  END
>  <MODEL>
9

>  <REMARK>
 VINA RESULT:      -5.1      3.588      7.097
  Name = 
  23 active torsions:
  status: ('A' for Active; 'I' for Inactive)
    1  A    between atoms: C_1  and  C_33
    2  A    between atoms: C_1  and  C_47
    3  A    between atoms: C_2  and  N_38
    4  A    between atoms: C_2  and  C_53
    5  A    between atoms: N_4  and  C_55
    6  A    between atoms: C_6  and  C_7
    7  A    between atoms: C_6  and  O_50
    8  A    between atoms: N_9  and  N_38
    9  A    between atoms: N_9  and  C_43
   10  A    between atoms: O_10  and  C_29
   11  A    between atoms: O_10  and  C_30
   12  A    between atoms: C_11  and  C_32
   13  A    between atoms: C_11  and  C_46
   14  A    between atoms: C_12  and  C_23
   15  A    between atoms: C_12  and  C_53
   16  A    between atoms: C_13  and  C_42
   17  A    between atoms: C_24  and  C_43
   18  A    between atoms: C_30  and  C_31
   19  A    between atoms: C_30  and  C_56
   20  A    between atoms: C_33  and  S_40
   21  A    between atoms: S_40  and  C_52
   22  A    between atoms: C_42  and  C_47
   23  A    between atoms: C_42  and  O_50
                            x       y       z     vdW  Elec       q    Type
                         _______ _______ _______ _____ _____    ______ ____

>  <TORSDO>
F 23

$$$$
