=
 OpenBabel11062418093D

 25 27  0  0  1  0  0  0  0  0999 V2000
  189.6260  177.5170  147.7660 C   0  0  0  0  0  3  0  0  0  0  0  0
  189.9910  176.5240  143.7370 N   0  0  0  0  0  0  0  0  0  0  0  0
  188.7280  176.9710  144.2440 C   0  0  0  0  0  3  0  0  0  0  0  0
  187.3160  177.8670  146.0670 C   0  0  1  0  0  3  0  0  0  0  0  0
  187.2350  177.9290  147.4070 C   0  0  0  0  0  3  0  0  0  0  0  0
  191.1270  176.4260  144.6090 C   0  0  0  0  0  3  0  0  0  0  0  0
  188.6300  177.4940  145.4700 C   0  0  0  0  0  0  0  0  0  0  0  0
  188.3990  177.6570  148.2760 C   0  0  0  0  0  3  0  0  0  0  0  0
  189.8800  177.7220  146.3000 C   0  0  0  0  0  0  0  0  0  0  0  0
  191.0810  176.9450  145.8360 C   0  0  0  0  0  3  0  0  0  0  0  0
  183.8180  178.7030  143.7040 C   0  0  0  0  0  0  0  0  0  0  0  0
  183.7990  178.9200  145.0850 C   0  0  0  0  0  3  0  0  0  0  0  0
  186.1040  178.1450  145.2480 C   0  0  0  0  0  0  0  0  0  0  0  0
  186.1120  177.9500  143.8580 C   0  0  0  0  0  3  0  0  0  0  0  0
  184.9780  178.2260  143.0900 C   0  0  0  0  0  3  0  0  0  0  0  0
  184.9340  178.6430  145.8510 C   0  0  0  0  0  3  0  0  0  0  0  0
  182.6170  179.0200  142.8850 C   0  0  0  0  0  2  0  0  0  0  0  0
  182.8420  178.6570  141.5570 O   0  0  0  0  0  1  0  0  0  0  0  0
  190.0800  176.0360  142.3700 C   0  0  0  0  0  2  0  0  0  0  0  0
  189.5140  177.0510  141.3760 C   0  0  0  0  0  2  0  0  0  0  0  0
  191.5990  177.7320  140.4130 O   0  0  0  0  0  1  0  0  0  0  0  0
  190.3480  177.1950  140.1050 C   0  0  0  0  0  0  0  0  0  0  0  0
  190.5090  175.9480  139.4930 O   0  0  0  0  0  1  0  0  0  0  0  0
  188.3820  178.6160  139.7580 N   0  0  0  0  0  1  0  0  0  0  0  0
  189.6150  178.1340  139.1570 C   0  0  0  0  0  2  0  0  0  0  0  0
  1  8  1  0  0  0  0
  2  3  1  0  0  0  0
  2  6  1  0  0  0  0
  3  7  2  0  0  0  0
  4 13  1  1  0  0  0
  4  5  1  0  0  0  0
  5  8  2  0  0  0  0
  6 10  2  0  0  0  0
  7  4  1  0  0  0  0
  7  9  1  0  0  0  0
  9  1  2  0  0  0  0
 10  9  1  0  0  0  0
 11 12  1  0  0  0  0
 12 16  2  0  0  0  0
 13 16  1  0  0  0  0
 14 13  2  0  0  0  0
 15 11  2  0  0  0  0
 15 14  1  0  0  0  0
 17 11  1  0  0  0  0
 18 17  1  0  0  0  0
 19  2  1  0  0  0  0
 20 19  1  0  0  0  0
 22 21  1  0  0  0  0
 22 20  1  0  0  0  0
 23 22  1  0  0  0  0
 25 24  1  0  0  0  0
 25 22  1  0  0  0  0
M  END
>  <MODEL>
1

>  <REMARK>
 VINA RESULT:      -9.7      0.000      0.000
  Name = 
  6 active torsions:
  status: ('A' for Active; 'I' for Inactive)
    1  A    between atoms: N_3  and  C_4
    2  A    between atoms: C_4  and  C_22
    3  A    between atoms: C_6  and  C_12
    4  A    between atoms: C_6  and  C_22
    5  A    between atoms: C_7  and  C_14
    6  A    between atoms: C_8  and  C_13
                            x       y       z     vdW  Elec       q    Type
                         _______ _______ _______ _____ _____    ______ ____

>  <TORSDO>
F 6

$$$$
=
 OpenBabel11062418093D

 25 27  0  0  1  0  0  0  0  0999 V2000
  190.1970  177.1600  146.6070 C   0  0  0  0  0  3  0  0  0  0  0  0
  189.8720  177.4920  142.4680 N   0  0  0  0  0  0  0  0  0  0  0  0
  188.6980  177.6080  143.2810 C   0  0  0  0  0  3  0  0  0  0  0  0
  187.5940  177.7300  145.4910 C   0  0  0  0  0  0  0  0  0  0  0  0
  187.7590  177.3700  146.7760 C   0  0  0  0  0  3  0  0  0  0  0  0
  191.1540  177.2710  143.0730 C   0  0  0  0  0  3  0  0  0  0  0  0
  188.7960  177.7170  144.6100 C   0  0  0  0  0  0  0  0  0  0  0  0
  189.0800  176.9890  147.3190 C   0  0  0  0  0  3  0  0  0  0  0  0
  190.1600  177.8300  145.2640 C   0  0  2  0  0  3  0  0  0  0  0  0
  191.3020  177.3810  144.3940 C   0  0  0  0  0  3  0  0  0  0  0  0
  183.6600  178.7550  144.0790 C   0  0  0  0  0  0  0  0  0  0  0  0
  184.6230  178.2750  143.1860 C   0  0  0  0  0  3  0  0  0  0  0  0
  186.2350  178.0960  145.0030 C   0  0  0  0  0  0  0  0  0  0  0  0
  185.2530  178.5630  145.8910 C   0  0  0  0  0  3  0  0  0  0  0  0
  183.9740  178.8900  145.4330 C   0  0  0  0  0  3  0  0  0  0  0  0
  185.9010  177.9480  143.6450 C   0  0  0  0  0  3  0  0  0  0  0  0
  182.2920  179.0820  143.5940 C   0  0  0  0  0  2  0  0  0  0  0  0
  182.2420  178.9580  142.2050 O   0  0  0  0  0  1  0  0  0  0  0  0
  189.7370  177.4580  141.0190 C   0  0  0  0  0  2  0  0  0  0  0  0
  188.4460  178.1370  140.5620 C   0  0  0  0  0  2  0  0  0  0  0  0
  186.9460  178.3930  138.7120 O   0  0  0  0  0  1  0  0  0  0  0  0
  188.2880  178.1970  139.0440 C   0  0  0  0  0  0  0  0  0  0  0  0
  189.0570  179.2420  138.5240 O   0  0  0  0  0  1  0  0  0  0  0  0
  187.7320  176.2690  137.6380 N   0  0  0  0  0  1  0  0  0  0  0  0
  188.7650  176.8750  138.4620 C   0  0  0  0  0  2  0  0  0  0  0  0
  1  8  2  0  0  0  0
  2  6  1  0  0  0  0
  2  3  1  0  0  0  0
  3  7  2  0  0  0  0
  4  5  2  0  0  0  0
  5  8  1  0  0  0  0
  6 10  2  0  0  0  0
  7  9  1  0  0  0  0
  7  4  1  0  0  0  0
  9 10  1  6  0  0  0
  9  1  1  0  0  0  0
 11 15  1  0  0  0  0
 12 16  1  0  0  0  0
 12 11  2  0  0  0  0
 13  4  1  0  0  0  0
 13 14  1  0  0  0  0
 15 14  2  0  0  0  0
 16 13  2  0  0  0  0
 17 11  1  0  0  0  0
 18 17  1  0  0  0  0
 19  2  1  0  0  0  0
 20 19  1  0  0  0  0
 21 22  1  0  0  0  0
 22 20  1  0  0  0  0
 23 22  1  0  0  0  0
 24 25  1  0  0  0  0
 25 22  1  0  0  0  0
M  END
>  <MODEL>
2

>  <REMARK>
 VINA RESULT:      -9.6      1.608      2.065
  Name = 
  6 active torsions:
  status: ('A' for Active; 'I' for Inactive)
    1  A    between atoms: N_3  and  C_4
    2  A    between atoms: C_4  and  C_22
    3  A    between atoms: C_6  and  C_12
    4  A    between atoms: C_6  and  C_22
    5  A    between atoms: C_7  and  C_14
    6  A    between atoms: C_8  and  C_13
                            x       y       z     vdW  Elec       q    Type
                         _______ _______ _______ _____ _____    ______ ____

>  <TORSDO>
F 6

$$$$
=
 OpenBabel11062418093D

 25 27  0  0  1  0  0  0  0  0999 V2000
  189.9950  177.2450  146.7770 C   0  0  0  0  0  3  0  0  0  0  0  0
  189.7970  177.4830  142.6240 N   0  0  0  0  0  0  0  0  0  0  0  0
  188.5960  177.6020  143.3970 C   0  0  0  0  0  3  0  0  0  0  0  0
  187.4220  177.7590  145.5690 C   0  0  0  0  0  0  0  0  0  0  0  0
  187.5510  177.4290  146.8660 C   0  0  0  0  0  3  0  0  0  0  0  0
  191.0610  177.2910  143.2740 C   0  0  0  0  0  3  0  0  0  0  0  0
  188.6500  177.7420  144.7260 C   0  0  0  0  0  0  0  0  0  0  0  0
  188.8580  177.0760  147.4580 C   0  0  0  0  0  3  0  0  0  0  0  0
  189.9930  177.8860  145.4190 C   0  0  2  0  0  3  0  0  0  0  0  0
  191.1670  177.4320  144.5950 C   0  0  0  0  0  3  0  0  0  0  0  0
  183.5360  178.7690  144.0210 C   0  0  0  0  0  0  0  0  0  0  0  0
  183.7970  178.8850  145.3890 C   0  0  0  0  0  3  0  0  0  0  0  0
  186.0750  178.0970  145.0310 C   0  0  0  0  0  0  0  0  0  0  0  0
  185.8020  178.0030  143.6570 C   0  0  0  0  0  3  0  0  0  0  0  0
  184.5420  178.3360  143.1540 C   0  0  0  0  0  3  0  0  0  0  0  0
  185.0580  178.5520  145.8900 C   0  0  0  0  0  3  0  0  0  0  0  0
  182.2000  179.1460  143.4830 C   0  0  0  0  0  2  0  0  0  0  0  0
  182.0980  178.7470  142.1510 O   0  0  0  0  0  1  0  0  0  0  0  0
  189.7070  177.4150  141.1730 C   0  0  0  0  0  2  0  0  0  0  0  0
  188.5300  178.2380  140.6460 C   0  0  0  0  0  2  0  0  0  0  0  0
  187.0630  178.2810  138.7540 O   0  0  0  0  0  1  0  0  0  0  0  0
  188.4080  178.2290  139.1240 C   0  0  0  0  0  0  0  0  0  0  0  0
  189.0870  179.3240  138.5820 O   0  0  0  0  0  1  0  0  0  0  0  0
  189.9990  177.2180  137.5590 N   0  0  0  0  0  1  0  0  0  0  0  0
  189.0260  176.9400  138.6030 C   0  0  0  0  0  2  0  0  0  0  0  0
  1  8  2  0  0  0  0
  2  6  1  0  0  0  0
  2  3  1  0  0  0  0
  3  7  2  0  0  0  0
  4  5  2  0  0  0  0
  5  8  1  0  0  0  0
  6 10  2  0  0  0  0
  7  9  1  0  0  0  0
  7  4  1  0  0  0  0
  9 10  1  6  0  0  0
  9  1  1  0  0  0  0
 11 12  1  0  0  0  0
 12 16  2  0  0  0  0
 13  4  1  0  0  0  0
 13 16  1  0  0  0  0
 14 13  2  0  0  0  0
 15 14  1  0  0  0  0
 15 11  2  0  0  0  0
 17 11  1  0  0  0  0
 18 17  1  0  0  0  0
 19  2  1  0  0  0  0
 20 19  1  0  0  0  0
 21 22  1  0  0  0  0
 22 20  1  0  0  0  0
 23 22  1  0  0  0  0
 24 25  1  0  0  0  0
 25 22  1  0  0  0  0
M  END
>  <MODEL>
3

>  <REMARK>
 VINA RESULT:      -9.6      1.535      1.745
  Name = 
  6 active torsions:
  status: ('A' for Active; 'I' for Inactive)
    1  A    between atoms: N_3  and  C_4
    2  A    between atoms: C_4  and  C_22
    3  A    between atoms: C_6  and  C_12
    4  A    between atoms: C_6  and  C_22
    5  A    between atoms: C_7  and  C_14
    6  A    between atoms: C_8  and  C_13
                            x       y       z     vdW  Elec       q    Type
                         _______ _______ _______ _____ _____    ______ ____

>  <TORSDO>
F 6

$$$$
=
 OpenBabel11062418093D

 25 27  0  0  1  0  0  0  0  0999 V2000
  190.0140  177.2090  146.6710 C   0  0  0  0  0  3  0  0  0  0  0  0
  189.8350  177.3340  142.5110 N   0  0  0  0  0  0  0  0  0  0  0  0
  188.6380  177.5150  143.2770 C   0  0  0  0  0  3  0  0  0  0  0  0
  187.4630  177.7720  145.4390 C   0  0  0  0  0  0  0  0  0  0  0  0
  187.5780  177.4750  146.7450 C   0  0  0  0  0  3  0  0  0  0  0  0
  191.0910  177.1200  143.1710 C   0  0  0  0  0  3  0  0  0  0  0  0
  188.6930  177.6910  144.6010 C   0  0  0  0  0  0  0  0  0  0  0  0
  188.8710  177.0970  147.3520 C   0  0  0  0  0  3  0  0  0  0  0  0
  190.0370  177.8110  145.2950 C   0  0  2  0  0  3  0  0  0  0  0  0
  191.1980  177.2950  144.4890 C   0  0  0  0  0  3  0  0  0  0  0  0
  183.6020  178.8000  143.8390 C   0  0  0  0  0  0  0  0  0  0  0  0
  184.6210  178.3640  142.9870 C   0  0  0  0  0  3  0  0  0  0  0  0
  186.1290  178.1390  144.8870 C   0  0  0  0  0  0  0  0  0  0  0  0
  185.0910  178.5610  145.7320 C   0  0  0  0  0  3  0  0  0  0  0  0
  183.8360  178.8890  145.2130 C   0  0  0  0  0  3  0  0  0  0  0  0
  185.8750  178.0360  143.5070 C   0  0  0  0  0  3  0  0  0  0  0  0
  182.2600  179.1270  143.2870 C   0  0  0  0  0  2  0  0  0  0  0  0
  181.2680  178.6110  144.1220 O   0  0  0  0  0  1  0  0  0  0  0  0
  189.7480  177.2280  141.0630 C   0  0  0  0  0  2  0  0  0  0  0  0
  188.5030  177.9360  140.5250 C   0  0  0  0  0  2  0  0  0  0  0  0
  188.9930  179.2320  138.5710 O   0  0  0  0  0  1  0  0  0  0  0  0
  188.4550  178.0170  139.0000 C   0  0  0  0  0  0  0  0  0  0  0  0
  189.1770  176.9590  138.4410 O   0  0  0  0  0  1  0  0  0  0  0  0
  186.1510  178.7350  139.4240 N   0  0  0  0  0  1  0  0  0  0  0  0
  187.0000  177.9270  138.5640 C   0  0  0  0  0  2  0  0  0  0  0  0
  1  8  2  0  0  0  0
  2  6  1  0  0  0  0
  2  3  1  0  0  0  0
  3  7  2  0  0  0  0
  4  5  2  0  0  0  0
  5  8  1  0  0  0  0
  6 10  2  0  0  0  0
  7  9  1  0  0  0  0
  7  4  1  0  0  0  0
  9 10  1  6  0  0  0
  9  1  1  0  0  0  0
 11 15  1  0  0  0  0
 12 16  1  0  0  0  0
 12 11  2  0  0  0  0
 13  4  1  0  0  0  0
 13 14  1  0  0  0  0
 15 14  2  0  0  0  0
 16 13  2  0  0  0  0
 17 11  1  0  0  0  0
 17 18  1  0  0  0  0
 19  2  1  0  0  0  0
 20 19  1  0  0  0  0
 21 22  1  0  0  0  0
 22 20  1  0  0  0  0
 23 22  1  0  0  0  0
 25 22  1  0  0  0  0
 25 24  1  0  0  0  0
M  END
>  <MODEL>
4

>  <REMARK>
 VINA RESULT:      -9.6      1.465      1.861
  Name = 
  6 active torsions:
  status: ('A' for Active; 'I' for Inactive)
    1  A    between atoms: N_3  and  C_4
    2  A    between atoms: C_4  and  C_22
    3  A    between atoms: C_6  and  C_12
    4  A    between atoms: C_6  and  C_22
    5  A    between atoms: C_7  and  C_14
    6  A    between atoms: C_8  and  C_13
                            x       y       z     vdW  Elec       q    Type
                         _______ _______ _______ _____ _____    ______ ____

>  <TORSDO>
F 6

$$$$
=
 OpenBabel11062418093D

 25 27  0  0  1  0  0  0  0  0999 V2000
  183.5680  178.8810  143.8600 C   0  0  0  0  0  3  0  0  0  0  0  0
  186.8140  178.4080  141.2930 N   0  0  0  0  0  0  0  0  0  0  0  0
  187.0090  178.2960  142.7080 C   0  0  0  0  0  3  0  0  0  0  0  0
  186.1310  178.2250  145.0200 C   0  0  0  0  0  0  0  0  0  0  0  0
  185.0890  178.6310  145.7670 C   0  0  0  0  0  3  0  0  0  0  0  0
  185.5080  178.6730  140.7610 C   0  0  0  0  0  3  0  0  0  0  0  0
  185.9630  178.2320  143.5390 C   0  0  0  0  0  0  0  0  0  0  0  0
  183.8090  179.0540  145.1620 C   0  0  0  0  0  3  0  0  0  0  0  0
  184.5540  178.1670  142.9810 C   0  0  2  0  0  3  0  0  0  0  0  0
  184.4350  178.6080  141.5480 C   0  0  0  0  0  3  0  0  0  0  0  0
  189.8020  177.0780  146.9510 C   0  0  0  0  0  0  0  0  0  0  0  0
  189.7420  177.1700  145.5580 C   0  0  0  0  0  3  0  0  0  0  0  0
  187.3970  177.8180  145.6910 C   0  0  0  0  0  0  0  0  0  0  0  0
  187.4780  177.7380  147.0900 C   0  0  0  0  0  3  0  0  0  0  0  0
  188.6710  177.3710  147.7170 C   0  0  0  0  0  3  0  0  0  0  0  0
  188.5480  177.5370  144.9320 C   0  0  0  0  0  3  0  0  0  0  0  0
  191.0800  176.7090  147.6180 C   0  0  0  0  0  2  0  0  0  0  0  0
  192.0650  176.4830  146.6570 O   0  0  0  0  0  1  0  0  0  0  0  0
  187.9700  178.3920  140.4100 C   0  0  0  0  0  2  0  0  0  0  0  0
  189.0570  177.4500  140.9290 C   0  0  0  0  0  2  0  0  0  0  0  0
  190.2350  176.0020  139.4280 O   0  0  0  0  0  1  0  0  0  0  0  0
  190.2360  177.2880  139.9720 C   0  0  0  0  0  0  0  0  0  0  0  0
  190.1530  178.2320  138.9440 O   0  0  0  0  0  1  0  0  0  0  0  0
  191.2740  177.4180  142.1870 N   0  0  0  0  0  1  0  0  0  0  0  0
  191.5220  177.5030  140.7570 C   0  0  0  0  0  2  0  0  0  0  0  0
  1  8  2  0  0  0  0
  2  3  1  0  0  0  0
  3  7  2  0  0  0  0
  4 13  1  0  0  0  0
  4  5  2  0  0  0  0
  6  2  1  0  0  0  0
  6 10  2  0  0  0  0
  7  4  1  0  0  0  0
  8  5  1  0  0  0  0
  9 10  1  6  0  0  0
  9  7  1  0  0  0  0
  9  1  1  0  0  0  0
 11 17  1  0  0  0  0
 11 15  1  0  0  0  0
 12 11  2  0  0  0  0
 13 14  1  0  0  0  0
 14 15  2  0  0  0  0
 16 12  1  0  0  0  0
 16 13  2  0  0  0  0
 18 17  1  0  0  0  0
 19 20  1  0  0  0  0
 19  2  1  0  0  0  0
 21 22  1  0  0  0  0
 22 25  1  0  0  0  0
 22 20  1  0  0  0  0
 23 22  1  0  0  0  0
 25 24  1  0  0  0  0
M  END
>  <MODEL>
5

>  <REMARK>
 VINA RESULT:      -9.5      1.936      5.320
  Name = 
  6 active torsions:
  status: ('A' for Active; 'I' for Inactive)
    1  A    between atoms: N_3  and  C_4
    2  A    between atoms: C_4  and  C_22
    3  A    between atoms: C_6  and  C_12
    4  A    between atoms: C_6  and  C_22
    5  A    between atoms: C_7  and  C_14
    6  A    between atoms: C_8  and  C_13
                            x       y       z     vdW  Elec       q    Type
                         _______ _______ _______ _____ _____    ______ ____

>  <TORSDO>
F 6

$$$$
=
 OpenBabel11062418093D

 25 27  0  0  1  0  0  0  0  0999 V2000
  183.5700  178.8910  143.9780 C   0  0  0  0  0  3  0  0  0  0  0  0
  186.8280  178.5830  141.4010 N   0  0  0  0  0  0  0  0  0  0  0  0
  187.0230  178.4200  142.8110 C   0  0  0  0  0  3  0  0  0  0  0  0
  186.1440  178.2410  145.1160 C   0  0  0  0  0  0  0  0  0  0  0  0
  185.0940  178.5960  145.8770 C   0  0  0  0  0  3  0  0  0  0  0  0
  185.5170  178.8420  140.8760 C   0  0  0  0  0  3  0  0  0  0  0  0
  185.9790  178.3030  143.6370 C   0  0  0  0  0  0  0  0  0  0  0  0
  183.8070  179.0170  145.2870 C   0  0  0  0  0  3  0  0  0  0  0  0
  184.5710  178.2310  143.0740 C   0  0  2  0  0  3  0  0  0  0  0  0
  184.4440  178.7260  141.6590 C   0  0  0  0  0  3  0  0  0  0  0  0
  189.8360  177.0920  147.0060 C   0  0  0  0  0  0  0  0  0  0  0  0
  189.7580  177.1750  145.6130 C   0  0  0  0  0  3  0  0  0  0  0  0
  187.4180  177.8330  145.7730 C   0  0  0  0  0  0  0  0  0  0  0  0
  187.5170  177.7620  147.1710 C   0  0  0  0  0  3  0  0  0  0  0  0
  188.7170  177.3940  147.7850 C   0  0  0  0  0  3  0  0  0  0  0  0
  188.5570  177.5430  145.0010 C   0  0  0  0  0  3  0  0  0  0  0  0
  191.1210  176.7230  147.6580 C   0  0  0  0  0  2  0  0  0  0  0  0
  192.1040  176.5270  146.6880 O   0  0  0  0  0  1  0  0  0  0  0  0
  187.9850  178.6250  140.5190 C   0  0  0  0  0  2  0  0  0  0  0  0
  187.8190  177.6720  139.3340 C   0  0  0  0  0  2  0  0  0  0  0  0
  186.9260  178.8380  137.4420 O   0  0  0  0  0  1  0  0  0  0  0  0
  188.1050  178.3200  137.9810 C   0  0  0  0  0  0  0  0  0  0  0  0
  189.0430  179.3460  138.1300 O   0  0  0  0  0  1  0  0  0  0  0  0
  190.0150  176.8850  137.4350 N   0  0  0  0  0  1  0  0  0  0  0  0
  188.6620  177.2540  137.0500 C   0  0  0  0  0  2  0  0  0  0  0  0
  1  8  2  0  0  0  0
  2  3  1  0  0  0  0
  3  7  2  0  0  0  0
  4 13  1  0  0  0  0
  4  5  2  0  0  0  0
  6  2  1  0  0  0  0
  6 10  2  0  0  0  0
  7  4  1  0  0  0  0
  8  5  1  0  0  0  0
  9 10  1  6  0  0  0
  9  7  1  0  0  0  0
  9  1  1  0  0  0  0
 11 17  1  0  0  0  0
 11 15  1  0  0  0  0
 12 11  2  0  0  0  0
 13 14  1  0  0  0  0
 14 15  2  0  0  0  0
 16 12  1  0  0  0  0
 16 13  2  0  0  0  0
 18 17  1  0  0  0  0
 19  2  1  0  0  0  0
 20 19  1  0  0  0  0
 21 22  1  0  0  0  0
 22 23  1  0  0  0  0
 22 20  1  0  0  0  0
 25 24  1  0  0  0  0
 25 22  1  0  0  0  0
M  END
>  <MODEL>
6

>  <REMARK>
 VINA RESULT:      -9.2      2.292      5.503
  Name = 
  6 active torsions:
  status: ('A' for Active; 'I' for Inactive)
    1  A    between atoms: N_3  and  C_4
    2  A    between atoms: C_4  and  C_22
    3  A    between atoms: C_6  and  C_12
    4  A    between atoms: C_6  and  C_22
    5  A    between atoms: C_7  and  C_14
    6  A    between atoms: C_8  and  C_13
                            x       y       z     vdW  Elec       q    Type
                         _______ _______ _______ _____ _____    ______ ____

>  <TORSDO>
F 6

$$$$
=
 OpenBabel11062418093D

 25 27  0  0  1  0  0  0  0  0999 V2000
  190.6340  177.0960  146.4460 C   0  0  0  0  0  3  0  0  0  0  0  0
  190.0520  177.4580  142.3380 N   0  0  0  0  0  0  0  0  0  0  0  0
  188.9270  177.5390  143.2220 C   0  0  0  0  0  3  0  0  0  0  0  0
  187.9560  177.6150  145.4960 C   0  0  0  0  0  0  0  0  0  0  0  0
  188.2070  177.2470  146.7640 C   0  0  0  0  0  3  0  0  0  0  0  0
  191.3730  177.2620  142.8630 C   0  0  0  0  0  3  0  0  0  0  0  0
  189.1020  177.6380  144.5440 C   0  0  0  0  0  0  0  0  0  0  0  0
  189.5660  176.8920  147.2230 C   0  0  0  0  0  3  0  0  0  0  0  0
  190.5000  177.7780  145.1150 C   0  0  2  0  0  3  0  0  0  0  0  0
  191.5980  177.3640  144.1730 C   0  0  0  0  0  3  0  0  0  0  0  0
  183.9340  178.6250  144.3440 C   0  0  0  0  0  0  0  0  0  0  0  0
  184.3130  178.6800  145.6880 C   0  0  0  0  0  3  0  0  0  0  0  0
  186.5620  177.9530  145.0950 C   0  0  0  0  0  0  0  0  0  0  0  0
  186.1710  177.9200  143.7470 C   0  0  0  0  0  3  0  0  0  0  0  0
  184.8660  178.2530  143.3730 C   0  0  0  0  0  3  0  0  0  0  0  0
  185.6180  178.3460  146.0610 C   0  0  0  0  0  3  0  0  0  0  0  0
  182.5510  179.0020  143.9450 C   0  0  0  0  0  2  0  0  0  0  0  0
  182.3810  178.7900  142.5770 O   0  0  0  0  0  1  0  0  0  0  0  0
  189.8300  177.4340  140.9000 C   0  0  0  0  0  2  0  0  0  0  0  0
  190.9380  176.6680  140.1760 C   0  0  0  0  0  2  0  0  0  0  0  0
  191.9460  176.7540  138.0050 O   0  0  0  0  0  1  0  0  0  0  0  0
  190.7300  176.5690  138.6670 C   0  0  0  0  0  0  0  0  0  0  0  0
  190.2020  175.3170  138.3370 O   0  0  0  0  0  1  0  0  0  0  0  0
  189.4130  177.5320  136.8390 N   0  0  0  0  0  1  0  0  0  0  0  0
  189.7550  177.6590  138.2470 C   0  0  0  0  0  2  0  0  0  0  0  0
  1  8  2  0  0  0  0
  2  6  1  0  0  0  0
  2  3  1  0  0  0  0
  3  7  2  0  0  0  0
  4  5  2  0  0  0  0
  5  8  1  0  0  0  0
  6 10  2  0  0  0  0
  7  9  1  0  0  0  0
  7  4  1  0  0  0  0
  9 10  1  6  0  0  0
  9  1  1  0  0  0  0
 11 12  1  0  0  0  0
 12 16  2  0  0  0  0
 13  4  1  0  0  0  0
 13 16  1  0  0  0  0
 14 13  2  0  0  0  0
 15 14  1  0  0  0  0
 15 11  2  0  0  0  0
 17 11  1  0  0  0  0
 18 17  1  0  0  0  0
 19  2  1  0  0  0  0
 20 19  1  0  0  0  0
 21 22  1  0  0  0  0
 22 20  1  0  0  0  0
 23 22  1  0  0  0  0
 24 25  1  0  0  0  0
 25 22  1  0  0  0  0
M  END
>  <MODEL>
7

>  <REMARK>
 VINA RESULT:      -8.9      1.296      1.526
  Name = 
  6 active torsions:
  status: ('A' for Active; 'I' for Inactive)
    1  A    between atoms: N_3  and  C_4
    2  A    between atoms: C_4  and  C_22
    3  A    between atoms: C_6  and  C_12
    4  A    between atoms: C_6  and  C_22
    5  A    between atoms: C_7  and  C_14
    6  A    between atoms: C_8  and  C_13
                            x       y       z     vdW  Elec       q    Type
                         _______ _______ _______ _____ _____    ______ ____

>  <TORSDO>
F 6

$$$$
=
 OpenBabel11062418093D

 25 27  0  0  1  0  0  0  0  0999 V2000
  184.3420  178.8180  144.9630 C   0  0  0  0  0  3  0  0  0  0  0  0
  187.8710  177.9260  146.9860 N   0  0  0  0  0  0  0  0  0  0  0  0
  187.8140  177.7730  145.5630 C   0  0  0  0  0  3  0  0  0  0  0  0
  186.6340  178.0100  143.4020 C   0  0  1  0  0  3  0  0  0  0  0  0
  185.4000  178.0850  142.8750 C   0  0  0  0  0  3  0  0  0  0  0  0
  186.7240  178.3910  147.7120 C   0  0  0  0  0  3  0  0  0  0  0  0
  186.7770  178.2470  144.8660 C   0  0  0  0  0  0  0  0  0  0  0  0
  184.2150  178.4080  143.6980 C   0  0  0  0  0  3  0  0  0  0  0  0
  185.6970  179.0520  145.5650 C   0  0  0  0  0  0  0  0  0  0  0  0
  185.6710  178.8840  147.0600 C   0  0  0  0  0  3  0  0  0  0  0  0
  189.9750  177.0650  140.8580 C   0  0  0  0  0  0  0  0  0  0  0  0
  188.9930  177.9590  140.4220 C   0  0  0  0  0  3  0  0  0  0  0  0
  187.7860  177.6720  142.5190 C   0  0  0  0  0  0  0  0  0  0  0  0
  188.7890  176.7900  142.9500 C   0  0  0  0  0  3  0  0  0  0  0  0
  189.8760  176.4870  142.1260 C   0  0  0  0  0  3  0  0  0  0  0  0
  187.9060  178.2610  141.2470 C   0  0  0  0  0  3  0  0  0  0  0  0
  191.1440  176.7620  139.9890 C   0  0  0  0  0  2  0  0  0  0  0  0
  190.7800  175.8300  139.0170 O   0  0  0  0  0  1  0  0  0  0  0  0
  189.0520  177.4730  147.7060 C   0  0  0  0  0  2  0  0  0  0  0  0
  189.7160  176.2890  147.0020 C   0  0  0  0  0  2  0  0  0  0  0  0
  191.6730  177.4780  147.7050 O   0  0  0  0  0  1  0  0  0  0  0  0
  191.2410  176.3640  146.9820 C   0  0  0  0  0  0  0  0  0  0  0  0
  191.7860  175.2030  147.5390 O   0  0  0  0  0  1  0  0  0  0  0  0
  191.5270  177.8580  145.0610 N   0  0  0  0  0  1  0  0  0  0  0  0
  191.6940  176.4940  145.5350 C   0  0  0  0  0  2  0  0  0  0  0  0
  1  9  2  0  0  0  0
  2 19  1  0  0  0  0
  2  6  1  0  0  0  0
  3  2  1  0  0  0  0
  4 13  1  1  0  0  0
  4  7  1  0  0  0  0
  5  4  1  0  0  0  0
  5  8  2  0  0  0  0
  7  3  2  0  0  0  0
  7  9  1  0  0  0  0
  8  1  1  0  0  0  0
  9 10  1  0  0  0  0
 10  6  2  0  0  0  0
 11 15  1  0  0  0  0
 12 11  2  0  0  0  0
 12 16  1  0  0  0  0
 13 14  1  0  0  0  0
 15 14  2  0  0  0  0
 16 13  2  0  0  0  0
 17 11  1  0  0  0  0
 18 17  1  0  0  0  0
 20 19  1  0  0  0  0
 22 20  1  0  0  0  0
 22 23  1  0  0  0  0
 22 21  1  0  0  0  0
 24 25  1  0  0  0  0
 25 22  1  0  0  0  0
M  END
>  <MODEL>
8

>  <REMARK>
 VINA RESULT:      -8.9      2.514      5.929
  Name = 
  6 active torsions:
  status: ('A' for Active; 'I' for Inactive)
    1  A    between atoms: N_3  and  C_4
    2  A    between atoms: C_4  and  C_22
    3  A    between atoms: C_6  and  C_12
    4  A    between atoms: C_6  and  C_22
    5  A    between atoms: C_7  and  C_14
    6  A    between atoms: C_8  and  C_13
                            x       y       z     vdW  Elec       q    Type
                         _______ _______ _______ _____ _____    ______ ____

>  <TORSDO>
F 6

$$$$
=
 OpenBabel11062418093D

 25 27  0  0  1  0  0  0  0  0999 V2000
  182.8390  178.7250  142.1540 C   0  0  0  0  0  3  0  0  0  0  0  0
  186.8070  178.5420  140.9010 N   0  0  0  0  0  0  0  0  0  0  0  0
  186.5080  178.5520  142.3020 C   0  0  0  0  0  3  0  0  0  0  0  0
  184.8920  178.5120  144.1750 C   0  0  0  0  0  0  0  0  0  0  0  0
  183.6180  178.8160  144.4770 C   0  0  0  0  0  3  0  0  0  0  0  0
  185.7480  178.5850  139.9330 C   0  0  0  0  0  3  0  0  0  0  0  0
  185.2520  178.3980  142.7330 C   0  0  0  0  0  0  0  0  0  0  0  0
  182.5910  179.0150  143.4340 C   0  0  0  0  0  3  0  0  0  0  0  0
  184.1410  178.0990  141.7430 C   0  0  2  0  0  3  0  0  0  0  0  0
  184.4810  178.4240  140.3150 C   0  0  0  0  0  3  0  0  0  0  0  0
  187.7280  177.9680  147.3660 C   0  0  0  0  0  0  0  0  0  0  0  0
  186.5840  178.7460  147.5690 C   0  0  0  0  0  3  0  0  0  0  0  0
  185.8810  178.3310  145.2740 C   0  0  0  0  0  0  0  0  0  0  0  0
  187.0250  177.5380  145.0910 C   0  0  0  0  0  3  0  0  0  0  0  0
  187.9430  177.3580  146.1290 C   0  0  0  0  0  3  0  0  0  0  0  0
  185.6680  178.9260  146.5300 C   0  0  0  0  0  3  0  0  0  0  0  0
  188.6920  177.7580  148.4800 C   0  0  0  0  0  2  0  0  0  0  0  0
  189.9620  177.5030  147.9620 O   0  0  0  0  0  1  0  0  0  0  0  0
  188.1930  178.6290  140.4660 C   0  0  0  0  0  2  0  0  0  0  0  0
  189.1580  178.5000  141.6460 C   0  0  0  0  0  2  0  0  0  0  0  0
  189.2600  176.2490  142.4560 O   0  0  0  0  0  1  0  0  0  0  0  0
  189.9310  177.1830  141.6650 C   0  0  0  0  0  0  0  0  0  0  0  0
  190.0650  176.6880  140.3650 O   0  0  0  0  0  1  0  0  0  0  0  0
  191.5040  176.6860  143.4770 N   0  0  0  0  0  1  0  0  0  0  0  0
  191.3090  177.4470  142.2530 C   0  0  0  0  0  2  0  0  0  0  0  0
  1  8  2  0  0  0  0
  2  3  1  0  0  0  0
  3  7  2  0  0  0  0
  4  5  2  0  0  0  0
  4 13  1  0  0  0  0
  6 10  2  0  0  0  0
  6  2  1  0  0  0  0
  7  4  1  0  0  0  0
  8  5  1  0  0  0  0
  9 10  1  6  0  0  0
  9  1  1  0  0  0  0
  9  7  1  0  0  0  0
 11 12  1  0  0  0  0
 11 17  1  0  0  0  0
 13 16  1  0  0  0  0
 14 13  2  0  0  0  0
 14 15  1  0  0  0  0
 15 11  2  0  0  0  0
 16 12  2  0  0  0  0
 18 17  1  0  0  0  0
 19  2  1  0  0  0  0
 19 20  1  0  0  0  0
 20 22  1  0  0  0  0
 22 25  1  0  0  0  0
 22 21  1  0  0  0  0
 23 22  1  0  0  0  0
 25 24  1  0  0  0  0
M  END
>  <MODEL>
9

>  <REMARK>
 VINA RESULT:      -8.9      2.185      5.329
  Name = 
  6 active torsions:
  status: ('A' for Active; 'I' for Inactive)
    1  A    between atoms: N_3  and  C_4
    2  A    between atoms: C_4  and  C_22
    3  A    between atoms: C_6  and  C_12
    4  A    between atoms: C_6  and  C_22
    5  A    between atoms: C_7  and  C_14
    6  A    between atoms: C_8  and  C_13
                            x       y       z     vdW  Elec       q    Type
                         _______ _______ _______ _____ _____    ______ ____

>  <TORSDO>
F 6

$$$$
