=
 OpenBabel11062416223D

 29 31  0  0  1  0  0  0  0  0999 V2000
  190.1740  178.8360  142.9740 O   0  0  0  0  0  0  0  0  0  0  0  0
  190.9340  178.7590  144.1590 C   0  0  2  0  0  3  0  0  0  0  0  0
  191.8940  179.7690  144.1570 O   0  0  0  0  0  1  0  0  0  0  0  0
  188.3750  177.5250  144.1770 C   0  0  2  0  0  3  0  0  0  0  0  0
  189.1430  177.8500  142.8920 C   0  0  2  0  0  0  0  0  0  0  0  0
  191.6170  177.4140  144.2430 C   0  0  0  0  0  2  0  0  0  0  0  0
  189.3420  176.4910  143.5860 C   0  0  1  0  0  3  0  0  0  0  0  0
  190.5490  176.3760  144.5200 C   0  0  0  0  0  2  0  0  0  0  0  0
  188.3680  177.8110  141.5600 C   0  0  1  0  0  3  0  0  0  0  0  0
  186.1570  178.8050  141.0990 C   0  0  0  0  0  2  0  0  0  0  0  0
  187.4350  178.9790  141.4270 C   0  0  0  0  0  3  0  0  0  0  0  0
  189.2490  177.7040  140.3070 C   0  0  2  0  0  3  0  0  0  0  0  0
  188.2630  177.4840  138.7880 S   0  0  0  0  0  0  0  0  0  0  0  0
  189.1480  178.8180  137.9360 C   0  0  0  0  0  1  0  0  0  0  0  0
  190.4490  175.8480  139.3300 O   0  0  0  0  0  1  0  0  0  0  0  0
  190.4210  176.7180  140.4220 C   0  0  1  0  0  3  0  0  0  0  0  0
  191.7460  177.4570  140.5150 C   0  0  0  0  0  2  0  0  0  0  0  0
  193.7810  177.8670  139.3500 O   0  0  0  0  0  0  0  0  0  0  0  0
  194.0150  176.6600  140.0320 C   0  0  0  0  0  2  0  0  0  0  0  0
  192.6990  176.9730  139.4370 C   0  0  1  0  0  3  0  0  0  0  0  0
  186.6630  176.9440  143.9200 S   0  0  0  0  0  0  0  0  0  0  0  0
  186.0370  177.9920  145.2300 C   0  0  0  0  0  0  0  0  0  0  0  0
  186.8310  178.3970  146.1530 N   0  0  0  0  0  2  0  0  0  0  0  0
  184.5800  178.3500  145.2550 C   0  0  1  0  0  3  0  0  0  0  0  0
  184.2170  178.8860  146.4940 O   0  0  0  0  0  1  0  0  0  0  0  0
  184.1780  179.2820  144.1090 C   0  0  0  0  0  2  0  0  0  0  0  0
  182.7600  178.7930  142.1080 O   0  0  0  0  0  0  0  0  0  0  0  0
  181.8650  178.7050  144.2160 O   0  0  0  0  0  1  0  0  0  0  0  0
  182.8680  178.9170  143.4870 C   0  0  0  0  0  0  0  0  0  0  0  0
  1  2  1  0  0  0  0
  2  3  1  6  0  0  0
  2  6  1  0  0  0  0
  4 21  1  6  0  0  0
  5  9  1  6  0  0  0
  5  1  1  0  0  0  0
  5  7  1  0  0  0  0
  5  4  1  0  0  0  0
  6  8  1  0  0  0  0
  7  4  1  0  0  0  0
  7  8  1  1  0  0  0
  9 11  1  6  0  0  0
 10 11  2  0  0  0  0
 12 13  1  6  0  0  0
 12 16  1  0  0  0  0
 12  9  1  0  0  0  0
 14 13  1  0  0  0  0
 16 15  1  6  0  0  0
 16 17  1  0  0  0  0
 18 20  1  0  0  0  0
 18 19  1  0  0  0  0
 20 19  1  0  0  0  0
 20 17  1  1  0  0  0
 21 22  1  0  0  0  0
 22 24  1  0  0  0  0
 22 23  2  0  0  0  0
 24 25  1  1  0  0  0
 26 24  1  0  0  0  0
 27 29  2  0  0  0  0
 29 26  1  0  0  0  0
 29 28  1  0  0  0  0
M  END
>  <MODEL>
1

>  <REMARK>
 VINA RESULT:      -5.9      0.000      0.000
  Name = 
  12 active torsions:
  status: ('A' for Active; 'I' for Inactive)
    1  A    between atoms: C_1  and  C_18
    2  A    between atoms: C_1  and  C_23
    3  A    between atoms: S_2  and  C_16
    4  A    between atoms: C_10  and  S_28
    5  A    between atoms: C_11  and  C_12
    6  A    between atoms: C_11  and  S_28
    7  A    between atoms: C_12  and  C_21
    8  A    between atoms: C_13  and  C_16
    9  A    between atoms: C_13  and  C_17
   10  A    between atoms: C_13  and  C_19
   11  A    between atoms: C_16  and  C_23
   12  A    between atoms: C_21  and  C_22
                            x       y       z     vdW  Elec       q    Type
                         _______ _______ _______ _____ _____    ______ ____

>  <TORSDO>
F 12

$$$$
=
 OpenBabel11062416223D

 29 31  0  0  1  0  0  0  0  0999 V2000
  190.0820  178.9130  142.9690 O   0  0  0  0  0  0  0  0  0  0  0  0
  190.8380  178.8600  144.1560 C   0  0  2  0  0  3  0  0  0  0  0  0
  191.7480  179.9160  144.1710 O   0  0  0  0  0  1  0  0  0  0  0  0
  188.3430  177.5030  144.1480 C   0  0  2  0  0  3  0  0  0  0  0  0
  189.1000  177.8780  142.8700 C   0  0  2  0  0  0  0  0  0  0  0  0
  191.5860  177.5490  144.2300 C   0  0  0  0  0  2  0  0  0  0  0  0
  189.3620  176.5240  143.5500 C   0  0  1  0  0  3  0  0  0  0  0  0
  190.5680  176.4570  144.4900 C   0  0  0  0  0  2  0  0  0  0  0  0
  188.3350  177.8170  141.5330 C   0  0  1  0  0  3  0  0  0  0  0  0
  186.1130  178.7840  141.0660 C   0  0  0  0  0  2  0  0  0  0  0  0
  187.3920  178.9740  141.3800 C   0  0  0  0  0  3  0  0  0  0  0  0
  189.2250  177.7030  140.2880 C   0  0  2  0  0  3  0  0  0  0  0  0
  188.2510  177.4680  138.7640 S   0  0  0  0  0  0  0  0  0  0  0  0
  189.1140  178.8210  137.9190 C   0  0  0  0  0  1  0  0  0  0  0  0
  190.4500  175.8560  139.3240 O   0  0  0  0  0  1  0  0  0  0  0  0
  190.3990  176.7220  140.4190 C   0  0  1  0  0  3  0  0  0  0  0  0
  191.7190  177.4650  140.5390 C   0  0  0  0  0  2  0  0  0  0  0  0
  193.7760  177.9020  139.4240 O   0  0  0  0  0  0  0  0  0  0  0  0
  193.9760  176.6510  140.0330 C   0  0  0  0  0  2  0  0  0  0  0  0
  192.6740  177.0280  139.4440 C   0  0  1  0  0  3  0  0  0  0  0  0
  186.6630  176.8420  143.8750 S   0  0  0  0  0  0  0  0  0  0  0  0
  185.9150  178.1560  144.8340 C   0  0  0  0  0  0  0  0  0  0  0  0
  184.8910  178.7750  144.3720 N   0  0  0  0  0  2  0  0  0  0  0  0
  186.5220  178.5440  146.1510 C   0  0  1  0  0  3  0  0  0  0  0  0
  185.7100  179.4610  146.8260 O   0  0  0  0  0  1  0  0  0  0  0  0
  186.8460  177.3360  147.0350 C   0  0  0  0  0  2  0  0  0  0  0  0
  189.2360  176.8100  147.5440 O   0  0  0  0  0  0  0  0  0  0  0  0
  188.0880  178.3360  148.8090 O   0  0  0  0  0  1  0  0  0  0  0  0
  188.0840  177.5220  147.8510 C   0  0  0  0  0  0  0  0  0  0  0  0
  1  2  1  0  0  0  0
  2  3  1  6  0  0  0
  2  6  1  0  0  0  0
  4 21  1  6  0  0  0
  5  9  1  6  0  0  0
  5  1  1  0  0  0  0
  5  7  1  0  0  0  0
  5  4  1  0  0  0  0
  6  8  1  0  0  0  0
  7  4  1  0  0  0  0
  7  8  1  1  0  0  0
  9 11  1  6  0  0  0
 10 11  2  0  0  0  0
 12 13  1  6  0  0  0
 12 16  1  0  0  0  0
 12  9  1  0  0  0  0
 14 13  1  0  0  0  0
 16 15  1  6  0  0  0
 16 17  1  0  0  0  0
 18 20  1  0  0  0  0
 18 19  1  0  0  0  0
 20 19  1  0  0  0  0
 20 17  1  1  0  0  0
 21 22  1  0  0  0  0
 22 24  1  0  0  0  0
 23 22  2  0  0  0  0
 24 25  1  1  0  0  0
 24 26  1  0  0  0  0
 26 29  1  0  0  0  0
 27 29  2  0  0  0  0
 29 28  1  0  0  0  0
M  END
>  <MODEL>
2

>  <REMARK>
 VINA RESULT:      -5.9      1.683      2.740
  Name = 
  12 active torsions:
  status: ('A' for Active; 'I' for Inactive)
    1  A    between atoms: C_1  and  C_18
    2  A    between atoms: C_1  and  C_23
    3  A    between atoms: S_2  and  C_16
    4  A    between atoms: C_10  and  S_28
    5  A    between atoms: C_11  and  C_12
    6  A    between atoms: C_11  and  S_28
    7  A    between atoms: C_12  and  C_21
    8  A    between atoms: C_13  and  C_16
    9  A    between atoms: C_13  and  C_17
   10  A    between atoms: C_13  and  C_19
   11  A    between atoms: C_16  and  C_23
   12  A    between atoms: C_21  and  C_22
                            x       y       z     vdW  Elec       q    Type
                         _______ _______ _______ _____ _____    ______ ____

>  <TORSDO>
F 12

$$$$
=
 OpenBabel11062416223D

 29 31  0  0  1  0  0  0  0  0999 V2000
  189.2260  176.4440  139.7980 O   0  0  0  0  0  0  0  0  0  0  0  0
  188.9300  176.5680  138.4260 C   0  0  2  0  0  3  0  0  0  0  0  0
  189.3310  175.4100  137.7610 O   0  0  0  0  0  1  0  0  0  0  0  0
  187.4940  178.2400  140.2180 C   0  0  2  0  0  3  0  0  0  0  0  0
  188.8290  177.5780  140.5730 C   0  0  2  0  0  0  0  0  0  0  0  0
  189.6580  177.7600  137.8490 C   0  0  0  0  0  2  0  0  0  0  0  0
  188.8090  178.9690  139.9170 C   0  0  1  0  0  3  0  0  0  0  0  0
  188.9980  179.0080  138.3990 C   0  0  0  0  0  2  0  0  0  0  0  0
  189.2460  177.5450  142.0570 C   0  0  1  0  0  3  0  0  0  0  0  0
  188.0180  175.9390  143.4700 C   0  0  0  0  0  2  0  0  0  0  0  0
  189.0440  176.1870  142.6600 C   0  0  0  0  0  3  0  0  0  0  0  0
  190.6770  178.0290  142.3320 C   0  0  2  0  0  3  0  0  0  0  0  0
  191.9200  176.7450  141.9690 S   0  0  0  0  0  0  0  0  0  0  0  0
  192.4530  177.5890  140.4550 C   0  0  0  0  0  1  0  0  0  0  0  0
  189.6600  178.8740  144.3560 O   0  0  0  0  0  1  0  0  0  0  0  0
  190.8800  178.7070  143.6950 C   0  0  1  0  0  3  0  0  0  0  0  0
  191.8220  177.8970  144.5700 C   0  0  0  0  0  2  0  0  0  0  0  0
  191.8370  175.8040  145.7030 O   0  0  0  0  0  0  0  0  0  0  0  0
  191.7270  176.7510  146.7360 C   0  0  0  0  0  2  0  0  0  0  0  0
  191.0390  176.9320  145.4410 C   0  0  1  0  0  3  0  0  0  0  0  0
  186.6620  179.0780  141.6110 S   0  0  0  0  0  0  0  0  0  0  0  0
  185.0830  179.0660  140.7660 C   0  0  0  0  0  0  0  0  0  0  0  0
  185.0190  179.4260  139.5360 N   0  0  0  0  0  2  0  0  0  0  0  0
  183.8460  178.6730  141.5190 C   0  0  1  0  0  3  0  0  0  0  0  0
  183.1550  177.6570  140.8530 O   0  0  0  0  0  1  0  0  0  0  0  0
  184.1340  178.2870  142.9730 C   0  0  0  0  0  2  0  0  0  0  0  0
  181.8120  178.9190  143.6490 O   0  0  0  0  0  0  0  0  0  0  0  0
  183.5840  179.3550  145.0350 O   0  0  0  0  0  1  0  0  0  0  0  0
  183.1690  178.8890  143.9420 C   0  0  0  0  0  0  0  0  0  0  0  0
  1  5  1  0  0  0  0
  2  3  1  6  0  0  0
  2  1  1  0  0  0  0
  4  5  1  0  0  0  0
  4 21  1  1  0  0  0
  5  9  1  1  0  0  0
  6  8  1  0  0  0  0
  6  2  1  0  0  0  0
  7  8  1  6  0  0  0
  7  4  1  0  0  0  0
  7  5  1  0  0  0  0
  9 12  1  0  0  0  0
  9 11  1  6  0  0  0
 11 10  2  0  0  0  0
 12 13  1  1  0  0  0
 12 16  1  0  0  0  0
 14 13  1  0  0  0  0
 16 15  1  1  0  0  0
 16 17  1  0  0  0  0
 18 19  1  0  0  0  0
 20 17  1  6  0  0  0
 20 18  1  0  0  0  0
 20 19  1  0  0  0  0
 22 24  1  0  0  0  0
 22 21  1  0  0  0  0
 23 22  2  0  0  0  0
 24 25  1  6  0  0  0
 24 26  1  0  0  0  0
 26 29  1  0  0  0  0
 27 29  2  0  0  0  0
 29 28  1  0  0  0  0
M  END
>  <MODEL>
3

>  <REMARK>
 VINA RESULT:      -5.6      2.271      4.846
  Name = 
  12 active torsions:
  status: ('A' for Active; 'I' for Inactive)
    1  A    between atoms: C_1  and  C_18
    2  A    between atoms: C_1  and  C_23
    3  A    between atoms: S_2  and  C_16
    4  A    between atoms: C_10  and  S_28
    5  A    between atoms: C_11  and  C_12
    6  A    between atoms: C_11  and  S_28
    7  A    between atoms: C_12  and  C_21
    8  A    between atoms: C_13  and  C_16
    9  A    between atoms: C_13  and  C_17
   10  A    between atoms: C_13  and  C_19
   11  A    between atoms: C_16  and  C_23
   12  A    between atoms: C_21  and  C_22
                            x       y       z     vdW  Elec       q    Type
                         _______ _______ _______ _____ _____    ______ ____

>  <TORSDO>
F 12

$$$$
=
 OpenBabel11062416223D

 29 31  0  0  1  0  0  0  0  0999 V2000
  190.1580  178.7320  142.9030 O   0  0  0  0  0  0  0  0  0  0  0  0
  191.0950  178.6150  143.9490 C   0  0  2  0  0  3  0  0  0  0  0  0
  192.0490  179.6240  143.8270 O   0  0  0  0  0  1  0  0  0  0  0  0
  188.5630  177.3850  144.3340 C   0  0  2  0  0  3  0  0  0  0  0  0
  189.1200  177.7500  142.9540 C   0  0  2  0  0  0  0  0  0  0  0  0
  191.7740  177.2670  143.8810 C   0  0  0  0  0  2  0  0  0  0  0  0
  189.4170  176.3700  143.5640 C   0  0  1  0  0  3  0  0  0  0  0  0
  190.7560  176.2220  144.2900 C   0  0  0  0  0  2  0  0  0  0  0  0
  188.1430  177.7570  141.7610 C   0  0  1  0  0  3  0  0  0  0  0  0
  186.0620  179.0420  141.4400 C   0  0  0  0  0  2  0  0  0  0  0  0
  187.3700  179.0400  141.6850 C   0  0  0  0  0  3  0  0  0  0  0  0
  188.7880  177.4560  140.4020 C   0  0  2  0  0  3  0  0  0  0  0  0
  190.6100  177.5060  140.4770 S   0  0  0  0  0  0  0  0  0  0  0  0
  190.7690  176.2210  139.2070 C   0  0  0  0  0  1  0  0  0  0  0  0
  189.1640  179.0950  138.6660 O   0  0  0  0  0  1  0  0  0  0  0  0
  188.2050  178.2440  139.2200 C   0  0  1  0  0  3  0  0  0  0  0  0
  187.6800  177.3060  138.1450 C   0  0  0  0  0  2  0  0  0  0  0  0
  186.5880  177.3020  136.0310 O   0  0  0  0  0  0  0  0  0  0  0  0
  185.5360  177.2040  136.9590 C   0  0  0  0  0  2  0  0  0  0  0  0
  186.7270  178.0400  137.2200 C   0  0  1  0  0  3  0  0  0  0  0  0
  186.8290  176.8160  144.3340 S   0  0  0  0  0  0  0  0  0  0  0  0
  186.5000  177.5930  145.9130 C   0  0  0  0  0  0  0  0  0  0  0  0
  187.2670  177.3480  146.9120 N   0  0  0  0  0  2  0  0  0  0  0  0
  185.3060  178.4900  146.0590 C   0  0  1  0  0  3  0  0  0  0  0  0
  185.4830  179.3930  147.1120 O   0  0  0  0  0  1  0  0  0  0  0  0
  184.9480  179.2180  144.7600 C   0  0  0  0  0  2  0  0  0  0  0  0
  183.1090  178.9750  143.0840 O   0  0  0  0  0  0  0  0  0  0  0  0
  182.6300  179.1370  145.3190 O   0  0  0  0  0  1  0  0  0  0  0  0
  183.4980  179.1140  144.4100 C   0  0  0  0  0  0  0  0  0  0  0  0
  1  5  1  0  0  0  0
  1  2  1  0  0  0  0
  2  3  1  6  0  0  0
  4 21  1  6  0  0  0
  5  9  1  6  0  0  0
  5  7  1  0  0  0  0
  5  4  1  0  0  0  0
  6  2  1  0  0  0  0
  6  8  1  0  0  0  0
  7  8  1  1  0  0  0
  7  4  1  0  0  0  0
  9 11  1  6  0  0  0
 10 11  2  0  0  0  0
 12 13  1  1  0  0  0
 12  9  1  0  0  0  0
 14 13  1  0  0  0  0
 16 15  1  6  0  0  0
 16 12  1  0  0  0  0
 17 16  1  0  0  0  0
 18 19  1  0  0  0  0
 18 20  1  0  0  0  0
 19 20  1  0  0  0  0
 20 17  1  1  0  0  0
 21 22  1  0  0  0  0
 22 24  1  0  0  0  0
 22 23  2  0  0  0  0
 24 25  1  1  0  0  0
 26 24  1  0  0  0  0
 27 29  2  0  0  0  0
 29 26  1  0  0  0  0
 29 28  1  0  0  0  0
M  END
>  <MODEL>
4

>  <REMARK>
 VINA RESULT:      -5.5      1.798      3.008
  Name = 
  12 active torsions:
  status: ('A' for Active; 'I' for Inactive)
    1  A    between atoms: C_1  and  C_18
    2  A    between atoms: C_1  and  C_23
    3  A    between atoms: S_2  and  C_16
    4  A    between atoms: C_10  and  S_28
    5  A    between atoms: C_11  and  C_12
    6  A    between atoms: C_11  and  S_28
    7  A    between atoms: C_12  and  C_21
    8  A    between atoms: C_13  and  C_16
    9  A    between atoms: C_13  and  C_17
   10  A    between atoms: C_13  and  C_19
   11  A    between atoms: C_16  and  C_23
   12  A    between atoms: C_21  and  C_22
                            x       y       z     vdW  Elec       q    Type
                         _______ _______ _______ _____ _____    ______ ____

>  <TORSDO>
F 12

$$$$
=
 OpenBabel11062416223D

 29 31  0  0  1  0  0  0  0  0999 V2000
  190.0050  178.8050  142.8320 O   0  0  0  0  0  0  0  0  0  0  0  0
  190.9060  178.7080  143.9110 C   0  0  2  0  0  3  0  0  0  0  0  0
  191.7760  179.7960  143.8840 O   0  0  0  0  0  1  0  0  0  0  0  0
  188.4730  177.2560  144.1190 C   0  0  2  0  0  3  0  0  0  0  0  0
  189.0520  177.7400  142.7860 C   0  0  2  0  0  0  0  0  0  0  0  0
  191.6980  177.4250  143.8030 C   0  0  0  0  0  2  0  0  0  0  0  0
  189.4390  176.3570  143.3360 C   0  0  1  0  0  3  0  0  0  0  0  0
  190.7560  176.2800  144.1130 C   0  0  0  0  0  2  0  0  0  0  0  0
  188.1260  177.7320  141.5530 C   0  0  1  0  0  3  0  0  0  0  0  0
  186.0100  178.9850  141.3520 C   0  0  0  0  0  2  0  0  0  0  0  0
  187.3380  179.0040  141.4430 C   0  0  0  0  0  3  0  0  0  0  0  0
  188.8340  177.4420  140.2220 C   0  0  2  0  0  3  0  0  0  0  0  0
  190.6500  177.4640  140.3870 S   0  0  0  0  0  0  0  0  0  0  0  0
  190.8500  176.1640  139.1380 C   0  0  0  0  0  1  0  0  0  0  0  0
  189.3730  178.9120  138.3800 O   0  0  0  0  0  1  0  0  0  0  0  0
  188.3210  178.2570  139.0250 C   0  0  1  0  0  3  0  0  0  0  0  0
  187.5940  177.3660  138.0310 C   0  0  0  0  0  2  0  0  0  0  0  0
  186.2230  177.5630  136.0950 O   0  0  0  0  0  0  0  0  0  0  0  0
  185.3210  177.2310  137.1210 C   0  0  0  0  0  2  0  0  0  0  0  0
  186.4690  178.1310  137.3580 C   0  0  1  0  0  3  0  0  0  0  0  0
  186.7940  176.5470  144.0120 S   0  0  0  0  0  0  0  0  0  0  0  0
  186.0970  177.8720  144.9930 C   0  0  0  0  0  0  0  0  0  0  0  0
  185.0150  178.4450  144.6080 N   0  0  0  0  0  2  0  0  0  0  0  0
  186.8100  178.3250  146.2330 C   0  0  1  0  0  3  0  0  0  0  0  0
  186.0600  179.2850  146.9200 O   0  0  0  0  0  1  0  0  0  0  0  0
  187.1980  177.1640  147.1520 C   0  0  0  0  0  2  0  0  0  0  0  0
  188.6040  178.2330  148.9220 O   0  0  0  0  0  1  0  0  0  0  0  0
  189.5300  176.7500  147.4400 O   0  0  0  0  0  0  0  0  0  0  0  0
  188.5110  177.3710  147.8370 C   0  0  0  0  0  0  0  0  0  0  0  0
  1  2  1  0  0  0  0
  2  3  1  6  0  0  0
  4 21  1  6  0  0  0
  5  9  1  6  0  0  0
  5  1  1  0  0  0  0
  5  7  1  0  0  0  0
  5  4  1  0  0  0  0
  6  2  1  0  0  0  0
  6  8  1  0  0  0  0
  7  8  1  1  0  0  0
  7  4  1  0  0  0  0
  9 11  1  6  0  0  0
 10 11  2  0  0  0  0
 12 13  1  1  0  0  0
 12  9  1  0  0  0  0
 14 13  1  0  0  0  0
 16 15  1  6  0  0  0
 16 12  1  0  0  0  0
 17 16  1  0  0  0  0
 18 19  1  0  0  0  0
 18 20  1  0  0  0  0
 19 20  1  0  0  0  0
 20 17  1  1  0  0  0
 21 22  1  0  0  0  0
 22 24  1  0  0  0  0
 23 22  2  0  0  0  0
 24 25  1  1  0  0  0
 24 26  1  0  0  0  0
 26 29  1  0  0  0  0
 28 29  2  0  0  0  0
 29 27  1  0  0  0  0
M  END
>  <MODEL>
5

>  <REMARK>
 VINA RESULT:      -5.4      2.404      4.180
  Name = 
  12 active torsions:
  status: ('A' for Active; 'I' for Inactive)
    1  A    between atoms: C_1  and  C_18
    2  A    between atoms: C_1  and  C_23
    3  A    between atoms: S_2  and  C_16
    4  A    between atoms: C_10  and  S_28
    5  A    between atoms: C_11  and  C_12
    6  A    between atoms: C_11  and  S_28
    7  A    between atoms: C_12  and  C_21
    8  A    between atoms: C_13  and  C_16
    9  A    between atoms: C_13  and  C_17
   10  A    between atoms: C_13  and  C_19
   11  A    between atoms: C_16  and  C_23
   12  A    between atoms: C_21  and  C_22
                            x       y       z     vdW  Elec       q    Type
                         _______ _______ _______ _____ _____    ______ ____

>  <TORSDO>
F 12

$$$$
=
 OpenBabel11062416223D

 29 31  0  0  1  0  0  0  0  0999 V2000
  189.3270  176.0320  143.7380 O   0  0  0  0  0  0  0  0  0  0  0  0
  190.5330  175.7680  143.0580 C   0  0  2  0  0  3  0  0  0  0  0  0
  190.9040  174.4420  143.2750 O   0  0  0  0  0  1  0  0  0  0  0  0
  188.9980  177.9850  142.1640 C   0  0  2  0  0  3  0  0  0  0  0  0
  188.8500  177.3670  143.5580 C   0  0  2  0  0  0  0  0  0  0  0  0
  191.6200  176.6860  143.5650 C   0  0  0  0  0  2  0  0  0  0  0  0
  189.8590  178.5030  143.3220 C   0  0  1  0  0  3  0  0  0  0  0  0
  191.3090  178.0820  143.0650 C   0  0  0  0  0  2  0  0  0  0  0  0
  187.6040  177.7430  144.3840 C   0  0  1  0  0  3  0  0  0  0  0  0
  185.4110  178.0370  143.2920 C   0  0  0  0  0  2  0  0  0  0  0  0
  186.3450  177.2140  143.7620 C   0  0  0  0  0  3  0  0  0  0  0  0
  187.6660  177.3310  145.8620 C   0  0  2  0  0  3  0  0  0  0  0  0
  186.1020  177.6720  146.7380 S   0  0  0  0  0  0  0  0  0  0  0  0
  186.0980  179.4050  146.2040 C   0  0  0  0  0  1  0  0  0  0  0  0
  188.5460  178.5780  147.7360 O   0  0  0  0  0  1  0  0  0  0  0  0
  188.9090  177.8220  146.6190 C   0  0  1  0  0  3  0  0  0  0  0  0
  189.7750  176.6530  147.0590 C   0  0  0  0  0  2  0  0  0  0  0  0
  191.9670  176.9330  147.9410 O   0  0  0  0  0  0  0  0  0  0  0  0
  192.0620  175.7730  147.1530 C   0  0  0  0  0  2  0  0  0  0  0  0
  191.2340  176.9260  146.7410 C   0  0  1  0  0  3  0  0  0  0  0  0
  187.7470  179.2490  141.7500 S   0  0  0  0  0  0  0  0  0  0  0  0
  187.4090  178.4940  140.1620 C   0  0  0  0  0  0  0  0  0  0  0  0
  186.2090  178.4810  139.7080 N   0  0  0  0  0  2  0  0  0  0  0  0
  188.5280  177.8490  139.3990 C   0  0  1  0  0  3  0  0  0  0  0  0
  188.0760  176.7240  138.7010 O   0  0  0  0  0  1  0  0  0  0  0  0
  189.2520  178.8250  138.4680 C   0  0  0  0  0  2  0  0  0  0  0  0
  189.3360  178.0890  136.0800 O   0  0  0  0  0  0  0  0  0  0  0  0
  187.6640  179.4760  136.8100 O   0  0  0  0  0  1  0  0  0  0  0  0
  188.7060  178.8230  137.0760 C   0  0  0  0  0  0  0  0  0  0  0  0
  2  3  1  1  0  0  0
  2  6  1  0  0  0  0
  2  1  1  0  0  0  0
  4 21  1  1  0  0  0
  4  7  1  0  0  0  0
  4  5  1  0  0  0  0
  5  1  1  0  0  0  0
  5  9  1  1  0  0  0
  7  8  1  6  0  0  0
  7  5  1  0  0  0  0
  8  6  1  0  0  0  0
  9 11  1  6  0  0  0
  9 12  1  0  0  0  0
 10 11  2  0  0  0  0
 12 16  1  0  0  0  0
 12 13  1  1  0  0  0
 14 13  1  0  0  0  0
 16 17  1  0  0  0  0
 16 15  1  1  0  0  0
 19 18  1  0  0  0  0
 20 17  1  1  0  0  0
 20 19  1  0  0  0  0
 20 18  1  0  0  0  0
 22 21  1  0  0  0  0
 23 22  2  0  0  0  0
 24 25  1  6  0  0  0
 24 22  1  0  0  0  0
 26 24  1  0  0  0  0
 27 29  2  0  0  0  0
 28 29  1  0  0  0  0
 29 26  1  0  0  0  0
M  END
>  <MODEL>
6

>  <REMARK>
 VINA RESULT:      -5.2      3.380      6.278
  Name = 
  12 active torsions:
  status: ('A' for Active; 'I' for Inactive)
    1  A    between atoms: C_1  and  C_18
    2  A    between atoms: C_1  and  C_23
    3  A    between atoms: S_2  and  C_16
    4  A    between atoms: C_10  and  S_28
    5  A    between atoms: C_11  and  C_12
    6  A    between atoms: C_11  and  S_28
    7  A    between atoms: C_12  and  C_21
    8  A    between atoms: C_13  and  C_16
    9  A    between atoms: C_13  and  C_17
   10  A    between atoms: C_13  and  C_19
   11  A    between atoms: C_16  and  C_23
   12  A    between atoms: C_21  and  C_22
                            x       y       z     vdW  Elec       q    Type
                         _______ _______ _______ _____ _____    ______ ____

>  <TORSDO>
F 12

$$$$
=
 OpenBabel11062416223D

 29 31  0  0  1  0  0  0  0  0999 V2000
  189.9850  176.7520  144.9030 O   0  0  0  0  0  0  0  0  0  0  0  0
  191.3610  176.7480  144.6010 C   0  0  2  0  0  3  0  0  0  0  0  0
  191.9880  175.7320  145.3190 O   0  0  0  0  0  1  0  0  0  0  0  0
  189.6270  178.0010  142.7320 C   0  0  2  0  0  3  0  0  0  0  0  0
  189.2470  177.7500  144.1950 C   0  0  2  0  0  0  0  0  0  0  0  0
  191.9720  178.0800  144.9740 C   0  0  0  0  0  2  0  0  0  0  0  0
  189.9450  179.0610  143.7940 C   0  0  1  0  0  3  0  0  0  0  0  0
  191.4630  179.1080  143.9830 C   0  0  0  0  0  2  0  0  0  0  0  0
  187.7610  177.8780  144.5860 C   0  0  1  0  0  3  0  0  0  0  0  0
  187.5620  175.6280  143.5930 C   0  0  0  0  0  2  0  0  0  0  0  0
  186.9890  176.6380  144.2450 C   0  0  0  0  0  3  0  0  0  0  0  0
  187.5140  178.2570  146.0530 C   0  0  2  0  0  3  0  0  0  0  0  0
  188.1800  177.0120  147.2080 S   0  0  0  0  0  0  0  0  0  0  0  0
  189.1530  178.2560  148.0990 C   0  0  0  0  0  1  0  0  0  0  0  0
  186.0510  179.5920  147.4370 O   0  0  0  0  0  1  0  0  0  0  0  0
  186.0750  178.6820  146.3780 C   0  0  1  0  0  3  0  0  0  0  0  0
  185.4030  179.3030  145.1630 C   0  0  0  0  0  2  0  0  0  0  0  0
  183.2120  179.7150  144.3310 O   0  0  0  0  0  0  0  0  0  0  0  0
  183.6690  178.6280  143.5660 C   0  0  0  0  0  2  0  0  0  0  0  0
  183.9950  178.7590  145.0010 C   0  0  1  0  0  3  0  0  0  0  0  0
  188.2640  178.6120  141.6820 S   0  0  0  0  0  0  0  0  0  0  0  0
  188.9780  177.8800  140.2110 C   0  0  0  0  0  0  0  0  0  0  0  0
  190.1290  177.3180  140.2770 N   0  0  0  0  0  2  0  0  0  0  0  0
  188.2370  177.9690  138.9090 C   0  0  1  0  0  3  0  0  0  0  0  0
  187.0130  178.6260  139.0730 O   0  0  0  0  0  1  0  0  0  0  0  0
  189.0680  178.6140  137.7970 C   0  0  0  0  0  2  0  0  0  0  0  0
  188.9370  177.8780  135.4110 O   0  0  0  0  0  0  0  0  0  0  0  0
  190.1570  176.6750  136.9330 O   0  0  0  0  0  1  0  0  0  0  0  0
  189.4160  177.6630  136.6970 C   0  0  0  0  0  0  0  0  0  0  0  0
  2  1  1  0  0  0  0
  2  6  1  0  0  0  0
  2  3  1  1  0  0  0
  4 21  1  6  0  0  0
  4  7  1  0  0  0  0
  4  5  1  0  0  0  0
  5  9  1  1  0  0  0
  5  1  1  0  0  0  0
  7  8  1  1  0  0  0
  7  5  1  0  0  0  0
  8  6  1  0  0  0  0
  9 11  1  1  0  0  0
  9 12  1  0  0  0  0
 10 11  2  0  0  0  0
 12 16  1  0  0  0  0
 12 13  1  1  0  0  0
 13 14  1  0  0  0  0
 16 15  1  1  0  0  0
 17 16  1  0  0  0  0
 18 20  1  0  0  0  0
 19 18  1  0  0  0  0
 19 20  1  0  0  0  0
 20 17  1  6  0  0  0
 22 23  2  0  0  0  0
 22 21  1  0  0  0  0
 24 25  1  1  0  0  0
 24 22  1  0  0  0  0
 26 24  1  0  0  0  0
 27 29  2  0  0  0  0
 29 28  1  0  0  0  0
 29 26  1  0  0  0  0
M  END
>  <MODEL>
7

>  <REMARK>
 VINA RESULT:      -5.2      2.678      7.126
  Name = 
  12 active torsions:
  status: ('A' for Active; 'I' for Inactive)
    1  A    between atoms: C_1  and  C_18
    2  A    between atoms: C_1  and  C_23
    3  A    between atoms: S_2  and  C_16
    4  A    between atoms: C_10  and  S_28
    5  A    between atoms: C_11  and  C_12
    6  A    between atoms: C_11  and  S_28
    7  A    between atoms: C_12  and  C_21
    8  A    between atoms: C_13  and  C_16
    9  A    between atoms: C_13  and  C_17
   10  A    between atoms: C_13  and  C_19
   11  A    between atoms: C_16  and  C_23
   12  A    between atoms: C_21  and  C_22
                            x       y       z     vdW  Elec       q    Type
                         _______ _______ _______ _____ _____    ______ ____

>  <TORSDO>
F 12

$$$$
=
 OpenBabel11062416223D

 29 31  0  0  1  0  0  0  0  0999 V2000
  189.5830  178.5500  138.3770 O   0  0  0  0  0  0  0  0  0  0  0  0
  188.6830  178.6680  137.3000 C   0  0  2  0  0  3  0  0  0  0  0  0
  188.4250  180.0160  137.0610 O   0  0  0  0  0  1  0  0  0  0  0  0
  190.1400  176.2390  137.5110 C   0  0  2  0  0  3  0  0  0  0  0  0
  189.9300  177.1980  138.6870 C   0  0  2  0  0  0  0  0  0  0  0  0
  187.3910  177.9570  137.6310 C   0  0  0  0  0  2  0  0  0  0  0  0
  188.9120  176.0780  138.4150 C   0  0  1  0  0  3  0  0  0  0  0  0
  187.6700  176.4680  137.6090 C   0  0  0  0  0  2  0  0  0  0  0  0
  190.8110  177.0100  139.9380 C   0  0  1  0  0  3  0  0  0  0  0  0
  193.2720  177.0040  140.1160 C   0  0  0  0  0  2  0  0  0  0  0  0
  192.1590  177.6460  139.7670 C   0  0  0  0  0  3  0  0  0  0  0  0
  190.1730  177.4870  141.2500 C   0  0  2  0  0  3  0  0  0  0  0  0
  191.0790  176.8850  142.7150 S   0  0  0  0  0  0  0  0  0  0  0  0
  191.1340  178.5420  143.4500 C   0  0  0  0  0  1  0  0  0  0  0  0
  188.3180  176.5750  142.5020 O   0  0  0  0  0  1  0  0  0  0  0  0
  188.6550  177.2800  141.3440 C   0  0  1  0  0  3  0  0  0  0  0  0
  187.9220  178.6120  141.3330 C   0  0  0  0  0  2  0  0  0  0  0  0
  185.8760  179.6960  141.8840 O   0  0  0  0  0  0  0  0  0  0  0  0
  185.5580  178.9150  140.7590 C   0  0  0  0  0  2  0  0  0  0  0  0
  186.4900  178.4330  141.8000 C   0  0  1  0  0  3  0  0  0  0  0  0
  191.2970  174.8650  137.8420 S   0  0  0  0  0  0  0  0  0  0  0  0
  192.3750  175.3590  136.5000 C   0  0  0  0  0  0  0  0  0  0  0  0
  191.8670  175.7470  135.3880 N   0  0  0  0  0  2  0  0  0  0  0  0
  193.8630  175.2730  136.6790 C   0  0  1  0  0  3  0  0  0  0  0  0
  194.4260  176.5450  136.8130 O   0  0  0  0  0  1  0  0  0  0  0  0
  194.2690  174.3620  137.8410 C   0  0  0  0  0  2  0  0  0  0  0  0
  196.3440  173.4430  138.8890 O   0  0  0  0  0  1  0  0  0  0  0  0
  196.2760  173.8880  136.6420 O   0  0  0  0  0  0  0  0  0  0  0  0
  195.6850  173.8920  137.7520 C   0  0  0  0  0  0  0  0  0  0  0  0
  1  5  1  0  0  0  0
  2  3  1  1  0  0  0
  2  6  1  0  0  0  0
  2  1  1  0  0  0  0
  4 21  1  1  0  0  0
  4  7  1  0  0  0  0
  4  5  1  0  0  0  0
  5  9  1  1  0  0  0
  7  8  1  6  0  0  0
  7  5  1  0  0  0  0
  8  6  1  0  0  0  0
  9 11  1  6  0  0  0
  9 12  1  0  0  0  0
 11 10  2  0  0  0  0
 12 16  1  0  0  0  0
 12 13  1  1  0  0  0
 13 14  1  0  0  0  0
 16 15  1  1  0  0  0
 17 16  1  0  0  0  0
 19 20  1  0  0  0  0
 19 18  1  0  0  0  0
 20 17  1  6  0  0  0
 20 18  1  0  0  0  0
 22 24  1  0  0  0  0
 22 21  1  0  0  0  0
 23 22  2  0  0  0  0
 24 25  1  1  0  0  0
 24 26  1  0  0  0  0
 28 29  2  0  0  0  0
 29 26  1  0  0  0  0
 29 27  1  0  0  0  0
M  END
>  <MODEL>
8

>  <REMARK>
 VINA RESULT:      -5.1      3.668      8.979
  Name = 
  12 active torsions:
  status: ('A' for Active; 'I' for Inactive)
    1  A    between atoms: C_1  and  C_18
    2  A    between atoms: C_1  and  C_23
    3  A    between atoms: S_2  and  C_16
    4  A    between atoms: C_10  and  S_28
    5  A    between atoms: C_11  and  C_12
    6  A    between atoms: C_11  and  S_28
    7  A    between atoms: C_12  and  C_21
    8  A    between atoms: C_13  and  C_16
    9  A    between atoms: C_13  and  C_17
   10  A    between atoms: C_13  and  C_19
   11  A    between atoms: C_16  and  C_23
   12  A    between atoms: C_21  and  C_22
                            x       y       z     vdW  Elec       q    Type
                         _______ _______ _______ _____ _____    ______ ____

>  <TORSDO>
F 12

$$$$
=
 OpenBabel11062416223D

 29 31  0  0  1  0  0  0  0  0999 V2000
  189.0500  176.3510  139.1490 O   0  0  0  0  0  0  0  0  0  0  0  0
  188.5900  176.5450  137.8310 C   0  0  2  0  0  3  0  0  0  0  0  0
  188.8540  175.4030  137.0780 O   0  0  0  0  0  1  0  0  0  0  0  0
  187.4650  178.1930  139.8520 C   0  0  2  0  0  3  0  0  0  0  0  0
  188.8030  177.4650  140.0100 C   0  0  2  0  0  0  0  0  0  0  0  0
  189.2930  177.7310  137.2120 C   0  0  0  0  0  2  0  0  0  0  0  0
  188.7630  178.8830  139.4150 C   0  0  1  0  0  3  0  0  0  0  0  0
  188.7620  178.9800  137.8870 C   0  0  0  0  0  2  0  0  0  0  0  0
  189.4000  177.3520  141.4270 C   0  0  1  0  0  3  0  0  0  0  0  0
  188.1630  176.7610  143.4770 C   0  0  0  0  0  2  0  0  0  0  0  0
  188.6220  176.3970  142.2820 C   0  0  0  0  0  3  0  0  0  0  0  0
  190.8910  176.9910  141.4680 C   0  0  2  0  0  3  0  0  0  0  0  0
  191.6780  177.4870  143.0370 S   0  0  0  0  0  0  0  0  0  0  0  0
  191.6780  175.7830  143.6580 C   0  0  0  0  0  1  0  0  0  0  0  0
  192.9140  177.9810  140.5890 O   0  0  0  0  0  1  0  0  0  0  0  0
  191.6930  177.4070  140.2260 C   0  0  1  0  0  3  0  0  0  0  0  0
  191.9450  176.2160  139.3160 C   0  0  0  0  0  2  0  0  0  0  0  0
  193.9580  176.0900  138.0530 O   0  0  0  0  0  0  0  0  0  0  0  0
  192.9990  175.4750  137.2290 C   0  0  0  0  0  2  0  0  0  0  0  0
  192.6700  176.6550  138.0570 C   0  0  1  0  0  3  0  0  0  0  0  0
  186.8510  179.0030  141.3690 S   0  0  0  0  0  0  0  0  0  0  0  0
  185.1690  179.0330  140.7560 C   0  0  0  0  0  0  0  0  0  0  0  0
  184.9380  179.4240  139.5570 N   0  0  0  0  0  2  0  0  0  0  0  0
  184.0440  178.6390  141.6690 C   0  0  1  0  0  3  0  0  0  0  0  0
  183.3930  177.4950  141.1960 O   0  0  0  0  0  1  0  0  0  0  0  0
  184.4930  178.4610  143.1220 C   0  0  0  0  0  2  0  0  0  0  0  0
  183.8030  179.0040  145.4620 O   0  0  0  0  0  1  0  0  0  0  0  0
  182.3480  179.3180  143.7190 O   0  0  0  0  0  0  0  0  0  0  0  0
  183.4840  178.9460  144.1120 C   0  0  0  0  0  0  0  0  0  0  0  0
  1  5  1  0  0  0  0
  2  3  1  6  0  0  0
  2  1  1  0  0  0  0
  4  5  1  0  0  0  0
  4 21  1  1  0  0  0
  5  9  1  1  0  0  0
  6  2  1  0  0  0  0
  6  8  1  0  0  0  0
  7  8  1  6  0  0  0
  7  4  1  0  0  0  0
  7  5  1  0  0  0  0
  9 12  1  0  0  0  0
  9 11  1  1  0  0  0
 11 10  2  0  0  0  0
 12 13  1  1  0  0  0
 13 14  1  0  0  0  0
 16 15  1  1  0  0  0
 16 12  1  0  0  0  0
 17 16  1  0  0  0  0
 18 20  1  0  0  0  0
 19 18  1  0  0  0  0
 19 20  1  0  0  0  0
 20 17  1  1  0  0  0
 22 21  1  0  0  0  0
 22 24  1  0  0  0  0
 23 22  2  0  0  0  0
 24 25  1  6  0  0  0
 24 26  1  0  0  0  0
 26 29  1  0  0  0  0
 28 29  2  0  0  0  0
 29 27  1  0  0  0  0
M  END
>  <MODEL>
9

>  <REMARK>
 VINA RESULT:      -5.1      2.315      4.523
  Name = 
  12 active torsions:
  status: ('A' for Active; 'I' for Inactive)
    1  A    between atoms: C_1  and  C_18
    2  A    between atoms: C_1  and  C_23
    3  A    between atoms: S_2  and  C_16
    4  A    between atoms: C_10  and  S_28
    5  A    between atoms: C_11  and  C_12
    6  A    between atoms: C_11  and  S_28
    7  A    between atoms: C_12  and  C_21
    8  A    between atoms: C_13  and  C_16
    9  A    between atoms: C_13  and  C_17
   10  A    between atoms: C_13  and  C_19
   11  A    between atoms: C_16  and  C_23
   12  A    between atoms: C_21  and  C_22
                            x       y       z     vdW  Elec       q    Type
                         _______ _______ _______ _____ _____    ______ ____

>  <TORSDO>
F 12

$$$$
