=
 OpenBabel11062413353D

 28 33  0  0  1  0  0  0  0  0999 V2000
  185.8370  178.8810  143.0150 C   0  0  0  0  0  3  0  0  0  0  0  0
  187.8440  178.4160  145.7600 C   0  0  0  0  0  2  0  0  0  0  0  0
  189.4950  177.3010  139.9920 C   0  0  0  0  0  0  0  0  0  0  0  0
  189.2360  176.2440  137.1970 C   0  0  0  0  0  2  0  0  0  0  0  0
  190.6820  178.2690  144.1750 C   0  0  0  0  0  0  0  0  0  0  0  0
  188.6810  178.1910  139.2300 C   0  0  0  0  0  0  0  0  0  0  0  0
  191.9480  177.9150  143.4730 C   0  0  0  0  0  1  0  0  0  0  0  0
  187.8190  177.3970  141.7460 C   0  0  0  0  0  0  0  0  0  0  0  0
  186.1120  179.1090  141.6580 C   0  0  0  0  0  3  0  0  0  0  0  0
  187.5680  178.7390  139.7920 N   0  0  0  0  0  0  0  0  0  0  0  0
  186.5090  177.8620  143.7060 C   0  0  0  0  0  0  0  0  0  0  0  0
  191.3070  177.2320  138.1510 C   0  0  0  0  0  2  0  0  0  0  0  0
  189.4570  176.0540  143.6920 C   0  0  2  0  0  3  0  0  0  0  0  0
  189.3120  177.6380  136.7580 C   0  0  2  0  0  3  0  0  0  0  0  0
  190.5620  176.8430  136.9320 N   0  0  2  0  0  0  0  0  0  0  0  0
  186.6120  177.9240  145.1310 N   0  0  0  0  0  2  0  0  0  0  0  0
  189.0600  176.9330  141.2820 C   0  0  0  0  0  0  0  0  0  0  0  0
  187.3430  176.9950  142.9960 C   0  0  0  0  0  0  0  0  0  0  0  0
  190.7680  176.6620  139.4690 C   0  0  0  0  0  2  0  0  0  0  0  0
  189.7010  177.2640  144.5130 N   0  0  0  0  0  0  0  0  0  0  0  0
  189.0700  178.6980  137.8670 C   0  0  0  0  0  2  0  0  0  0  0  0
  188.9570  177.3550  145.7880 C   0  0  1  0  0  3  0  0  0  0  0  0
  189.9600  176.1300  142.2210 C   0  0  0  0  0  2  0  0  0  0  0  0
  187.1410  178.3950  141.0320 C   0  0  0  0  0  0  0  0  0  0  0  0
  187.9620  175.7980  143.6470 C   0  0  0  0  0  2  0  0  0  0  0  0
  190.5030  179.4650  144.5250 O   0  0  0  0  0  0  0  0  0  0  0  0
  189.8980  177.5650  146.9680 C   0  0  0  0  0  2  0  0  0  0  0  0
  190.6410  176.4060  147.1970 O   0  0  0  0  0  1  0  0  0  0  0  0
  1 11  1  0  0  0  0
  2 22  1  0  0  0  0
  3 17  1  0  0  0  0
  5 20  1  0  0  0  0
  5 26  2  0  0  0  0
  6 10  1  0  0  0  0
  6  3  2  0  0  0  0
  7  5  1  0  0  0  0
  8 18  1  0  0  0  0
  9  1  2  0  0  0  0
 10 24  2  0  0  0  0
 11 16  1  0  0  0  0
 12 19  1  0  0  0  0
 13 23  1  6  0  0  0
 13 20  1  0  0  0  0
 14 15  1  0  0  0  0
 14  4  1  1  0  0  0
 14 21  1  0  0  0  0
 15  4  1  1  0  0  0
 15 12  1  0  0  0  0
 16  2  1  0  0  0  0
 17  8  2  0  0  0  0
 17 23  1  0  0  0  0
 18 25  1  0  0  0  0
 18 11  2  0  0  0  0
 19  3  1  0  0  0  0
 20 22  1  0  0  0  0
 21  6  1  0  0  0  0
 22 27  1  1  0  0  0
 24  9  1  0  0  0  0
 24  8  1  0  0  0  0
 25 13  1  0  0  0  0
 27 28  1  0  0  0  0
M  END
>  <MODEL>
1

>  <REMARK>
 VINA RESULT:      -7.8      0.000      0.000
  Name = 
  1 active torsions:
  status: ('A' for Active; 'I' for Inactive)
    1  A    between atoms: C_15  and  C_24
                            x       y       z     vdW  Elec       q    Type
                         _______ _______ _______ _____ _____    ______ ____

>  <TORSDO>
F 1

$$$$
=
 OpenBabel11062413353D

 28 33  0  0  1  0  0  0  0  0999 V2000
  185.5870  178.3220  138.8290 C   0  0  0  0  0  3  0  0  0  0  0  0
  186.7890  176.7170  136.0440 C   0  0  0  0  0  2  0  0  0  0  0  0
  189.9340  177.6020  141.1970 C   0  0  0  0  0  0  0  0  0  0  0  0
  191.0100  179.1130  143.5550 C   0  0  0  0  0  2  0  0  0  0  0  0
  189.3080  175.2370  137.4760 C   0  0  0  0  0  0  0  0  0  0  0  0
  188.9220  177.6840  142.2000 C   0  0  0  0  0  0  0  0  0  0  0  0
  190.6150  174.7790  138.0240 C   0  0  0  0  0  1  0  0  0  0  0  0
  188.2690  178.2980  139.5740 C   0  0  0  0  0  0  0  0  0  0  0  0
  185.9290  178.2610  140.1890 C   0  0  0  0  0  3  0  0  0  0  0  0
  187.6320  177.9310  141.8410 N   0  0  0  0  0  0  0  0  0  0  0  0
  186.5920  178.4430  137.8580 C   0  0  0  0  0  0  0  0  0  0  0  0
  191.7010  176.8150  142.9100 C   0  0  0  0  0  2  0  0  0  0  0  0
  189.9290  177.7300  137.2940 C   0  0  2  0  0  3  0  0  0  0  0  0
  190.2630  178.1690  144.3870 C   0  0  2  0  0  3  0  0  0  0  0  0
  191.6580  177.8500  143.9680 N   0  0  2  0  0  0  0  0  0  0  0  0
  186.3290  178.0290  136.5150 N   0  0  0  0  0  2  0  0  0  0  0  0
  189.5790  177.8850  139.8620 C   0  0  0  0  0  0  0  0  0  0  0  0
  187.9130  178.6410  138.2670 C   0  0  0  0  0  0  0  0  0  0  0  0
  191.3930  177.3040  141.4890 C   0  0  0  0  0  2  0  0  0  0  0  0
  189.1590  176.5380  136.8670 N   0  0  0  0  0  0  0  0  0  0  0  0
  189.1710  177.3510  143.6470 C   0  0  0  0  0  2  0  0  0  0  0  0
  188.2840  176.7080  135.6870 C   0  0  1  0  0  3  0  0  0  0  0  0
  190.5610  177.6460  138.7150 C   0  0  0  0  0  2  0  0  0  0  0  0
  187.2780  178.2020  140.5610 C   0  0  0  0  0  0  0  0  0  0  0  0
  189.0010  178.9310  137.2820 C   0  0  0  0  0  2  0  0  0  0  0  0
  188.3330  174.4390  137.4990 O   0  0  0  0  0  0  0  0  0  0  0  0
  188.5950  175.6750  134.6110 C   0  0  0  0  0  2  0  0  0  0  0  0
  187.6050  174.6920  134.5940 O   0  0  0  0  0  1  0  0  0  0  0  0
  1  9  1  0  0  0  0
  2 16  1  0  0  0  0
  3 19  1  0  0  0  0
  3  6  1  0  0  0  0
  4 15  1  0  0  0  0
  5 26  2  0  0  0  0
  5  7  1  0  0  0  0
  6 21  1  0  0  0  0
  8 17  1  0  0  0  0
  8 24  1  0  0  0  0
  9 24  2  0  0  0  0
 10  6  2  0  0  0  0
 11 18  1  0  0  0  0
 11  1  2  0  0  0  0
 13 25  1  1  0  0  0
 13 23  1  0  0  0  0
 14  4  1  6  0  0  0
 15 12  1  6  0  0  0
 15 14  1  0  0  0  0
 16 11  1  0  0  0  0
 17  3  2  0  0  0  0
 18  8  2  0  0  0  0
 19 12  1  0  0  0  0
 20 13  1  0  0  0  0
 20  5  1  0  0  0  0
 21 14  1  0  0  0  0
 22 27  1  6  0  0  0
 22  2  1  0  0  0  0
 22 20  1  0  0  0  0
 23 17  1  0  0  0  0
 24 10  1  0  0  0  0
 25 18  1  0  0  0  0
 28 27  1  0  0  0  0
M  END
>  <MODEL>
2

>  <REMARK>
 VINA RESULT:      -6.3      3.212      6.768
  Name = 
  1 active torsions:
  status: ('A' for Active; 'I' for Inactive)
    1  A    between atoms: C_15  and  C_24
                            x       y       z     vdW  Elec       q    Type
                         _______ _______ _______ _____ _____    ______ ____

>  <TORSDO>
F 1

$$$$
=
 OpenBabel11062413353D

 28 33  0  0  1  0  0  0  0  0999 V2000
  189.0560  177.7320  140.4110 C   0  0  0  0  0  3  0  0  0  0  0  0
  186.1010  177.7200  138.6650 C   0  0  0  0  0  2  0  0  0  0  0  0
  191.4690  175.8310  136.4640 C   0  0  0  0  0  0  0  0  0  0  0  0
  194.4130  175.9290  135.8930 C   0  0  0  0  0  2  0  0  0  0  0  0
  187.0210  175.6690  136.3120 C   0  0  0  0  0  0  0  0  0  0  0  0
  192.1850  175.4180  137.6280 C   0  0  0  0  0  0  0  0  0  0  0  0
  187.4880  174.9710  135.0810 C   0  0  0  0  0  1  0  0  0  0  0  0
  190.1460  177.2820  137.8900 C   0  0  0  0  0  0  0  0  0  0  0  0
  190.2400  176.9880  140.2910 C   0  0  0  0  0  3  0  0  0  0  0  0
  191.7770  175.8380  138.8580 N   0  0  0  0  0  0  0  0  0  0  0  0
  188.4670  178.3030  139.2730 C   0  0  0  0  0  0  0  0  0  0  0  0
  192.8420  174.2530  134.9460 C   0  0  0  0  0  2  0  0  0  0  0  0
  188.2180  177.9030  135.8470 C   0  0  2  0  0  3  0  0  0  0  0  0
  194.5180  174.7100  136.6960 C   0  0  2  0  0  3  0  0  0  0  0  0
  194.2480  174.6160  135.2330 N   0  0  2  0  0  0  0  0  0  0  0  0
  187.0740  178.6260  139.2860 N   0  0  0  0  0  2  0  0  0  0  0  0
  190.4140  176.7530  136.6180 C   0  0  0  0  0  0  0  0  0  0  0  0
  189.1450  178.2420  138.0540 C   0  0  0  0  0  0  0  0  0  0  0  0
  191.8250  175.3960  135.0540 C   0  0  0  0  0  2  0  0  0  0  0  0
  187.1260  177.1030  136.4530 N   0  0  0  0  0  0  0  0  0  0  0  0
  193.2910  174.3970  137.5930 C   0  0  0  0  0  2  0  0  0  0  0  0
  186.0550  177.8610  137.1340 C   0  0  1  0  0  3  0  0  0  0  0  0
  189.4930  177.1030  135.4500 C   0  0  0  0  0  2  0  0  0  0  0  0
  190.7620  176.7230  139.0180 C   0  0  0  0  0  0  0  0  0  0  0  0
  188.6430  178.9660  136.8430 C   0  0  0  0  0  2  0  0  0  0  0  0
  186.4730  174.9880  137.2190 O   0  0  0  0  0  0  0  0  0  0  0  0
  184.6820  177.5030  136.5820 C   0  0  0  0  0  2  0  0  0  0  0  0
  183.8420  177.0960  137.6190 O   0  0  0  0  0  1  0  0  0  0  0  0
  2 16  1  0  0  0  0
  3 17  2  0  0  0  0
  3  6  1  0  0  0  0
  5 20  1  0  0  0  0
  5 26  2  0  0  0  0
  6 10  2  0  0  0  0
  7  5  1  0  0  0  0
  8 18  2  0  0  0  0
  8 24  1  0  0  0  0
  9  1  1  0  0  0  0
 10 24  1  0  0  0  0
 11 16  1  0  0  0  0
 11  1  2  0  0  0  0
 12 19  1  0  0  0  0
 13 23  1  1  0  0  0
 13 20  1  0  0  0  0
 13 25  1  0  0  0  0
 14  4  1  6  0  0  0
 14 21  1  0  0  0  0
 15 12  1  1  0  0  0
 15  4  1  0  0  0  0
 15 14  1  0  0  0  0
 17  8  1  0  0  0  0
 18 11  1  0  0  0  0
 19  3  1  0  0  0  0
 20 22  1  0  0  0  0
 21  6  1  0  0  0  0
 22 27  1  6  0  0  0
 22  2  1  0  0  0  0
 23 17  1  0  0  0  0
 24  9  2  0  0  0  0
 25 18  1  0  0  0  0
 27 28  1  0  0  0  0
M  END
>  <MODEL>
3

>  <REMARK>
 VINA RESULT:      -6.2      4.334      6.946
  Name = 
  1 active torsions:
  status: ('A' for Active; 'I' for Inactive)
    1  A    between atoms: C_15  and  C_24
                            x       y       z     vdW  Elec       q    Type
                         _______ _______ _______ _____ _____    ______ ____

>  <TORSDO>
F 1

$$$$
=
 OpenBabel11062413353D

 28 33  0  0  1  0  0  0  0  0999 V2000
  188.8500  172.7560  136.4290 C   0  0  0  0  0  3  0  0  0  0  0  0
  191.5890  174.5800  137.4030 C   0  0  0  0  0  2  0  0  0  0  0  0
  185.8610  176.6780  137.2630 C   0  0  0  0  0  0  0  0  0  0  0  0
  183.1220  177.1670  136.1420 C   0  0  0  0  0  2  0  0  0  0  0  0
  189.9780  176.9530  138.9390 C   0  0  0  0  0  0  0  0  0  0  0  0
  185.0680  175.5050  137.4400 C   0  0  0  0  0  0  0  0  0  0  0  0
  189.2780  178.1860  139.3970 C   0  0  0  0  0  1  0  0  0  0  0  0
  187.6280  175.2550  136.4000 C   0  0  0  0  0  0  0  0  0  0  0  0
  187.4800  172.8610  136.7160 C   0  0  0  0  0  3  0  0  0  0  0  0
  185.6160  174.2770  137.2240 N   0  0  0  0  0  0  0  0  0  0  0  0
  189.5800  173.8950  136.0600 C   0  0  0  0  0  0  0  0  0  0  0  0
  184.0030  178.1940  138.2260 C   0  0  0  0  0  2  0  0  0  0  0  0
  189.6160  177.3350  136.4170 C   0  0  2  0  0  3  0  0  0  0  0  0
  182.6170  176.3900  137.2740 C   0  0  2  0  0  3  0  0  0  0  0  0
  182.8130  177.8610  137.4100 N   0  0  2  0  0  0  0  0  0  0  0  0
  190.9990  173.9130  136.2360 N   0  0  0  0  0  2  0  0  0  0  0  0
  187.1720  176.5320  136.7640 C   0  0  0  0  0  0  0  0  0  0  0  0
  188.9010  175.0970  135.8480 C   0  0  0  0  0  0  0  0  0  0  0  0
  185.3530  178.0870  137.5060 C   0  0  0  0  0  2  0  0  0  0  0  0
  190.3760  176.7780  137.5620 N   0  0  0  0  0  0  0  0  0  0  0  0
  183.6770  175.5330  138.0170 C   0  0  0  0  0  2  0  0  0  0  0  0
  191.6540  176.1080  137.2390 C   0  0  1  0  0  3  0  0  0  0  0  0
  188.1360  177.7160  136.7170 C   0  0  0  0  0  2  0  0  0  0  0  0
  186.8760  174.1240  136.7470 C   0  0  0  0  0  0  0  0  0  0  0  0
  189.6010  176.3040  135.3040 C   0  0  0  0  0  2  0  0  0  0  0  0
  190.2740  176.0770  139.7950 O   0  0  0  0  0  0  0  0  0  0  0  0
  192.8100  176.7050  138.0310 C   0  0  0  0  0  2  0  0  0  0  0  0
  193.9680  176.7110  137.2520 O   0  0  0  0  0  1  0  0  0  0  0  0
  1  9  1  0  0  0  0
  3  6  1  0  0  0  0
  3 19  1  0  0  0  0
  5  7  1  0  0  0  0
  5 26  2  0  0  0  0
  6 21  1  0  0  0  0
  8 24  1  0  0  0  0
  8 17  1  0  0  0  0
  9 24  2  0  0  0  0
 10  6  2  0  0  0  0
 11 16  1  0  0  0  0
 11  1  2  0  0  0  0
 13 25  1  6  0  0  0
 13 23  1  0  0  0  0
 13 20  1  0  0  0  0
 14  4  1  6  0  0  0
 14 15  1  0  0  0  0
 14 21  1  0  0  0  0
 15  4  1  6  0  0  0
 15 12  1  0  0  0  0
 16  2  1  0  0  0  0
 17  3  2  0  0  0  0
 18 11  1  0  0  0  0
 18  8  2  0  0  0  0
 19 12  1  0  0  0  0
 20  5  1  0  0  0  0
 22  2  1  0  0  0  0
 22 20  1  0  0  0  0
 22 27  1  1  0  0  0
 23 17  1  0  0  0  0
 24 10  1  0  0  0  0
 25 18  1  0  0  0  0
 28 27  1  0  0  0  0
M  END
>  <MODEL>
4

>  <REMARK>
 VINA RESULT:      -5.7      4.610      7.403
  Name = 
  1 active torsions:
  status: ('A' for Active; 'I' for Inactive)
    1  A    between atoms: C_15  and  C_24
                            x       y       z     vdW  Elec       q    Type
                         _______ _______ _______ _____ _____    ______ ____

>  <TORSDO>
F 1

$$$$
=
 OpenBabel11062413353D

 28 33  0  0  1  0  0  0  0  0999 V2000
  183.6740  179.0850  142.0720 C   0  0  0  0  0  3  0  0  0  0  0  0
  180.9270  177.5530  140.7000 C   0  0  0  0  0  2  0  0  0  0  0  0
  186.4070  177.9330  138.0450 C   0  0  0  0  0  0  0  0  0  0  0  0
  188.9480  179.2330  137.1190 C   0  0  0  0  0  2  0  0  0  0  0  0
  182.5050  175.8230  138.4410 C   0  0  0  0  0  0  0  0  0  0  0  0
  187.3100  178.0310  139.1460 C   0  0  0  0  0  0  0  0  0  0  0  0
  183.1500  175.2450  137.2280 C   0  0  0  0  0  1  0  0  0  0  0  0
  184.6750  178.8310  139.4880 C   0  0  0  0  0  0  0  0  0  0  0  0
  185.0550  178.9260  141.8760 C   0  0  0  0  0  3  0  0  0  0  0  0
  186.8420  178.3870  140.3750 N   0  0  0  0  0  0  0  0  0  0  0  0
  182.8150  179.1870  140.9680 C   0  0  0  0  0  0  0  0  0  0  0  0
  188.2340  176.9310  136.5160 C   0  0  0  0  0  2  0  0  0  0  0  0
  182.5380  178.2730  137.6440 C   0  0  2  0  0  3  0  0  0  0  0  0
  189.6430  178.3000  138.0060 C   0  0  2  0  0  3  0  0  0  0  0  0
  189.3440  177.9070  136.6000 N   0  0  2  0  0  0  0  0  0  0  0  0
  181.4300  178.8660  141.1190 N   0  0  0  0  0  2  0  0  0  0  0  0
  185.0640  178.3120  138.2430 C   0  0  0  0  0  0  0  0  0  0  0  0
  183.3630  179.2690  139.6860 C   0  0  0  0  0  0  0  0  0  0  0  0
  186.8220  177.5160  136.6450 C   0  0  0  0  0  2  0  0  0  0  0  0
  181.9660  177.1630  138.4430 N   0  0  0  0  0  0  0  0  0  0  0  0
  188.7510  177.6020  139.0680 C   0  0  0  0  0  2  0  0  0  0  0  0
  180.7180  177.4580  139.1790 C   0  0  1  0  0  3  0  0  0  0  0  0
  184.0060  178.0670  137.1670 C   0  0  0  0  0  2  0  0  0  0  0  0
  185.5520  178.7520  140.5780 C   0  0  0  0  0  0  0  0  0  0  0  0
  182.5090  179.5350  138.4860 C   0  0  0  0  0  2  0  0  0  0  0  0
  182.3840  175.0960  139.4620 O   0  0  0  0  0  0  0  0  0  0  0  0
  179.6160  176.4660  138.8280 C   0  0  0  0  0  2  0  0  0  0  0  0
  179.1210  175.8730  139.9900 O   0  0  0  0  0  1  0  0  0  0  0  0
  2 16  1  0  0  0  0
  3 17  2  0  0  0  0
  3  6  1  0  0  0  0
  5 20  1  0  0  0  0
  5 26  2  0  0  0  0
  6 10  2  0  0  0  0
  7  5  1  0  0  0  0
  8 18  2  0  0  0  0
  8 24  1  0  0  0  0
  9  1  1  0  0  0  0
 10 24  1  0  0  0  0
 11 16  1  0  0  0  0
 11  1  2  0  0  0  0
 12 19  1  0  0  0  0
 13 23  1  1  0  0  0
 13 20  1  0  0  0  0
 13 25  1  0  0  0  0
 14  4  1  6  0  0  0
 14 21  1  0  0  0  0
 15 12  1  1  0  0  0
 15  4  1  0  0  0  0
 15 14  1  0  0  0  0
 17  8  1  0  0  0  0
 18 11  1  0  0  0  0
 19  3  1  0  0  0  0
 20 22  1  0  0  0  0
 21  6  1  0  0  0  0
 22 27  1  1  0  0  0
 22  2  1  0  0  0  0
 23 17  1  0  0  0  0
 24  9  2  0  0  0  0
 25 18  1  0  0  0  0
 27 28  1  0  0  0  0
M  END
>  <MODEL>
5

>  <REMARK>
 VINA RESULT:      -5.7      4.986      7.139
  Name = 
  1 active torsions:
  status: ('A' for Active; 'I' for Inactive)
    1  A    between atoms: C_15  and  C_24
                            x       y       z     vdW  Elec       q    Type
                         _______ _______ _______ _____ _____    ______ ____

>  <TORSDO>
F 1

$$$$
=
 OpenBabel11062413353D

 28 33  0  0  1  0  0  0  0  0999 V2000
  185.9950  177.9280  137.7960 C   0  0  0  0  0  3  0  0  0  0  0  0
  184.1490  175.2700  136.6550 C   0  0  0  0  0  2  0  0  0  0  0  0
  190.2300  175.3490  137.1400 C   0  0  0  0  0  0  0  0  0  0  0  0
  193.0130  176.4340  136.8580 C   0  0  0  0  0  2  0  0  0  0  0  0
  186.4520  172.9960  136.9850 C   0  0  0  0  0  0  0  0  0  0  0  0
  190.4730  176.2890  138.1860 C   0  0  0  0  0  0  0  0  0  0  0  0
  187.5500  171.9970  136.8530 C   0  0  0  0  0  1  0  0  0  0  0  0
  188.1130  176.4650  136.7370 C   0  0  0  0  0  0  0  0  0  0  0  0
  187.2680  178.0270  138.3810 C   0  0  0  0  0  3  0  0  0  0  0  0
  189.4980  177.1690  138.5450 N   0  0  0  0  0  0  0  0  0  0  0  0
  185.8120  177.1520  136.6420 C   0  0  0  0  0  0  0  0  0  0  0  0
  192.4610  174.1260  137.5940 C   0  0  0  0  0  2  0  0  0  0  0  0
  187.1260  174.4330  134.9560 C   0  0  2  0  0  3  0  0  0  0  0  0
  193.0780  176.4010  138.3190 C   0  0  2  0  0  3  0  0  0  0  0  0
  193.4770  175.2010  137.5290 N   0  0  2  0  0  0  0  0  0  0  0  0
  184.5090  176.6540  136.3260 N   0  0  0  0  0  2  0  0  0  0  0  0
  189.0120  175.4310  136.4350 C   0  0  0  0  0  0  0  0  0  0  0  0
  186.9280  176.5990  136.0100 C   0  0  0  0  0  0  0  0  0  0  0  0
  191.2390  174.3100  136.6850 C   0  0  0  0  0  2  0  0  0  0  0  0
  186.1230  173.9020  135.9090 N   0  0  0  0  0  0  0  0  0  0  0  0
  191.7120  176.2640  139.0420 C   0  0  0  0  0  2  0  0  0  0  0  0
  184.7120  174.2570  135.6450 C   0  0  1  0  0  3  0  0  0  0  0  0
  188.6070  174.3540  135.4280 C   0  0  0  0  0  2  0  0  0  0  0  0
  188.3220  177.2550  137.8760 C   0  0  0  0  0  0  0  0  0  0  0  0
  186.8120  175.8950  134.6940 C   0  0  0  0  0  2  0  0  0  0  0  0
  185.7670  173.0010  138.0420 O   0  0  0  0  0  0  0  0  0  0  0  0
  183.8340  173.0150  135.5520 C   0  0  0  0  0  2  0  0  0  0  0  0
  182.7930  173.0960  136.4770 O   0  0  0  0  0  1  0  0  0  0  0  0
  1  9  1  0  0  0  0
  3  6  1  0  0  0  0
  5 26  2  0  0  0  0
  6 10  2  0  0  0  0
  6 21  1  0  0  0  0
  7  5  1  0  0  0  0
  8 24  1  0  0  0  0
 11  1  2  0  0  0  0
 13 25  1  1  0  0  0
 13 23  1  0  0  0  0
 13 20  1  0  0  0  0
 14  4  1  6  0  0  0
 14 21  1  0  0  0  0
 15  4  1  6  0  0  0
 15 12  1  0  0  0  0
 15 14  1  0  0  0  0
 16 11  1  0  0  0  0
 16  2  1  0  0  0  0
 17  8  1  0  0  0  0
 17  3  2  0  0  0  0
 18 11  1  0  0  0  0
 18  8  2  0  0  0  0
 19  3  1  0  0  0  0
 19 12  1  0  0  0  0
 20  5  1  0  0  0  0
 22 27  1  1  0  0  0
 22 20  1  0  0  0  0
 22  2  1  0  0  0  0
 23 17  1  0  0  0  0
 24  9  2  0  0  0  0
 24 10  1  0  0  0  0
 25 18  1  0  0  0  0
 27 28  1  0  0  0  0
M  END
>  <MODEL>
6

>  <REMARK>
 VINA RESULT:      -5.4      5.231      7.630
  Name = 
  1 active torsions:
  status: ('A' for Active; 'I' for Inactive)
    1  A    between atoms: C_15  and  C_24
                            x       y       z     vdW  Elec       q    Type
                         _______ _______ _______ _____ _____    ______ ____

>  <TORSDO>
F 1

$$$$
=
 OpenBabel11062413353D

 28 33  0  0  1  0  0  0  0  0999 V2000
  186.8530  173.3410  136.4420 C   0  0  0  0  0  3  0  0  0  0  0  0
  189.9660  174.6870  136.9670 C   0  0  0  0  0  2  0  0  0  0  0  0
  184.6900  177.5460  138.0710 C   0  0  0  0  0  0  0  0  0  0  0  0
  181.8950  178.4960  137.5370 C   0  0  0  0  0  2  0  0  0  0  0  0
  189.0400  177.1160  138.9240 C   0  0  0  0  0  0  0  0  0  0  0  0
  183.7770  176.4810  138.3310 C   0  0  0  0  0  0  0  0  0  0  0  0
  188.6290  178.3890  139.5810 C   0  0  0  0  0  1  0  0  0  0  0  0
  186.0340  175.9770  136.7980 C   0  0  0  0  0  0  0  0  0  0  0  0
  185.5910  173.6060  136.9960 C   0  0  0  0  0  3  0  0  0  0  0  0
  184.0860  175.2130  137.9400 N   0  0  0  0  0  0  0  0  0  0  0  0
  187.6640  174.3990  136.0050 C   0  0  0  0  0  0  0  0  0  0  0  0
  183.2890  179.2110  139.4650 C   0  0  0  0  0  2  0  0  0  0  0  0
  188.2790  177.7580  136.5480 C   0  0  2  0  0  3  0  0  0  0  0  0
  181.4980  177.7000  138.6980 C   0  0  2  0  0  3  0  0  0  0  0  0
  181.9330  179.1150  138.8790 N   0  0  2  0  0  0  0  0  0  0  0  0
  189.0780  174.2090  135.9010 N   0  0  0  0  0  2  0  0  0  0  0  0
  185.8490  177.2670  137.3180 C   0  0  0  0  0  0  0  0  0  0  0  0
  187.1450  175.6950  136.0000 C   0  0  0  0  0  0  0  0  0  0  0  0
  184.4520  178.9850  138.4910 C   0  0  0  0  0  2  0  0  0  0  0  0
  189.1450  177.0070  137.4880 N   0  0  0  0  0  0  0  0  0  0  0  0
  182.5360  176.6470  139.1680 C   0  0  0  0  0  2  0  0  0  0  0  0
  190.2270  176.2000  136.8840 C   0  0  1  0  0  3  0  0  0  0  0  0
  186.9540  178.3100  137.1530 C   0  0  0  0  0  2  0  0  0  0  0  0
  185.1990  174.9320  137.2180 C   0  0  0  0  0  0  0  0  0  0  0  0
  187.9040  176.8390  135.4010 C   0  0  0  0  0  2  0  0  0  0  0  0
  189.3550  176.1380  139.6530 O   0  0  0  0  0  0  0  0  0  0  0  0
  191.5860  176.5650  137.4670 C   0  0  0  0  0  2  0  0  0  0  0  0
  192.2120  175.4230  137.9690 O   0  0  0  0  0  1  0  0  0  0  0  0
  1  9  1  0  0  0  0
  3  6  1  0  0  0  0
  3 19  1  0  0  0  0
  5  7  1  0  0  0  0
  5 26  2  0  0  0  0
  6 21  1  0  0  0  0
  8 24  1  0  0  0  0
  8 17  1  0  0  0  0
  9 24  2  0  0  0  0
 10  6  2  0  0  0  0
 11  1  2  0  0  0  0
 13 25  1  6  0  0  0
 13 23  1  0  0  0  0
 13 20  1  0  0  0  0
 14  4  1  6  0  0  0
 14 15  1  0  0  0  0
 14 21  1  0  0  0  0
 15  4  1  6  0  0  0
 15 12  1  0  0  0  0
 16 11  1  0  0  0  0
 16  2  1  0  0  0  0
 17  3  2  0  0  0  0
 18 11  1  0  0  0  0
 18  8  2  0  0  0  0
 19 12  1  0  0  0  0
 20  5  1  0  0  0  0
 22  2  1  0  0  0  0
 22 27  1  1  0  0  0
 22 20  1  0  0  0  0
 23 17  1  0  0  0  0
 24 10  1  0  0  0  0
 25 18  1  0  0  0  0
 27 28  1  0  0  0  0
M  END
>  <MODEL>
7

>  <REMARK>
 VINA RESULT:      -5.2      4.477      7.476
  Name = 
  1 active torsions:
  status: ('A' for Active; 'I' for Inactive)
    1  A    between atoms: C_15  and  C_24
                            x       y       z     vdW  Elec       q    Type
                         _______ _______ _______ _____ _____    ______ ____

>  <TORSDO>
F 1

$$$$
=
 OpenBabel11062413353D

 28 33  0  0  1  0  0  0  0  0999 V2000
  179.3970  173.7280  139.1850 C   0  0  0  0  0  3  0  0  0  0  0  0
  180.5080  171.5970  136.7360 C   0  0  0  0  0  2  0  0  0  0  0  0
  183.1880  176.8590  138.2680 C   0  0  0  0  0  0  0  0  0  0  0  0
  183.3670  179.7740  138.9570 C   0  0  0  0  0  2  0  0  0  0  0  0
  183.5240  172.7920  136.4860 C   0  0  0  0  0  0  0  0  0  0  0  0
  182.8210  177.0390  139.6350 C   0  0  0  0  0  0  0  0  0  0  0  0
  184.7990  173.4830  136.1440 C   0  0  0  0  0  1  0  0  0  0  0  0
  181.2110  175.4760  138.0030 C   0  0  0  0  0  0  0  0  0  0  0  0
  180.0390  174.6980  139.9720 C   0  0  0  0  0  3  0  0  0  0  0  0
  181.7710  176.3430  140.1520 N   0  0  0  0  0  0  0  0  0  0  0  0
  179.6170  173.6900  137.8010 C   0  0  0  0  0  0  0  0  0  0  0  0
  185.3200  178.2910  138.5540 C   0  0  0  0  0  2  0  0  0  0  0  0
  181.9570  174.5210  135.3940 C   0  0  2  0  0  3  0  0  0  0  0  0
  183.8800  179.3430  140.2580 C   0  0  2  0  0  3  0  0  0  0  0  0
  184.8210  179.5640  139.1230 N   0  0  2  0  0  0  0  0  0  0  0  0
  179.3840  172.4750  137.0820 N   0  0  0  0  0  2  0  0  0  0  0  0
  182.3780  176.0360  137.4600 C   0  0  0  0  0  0  0  0  0  0  0  0
  180.3640  174.7060  137.2020 C   0  0  0  0  0  0  0  0  0  0  0  0
  184.3580  177.5640  137.6060 C   0  0  0  0  0  2  0  0  0  0  0  0
  182.2780  173.1460  135.8460 N   0  0  0  0  0  0  0  0  0  0  0  0
  183.6390  177.8500  140.6060 C   0  0  0  0  0  2  0  0  0  0  0  0
  181.2930  172.0960  135.5110 C   0  0  1  0  0  3  0  0  0  0  0  0
  182.8050  175.6550  136.0420 C   0  0  0  0  0  2  0  0  0  0  0  0
  180.9860  175.5460  139.3850 C   0  0  0  0  0  0  0  0  0  0  0  0
  180.5010  174.8040  135.7150 C   0  0  0  0  0  2  0  0  0  0  0  0
  183.5580  171.8400  137.3100 O   0  0  0  0  0  0  0  0  0  0  0  0
  181.9420  170.9430  134.7560 C   0  0  0  0  0  2  0  0  0  0  0  0
  181.5840  169.7280  135.3410 O   0  0  0  0  0  1  0  0  0  0  0  0
  1  9  1  0  0  0  0
  2 16  1  0  0  0  0
  3  6  1  0  0  0  0
  4 15  1  0  0  0  0
  5 26  2  0  0  0  0
  6 10  2  0  0  0  0
  6 21  1  0  0  0  0
  7  5  1  0  0  0  0
  8 24  1  0  0  0  0
 11  1  2  0  0  0  0
 13 25  1  1  0  0  0
 13 20  1  0  0  0  0
 13 23  1  0  0  0  0
 14  4  1  6  0  0  0
 14 21  1  0  0  0  0
 15 12  1  6  0  0  0
 15 14  1  0  0  0  0
 16 11  1  0  0  0  0
 17  8  1  0  0  0  0
 17  3  2  0  0  0  0
 18 11  1  0  0  0  0
 18  8  2  0  0  0  0
 19  3  1  0  0  0  0
 19 12  1  0  0  0  0
 20  5  1  0  0  0  0
 22 27  1  1  0  0  0
 22 20  1  0  0  0  0
 22  2  1  0  0  0  0
 23 17  1  0  0  0  0
 24  9  2  0  0  0  0
 24 10  1  0  0  0  0
 25 18  1  0  0  0  0
 27 28  1  0  0  0  0
M  END
>  <MODEL>
8

>  <REMARK>
 VINA RESULT:      -5.1      7.831     10.051
  Name = 
  1 active torsions:
  status: ('A' for Active; 'I' for Inactive)
    1  A    between atoms: C_15  and  C_24
                            x       y       z     vdW  Elec       q    Type
                         _______ _______ _______ _____ _____    ______ ____

>  <TORSDO>
F 1

$$$$
=
 OpenBabel11062413353D

 28 33  0  0  1  0  0  0  0  0999 V2000
  180.8080  175.2190  138.5690 C   0  0  0  0  0  3  0  0  0  0  0  0
  179.5710  178.0560  140.0520 C   0  0  0  0  0  2  0  0  0  0  0  0
  185.1380  177.5310  137.6100 C   0  0  0  0  0  0  0  0  0  0  0  0
  187.8020  176.2730  137.0440 C   0  0  0  0  0  2  0  0  0  0  0  0
  181.7410  180.1440  138.8200 C   0  0  0  0  0  0  0  0  0  0  0  0
  184.9760  176.5220  136.6140 C   0  0  0  0  0  0  0  0  0  0  0  0
  182.8660  181.0710  138.5110 C   0  0  0  0  0  1  0  0  0  0  0  0
  183.2230  176.5870  138.7650 C   0  0  0  0  0  0  0  0  0  0  0  0
  181.8080  175.0010  137.6080 C   0  0  0  0  0  3  0  0  0  0  0  0
  183.8960  175.6930  136.6600 N   0  0  0  0  0  0  0  0  0  0  0  0
  181.0540  176.0670  139.6580 C   0  0  0  0  0  0  0  0  0  0  0  0
  187.1470  178.5710  136.3620 C   0  0  0  0  0  2  0  0  0  0  0  0
  182.9800  178.7750  140.6160 C   0  0  2  0  0  3  0  0  0  0  0  0
  187.3810  176.2230  135.6440 C   0  0  2  0  0  3  0  0  0  0  0  0
  188.0750  177.4340  136.1690 N   0  0  2  0  0  0  0  0  0  0  0  0
  179.9540  176.6700  140.3470 N   0  0  0  0  0  2  0  0  0  0  0  0
  184.2200  177.5720  138.6790 C   0  0  0  0  0  0  0  0  0  0  0  0
  182.3410  176.5740  139.8470 C   0  0  0  0  0  0  0  0  0  0  0  0
  186.2880  178.5210  137.6310 C   0  0  0  0  0  2  0  0  0  0  0  0
  181.7440  179.3220  140.0080 N   0  0  0  0  0  0  0  0  0  0  0  0
  185.8600  176.4150  135.4000 C   0  0  0  0  0  2  0  0  0  0  0  0
  180.4850  179.0810  140.7440 C   0  0  1  0  0  3  0  0  0  0  0  0
  184.2230  178.7260  139.6800 C   0  0  0  0  0  2  0  0  0  0  0  0
  183.0050  175.7250  137.6810 C   0  0  0  0  0  0  0  0  0  0  0  0
  182.7010  177.3550  141.0730 C   0  0  0  0  0  2  0  0  0  0  0  0
  180.7450  180.1300  138.0490 O   0  0  0  0  0  0  0  0  0  0  0  0
  179.7470  180.3830  141.0290 C   0  0  0  0  0  2  0  0  0  0  0  0
  179.9440  180.7630  142.3570 O   0  0  0  0  0  1  0  0  0  0  0  0
  1 11  1  0  0  0  0
  2 16  1  0  0  0  0
  2 22  1  0  0  0  0
  3 19  1  0  0  0  0
  3 17  1  0  0  0  0
  5 20  1  0  0  0  0
  6 10  1  0  0  0  0
  6  3  2  0  0  0  0
  7  5  1  0  0  0  0
  8 18  1  0  0  0  0
  9 24  1  0  0  0  0
  9  1  2  0  0  0  0
 10 24  2  0  0  0  0
 11 18  2  0  0  0  0
 11 16  1  0  0  0  0
 12 19  1  0  0  0  0
 13 23  1  6  0  0  0
 13 25  1  0  0  0  0
 14 21  1  1  0  0  0
 14 15  1  0  0  0  0
 14  4  1  0  0  0  0
 15 12  1  1  0  0  0
 15  4  1  0  0  0  0
 17  8  2  0  0  0  0
 17 23  1  0  0  0  0
 18 25  1  0  0  0  0
 20 13  1  0  0  0  0
 20 22  1  0  0  0  0
 21  6  1  0  0  0  0
 22 27  1  6  0  0  0
 24  8  1  0  0  0  0
 26  5  2  0  0  0  0
 27 28  1  0  0  0  0
M  END
>  <MODEL>
9

>  <REMARK>
 VINA RESULT:      -5.0      6.082      7.627
  Name = 
  1 active torsions:
  status: ('A' for Active; 'I' for Inactive)
    1  A    between atoms: C_15  and  C_24
                            x       y       z     vdW  Elec       q    Type
                         _______ _______ _______ _____ _____    ______ ____

>  <TORSDO>
F 1

$$$$
