=
 OpenBabel11062416473D

 28 31  0  0  1  0  0  0  0  0999 V2000
  190.5530  177.2880  144.4490 C   0  0  2  0  0  3  0  0  0  0  0  0
  191.7120  176.7260  145.2510 C   0  0  0  0  0  1  0  0  0  0  0  0
  191.0830  177.9080  143.1600 C   0  0  1  0  0  3  0  0  0  0  0  0
  190.0790  175.8760  142.1380 O   0  0  0  0  0  1  0  0  0  0  0  0
  190.7970  177.0680  141.9670 C   0  0  1  0  0  0  0  0  0  0  0  0
  190.0120  178.1890  142.2740 O   0  0  0  0  0  0  0  0  0  0  0  0
  191.5990  177.2700  140.6930 C   0  0  0  0  0  2  0  0  0  0  0  0
  190.8070  175.4240  138.6690 O   0  0  0  0  0  0  0  0  0  0  0  0
  190.6980  177.5650  139.5930 N   0  0  0  0  0  2  0  0  0  0  0  0
  190.3480  176.5960  138.6040 C   0  0  0  0  0  0  0  0  0  0  0  0
  188.1190  176.1380  137.6500 C   0  0  0  0  0  2  0  0  0  0  0  0
  187.2260  178.3310  137.0520 C   0  0  2  0  0  3  0  0  0  0  0  0
  186.3340  178.7270  138.0520 O   0  0  0  0  0  1  0  0  0  0  0  0
  189.3890  176.9470  137.5140 C   0  0  1  0  0  3  0  0  0  0  0  0
  187.0870  176.8390  136.7990 C   0  0  0  0  0  2  0  0  0  0  0  0
  188.9350  178.7080  137.5640 S   0  0  0  0  0  0  0  0  0  0  0  0
  189.7990  178.3320  145.2710 C   0  0  0  0  0  2  0  0  0  0  0  0
  189.1160  177.7230  146.4940 C   0  0  0  0  0  2  0  0  0  0  0  0
  186.7660  177.2400  147.2290 C   0  0  0  0  0  2  0  0  0  0  0  0
  186.8150  176.9900  143.4570 C   0  0  0  0  0  3  0  0  0  0  0  0
  185.5220  178.5860  145.4510 C   0  0  0  0  0  3  0  0  0  0  0  0
  187.7230  178.3130  146.7010 C   0  0  2  0  0  3  0  0  0  0  0  0
  186.6730  177.6920  145.7910 C   0  0  1  0  0  0  0  0  0  0  0  0
  187.0680  176.6900  144.7390 C   0  0  0  0  0  3  0  0  0  0  0  0
  185.2810  178.8670  144.1610 C   0  0  0  0  0  0  0  0  0  0  0  0
  186.1880  178.3190  143.0780 C   0  0  0  0  0  2  0  0  0  0  0  0
  184.2190  179.6950  143.7800 O   0  0  0  0  0  0  0  0  0  0  0  0
  182.8590  179.2840  143.8280 C   0  0  0  0  0  1  0  0  0  0  0  0
  1  2  1  1  0  0  0
  1 17  1  0  0  0  0
  3  1  1  1  0  0  0
  5  4  1  1  0  0  0
  5  6  1  0  0  0  0
  5  3  1  0  0  0  0
  6  3  1  0  0  0  0
  7  5  1  0  0  0  0
  9  7  1  0  0  0  0
 10  8  2  0  0  0  0
 10  9  1  0  0  0  0
 12 16  1  0  0  0  0
 12 13  1  1  0  0  0
 14 16  1  0  0  0  0
 14 11  1  0  0  0  0
 14 10  1  1  0  0  0
 15 12  1  0  0  0  0
 15 11  1  0  0  0  0
 17 18  1  0  0  0  0
 20 24  2  0  0  0  0
 21 23  1  0  0  0  0
 22 18  1  6  0  0  0
 22 19  1  0  0  0  0
 23 24  1  6  0  0  0
 23 22  1  0  0  0  0
 23 19  1  0  0  0  0
 25 21  2  0  0  0  0
 26 20  1  0  0  0  0
 26 25  1  0  0  0  0
 27 28  1  0  0  0  0
 27 25  1  0  0  0  0
M  END
>  <MODEL>
1

>  <REMARK>
 VINA RESULT:      -7.6      0.000      0.000
  Name = 
  8 active torsions:
  status: ('A' for Active; 'I' for Inactive)
    1  A    between atoms: O_2  and  C_22
    2  A    between atoms: C_5  and  C_10
    3  A    between atoms: C_5  and  C_14
    4  A    between atoms: C_8  and  C_19
    5  A    between atoms: C_8  and  N_20
    6  A    between atoms: C_9  and  C_13
    7  A    between atoms: C_13  and  C_14
    8  A    between atoms: C_23  and  C_27
                            x       y       z     vdW  Elec       q    Type
                         _______ _______ _______ _____ _____    ______ ____

>  <TORSDO>
F 8

$$$$
=
 OpenBabel11062416473D

 28 31  0  0  1  0  0  0  0  0999 V2000
  188.9600  177.0390  144.0960 C   0  0  2  0  0  3  0  0  0  0  0  0
  189.0820  178.0310  145.2380 C   0  0  0  0  0  1  0  0  0  0  0  0
  189.4800  177.6780  142.8120 C   0  0  1  0  0  3  0  0  0  0  0  0
  190.4740  175.4250  142.4640 O   0  0  0  0  0  1  0  0  0  0  0  0
  190.3020  176.7380  142.0040 C   0  0  1  0  0  0  0  0  0  0  0  0
  188.9620  176.9990  141.6800 O   0  0  0  0  0  0  0  0  0  0  0  0
  191.2540  177.2820  140.9530 C   0  0  0  0  0  2  0  0  0  0  0  0
  190.8280  175.4930  138.7740 O   0  0  0  0  0  0  0  0  0  0  0  0
  190.5140  177.5940  139.7420 N   0  0  0  0  0  2  0  0  0  0  0  0
  190.3460  176.6540  138.6810 C   0  0  0  0  0  0  0  0  0  0  0  0
  188.2790  176.1950  137.4120 C   0  0  0  0  0  2  0  0  0  0  0  0
  187.4530  178.3920  136.7370 C   0  0  2  0  0  3  0  0  0  0  0  0
  186.4230  178.7580  137.6090 O   0  0  0  0  0  1  0  0  0  0  0  0
  189.5460  177.0190  137.4740 C   0  0  1  0  0  3  0  0  0  0  0  0
  187.3690  176.9050  136.4390 C   0  0  0  0  0  2  0  0  0  0  0  0
  189.0680  178.7730  137.4930 S   0  0  0  0  0  0  0  0  0  0  0  0
  187.5040  176.6080  143.9240 C   0  0  0  0  0  2  0  0  0  0  0  0
  186.5410  177.7920  143.9700 C   0  0  0  0  0  2  0  0  0  0  0  0
  185.9690  179.3000  142.0470 C   0  0  0  0  0  2  0  0  0  0  0  0
  183.1430  179.5770  144.5450 C   0  0  0  0  0  3  0  0  0  0  0  0
  183.4890  178.7270  141.8330 C   0  0  0  0  0  3  0  0  0  0  0  0
  185.7530  177.9160  142.6670 C   0  0  2  0  0  3  0  0  0  0  0  0
  184.6620  178.9740  142.7300 C   0  0  1  0  0  0  0  0  0  0  0  0
  184.3700  179.6970  144.0180 C   0  0  0  0  0  3  0  0  0  0  0  0
  182.2680  178.6180  142.3790 C   0  0  0  0  0  0  0  0  0  0  0  0
  182.0950  178.7020  143.8830 C   0  0  0  0  0  2  0  0  0  0  0  0
  181.1340  178.3890  141.5930 O   0  0  0  0  0  0  0  0  0  0  0  0
  180.3410  179.4380  141.0520 C   0  0  0  0  0  1  0  0  0  0  0  0
  1  2  1  1  0  0  0
  3  1  1  1  0  0  0
  5  4  1  1  0  0  0
  5  3  1  0  0  0  0
  6  5  1  0  0  0  0
  6  3  1  0  0  0  0
  7  5  1  0  0  0  0
  9  7  1  0  0  0  0
 10  8  2  0  0  0  0
 10  9  1  0  0  0  0
 11 14  1  0  0  0  0
 12 16  1  0  0  0  0
 12 13  1  1  0  0  0
 14 16  1  0  0  0  0
 14 10  1  1  0  0  0
 15 12  1  0  0  0  0
 15 11  1  0  0  0  0
 17 18  1  0  0  0  0
 17  1  1  0  0  0  0
 19 22  1  0  0  0  0
 19 23  1  0  0  0  0
 21 25  2  0  0  0  0
 22 23  1  0  0  0  0
 22 18  1  1  0  0  0
 23 21  1  6  0  0  0
 23 24  1  0  0  0  0
 24 20  2  0  0  0  0
 25 26  1  0  0  0  0
 26 20  1  0  0  0  0
 27 25  1  0  0  0  0
 28 27  1  0  0  0  0
M  END
>  <MODEL>
2

>  <REMARK>
 VINA RESULT:      -7.5      1.497      2.830
  Name = 
  8 active torsions:
  status: ('A' for Active; 'I' for Inactive)
    1  A    between atoms: O_2  and  C_22
    2  A    between atoms: C_5  and  C_10
    3  A    between atoms: C_5  and  C_14
    4  A    between atoms: C_8  and  C_19
    5  A    between atoms: C_8  and  N_20
    6  A    between atoms: C_9  and  C_13
    7  A    between atoms: C_13  and  C_14
    8  A    between atoms: C_23  and  C_27
                            x       y       z     vdW  Elec       q    Type
                         _______ _______ _______ _____ _____    ______ ____

>  <TORSDO>
F 8

$$$$
=
 OpenBabel11062416473D

 28 31  0  0  1  0  0  0  0  0999 V2000
  189.4850  177.5960  140.6850 C   0  0  2  0  0  3  0  0  0  0  0  0
  188.2970  178.5050  140.4280 C   0  0  0  0  0  1  0  0  0  0  0  0
  189.9060  176.9310  139.3780 C   0  0  1  0  0  3  0  0  0  0  0  0
  192.1910  177.3900  140.2440 O   0  0  0  0  0  1  0  0  0  0  0  0
  191.3840  176.8810  139.2180 C   0  0  1  0  0  0  0  0  0  0  0  0
  190.6580  175.7580  139.6440 O   0  0  0  0  0  0  0  0  0  0  0  0
  191.9860  176.6760  137.8380 C   0  0  0  0  0  2  0  0  0  0  0  0
  192.2490  173.9110  137.1920 O   0  0  0  0  0  0  0  0  0  0  0  0
  193.2080  175.8990  137.9520 N   0  0  0  0  0  2  0  0  0  0  0  0
  193.2710  174.5120  137.6210 C   0  0  0  0  0  0  0  0  0  0  0  0
  195.3380  173.8810  136.4310 C   0  0  0  0  0  2  0  0  0  0  0  0
  197.1220  174.1500  138.0780 C   0  0  2  0  0  3  0  0  0  0  0  0
  197.7640  175.3670  137.8320 O   0  0  0  0  0  1  0  0  0  0  0  0
  194.5640  173.7720  137.7250 C   0  0  1  0  0  3  0  0  0  0  0  0
  196.7580  173.4850  136.7620 C   0  0  0  0  0  2  0  0  0  0  0  0
  195.6090  174.4360  139.0570 S   0  0  0  0  0  0  0  0  0  0  0  0
  189.1260  176.5390  141.7280 C   0  0  0  0  0  2  0  0  0  0  0  0
  187.9680  176.9780  142.6220 C   0  0  0  0  0  2  0  0  0  0  0  0
  187.6050  177.6860  145.0020 C   0  0  0  0  0  2  0  0  0  0  0  0
  191.0220  178.9460  143.9860 C   0  0  0  0  0  3  0  0  0  0  0  0
  189.9240  177.1460  145.9230 C   0  0  0  0  0  3  0  0  0  0  0  0
  188.2380  176.6350  144.0860 C   0  0  2  0  0  3  0  0  0  0  0  0
  189.1000  177.6720  144.7910 C   0  0  1  0  0  0  0  0  0  0  0  0
  189.6870  178.8280  144.0240 C   0  0  0  0  0  3  0  0  0  0  0  0
  191.2580  177.2810  145.8690 C   0  0  0  0  0  0  0  0  0  0  0  0
  191.9130  177.9180  144.6600 C   0  0  0  0  0  2  0  0  0  0  0  0
  192.0830  176.8100  146.8980 O   0  0  0  0  0  0  0  0  0  0  0  0
  192.0420  175.4690  147.3710 C   0  0  0  0  0  1  0  0  0  0  0  0
  1  2  1  6  0  0  0
  1 17  1  0  0  0  0
  3  6  1  0  0  0  0
  3  1  1  1  0  0  0
  5  3  1  0  0  0  0
  5  6  1  0  0  0  0
  5  4  1  1  0  0  0
  7  9  1  0  0  0  0
  7  5  1  0  0  0  0
  8 10  2  0  0  0  0
 10  9  1  0  0  0  0
 11 15  1  0  0  0  0
 11 14  1  0  0  0  0
 12 13  1  6  0  0  0
 12 16  1  0  0  0  0
 14 10  1  6  0  0  0
 14 16  1  0  0  0  0
 15 12  1  0  0  0  0
 17 18  1  0  0  0  0
 20 24  2  0  0  0  0
 20 26  1  0  0  0  0
 22 18  1  6  0  0  0
 22 23  1  0  0  0  0
 22 19  1  0  0  0  0
 23 24  1  6  0  0  0
 23 19  1  0  0  0  0
 23 21  1  0  0  0  0
 25 21  2  0  0  0  0
 25 27  1  0  0  0  0
 26 25  1  0  0  0  0
 27 28  1  0  0  0  0
M  END
>  <MODEL>
3

>  <REMARK>
 VINA RESULT:      -7.3      3.738      6.110
  Name = 
  8 active torsions:
  status: ('A' for Active; 'I' for Inactive)
    1  A    between atoms: O_2  and  C_22
    2  A    between atoms: C_5  and  C_10
    3  A    between atoms: C_5  and  C_14
    4  A    between atoms: C_8  and  C_19
    5  A    between atoms: C_8  and  N_20
    6  A    between atoms: C_9  and  C_13
    7  A    between atoms: C_13  and  C_14
    8  A    between atoms: C_23  and  C_27
                            x       y       z     vdW  Elec       q    Type
                         _______ _______ _______ _____ _____    ______ ____

>  <TORSDO>
F 8

$$$$
=
 OpenBabel11062416473D

 28 31  0  0  1  0  0  0  0  0999 V2000
  184.9480  178.6710  144.2270 C   0  0  2  0  0  3  0  0  0  0  0  0
  183.7370  179.0150  145.0750 C   0  0  0  0  0  1  0  0  0  0  0  0
  184.4870  178.2260  142.8420 C   0  0  1  0  0  3  0  0  0  0  0  0
  186.0630  179.9970  142.0920 O   0  0  0  0  0  1  0  0  0  0  0  0
  185.1280  179.0100  141.7530 C   0  0  1  0  0  0  0  0  0  0  0  0
  185.5840  177.7280  142.0960 O   0  0  0  0  0  0  0  0  0  0  0  0
  184.4960  179.0350  140.3710 C   0  0  0  0  0  2  0  0  0  0  0  0
  184.2500  177.3640  138.0740 O   0  0  0  0  0  0  0  0  0  0  0  0
  185.5240  178.8350  139.3640 N   0  0  0  0  0  2  0  0  0  0  0  0
  185.3400  177.9740  138.2400 C   0  0  0  0  0  0  0  0  0  0  0  0
  187.7050  178.4520  137.7190 C   0  0  0  0  0  2  0  0  0  0  0  0
  188.5390  176.4200  136.6520 C   0  0  2  0  0  3  0  0  0  0  0  0
  189.2570  175.6900  137.6030 O   0  0  0  0  0  1  0  0  0  0  0  0
  186.4200  177.8340  137.2170 C   0  0  1  0  0  3  0  0  0  0  0  0
  188.8020  177.9050  136.8370 C   0  0  0  0  0  2  0  0  0  0  0  0
  186.7560  176.0880  136.8340 S   0  0  0  0  0  0  0  0  0  0  0  0
  185.7640  177.5660  144.8960 C   0  0  0  0  0  2  0  0  0  0  0  0
  187.2680  177.7950  144.7600 C   0  0  0  0  0  2  0  0  0  0  0  0
  188.4200  178.4680  146.8860 C   0  0  0  0  0  2  0  0  0  0  0  0
  191.1090  178.0330  144.2630 C   0  0  0  0  0  3  0  0  0  0  0  0
  190.4000  176.8590  146.7760 C   0  0  0  0  0  3  0  0  0  0  0  0
  188.0170  177.2910  145.9920 C   0  0  2  0  0  3  0  0  0  0  0  0
  189.4610  177.7670  146.0460 C   0  0  1  0  0  0  0  0  0  0  0  0
  190.0510  178.5510  144.9040 C   0  0  0  0  0  3  0  0  0  0  0  0
  191.4570  176.3570  146.1190 C   0  0  0  0  0  0  0  0  0  0  0  0
  191.6650  176.6750  144.6520 C   0  0  0  0  0  2  0  0  0  0  0  0
  192.3710  175.5030  146.7480 O   0  0  0  0  0  0  0  0  0  0  0  0
  192.7250  175.6220  148.1200 C   0  0  0  0  0  1  0  0  0  0  0  0
  1 17  1  0  0  0  0
  1  2  1  1  0  0  0
  3  1  1  1  0  0  0
  5  4  1  1  0  0  0
  5  6  1  0  0  0  0
  5  3  1  0  0  0  0
  6  3  1  0  0  0  0
  7  5  1  0  0  0  0
  8 10  2  0  0  0  0
  9  7  1  0  0  0  0
 10  9  1  0  0  0  0
 12 16  1  0  0  0  0
 12 15  1  0  0  0  0
 12 13  1  1  0  0  0
 14 11  1  0  0  0  0
 14 10  1  1  0  0  0
 15 11  1  0  0  0  0
 16 14  1  0  0  0  0
 18 17  1  0  0  0  0
 20 26  1  0  0  0  0
 20 24  2  0  0  0  0
 22 18  1  6  0  0  0
 22 23  1  0  0  0  0
 22 19  1  0  0  0  0
 23 24  1  6  0  0  0
 23 21  1  0  0  0  0
 23 19  1  0  0  0  0
 25 27  1  0  0  0  0
 25 21  2  0  0  0  0
 26 25  1  0  0  0  0
 27 28  1  0  0  0  0
M  END
>  <MODEL>
4

>  <REMARK>
 VINA RESULT:      -7.3      2.299      5.510
  Name = 
  8 active torsions:
  status: ('A' for Active; 'I' for Inactive)
    1  A    between atoms: O_2  and  C_22
    2  A    between atoms: C_5  and  C_10
    3  A    between atoms: C_5  and  C_14
    4  A    between atoms: C_8  and  C_19
    5  A    between atoms: C_8  and  N_20
    6  A    between atoms: C_9  and  C_13
    7  A    between atoms: C_13  and  C_14
    8  A    between atoms: C_23  and  C_27
                            x       y       z     vdW  Elec       q    Type
                         _______ _______ _______ _____ _____    ______ ____

>  <TORSDO>
F 8

$$$$
=
 OpenBabel11062416473D

 28 31  0  0  1  0  0  0  0  0999 V2000
  182.3110  178.8210  141.1440 C   0  0  2  0  0  3  0  0  0  0  0  0
  181.2990  177.8330  140.5920 C   0  0  0  0  0  1  0  0  0  0  0  0
  183.7200  178.3520  140.7930 C   0  0  1  0  0  3  0  0  0  0  0  0
  183.5300  180.1060  139.0400 O   0  0  0  0  0  1  0  0  0  0  0  0
  184.2900  179.0890  139.6340 C   0  0  1  0  0  0  0  0  0  0  0  0
  184.6450  179.4140  140.9520 O   0  0  0  0  0  0  0  0  0  0  0  0
  185.4580  178.4950  138.8640 C   0  0  0  0  0  2  0  0  0  0  0  0
  187.9900  177.3850  138.1660 O   0  0  0  0  0  0  0  0  0  0  0  0
  186.6660  178.5890  139.6650 N   0  0  0  0  0  2  0  0  0  0  0  0
  187.9030  178.0000  139.2620 C   0  0  0  0  0  0  0  0  0  0  0  0
  188.7370  178.2950  141.5660 C   0  0  0  0  0  2  0  0  0  0  0  0
  190.6860  176.8310  141.7240 C   0  0  2  0  0  3  0  0  0  0  0  0
  190.3010  175.6610  142.3830 O   0  0  0  0  0  1  0  0  0  0  0  0
  189.1220  178.1580  140.1110 C   0  0  1  0  0  3  0  0  0  0  0  0
  189.9960  178.0280  142.3560 C   0  0  0  0  0  2  0  0  0  0  0  0
  190.2320  176.7250  139.9610 S   0  0  0  0  0  0  0  0  0  0  0  0
  182.1540  178.9480  142.6580 C   0  0  0  0  0  2  0  0  0  0  0  0
  183.2710  178.2340  143.4170 C   0  0  0  0  0  2  0  0  0  0  0  0
  184.5680  180.2430  144.1780 C   0  0  0  0  0  2  0  0  0  0  0  0
  186.8670  177.2580  144.5010 C   0  0  0  0  0  3  0  0  0  0  0  0
  185.6960  179.2190  146.2270 C   0  0  0  0  0  3  0  0  0  0  0  0
  183.7230  179.0470  144.6280 C   0  0  2  0  0  3  0  0  0  0  0  0
  185.2330  179.0470  144.8150 C   0  0  1  0  0  0  0  0  0  0  0  0
  186.1130  178.2070  143.9270 C   0  0  0  0  0  3  0  0  0  0  0  0
  186.4560  178.2620  146.7810 C   0  0  0  0  0  0  0  0  0  0  0  0
  186.7990  177.0110  145.9970 C   0  0  0  0  0  2  0  0  0  0  0  0
  186.9210  178.3670  148.0970 O   0  0  0  0  0  0  0  0  0  0  0  0
  188.0670  177.6720  148.5720 C   0  0  0  0  0  1  0  0  0  0  0  0
  1  2  1  1  0  0  0
  1 17  1  0  0  0  0
  3  6  1  0  0  0  0
  3  1  1  1  0  0  0
  5  4  1  6  0  0  0
  5  3  1  0  0  0  0
  5  6  1  0  0  0  0
  7  5  1  0  0  0  0
  7  9  1  0  0  0  0
  8 10  2  0  0  0  0
 10  9  1  0  0  0  0
 11 15  1  0  0  0  0
 12 15  1  0  0  0  0
 12 13  1  1  0  0  0
 14 10  1  6  0  0  0
 14 11  1  0  0  0  0
 16 14  1  0  0  0  0
 16 12  1  0  0  0  0
 17 18  1  0  0  0  0
 19 22  1  0  0  0  0
 19 23  1  0  0  0  0
 20 26  1  0  0  0  0
 21 25  2  0  0  0  0
 22 18  1  6  0  0  0
 22 23  1  0  0  0  0
 23 24  1  6  0  0  0
 23 21  1  0  0  0  0
 24 20  2  0  0  0  0
 25 27  1  0  0  0  0
 26 25  1  0  0  0  0
 27 28  1  0  0  0  0
M  END
>  <MODEL>
5

>  <REMARK>
 VINA RESULT:      -7.2      2.470      5.768
  Name = 
  8 active torsions:
  status: ('A' for Active; 'I' for Inactive)
    1  A    between atoms: O_2  and  C_22
    2  A    between atoms: C_5  and  C_10
    3  A    between atoms: C_5  and  C_14
    4  A    between atoms: C_8  and  C_19
    5  A    between atoms: C_8  and  N_20
    6  A    between atoms: C_9  and  C_13
    7  A    between atoms: C_13  and  C_14
    8  A    between atoms: C_23  and  C_27
                            x       y       z     vdW  Elec       q    Type
                         _______ _______ _______ _____ _____    ______ ____

>  <TORSDO>
F 8

$$$$
=
 OpenBabel11062416473D

 28 31  0  0  1  0  0  0  0  0999 V2000
  189.8750  177.4800  140.2980 C   0  0  2  0  0  3  0  0  0  0  0  0
  188.6880  178.3750  139.9910 C   0  0  0  0  0  1  0  0  0  0  0  0
  190.3640  176.8270  139.0090 C   0  0  1  0  0  3  0  0  0  0  0  0
  192.6000  177.2410  140.0150 O   0  0  0  0  0  1  0  0  0  0  0  0
  191.8470  176.7570  138.9360 C   0  0  1  0  0  0  0  0  0  0  0  0
  191.0820  175.6400  139.3010 O   0  0  0  0  0  0  0  0  0  0  0  0
  192.5270  176.5620  137.5910 C   0  0  0  0  0  2  0  0  0  0  0  0
  193.4470  174.2630  136.1770 O   0  0  0  0  0  0  0  0  0  0  0  0
  193.8130  175.9150  137.7860 N   0  0  0  0  0  2  0  0  0  0  0  0
  194.2100  174.7570  137.0500 C   0  0  0  0  0  0  0  0  0  0  0  0
  196.6020  174.8880  136.4550 C   0  0  0  0  0  2  0  0  0  0  0  0
  197.7950  174.5400  138.5580 C   0  0  2  0  0  3  0  0  0  0  0  0
  198.2030  175.7870  139.0390 O   0  0  0  0  0  1  0  0  0  0  0  0
  195.5590  174.1540  137.2690 C   0  0  1  0  0  3  0  0  0  0  0  0
  197.9370  174.5010  137.0460 C   0  0  0  0  0  2  0  0  0  0  0  0
  196.0550  174.2410  139.0160 S   0  0  0  0  0  0  0  0  0  0  0  0
  189.4830  176.4140  141.3190 C   0  0  0  0  0  2  0  0  0  0  0  0
  190.2540  176.5570  142.6300 C   0  0  0  0  0  2  0  0  0  0  0  0
  190.2410  178.7980  143.7590 C   0  0  0  0  0  2  0  0  0  0  0  0
  191.8110  176.3530  146.1780 C   0  0  0  0  0  3  0  0  0  0  0  0
  189.5080  178.0510  146.0890 C   0  0  0  0  0  3  0  0  0  0  0  0
  189.5110  177.4600  143.6130 C   0  0  2  0  0  3  0  0  0  0  0  0
  190.3200  177.7710  144.8630 C   0  0  1  0  0  0  0  0  0  0  0  0
  191.6590  177.1200  145.0890 C   0  0  0  0  0  3  0  0  0  0  0  0
  189.6810  177.2770  147.1700 C   0  0  0  0  0  0  0  0  0  0  0  0
  190.6530  176.1140  147.1290 C   0  0  0  0  0  2  0  0  0  0  0  0
  188.9530  177.4900  148.3460 O   0  0  0  0  0  0  0  0  0  0  0  0
  187.8280  178.3570  148.4150 C   0  0  0  0  0  1  0  0  0  0  0  0
  1  2  1  6  0  0  0
  1 17  1  0  0  0  0
  3  6  1  0  0  0  0
  3  1  1  1  0  0  0
  5  3  1  0  0  0  0
  5  6  1  0  0  0  0
  5  4  1  1  0  0  0
  7  9  1  0  0  0  0
  7  5  1  0  0  0  0
  8 10  2  0  0  0  0
 10  9  1  0  0  0  0
 11 15  1  0  0  0  0
 11 14  1  0  0  0  0
 12 16  1  0  0  0  0
 12 13  1  6  0  0  0
 14 10  1  1  0  0  0
 14 16  1  0  0  0  0
 15 12  1  0  0  0  0
 17 18  1  0  0  0  0
 20 26  1  0  0  0  0
 21 25  2  0  0  0  0
 22 18  1  6  0  0  0
 22 19  1  0  0  0  0
 22 23  1  0  0  0  0
 23 19  1  6  0  0  0
 23 24  1  0  0  0  0
 23 21  1  0  0  0  0
 24 20  2  0  0  0  0
 25 27  1  0  0  0  0
 26 25  1  0  0  0  0
 27 28  1  0  0  0  0
M  END
>  <MODEL>
6

>  <REMARK>
 VINA RESULT:      -7.0      4.039      6.274
  Name = 
  8 active torsions:
  status: ('A' for Active; 'I' for Inactive)
    1  A    between atoms: O_2  and  C_22
    2  A    between atoms: C_5  and  C_10
    3  A    between atoms: C_5  and  C_14
    4  A    between atoms: C_8  and  C_19
    5  A    between atoms: C_8  and  N_20
    6  A    between atoms: C_9  and  C_13
    7  A    between atoms: C_13  and  C_14
    8  A    between atoms: C_23  and  C_27
                            x       y       z     vdW  Elec       q    Type
                         _______ _______ _______ _____ _____    ______ ____

>  <TORSDO>
F 8

$$$$
=
 OpenBabel11062416473D

 28 31  0  0  1  0  0  0  0  0999 V2000
  186.7720  177.9920  143.4380 C   0  0  2  0  0  3  0  0  0  0  0  0
  185.2840  178.2940  143.4550 C   0  0  0  0  0  1  0  0  0  0  0  0
  187.1500  177.3820  142.0920 C   0  0  1  0  0  3  0  0  0  0  0  0
  188.8100  179.2330  142.0720 O   0  0  0  0  0  1  0  0  0  0  0  0
  188.2450  178.1280  141.4190 C   0  0  1  0  0  0  0  0  0  0  0  0
  188.4950  176.9360  142.1150 O   0  0  0  0  0  0  0  0  0  0  0  0
  188.4600  177.9660  139.9230 C   0  0  0  0  0  2  0  0  0  0  0  0
  189.8270  177.6060  137.4470 O   0  0  0  0  0  0  0  0  0  0  0  0
  189.5330  177.0150  139.6870 N   0  0  0  0  0  2  0  0  0  0  0  0
  190.1710  176.8770  138.4170 C   0  0  0  0  0  0  0  0  0  0  0  0
  191.3850  175.4650  136.7980 C   0  0  0  0  0  2  0  0  0  0  0  0
  193.7450  175.7410  137.3660 C   0  0  2  0  0  3  0  0  0  0  0  0
  194.3070  176.6510  136.4670 O   0  0  0  0  0  1  0  0  0  0  0  0
  191.2920  175.9070  138.2410 C   0  0  1  0  0  3  0  0  0  0  0  0
  192.7540  174.8470  136.6400 C   0  0  0  0  0  2  0  0  0  0  0  0
  192.8910  176.6400  138.7030 S   0  0  0  0  0  0  0  0  0  0  0  0
  187.1300  177.0360  144.5750 C   0  0  0  0  0  2  0  0  0  0  0  0
  186.8550  177.6430  145.9490 C   0  0  0  0  0  2  0  0  0  0  0  0
  188.3200  178.2460  147.8960 C   0  0  0  0  0  2  0  0  0  0  0  0
  190.5360  178.1620  144.8320 C   0  0  0  0  0  3  0  0  0  0  0  0
  190.3340  176.7800  147.3310 C   0  0  0  0  0  3  0  0  0  0  0  0
  187.8320  177.1070  146.9950 C   0  0  2  0  0  3  0  0  0  0  0  0
  189.2360  177.6720  146.8420 C   0  0  1  0  0  0  0  0  0  0  0  0
  189.5780  178.5670  145.6800 C   0  0  0  0  0  3  0  0  0  0  0  0
  191.2860  176.3920  146.4700 C   0  0  0  0  0  0  0  0  0  0  0  0
  191.2210  176.8200  145.0170 C   0  0  0  0  0  2  0  0  0  0  0  0
  192.3380  175.5600  146.8680 O   0  0  0  0  0  0  0  0  0  0  0  0
  192.9180  175.6110  148.1660 C   0  0  0  0  0  1  0  0  0  0  0  0
  1  2  1  6  0  0  0
  1 17  1  0  0  0  0
  3  6  1  0  0  0  0
  3  1  1  1  0  0  0
  5  4  1  1  0  0  0
  5  3  1  0  0  0  0
  5  6  1  0  0  0  0
  7  5  1  0  0  0  0
  8 10  2  0  0  0  0
  9  7  1  0  0  0  0
 10  9  1  0  0  0  0
 11 14  1  0  0  0  0
 12 13  1  6  0  0  0
 12 16  1  0  0  0  0
 14 10  1  6  0  0  0
 14 16  1  0  0  0  0
 15 11  1  0  0  0  0
 15 12  1  0  0  0  0
 17 18  1  0  0  0  0
 20 26  1  0  0  0  0
 20 24  2  0  0  0  0
 22 18  1  6  0  0  0
 22 19  1  0  0  0  0
 23 24  1  6  0  0  0
 23 22  1  0  0  0  0
 23 21  1  0  0  0  0
 23 19  1  0  0  0  0
 25 27  1  0  0  0  0
 25 21  2  0  0  0  0
 26 25  1  0  0  0  0
 27 28  1  0  0  0  0
M  END
>  <MODEL>
7

>  <REMARK>
 VINA RESULT:      -6.9      2.351      5.032
  Name = 
  8 active torsions:
  status: ('A' for Active; 'I' for Inactive)
    1  A    between atoms: O_2  and  C_22
    2  A    between atoms: C_5  and  C_10
    3  A    between atoms: C_5  and  C_14
    4  A    between atoms: C_8  and  C_19
    5  A    between atoms: C_8  and  N_20
    6  A    between atoms: C_9  and  C_13
    7  A    between atoms: C_13  and  C_14
    8  A    between atoms: C_23  and  C_27
                            x       y       z     vdW  Elec       q    Type
                         _______ _______ _______ _____ _____    ______ ____

>  <TORSDO>
F 8

$$$$
=
 OpenBabel11062416473D

 28 31  0  0  1  0  0  0  0  0999 V2000
  185.0320  178.8980  143.4290 C   0  0  2  0  0  3  0  0  0  0  0  0
  184.2010  179.4190  144.5880 C   0  0  0  0  0  1  0  0  0  0  0  0
  184.1330  178.6840  142.2160 C   0  0  1  0  0  3  0  0  0  0  0  0
  186.1720  179.3790  140.9730 O   0  0  0  0  0  1  0  0  0  0  0  0
  184.8270  178.9850  140.9360 C   0  0  1  0  0  0  0  0  0  0  0  0
  184.6640  177.6660  141.3840 O   0  0  0  0  0  0  0  0  0  0  0  0
  184.0120  179.2620  139.6840 C   0  0  0  0  0  2  0  0  0  0  0  0
  186.1410  178.9830  137.8080 O   0  0  0  0  0  0  0  0  0  0  0  0
  184.1690  178.1610  138.7480 N   0  0  0  0  0  2  0  0  0  0  0  0
  185.2560  178.0860  137.8250 C   0  0  0  0  0  0  0  0  0  0  0  0
  186.6370  176.1290  137.2320 C   0  0  0  0  0  2  0  0  0  0  0  0
  185.0370  174.3280  136.8270 C   0  0  2  0  0  3  0  0  0  0  0  0
  184.9950  173.5170  137.9640 O   0  0  0  0  0  1  0  0  0  0  0  0
  185.3840  176.9130  136.9100 C   0  0  1  0  0  3  0  0  0  0  0  0
  186.4650  174.7820  136.5720 C   0  0  0  0  0  2  0  0  0  0  0  0
  183.9660  175.7850  137.0650 S   0  0  0  0  0  0  0  0  0  0  0  0
  185.7210  177.5910  143.8190 C   0  0  0  0  0  2  0  0  0  0  0  0
  187.2420  177.7190  143.8280 C   0  0  0  0  0  2  0  0  0  0  0  0
  188.0110  178.2200  146.1640 C   0  0  0  0  0  2  0  0  0  0  0  0
  191.0840  178.2500  143.9600 C   0  0  0  0  0  3  0  0  0  0  0  0
  190.1070  176.7600  146.2010 C   0  0  0  0  0  3  0  0  0  0  0  0
  187.8390  177.1280  145.1040 C   0  0  2  0  0  3  0  0  0  0  0  0
  189.2170  177.6840  145.4290 C   0  0  1  0  0  0  0  0  0  0  0  0
  189.9060  178.6270  144.4780 C   0  0  0  0  0  3  0  0  0  0  0  0
  191.2850  176.4020  145.6680 C   0  0  0  0  0  0  0  0  0  0  0  0
  191.6820  176.8950  144.2910 C   0  0  0  0  0  2  0  0  0  0  0  0
  192.1610  175.5430  146.3410 O   0  0  0  0  0  0  0  0  0  0  0  0
  192.4300  175.6460  147.7340 C   0  0  0  0  0  1  0  0  0  0  0  0
  1 17  1  0  0  0  0
  1  2  1  1  0  0  0
  3  1  1  1  0  0  0
  5  4  1  1  0  0  0
  5  6  1  0  0  0  0
  5  3  1  0  0  0  0
  6  3  1  0  0  0  0
  7  5  1  0  0  0  0
  8 10  2  0  0  0  0
  9  7  1  0  0  0  0
 10  9  1  0  0  0  0
 12 16  1  0  0  0  0
 12 13  1  1  0  0  0
 14 16  1  0  0  0  0
 14 11  1  0  0  0  0
 14 10  1  1  0  0  0
 15 12  1  0  0  0  0
 15 11  1  0  0  0  0
 17 18  1  0  0  0  0
 20 26  1  0  0  0  0
 20 24  2  0  0  0  0
 22 18  1  6  0  0  0
 22 23  1  0  0  0  0
 22 19  1  0  0  0  0
 23 24  1  6  0  0  0
 23 19  1  0  0  0  0
 23 21  1  0  0  0  0
 25 21  2  0  0  0  0
 25 27  1  0  0  0  0
 26 25  1  0  0  0  0
 27 28  1  0  0  0  0
M  END
>  <MODEL>
8

>  <REMARK>
 VINA RESULT:      -6.8      2.878      5.701
  Name = 
  8 active torsions:
  status: ('A' for Active; 'I' for Inactive)
    1  A    between atoms: O_2  and  C_22
    2  A    between atoms: C_5  and  C_10
    3  A    between atoms: C_5  and  C_14
    4  A    between atoms: C_8  and  C_19
    5  A    between atoms: C_8  and  N_20
    6  A    between atoms: C_9  and  C_13
    7  A    between atoms: C_13  and  C_14
    8  A    between atoms: C_23  and  C_27
                            x       y       z     vdW  Elec       q    Type
                         _______ _______ _______ _____ _____    ______ ____

>  <TORSDO>
F 8

$$$$
=
 OpenBabel11062416473D

 28 31  0  0  1  0  0  0  0  0999 V2000
  184.7280  179.1290  141.6790 C   0  0  2  0  0  3  0  0  0  0  0  0
  183.7250  178.4480  142.5910 C   0  0  0  0  0  1  0  0  0  0  0  0
  185.1200  178.1760  140.5540 C   0  0  1  0  0  3  0  0  0  0  0  0
  184.5550  180.1300  139.1230 O   0  0  0  0  0  1  0  0  0  0  0  0
  184.9770  178.7960  139.2100 C   0  0  1  0  0  0  0  0  0  0  0  0
  186.2280  178.6920  139.8370 O   0  0  0  0  0  0  0  0  0  0  0  0
  184.8860  177.9120  137.9780 C   0  0  0  0  0  2  0  0  0  0  0  0
  185.8500  175.4100  137.0070 O   0  0  0  0  0  0  0  0  0  0  0  0
  186.2190  177.6720  137.4520 N   0  0  0  0  0  2  0  0  0  0  0  0
  186.6430  176.3890  136.9900 C   0  0  0  0  0  0  0  0  0  0  0  0
  188.9580  177.2440  136.9990 C   0  0  0  0  0  2  0  0  0  0  0  0
  190.3670  175.2490  137.0200 C   0  0  2  0  0  3  0  0  0  0  0  0
  190.8080  175.0390  138.3290 O   0  0  0  0  0  1  0  0  0  0  0  0
  188.0150  176.2100  136.4270 C   0  0  1  0  0  3  0  0  0  0  0  0
  190.3520  176.7370  136.7140 C   0  0  0  0  0  2  0  0  0  0  0  0
  188.6880  174.5660  136.8160 S   0  0  0  0  0  0  0  0  0  0  0  0
  185.9630  179.5510  142.4730 C   0  0  0  0  0  2  0  0  0  0  0  0
  186.2090  178.6510  143.6820 C   0  0  0  0  0  2  0  0  0  0  0  0
  187.2610  176.3760  143.5580 C   0  0  0  0  0  2  0  0  0  0  0  0
  187.5580  177.5360  147.1450 C   0  0  0  0  0  3  0  0  0  0  0  0
  189.3190  176.8240  145.0030 C   0  0  0  0  0  3  0  0  0  0  0  0
  187.5230  177.8850  143.5430 C   0  0  2  0  0  3  0  0  0  0  0  0
  187.8580  177.0500  144.7700 C   0  0  1  0  0  0  0  0  0  0  0  0
  186.9940  177.1210  146.0020 C   0  0  0  0  0  3  0  0  0  0  0  0
  189.8620  177.2400  146.1570 C   0  0  0  0  0  0  0  0  0  0  0  0
  189.0140  177.9630  147.1830 C   0  0  0  0  0  2  0  0  0  0  0  0
  191.2220  177.0560  146.4320 O   0  0  0  0  0  0  0  0  0  0  0  0
  191.6940  176.3900  147.5970 C   0  0  0  0  0  1  0  0  0  0  0  0
  1 17  1  0  0  0  0
  1  2  1  1  0  0  0
  3  1  1  1  0  0  0
  5  4  1  6  0  0  0
  5  6  1  0  0  0  0
  5  3  1  0  0  0  0
  6  3  1  0  0  0  0
  7  5  1  0  0  0  0
  9  7  1  0  0  0  0
 10  8  2  0  0  0  0
 10  9  1  0  0  0  0
 12 13  1  1  0  0  0
 14 16  1  0  0  0  0
 14 10  1  1  0  0  0
 14 11  1  0  0  0  0
 15 11  1  0  0  0  0
 15 12  1  0  0  0  0
 16 12  1  0  0  0  0
 17 18  1  0  0  0  0
 20 26  1  0  0  0  0
 21 25  2  0  0  0  0
 22 19  1  0  0  0  0
 22 18  1  1  0  0  0
 22 23  1  0  0  0  0
 23 19  1  6  0  0  0
 23 21  1  0  0  0  0
 23 24  1  0  0  0  0
 24 20  2  0  0  0  0
 25 27  1  0  0  0  0
 25 26  1  0  0  0  0
 27 28  1  0  0  0  0
M  END
>  <MODEL>
9

>  <REMARK>
 VINA RESULT:      -6.6      2.463      5.384
  Name = 
  8 active torsions:
  status: ('A' for Active; 'I' for Inactive)
    1  A    between atoms: O_2  and  C_22
    2  A    between atoms: C_5  and  C_10
    3  A    between atoms: C_5  and  C_14
    4  A    between atoms: C_8  and  C_19
    5  A    between atoms: C_8  and  N_20
    6  A    between atoms: C_9  and  C_13
    7  A    between atoms: C_13  and  C_14
    8  A    between atoms: C_23  and  C_27
                            x       y       z     vdW  Elec       q    Type
                         _______ _______ _______ _____ _____    ______ ____

>  <TORSDO>
F 8

$$$$
