=
 OpenBabel11062414283D

 50 56  0  0  1  0  0  0  0  0999 V2000
  188.2080  178.0400  139.8410 C   0  0  1  0  0  0  0  0  0  0  0  0
  189.7090  177.1860  141.8060 C   0  0  0  0  0  3  0  0  0  0  0  0
  187.5770  177.2950  143.5930 C   0  0  0  0  0  3  0  0  0  0  0  0
  186.1190  178.2210  141.8410 N   0  0  0  0  0  2  0  0  0  0  0  0
  186.2610  178.9780  140.6080 C   0  0  2  0  0  3  0  0  0  0  0  0
  185.4650  178.7250  139.4150 N   0  0  1  0  0  0  0  0  0  0  0  0
  188.6170  179.3670  139.6250 O   0  0  0  0  0  1  0  0  0  0  0  0
  188.4670  177.6230  141.3300 C   0  0  0  0  0  0  0  0  0  0  0  0
  187.3910  177.6970  142.2730 C   0  0  0  0  0  0  0  0  0  0  0  0
  188.8380  176.8510  143.9940 C   0  0  0  0  0  3  0  0  0  0  0  0
  186.6580  177.8740  139.6740 C   0  0  1  0  0  3  0  0  0  0  0  0
  189.8670  176.8150  143.1060 N   0  0  0  0  0  0  0  0  0  0  0  0
  182.3520  179.2970  139.1680 N   0  0  2  0  0  0  0  0  0  0  0  0
  182.5190  178.2890  138.1260 C   0  0  0  0  0  2  0  0  0  0  0  0
  184.2620  177.9560  139.7720 C   0  0  1  0  0  3  0  0  0  0  0  0
  183.1850  178.8910  140.2980 C   0  0  0  0  0  2  0  0  0  0  0  0
  183.5920  177.3050  138.5630 C   0  0  2  0  0  0  0  0  0  0  0  0
  184.5400  177.0470  137.4040 C   0  0  0  0  0  1  0  0  0  0  0  0
  180.2820  180.6560  139.0780 C   0  0  0  0  0  0  0  0  0  0  0  0
  179.2650  180.4440  137.9810 C   0  0  0  0  0  2  0  0  0  0  0  0
  180.9280  179.3530  139.5320 C   0  0  2  0  0  3  0  0  0  0  0  0
  180.0530  180.5390  141.3610 C   0  0  0  0  0  0  0  0  0  0  0  0
  179.7270  181.4530  140.2370 C   0  0  0  0  0  2  0  0  0  0  0  0
  180.5160  181.2680  137.7160 C   0  0  0  0  0  2  0  0  0  0  0  0
  180.7290  179.3480  140.9780 N   0  0  0  0  0  2  0  0  0  0  0  0
  179.7610  180.7900  142.5580 O   0  0  0  0  0  0  0  0  0  0  0  0
  182.9580  175.9860  139.0200 C   0  0  0  0  0  2  0  0  0  0  0  0
  181.6480  175.6740  138.3080 C   0  0  0  0  0  1  0  0  0  0  0  0
  188.9700  177.1080  138.8280 C   0  0  1  0  0  3  0  0  0  0  0  0
  188.0830  176.4480  137.7320 C   0  0  1  0  0  3  0  0  0  0  0  0
  188.4250  176.8810  136.3040 C   0  0  1  0  0  3  0  0  0  0  0  0
  188.4220  175.7590  135.4450 O   0  0  0  0  0  0  0  0  0  0  0  0
  189.5250  174.5440  137.9220 O   0  0  0  0  0  1  0  0  0  0  0  0
  188.2140  174.9480  137.6480 C   0  0  2  0  0  3  0  0  0  0  0  0
  187.9350  174.6680  136.1900 C   0  0  1  0  0  3  0  0  0  0  0  0
  187.4580  177.8950  135.7860 C   0  0  0  0  0  0  0  0  0  0  0  0
  187.2150  179.0660  136.4960 O   0  0  0  0  0  1  0  0  0  0  0  0
  186.8230  177.6670  134.7250 O   0  0  0  0  0  0  0  0  0  0  0  0
  185.7390  174.2710  137.1080 O   0  0  0  0  0  1  0  0  0  0  0  0
  186.4360  174.4650  135.9120 C   0  0  2  0  0  3  0  0  0  0  0  0
  185.0490  173.0210  134.5930 O   0  0  0  0  0  0  0  0  0  0  0  0
  187.2780  172.5010  134.5940 O   0  0  0  0  0  1  0  0  0  0  0  0
  186.2110  173.2980  134.9940 C   0  0  0  0  0  0  0  0  0  0  0  0
  190.2450  177.7350  138.2120 C   0  0  0  0  0  2  0  0  0  0  0  0
  191.5110  176.9490  138.4110 C   0  0  0  0  0  0  0  0  0  0  0  0
  191.9050  176.6770  139.5330 O   0  0  0  0  0  0  0  0  0  0  0  0
  192.2810  176.4800  137.2220 C   0  0  0  0  0  2  0  0  0  0  0  0
  192.8350  174.7800  137.4520 S   0  0  1  0  0  0  0  0  0  0  0  0
  192.7080  174.1710  136.0630 O   0  0  0  0  0  0  0  0  0  0  0  0
  194.6130  174.9580  137.6580 C   0  0  0  0  0  1  0  0  0  0  0  0
  1  7  1  6  0  0  0
  1  8  1  0  0  0  0
  2 12  1  0  0  0  0
  3 10  1  0  0  0  0
  4  9  1  0  0  0  0
  5  4  1  1  0  0  0
  6 11  1  0  0  0  0
  6 15  1  1  0  0  0
  6  5  1  0  0  0  0
  8  2  2  0  0  0  0
  8  9  1  0  0  0  0
  9  3  2  0  0  0  0
 11  1  1  0  0  0  0
 11  5  1  0  0  0  0
 12 10  2  0  0  0  0
 13 21  1  0  0  0  0
 13 16  1  0  0  0  0
 14 17  1  0  0  0  0
 14 13  1  0  0  0  0
 15 16  1  0  0  0  0
 17 27  1  0  0  0  0
 17 15  1  0  0  0  0
 18 17  1  0  0  0  0
 19 21  1  0  0  0  0
 19 23  1  0  0  0  0
 20 19  1  0  0  0  0
 21 25  1  0  0  0  0
 22 26  2  0  0  0  0
 23 22  1  0  0  0  0
 24 20  1  0  0  0  0
 24 19  1  0  0  0  0
 25 22  1  0  0  0  0
 28 27  1  0  0  0  0
 29  1  1  0  0  0  0
 30 29  1  0  0  0  0
 31 30  1  0  0  0  0
 32 35  1  0  0  0  0
 32 31  1  0  0  0  0
 34 30  1  0  0  0  0
 34 33  1  0  0  0  0
 35 34  1  0  0  0  0
 36 31  1  0  0  0  0
 36 37  1  0  0  0  0
 38 36  2  0  0  0  0
 40 35  1  0  0  0  0
 40 39  1  0  0  0  0
 41 43  2  0  0  0  0
 42 43  1  0  0  0  0
 43 40  1  0  0  0  0
 44 45  1  0  0  0  0
 44 29  1  0  0  0  0
 45 46  2  0  0  0  0
 47 48  1  0  0  0  0
 47 45  1  0  0  0  0
 48 50  1  0  0  0  0
 49 48  2  0  0  0  0
M  END
>  <MODEL>
1

>  <REMARK>
 VINA RESULT:      -5.8      0.000      0.000
  Name = 
  12 active torsions:
  status: ('A' for Active; 'I' for Inactive)
    1  A    between atoms: C_1  and  S_16
    2  A    between atoms: C_1  and  C_31
    3  A    between atoms: C_2  and  C_19
    4  A    between atoms: C_2  and  C_31
    5  A    between atoms: C_3  and  C_19
    6  A    between atoms: C_4  and  C_12
    7  A    between atoms: C_5  and  C_19
    8  A    between atoms: N_6  and  C_21
    9  A    between atoms: C_10  and  N_33
   10  A    between atoms: C_23  and  C_36
   11  A    between atoms: C_25  and  C_27
   12  A    between atoms: C_36  and  C_46
                            x       y       z     vdW  Elec       q    Type
                         _______ _______ _______ _____ _____    ______ ____

>  <TORSDO>
F 12

$$$$
=
 OpenBabel11062414283D

 50 56  0  0  1  0  0  0  0  0999 V2000
  188.3280  177.9830  139.9530 C   0  0  1  0  0  0  0  0  0  0  0  0
  189.8440  177.0660  141.8790 C   0  0  0  0  0  3  0  0  0  0  0  0
  187.7140  177.0720  143.6720 C   0  0  0  0  0  3  0  0  0  0  0  0
  186.2410  178.0530  141.9620 N   0  0  0  0  0  2  0  0  0  0  0  0
  186.3710  178.8630  140.7620 C   0  0  2  0  0  3  0  0  0  0  0  0
  185.5760  178.6510  139.5610 N   0  0  1  0  0  0  0  0  0  0  0  0
  188.7200  179.3230  139.7930 O   0  0  0  0  0  1  0  0  0  0  0  0
  188.5950  177.5070  141.4230 C   0  0  0  0  0  0  0  0  0  0  0  0
  187.5200  177.5270  142.3690 C   0  0  0  0  0  0  0  0  0  0  0  0
  188.9810  176.6280  144.0510 C   0  0  0  0  0  3  0  0  0  0  0  0
  186.7800  177.8040  139.7810 C   0  0  1  0  0  3  0  0  0  0  0  0
  190.0080  176.6420  143.1610 N   0  0  0  0  0  0  0  0  0  0  0  0
  182.5020  179.3600  139.9210 N   0  0  2  0  0  0  0  0  0  0  0  0
  182.4620  178.6470  138.6480 C   0  0  0  0  0  2  0  0  0  0  0  0
  184.3840  177.8520  139.8860 C   0  0  1  0  0  3  0  0  0  0  0  0
  183.4510  178.6540  140.7800 C   0  0  0  0  0  2  0  0  0  0  0  0
  183.5160  177.5530  138.6640 C   0  0  2  0  0  0  0  0  0  0  0  0
  184.2830  177.5720  137.3520 C   0  0  0  0  0  1  0  0  0  0  0  0
  181.1280  178.7940  141.9030 C   0  0  0  0  0  0  0  0  0  0  0  0
  180.8030  179.8410  142.9430 C   0  0  0  0  0  2  0  0  0  0  0  0
  181.1470  179.3640  140.4910 C   0  0  2  0  0  3  0  0  0  0  0  0
  179.7380  177.4890  140.6220 C   0  0  0  0  0  0  0  0  0  0  0  0
  180.2450  177.5720  142.0150 C   0  0  0  0  0  2  0  0  0  0  0  0
  182.1560  179.1470  142.9530 C   0  0  0  0  0  2  0  0  0  0  0  0
  180.2360  178.4960  139.7500 N   0  0  0  0  0  2  0  0  0  0  0  0
  178.9350  176.6030  140.2340 O   0  0  0  0  0  0  0  0  0  0  0  0
  182.8640  176.1800  138.8660 C   0  0  0  0  0  2  0  0  0  0  0  0
  182.1280  175.6810  137.6280 C   0  0  0  0  0  1  0  0  0  0  0  0
  189.1000  177.1040  138.9010 C   0  0  1  0  0  3  0  0  0  0  0  0
  188.2380  176.5660  137.7220 C   0  0  1  0  0  3  0  0  0  0  0  0
  188.6210  177.1360  136.3530 C   0  0  1  0  0  3  0  0  0  0  0  0
  188.6340  176.1070  135.3860 O   0  0  0  0  0  0  0  0  0  0  0  0
  189.6620  174.6390  137.7560 O   0  0  0  0  0  1  0  0  0  0  0  0
  188.3610  175.0810  137.4900 C   0  0  2  0  0  3  0  0  0  0  0  0
  188.1190  174.9520  136.0040 C   0  0  1  0  0  3  0  0  0  0  0  0
  187.6760  178.2070  135.9150 C   0  0  0  0  0  0  0  0  0  0  0  0
  187.0750  178.1490  134.6620 O   0  0  0  0  0  0  0  0  0  0  0  0
  187.4590  179.1930  136.6640 O   0  0  0  0  0  1  0  0  0  0  0  0
  185.8510  174.9020  136.8260 O   0  0  0  0  0  1  0  0  0  0  0  0
  186.6270  174.7910  135.6690 C   0  0  2  0  0  3  0  0  0  0  0  0
  187.3100  172.6690  134.7880 O   0  0  0  0  0  1  0  0  0  0  0  0
  185.0780  173.1350  134.5940 O   0  0  0  0  0  0  0  0  0  0  0  0
  186.3630  173.4730  135.0010 C   0  0  0  0  0  0  0  0  0  0  0  0
  190.4220  177.7280  138.3880 C   0  0  0  0  0  2  0  0  0  0  0  0
  191.6790  177.0540  138.8620 C   0  0  0  0  0  0  0  0  0  0  0  0
  192.3410  177.5360  139.7660 O   0  0  0  0  0  0  0  0  0  0  0  0
  192.1090  175.7710  138.2320 C   0  0  0  0  0  2  0  0  0  0  0  0
  192.8400  176.0730  136.6120 S   0  0  1  0  0  0  0  0  0  0  0  0
  194.1430  176.7910  136.9360 O   0  0  0  0  0  0  0  0  0  0  0  0
  193.3910  174.4380  136.1050 C   0  0  0  0  0  1  0  0  0  0  0  0
  1  7  1  6  0  0  0
  1  8  1  0  0  0  0
  2 12  1  0  0  0  0
  3 10  1  0  0  0  0
  4  9  1  0  0  0  0
  5  4  1  1  0  0  0
  6 11  1  0  0  0  0
  6 15  1  1  0  0  0
  6  5  1  0  0  0  0
  8  2  2  0  0  0  0
  8  9  1  0  0  0  0
  9  3  2  0  0  0  0
 11  1  1  0  0  0  0
 11  5  1  0  0  0  0
 12 10  2  0  0  0  0
 13 21  1  0  0  0  0
 13 16  1  0  0  0  0
 14 17  1  0  0  0  0
 14 13  1  0  0  0  0
 15 16  1  0  0  0  0
 17 27  1  0  0  0  0
 17 15  1  0  0  0  0
 18 17  1  0  0  0  0
 19 23  1  0  0  0  0
 19 20  1  0  0  0  0
 19 24  1  0  0  0  0
 20 24  1  0  0  0  0
 21 19  1  0  0  0  0
 22 23  1  0  0  0  0
 25 21  1  0  0  0  0
 25 22  1  0  0  0  0
 26 22  2  0  0  0  0
 28 27  1  0  0  0  0
 29  1  1  0  0  0  0
 30 29  1  0  0  0  0
 31 30  1  0  0  0  0
 32 35  1  0  0  0  0
 32 31  1  0  0  0  0
 34 30  1  0  0  0  0
 34 33  1  0  0  0  0
 35 34  1  0  0  0  0
 36 31  1  0  0  0  0
 36 38  1  0  0  0  0
 37 36  2  0  0  0  0
 40 35  1  0  0  0  0
 40 39  1  0  0  0  0
 41 43  1  0  0  0  0
 42 43  2  0  0  0  0
 43 40  1  0  0  0  0
 44 45  1  0  0  0  0
 44 29  1  0  0  0  0
 45 46  2  0  0  0  0
 47 45  1  0  0  0  0
 48 49  2  0  0  0  0
 48 47  1  0  0  0  0
 50 48  1  0  0  0  0
M  END
>  <MODEL>
2

>  <REMARK>
 VINA RESULT:      -5.3      1.327      1.869
  Name = 
  12 active torsions:
  status: ('A' for Active; 'I' for Inactive)
    1  A    between atoms: C_1  and  S_16
    2  A    between atoms: C_1  and  C_31
    3  A    between atoms: C_2  and  C_19
    4  A    between atoms: C_2  and  C_31
    5  A    between atoms: C_3  and  C_19
    6  A    between atoms: C_4  and  C_12
    7  A    between atoms: C_5  and  C_19
    8  A    between atoms: N_6  and  C_21
    9  A    between atoms: C_10  and  N_33
   10  A    between atoms: C_23  and  C_36
   11  A    between atoms: C_25  and  C_27
   12  A    between atoms: C_36  and  C_46
                            x       y       z     vdW  Elec       q    Type
                         _______ _______ _______ _____ _____    ______ ____

>  <TORSDO>
F 12

$$$$
=
 OpenBabel11062414283D

 50 56  0  0  1  0  0  0  0  0999 V2000
  181.3750  177.0660  136.0920 C   0  0  1  0  0  0  0  0  0  0  0  0
  179.4290  175.8600  137.3600 C   0  0  0  0  0  3  0  0  0  0  0  0
  180.9560  173.5550  137.6830 C   0  0  0  0  0  3  0  0  0  0  0  0
  182.7950  174.5590  136.3940 N   0  0  0  0  0  2  0  0  0  0  0  0
  182.9660  175.5800  135.3730 C   0  0  2  0  0  3  0  0  0  0  0  0
  184.0810  176.5160  135.3530 N   0  0  1  0  0  0  0  0  0  0  0  0
  180.9680  177.0910  134.7470 O   0  0  0  0  0  1  0  0  0  0  0  0
  180.7280  175.8470  136.8370 C   0  0  0  0  0  0  0  0  0  0  0  0
  181.4860  174.6410  136.9910 C   0  0  0  0  0  0  0  0  0  0  0  0
  179.6610  173.6460  138.1950 C   0  0  0  0  0  3  0  0  0  0  0  0
  182.9150  176.8100  136.2300 C   0  0  1  0  0  3  0  0  0  0  0  0
  178.9310  174.7790  138.0170 N   0  0  0  0  0  0  0  0  0  0  0  0
  186.6010  174.6710  134.7820 N   0  0  2  0  0  0  0  0  0  0  0  0
  187.2540  175.9640  134.9560 C   0  0  0  0  0  2  0  0  0  0  0  0
  185.1750  176.0070  136.1950 C   0  0  1  0  0  3  0  0  0  0  0  0
  185.5350  174.5890  135.7770 C   0  0  0  0  0  2  0  0  0  0  0  0
  186.4850  176.7660  135.9930 C   0  0  2  0  0  0  0  0  0  0  0  0
  186.2950  178.1880  135.4890 C   0  0  0  0  0  1  0  0  0  0  0  0
  187.1310  172.5530  135.9520 C   0  0  0  0  0  0  0  0  0  0  0  0
  186.8900  171.2180  135.2840 C   0  0  0  0  0  2  0  0  0  0  0  0
  187.6070  173.6160  134.9720 C   0  0  2  0  0  3  0  0  0  0  0  0
  189.0590  173.4580  136.8110 C   0  0  0  0  0  0  0  0  0  0  0  0
  188.0350  172.4410  137.1590 C   0  0  0  0  0  2  0  0  0  0  0  0
  185.7360  171.9700  135.9310 C   0  0  0  0  0  2  0  0  0  0  0  0
  188.8330  174.1280  135.5770 N   0  0  0  0  0  2  0  0  0  0  0  0
  190.0490  173.7140  137.5420 O   0  0  0  0  0  0  0  0  0  0  0  0
  187.2390  176.7840  137.3270 C   0  0  0  0  0  2  0  0  0  0  0  0
  187.4360  178.1890  137.8840 C   0  0  0  0  0  1  0  0  0  0  0  0
  180.9870  178.4370  136.7600 C   0  0  1  0  0  3  0  0  0  0  0  0
  181.2740  178.5390  138.2870 C   0  0  1  0  0  3  0  0  0  0  0  0
  182.1940  179.7000  138.6750 C   0  0  1  0  0  3  0  0  0  0  0  0
  181.6970  180.3470  139.8280 O   0  0  0  0  0  0  0  0  0  0  0  0
  179.1550  179.6440  138.4600 O   0  0  0  0  0  1  0  0  0  0  0  0
  180.0540  178.8080  139.1310 C   0  0  2  0  0  3  0  0  0  0  0  0
  180.6190  179.5760  140.3030 C   0  0  1  0  0  3  0  0  0  0  0  0
  183.5890  179.2360  138.9380 C   0  0  0  0  0  0  0  0  0  0  0  0
  183.8460  177.9020  139.2390 O   0  0  0  0  0  1  0  0  0  0  0  0
  184.5340  180.0660  138.9370 O   0  0  0  0  0  0  0  0  0  0  0  0
  180.3350  177.4710  141.4490 O   0  0  0  0  0  1  0  0  0  0  0  0
  181.0900  178.6480  141.4350 C   0  0  2  0  0  3  0  0  0  0  0  0
  181.5740  178.8440  143.7750 O   0  0  0  0  0  1  0  0  0  0  0  0
  180.2500  180.4980  142.9090 O   0  0  0  0  0  0  0  0  0  0  0  0
  180.9940  179.3320  142.7680 C   0  0  0  0  0  0  0  0  0  0  0  0
  181.5060  179.6880  136.0080 C   0  0  0  0  0  2  0  0  0  0  0  0
  180.4500  180.5120  135.3250 C   0  0  0  0  0  0  0  0  0  0  0  0
  179.3470  180.0460  135.0950 O   0  0  0  0  0  0  0  0  0  0  0  0
  180.7520  181.9230  134.9410 C   0  0  0  0  0  2  0  0  0  0  0  0
  180.1540  183.0660  136.2000 S   0  0  1  0  0  0  0  0  0  0  0  0
  181.3530  183.9670  136.4630 O   0  0  0  0  0  0  0  0  0  0  0  0
  179.0360  184.1330  135.2810 C   0  0  0  0  0  1  0  0  0  0  0  0
  1  7  1  6  0  0  0
  1 11  1  0  0  0  0
  1 29  1  0  0  0  0
  1  8  1  0  0  0  0
  2 12  1  0  0  0  0
  3 10  1  0  0  0  0
  4  9  1  0  0  0  0
  5 11  1  0  0  0  0
  5  4  1  1  0  0  0
  6  5  1  0  0  0  0
  6 15  1  1  0  0  0
  6 11  1  0  0  0  0
  8  9  1  0  0  0  0
  8  2  2  0  0  0  0
  9  3  2  0  0  0  0
 12 10  2  0  0  0  0
 13 14  1  0  0  0  0
 13 21  1  0  0  0  0
 13 16  1  0  0  0  0
 14 17  1  0  0  0  0
 16 15  1  0  0  0  0
 17 15  1  0  0  0  0
 17 27  1  0  0  0  0
 18 17  1  0  0  0  0
 19 23  1  0  0  0  0
 20 24  1  0  0  0  0
 20 19  1  0  0  0  0
 21 25  1  0  0  0  0
 21 19  1  0  0  0  0
 22 23  1  0  0  0  0
 22 26  2  0  0  0  0
 24 19  1  0  0  0  0
 25 22  1  0  0  0  0
 27 28  1  0  0  0  0
 29 30  1  0  0  0  0
 30 31  1  0  0  0  0
 30 34  1  0  0  0  0
 31 36  1  0  0  0  0
 31 32  1  0  0  0  0
 32 35  1  0  0  0  0
 33 34  1  0  0  0  0
 34 35  1  0  0  0  0
 35 40  1  0  0  0  0
 36 37  1  0  0  0  0
 38 36  2  0  0  0  0
 40 39  1  0  0  0  0
 40 43  1  0  0  0  0
 43 42  2  0  0  0  0
 43 41  1  0  0  0  0
 44 29  1  0  0  0  0
 45 44  1  0  0  0  0
 46 45  2  0  0  0  0
 47 45  1  0  0  0  0
 47 48  1  0  0  0  0
 48 49  2  0  0  0  0
 50 48  1  0  0  0  0
M  END
>  <MODEL>
3

>  <REMARK>
 VINA RESULT:      -4.9      4.210      9.895
  Name = 
  12 active torsions:
  status: ('A' for Active; 'I' for Inactive)
    1  A    between atoms: C_1  and  S_16
    2  A    between atoms: C_1  and  C_31
    3  A    between atoms: C_2  and  C_19
    4  A    between atoms: C_2  and  C_31
    5  A    between atoms: C_3  and  C_19
    6  A    between atoms: C_4  and  C_12
    7  A    between atoms: C_5  and  C_19
    8  A    between atoms: N_6  and  C_21
    9  A    between atoms: C_10  and  N_33
   10  A    between atoms: C_23  and  C_36
   11  A    between atoms: C_25  and  C_27
   12  A    between atoms: C_36  and  C_46
                            x       y       z     vdW  Elec       q    Type
                         _______ _______ _______ _____ _____    ______ ____

>  <TORSDO>
F 12

$$$$
=
 OpenBabel11062414283D

 50 56  0  0  1  0  0  0  0  0999 V2000
  187.5840  178.4660  141.1870 C   0  0  1  0  0  0  0  0  0  0  0  0
  188.2850  177.7600  143.6070 C   0  0  0  0  0  3  0  0  0  0  0  0
  185.6470  177.8610  144.4910 C   0  0  0  0  0  3  0  0  0  0  0  0
  184.9070  178.6500  142.2810 N   0  0  0  0  0  2  0  0  0  0  0  0
  185.4720  179.3580  141.1430 C   0  0  2  0  0  3  0  0  0  0  0  0
  185.1710  179.0220  139.7590 N   0  0  1  0  0  0  0  0  0  0  0  0
  188.0160  179.7980  141.0620 O   0  0  0  0  0  1  0  0  0  0  0  0
  187.2920  178.1260  142.6890 C   0  0  0  0  0  0  0  0  0  0  0  0
  185.9450  178.1970  143.1720 C   0  0  0  0  0  0  0  0  0  0  0  0
  186.6840  177.4860  145.3450 C   0  0  0  0  0  3  0  0  0  0  0  0
  186.2060  178.2310  140.4790 C   0  0  1  0  0  3  0  0  0  0  0  0
  187.9670  177.4530  144.8940 N   0  0  0  0  0  0  0  0  0  0  0  0
  182.1520  179.7080  139.0530 N   0  0  2  0  0  0  0  0  0  0  0  0
  182.5370  178.9540  137.8640 C   0  0  0  0  0  2  0  0  0  0  0  0
  183.9380  178.2210  139.6970 C   0  0  1  0  0  3  0  0  0  0  0  0
  182.7610  179.0410  140.2020 C   0  0  0  0  0  2  0  0  0  0  0  0
  183.5260  177.8720  138.2680 C   0  0  2  0  0  0  0  0  0  0  0  0
  184.6850  177.8570  137.2850 C   0  0  0  0  0  1  0  0  0  0  0  0
  180.1190  181.1220  138.9970 C   0  0  0  0  0  0  0  0  0  0  0  0
  179.3370  181.3020  137.7150 C   0  0  0  0  0  2  0  0  0  0  0  0
  180.6850  179.7150  139.1400 C   0  0  2  0  0  3  0  0  0  0  0  0
  179.4530  180.3240  141.0450 C   0  0  0  0  0  0  0  0  0  0  0  0
  179.3370  181.5510  140.2180 C   0  0  0  0  0  2  0  0  0  0  0  0
  180.6040  182.1090  137.9600 C   0  0  0  0  0  2  0  0  0  0  0  0
  180.2080  179.2770  140.4480 N   0  0  0  0  0  2  0  0  0  0  0  0
  178.9310  180.2100  142.1820 O   0  0  0  0  0  0  0  0  0  0  0  0
  182.8430  176.5000  138.2880 C   0  0  0  0  0  2  0  0  0  0  0  0
  182.0310  176.2170  137.0300 C   0  0  0  0  0  1  0  0  0  0  0  0
  188.6830  177.5220  140.5730 C   0  0  1  0  0  3  0  0  0  0  0  0
  188.5760  177.2870  139.0380 C   0  0  1  0  0  3  0  0  0  0  0  0
  189.4420  178.2290  138.1970 C   0  0  1  0  0  3  0  0  0  0  0  0
  190.0840  177.5070  137.1670 O   0  0  0  0  0  0  0  0  0  0  0  0
  190.1380  175.4980  139.3550 O   0  0  0  0  0  1  0  0  0  0  0  0
  189.0540  175.9300  138.5840 C   0  0  2  0  0  3  0  0  0  0  0  0
  189.5550  176.2020  137.1850 C   0  0  1  0  0  3  0  0  0  0  0  0
  188.6350  179.3310  137.5920 C   0  0  0  0  0  0  0  0  0  0  0  0
  187.4150  179.0590  136.9810 O   0  0  0  0  0  0  0  0  0  0  0  0
  189.0830  180.5050  137.5910 O   0  0  0  0  0  1  0  0  0  0  0  0
  187.2450  175.6700  136.7320 O   0  0  0  0  0  1  0  0  0  0  0  0
  188.4440  176.0660  136.1310 C   0  0  2  0  0  3  0  0  0  0  0  0
  187.9720  174.2860  134.5960 O   0  0  0  0  0  0  0  0  0  0  0  0
  190.1370  175.0280  134.5970 O   0  0  0  0  0  1  0  0  0  0  0  0
  188.8290  175.0830  135.0640 C   0  0  0  0  0  0  0  0  0  0  0  0
  190.1350  177.8720  140.9860 C   0  0  0  0  0  2  0  0  0  0  0  0
  190.7520  176.9570  142.0070 C   0  0  0  0  0  0  0  0  0  0  0  0
  190.1570  175.9670  142.3970 O   0  0  0  0  0  0  0  0  0  0  0  0
  192.1170  177.2560  142.5330 C   0  0  0  0  0  2  0  0  0  0  0  0
  192.0170  178.2790  144.0130 S   0  0  1  0  0  0  0  0  0  0  0  0
  190.7940  179.1510  143.7640 O   0  0  0  0  0  0  0  0  0  0  0  0
  191.4460  177.1240  145.2670 C   0  0  0  0  0  1  0  0  0  0  0  0
  1  7  1  6  0  0  0
  1  8  1  0  0  0  0
  2 12  1  0  0  0  0
  3 10  1  0  0  0  0
  4  9  1  0  0  0  0
  5  4  1  1  0  0  0
  6 15  1  1  0  0  0
  6 11  1  0  0  0  0
  6  5  1  0  0  0  0
  8  9  1  0  0  0  0
  8  2  2  0  0  0  0
  9  3  2  0  0  0  0
 11  5  1  0  0  0  0
 11  1  1  0  0  0  0
 12 10  2  0  0  0  0
 13 21  1  0  0  0  0
 13 16  1  0  0  0  0
 14 17  1  0  0  0  0
 14 13  1  0  0  0  0
 15 16  1  0  0  0  0
 17 27  1  0  0  0  0
 17 15  1  0  0  0  0
 18 17  1  0  0  0  0
 19 21  1  0  0  0  0
 19 23  1  0  0  0  0
 20 24  1  0  0  0  0
 20 19  1  0  0  0  0
 21 25  1  0  0  0  0
 22 26  2  0  0  0  0
 23 22  1  0  0  0  0
 24 19  1  0  0  0  0
 25 22  1  0  0  0  0
 28 27  1  0  0  0  0
 29 44  1  0  0  0  0
 29  1  1  0  0  0  0
 30 29  1  0  0  0  0
 31 30  1  0  0  0  0
 32 35  1  0  0  0  0
 32 31  1  0  0  0  0
 34 30  1  0  0  0  0
 34 33  1  0  0  0  0
 35 34  1  0  0  0  0
 36 31  1  0  0  0  0
 37 36  2  0  0  0  0
 38 36  1  0  0  0  0
 40 39  1  0  0  0  0
 40 35  1  0  0  0  0
 41 43  2  0  0  0  0
 42 43  1  0  0  0  0
 43 40  1  0  0  0  0
 44 45  1  0  0  0  0
 45 46  2  0  0  0  0
 45 47  1  0  0  0  0
 47 48  1  0  0  0  0
 48 50  1  0  0  0  0
 49 48  2  0  0  0  0
M  END
>  <MODEL>
4

>  <REMARK>
 VINA RESULT:      -4.7      2.005      2.951
  Name = 
  12 active torsions:
  status: ('A' for Active; 'I' for Inactive)
    1  A    between atoms: C_1  and  S_16
    2  A    between atoms: C_1  and  C_31
    3  A    between atoms: C_2  and  C_19
    4  A    between atoms: C_2  and  C_31
    5  A    between atoms: C_3  and  C_19
    6  A    between atoms: C_4  and  C_12
    7  A    between atoms: C_5  and  C_19
    8  A    between atoms: N_6  and  C_21
    9  A    between atoms: C_10  and  N_33
   10  A    between atoms: C_23  and  C_36
   11  A    between atoms: C_25  and  C_27
   12  A    between atoms: C_36  and  C_46
                            x       y       z     vdW  Elec       q    Type
                         _______ _______ _______ _____ _____    ______ ____

>  <TORSDO>
F 12

$$$$
=
 OpenBabel11062414283D

 50 56  0  0  1  0  0  0  0  0999 V2000
  185.6430  177.9240  138.0060 C   0  0  1  0  0  0  0  0  0  0  0  0
  186.0600  176.4460  135.8880 C   0  0  0  0  0  3  0  0  0  0  0  0
  188.6050  175.7480  136.7730 C   0  0  0  0  0  3  0  0  0  0  0  0
  188.3550  177.2130  138.7350 N   0  0  0  0  0  2  0  0  0  0  0  0
  187.5970  178.3960  139.1090 C   0  0  2  0  0  3  0  0  0  0  0  0
  187.0100  178.5890  140.4270 N   0  0  1  0  0  0  0  0  0  0  0  0
  185.7290  179.2490  137.5430 O   0  0  0  0  0  1  0  0  0  0  0  0
  186.5060  176.9740  137.1060 C   0  0  0  0  0  0  0  0  0  0  0  0
  187.8290  176.6230  137.5290 C   0  0  0  0  0  0  0  0  0  0  0  0
  188.0900  175.2450  135.5790 C   0  0  0  0  0  3  0  0  0  0  0  0
  186.2760  177.7630  139.4310 C   0  0  1  0  0  3  0  0  0  0  0  0
  186.8470  175.6070  135.1620 N   0  0  0  0  0  0  0  0  0  0  0  0
  189.4070  178.9300  142.4820 N   0  0  2  0  0  0  0  0  0  0  0  0
  188.2740  178.8890  143.4010 C   0  0  0  0  0  2  0  0  0  0  0  0
  187.6500  177.6850  141.3960 C   0  0  1  0  0  3  0  0  0  0  0  0
  189.1480  177.9430  141.4350 C   0  0  0  0  0  2  0  0  0  0  0  0
  187.2180  177.9530  142.8360 C   0  0  2  0  0  0  0  0  0  0  0  0
  185.8510  178.6090  142.9510 C   0  0  0  0  0  1  0  0  0  0  0  0
  191.2150  177.2730  142.8280 C   0  0  0  0  0  0  0  0  0  0  0  0
  192.5420  177.4160  142.1190 C   0  0  0  0  0  2  0  0  0  0  0  0
  190.6270  178.6160  143.2390 C   0  0  2  0  0  3  0  0  0  0  0  0
  190.7340  177.1500  145.0710 C   0  0  0  0  0  0  0  0  0  0  0  0
  191.2770  176.2990  143.9830 C   0  0  0  0  0  2  0  0  0  0  0  0
  191.3440  176.8280  141.3890 C   0  0  0  0  0  2  0  0  0  0  0  0
  190.3650  178.4630  144.6670 N   0  0  0  0  0  2  0  0  0  0  0  0
  190.6040  176.7520  146.2560 O   0  0  0  0  0  0  0  0  0  0  0  0
  187.2190  176.6200  143.5920 C   0  0  0  0  0  2  0  0  0  0  0  0
  187.1030  176.7890  145.1020 C   0  0  0  0  0  1  0  0  0  0  0  0
  184.1290  177.4980  138.0290 C   0  0  1  0  0  3  0  0  0  0  0  0
  183.2510  178.2120  139.0980 C   0  0  1  0  0  3  0  0  0  0  0  0
  181.9460  178.7970  138.5490 C   0  0  1  0  0  3  0  0  0  0  0  0
  180.8820  178.5200  139.4360 O   0  0  0  0  0  0  0  0  0  0  0  0
  182.4770  176.0280  139.7070 O   0  0  0  0  0  1  0  0  0  0  0  0
  182.7540  177.3090  140.1980 C   0  0  2  0  0  3  0  0  0  0  0  0
  181.4450  177.9500  140.5940 C   0  0  1  0  0  3  0  0  0  0  0  0
  182.0430  180.2740  138.3480 C   0  0  0  0  0  0  0  0  0  0  0  0
  181.0690  180.9530  137.6230 O   0  0  0  0  0  0  0  0  0  0  0  0
  183.0360  180.9010  138.7940 O   0  0  0  0  0  1  0  0  0  0  0  0
  182.5830  178.6190  142.6140 O   0  0  0  0  0  1  0  0  0  0  0  0
  181.6260  179.0250  141.6780 C   0  0  2  0  0  3  0  0  0  0  0  0
  179.4720  178.4040  142.5270 O   0  0  0  0  0  0  0  0  0  0  0  0
  180.0460  180.5990  142.8290 O   0  0  0  0  0  1  0  0  0  0  0  0
  180.3270  179.3170  142.3710 C   0  0  0  0  0  0  0  0  0  0  0  0
  183.4370  177.5050  136.6420 C   0  0  0  0  0  2  0  0  0  0  0  0
  182.5660  176.3140  136.3510 C   0  0  0  0  0  0  0  0  0  0  0  0
  181.4720  176.4550  135.8320 O   0  0  0  0  0  0  0  0  0  0  0  0
  183.0570  174.9450  136.6850 C   0  0  0  0  0  2  0  0  0  0  0  0
  183.1990  173.9390  135.1960 S   0  0  1  0  0  0  0  0  0  0  0  0
  184.4270  173.0800  135.4620 O   0  0  0  0  0  0  0  0  0  0  0  0
  181.8410  172.7730  135.3620 C   0  0  0  0  0  1  0  0  0  0  0  0
  1  7  1  6  0  0  0
  1 29  1  0  0  0  0
  1 11  1  0  0  0  0
  2  8  1  0  0  0  0
  3  9  1  0  0  0  0
  5  4  1  1  0  0  0
  5 11  1  0  0  0  0
  5  6  1  0  0  0  0
  6 15  1  1  0  0  0
  8  9  2  0  0  0  0
  8  1  1  0  0  0  0
  9  4  1  0  0  0  0
 10  3  2  0  0  0  0
 11  6  1  0  0  0  0
 12 10  1  0  0  0  0
 12  2  2  0  0  0  0
 13 21  1  0  0  0  0
 13 14  1  0  0  0  0
 15 16  1  0  0  0  0
 15 17  1  0  0  0  0
 16 13  1  0  0  0  0
 17 18  1  0  0  0  0
 17 14  1  0  0  0  0
 17 27  1  0  0  0  0
 19 21  1  0  0  0  0
 19 23  1  0  0  0  0
 20 19  1  0  0  0  0
 21 25  1  0  0  0  0
 22 26  2  0  0  0  0
 23 22  1  0  0  0  0
 24 20  1  0  0  0  0
 24 19  1  0  0  0  0
 25 22  1  0  0  0  0
 27 28  1  0  0  0  0
 29 30  1  0  0  0  0
 30 34  1  0  0  0  0
 31 30  1  0  0  0  0
 31 32  1  0  0  0  0
 32 35  1  0  0  0  0
 33 34  1  0  0  0  0
 34 35  1  0  0  0  0
 35 40  1  0  0  0  0
 36 31  1  0  0  0  0
 36 38  1  0  0  0  0
 37 36  2  0  0  0  0
 40 43  1  0  0  0  0
 40 39  1  0  0  0  0
 43 41  2  0  0  0  0
 43 42  1  0  0  0  0
 44 29  1  0  0  0  0
 45 44  1  0  0  0  0
 45 47  1  0  0  0  0
 46 45  2  0  0  0  0
 48 50  1  0  0  0  0
 48 49  2  0  0  0  0
 48 47  1  0  0  0  0
M  END
>  <MODEL>
5

>  <REMARK>
 VINA RESULT:      -4.4      3.245      8.492
  Name = 
  12 active torsions:
  status: ('A' for Active; 'I' for Inactive)
    1  A    between atoms: C_1  and  S_16
    2  A    between atoms: C_1  and  C_31
    3  A    between atoms: C_2  and  C_19
    4  A    between atoms: C_2  and  C_31
    5  A    between atoms: C_3  and  C_19
    6  A    between atoms: C_4  and  C_12
    7  A    between atoms: C_5  and  C_19
    8  A    between atoms: N_6  and  C_21
    9  A    between atoms: C_10  and  N_33
   10  A    between atoms: C_23  and  C_36
   11  A    between atoms: C_25  and  C_27
   12  A    between atoms: C_36  and  C_46
                            x       y       z     vdW  Elec       q    Type
                         _______ _______ _______ _____ _____    ______ ____

>  <TORSDO>
F 12

$$$$
=
 OpenBabel11062414283D

 50 56  0  0  1  0  0  0  0  0999 V2000
  188.5390  177.9010  139.0750 C   0  0  1  0  0  0  0  0  0  0  0  0
  188.2610  178.6300  141.5720 C   0  0  0  0  0  3  0  0  0  0  0  0
  185.4870  178.6620  141.3410 C   0  0  0  0  0  3  0  0  0  0  0  0
  185.6510  178.1000  138.9510 N   0  0  0  0  0  2  0  0  0  0  0  0
  186.6160  178.2430  137.8730 C   0  0  2  0  0  3  0  0  0  0  0  0
  186.8550  177.2160  136.8690 N   0  0  1  0  0  0  0  0  0  0  0  0
  189.0090  179.0500  138.4140 O   0  0  0  0  0  1  0  0  0  0  0  0
  187.6950  178.3010  140.3340 C   0  0  0  0  0  0  0  0  0  0  0  0
  186.2670  178.3500  140.2300 C   0  0  0  0  0  0  0  0  0  0  0  0
  186.1180  178.9600  142.5490 C   0  0  0  0  0  3  0  0  0  0  0  0
  187.5270  177.0940  138.1910 C   0  0  1  0  0  3  0  0  0  0  0  0
  187.4750  178.9470  142.6360 N   0  0  0  0  0  0  0  0  0  0  0  0
  184.0970  177.1660  135.2950 N   0  0  2  0  0  0  0  0  0  0  0  0
  184.8190  176.1060  134.5990 C   0  0  0  0  0  2  0  0  0  0  0  0
  185.7230  176.2760  136.8380 C   0  0  1  0  0  3  0  0  0  0  0  0
  184.4150  177.0420  136.7160 C   0  0  0  0  0  2  0  0  0  0  0  0
  185.7190  175.3900  135.5930 C   0  0  2  0  0  0  0  0  0  0  0  0
  187.0950  175.1970  134.9770 C   0  0  0  0  0  1  0  0  0  0  0  0
  181.8220  177.3650  136.2550 C   0  0  0  0  0  0  0  0  0  0  0  0
  180.9910  178.6060  136.0250 C   0  0  0  0  0  2  0  0  0  0  0  0
  182.6600  176.9920  135.0400 C   0  0  2  0  0  3  0  0  0  0  0  0
  181.3760  175.1650  135.7680 C   0  0  0  0  0  0  0  0  0  0  0  0
  180.9990  176.2020  136.7610 C   0  0  0  0  0  2  0  0  0  0  0  0
  182.0770  178.5990  137.0910 C   0  0  0  0  0  2  0  0  0  0  0  0
  182.3110  175.5980  134.7870 N   0  0  0  0  0  2  0  0  0  0  0  0
  180.9130  173.9960  135.7840 O   0  0  0  0  0  0  0  0  0  0  0  0
  185.1240  174.0300  135.9750 C   0  0  0  0  0  2  0  0  0  0  0  0
  184.6440  173.9730  137.4200 C   0  0  0  0  0  1  0  0  0  0  0  0
  189.7720  177.0010  139.4550 C   0  0  1  0  0  3  0  0  0  0  0  0
  190.6880  176.5880  138.2660 C   0  0  1  0  0  3  0  0  0  0  0  0
  191.9610  175.8460  138.6830 C   0  0  1  0  0  3  0  0  0  0  0  0
  192.1850  174.7500  137.8200 O   0  0  0  0  0  0  0  0  0  0  0  0
  189.2190  174.7170  137.9780 O   0  0  0  0  0  1  0  0  0  0  0  0
  190.0550  175.6140  137.3040 C   0  0  2  0  0  3  0  0  0  0  0  0
  191.2420  174.8410  136.7790 C   0  0  1  0  0  3  0  0  0  0  0  0
  193.1560  176.7400  138.6580 C   0  0  0  0  0  0  0  0  0  0  0  0
  193.7180  177.2030  139.8440 O   0  0  0  0  0  1  0  0  0  0  0  0
  193.6310  177.1180  137.5570 O   0  0  0  0  0  0  0  0  0  0  0  0
  190.8970  175.8040  134.5940 O   0  0  0  0  0  1  0  0  0  0  0  0
  191.8750  175.5100  135.5480 C   0  0  2  0  0  3  0  0  0  0  0  0
  192.7010  173.4130  134.7300 O   0  0  0  0  0  1  0  0  0  0  0  0
  194.1830  175.1540  134.6280 O   0  0  0  0  0  0  0  0  0  0  0  0
  192.9330  174.6340  134.9420 C   0  0  0  0  0  0  0  0  0  0  0  0
  190.6080  177.5260  140.6490 C   0  0  0  0  0  2  0  0  0  0  0  0
  190.6690  176.6150  141.8430 C   0  0  0  0  0  0  0  0  0  0  0  0
  189.9260  175.6520  141.9300 O   0  0  0  0  0  0  0  0  0  0  0  0
  191.6630  176.8830  142.9230 C   0  0  0  0  0  2  0  0  0  0  0  0
  190.8640  177.6420  144.3490 S   0  0  1  0  0  0  0  0  0  0  0  0
  191.8810  177.4610  145.4680 O   0  0  0  0  0  0  0  0  0  0  0  0
  190.9670  179.4000  143.9850 C   0  0  0  0  0  1  0  0  0  0  0  0
  1  7  1  6  0  0  0
  1 29  1  0  0  0  0
  1  8  1  0  0  0  0
  2 12  1  0  0  0  0
  3 10  1  0  0  0  0
  4  9  1  0  0  0  0
  5 11  1  0  0  0  0
  5  4  1  1  0  0  0
  6 15  1  1  0  0  0
  6  5  1  0  0  0  0
  6 11  1  0  0  0  0
  8  2  2  0  0  0  0
  9  8  1  0  0  0  0
  9  3  2  0  0  0  0
 10 12  2  0  0  0  0
 11  1  1  0  0  0  0
 13 16  1  0  0  0  0
 14 13  1  0  0  0  0
 14 17  1  0  0  0  0
 16 15  1  0  0  0  0
 17 27  1  0  0  0  0
 17 15  1  0  0  0  0
 18 17  1  0  0  0  0
 19 23  1  0  0  0  0
 19 24  1  0  0  0  0
 20 19  1  0  0  0  0
 20 24  1  0  0  0  0
 21 13  1  0  0  0  0
 21 19  1  0  0  0  0
 22 26  2  0  0  0  0
 22 23  1  0  0  0  0
 25 21  1  0  0  0  0
 25 22  1  0  0  0  0
 27 28  1  0  0  0  0
 29 44  1  0  0  0  0
 30 31  1  0  0  0  0
 30 29  1  0  0  0  0
 32 31  1  0  0  0  0
 34 33  1  0  0  0  0
 34 30  1  0  0  0  0
 35 34  1  0  0  0  0
 35 32  1  0  0  0  0
 36 31  1  0  0  0  0
 36 37  1  0  0  0  0
 38 36  2  0  0  0  0
 39 40  1  0  0  0  0
 40 35  1  0  0  0  0
 41 43  1  0  0  0  0
 42 43  2  0  0  0  0
 43 40  1  0  0  0  0
 44 45  1  0  0  0  0
 45 46  2  0  0  0  0
 45 47  1  0  0  0  0
 47 48  1  0  0  0  0
 48 49  2  0  0  0  0
 50 48  1  0  0  0  0
M  END
>  <MODEL>
6

>  <REMARK>
 VINA RESULT:      -4.2      3.082      5.062
  Name = 
  12 active torsions:
  status: ('A' for Active; 'I' for Inactive)
    1  A    between atoms: C_1  and  S_16
    2  A    between atoms: C_1  and  C_31
    3  A    between atoms: C_2  and  C_19
    4  A    between atoms: C_2  and  C_31
    5  A    between atoms: C_3  and  C_19
    6  A    between atoms: C_4  and  C_12
    7  A    between atoms: C_5  and  C_19
    8  A    between atoms: N_6  and  C_21
    9  A    between atoms: C_10  and  N_33
   10  A    between atoms: C_23  and  C_36
   11  A    between atoms: C_25  and  C_27
   12  A    between atoms: C_36  and  C_46
                            x       y       z     vdW  Elec       q    Type
                         _______ _______ _______ _____ _____    ______ ____

>  <TORSDO>
F 12

$$$$
=
 OpenBabel11062414283D

 50 56  0  0  1  0  0  0  0  0999 V2000
  186.9910  178.4500  141.2820 C   0  0  1  0  0  0  0  0  0  0  0  0
  186.8400  178.3980  143.8940 C   0  0  0  0  0  3  0  0  0  0  0  0
  184.0580  178.3200  143.8150 C   0  0  0  0  0  3  0  0  0  0  0  0
  184.0950  178.4940  141.3610 N   0  0  0  0  0  2  0  0  0  0  0  0
  184.9820  179.0060  140.3280 C   0  0  2  0  0  3  0  0  0  0  0  0
  185.2020  178.3350  139.0550 N   0  0  1  0  0  0  0  0  0  0  0  0
  187.3640  179.7690  140.9690 O   0  0  0  0  0  1  0  0  0  0  0  0
  186.2120  178.4100  142.6420 C   0  0  0  0  0  0  0  0  0  0  0  0
  184.7790  178.3970  142.6260 C   0  0  0  0  0  0  0  0  0  0  0  0
  184.7500  178.2910  145.0250 C   0  0  0  0  0  3  0  0  0  0  0  0
  185.9630  177.8740  140.2480 C   0  0  1  0  0  3  0  0  0  0  0  0
  186.1090  178.3390  145.0400 N   0  0  0  0  0  0  0  0  0  0  0  0
  182.8140  178.2410  136.9660 N   0  0  2  0  0  0  0  0  0  0  0  0
  183.6770  177.1950  136.4280 C   0  0  0  0  0  2  0  0  0  0  0  0
  184.1160  177.3760  138.8010 C   0  0  1  0  0  3  0  0  0  0  0  0
  182.8450  178.1200  138.4210 C   0  0  0  0  0  2  0  0  0  0  0  0
  184.3740  176.4930  137.5810 C   0  0  2  0  0  0  0  0  0  0  0  0
  185.8480  176.3240  137.2510 C   0  0  0  0  0  1  0  0  0  0  0  0
  180.5020  179.1290  136.9030 C   0  0  0  0  0  0  0  0  0  0  0  0
  180.0490  180.0300  135.7760 C   0  0  0  0  0  2  0  0  0  0  0  0
  181.4590  178.0430  136.4300 C   0  0  2  0  0  3  0  0  0  0  0  0
  179.6620  177.1180  137.6260 C   0  0  0  0  0  0  0  0  0  0  0  0
  179.3440  178.5660  137.6950 C   0  0  0  0  0  2  0  0  0  0  0  0
  180.8620  180.5970  136.9310 C   0  0  0  0  0  2  0  0  0  0  0  0
  180.8520  176.8060  136.9120 N   0  0  0  0  0  2  0  0  0  0  0  0
  178.9450  176.2300  138.1540 O   0  0  0  0  0  0  0  0  0  0  0  0
  183.7390  175.1220  137.8400 C   0  0  0  0  0  2  0  0  0  0  0  0
  184.4170  173.9940  137.0720 C   0  0  0  0  0  1  0  0  0  0  0  0
  188.2860  177.5570  141.3200 C   0  0  1  0  0  3  0  0  0  0  0  0
  188.8380  177.1250  139.9310 C   0  0  1  0  0  3  0  0  0  0  0  0
  189.6610  178.2020  139.2190 C   0  0  1  0  0  3  0  0  0  0  0  0
  190.8170  177.6280  138.6460 O   0  0  0  0  0  0  0  0  0  0  0  0
  190.5920  176.0240  141.1360 O   0  0  0  0  0  1  0  0  0  0  0  0
  189.8060  175.9690  139.9800 C   0  0  2  0  0  3  0  0  0  0  0  0
  190.7040  176.2330  138.7930 C   0  0  1  0  0  3  0  0  0  0  0  0
  188.8730  178.8850  138.1500 C   0  0  0  0  0  0  0  0  0  0  0  0
  187.9760  178.1680  137.3660 O   0  0  0  0  0  0  0  0  0  0  0  0
  189.0570  180.1080  137.9230 O   0  0  0  0  0  1  0  0  0  0  0  0
  190.2160  174.2110  137.5690 O   0  0  0  0  0  1  0  0  0  0  0  0
  190.1580  175.6060  137.5000 C   0  0  2  0  0  3  0  0  0  0  0  0
  192.1540  175.8430  136.1930 O   0  0  0  0  0  1  0  0  0  0  0  0
  190.2870  176.8300  135.3120 O   0  0  0  0  0  0  0  0  0  0  0  0
  190.9230  176.0900  136.3020 C   0  0  0  0  0  0  0  0  0  0  0  0
  189.4180  178.1050  142.2260 C   0  0  0  0  0  2  0  0  0  0  0  0
  189.6880  177.3080  143.4720 C   0  0  0  0  0  0  0  0  0  0  0  0
  189.2060  176.1970  143.6170 O   0  0  0  0  0  0  0  0  0  0  0  0
  190.5710  177.8760  144.5320 C   0  0  0  0  0  2  0  0  0  0  0  0
  190.5990  176.8030  145.9800 S   0  0  1  0  0  0  0  0  0  0  0  0
  191.9320  177.1260  146.6390 O   0  0  0  0  0  0  0  0  0  0  0  0
  189.4030  177.5750  147.0790 C   0  0  0  0  0  1  0  0  0  0  0  0
  1  7  1  6  0  0  0
  1 29  1  0  0  0  0
  1  8  1  0  0  0  0
  2 12  1  0  0  0  0
  3 10  1  0  0  0  0
  4  9  1  0  0  0  0
  5  4  1  1  0  0  0
  6 15  1  1  0  0  0
  6 11  1  0  0  0  0
  6  5  1  0  0  0  0
  8  2  2  0  0  0  0
  9  8  1  0  0  0  0
  9  3  2  0  0  0  0
 10 12  2  0  0  0  0
 11  5  1  0  0  0  0
 11  1  1  0  0  0  0
 13 16  1  0  0  0  0
 14 13  1  0  0  0  0
 14 17  1  0  0  0  0
 16 15  1  0  0  0  0
 17 27  1  0  0  0  0
 17 15  1  0  0  0  0
 18 17  1  0  0  0  0
 19 24  1  0  0  0  0
 19 23  1  0  0  0  0
 20 19  1  0  0  0  0
 20 24  1  0  0  0  0
 21 19  1  0  0  0  0
 21 25  1  0  0  0  0
 21 13  1  0  0  0  0
 22 23  1  0  0  0  0
 22 26  2  0  0  0  0
 25 22  1  0  0  0  0
 28 27  1  0  0  0  0
 29 44  1  0  0  0  0
 30 34  1  0  0  0  0
 30 29  1  0  0  0  0
 31 30  1  0  0  0  0
 32 35  1  0  0  0  0
 32 31  1  0  0  0  0
 34 33  1  0  0  0  0
 35 34  1  0  0  0  0
 36 31  1  0  0  0  0
 37 36  2  0  0  0  0
 38 36  1  0  0  0  0
 40 39  1  0  0  0  0
 40 35  1  0  0  0  0
 41 43  1  0  0  0  0
 42 43  2  0  0  0  0
 43 40  1  0  0  0  0
 44 45  1  0  0  0  0
 45 46  2  0  0  0  0
 45 47  1  0  0  0  0
 47 48  1  0  0  0  0
 48 49  2  0  0  0  0
 48 50  1  0  0  0  0
M  END
>  <MODEL>
7

>  <REMARK>
 VINA RESULT:      -4.0      2.849      4.455
  Name = 
  12 active torsions:
  status: ('A' for Active; 'I' for Inactive)
    1  A    between atoms: C_1  and  S_16
    2  A    between atoms: C_1  and  C_31
    3  A    between atoms: C_2  and  C_19
    4  A    between atoms: C_2  and  C_31
    5  A    between atoms: C_3  and  C_19
    6  A    between atoms: C_4  and  C_12
    7  A    between atoms: C_5  and  C_19
    8  A    between atoms: N_6  and  C_21
    9  A    between atoms: C_10  and  N_33
   10  A    between atoms: C_23  and  C_36
   11  A    between atoms: C_25  and  C_27
   12  A    between atoms: C_36  and  C_46
                            x       y       z     vdW  Elec       q    Type
                         _______ _______ _______ _____ _____    ______ ____

>  <TORSDO>
F 12

$$$$
=
 OpenBabel11062414283D

 50 56  0  0  1  0  0  0  0  0999 V2000
  188.5550  177.0090  142.7090 C   0  0  1  0  0  0  0  0  0  0  0  0
  189.7920  178.3230  144.6030 C   0  0  0  0  0  3  0  0  0  0  0  0
  192.1280  178.4640  143.0950 C   0  0  0  0  0  3  0  0  0  0  0  0
  191.0900  177.1240  141.3110 N   0  0  0  0  0  2  0  0  0  0  0  0
  190.0270  176.1420  141.1790 C   0  0  2  0  0  3  0  0  0  0  0  0
  189.1050  176.1040  140.0530 N   0  0  1  0  0  0  0  0  0  0  0  0
  188.4650  175.6890  143.1850 O   0  0  0  0  0  1  0  0  0  0  0  0
  189.7970  177.7320  143.3330 C   0  0  0  0  0  0  0  0  0  0  0  0
  191.0180  177.7930  142.5860 C   0  0  0  0  0  0  0  0  0  0  0  0
  192.0440  179.0470  144.3590 C   0  0  0  0  0  3  0  0  0  0  0  0
  188.8360  177.0530  141.1670 C   0  0  1  0  0  3  0  0  0  0  0  0
  190.8960  178.9570  145.0820 N   0  0  0  0  0  0  0  0  0  0  0  0
  191.1160  175.3700  137.7080 N   0  0  2  0  0  0  0  0  0  0  0  0
  189.8630  175.4560  136.9650 C   0  0  0  0  0  2  0  0  0  0  0  0
  189.6640  176.8630  138.9240 C   0  0  1  0  0  3  0  0  0  0  0  0
  191.1100  176.4540  138.6890 C   0  0  0  0  0  2  0  0  0  0  0  0
  188.9930  176.5320  137.5920 C   0  0  2  0  0  0  0  0  0  0  0  0
  187.5720  176.0100  137.7380 C   0  0  0  0  0  1  0  0  0  0  0  0
  192.6540  174.1510  136.1970 C   0  0  0  0  0  0  0  0  0  0  0  0
  192.3420  174.0110  134.7240 C   0  0  0  0  0  2  0  0  0  0  0  0
  192.2280  175.5020  136.7550 C   0  0  2  0  0  3  0  0  0  0  0  0
  194.4810  175.0610  137.2490 C   0  0  0  0  0  0  0  0  0  0  0  0
  194.0960  173.8290  136.5170 C   0  0  0  0  0  2  0  0  0  0  0  0
  191.6720  173.0960  135.7390 C   0  0  0  0  0  2  0  0  0  0  0  0
  193.4380  176.0170  137.3890 N   0  0  0  0  0  2  0  0  0  0  0  0
  195.6340  175.2530  137.7130 O   0  0  0  0  0  0  0  0  0  0  0  0
  188.9950  177.7980  136.7270 C   0  0  0  0  0  2  0  0  0  0  0  0
  189.0540  179.0810  137.5460 C   0  0  0  0  0  1  0  0  0  0  0  0
  187.2110  177.7550  143.0410 C   0  0  1  0  0  3  0  0  0  0  0  0
  186.2580  177.9840  141.8320 C   0  0  1  0  0  3  0  0  0  0  0  0
  185.1150  178.9640  142.1100 C   0  0  1  0  0  3  0  0  0  0  0  0
  184.9500  179.8390  141.0130 O   0  0  0  0  0  0  0  0  0  0  0  0
  187.9040  179.5230  141.0170 O   0  0  0  0  0  1  0  0  0  0  0  0
  186.9210  178.6060  140.6280 C   0  0  2  0  0  3  0  0  0  0  0  0
  185.7930  179.3770  139.9840 C   0  0  1  0  0  3  0  0  0  0  0  0
  183.8260  178.2530  142.3660 C   0  0  0  0  0  0  0  0  0  0  0  0
  183.0790  178.5330  143.5050 O   0  0  0  0  0  1  0  0  0  0  0  0
  183.4370  177.3610  141.5710 O   0  0  0  0  0  0  0  0  0  0  0  0
  185.6890  178.3900  137.7850 O   0  0  0  0  0  1  0  0  0  0  0  0
  184.9930  178.5190  138.9900 C   0  0  2  0  0  3  0  0  0  0  0  0
  182.6480  178.3590  138.5190 O   0  0  0  0  0  0  0  0  0  0  0  0
  183.4620  180.4890  138.7190 O   0  0  0  0  0  1  0  0  0  0  0  0
  183.6370  179.1100  138.7360 C   0  0  0  0  0  0  0  0  0  0  0  0
  186.4410  177.1830  144.2580 C   0  0  0  0  0  2  0  0  0  0  0  0
  186.3140  178.1120  145.4340 C   0  0  0  0  0  0  0  0  0  0  0  0
  186.0600  179.2930  145.2700 O   0  0  0  0  0  0  0  0  0  0  0  0
  186.4810  177.5750  146.8170 C   0  0  0  0  0  2  0  0  0  0  0  0
  188.0190  178.1680  147.5470 S   0  0  1  0  0  0  0  0  0  0  0  0
  187.7170  178.2010  149.0380 O   0  0  0  0  0  0  0  0  0  0  0  0
  189.1170  176.7530  147.3840 C   0  0  0  0  0  1  0  0  0  0  0  0
  1 29  1  0  0  0  0
  1  7  1  1  0  0  0
  1  8  1  0  0  0  0
  2 12  1  0  0  0  0
  3 10  1  0  0  0  0
  4  9  1  0  0  0  0
  5  4  1  6  0  0  0
  6 15  1  6  0  0  0
  6 11  1  0  0  0  0
  6  5  1  0  0  0  0
  8  2  2  0  0  0  0
  9  3  2  0  0  0  0
  9  8  1  0  0  0  0
 10 12  2  0  0  0  0
 11  5  1  0  0  0  0
 11  1  1  0  0  0  0
 13 16  1  0  0  0  0
 14 17  1  0  0  0  0
 14 13  1  0  0  0  0
 16 15  1  0  0  0  0
 17 18  1  0  0  0  0
 17 15  1  0  0  0  0
 19 23  1  0  0  0  0
 19 21  1  0  0  0  0
 20 24  1  0  0  0  0
 20 19  1  0  0  0  0
 21 25  1  0  0  0  0
 21 13  1  0  0  0  0
 22 25  1  0  0  0  0
 22 26  2  0  0  0  0
 23 22  1  0  0  0  0
 24 19  1  0  0  0  0
 27 28  1  0  0  0  0
 27 17  1  0  0  0  0
 29 44  1  0  0  0  0
 30 31  1  0  0  0  0
 30 29  1  0  0  0  0
 31 36  1  0  0  0  0
 32 31  1  0  0  0  0
 34 33  1  0  0  0  0
 34 30  1  0  0  0  0
 35 34  1  0  0  0  0
 35 32  1  0  0  0  0
 36 37  1  0  0  0  0
 38 36  2  0  0  0  0
 39 40  1  0  0  0  0
 40 35  1  0  0  0  0
 41 43  2  0  0  0  0
 42 43  1  0  0  0  0
 43 40  1  0  0  0  0
 44 45  1  0  0  0  0
 45 47  1  0  0  0  0
 46 45  2  0  0  0  0
 47 48  1  0  0  0  0
 48 49  2  0  0  0  0
 50 48  1  0  0  0  0
M  END
>  <MODEL>
8

>  <REMARK>
 VINA RESULT:      -3.8      3.816      8.813
  Name = 
  12 active torsions:
  status: ('A' for Active; 'I' for Inactive)
    1  A    between atoms: C_1  and  S_16
    2  A    between atoms: C_1  and  C_31
    3  A    between atoms: C_2  and  C_19
    4  A    between atoms: C_2  and  C_31
    5  A    between atoms: C_3  and  C_19
    6  A    between atoms: C_4  and  C_12
    7  A    between atoms: C_5  and  C_19
    8  A    between atoms: N_6  and  C_21
    9  A    between atoms: C_10  and  N_33
   10  A    between atoms: C_23  and  C_36
   11  A    between atoms: C_25  and  C_27
   12  A    between atoms: C_36  and  C_46
                            x       y       z     vdW  Elec       q    Type
                         _______ _______ _______ _____ _____    ______ ____

>  <TORSDO>
F 12

$$$$
=
 OpenBabel11062414283D

 50 56  0  0  1  0  0  0  0  0999 V2000
  187.7020  178.4180  141.7930 C   0  0  1  0  0  0  0  0  0  0  0  0
  188.0480  177.9850  144.3500 C   0  0  0  0  0  3  0  0  0  0  0  0
  185.3250  178.2760  144.8530 C   0  0  0  0  0  3  0  0  0  0  0  0
  184.9170  178.8180  142.4880 N   0  0  0  0  0  2  0  0  0  0  0  0
  185.6580  179.3660  141.3630 C   0  0  2  0  0  3  0  0  0  0  0  0
  185.5230  178.8760  139.9990 N   0  0  1  0  0  0  0  0  0  0  0  0
  188.2090  179.7110  141.5750 O   0  0  0  0  0  1  0  0  0  0  0  0
  187.2010  178.2700  143.2710 C   0  0  0  0  0  0  0  0  0  0  0  0
  185.8080  178.4420  143.5570 C   0  0  0  0  0  0  0  0  0  0  0  0
  186.2240  177.9730  145.8760 C   0  0  0  0  0  3  0  0  0  0  0  0
  186.4170  178.1440  140.9370 C   0  0  1  0  0  3  0  0  0  0  0  0
  187.5510  177.8450  145.6090 N   0  0  0  0  0  0  0  0  0  0  0  0
  182.5810  179.6480  139.0900 N   0  0  2  0  0  0  0  0  0  0  0  0
  183.0180  178.8690  137.9360 C   0  0  0  0  0  2  0  0  0  0  0  0
  184.2720  178.1140  139.8640 C   0  0  1  0  0  3  0  0  0  0  0  0
  183.0910  178.9760  140.2820 C   0  0  0  0  0  2  0  0  0  0  0  0
  183.9430  177.7620  138.4140 C   0  0  2  0  0  0  0  0  0  0  0  0
  185.1630  177.6980  137.5090 C   0  0  0  0  0  1  0  0  0  0  0  0
  180.6020  181.1150  138.8240 C   0  0  0  0  0  0  0  0  0  0  0  0
  179.9100  181.2450  137.4870 C   0  0  0  0  0  2  0  0  0  0  0  0
  181.1120  179.7030  139.0800 C   0  0  2  0  0  3  0  0  0  0  0  0
  179.7820  180.4520  140.8650 C   0  0  0  0  0  0  0  0  0  0  0  0
  179.7590  181.6340  139.9670 C   0  0  0  0  0  2  0  0  0  0  0  0
  181.1840  182.0280  137.7690 C   0  0  0  0  0  2  0  0  0  0  0  0
  180.5390  179.3520  140.3760 N   0  0  0  0  0  2  0  0  0  0  0  0
  179.1850  180.4170  141.9710 O   0  0  0  0  0  0  0  0  0  0  0  0
  183.2170  176.4120  138.4020 C   0  0  0  0  0  2  0  0  0  0  0  0
  181.9340  176.4300  137.5800 C   0  0  0  0  0  1  0  0  0  0  0  0
  188.8240  177.3730  141.4440 C   0  0  1  0  0  3  0  0  0  0  0  0
  189.4080  177.4770  140.0050 C   0  0  1  0  0  3  0  0  0  0  0  0
  190.5450  176.4920  139.7170 C   0  0  1  0  0  3  0  0  0  0  0  0
  190.3750  175.9200  138.4360 O   0  0  0  0  0  0  0  0  0  0  0  0
  187.5450  176.1410  139.3120 O   0  0  0  0  0  1  0  0  0  0  0  0
  188.4230  177.1530  138.9100 C   0  0  2  0  0  3  0  0  0  0  0  0
  189.3070  176.5970  137.8180 C   0  0  1  0  0  3  0  0  0  0  0  0
  191.8820  177.1540  139.7820 C   0  0  0  0  0  0  0  0  0  0  0  0
  192.8250  176.9420  138.7830 O   0  0  0  0  0  0  0  0  0  0  0  0
  192.1760  177.8700  140.7730 O   0  0  0  0  0  1  0  0  0  0  0  0
  189.1430  178.8900  137.0840 O   0  0  0  0  0  1  0  0  0  0  0  0
  189.8440  177.6970  136.8880 C   0  0  2  0  0  3  0  0  0  0  0  0
  189.2510  178.0610  134.5940 O   0  0  0  0  0  0  0  0  0  0  0  0
  190.1890  176.0240  135.0480 O   0  0  0  0  0  1  0  0  0  0  0  0
  189.7480  177.2800  135.4480 C   0  0  0  0  0  0  0  0  0  0  0  0
  189.9540  177.2660  142.5000 C   0  0  0  0  0  2  0  0  0  0  0  0
  190.1560  175.8980  143.0890 C   0  0  0  0  0  0  0  0  0  0  0  0
  189.3780  174.9920  142.8430 O   0  0  0  0  0  0  0  0  0  0  0  0
  191.3340  175.6430  143.9700 C   0  0  0  0  0  2  0  0  0  0  0  0
  191.1620  176.5240  145.5330 S   0  0  1  0  0  0  0  0  0  0  0  0
  192.3210  175.9990  146.3680 O   0  0  0  0  0  0  0  0  0  0  0  0
  191.6840  178.1940  145.1160 C   0  0  0  0  0  1  0  0  0  0  0  0
  1  7  1  6  0  0  0
  1  8  1  0  0  0  0
  2 12  1  0  0  0  0
  3 10  1  0  0  0  0
  4  9  1  0  0  0  0
  5  4  1  1  0  0  0
  6 15  1  1  0  0  0
  6 11  1  0  0  0  0
  6  5  1  0  0  0  0
  8  9  1  0  0  0  0
  8  2  2  0  0  0  0
  9  3  2  0  0  0  0
 11  5  1  0  0  0  0
 11  1  1  0  0  0  0
 12 10  2  0  0  0  0
 13 16  1  0  0  0  0
 14 17  1  0  0  0  0
 14 13  1  0  0  0  0
 15 16  1  0  0  0  0
 17 15  1  0  0  0  0
 18 17  1  0  0  0  0
 19 21  1  0  0  0  0
 19 23  1  0  0  0  0
 20 24  1  0  0  0  0
 20 19  1  0  0  0  0
 21 13  1  0  0  0  0
 21 25  1  0  0  0  0
 22 26  2  0  0  0  0
 23 22  1  0  0  0  0
 24 19  1  0  0  0  0
 25 22  1  0  0  0  0
 27 17  1  0  0  0  0
 28 27  1  0  0  0  0
 29  1  1  0  0  0  0
 29 44  1  0  0  0  0
 30 29  1  0  0  0  0
 31 36  1  0  0  0  0
 31 30  1  0  0  0  0
 32 31  1  0  0  0  0
 34 33  1  0  0  0  0
 34 30  1  0  0  0  0
 35 32  1  0  0  0  0
 35 34  1  0  0  0  0
 36 38  1  0  0  0  0
 37 36  2  0  0  0  0
 40 39  1  0  0  0  0
 40 35  1  0  0  0  0
 41 43  2  0  0  0  0
 42 43  1  0  0  0  0
 43 40  1  0  0  0  0
 44 45  1  0  0  0  0
 45 47  1  0  0  0  0
 46 45  2  0  0  0  0
 47 48  1  0  0  0  0
 48 49  2  0  0  0  0
 50 48  1  0  0  0  0
M  END
>  <MODEL>
9

>  <REMARK>
 VINA RESULT:      -3.8      2.434      3.998
  Name = 
  12 active torsions:
  status: ('A' for Active; 'I' for Inactive)
    1  A    between atoms: C_1  and  S_16
    2  A    between atoms: C_1  and  C_31
    3  A    between atoms: C_2  and  C_19
    4  A    between atoms: C_2  and  C_31
    5  A    between atoms: C_3  and  C_19
    6  A    between atoms: C_4  and  C_12
    7  A    between atoms: C_5  and  C_19
    8  A    between atoms: N_6  and  C_21
    9  A    between atoms: C_10  and  N_33
   10  A    between atoms: C_23  and  C_36
   11  A    between atoms: C_25  and  C_27
   12  A    between atoms: C_36  and  C_46
                            x       y       z     vdW  Elec       q    Type
                         _______ _______ _______ _____ _____    ______ ____

>  <TORSDO>
F 12

$$$$
