=
 OpenBabel11062411003D

 49 55  0  0  1  0  0  0  0  0999 V2000
  188.7800  177.3470  137.9180 O   0  0  0  0  0  0  0  0  0  0  0  0
  184.0980  179.3370  139.4700 C   0  0  2  0  0  3  0  0  0  0  0  0
  185.9260  179.3360  141.7660 C   0  0  0  0  0  2  0  0  0  0  0  0
  185.7580  178.1540  138.0060 C   0  0  2  0  0  3  0  0  0  0  0  0
  187.7190  176.4650  137.6630 C   0  0  1  0  0  3  0  0  0  0  0  0
  187.2750  178.6890  135.2860 C   0  0  0  0  0  1  0  0  0  0  0  0
  182.5870  178.6400  143.4020 C   0  0  0  0  0  3  0  0  0  0  0  0
  184.5000  178.0090  138.8240 C   0  0  2  0  0  3  0  0  0  0  0  0
  188.0220  178.0040  138.9080 C   0  0  2  0  0  3  0  0  0  0  0  0
  185.3160  177.8420  136.5890 C   0  0  2  0  0  3  0  0  0  0  0  0
  188.5670  177.6360  140.2880 C   0  0  0  0  0  2  0  0  0  0  0  0
  183.9520  178.8710  143.2240 C   0  0  0  0  0  3  0  0  0  0  0  0
  186.5660  178.1150  141.5240 O   0  0  0  0  0  0  0  0  0  0  0  0
  184.1890  176.8340  136.6870 C   0  0  0  0  0  2  0  0  0  0  0  0
  184.4570  179.1180  141.9450 C   0  0  0  0  0  0  0  0  0  0  0  0
  187.9290  178.4280  141.4340 C   0  0  1  0  0  3  0  0  0  0  0  0
  183.5700  179.1370  140.8530 C   0  0  0  0  0  0  0  0  0  0  0  0
  183.2340  180.1690  138.6510 N   0  0  0  0  0  1  0  0  0  0  0  0
  186.7840  177.1910  138.6110 C   0  0  1  0  0  3  0  0  0  0  0  0
  187.3500  176.3520  136.1750 C   0  0  2  0  0  3  0  0  0  0  0  0
  181.7390  178.6520  142.2920 C   0  0  0  0  0  3  0  0  0  0  0  0
  183.5150  177.1410  138.0190 C   0  0  2  0  0  3  0  0  0  0  0  0
  186.4520  177.4660  135.6420 C   0  0  2  0  0  3  0  0  0  0  0  0
  182.2450  178.8930  141.0510 N   0  0  0  0  0  0  0  0  0  0  0  0
  190.1170  178.0130  142.5730 N   0  0  1  0  0  0  0  0  0  0  0  0
  191.4900  176.2080  143.4430 C   0  0  0  0  0  2  0  0  0  0  0  0
  188.6440  178.0400  142.7340 C   0  0  2  0  0  3  0  0  0  0  0  0
  188.6360  177.0590  145.7090 C   0  0  0  0  0  0  0  0  0  0  0  0
  191.8530  177.2450  145.7640 C   0  0  0  0  0  2  0  0  0  0  0  0
  190.7360  178.4740  143.8160 C   0  0  2  0  0  3  0  0  0  0  0  0
  188.7510  176.4380  144.5730 N   0  0  0  0  0  0  0  0  0  0  0  0
  191.3560  179.7050  143.5990 O   0  0  0  0  0  1  0  0  0  0  0  0
  188.0280  176.7710  143.3560 C   0  0  0  0  0  2  0  0  0  0  0  0
  190.6560  176.6790  142.2650 C   0  0  0  0  0  2  0  0  0  0  0  0
  189.6100  176.8500  146.6860 O   0  0  0  0  0  0  0  0  0  0  0  0
  191.7720  177.4550  144.2400 C   0  0  2  0  0  3  0  0  0  0  0  0
  190.8610  176.2420  146.3740 C   0  0  0  0  0  2  0  0  0  0  0  0
  187.5100  178.0330  145.9540 C   0  0  2  0  0  3  0  0  0  0  0  0
  187.9130  178.5270  149.5600 O   0  0  0  0  0  1  0  0  0  0  0  0
  187.6810  176.5370  148.4520 O   0  0  0  0  0  0  0  0  0  0  0  0
  187.7290  177.9260  148.4700 C   0  0  0  0  0  0  0  0  0  0  0  0
  187.6150  178.6710  147.2600 N   0  0  0  0  0  2  0  0  0  0  0  0
  186.1570  177.3390  145.8280 C   0  0  0  0  0  2  0  0  0  0  0  0
  185.1370  178.1250  146.3750 O   0  0  0  0  0  1  0  0  0  0  0  0
  186.5520  174.6760  134.6600 O   0  0  0  0  0  0  0  0  0  0  0  0
  186.8140  174.9840  135.8530 C   0  0  0  0  0  0  0  0  0  0  0  0
  186.5130  174.0820  136.8670 O   0  0  0  0  0  1  0  0  0  0  0  0
  181.5910  177.8000  136.4690 C   0  0  0  0  0  1  0  0  0  0  0  0
  182.0550  177.6050  137.9050 C   0  0  0  0  0  2  0  0  0  0  0  0
  1  9  1  0  0  0  0
  2 18  1  6  0  0  0
  2 17  1  0  0  0  0
  3 15  1  0  0  0  0
  4 19  1  0  0  0  0
  4  8  1  0  0  0  0
  5  1  1  0  0  0  0
  5 19  1  0  0  0  0
  6 23  1  0  0  0  0
  8  2  1  0  0  0  0
  9 11  1  0  0  0  0
 10 14  1  0  0  0  0
 10  4  1  0  0  0  0
 11 16  1  0  0  0  0
 12  7  1  0  0  0  0
 13  3  1  0  0  0  0
 14 22  1  0  0  0  0
 15 12  2  0  0  0  0
 16 13  1  0  0  0  0
 16 27  1  0  0  0  0
 17 24  2  0  0  0  0
 17 15  1  0  0  0  0
 19  9  1  0  0  0  0
 20  5  1  0  0  0  0
 21  7  2  0  0  0  0
 22  8  1  0  0  0  0
 23 20  1  0  0  0  0
 23 10  1  0  0  0  0
 24 21  1  0  0  0  0
 25 27  1  0  0  0  0
 25 30  1  0  0  0  0
 26 36  1  0  0  0  0
 27 33  1  0  0  0  0
 28 38  1  0  0  0  0
 28 35  1  0  0  0  0
 29 37  1  0  0  0  0
 30 36  1  0  0  0  0
 31 28  2  0  0  0  0
 32 30  1  0  0  0  0
 33 31  1  0  0  0  0
 34 25  1  0  0  0  0
 34 26  1  0  0  0  0
 36 29  1  0  0  0  0
 37 35  1  0  0  0  0
 38 42  1  0  0  0  0
 40 41  2  0  0  0  0
 41 39  1  0  0  0  0
 42 41  1  0  0  0  0
 43 38  1  0  0  0  0
 43 44  1  0  0  0  0
 45 46  2  0  0  0  0
 46 20  1  0  0  0  0
 46 47  1  0  0  0  0
 48 49  1  0  0  0  0
 49 22  1  0  0  0  0
M  END
>  <MODEL>
1

>  <REMARK>
 VINA RESULT:      -8.6      0.000      0.000
  Name = 
  6 active torsions:
  status: ('A' for Active; 'I' for Inactive)
    1  A    between atoms: CA_6  and  C_10
    2  A    between atoms: CA_6  and  C_16
    3  A    between atoms: CA_6  and  N_48
    4  A    between atoms: C_8  and  C_30
    5  A    between atoms: C_32  and  C_39
    6  A    between atoms: C_43  and  C_45
                            x       y       z     vdW  Elec       q    Type
                         _______ _______ _______ _____ _____    ______ ____

>  <TORSDO>
F 6

$$$$
=
 OpenBabel11062411003D

 49 55  0  0  1  0  0  0  0  0999 V2000
  191.8340  175.8350  138.3050 O   0  0  0  0  0  0  0  0  0  0  0  0
  187.1930  178.0900  137.0120 C   0  0  2  0  0  3  0  0  0  0  0  0
  187.7300  178.6070  139.8510 C   0  0  0  0  0  2  0  0  0  0  0  0
  189.2160  176.6230  136.7820 C   0  0  2  0  0  3  0  0  0  0  0  0
  190.9320  174.9120  137.7560 C   0  0  1  0  0  3  0  0  0  0  0  0
  191.8710  176.5530  135.0690 C   0  0  0  0  0  1  0  0  0  0  0  0
  183.9630  178.2680  139.7980 C   0  0  0  0  0  3  0  0  0  0  0  0
  187.7150  176.6540  136.9120 C   0  0  2  0  0  3  0  0  0  0  0  0
  190.7710  176.6900  138.6630 C   0  0  2  0  0  3  0  0  0  0  0  0
  189.4570  176.0020  135.4190 C   0  0  2  0  0  3  0  0  0  0  0  0
  190.5710  176.6390  140.1780 C   0  0  0  0  0  2  0  0  0  0  0  0
  185.2680  178.4640  140.2510 C   0  0  0  0  0  3  0  0  0  0  0  0
  188.2840  177.3670  140.1890 O   0  0  0  0  0  0  0  0  0  0  0  0
  188.3190  175.0340  135.1640 C   0  0  0  0  0  2  0  0  0  0  0  0
  186.3330  178.4250  139.3470 C   0  0  0  0  0  0  0  0  0  0  0  0
  189.5560  177.6610  140.7000 C   0  0  1  0  0  3  0  0  0  0  0  0
  186.0650  178.1970  137.9850 C   0  0  0  0  0  0  0  0  0  0  0  0
  186.8980  178.7140  135.7340 N   0  0  0  0  0  1  0  0  0  0  0  0
  189.7410  175.8240  137.9790 C   0  0  1  0  0  3  0  0  0  0  0  0
  191.2890  174.4700  136.3270 C   0  0  2  0  0  3  0  0  0  0  0  0
  183.7360  178.0300  138.4420 C   0  0  0  0  0  3  0  0  0  0  0  0
  187.1370  175.6230  135.9240 C   0  0  2  0  0  3  0  0  0  0  0  0
  190.8590  175.4340  135.2230 C   0  0  2  0  0  3  0  0  0  0  0  0
  184.7830  177.9940  137.5720 N   0  0  0  0  0  0  0  0  0  0  0  0
  190.9070  177.5800  142.8030 N   0  0  1  0  0  0  0  0  0  0  0  0
  191.5900  176.0500  144.5610 C   0  0  0  0  0  2  0  0  0  0  0  0
  189.5400  177.5750  142.2310 C   0  0  2  0  0  3  0  0  0  0  0  0
  188.0560  177.2140  144.9660 C   0  0  0  0  0  0  0  0  0  0  0  0
  190.8620  177.5480  146.5150 C   0  0  0  0  0  2  0  0  0  0  0  0
  190.8840  178.3090  144.0720 C   0  0  2  0  0  3  0  0  0  0  0  0
  188.6620  176.3820  144.1720 N   0  0  0  0  0  0  0  0  0  0  0  0
  191.6030  179.4970  143.9390 O   0  0  0  0  0  1  0  0  0  0  0  0
  188.6280  176.4320  142.7190 C   0  0  0  0  0  2  0  0  0  0  0  0
  191.4480  176.2370  143.0600 C   0  0  0  0  0  2  0  0  0  0  0  0
  188.4320  177.2480  146.3080 O   0  0  0  0  0  0  0  0  0  0  0  0
  191.5300  177.4430  145.1320 C   0  0  2  0  0  3  0  0  0  0  0  0
  189.6420  176.6450  146.7610 C   0  0  0  0  0  2  0  0  0  0  0  0
  187.0090  178.1670  144.4440 C   0  0  2  0  0  3  0  0  0  0  0  0
  185.5960  179.7420  147.4330 O   0  0  0  0  0  1  0  0  0  0  0  0
  185.2570  177.5980  146.7050 O   0  0  0  0  0  0  0  0  0  0  0  0
  185.8060  178.8660  146.5550 C   0  0  0  0  0  0  0  0  0  0  0  0
  186.6380  179.1680  145.4370 N   0  0  0  0  0  2  0  0  0  0  0  0
  185.7660  177.4100  143.9890 C   0  0  0  0  0  2  0  0  0  0  0  0
  184.8060  178.2850  143.4710 O   0  0  0  0  0  1  0  0  0  0  0  0
  189.8110  172.6130  136.6530 O   0  0  0  0  0  1  0  0  0  0  0  0
  190.8310  173.0620  136.0650 C   0  0  0  0  0  0  0  0  0  0  0  0
  191.5730  172.2140  135.2510 O   0  0  0  0  0  0  0  0  0  0  0  0
  184.6970  175.2160  135.2770 C   0  0  0  0  0  1  0  0  0  0  0  0
  185.9530  176.0410  135.0400 C   0  0  0  0  0  2  0  0  0  0  0  0
  1  9  1  0  0  0  0
  2 18  1  6  0  0  0
  2 17  1  0  0  0  0
  3 13  1  0  0  0  0
  4  8  1  0  0  0  0
  4 19  1  0  0  0  0
  5 19  1  0  0  0  0
  5  1  1  0  0  0  0
  6 23  1  0  0  0  0
  7 12  1  0  0  0  0
  8  2  1  0  0  0  0
  9 11  1  0  0  0  0
 10  4  1  0  0  0  0
 11 16  1  0  0  0  0
 13 16  1  0  0  0  0
 14 10  1  0  0  0  0
 14 22  1  0  0  0  0
 15  3  1  0  0  0  0
 15 12  2  0  0  0  0
 16 27  1  0  0  0  0
 17 15  1  0  0  0  0
 19  9  1  0  0  0  0
 20  5  1  0  0  0  0
 21  7  2  0  0  0  0
 22  8  1  0  0  0  0
 23 10  1  0  0  0  0
 23 20  1  0  0  0  0
 24 17  2  0  0  0  0
 24 21  1  0  0  0  0
 25 34  1  0  0  0  0
 25 30  1  0  0  0  0
 26 36  1  0  0  0  0
 27 33  1  0  0  0  0
 27 25  1  0  0  0  0
 28 35  1  0  0  0  0
 29 37  1  0  0  0  0
 30 36  1  0  0  0  0
 31 28  2  0  0  0  0
 32 30  1  0  0  0  0
 33 31  1  0  0  0  0
 34 26  1  0  0  0  0
 35 37  1  0  0  0  0
 36 29  1  0  0  0  0
 38 28  1  0  0  0  0
 38 42  1  0  0  0  0
 41 40  2  0  0  0  0
 41 39  1  0  0  0  0
 42 41  1  0  0  0  0
 43 38  1  0  0  0  0
 44 43  1  0  0  0  0
 46 20  1  0  0  0  0
 46 45  1  0  0  0  0
 47 46  2  0  0  0  0
 49 48  1  0  0  0  0
 49 22  1  0  0  0  0
M  END
>  <MODEL>
2

>  <REMARK>
 VINA RESULT:      -8.2      2.332      3.315
  Name = 
  6 active torsions:
  status: ('A' for Active; 'I' for Inactive)
    1  A    between atoms: CA_6  and  C_10
    2  A    between atoms: CA_6  and  C_16
    3  A    between atoms: CA_6  and  N_48
    4  A    between atoms: C_8  and  C_30
    5  A    between atoms: C_32  and  C_39
    6  A    between atoms: C_43  and  C_45
                            x       y       z     vdW  Elec       q    Type
                         _______ _______ _______ _____ _____    ______ ____

>  <TORSDO>
F 6

$$$$
=
 OpenBabel11062411003D

 49 55  0  0  1  0  0  0  0  0999 V2000
  183.4770  176.1110  134.6080 O   0  0  0  0  0  0  0  0  0  0  0  0
  184.6250  179.2460  138.7480 C   0  0  2  0  0  3  0  0  0  0  0  0
  187.0950  177.9450  137.8420 C   0  0  0  0  0  2  0  0  0  0  0  0
  183.2150  177.9520  137.1250 C   0  0  2  0  0  3  0  0  0  0  0  0
  182.7060  175.7990  135.7380 C   0  0  1  0  0  3  0  0  0  0  0  0
  181.2530  178.5660  134.7260 C   0  0  0  0  0  1  0  0  0  0  0  0
  187.6330  178.1660  141.5800 C   0  0  0  0  0  3  0  0  0  0  0  0
  183.6440  178.0860  138.5640 C   0  0  2  0  0  3  0  0  0  0  0  0
  184.4560  176.7210  135.4200 C   0  0  2  0  0  3  0  0  0  0  0  0
  181.7230  178.2160  137.1570 C   0  0  2  0  0  3  0  0  0  0  0  0
  185.6910  175.8230  135.4800 C   0  0  0  0  0  2  0  0  0  0  0  0
  187.8410  177.8990  140.2260 C   0  0  0  0  0  3  0  0  0  0  0  0
  186.5690  176.6830  137.5420 O   0  0  0  0  0  0  0  0  0  0  0  0
  181.2130  177.7250  138.4970 C   0  0  0  0  0  2  0  0  0  0  0  0
  186.8720  178.2630  139.2870 C   0  0  0  0  0  0  0  0  0  0  0  0
  186.8850  176.4660  136.1940 C   0  0  1  0  0  3  0  0  0  0  0  0
  185.7000  178.9050  139.7280 C   0  0  0  0  0  0  0  0  0  0  0  0
  183.9990  180.5280  139.0220 N   0  0  0  0  0  1  0  0  0  0  0  0
  183.6340  176.5480  136.6750 C   0  0  1  0  0  3  0  0  0  0  0  0
  181.2350  176.2300  135.6240 C   0  0  2  0  0  3  0  0  0  0  0  0
  186.4510  178.7920  141.9820 C   0  0  0  0  0  3  0  0  0  0  0  0
  182.3930  177.9020  139.4440 C   0  0  2  0  0  3  0  0  0  0  0  0
  180.9630  177.7010  135.9380 C   0  0  2  0  0  3  0  0  0  0  0  0
  185.5150  179.1390  141.0570 N   0  0  0  0  0  0  0  0  0  0  0  0
  189.3130  176.0860  136.6630 N   0  0  1  0  0  0  0  0  0  0  0  0
  191.4630  175.9570  135.5420 C   0  0  0  0  0  2  0  0  0  0  0  0
  188.0770  175.5080  136.0820 C   0  0  2  0  0  3  0  0  0  0  0  0
  189.4140  172.8610  135.0700 C   0  0  0  0  0  0  0  0  0  0  0  0
  192.1530  173.6970  136.5480 C   0  0  0  0  0  2  0  0  0  0  0  0
  190.0860  175.0120  137.2890 C   0  0  2  0  0  3  0  0  0  0  0  0
  189.3730  174.0700  134.5940 N   0  0  0  0  0  0  0  0  0  0  0  0
  190.0920  175.1880  138.6730 O   0  0  0  0  0  1  0  0  0  0  0  0
  188.2210  174.9560  134.6490 C   0  0  0  0  0  2  0  0  0  0  0  0
  190.1770  176.7520  135.6770 C   0  0  0  0  0  2  0  0  0  0  0  0
  190.6570  172.2530  135.2390 O   0  0  0  0  0  0  0  0  0  0  0  0
  191.5040  175.0770  136.7650 C   0  0  2  0  0  3  0  0  0  0  0  0
  191.8670  173.0050  135.2050 C   0  0  0  0  0  2  0  0  0  0  0  0
  188.1540  172.1470  135.4910 C   0  0  2  0  0  3  0  0  0  0  0  0
  185.9360  172.9720  138.2860 O   0  0  0  0  0  1  0  0  0  0  0  0
  185.3240  172.3470  136.1700 O   0  0  0  0  0  0  0  0  0  0  0  0
  186.2890  172.6640  137.1180 C   0  0  0  0  0  0  0  0  0  0  0  0
  187.6760  172.6020  136.7910 N   0  0  0  0  0  2  0  0  0  0  0  0
  188.3720  170.6370  135.5250 C   0  0  0  0  0  2  0  0  0  0  0  0
  187.3230  169.9630  134.8920 O   0  0  0  0  0  1  0  0  0  0  0  0
  180.8300  174.5220  137.2540 O   0  0  0  0  0  1  0  0  0  0  0  0
  180.3380  175.3070  136.4010 C   0  0  0  0  0  0  0  0  0  0  0  0
  178.9770  175.2420  136.1250 O   0  0  0  0  0  0  0  0  0  0  0  0
  181.2780  178.3420  141.7030 C   0  0  0  0  0  1  0  0  0  0  0  0
  182.1510  178.8990  140.5880 C   0  0  0  0  0  2  0  0  0  0  0  0
  1  9  1  0  0  0  0
  1  5  1  0  0  0  0
  2 18  1  1  0  0  0
  2 17  1  0  0  0  0
  3 15  1  0  0  0  0
  4 10  1  0  0  0  0
  4  8  1  0  0  0  0
  5 19  1  0  0  0  0
  6 23  1  0  0  0  0
  7 21  1  0  0  0  0
  8  2  1  0  0  0  0
  8 22  1  0  0  0  0
  9 11  1  0  0  0  0
  9 19  1  0  0  0  0
 10 14  1  0  0  0  0
 11 16  1  0  0  0  0
 12  7  2  0  0  0  0
 13  3  1  0  0  0  0
 14 22  1  0  0  0  0
 15 17  2  0  0  0  0
 15 12  1  0  0  0  0
 16 13  1  0  0  0  0
 17 24  1  0  0  0  0
 19  4  1  0  0  0  0
 20  5  1  0  0  0  0
 20 23  1  0  0  0  0
 20 46  1  0  0  0  0
 22 49  1  0  0  0  0
 23 10  1  0  0  0  0
 24 21  2  0  0  0  0
 25 30  1  0  0  0  0
 26 34  1  0  0  0  0
 26 36  1  0  0  0  0
 27 16  1  0  0  0  0
 27 25  1  0  0  0  0
 28 35  1  0  0  0  0
 28 38  1  0  0  0  0
 29 36  1  0  0  0  0
 30 32  1  0  0  0  0
 31 33  1  0  0  0  0
 31 28  2  0  0  0  0
 33 27  1  0  0  0  0
 34 25  1  0  0  0  0
 36 30  1  0  0  0  0
 37 35  1  0  0  0  0
 37 29  1  0  0  0  0
 38 43  1  0  0  0  0
 38 42  1  0  0  0  0
 40 41  2  0  0  0  0
 41 39  1  0  0  0  0
 42 41  1  0  0  0  0
 44 43  1  0  0  0  0
 46 45  1  0  0  0  0
 47 46  2  0  0  0  0
 49 48  1  0  0  0  0
M  END
>  <MODEL>
3

>  <REMARK>
 VINA RESULT:      -7.6      4.230      7.626
  Name = 
  6 active torsions:
  status: ('A' for Active; 'I' for Inactive)
    1  A    between atoms: CA_6  and  C_10
    2  A    between atoms: CA_6  and  C_16
    3  A    between atoms: CA_6  and  N_48
    4  A    between atoms: C_8  and  C_30
    5  A    between atoms: C_32  and  C_39
    6  A    between atoms: C_43  and  C_45
                            x       y       z     vdW  Elec       q    Type
                         _______ _______ _______ _____ _____    ______ ____

>  <TORSDO>
F 6

$$$$
=
 OpenBabel11062411003D

 49 55  0  0  1  0  0  0  0  0999 V2000
  184.9190  176.9150  136.0470 O   0  0  0  0  0  0  0  0  0  0  0  0
  182.2280  179.1070  140.0780 C   0  0  2  0  0  3  0  0  0  0  0  0
  185.0910  179.1710  140.7160 C   0  0  0  0  0  2  0  0  0  0  0  0
  182.6130  177.8070  137.9660 C   0  0  2  0  0  3  0  0  0  0  0  0
  183.9420  176.0500  136.5640 C   0  0  1  0  0  3  0  0  0  0  0  0
  182.0820  178.1640  134.8710 C   0  0  0  0  0  1  0  0  0  0  0  0
  183.5250  178.6490  144.1190 C   0  0  0  0  0  3  0  0  0  0  0  0
  182.1490  177.7380  139.3990 C   0  0  2  0  0  3  0  0  0  0  0  0
  184.9430  177.6420  137.2560 C   0  0  2  0  0  3  0  0  0  0  0  0
  181.3840  177.4360  137.1600 C   0  0  2  0  0  3  0  0  0  0  0  0
  186.2370  177.3280  138.0060 C   0  0  0  0  0  2  0  0  0  0  0  0
  184.4740  178.8340  143.1130 C   0  0  0  0  0  3  0  0  0  0  0  0
  185.4510  177.9230  140.1950 O   0  0  0  0  0  0  0  0  0  0  0  0
  180.5770  176.4660  137.9990 C   0  0  0  0  0  2  0  0  0  0  0  0
  184.0630  179.0030  141.7880 C   0  0  0  0  0  0  0  0  0  0  0  0
  186.4520  178.1940  139.2530 C   0  0  1  0  0  3  0  0  0  0  0  0
  182.6860  178.9910  141.4950 C   0  0  0  0  0  0  0  0  0  0  0  0
  181.0320  179.9200  139.9370 N   0  0  0  0  0  1  0  0  0  0  0  0
  183.8020  176.8480  137.8460 C   0  0  1  0  0  3  0  0  0  0  0  0
  182.7230  175.8730  135.6460 C   0  0  2  0  0  3  0  0  0  0  0  0
  182.1690  178.6290  143.7880 C   0  0  0  0  0  3  0  0  0  0  0  0
  180.8850  176.8570  139.4390 C   0  0  2  0  0  3  0  0  0  0  0  0
  181.6770  176.9830  135.7330 C   0  0  2  0  0  3  0  0  0  0  0  0
  181.7820  178.7930  142.4930 N   0  0  0  0  0  0  0  0  0  0  0  0
  187.8560  177.9870  141.3120 N   0  0  1  0  0  0  0  0  0  0  0  0
  189.6750  179.0880  142.4860 C   0  0  0  0  0  2  0  0  0  0  0  0
  187.8280  177.8520  139.8360 C   0  0  2  0  0  3  0  0  0  0  0  0
  190.8590  177.1200  139.5310 C   0  0  0  0  0  0  0  0  0  0  0  0
  191.1360  176.9900  142.7390 C   0  0  0  0  0  2  0  0  0  0  0  0
  188.7310  176.9510  141.8640 C   0  0  2  0  0  3  0  0  0  0  0  0
  190.2330  178.2470  139.6900 N   0  0  0  0  0  0  0  0  0  0  0  0
  187.9680  176.0300  142.5810 O   0  0  0  0  0  1  0  0  0  0  0  0
  188.9550  178.5920  139.0880 C   0  0  0  0  0  2  0  0  0  0  0  0
  188.3470  179.2920  141.7800 C   0  0  0  0  0  2  0  0  0  0  0  0
  191.8940  176.8010  140.4090 O   0  0  0  0  0  0  0  0  0  0  0  0
  189.7280  177.6130  142.7910 C   0  0  2  0  0  3  0  0  0  0  0  0
  192.0760  177.5040  141.6350 C   0  0  0  0  0  2  0  0  0  0  0  0
  190.4430  176.1420  138.4590 C   0  0  2  0  0  3  0  0  0  0  0  0
  193.4630  174.1970  137.7480 O   0  0  0  0  0  1  0  0  0  0  0  0
  193.0460  176.3720  137.1660 O   0  0  0  0  0  0  0  0  0  0  0  0
  192.6590  175.1650  137.7350 C   0  0  0  0  0  0  0  0  0  0  0  0
  191.3760  175.0290  138.3430 N   0  0  0  0  0  2  0  0  0  0  0  0
  190.3080  176.8420  137.1110 C   0  0  0  0  0  2  0  0  0  0  0  0
  189.4310  176.1480  136.2700 O   0  0  0  0  0  1  0  0  0  0  0  0
  181.1430  174.1590  135.0880 O   0  0  0  0  0  0  0  0  0  0  0  0
  182.1170  174.5060  135.8090 C   0  0  0  0  0  0  0  0  0  0  0  0
  182.5570  173.6490  136.8110 O   0  0  0  0  0  1  0  0  0  0  0  0
  178.9790  176.2580  141.0330 C   0  0  0  0  0  1  0  0  0  0  0  0
  179.6730  177.3550  140.2400 C   0  0  0  0  0  2  0  0  0  0  0  0
  1  5  1  0  0  0  0
  1  9  1  0  0  0  0
  2 18  1  1  0  0  0
  2 17  1  0  0  0  0
  3 15  1  0  0  0  0
  4  8  1  0  0  0  0
  5 19  1  0  0  0  0
  6 23  1  0  0  0  0
  8 22  1  0  0  0  0
  8  2  1  0  0  0  0
  9 19  1  0  0  0  0
  9 11  1  0  0  0  0
 10  4  1  0  0  0  0
 10 14  1  0  0  0  0
 11 16  1  0  0  0  0
 12  7  2  0  0  0  0
 13  3  1  0  0  0  0
 14 22  1  0  0  0  0
 15 12  1  0  0  0  0
 16 27  1  0  0  0  0
 16 13  1  0  0  0  0
 17 15  2  0  0  0  0
 17 24  1  0  0  0  0
 19  4  1  0  0  0  0
 20 23  1  0  0  0  0
 20 46  1  0  0  0  0
 20  5  1  0  0  0  0
 21  7  1  0  0  0  0
 22 49  1  0  0  0  0
 23 10  1  0  0  0  0
 24 21  2  0  0  0  0
 25 34  1  0  0  0  0
 25 30  1  0  0  0  0
 26 36  1  0  0  0  0
 27 25  1  0  0  0  0
 28 31  2  0  0  0  0
 28 35  1  0  0  0  0
 29 36  1  0  0  0  0
 30 32  1  0  0  0  0
 30 36  1  0  0  0  0
 33 31  1  0  0  0  0
 33 27  1  0  0  0  0
 34 26  1  0  0  0  0
 35 37  1  0  0  0  0
 37 29  1  0  0  0  0
 38 28  1  0  0  0  0
 40 41  2  0  0  0  0
 41 39  1  0  0  0  0
 41 42  1  0  0  0  0
 42 38  1  0  0  0  0
 43 38  1  0  0  0  0
 44 43  1  0  0  0  0
 45 46  2  0  0  0  0
 46 47  1  0  0  0  0
 49 48  1  0  0  0  0
M  END
>  <MODEL>
4

>  <REMARK>
 VINA RESULT:      -6.8      2.889      5.492
  Name = 
  6 active torsions:
  status: ('A' for Active; 'I' for Inactive)
    1  A    between atoms: CA_6  and  C_10
    2  A    between atoms: CA_6  and  C_16
    3  A    between atoms: CA_6  and  N_48
    4  A    between atoms: C_8  and  C_30
    5  A    between atoms: C_32  and  C_39
    6  A    between atoms: C_43  and  C_45
                            x       y       z     vdW  Elec       q    Type
                         _______ _______ _______ _____ _____    ______ ____

>  <TORSDO>
F 6

$$$$
=
 OpenBabel11062411003D

 49 55  0  0  1  0  0  0  0  0999 V2000
  183.7560  178.1500  136.9750 O   0  0  0  0  0  0  0  0  0  0  0  0
  186.0080  179.1400  141.6910 C   0  0  2  0  0  3  0  0  0  0  0  0
  188.0420  178.0190  139.8960 C   0  0  0  0  0  2  0  0  0  0  0  0
  184.1790  178.8160  140.0040 C   0  0  2  0  0  3  0  0  0  0  0  0
  183.0880  177.5040  138.0270 C   0  0  1  0  0  3  0  0  0  0  0  0
  182.0870  180.6050  138.4510 C   0  0  0  0  0  1  0  0  0  0  0  0
  189.0800  176.6200  143.2540 C   0  0  0  0  0  3  0  0  0  0  0  0
  184.8040  178.2930  141.2720 C   0  0  2  0  0  3  0  0  0  0  0  0
  184.9290  178.2430  137.7520 C   0  0  2  0  0  3  0  0  0  0  0  0
  182.7830  179.2330  140.4230 C   0  0  2  0  0  3  0  0  0  0  0  0
  185.9640  177.2490  137.2240 C   0  0  0  0  0  2  0  0  0  0  0  0
  189.0590  176.9060  141.8880 C   0  0  0  0  0  3  0  0  0  0  0  0
  187.2460  177.0690  139.2450 O   0  0  0  0  0  0  0  0  0  0  0  0
  182.3610  178.3070  141.5460 C   0  0  0  0  0  2  0  0  0  0  0  0
  188.0700  177.7430  141.3660 C   0  0  0  0  0  0  0  0  0  0  0  0
  187.3410  177.3840  137.8820 C   0  0  1  0  0  3  0  0  0  0  0  0
  187.1110  178.2930  142.2370 C   0  0  0  0  0  0  0  0  0  0  0  0
  185.6840  180.2660  142.5490 N   0  0  0  0  0  1  0  0  0  0  0  0
  184.2550  177.6790  138.9790 C   0  0  1  0  0  3  0  0  0  0  0  0
  181.7280  178.1300  138.3740 C   0  0  2  0  0  3  0  0  0  0  0  0
  188.1040  177.1720  144.0850 C   0  0  0  0  0  3  0  0  0  0  0  0
  183.6630  177.9280  142.2400 C   0  0  2  0  0  3  0  0  0  0  0  0
  181.7900  179.3640  139.2720 C   0  0  2  0  0  3  0  0  0  0  0  0
  187.1450  177.9850  143.5630 N   0  0  0  0  0  0  0  0  0  0  0  0
  189.7170  176.7050  137.4990 N   0  0  1  0  0  0  0  0  0  0  0  0
  191.4490  176.7420  135.7960 C   0  0  0  0  0  2  0  0  0  0  0  0
  188.2990  176.4120  137.1840 C   0  0  2  0  0  3  0  0  0  0  0  0
  188.8970  174.0730  135.1880 C   0  0  0  0  0  0  0  0  0  0  0  0
  192.0240  174.2430  135.9480 C   0  0  0  0  0  2  0  0  0  0  0  0
  190.4540  175.4420  137.5750 C   0  0  2  0  0  3  0  0  0  0  0  0
  188.9170  175.3660  135.0660 N   0  0  0  0  0  0  0  0  0  0  0  0
  190.8530  175.2150  138.8920 O   0  0  0  0  0  1  0  0  0  0  0  0
  187.9720  176.2830  135.6830 C   0  0  0  0  0  2  0  0  0  0  0  0
  190.3820  177.5590  136.5030 C   0  0  0  0  0  2  0  0  0  0  0  0
  190.0320  173.3500  134.8210 O   0  0  0  0  0  0  0  0  0  0  0  0
  191.6760  175.5490  136.6880 C   0  0  2  0  0  3  0  0  0  0  0  0
  191.2910  173.9880  134.6210 C   0  0  0  0  0  2  0  0  0  0  0  0
  187.6990  173.3640  135.7690 C   0  0  2  0  0  3  0  0  0  0  0  0
  184.1510  174.0970  135.2360 O   0  0  0  0  0  0  0  0  0  0  0  0
  185.1280  172.0340  135.4100 O   0  0  0  0  0  1  0  0  0  0  0  0
  185.2030  173.4210  135.3650 C   0  0  0  0  0  0  0  0  0  0  0  0
  186.4580  174.0840  135.5070 N   0  0  0  0  0  2  0  0  0  0  0  0
  187.8660  173.1600  137.2720 C   0  0  0  0  0  2  0  0  0  0  0  0
  187.9400  171.7990  137.5890 O   0  0  0  0  0  1  0  0  0  0  0  0
  179.5840  177.4110  139.1670 O   0  0  0  0  0  0  0  0  0  0  0  0
  180.7730  177.0930  138.8980 C   0  0  0  0  0  0  0  0  0  0  0  0
  181.2090  175.8030  139.1770 O   0  0  0  0  0  1  0  0  0  0  0  0
  182.4820  179.0060  144.2350 C   0  0  0  0  0  1  0  0  0  0  0  0
  183.7670  178.3910  143.7010 C   0  0  0  0  0  2  0  0  0  0  0  0
  1  9  1  0  0  0  0
  1  5  1  0  0  0  0
  2 17  1  0  0  0  0
  2 18  1  1  0  0  0
  3 15  1  0  0  0  0
  4 10  1  0  0  0  0
  4  8  1  0  0  0  0
  5 20  1  0  0  0  0
  5 19  1  0  0  0  0
  6 23  1  0  0  0  0
  7 21  1  0  0  0  0
  8  2  1  0  0  0  0
  8 22  1  0  0  0  0
  9 19  1  0  0  0  0
 10 14  1  0  0  0  0
 11  9  1  0  0  0  0
 11 16  1  0  0  0  0
 12  7  2  0  0  0  0
 13  3  1  0  0  0  0
 14 22  1  0  0  0  0
 15 12  1  0  0  0  0
 15 17  2  0  0  0  0
 16 13  1  0  0  0  0
 17 24  1  0  0  0  0
 19  4  1  0  0  0  0
 20 46  1  0  0  0  0
 20 23  1  0  0  0  0
 22 49  1  0  0  0  0
 23 10  1  0  0  0  0
 24 21  2  0  0  0  0
 25 30  1  0  0  0  0
 26 34  1  0  0  0  0
 26 36  1  0  0  0  0
 27 25  1  0  0  0  0
 27 16  1  0  0  0  0
 28 38  1  0  0  0  0
 29 36  1  0  0  0  0
 30 32  1  0  0  0  0
 31 28  2  0  0  0  0
 31 33  1  0  0  0  0
 33 27  1  0  0  0  0
 34 25  1  0  0  0  0
 35 28  1  0  0  0  0
 36 30  1  0  0  0  0
 37 35  1  0  0  0  0
 37 29  1  0  0  0  0
 38 43  1  0  0  0  0
 39 41  2  0  0  0  0
 41 40  1  0  0  0  0
 41 42  1  0  0  0  0
 42 38  1  0  0  0  0
 43 44  1  0  0  0  0
 46 45  2  0  0  0  0
 46 47  1  0  0  0  0
 49 48  1  0  0  0  0
M  END
>  <MODEL>
5

>  <REMARK>
 VINA RESULT:      -6.7      3.402      7.708
  Name = 
  6 active torsions:
  status: ('A' for Active; 'I' for Inactive)
    1  A    between atoms: CA_6  and  C_10
    2  A    between atoms: CA_6  and  C_16
    3  A    between atoms: CA_6  and  N_48
    4  A    between atoms: C_8  and  C_30
    5  A    between atoms: C_32  and  C_39
    6  A    between atoms: C_43  and  C_45
                            x       y       z     vdW  Elec       q    Type
                         _______ _______ _______ _____ _____    ______ ____

>  <TORSDO>
F 6

$$$$
=
 OpenBabel11062411003D

 49 55  0  0  1  0  0  0  0  0999 V2000
  183.6580  178.1790  138.1540 O   0  0  0  0  0  0  0  0  0  0  0  0
  182.7950  179.6600  143.1890 C   0  0  2  0  0  3  0  0  0  0  0  0
  185.6880  179.3970  142.7700 C   0  0  0  0  0  2  0  0  0  0  0  0
  182.2710  178.8050  140.8890 C   0  0  2  0  0  3  0  0  0  0  0  0
  182.8030  177.2930  138.8270 C   0  0  1  0  0  3  0  0  0  0  0  0
  180.7880  179.8330  138.2940 C   0  0  0  0  0  1  0  0  0  0  0  0
  185.2960  178.2850  146.3640 C   0  0  0  0  0  3  0  0  0  0  0  0
  182.3080  178.4700  142.3580 C   0  0  2  0  0  3  0  0  0  0  0  0
  184.1840  178.6350  139.3810 C   0  0  2  0  0  3  0  0  0  0  0  0
  180.8040  178.6930  140.5200 C   0  0  2  0  0  3  0  0  0  0  0  0
  185.5990  178.0860  139.5570 C   0  0  0  0  0  2  0  0  0  0  0  0
  185.8690  178.6110  145.1340 C   0  0  0  0  0  3  0  0  0  0  0  0
  185.6790  178.2630  141.9500 O   0  0  0  0  0  0  0  0  0  0  0  0
  180.2020  177.6260  141.4120 C   0  0  0  0  0  2  0  0  0  0  0  0
  185.0650  179.0790  144.0920 C   0  0  0  0  0  0  0  0  0  0  0  0
  186.3340  178.6570  140.7750 C   0  0  1  0  0  3  0  0  0  0  0  0
  183.6820  179.2210  144.3090 C   0  0  0  0  0  0  0  0  0  0  0  0
  181.7430  180.5630  143.6240 N   0  0  0  0  0  1  0  0  0  0  0  0
  183.2100  177.8140  140.1920 C   0  0  1  0  0  3  0  0  0  0  0  0
  181.3340  177.3930  138.3860 C   0  0  2  0  0  3  0  0  0  0  0  0
  183.9180  178.4250  146.5380 C   0  0  0  0  0  3  0  0  0  0  0  0
  181.0250  177.6880  142.6930 C   0  0  2  0  0  3  0  0  0  0  0  0
  180.5390  178.5290  139.0270 C   0  0  2  0  0  3  0  0  0  0  0  0
  183.1460  178.8800  145.5130 N   0  0  0  0  0  0  0  0  0  0  0  0
  188.2800  177.8670  142.1330 N   0  0  1  0  0  0  0  0  0  0  0  0
  190.5070  178.5430  142.8280 C   0  0  0  0  0  2  0  0  0  0  0  0
  187.7670  178.1100  140.7640 C   0  0  2  0  0  3  0  0  0  0  0  0
  190.4170  177.3240  139.2910 C   0  0  0  0  0  0  0  0  0  0  0  0
  191.6810  176.3780  142.1000 C   0  0  0  0  0  2  0  0  0  0  0  0
  189.1400  176.6820  142.1110 C   0  0  2  0  0  3  0  0  0  0  0  0
  190.0300  178.4060  139.8980 N   0  0  0  0  0  0  0  0  0  0  0  0
  188.5300  175.6510  142.8250 O   0  0  0  0  0  1  0  0  0  0  0  0
  188.6840  178.9550  139.8590 C   0  0  0  0  0  2  0  0  0  0  0  0
  189.0620  178.9860  142.6800 C   0  0  0  0  0  2  0  0  0  0  0  0
  191.6260  176.7420  139.6700 O   0  0  0  0  0  0  0  0  0  0  0  0
  190.4590  177.0380  142.7640 C   0  0  2  0  0  3  0  0  0  0  0  0
  192.2800  177.1040  140.8840 C   0  0  0  0  0  2  0  0  0  0  0  0
  189.5560  176.6710  138.2380 C   0  0  2  0  0  3  0  0  0  0  0  0
  189.5920  173.2420  136.9520 O   0  0  0  0  0  1  0  0  0  0  0  0
  187.9160  174.7860  136.7330 O   0  0  0  0  0  0  0  0  0  0  0  0
  189.1560  174.3910  137.2210 C   0  0  0  0  0  0  0  0  0  0  0  0
  189.9550  175.2910  137.9860 N   0  0  0  0  0  2  0  0  0  0  0  0
  189.5970  177.4630  136.9360 C   0  0  0  0  0  2  0  0  0  0  0  0
  188.4390  178.2310  136.7770 O   0  0  0  0  0  1  0  0  0  0  0  0
  179.3830  176.0030  138.4290 O   0  0  0  0  0  0  0  0  0  0  0  0
  180.6380  176.0660  138.5160 C   0  0  0  0  0  0  0  0  0  0  0  0
  181.3550  174.9160  138.8250 O   0  0  0  0  0  1  0  0  0  0  0  0
  178.9310  178.8160  143.6310 C   0  0  0  0  0  1  0  0  0  0  0  0
  180.2300  178.0880  143.9440 C   0  0  0  0  0  2  0  0  0  0  0  0
  1  5  1  0  0  0  0
  1  9  1  0  0  0  0
  2 18  1  1  0  0  0
  2 17  1  0  0  0  0
  3 15  1  0  0  0  0
  4  8  1  0  0  0  0
  5 19  1  0  0  0  0
  6 23  1  0  0  0  0
  7 21  1  0  0  0  0
  8 22  1  0  0  0  0
  8  2  1  0  0  0  0
  9 11  1  0  0  0  0
  9 19  1  0  0  0  0
 10  4  1  0  0  0  0
 10 14  1  0  0  0  0
 11 16  1  0  0  0  0
 12  7  2  0  0  0  0
 13  3  1  0  0  0  0
 14 22  1  0  0  0  0
 15 17  2  0  0  0  0
 15 12  1  0  0  0  0
 16 13  1  0  0  0  0
 17 24  1  0  0  0  0
 19  4  1  0  0  0  0
 20 46  1  0  0  0  0
 20  5  1  0  0  0  0
 20 23  1  0  0  0  0
 22 49  1  0  0  0  0
 23 10  1  0  0  0  0
 24 21  2  0  0  0  0
 25 34  1  0  0  0  0
 27 16  1  0  0  0  0
 27 25  1  0  0  0  0
 28 35  1  0  0  0  0
 28 31  2  0  0  0  0
 29 36  1  0  0  0  0
 30 25  1  0  0  0  0
 30 36  1  0  0  0  0
 30 32  1  0  0  0  0
 33 31  1  0  0  0  0
 33 27  1  0  0  0  0
 34 26  1  0  0  0  0
 35 37  1  0  0  0  0
 36 26  1  0  0  0  0
 37 29  1  0  0  0  0
 38 28  1  0  0  0  0
 39 41  1  0  0  0  0
 40 41  2  0  0  0  0
 41 42  1  0  0  0  0
 42 38  1  0  0  0  0
 43 38  1  0  0  0  0
 44 43  1  0  0  0  0
 45 46  2  0  0  0  0
 46 47  1  0  0  0  0
 48 49  1  0  0  0  0
M  END
>  <MODEL>
6

>  <REMARK>
 VINA RESULT:      -6.2      2.766      6.125
  Name = 
  6 active torsions:
  status: ('A' for Active; 'I' for Inactive)
    1  A    between atoms: CA_6  and  C_10
    2  A    between atoms: CA_6  and  C_16
    3  A    between atoms: CA_6  and  N_48
    4  A    between atoms: C_8  and  C_30
    5  A    between atoms: C_32  and  C_39
    6  A    between atoms: C_43  and  C_45
                            x       y       z     vdW  Elec       q    Type
                         _______ _______ _______ _____ _____    ______ ____

>  <TORSDO>
F 6

$$$$
=
 OpenBabel11062411003D

 49 55  0  0  1  0  0  0  0  0999 V2000
  186.5100  178.9980  142.4330 O   0  0  0  0  0  0  0  0  0  0  0  0
  188.8120  178.2370  137.6990 C   0  0  2  0  0  3  0  0  0  0  0  0
  185.9210  178.5430  137.2990 C   0  0  0  0  0  2  0  0  0  0  0  0
  188.5870  178.3030  140.1970 C   0  0  2  0  0  3  0  0  0  0  0  0
  187.2630  177.8140  142.3950 C   0  0  1  0  0  3  0  0  0  0  0  0
  189.6430  180.0700  142.5950 C   0  0  0  0  0  1  0  0  0  0  0  0
  186.8430  176.0570  134.6010 C   0  0  0  0  0  3  0  0  0  0  0  0
  188.8050  177.4210  138.9940 C   0  0  2  0  0  3  0  0  0  0  0  0
  186.3980  178.9950  141.0280 C   0  0  2  0  0  3  0  0  0  0  0  0
  189.8640  178.1550  141.0020 C   0  0  2  0  0  3  0  0  0  0  0  0
  184.9700  178.6110  140.6370 C   0  0  0  0  0  2  0  0  0  0  0  0
  186.1000  176.9160  135.4120 C   0  0  0  0  0  3  0  0  0  0  0  0
  185.4780  177.8360  138.4230 O   0  0  0  0  0  0  0  0  0  0  0  0
  190.3850  176.7530  140.7560 C   0  0  0  0  0  2  0  0  0  0  0  0
  186.7340  177.6480  136.4180 C   0  0  0  0  0  0  0  0  0  0  0  0
  184.6850  178.7440  139.1380 C   0  0  1  0  0  3  0  0  0  0  0  0
  188.1240  177.5110  136.5890 C   0  0  0  0  0  0  0  0  0  0  0  0
  190.1170  178.7480  137.3150 N   0  0  0  0  0  1  0  0  0  0  0  0
  187.3100  177.8010  140.8790 C   0  0  1  0  0  3  0  0  0  0  0  0
  188.5750  177.8870  143.1920 C   0  0  2  0  0  3  0  0  0  0  0  0
  188.2180  175.9360  134.8090 C   0  0  0  0  0  3  0  0  0  0  0  0
  189.9110  176.4100  139.3490 C   0  0  2  0  0  3  0  0  0  0  0  0
  189.7390  178.5620  142.4670 C   0  0  2  0  0  3  0  0  0  0  0  0
  188.8240  176.6540  135.7950 N   0  0  0  0  0  0  0  0  0  0  0  0
  182.6150  177.6540  140.0210 N   0  0  1  0  0  0  0  0  0  0  0  0
  181.1740  175.7350  139.6450 C   0  0  0  0  0  2  0  0  0  0  0  0
  183.2000  178.4390  138.9080 C   0  0  2  0  0  3  0  0  0  0  0  0
  180.6100  178.4620  137.1460 C   0  0  0  0  0  0  0  0  0  0  0  0
  178.9790  177.0660  139.5480 C   0  0  0  0  0  2  0  0  0  0  0  0
  181.2300  178.0820  140.2230 C   0  0  2  0  0  3  0  0  0  0  0  0
  181.5400  177.5750  137.3400 N   0  0  0  0  0  0  0  0  0  0  0  0
  181.1180  178.7380  141.4490 O   0  0  0  0  0  1  0  0  0  0  0  0
  182.9560  177.8630  137.4990 C   0  0  0  0  0  2  0  0  0  0  0  0
  182.6120  176.2020  139.7860 C   0  0  0  0  0  2  0  0  0  0  0  0
  179.2800  178.0880  137.3340 O   0  0  0  0  0  0  0  0  0  0  0  0
  180.3460  176.8520  140.2250 C   0  0  2  0  0  3  0  0  0  0  0  0
  178.9330  176.8890  138.0210 C   0  0  0  0  0  2  0  0  0  0  0  0
  180.9560  179.8850  136.7810 C   0  0  2  0  0  3  0  0  0  0  0  0
  179.8270  182.7870  138.7090 O   0  0  0  0  0  1  0  0  0  0  0  0
  181.9830  182.0740  138.4120 O   0  0  0  0  0  0  0  0  0  0  0  0
  180.6130  181.9310  138.2260 C   0  0  0  0  0  0  0  0  0  0  0  0
  180.0950  180.8470  137.4580 N   0  0  0  0  0  2  0  0  0  0  0  0
  180.8710  180.0940  135.2720 C   0  0  0  0  0  2  0  0  0  0  0  0
  180.8080  181.4550  134.9560 O   0  0  0  0  0  1  0  0  0  0  0  0
  188.4790  175.4940  143.2200 O   0  0  0  0  0  0  0  0  0  0  0  0
  188.9510  176.5390  143.7410 C   0  0  0  0  0  0  0  0  0  0  0  0
  189.7440  176.4310  144.8780 O   0  0  0  0  0  1  0  0  0  0  0  0
  192.4070  176.6150  138.8350 C   0  0  0  0  0  1  0  0  0  0  0  0
  191.0400  176.1740  138.3350 C   0  0  0  0  0  2  0  0  0  0  0  0
  2 18  1  6  0  0  0
  2  8  1  0  0  0  0
  3 13  1  0  0  0  0
  4 19  1  0  0  0  0
  4 10  1  0  0  0  0
  5  1  1  0  0  0  0
  5 20  1  0  0  0  0
  7 21  2  0  0  0  0
  7 12  1  0  0  0  0
  8 22  1  0  0  0  0
  8  4  1  0  0  0  0
  9  1  1  0  0  0  0
 10 23  1  0  0  0  0
 11  9  1  0  0  0  0
 12 15  2  0  0  0  0
 13 16  1  0  0  0  0
 14 10  1  0  0  0  0
 15 17  1  0  0  0  0
 15  3  1  0  0  0  0
 16 11  1  0  0  0  0
 17  2  1  0  0  0  0
 19  9  1  0  0  0  0
 19  5  1  0  0  0  0
 20 46  1  0  0  0  0
 21 24  1  0  0  0  0
 22 14  1  0  0  0  0
 23  6  1  0  0  0  0
 23 20  1  0  0  0  0
 24 17  2  0  0  0  0
 25 30  1  0  0  0  0
 26 34  1  0  0  0  0
 26 36  1  0  0  0  0
 27 16  1  0  0  0  0
 27 25  1  0  0  0  0
 28 35  1  0  0  0  0
 28 31  2  0  0  0  0
 29 36  1  0  0  0  0
 30 36  1  0  0  0  0
 30 32  1  0  0  0  0
 31 33  1  0  0  0  0
 33 27  1  0  0  0  0
 34 25  1  0  0  0  0
 35 37  1  0  0  0  0
 37 29  1  0  0  0  0
 38 28  1  0  0  0  0
 38 42  1  0  0  0  0
 41 40  2  0  0  0  0
 41 39  1  0  0  0  0
 42 41  1  0  0  0  0
 43 38  1  0  0  0  0
 44 43  1  0  0  0  0
 45 46  2  0  0  0  0
 46 47  1  0  0  0  0
 49 48  1  0  0  0  0
 49 22  1  0  0  0  0
M  END
>  <MODEL>
7

>  <REMARK>
 VINA RESULT:      -6.0      3.443      9.177
  Name = 
  6 active torsions:
  status: ('A' for Active; 'I' for Inactive)
    1  A    between atoms: CA_6  and  C_10
    2  A    between atoms: CA_6  and  C_16
    3  A    between atoms: CA_6  and  N_48
    4  A    between atoms: C_8  and  C_30
    5  A    between atoms: C_32  and  C_39
    6  A    between atoms: C_43  and  C_45
                            x       y       z     vdW  Elec       q    Type
                         _______ _______ _______ _____ _____    ______ ____

>  <TORSDO>
F 6

$$$$
=
 OpenBabel11062411003D

 49 55  0  0  1  0  0  0  0  0999 V2000
  187.2840  178.3900  142.8810 O   0  0  0  0  0  0  0  0  0  0  0  0
  188.6200  178.5160  137.7350 C   0  0  2  0  0  3  0  0  0  0  0  0
  185.7050  178.7820  137.9550 C   0  0  0  0  0  2  0  0  0  0  0  0
  188.8860  178.1540  140.2030 C   0  0  2  0  0  3  0  0  0  0  0  0
  188.0170  177.2570  142.4970 C   0  0  1  0  0  3  0  0  0  0  0  0
  190.3860  179.5300  142.6200 C   0  0  0  0  0  1  0  0  0  0  0  0
  186.0880  176.8190  134.7450 C   0  0  0  0  0  3  0  0  0  0  0  0
  188.8670  177.4950  138.8470 C   0  0  2  0  0  3  0  0  0  0  0  0
  186.8990  178.6200  141.5440 C   0  0  2  0  0  3  0  0  0  0  0  0
  190.2950  177.9180  140.7100 C   0  0  2  0  0  3  0  0  0  0  0  0
  185.4240  178.2570  141.3750 C   0  0  0  0  0  2  0  0  0  0  0  0
  185.5150  177.5020  135.8190 C   0  0  0  0  0  3  0  0  0  0  0  0
  185.4910  177.8820  139.0050 O   0  0  0  0  0  0  0  0  0  0  0  0
  190.7610  176.5970  140.1330 C   0  0  0  0  0  2  0  0  0  0  0  0
  186.3330  178.0770  136.7950 C   0  0  0  0  0  0  0  0  0  0  0  0
  184.8510  178.6290  140.0030 C   0  0  1  0  0  3  0  0  0  0  0  0
  187.7300  177.9630  136.6700 C   0  0  0  0  0  0  0  0  0  0  0  0
  189.8230  179.1300  137.2010 N   0  0  0  0  0  1  0  0  0  0  0  0
  187.7670  177.5000  141.0210 C   0  0  1  0  0  3  0  0  0  0  0  0
  189.4590  177.2420  143.0280 C   0  0  2  0  0  3  0  0  0  0  0  0
  187.4770  176.7130  134.6620 C   0  0  0  0  0  3  0  0  0  0  0  0
  190.0220  176.4770  138.8050 C   0  0  2  0  0  3  0  0  0  0  0  0
  190.4580  178.0690  142.2200 C   0  0  2  0  0  3  0  0  0  0  0  0
  188.2620  177.2760  135.6210 N   0  0  0  0  0  0  0  0  0  0  0  0
  182.5820  179.2930  140.8210 N   0  0  1  0  0  0  0  0  0  0  0  0
  180.8620  178.6160  142.3960 C   0  0  0  0  0  2  0  0  0  0  0  0
  183.3500  178.3140  140.0140 C   0  0  2  0  0  3  0  0  0  0  0  0
  180.9010  176.4910  139.3160 C   0  0  0  0  0  0  0  0  0  0  0  0
  178.9310  178.6310  140.7020 C   0  0  0  0  0  2  0  0  0  0  0  0
  181.2800  179.5060  140.1880 C   0  0  2  0  0  3  0  0  0  0  0  0
  181.6560  176.5930  140.3690 N   0  0  0  0  0  0  0  0  0  0  0  0
  181.2150  180.8060  139.6840 O   0  0  0  0  0  1  0  0  0  0  0  0
  183.0900  176.8340  140.3540 C   0  0  0  0  0  2  0  0  0  0  0  0
  182.3480  178.8630  142.2080 C   0  0  0  0  0  2  0  0  0  0  0  0
  179.5190  176.5860  139.4740 O   0  0  0  0  0  0  0  0  0  0  0  0
  180.2030  179.3160  141.2350 C   0  0  2  0  0  3  0  0  0  0  0  0
  178.9380  177.0940  140.6720 C   0  0  0  0  0  2  0  0  0  0  0  0
  181.5000  176.3330  137.9400 C   0  0  2  0  0  3  0  0  0  0  0  0
  180.1960  178.6050  135.3820 O   0  0  0  0  0  0  0  0  0  0  0  0
  181.9460  178.9840  136.8080 O   0  0  0  0  0  1  0  0  0  0  0  0
  180.9020  178.1960  136.3390 C   0  0  0  0  0  0  0  0  0  0  0  0
  180.6520  176.9110  136.9050 N   0  0  0  0  0  2  0  0  0  0  0  0
  181.7600  174.8630  137.6280 C   0  0  0  0  0  2  0  0  0  0  0  0
  180.9200  174.4090  136.6060 O   0  0  0  0  0  1  0  0  0  0  0  0
  189.1480  174.8670  143.0900 O   0  0  0  0  0  0  0  0  0  0  0  0
  189.9370  175.8340  143.2550 C   0  0  0  0  0  0  0  0  0  0  0  0
  191.2180  175.5890  143.7370 O   0  0  0  0  0  1  0  0  0  0  0  0
  192.4050  176.6540  137.8940 C   0  0  0  0  0  1  0  0  0  0  0  0
  190.9320  176.4550  137.5680 C   0  0  0  0  0  2  0  0  0  0  0  0
  2 18  1  6  0  0  0
  2  8  1  0  0  0  0
  3 13  1  0  0  0  0
  4 10  1  0  0  0  0
  4 19  1  0  0  0  0
  5  1  1  0  0  0  0
  5 20  1  0  0  0  0
  7 12  1  0  0  0  0
  8  4  1  0  0  0  0
  9  1  1  0  0  0  0
 10 23  1  0  0  0  0
 11  9  1  0  0  0  0
 12 15  2  0  0  0  0
 13 16  1  0  0  0  0
 14 10  1  0  0  0  0
 15  3  1  0  0  0  0
 16 27  1  0  0  0  0
 16 11  1  0  0  0  0
 17 15  1  0  0  0  0
 17  2  1  0  0  0  0
 19  9  1  0  0  0  0
 19  5  1  0  0  0  0
 20 46  1  0  0  0  0
 21  7  2  0  0  0  0
 21 24  1  0  0  0  0
 22  8  1  0  0  0  0
 22 14  1  0  0  0  0
 23  6  1  0  0  0  0
 23 20  1  0  0  0  0
 24 17  2  0  0  0  0
 25 34  1  0  0  0  0
 27 33  1  0  0  0  0
 27 25  1  0  0  0  0
 28 35  1  0  0  0  0
 28 31  2  0  0  0  0
 29 36  1  0  0  0  0
 30 25  1  0  0  0  0
 30 36  1  0  0  0  0
 32 30  1  0  0  0  0
 33 31  1  0  0  0  0
 34 26  1  0  0  0  0
 35 37  1  0  0  0  0
 36 26  1  0  0  0  0
 37 29  1  0  0  0  0
 38 28  1  0  0  0  0
 39 41  2  0  0  0  0
 41 40  1  0  0  0  0
 41 42  1  0  0  0  0
 42 38  1  0  0  0  0
 43 38  1  0  0  0  0
 44 43  1  0  0  0  0
 45 46  2  0  0  0  0
 46 47  1  0  0  0  0
 49 48  1  0  0  0  0
 49 22  1  0  0  0  0
M  END
>  <MODEL>
8

>  <REMARK>
 VINA RESULT:      -6.0      3.216      8.837
  Name = 
  6 active torsions:
  status: ('A' for Active; 'I' for Inactive)
    1  A    between atoms: CA_6  and  C_10
    2  A    between atoms: CA_6  and  C_16
    3  A    between atoms: CA_6  and  N_48
    4  A    between atoms: C_8  and  C_30
    5  A    between atoms: C_32  and  C_39
    6  A    between atoms: C_43  and  C_45
                            x       y       z     vdW  Elec       q    Type
                         _______ _______ _______ _____ _____    ______ ____

>  <TORSDO>
F 6

$$$$
=
 OpenBabel11062411003D

 49 55  0  0  1  0  0  0  0  0999 V2000
  186.5650  178.7880  142.5920 O   0  0  0  0  0  0  0  0  0  0  0  0
  188.8650  178.3740  137.8140 C   0  0  2  0  0  3  0  0  0  0  0  0
  185.9640  178.6150  137.4420 C   0  0  0  0  0  2  0  0  0  0  0  0
  188.6500  178.2870  140.3120 C   0  0  2  0  0  3  0  0  0  0  0  0
  187.3530  177.6310  142.4820 C   0  0  1  0  0  3  0  0  0  0  0  0
  189.6660  179.9420  142.8060 C   0  0  0  0  0  1  0  0  0  0  0  0
  186.9450  176.3200  134.6000 C   0  0  0  0  0  3  0  0  0  0  0  0
  188.8890  177.4840  139.0590 C   0  0  2  0  0  3  0  0  0  0  0  0
  186.4460  178.8640  141.1890 C   0  0  2  0  0  3  0  0  0  0  0  0
  189.9350  178.1310  141.1020 C   0  0  2  0  0  3  0  0  0  0  0  0
  185.0280  178.4610  140.7820 C   0  0  0  0  0  2  0  0  0  0  0  0
  186.1810  177.1070  135.4630 C   0  0  0  0  0  3  0  0  0  0  0  0
  185.5470  177.8310  138.5240 O   0  0  0  0  0  0  0  0  0  0  0  0
  190.4960  176.7620  140.7740 C   0  0  0  0  0  2  0  0  0  0  0  0
  186.7990  177.7980  136.5080 C   0  0  0  0  0  0  0  0  0  0  0  0
  184.7310  178.6720  139.2930 C   0  0  1  0  0  3  0  0  0  0  0  0
  188.1930  177.6930  136.6660 C   0  0  0  0  0  0  0  0  0  0  0  0
  190.1520  178.9450  137.4560 N   0  0  0  0  0  1  0  0  0  0  0  0
  187.3920  177.7080  140.9680 C   0  0  1  0  0  3  0  0  0  0  0  0
  188.6660  177.6970  143.2770 C   0  0  2  0  0  3  0  0  0  0  0  0
  188.3240  176.2280  134.7970 C   0  0  0  0  0  3  0  0  0  0  0  0
  190.0260  176.4860  139.3510 C   0  0  2  0  0  3  0  0  0  0  0  0
  189.8060  178.4470  142.5890 C   0  0  2  0  0  3  0  0  0  0  0  0
  188.9130  176.9050  135.8200 N   0  0  0  0  0  0  0  0  0  0  0  0
  183.0780  176.9740  138.4940 N   0  0  1  0  0  0  0  0  0  0  0  0
  181.5830  176.5110  136.6370 C   0  0  0  0  0  2  0  0  0  0  0  0
  183.2550  178.3360  139.0520 C   0  0  2  0  0  3  0  0  0  0  0  0
  180.2200  179.1090  138.9610 C   0  0  0  0  0  0  0  0  0  0  0  0
  179.4950  176.0970  138.0740 C   0  0  0  0  0  2  0  0  0  0  0  0
  181.8470  176.3980  139.0370 C   0  0  2  0  0  3  0  0  0  0  0  0
  181.1550  179.0860  138.0580 N   0  0  0  0  0  0  0  0  0  0  0  0
  182.1640  175.3380  139.8860 O   0  0  0  0  0  1  0  0  0  0  0  0
  182.5430  179.4620  138.2760 C   0  0  0  0  0  2  0  0  0  0  0  0
  182.9860  176.9420  137.0260 C   0  0  0  0  0  2  0  0  0  0  0  0
  179.0320  178.4250  138.7090 O   0  0  0  0  0  0  0  0  0  0  0  0
  181.0090  175.8890  137.8830 C   0  0  2  0  0  3  0  0  0  0  0  0
  178.9310  177.4660  137.6590 C   0  0  0  0  0  2  0  0  0  0  0  0
  180.4310  179.8070  140.2820 C   0  0  2  0  0  3  0  0  0  0  0  0
  179.7480  178.1450  143.4730 O   0  0  0  0  0  1  0  0  0  0  0  0
  181.7950  178.6990  142.6110 O   0  0  0  0  0  0  0  0  0  0  0  0
  180.4100  178.6280  142.5190 C   0  0  0  0  0  0  0  0  0  0  0  0
  179.7320  179.1360  141.3720 N   0  0  0  0  0  2  0  0  0  0  0  0
  179.9820  181.2620  140.2040 C   0  0  0  0  0  2  0  0  0  0  0  0
  179.0800  181.5660  141.2290 O   0  0  0  0  0  1  0  0  0  0  0  0
  188.5700  175.3040  143.2290 O   0  0  0  0  0  0  0  0  0  0  0  0
  189.0850  176.3310  143.7460 C   0  0  0  0  0  0  0  0  0  0  0  0
  189.9680  176.1850  144.8090 O   0  0  0  0  0  1  0  0  0  0  0  0
  191.2360  174.9590  137.6960 C   0  0  0  0  0  1  0  0  0  0  0  0
  191.1560  176.3440  138.3200 C   0  0  0  0  0  2  0  0  0  0  0  0
  2 18  1  6  0  0  0
  2  8  1  0  0  0  0
  3 13  1  0  0  0  0
  4 19  1  0  0  0  0
  4 10  1  0  0  0  0
  5  1  1  0  0  0  0
  5 20  1  0  0  0  0
  7 21  2  0  0  0  0
  7 12  1  0  0  0  0
  8 22  1  0  0  0  0
  8  4  1  0  0  0  0
  9  1  1  0  0  0  0
 10 23  1  0  0  0  0
 11  9  1  0  0  0  0
 12 15  2  0  0  0  0
 13 16  1  0  0  0  0
 14 10  1  0  0  0  0
 15 17  1  0  0  0  0
 15  3  1  0  0  0  0
 16 11  1  0  0  0  0
 17  2  1  0  0  0  0
 19  9  1  0  0  0  0
 19  5  1  0  0  0  0
 20 46  1  0  0  0  0
 21 24  1  0  0  0  0
 22 14  1  0  0  0  0
 23  6  1  0  0  0  0
 23 20  1  0  0  0  0
 24 17  2  0  0  0  0
 25 30  1  0  0  0  0
 25 27  1  0  0  0  0
 26 34  1  0  0  0  0
 26 36  1  0  0  0  0
 27 16  1  0  0  0  0
 28 38  1  0  0  0  0
 30 32  1  0  0  0  0
 31 33  1  0  0  0  0
 31 28  2  0  0  0  0
 33 27  1  0  0  0  0
 34 25  1  0  0  0  0
 35 28  1  0  0  0  0
 36 29  1  0  0  0  0
 36 30  1  0  0  0  0
 37 29  1  0  0  0  0
 37 35  1  0  0  0  0
 38 42  1  0  0  0  0
 41 40  2  0  0  0  0
 41 39  1  0  0  0  0
 42 41  1  0  0  0  0
 43 38  1  0  0  0  0
 43 44  1  0  0  0  0
 45 46  2  0  0  0  0
 46 47  1  0  0  0  0
 48 49  1  0  0  0  0
 49 22  1  0  0  0  0
M  END
>  <MODEL>
9

>  <REMARK>
 VINA RESULT:      -5.7      3.139      8.613
  Name = 
  6 active torsions:
  status: ('A' for Active; 'I' for Inactive)
    1  A    between atoms: CA_6  and  C_10
    2  A    between atoms: CA_6  and  C_16
    3  A    between atoms: CA_6  and  N_48
    4  A    between atoms: C_8  and  C_30
    5  A    between atoms: C_32  and  C_39
    6  A    between atoms: C_43  and  C_45
                            x       y       z     vdW  Elec       q    Type
                         _______ _______ _______ _____ _____    ______ ____

>  <TORSDO>
F 6

$$$$
