=
 OpenBabel11062415463D

 27 30  0  0  1  0  0  0  0  0999 V2000
  183.9750  178.6280  145.3320 C   0  0  0  0  0  2  0  0  0  0  0  0
  185.3570  177.9570  145.3970 C   0  0  1  0  0  3  0  0  0  0  0  0
  185.7130  179.3210  147.3430 O   0  0  0  0  0  1  0  0  0  0  0  0
  189.8090  177.0470  146.3020 C   0  0  0  0  0  3  0  0  0  0  0  0
  185.3380  178.0170  142.9350 N   0  0  0  0  0  0  0  0  0  0  0  0
  190.7050  178.2600  143.6390 C   0  0  0  0  0  3  0  0  0  0  0  0
  191.0560  177.1430  145.8470 C   0  0  0  0  0  3  0  0  0  0  0  0
  191.4560  177.9950  144.7150 C   0  0  0  0  0  3  0  0  0  0  0  0
  188.4160  177.5070  144.3120 C   0  0  0  0  0  0  0  0  0  0  0  0
  183.8690  179.5640  144.1410 C   0  0  0  0  0  2  0  0  0  0  0  0
  184.0610  178.7260  142.8900 C   0  0  0  0  0  2  0  0  0  0  0  0
  187.8810  178.1320  147.9970 O   0  0  0  0  0  1  0  0  0  0  0  0
  185.9250  177.6290  144.0310 C   0  0  0  0  0  0  0  0  0  0  0  0
  187.1630  176.9280  143.9250 N   0  0  0  0  0  2  0  0  0  0  0  0
  188.6890  177.8780  145.7550 C   0  0  1  0  0  3  0  0  0  0  0  0
  189.3440  177.7330  143.3580 C   0  0  0  0  0  0  0  0  0  0  0  0
  186.3570  178.7560  146.2360 C   0  0  1  0  0  3  0  0  0  0  0  0
  187.4780  177.8140  146.6940 C   0  0  2  0  0  3  0  0  0  0  0  0
  188.9760  177.5170  141.9130 C   0  0  2  0  0  3  0  0  0  0  0  0
  188.1530  178.5020  138.8390 C   0  0  0  0  0  2  0  0  0  0  0  0
  187.4220  178.3970  140.1790 C   0  0  0  0  0  2  0  0  0  0  0  0
  190.1810  177.0300  141.0840 C   0  0  2  0  0  3  0  0  0  0  0  0
  189.8230  176.7520  139.6140 C   0  0  1  0  0  3  0  0  0  0  0  0
  189.6180  178.0670  138.8750 C   0  0  0  0  0  2  0  0  0  0  0  0
  188.3060  178.7710  141.3570 C   0  0  0  0  0  2  0  0  0  0  0  0
  190.9460  176.0030  138.9180 C   0  0  0  0  0  1  0  0  0  0  0  0
  190.6990  175.8710  141.6740 O   0  0  0  0  0  1  0  0  0  0  0  0
  2  1  1  6  0  0  0
  2 17  1  0  0  0  0
  5 13  2  0  0  0  0
  6  8  2  0  0  0  0
  7  4  2  0  0  0  0
  8  7  1  0  0  0  0
  9 15  1  0  0  0  0
 10  1  1  0  0  0  0
 11  5  1  0  0  0  0
 11 10  1  0  0  0  0
 13  2  1  0  0  0  0
 14 13  1  0  0  0  0
 14  9  1  0  0  0  0
 15  4  1  1  0  0  0
 15 18  1  0  0  0  0
 16  6  1  0  0  0  0
 16  9  2  0  0  0  0
 17 18  1  0  0  0  0
 17  3  1  1  0  0  0
 18 12  1  1  0  0  0
 19 16  1  1  0  0  0
 20 24  1  0  0  0  0
 20 21  1  0  0  0  0
 21 25  1  0  0  0  0
 22 27  1  1  0  0  0
 22 19  1  0  0  0  0
 23 26  1  6  0  0  0
 23 22  1  0  0  0  0
 24 23  1  0  0  0  0
 25 19  1  0  0  0  0
M  END
>  <MODEL>
1

>  <REMARK>
 VINA RESULT:     -10.9      0.000      0.000
  Name = 
  1 active torsions:
  status: ('A' for Active; 'I' for Inactive)
    1  A    between atoms: C_2  and  C_23
                            x       y       z     vdW  Elec       q    Type
                         _______ _______ _______ _____ _____    ______ ____

>  <TORSDO>
F 1

$$$$
=
 OpenBabel11062415463D

 27 30  0  0  1  0  0  0  0  0999 V2000
  189.8760  177.1910  147.4680 C   0  0  0  0  0  2  0  0  0  0  0  0
  189.5760  176.8870  145.9910 C   0  0  1  0  0  3  0  0  0  0  0  0
  191.7280  177.8640  145.5530 O   0  0  0  0  0  1  0  0  0  0  0  0
  189.5850  176.9490  141.3580 C   0  0  0  0  0  3  0  0  0  0  0  0
  187.2340  177.4490  146.5050 N   0  0  0  0  0  0  0  0  0  0  0  0
  187.2040  178.8700  141.2760 C   0  0  0  0  0  3  0  0  0  0  0  0
  188.9940  177.4450  140.2730 C   0  0  0  0  0  3  0  0  0  0  0  0
  188.0630  178.5840  140.2900 C   0  0  0  0  0  3  0  0  0  0  0  0
  187.9890  177.4480  143.1790 C   0  0  0  0  0  0  0  0  0  0  0  0
  188.9810  178.2970  147.9990 C   0  0  0  0  0  2  0  0  0  0  0  0
  187.5470  177.8100  147.8860 C   0  0  0  0  0  2  0  0  0  0  0  0
  191.7520  177.1440  143.1000 O   0  0  0  0  0  1  0  0  0  0  0  0
  188.1050  177.0000  145.6460 C   0  0  0  0  0  0  0  0  0  0  0  0
  187.6530  176.6680  144.3350 N   0  0  0  0  0  2  0  0  0  0  0  0
  189.4240  177.5690  142.7120 C   0  0  1  0  0  3  0  0  0  0  0  0
  186.9980  178.0910  142.5250 C   0  0  0  0  0  0  0  0  0  0  0  0
  190.4350  177.7180  145.0350 C   0  0  1  0  0  3  0  0  0  0  0  0
  190.4820  177.0120  143.6740 C   0  0  2  0  0  3  0  0  0  0  0  0
  185.6120  178.0930  143.1160 C   0  0  2  0  0  3  0  0  0  0  0  0
  183.1380  179.3230  144.9770 C   0  0  0  0  0  2  0  0  0  0  0  0
  184.4440  178.5780  145.2600 C   0  0  0  0  0  2  0  0  0  0  0  0
  184.5410  178.4170  142.0560 C   0  0  2  0  0  3  0  0  0  0  0  0
  183.1110  178.3770  142.6200 C   0  0  1  0  0  3  0  0  0  0  0  0
  182.8670  179.5970  143.4980 C   0  0  0  0  0  2  0  0  0  0  0  0
  185.5740  179.0070  144.3390 C   0  0  0  0  0  2  0  0  0  0  0  0
  182.0870  178.4070  141.4980 C   0  0  0  0  0  1  0  0  0  0  0  0
  184.6600  177.5080  140.9980 O   0  0  0  0  0  1  0  0  0  0  0  0
  1 10  1  0  0  0  0
  2  1  1  1  0  0  0
  5 11  1  0  0  0  0
  6 16  1  0  0  0  0
  7  8  1  0  0  0  0
  7  4  2  0  0  0  0
  8  6  2  0  0  0  0
  9 14  1  0  0  0  0
 11 10  1  0  0  0  0
 13  2  1  0  0  0  0
 13  5  2  0  0  0  0
 14 13  1  0  0  0  0
 15  4  1  6  0  0  0
 15  9  1  0  0  0  0
 15 18  1  0  0  0  0
 16  9  2  0  0  0  0
 17  3  1  1  0  0  0
 17  2  1  0  0  0  0
 18 12  1  6  0  0  0
 18 17  1  0  0  0  0
 19 16  1  6  0  0  0
 19 25  1  0  0  0  0
 20 21  1  0  0  0  0
 22 27  1  6  0  0  0
 22 23  1  0  0  0  0
 22 19  1  0  0  0  0
 23 26  1  6  0  0  0
 23 24  1  0  0  0  0
 24 20  1  0  0  0  0
 25 21  1  0  0  0  0
M  END
>  <MODEL>
2

>  <REMARK>
 VINA RESULT:      -8.8      2.036      5.550
  Name = 
  1 active torsions:
  status: ('A' for Active; 'I' for Inactive)
    1  A    between atoms: C_2  and  C_23
                            x       y       z     vdW  Elec       q    Type
                         _______ _______ _______ _____ _____    ______ ____

>  <TORSDO>
F 1

$$$$
=
 OpenBabel11062415463D

 27 30  0  0  1  0  0  0  0  0999 V2000
  183.2870  178.8760  139.7760 C   0  0  0  0  0  2  0  0  0  0  0  0
  184.8050  178.9710  139.5530 C   0  0  1  0  0  3  0  0  0  0  0  0
  184.4010  177.6650  137.5770 O   0  0  0  0  0  1  0  0  0  0  0  0
  189.1420  178.1550  138.1410 C   0  0  0  0  0  3  0  0  0  0  0  0
  185.0260  178.8100  142.0010 N   0  0  0  0  0  0  0  0  0  0  0  0
  189.7800  176.5710  140.6810 C   0  0  0  0  0  3  0  0  0  0  0  0
  190.2970  177.5700  138.4490 C   0  0  0  0  0  3  0  0  0  0  0  0
  190.4570  176.5790  139.5250 C   0  0  0  0  0  3  0  0  0  0  0  0
  187.8990  178.1700  140.2780 C   0  0  0  0  0  0  0  0  0  0  0  0
  182.9560  177.9970  140.9700 C   0  0  0  0  0  2  0  0  0  0  0  0
  183.5870  178.6400  142.1930 C   0  0  0  0  0  2  0  0  0  0  0  0
  186.7760  177.9660  136.6790 O   0  0  0  0  0  1  0  0  0  0  0  0
  185.5970  178.9950  140.8450 C   0  0  0  0  0  0  0  0  0  0  0  0
  187.0130  179.1650  140.8090 N   0  0  0  0  0  2  0  0  0  0  0  0
  187.8530  177.7900  138.8130 C   0  0  1  0  0  3  0  0  0  0  0  0
  188.7640  177.5640  141.1180 C   0  0  0  0  0  0  0  0  0  0  0  0
  185.3260  177.8910  138.6030 C   0  0  1  0  0  3  0  0  0  0  0  0
  186.6680  178.3540  138.0200 C   0  0  2  0  0  3  0  0  0  0  0  0
  188.6630  177.8380  142.5970 C   0  0  2  0  0  3  0  0  0  0  0  0
  187.7960  177.1300  145.7340 C   0  0  0  0  0  2  0  0  0  0  0  0
  187.0550  177.6060  144.4820 C   0  0  0  0  0  2  0  0  0  0  0  0
  190.0340  177.7230  143.2930 C   0  0  2  0  0  3  0  0  0  0  0  0
  189.9700  178.0470  144.7950 C   0  0  1  0  0  3  0  0  0  0  0  0
  189.2950  176.9050  145.5410 C   0  0  0  0  0  2  0  0  0  0  0  0
  187.5780  176.9570  143.2120 C   0  0  0  0  0  2  0  0  0  0  0  0
  191.3660  178.2120  145.3710 C   0  0  0  0  0  1  0  0  0  0  0  0
  190.9380  178.5840  142.6590 O   0  0  0  0  0  1  0  0  0  0  0  0
  1 10  1  0  0  0  0
  2  1  1  1  0  0  0
  2 13  1  0  0  0  0
  4  7  2  0  0  0  0
  5 11  1  0  0  0  0
  6 16  1  0  0  0  0
  7  8  1  0  0  0  0
  8  6  2  0  0  0  0
  9 14  1  0  0  0  0
  9 16  2  0  0  0  0
 10 11  1  0  0  0  0
 13  5  2  0  0  0  0
 14 13  1  0  0  0  0
 15  4  1  6  0  0  0
 15  9  1  0  0  0  0
 17  3  1  6  0  0  0
 17  2  1  0  0  0  0
 18 12  1  6  0  0  0
 18 17  1  0  0  0  0
 18 15  1  0  0  0  0
 19 16  1  6  0  0  0
 19 25  1  0  0  0  0
 19 22  1  0  0  0  0
 21 20  1  0  0  0  0
 22 27  1  6  0  0  0
 22 23  1  0  0  0  0
 23 26  1  1  0  0  0
 23 24  1  0  0  0  0
 24 20  1  0  0  0  0
 25 21  1  0  0  0  0
M  END
>  <MODEL>
3

>  <REMARK>
 VINA RESULT:      -8.4      2.545      5.850
  Name = 
  1 active torsions:
  status: ('A' for Active; 'I' for Inactive)
    1  A    between atoms: C_2  and  C_23
                            x       y       z     vdW  Elec       q    Type
                         _______ _______ _______ _____ _____    ______ ____

>  <TORSDO>
F 1

$$$$
=
 OpenBabel11062415463D

 27 30  0  0  1  0  0  0  0  0999 V2000
  190.5210  177.2790  139.8430 C   0  0  0  0  0  2  0  0  0  0  0  0
  189.1430  177.2130  140.5210 C   0  0  1  0  0  3  0  0  0  0  0  0
  188.5190  178.9520  138.9840 O   0  0  0  0  0  1  0  0  0  0  0  0
  184.9030  178.2660  142.0640 C   0  0  0  0  0  3  0  0  0  0  0  0
  190.3610  176.7930  142.6200 N   0  0  0  0  0  0  0  0  0  0  0  0
  186.0040  179.1990  144.7630 C   0  0  0  0  0  3  0  0  0  0  0  0
  184.2040  178.7430  143.0910 C   0  0  0  0  0  3  0  0  0  0  0  0
  184.8000  179.4510  144.2350 C   0  0  0  0  0  3  0  0  0  0  0  0
  187.1210  177.7710  143.0380 C   0  0  0  0  0  0  0  0  0  0  0  0
  191.5710  177.8590  140.7750 C   0  0  0  0  0  2  0  0  0  0  0  0
  191.6650  176.9370  141.9770 C   0  0  0  0  0  2  0  0  0  0  0  0
  186.0350  178.8310  139.5810 O   0  0  0  0  0  1  0  0  0  0  0  0
  189.2200  176.8740  141.9960 C   0  0  0  0  0  0  0  0  0  0  0  0
  188.0230  176.6940  142.7490 N   0  0  0  0  0  2  0  0  0  0  0  0
  186.3790  178.4840  141.9280 C   0  0  1  0  0  3  0  0  0  0  0  0
  186.9610  178.1490  144.3240 C   0  0  0  0  0  0  0  0  0  0  0  0
  188.3130  178.4770  140.2860 C   0  0  1  0  0  3  0  0  0  0  0  0
  186.8320  178.1410  140.5030 C   0  0  2  0  0  3  0  0  0  0  0  0
  187.8420  177.5380  145.3830 C   0  0  2  0  0  3  0  0  0  0  0  0
  190.5820  177.3380  147.2670 C   0  0  0  0  0  2  0  0  0  0  0  0
  190.2380  177.0140  145.8120 C   0  0  0  0  0  2  0  0  0  0  0  0
  187.2780  177.7690  146.7990 C   0  0  2  0  0  3  0  0  0  0  0  0
  188.1320  177.1130  147.8960 C   0  0  1  0  0  3  0  0  0  0  0  0
  189.4210  177.8990  148.0880 C   0  0  0  0  0  2  0  0  0  0  0  0
  189.2790  178.0210  145.1990 C   0  0  0  0  0  2  0  0  0  0  0  0
  187.3940  177.1090  149.2240 C   0  0  0  0  0  1  0  0  0  0  0  0
  185.9710  177.2720  146.8520 O   0  0  0  0  0  1  0  0  0  0  0  0
  1 10  1  0  0  0  0
  2  1  1  1  0  0  0
  2 13  1  0  0  0  0
  4  7  2  0  0  0  0
  7  8  1  0  0  0  0
  8  6  2  0  0  0  0
  9 16  2  0  0  0  0
 10 11  1  0  0  0  0
 11  5  1  0  0  0  0
 13  5  2  0  0  0  0
 13 14  1  0  0  0  0
 14  9  1  0  0  0  0
 15  4  1  6  0  0  0
 15  9  1  0  0  0  0
 16  6  1  0  0  0  0
 17  3  1  6  0  0  0
 17 18  1  0  0  0  0
 17  2  1  0  0  0  0
 18 12  1  6  0  0  0
 18 15  1  0  0  0  0
 19 16  1  6  0  0  0
 19 22  1  0  0  0  0
 20 24  1  0  0  0  0
 21 20  1  0  0  0  0
 22 27  1  6  0  0  0
 22 23  1  0  0  0  0
 23 24  1  0  0  0  0
 23 26  1  1  0  0  0
 25 19  1  0  0  0  0
 25 21  1  0  0  0  0
M  END
>  <MODEL>
4

>  <REMARK>
 VINA RESULT:      -8.2      2.062      6.791
  Name = 
  1 active torsions:
  status: ('A' for Active; 'I' for Inactive)
    1  A    between atoms: C_2  and  C_23
                            x       y       z     vdW  Elec       q    Type
                         _______ _______ _______ _____ _____    ______ ____

>  <TORSDO>
F 1

$$$$
=
 OpenBabel11062415463D

 27 30  0  0  1  0  0  0  0  0999 V2000
  186.8250  178.2260  137.5990 C   0  0  0  0  0  2  0  0  0  0  0  0
  187.9180  178.2590  138.6800 C   0  0  1  0  0  3  0  0  0  0  0  0
  188.9310  176.4710  137.4350 O   0  0  0  0  0  1  0  0  0  0  0  0
  191.4050  177.0950  141.5000 C   0  0  0  0  0  3  0  0  0  0  0  0
  186.1120  178.7590  140.2800 N   0  0  0  0  0  0  0  0  0  0  0  0
  189.4690  176.2510  143.7150 C   0  0  0  0  0  3  0  0  0  0  0  0
  191.7230  176.6150  142.7000 C   0  0  0  0  0  3  0  0  0  0  0  0
  190.7680  175.9480  143.6000 C   0  0  0  0  0  3  0  0  0  0  0  0
  189.0130  177.6820  141.7140 C   0  0  0  0  0  0  0  0  0  0  0  0
  185.5130  177.7000  138.1530 C   0  0  0  0  0  2  0  0  0  0  0  0
  185.0760  178.6470  139.2560 C   0  0  0  0  0  2  0  0  0  0  0  0
  191.1000  176.5210  138.7900 O   0  0  0  0  0  1  0  0  0  0  0  0
  187.3890  178.6280  140.0520 C   0  0  0  0  0  0  0  0  0  0  0  0
  188.2910  178.7830  141.1450 N   0  0  0  0  0  2  0  0  0  0  0  0
  190.0420  176.9240  140.9030 C   0  0  1  0  0  3  0  0  0  0  0  0
  188.7420  177.3240  142.9870 C   0  0  0  0  0  0  0  0  0  0  0  0
  188.7310  176.9640  138.7310 C   0  0  1  0  0  3  0  0  0  0  0  0
  190.0780  177.2540  139.4060 C   0  0  2  0  0  3  0  0  0  0  0  0
  187.5930  177.9840  143.7060 C   0  0  2  0  0  3  0  0  0  0  0  0
  184.4270  178.2510  144.7060 C   0  0  0  0  0  2  0  0  0  0  0  0
  185.1760  178.4900  143.3940 C   0  0  0  0  0  2  0  0  0  0  0  0
  187.7260  177.8520  145.2360 C   0  0  2  0  0  3  0  0  0  0  0  0
  186.5930  178.5600  145.9970 C   0  0  1  0  0  3  0  0  0  0  0  0
  185.3030  177.7640  145.8610 C   0  0  0  0  0  2  0  0  0  0  0  0
  186.2700  177.4640  143.1490 C   0  0  0  0  0  2  0  0  0  0  0  0
  186.9180  178.6600  147.4780 C   0  0  0  0  0  1  0  0  0  0  0  0
  188.9630  178.3750  145.6300 O   0  0  0  0  0  1  0  0  0  0  0  0
  1 10  1  0  0  0  0
  2  1  1  6  0  0  0
  2 17  1  0  0  0  0
  2 13  1  0  0  0  0
  4  7  2  0  0  0  0
  7  8  1  0  0  0  0
  8  6  2  0  0  0  0
  9 16  2  0  0  0  0
 10 11  1  0  0  0  0
 11  5  1  0  0  0  0
 13  5  2  0  0  0  0
 13 14  1  0  0  0  0
 14  9  1  0  0  0  0
 15  4  1  1  0  0  0
 15  9  1  0  0  0  0
 16  6  1  0  0  0  0
 17  3  1  6  0  0  0
 17 18  1  0  0  0  0
 18 12  1  6  0  0  0
 18 15  1  0  0  0  0
 19 16  1  6  0  0  0
 19 22  1  0  0  0  0
 20 24  1  0  0  0  0
 21 20  1  0  0  0  0
 22 27  1  1  0  0  0
 22 23  1  0  0  0  0
 23 26  1  1  0  0  0
 24 23  1  0  0  0  0
 25 21  1  0  0  0  0
 25 19  1  0  0  0  0
M  END
>  <MODEL>
5

>  <REMARK>
 VINA RESULT:      -8.2      1.932      6.033
  Name = 
  1 active torsions:
  status: ('A' for Active; 'I' for Inactive)
    1  A    between atoms: C_2  and  C_23
                            x       y       z     vdW  Elec       q    Type
                         _______ _______ _______ _____ _____    ______ ____

>  <TORSDO>
F 1

$$$$
=
 OpenBabel11062415463D

 27 30  0  0  1  0  0  0  0  0999 V2000
  191.7510  177.0840  141.6300 C   0  0  0  0  0  2  0  0  0  0  0  0
  191.1320  177.5560  142.9560 C   0  0  1  0  0  3  0  0  0  0  0  0
  192.2990  175.6990  143.9380 O   0  0  0  0  0  1  0  0  0  0  0  0
  189.5060  177.6940  147.2930 C   0  0  0  0  0  3  0  0  0  0  0  0
  189.1330  178.1450  141.6420 N   0  0  0  0  0  0  0  0  0  0  0  0
  186.6500  177.1290  146.3500 C   0  0  0  0  0  3  0  0  0  0  0  0
  188.4200  177.5820  148.0540 C   0  0  0  0  0  3  0  0  0  0  0  0
  187.1430  177.0170  147.5890 C   0  0  0  0  0  3  0  0  0  0  0  0
  188.6010  177.9300  145.0040 C   0  0  0  0  0  0  0  0  0  0  0  0
  190.6970  176.5100  140.6990 C   0  0  0  0  0  2  0  0  0  0  0  0
  189.7040  177.6190  140.4030 C   0  0  0  0  0  2  0  0  0  0  0  0
  191.7970  176.4260  146.3380 O   0  0  0  0  0  1  0  0  0  0  0  0
  189.7540  178.1650  142.7870 C   0  0  0  0  0  0  0  0  0  0  0  0
  189.0810  178.7260  143.9120 N   0  0  0  0  0  2  0  0  0  0  0  0
  189.5610  177.1660  145.8910 C   0  0  1  0  0  3  0  0  0  0  0  0
  187.2690  177.8590  145.2130 C   0  0  0  0  0  0  0  0  0  0  0  0
  191.1260  176.4590  144.0230 C   0  0  1  0  0  3  0  0  0  0  0  0
  191.0150  177.1170  145.4050 C   0  0  2  0  0  3  0  0  0  0  0  0
  186.3360  178.4860  144.2090 C   0  0  2  0  0  3  0  0  0  0  0  0
  184.5220  178.5440  141.4160 C   0  0  0  0  0  2  0  0  0  0  0  0
  186.0110  178.6660  141.7480 C   0  0  0  0  0  2  0  0  0  0  0  0
  184.9010  178.6010  144.7590 C   0  0  2  0  0  3  0  0  0  0  0  0
  183.9370  179.2830  143.7730 C   0  0  1  0  0  3  0  0  0  0  0  0
  183.6130  178.3360  142.6270 C   0  0  0  0  0  2  0  0  0  0  0  0
  186.4350  177.7440  142.8780 C   0  0  0  0  0  2  0  0  0  0  0  0
  182.6280  179.6400  144.4590 C   0  0  0  0  0  1  0  0  0  0  0  0
  184.9320  179.3120  145.9640 O   0  0  0  0  0  1  0  0  0  0  0  0
  2  1  1  6  0  0  0
  2 17  1  0  0  0  0
  4  7  2  0  0  0  0
  5 13  2  0  0  0  0
  6  8  2  0  0  0  0
  8  7  1  0  0  0  0
  9 16  2  0  0  0  0
  9 15  1  0  0  0  0
 10  1  1  0  0  0  0
 11 10  1  0  0  0  0
 11  5  1  0  0  0  0
 13  2  1  0  0  0  0
 13 14  1  0  0  0  0
 14  9  1  0  0  0  0
 15  4  1  1  0  0  0
 16  6  1  0  0  0  0
 17  3  1  1  0  0  0
 17 18  1  0  0  0  0
 18 15  1  0  0  0  0
 18 12  1  1  0  0  0
 19 22  1  0  0  0  0
 19 16  1  1  0  0  0
 20 21  1  0  0  0  0
 20 24  1  0  0  0  0
 21 25  1  0  0  0  0
 22 27  1  1  0  0  0
 23 26  1  1  0  0  0
 23 22  1  0  0  0  0
 24 23  1  0  0  0  0
 25 19  1  0  0  0  0
M  END
>  <MODEL>
6

>  <REMARK>
 VINA RESULT:      -8.1      1.762      5.607
  Name = 
  1 active torsions:
  status: ('A' for Active; 'I' for Inactive)
    1  A    between atoms: C_2  and  C_23
                            x       y       z     vdW  Elec       q    Type
                         _______ _______ _______ _____ _____    ______ ____

>  <TORSDO>
F 1

$$$$
=
 OpenBabel11062415463D

 27 30  0  0  1  0  0  0  0  0999 V2000
  183.7780  178.8800  139.2360 C   0  0  0  0  0  2  0  0  0  0  0  0
  185.2960  178.9200  139.4780 C   0  0  1  0  0  3  0  0  0  0  0  0
  185.4440  177.4900  137.5520 O   0  0  0  0  0  1  0  0  0  0  0  0
  189.8140  177.8930  139.4950 C   0  0  0  0  0  3  0  0  0  0  0  0
  184.7630  178.9250  141.8820 N   0  0  0  0  0  0  0  0  0  0  0  0
  189.5870  176.4750  142.1980 C   0  0  0  0  0  3  0  0  0  0  0  0
  190.7950  177.3010  140.1720 C   0  0  0  0  0  3  0  0  0  0  0  0
  190.5780  176.3840  141.3030 C   0  0  0  0  0  3  0  0  0  0  0  0
  187.9880  178.0910  141.1510 C   0  0  0  0  0  0  0  0  0  0  0  0
  183.0640  178.0960  140.3230 C   0  0  0  0  0  2  0  0  0  0  0  0
  183.3270  178.8070  141.6390 C   0  0  0  0  0  2  0  0  0  0  0  0
  187.9900  177.6640  137.3990 O   0  0  0  0  0  1  0  0  0  0  0  0
  185.6640  179.0130  140.9450 C   0  0  0  0  0  0  0  0  0  0  0  0
  187.0310  179.1430  141.3290 N   0  0  0  0  0  2  0  0  0  0  0  0
  188.3680  177.6100  139.7660 C   0  0  1  0  0  3  0  0  0  0  0  0
  188.5320  177.5220  142.2480 C   0  0  0  0  0  0  0  0  0  0  0  0
  186.0280  177.7620  138.7950 C   0  0  1  0  0  3  0  0  0  0  0  0
  187.5020  178.1480  138.6190 C   0  0  2  0  0  3  0  0  0  0  0  0
  188.0050  177.9020  143.6080 C   0  0  2  0  0  3  0  0  0  0  0  0
  186.1200  177.4930  146.3230 C   0  0  0  0  0  2  0  0  0  0  0  0
  185.8710  177.9580  144.8870 C   0  0  0  0  0  2  0  0  0  0  0  0
  189.0650  177.6960  144.7080 C   0  0  2  0  0  3  0  0  0  0  0  0
  188.5700  178.1230  146.1000 C   0  0  1  0  0  3  0  0  0  0  0  0
  187.5680  177.1060  146.6270 C   0  0  0  0  0  2  0  0  0  0  0  0
  186.6870  177.1770  143.8700 C   0  0  0  0  0  2  0  0  0  0  0  0
  189.7240  178.1840  147.0870 C   0  0  0  0  0  1  0  0  0  0  0  0
  190.2160  178.4180  144.3700 O   0  0  0  0  0  1  0  0  0  0  0  0
  1 10  1  0  0  0  0
  2  1  1  1  0  0  0
  2 13  1  0  0  0  0
  4  7  2  0  0  0  0
  6 16  1  0  0  0  0
  7  8  1  0  0  0  0
  8  6  2  0  0  0  0
  9 14  1  0  0  0  0
  9 16  2  0  0  0  0
 10 11  1  0  0  0  0
 11  5  1  0  0  0  0
 13 14  1  0  0  0  0
 13  5  2  0  0  0  0
 15  4  1  6  0  0  0
 15  9  1  0  0  0  0
 17  3  1  6  0  0  0
 17  2  1  0  0  0  0
 18 12  1  6  0  0  0
 18 17  1  0  0  0  0
 18 15  1  0  0  0  0
 19 16  1  6  0  0  0
 19 25  1  0  0  0  0
 19 22  1  0  0  0  0
 20 24  1  0  0  0  0
 21 20  1  0  0  0  0
 22 27  1  6  0  0  0
 22 23  1  0  0  0  0
 23 24  1  0  0  0  0
 23 26  1  1  0  0  0
 25 21  1  0  0  0  0
M  END
>  <MODEL>
7

>  <REMARK>
 VINA RESULT:      -7.9      2.359      5.822
  Name = 
  1 active torsions:
  status: ('A' for Active; 'I' for Inactive)
    1  A    between atoms: C_2  and  C_23
                            x       y       z     vdW  Elec       q    Type
                         _______ _______ _______ _____ _____    ______ ____

>  <TORSDO>
F 1

$$$$
