=
 OpenBabel11062414163D

 60 65  0  0  1  0  0  0  0  0999 V2000
  186.2650  178.1890  136.9880 C   0  0  0  0  0  2  0  0  0  0  0  0
  183.2820  177.9510  136.9970 O   0  0  0  0  0  0  0  0  0  0  0  0
  184.2460  176.9710  136.6240 C   0  0  0  0  0  2  0  0  0  0  0  0
  185.1520  177.4330  137.7090 C   0  0  1  0  0  0  0  0  0  0  0  0
  186.6240  177.2460  138.0900 C   0  0  1  0  0  3  0  0  0  0  0  0
  184.1200  178.4530  138.0340 C   0  0  2  0  0  3  0  0  0  0  0  0
  186.5470  175.6950  136.2730 O   0  0  0  0  0  1  0  0  0  0  0  0
  187.1340  175.9250  137.5190 C   0  0  1  0  0  3  0  0  0  0  0  0
  192.8980  174.6400  135.9920 C   0  0  1  0  0  3  0  0  0  0  0  0
  189.3370  174.2850  135.2040 C   0  0  2  0  0  3  0  0  0  0  0  0
  192.6290  175.5840  134.8080 C   0  0  0  0  0  2  0  0  0  0  0  0
  188.6290  175.9560  137.3970 C   0  0  0  0  0  0  0  0  0  0  0  0
  189.3040  175.2260  136.3740 N   0  0  0  0  0  0  0  0  0  0  0  0
  189.0750  172.8690  135.6960 C   0  0  0  0  0  1  0  0  0  0  0  0
  189.3030  176.6650  138.1920 O   0  0  0  0  0  0  0  0  0  0  0  0
  191.5510  174.1060  136.4880 C   0  0  0  0  0  2  0  0  0  0  0  0
  191.1540  175.9530  134.8330 C   0  0  2  0  0  3  0  0  0  0  0  0
  191.0090  177.1590  135.4950 F   0  0  0  0  0  0  0  0  0  0  0  0
  190.5360  174.8350  135.6330 C   0  0  1  0  0  0  0  0  0  0  0  0
  193.9440  173.5450  135.6390 C   0  0  1  0  0  0  0  0  0  0  0  0
  194.9620  174.0620  134.6020 C   0  0  0  0  0  2  0  0  0  0  0  0
  196.1590  173.3490  134.6910 O   0  0  0  0  0  1  0  0  0  0  0  0
  194.6020  173.0410  136.7960 O   0  0  0  0  0  0  0  0  0  0  0  0
  194.9590  174.0880  137.6680 C   0  0  0  0  0  2  0  0  0  0  0  0
  196.0260  173.6170  138.6420 C   0  0  0  0  0  2  0  0  0  0  0  0
  197.4720  175.0590  139.7610 C   0  0  0  0  0  1  0  0  0  0  0  0
  195.2890  175.5580  139.5330 O   0  0  0  0  0  1  0  0  0  0  0  0
  196.1230  174.5230  139.7760 N   0  0  0  0  0  0  0  0  0  0  0  0
  193.0190  172.1190  134.9270 S   0  0  0  0  0  0  0  0  0  0  0  0
  194.4180  169.9430  135.4880 C   0  0  0  0  0  0  0  0  0  0  0  0
  193.5450  170.8170  136.0970 C   0  0  2  0  0  3  0  0  0  0  0  0
  195.5590  169.6290  135.0520 O   0  0  0  0  0  0  0  0  0  0  0  0
  192.9720  169.6300  135.7300 O   0  0  0  0  0  0  0  0  0  0  0  0
  183.5030  178.2490  139.4310 C   0  0  1  0  0  3  0  0  0  0  0  0
  184.6290  177.7490  141.6010 O   0  0  0  0  0  1  0  0  0  0  0  0
  185.2740  179.5760  140.3820 O   0  0  0  0  0  0  0  0  0  0  0  0
  184.5330  178.5630  140.4830 C   0  0  0  0  0  0  0  0  0  0  0  0
  182.2070  178.9520  139.5920 N   0  0  0  0  0  0  0  0  0  0  0  0
  181.5030  178.6080  140.8360 C   0  0  0  0  0  2  0  0  0  0  0  0
  181.0830  179.7700  141.4910 O   0  0  0  0  0  0  0  0  0  0  0  0
  181.0240  179.4220  142.8410 C   0  0  0  0  0  2  0  0  0  0  0  0
  179.6150  178.9920  143.2030 C   0  0  0  0  0  2  0  0  0  0  0  0
  179.6460  177.7690  143.8700 O   0  0  0  0  0  1  0  0  0  0  0  0
  181.3680  178.6070  138.4320 C   0  0  1  0  0  3  0  0  0  0  0  0
  180.4160  177.4330  138.6130 C   0  0  0  0  0  0  0  0  0  0  0  0
  179.2630  177.6470  138.9620 O   0  0  0  0  0  0  0  0  0  0  0  0
  180.8810  176.0180  138.4330 C   0  0  1  0  0  3  0  0  0  0  0  0
  180.8950  175.2940  139.7750 C   0  0  0  0  0  1  0  0  0  0  0  0
  180.0010  175.2750  137.4380 C   0  0  0  0  0  2  0  0  0  0  0  0
  180.8380  174.5660  136.4830 N   0  0  0  0  0  2  0  0  0  0  0  0
  181.4300  173.4260  137.1680 C   0  0  0  0  0  2  0  0  0  0  0  0
  183.5630  172.3650  136.2980 C   0  0  1  0  0  0  0  0  0  0  0  0
  182.0860  172.4840  136.1600 C   0  0  2  0  0  3  0  0  0  0  0  0
  184.1900  171.1350  135.6680 C   0  0  0  0  0  1  0  0  0  0  0  0
  182.9810  173.2130  135.3430 O   0  0  0  0  0  0  0  0  0  0  0  0
  184.3070  173.1320  137.3550 C   0  0  0  0  0  3  0  0  0  0  0  0
  185.5270  172.7660  137.7470 C   0  0  0  0  0  2  0  0  0  0  0  0
  180.6980  180.0850  137.5740 S   0  0  0  0  0  0  0  0  0  0  0  0
  178.9330  179.4110  135.6120 C   0  0  0  0  0  1  0  0  0  0  0  0
  180.3920  179.2590  135.9850 C   0  0  0  0  0  2  0  0  0  0  0  0
  1  4  1  0  0  0  0
  1  5  1  0  0  0  0
  2  6  1  0  0  0  0
  3  2  1  0  0  0  0
  4  3  1  6  0  0  0
  4  6  1  0  0  0  0
  4  5  1  0  0  0  0
  5  8  1  6  0  0  0
  6 34  1  1  0  0  0
  8  7  1  6  0  0  0
  9 20  1  6  0  0  0
  9 16  1  0  0  0  0
 10 19  1  0  0  0  0
 10 14  1  1  0  0  0
 10 13  1  0  0  0  0
 11 17  1  0  0  0  0
 11  9  1  0  0  0  0
 12  8  1  0  0  0  0
 12 15  2  0  0  0  0
 13 12  1  0  0  0  0
 17 18  1  1  0  0  0
 17 19  1  0  0  0  0
 19 13  1  0  0  0  0
 19 16  1  1  0  0  0
 20 21  1  6  0  0  0
 20 23  1  0  0  0  0
 21 22  1  0  0  0  0
 23 24  1  0  0  0  0
 24 25  1  0  0  0  0
 25 28  1  0  0  0  0
 26 28  1  0  0  0  0
 27 28  1  0  0  0  0
 29 20  1  0  0  0  0
 30 33  1  0  0  0  0
 30 31  1  0  0  0  0
 31 29  1  6  0  0  0
 32 30  2  0  0  0  0
 33 31  1  0  0  0  0
 34 38  1  0  0  0  0
 34 37  1  1  0  0  0
 36 37  2  0  0  0  0
 37 35  1  0  0  0  0
 38 39  1  0  0  0  0
 39 40  1  0  0  0  0
 40 41  1  0  0  0  0
 41 42  1  0  0  0  0
 42 43  1  0  0  0  0
 44 58  1  1  0  0  0
 44 45  1  0  0  0  0
 44 38  1  0  0  0  0
 45 46  2  0  0  0  0
 47 45  1  0  0  0  0
 47 48  1  1  0  0  0
 49 47  1  0  0  0  0
 50 51  1  0  0  0  0
 50 49  1  0  0  0  0
 52 54  1  6  0  0  0
 52 56  1  0  0  0  0
 53 52  1  0  0  0  0
 53 51  1  1  0  0  0
 55 53  1  0  0  0  0
 55 52  1  0  0  0  0
 56 57  2  0  0  0  0
 59 60  1  0  0  0  0
 60 58  1  0  0  0  0
M  END
>  <MODEL>
1

>  <REMARK>
 VINA RESULT:      -4.3      0.000      0.000
  Name = 
  27 active torsions:
  status: ('A' for Active; 'I' for Inactive)
    1  A    between atoms: C_1  and  C_18
    2  A    between atoms: C_1  and  N_19
    3  A    between atoms: C_1  and  C_55
    4  A    between atoms: C_2  and  O_41
    5  A    between atoms: C_2  and  C_50
    6  A    between atoms: C_4  and  C_20
    7  A    between atoms: C_6  and  C_20
    8  A    between atoms: C_7  and  C_12
    9  A    between atoms: C_7  and  C_16
   10  A    between atoms: C_8  and  C_17
   11  A    between atoms: S_10  and  C_20
   12  A    between atoms: S_10  and  C_23
   13  A    between atoms: C_12  and  N_19
   14  A    between atoms: C_12  and  S_24
   15  A    between atoms: C_14  and  C_26
   16  A    between atoms: C_14  and  N_57
   17  A    between atoms: C_16  and  C_52
   18  A    between atoms: N_19  and  C_21
   19  A    between atoms: C_20  and  O_29
   20  A    between atoms: C_21  and  O_41
   21  A    between atoms: S_24  and  C_54
   22  A    between atoms: O_29  and  C_39
   23  A    between atoms: C_30  and  C_46
   24  A    between atoms: C_39  and  C_40
   25  A    between atoms: C_40  and  N_48
   26  A    between atoms: C_46  and  C_47
   27  A    between atoms: C_52  and  N_57
                            x       y       z     vdW  Elec       q    Type
                         _______ _______ _______ _____ _____    ______ ____

>  <TORSDO>
F 27

$$$$
=
 OpenBabel11062414163D

 60 65  0  0  1  0  0  0  0  0999 V2000
  186.0230  177.6170  143.4420 C   0  0  0  0  0  2  0  0  0  0  0  0
  184.1600  179.9220  143.0250 O   0  0  0  0  0  0  0  0  0  0  0  0
  185.5840  179.9300  143.0580 C   0  0  0  0  0  2  0  0  0  0  0  0
  185.6200  178.6170  142.3610 C   0  0  1  0  0  0  0  0  0  0  0  0
  186.6590  177.5240  142.0930 C   0  0  1  0  0  3  0  0  0  0  0  0
  184.1330  178.6510  142.3820 C   0  0  2  0  0  3  0  0  0  0  0  0
  188.4600  178.3310  143.4400 O   0  0  0  0  0  1  0  0  0  0  0  0
  188.0590  178.1330  142.1170 C   0  0  1  0  0  3  0  0  0  0  0  0
  191.3490  175.3470  137.8030 C   0  0  1  0  0  3  0  0  0  0  0  0
  189.3540  178.2640  138.7690 C   0  0  2  0  0  3  0  0  0  0  0  0
  192.3540  176.4830  138.0570 C   0  0  0  0  0  2  0  0  0  0  0  0
  189.0260  177.2350  141.4040 C   0  0  0  0  0  0  0  0  0  0  0  0
  189.4170  177.4920  140.0560 N   0  0  0  0  0  0  0  0  0  0  0  0
  188.0390  177.9570  138.0680 C   0  0  0  0  0  1  0  0  0  0  0  0
  189.5300  176.2550  142.0140 O   0  0  0  0  0  0  0  0  0  0  0  0
  189.9660  175.8270  138.2550 C   0  0  0  0  0  2  0  0  0  0  0  0
  191.7060  177.4710  139.0130 C   0  0  2  0  0  3  0  0  0  0  0  0
  192.1110  177.1720  140.3030 F   0  0  0  0  0  0  0  0  0  0  0  0
  190.2340  177.1940  138.8450 C   0  0  1  0  0  0  0  0  0  0  0  0
  191.4130  174.8270  136.3380 C   0  0  1  0  0  0  0  0  0  0  0  0
  192.2280  175.7840  135.4440 C   0  0  0  0  0  2  0  0  0  0  0  0
  191.3810  176.5360  134.6290 O   0  0  0  0  0  1  0  0  0  0  0  0
  191.9190  173.4990  136.2630 O   0  0  0  0  0  0  0  0  0  0  0  0
  193.1330  173.3830  136.9700 C   0  0  0  0  0  2  0  0  0  0  0  0
  194.1740  172.6880  136.1100 C   0  0  0  0  0  2  0  0  0  0  0  0
  195.3790  173.9640  137.6410 C   0  0  0  0  0  1  0  0  0  0  0  0
  195.9380  171.8230  137.2260 O   0  0  0  0  0  1  0  0  0  0  0  0
  195.5140  172.9500  136.6110 N   0  0  0  0  0  0  0  0  0  0  0  0
  189.6800  174.7390  135.7170 S   0  0  0  0  0  0  0  0  0  0  0  0
  189.1590  172.1630  135.4000 C   0  0  0  0  0  0  0  0  0  0  0  0
  189.2100  173.1100  136.3990 C   0  0  2  0  0  3  0  0  0  0  0  0
  189.7070  171.3620  134.5940 O   0  0  0  0  0  0  0  0  0  0  0  0
  187.9410  172.8050  135.9890 O   0  0  0  0  0  0  0  0  0  0  0  0
  183.5230  178.7250  140.9700 C   0  0  1  0  0  3  0  0  0  0  0  0
  185.8250  178.8470  140.0150 O   0  0  0  0  0  1  0  0  0  0  0  0
  184.2100  180.2900  139.2730 O   0  0  0  0  0  0  0  0  0  0  0  0
  184.5250  179.3290  140.0220 C   0  0  0  0  0  0  0  0  0  0  0  0
  182.9410  177.4340  140.5290 N   0  0  0  0  0  0  0  0  0  0  0  0
  183.7610  176.7290  139.5340 C   0  0  0  0  0  2  0  0  0  0  0  0
  183.1620  176.8010  138.2730 O   0  0  0  0  0  0  0  0  0  0  0  0
  184.2220  176.7550  137.3660 C   0  0  0  0  0  2  0  0  0  0  0  0
  183.7550  177.2240  136.0010 C   0  0  0  0  0  2  0  0  0  0  0  0
  182.6580  176.4700  135.5880 O   0  0  0  0  0  1  0  0  0  0  0  0
  181.6090  177.7160  139.9680 C   0  0  1  0  0  3  0  0  0  0  0  0
  180.6440  176.5410  139.8950 C   0  0  0  0  0  0  0  0  0  0  0  0
  180.7440  175.6340  140.7100 O   0  0  0  0  0  0  0  0  0  0  0  0
  179.6160  176.4440  138.8060 C   0  0  1  0  0  3  0  0  0  0  0  0
  179.9740  177.3820  137.6580 C   0  0  0  0  0  1  0  0  0  0  0  0
  179.4860  175.0140  138.3020 C   0  0  0  0  0  2  0  0  0  0  0  0
  180.6810  174.2620  138.6560 N   0  0  0  0  0  2  0  0  0  0  0  0
  181.3380  173.8610  137.4210 C   0  0  0  0  0  2  0  0  0  0  0  0
  180.8470  171.7810  136.0540 C   0  0  1  0  0  0  0  0  0  0  0  0
  180.3600  173.1090  136.5210 C   0  0  2  0  0  3  0  0  0  0  0  0
  179.7800  170.8180  135.5710 C   0  0  0  0  0  1  0  0  0  0  0  0
  180.9380  172.9240  135.2430 O   0  0  0  0  0  0  0  0  0  0  0  0
  182.2000  171.2670  136.4580 C   0  0  0  0  0  3  0  0  0  0  0  0
  182.7940  170.2810  135.7870 C   0  0  0  0  0  2  0  0  0  0  0  0
  180.9160  179.3140  140.5500 S   0  0  0  0  0  0  0  0  0  0  0  0
  180.4520  178.8000  143.1840 C   0  0  0  0  0  1  0  0  0  0  0  0
  179.8310  178.5980  141.8190 C   0  0  0  0  0  2  0  0  0  0  0  0
  2  3  1  0  0  0  0
  4  6  1  0  0  0  0
  4  3  1  1  0  0  0
  4  1  1  0  0  0  0
  5  8  1  1  0  0  0
  5  4  1  0  0  0  0
  5  1  1  0  0  0  0
  6 34  1  6  0  0  0
  6  2  1  0  0  0  0
  8  7  1  1  0  0  0
  9 20  1  6  0  0  0
  9 11  1  0  0  0  0
  9 16  1  0  0  0  0
 10 14  1  6  0  0  0
 10 19  1  0  0  0  0
 10 13  1  0  0  0  0
 11 17  1  0  0  0  0
 12 15  2  0  0  0  0
 12  8  1  0  0  0  0
 13 12  1  0  0  0  0
 17 18  1  1  0  0  0
 19 16  1  6  0  0  0
 19 17  1  0  0  0  0
 19 13  1  0  0  0  0
 20 21  1  6  0  0  0
 22 21  1  0  0  0  0
 23 20  1  0  0  0  0
 23 24  1  0  0  0  0
 25 28  1  0  0  0  0
 25 24  1  0  0  0  0
 28 27  1  0  0  0  0
 28 26  1  0  0  0  0
 29 20  1  0  0  0  0
 30 33  1  0  0  0  0
 30 31  1  0  0  0  0
 31 29  1  6  0  0  0
 32 30  2  0  0  0  0
 33 31  1  0  0  0  0
 34 37  1  6  0  0  0
 35 37  1  0  0  0  0
 36 37  2  0  0  0  0
 38 34  1  0  0  0  0
 39 38  1  0  0  0  0
 40 39  1  0  0  0  0
 41 40  1  0  0  0  0
 42 41  1  0  0  0  0
 43 42  1  0  0  0  0
 44 45  1  1  0  0  0
 44 38  1  0  0  0  0
 44 58  1  0  0  0  0
 45 46  2  0  0  0  0
 47 48  1  6  0  0  0
 47 45  1  0  0  0  0
 49 50  1  0  0  0  0
 49 47  1  0  0  0  0
 51 50  1  0  0  0  0
 52 54  1  6  0  0  0
 52 56  1  0  0  0  0
 52 53  1  0  0  0  0
 53 51  1  1  0  0  0
 55 52  1  0  0  0  0
 55 53  1  0  0  0  0
 57 56  2  0  0  0  0
 58 60  1  0  0  0  0
 60 59  1  0  0  0  0
M  END
>  <MODEL>
2

>  <REMARK>
 VINA RESULT:      -3.3      2.464      4.460
  Name = 
  27 active torsions:
  status: ('A' for Active; 'I' for Inactive)
    1  A    between atoms: C_1  and  C_18
    2  A    between atoms: C_1  and  N_19
    3  A    between atoms: C_1  and  C_55
    4  A    between atoms: C_2  and  O_41
    5  A    between atoms: C_2  and  C_50
    6  A    between atoms: C_4  and  C_20
    7  A    between atoms: C_6  and  C_20
    8  A    between atoms: C_7  and  C_12
    9  A    between atoms: C_7  and  C_16
   10  A    between atoms: C_8  and  C_17
   11  A    between atoms: S_10  and  C_20
   12  A    between atoms: S_10  and  C_23
   13  A    between atoms: C_12  and  N_19
   14  A    between atoms: C_12  and  S_24
   15  A    between atoms: C_14  and  C_26
   16  A    between atoms: C_14  and  N_57
   17  A    between atoms: C_16  and  C_52
   18  A    between atoms: N_19  and  C_21
   19  A    between atoms: C_20  and  O_29
   20  A    between atoms: C_21  and  O_41
   21  A    between atoms: S_24  and  C_54
   22  A    between atoms: O_29  and  C_39
   23  A    between atoms: C_30  and  C_46
   24  A    between atoms: C_39  and  C_40
   25  A    between atoms: C_40  and  N_48
   26  A    between atoms: C_46  and  C_47
   27  A    between atoms: C_52  and  N_57
                            x       y       z     vdW  Elec       q    Type
                         _______ _______ _______ _____ _____    ______ ____

>  <TORSDO>
F 27

$$$$
=
 OpenBabel11062414163D

 60 65  0  0  1  0  0  0  0  0999 V2000
  186.7890  178.5480  144.3400 C   0  0  0  0  0  2  0  0  0  0  0  0
  188.0450  176.0780  143.2100 O   0  0  0  0  0  0  0  0  0  0  0  0
  186.7450  176.2330  143.7690 C   0  0  0  0  0  2  0  0  0  0  0  0
  186.6330  177.5870  143.1650 C   0  0  1  0  0  0  0  0  0  0  0  0
  185.7240  178.8090  143.3260 C   0  0  1  0  0  3  0  0  0  0  0  0
  188.0060  177.3800  142.6320 C   0  0  2  0  0  3  0  0  0  0  0  0
  184.2960  178.5960  145.2290 O   0  0  0  0  0  1  0  0  0  0  0  0
  184.3610  178.3660  143.8530 C   0  0  1  0  0  3  0  0  0  0  0  0
  180.3510  180.2580  139.6660 C   0  0  1  0  0  3  0  0  0  0  0  0
  182.5660  177.5860  140.8420 C   0  0  2  0  0  3  0  0  0  0  0  0
  179.4350  179.1910  140.2880 C   0  0  0  0  0  2  0  0  0  0  0  0
  183.2660  179.1070  143.1450 C   0  0  0  0  0  0  0  0  0  0  0  0
  182.6780  178.5940  141.9500 N   0  0  0  0  0  0  0  0  0  0  0  0
  183.7450  177.7540  139.8950 C   0  0  0  0  0  1  0  0  0  0  0  0
  182.8320  180.1860  143.6290 O   0  0  0  0  0  0  0  0  0  0  0  0
  181.8020  179.8770  139.9750 C   0  0  0  0  0  2  0  0  0  0  0  0
  180.2560  178.4070  141.3000 C   0  0  2  0  0  3  0  0  0  0  0  0
  180.0470  178.9500  142.5570 F   0  0  0  0  0  0  0  0  0  0  0  0
  181.6740  178.6490  140.8510 C   0  0  1  0  0  0  0  0  0  0  0  0
  180.0430  180.4830  138.1580 C   0  0  1  0  0  0  0  0  0  0  0  0
  178.9400  181.5440  137.9680 C   0  0  0  0  0  2  0  0  0  0  0  0
  179.0830  182.5730  138.9000 O   0  0  0  0  0  1  0  0  0  0  0  0
  181.2110  180.8200  137.4180 O   0  0  0  0  0  0  0  0  0  0  0  0
  181.4980  182.1950  137.5300 C   0  0  0  0  0  2  0  0  0  0  0  0
  181.3160  182.8790  136.1860 C   0  0  0  0  0  2  0  0  0  0  0  0
  179.6640  184.5120  136.3440 C   0  0  0  0  0  1  0  0  0  0  0  0
  181.5270  184.6270  137.6010 O   0  0  0  0  0  1  0  0  0  0  0  0
  181.1000  184.3070  136.3590 N   0  0  0  0  0  0  0  0  0  0  0  0
  179.4640  178.8730  137.4750 S   0  0  0  0  0  0  0  0  0  0  0  0
  181.0970  177.5150  135.8940 C   0  0  0  0  0  0  0  0  0  0  0  0
  180.5470  178.7730  136.0060 C   0  0  2  0  0  3  0  0  0  0  0  0
  181.0310  176.2930  135.5900 O   0  0  0  0  0  0  0  0  0  0  0  0
  181.8500  178.7000  136.4180 O   0  0  0  0  0  0  0  0  0  0  0  0
  188.0430  177.3340  141.0920 C   0  0  1  0  0  3  0  0  0  0  0  0
  186.4330  178.9220  140.0360 O   0  0  0  0  0  0  0  0  0  0  0  0
  188.5680  179.6070  140.4970 O   0  0  0  0  0  1  0  0  0  0  0  0
  187.7040  178.6940  140.5430 C   0  0  0  0  0  0  0  0  0  0  0  0
  189.2970  176.7390  140.5680 N   0  0  0  0  0  0  0  0  0  0  0  0
  190.5070  177.2350  141.2380 C   0  0  0  0  0  2  0  0  0  0  0  0
  191.0220  176.2560  142.0930 O   0  0  0  0  0  0  0  0  0  0  0  0
  191.6780  176.9650  143.1010 C   0  0  0  0  0  2  0  0  0  0  0  0
  190.8710  176.9040  144.3840 C   0  0  0  0  0  2  0  0  0  0  0  0
  191.6600  177.3000  145.4620 O   0  0  0  0  0  1  0  0  0  0  0  0
  189.3630  177.0430  139.1280 C   0  0  1  0  0  3  0  0  0  0  0  0
  190.7380  176.9490  138.4810 C   0  0  0  0  0  0  0  0  0  0  0  0
  191.1600  177.8970  137.8320 O   0  0  0  0  0  0  0  0  0  0  0  0
  191.5560  175.6940  138.5700 C   0  0  1  0  0  3  0  0  0  0  0  0
  190.9760  174.6210  137.6550 C   0  0  0  0  0  1  0  0  0  0  0  0
  193.0110  175.9650  138.2170 C   0  0  0  0  0  2  0  0  0  0  0  0
  193.4620  174.9940  137.2330 N   0  0  0  0  0  2  0  0  0  0  0  0
  194.8070  174.5750  137.6010 C   0  0  0  0  0  2  0  0  0  0  0  0
  196.3440  172.5890  137.2420 C   0  0  1  0  0  0  0  0  0  0  0  0
  194.9480  173.0610  137.4580 C   0  0  2  0  0  3  0  0  0  0  0  0
  196.6040  171.1280  137.5570 C   0  0  0  0  0  1  0  0  0  0  0  0
  195.4490  172.7510  136.1730 O   0  0  0  0  0  0  0  0  0  0  0  0
  197.4880  173.5610  137.1720 C   0  0  0  0  0  3  0  0  0  0  0  0
  198.7480  173.1410  137.0790 C   0  0  0  0  0  2  0  0  0  0  0  0
  187.9590  176.3280  138.1850 S   0  0  0  0  0  0  0  0  0  0  0  0
  187.3920  177.0680  135.6260 C   0  0  0  0  0  1  0  0  0  0  0  0
  188.5680  176.8120  136.5440 C   0  0  0  0  0  2  0  0  0  0  0  0
  2  3  1  0  0  0  0
  4  5  1  0  0  0  0
  4  3  1  1  0  0  0
  4  1  1  0  0  0  0
  5  8  1  1  0  0  0
  5  1  1  0  0  0  0
  6 34  1  6  0  0  0
  6  4  1  0  0  0  0
  6  2  1  0  0  0  0
  8  7  1  1  0  0  0
  9 20  1  6  0  0  0
  9 16  1  0  0  0  0
  9 11  1  0  0  0  0
 10 14  1  6  0  0  0
 10 19  1  0  0  0  0
 10 13  1  0  0  0  0
 11 17  1  0  0  0  0
 12 15  2  0  0  0  0
 12  8  1  0  0  0  0
 13 12  1  0  0  0  0
 17 18  1  1  0  0  0
 19 16  1  6  0  0  0
 19 17  1  0  0  0  0
 19 13  1  0  0  0  0
 20 21  1  6  0  0  0
 21 22  1  0  0  0  0
 23 24  1  0  0  0  0
 23 20  1  0  0  0  0
 25 28  1  0  0  0  0
 25 24  1  0  0  0  0
 26 28  1  0  0  0  0
 28 27  1  0  0  0  0
 29 20  1  0  0  0  0
 30 31  1  0  0  0  0
 30 33  1  0  0  0  0
 31 33  1  0  0  0  0
 31 29  1  1  0  0  0
 32 30  2  0  0  0  0
 34 37  1  6  0  0  0
 35 37  2  0  0  0  0
 36 37  1  0  0  0  0
 38 34  1  0  0  0  0
 38 39  1  0  0  0  0
 39 40  1  0  0  0  0
 40 41  1  0  0  0  0
 41 42  1  0  0  0  0
 42 43  1  0  0  0  0
 44 58  1  6  0  0  0
 44 38  1  0  0  0  0
 45 47  1  0  0  0  0
 45 44  1  0  0  0  0
 46 45  2  0  0  0  0
 47 48  1  6  0  0  0
 49 47  1  0  0  0  0
 50 51  1  0  0  0  0
 50 49  1  0  0  0  0
 52 53  1  0  0  0  0
 52 54  1  1  0  0  0
 53 51  1  6  0  0  0
 55 52  1  0  0  0  0
 55 53  1  0  0  0  0
 56 52  1  0  0  0  0
 57 56  2  0  0  0  0
 59 60  1  0  0  0  0
 60 58  1  0  0  0  0
M  END
>  <MODEL>
3

>  <REMARK>
 VINA RESULT:      -3.2      3.885     12.084
  Name = 
  27 active torsions:
  status: ('A' for Active; 'I' for Inactive)
    1  A    between atoms: C_1  and  C_18
    2  A    between atoms: C_1  and  N_19
    3  A    between atoms: C_1  and  C_55
    4  A    between atoms: C_2  and  O_41
    5  A    between atoms: C_2  and  C_50
    6  A    between atoms: C_4  and  C_20
    7  A    between atoms: C_6  and  C_20
    8  A    between atoms: C_7  and  C_12
    9  A    between atoms: C_7  and  C_16
   10  A    between atoms: C_8  and  C_17
   11  A    between atoms: S_10  and  C_20
   12  A    between atoms: S_10  and  C_23
   13  A    between atoms: C_12  and  N_19
   14  A    between atoms: C_12  and  S_24
   15  A    between atoms: C_14  and  C_26
   16  A    between atoms: C_14  and  N_57
   17  A    between atoms: C_16  and  C_52
   18  A    between atoms: N_19  and  C_21
   19  A    between atoms: C_20  and  O_29
   20  A    between atoms: C_21  and  O_41
   21  A    between atoms: S_24  and  C_54
   22  A    between atoms: O_29  and  C_39
   23  A    between atoms: C_30  and  C_46
   24  A    between atoms: C_39  and  C_40
   25  A    between atoms: C_40  and  N_48
   26  A    between atoms: C_46  and  C_47
   27  A    between atoms: C_52  and  N_57
                            x       y       z     vdW  Elec       q    Type
                         _______ _______ _______ _____ _____    ______ ____

>  <TORSDO>
F 27

$$$$
=
 OpenBabel11062414163D

 60 65  0  0  1  0  0  0  0  0999 V2000
  188.0240  178.7730  142.6870 C   0  0  0  0  0  2  0  0  0  0  0  0
  189.4100  176.2940  141.7450 O   0  0  0  0  0  0  0  0  0  0  0  0
  188.2560  176.4020  142.5720 C   0  0  0  0  0  2  0  0  0  0  0  0
  187.7830  177.5680  141.7800 C   0  0  1  0  0  0  0  0  0  0  0  0
  186.7340  178.6730  141.9390 C   0  0  1  0  0  3  0  0  0  0  0  0
  189.0210  177.4240  140.9690 C   0  0  2  0  0  3  0  0  0  0  0  0
  185.9230  178.5200  144.1810 O   0  0  0  0  0  1  0  0  0  0  0  0
  185.6170  178.1880  142.8600 C   0  0  1  0  0  3  0  0  0  0  0  0
  180.7170  179.9130  139.6640 C   0  0  1  0  0  3  0  0  0  0  0  0
  183.5270  177.5860  140.0010 C   0  0  2  0  0  3  0  0  0  0  0  0
  180.1150  178.5920  140.1720 C   0  0  0  0  0  2  0  0  0  0  0  0
  184.3090  178.8010  142.4550 C   0  0  0  0  0  0  0  0  0  0  0  0
  183.6370  178.3910  141.2650 N   0  0  0  0  0  0  0  0  0  0  0  0
  184.4910  178.1490  138.9670 C   0  0  0  0  0  1  0  0  0  0  0  0
  183.7750  179.6710  143.1940 O   0  0  0  0  0  0  0  0  0  0  0  0
  182.2430  179.7880  139.7090 C   0  0  0  0  0  2  0  0  0  0  0  0
  181.2120  177.8300  140.8980 C   0  0  2  0  0  3  0  0  0  0  0  0
  181.1160  178.0960  142.2530 F   0  0  0  0  0  0  0  0  0  0  0  0
  182.4750  178.4280  140.3320 C   0  0  1  0  0  0  0  0  0  0  0  0
  180.1360  180.3260  138.2810 C   0  0  1  0  0  0  0  0  0  0  0  0
  181.2480  180.8240  137.3370 C   0  0  0  0  0  2  0  0  0  0  0  0
  181.1070  180.2590  136.0690 O   0  0  0  0  0  1  0  0  0  0  0  0
  179.3860  179.2750  137.6810 O   0  0  0  0  0  0  0  0  0  0  0  0
  180.1400  178.0860  137.6270 C   0  0  0  0  0  2  0  0  0  0  0  0
  179.2590  176.9280  137.1920 C   0  0  0  0  0  2  0  0  0  0  0  0
  180.9490  176.3750  135.6880 C   0  0  0  0  0  1  0  0  0  0  0  0
  178.9340  175.3780  135.5810 O   0  0  0  0  0  1  0  0  0  0  0  0
  179.5160  176.5780  135.8040 N   0  0  0  0  0  0  0  0  0  0  0  0
  178.9350  181.6910  138.5820 S   0  0  0  0  0  0  0  0  0  0  0  0
  180.4390  183.5120  137.3870 C   0  0  0  0  0  0  0  0  0  0  0  0
  179.3230  182.7430  137.1400 C   0  0  2  0  0  3  0  0  0  0  0  0
  181.6870  183.6650  137.4910 O   0  0  0  0  0  0  0  0  0  0  0  0
  179.0410  184.0450  137.4490 O   0  0  0  0  0  0  0  0  0  0  0  0
  188.7290  177.0520  139.5030 C   0  0  1  0  0  3  0  0  0  0  0  0
  189.0840  179.4160  138.7840 O   0  0  0  0  0  1  0  0  0  0  0  0
  187.1890  178.3040  138.1390 O   0  0  0  0  0  0  0  0  0  0  0  0
  188.2870  178.2810  138.7530 C   0  0  0  0  0  0  0  0  0  0  0  0
  189.8390  176.2960  138.8720 N   0  0  0  0  0  0  0  0  0  0  0  0
  191.0950  177.0550  138.7930 C   0  0  0  0  0  2  0  0  0  0  0  0
  192.1390  176.3250  139.3720 O   0  0  0  0  0  0  0  0  0  0  0  0
  192.8580  177.2570  140.1230 C   0  0  0  0  0  2  0  0  0  0  0  0
  192.5210  177.1050  141.5940 C   0  0  0  0  0  2  0  0  0  0  0  0
  192.0200  178.3050  142.0950 O   0  0  0  0  0  1  0  0  0  0  0  0
  189.4010  175.9120  137.5200 C   0  0  1  0  0  3  0  0  0  0  0  0
  190.4790  175.8830  136.4450 C   0  0  0  0  0  0  0  0  0  0  0  0
  190.6960  176.8930  135.7890 O   0  0  0  0  0  0  0  0  0  0  0  0
  191.2320  174.6240  136.1320 C   0  0  1  0  0  3  0  0  0  0  0  0
  190.9960  174.2150  134.6810 C   0  0  0  0  0  1  0  0  0  0  0  0
  192.7210  174.7980  136.3980 C   0  0  0  0  0  2  0  0  0  0  0  0
  193.4500  174.7450  135.1410 N   0  0  0  0  0  2  0  0  0  0  0  0
  194.8130  175.1900  135.3960 C   0  0  0  0  0  2  0  0  0  0  0  0
  196.9310  173.8770  135.8720 C   0  0  1  0  0  0  0  0  0  0  0  0
  195.8120  174.1340  134.9240 C   0  0  2  0  0  3  0  0  0  0  0  0
  197.6600  172.5590  135.6910 C   0  0  0  0  0  1  0  0  0  0  0  0
  197.0860  174.7260  134.7640 O   0  0  0  0  0  0  0  0  0  0  0  0
  197.0320  174.6230  137.1730 C   0  0  0  0  0  3  0  0  0  0  0  0
  198.1760  174.6760  137.8530 C   0  0  0  0  0  2  0  0  0  0  0  0
  188.2100  174.5150  137.5280 S   0  0  0  0  0  0  0  0  0  0  0  0
  185.9380  175.5710  136.4600 C   0  0  0  0  0  1  0  0  0  0  0  0
  187.2940  175.0390  136.0490 C   0  0  0  0  0  2  0  0  0  0  0  0
  2  3  1  0  0  0  0
  4  5  1  0  0  0  0
  4  3  1  1  0  0  0
  4  1  1  0  0  0  0
  5  1  1  0  0  0  0
  5  8  1  1  0  0  0
  6 34  1  6  0  0  0
  6  2  1  0  0  0  0
  6  4  1  0  0  0  0
  8  7  1  1  0  0  0
  9 20  1  6  0  0  0
  9 16  1  0  0  0  0
  9 11  1  0  0  0  0
 10 14  1  6  0  0  0
 10 19  1  0  0  0  0
 10 13  1  0  0  0  0
 11 17  1  0  0  0  0
 12  8  1  0  0  0  0
 12 15  2  0  0  0  0
 13 12  1  0  0  0  0
 17 18  1  1  0  0  0
 19 16  1  6  0  0  0
 19 17  1  0  0  0  0
 19 13  1  0  0  0  0
 20 21  1  6  0  0  0
 20 29  1  0  0  0  0
 22 21  1  0  0  0  0
 23 20  1  0  0  0  0
 24 23  1  0  0  0  0
 25 24  1  0  0  0  0
 26 28  1  0  0  0  0
 27 28  1  0  0  0  0
 28 25  1  0  0  0  0
 30 33  1  0  0  0  0
 30 32  2  0  0  0  0
 31 30  1  0  0  0  0
 31 33  1  0  0  0  0
 31 29  1  1  0  0  0
 34 37  1  6  0  0  0
 36 37  2  0  0  0  0
 37 35  1  0  0  0  0
 38 34  1  0  0  0  0
 39 38  1  0  0  0  0
 39 40  1  0  0  0  0
 40 41  1  0  0  0  0
 41 42  1  0  0  0  0
 42 43  1  0  0  0  0
 44 45  1  6  0  0  0
 44 58  1  0  0  0  0
 44 38  1  0  0  0  0
 46 45  2  0  0  0  0
 47 48  1  6  0  0  0
 47 49  1  0  0  0  0
 47 45  1  0  0  0  0
 50 51  1  0  0  0  0
 50 49  1  0  0  0  0
 52 54  1  6  0  0  0
 52 56  1  0  0  0  0
 53 51  1  1  0  0  0
 53 52  1  0  0  0  0
 55 53  1  0  0  0  0
 55 52  1  0  0  0  0
 56 57  2  0  0  0  0
 60 59  1  0  0  0  0
 60 58  1  0  0  0  0
M  END
>  <MODEL>
4

>  <REMARK>
 VINA RESULT:      -3.2      3.354     12.284
  Name = 
  27 active torsions:
  status: ('A' for Active; 'I' for Inactive)
    1  A    between atoms: C_1  and  C_18
    2  A    between atoms: C_1  and  N_19
    3  A    between atoms: C_1  and  C_55
    4  A    between atoms: C_2  and  O_41
    5  A    between atoms: C_2  and  C_50
    6  A    between atoms: C_4  and  C_20
    7  A    between atoms: C_6  and  C_20
    8  A    between atoms: C_7  and  C_12
    9  A    between atoms: C_7  and  C_16
   10  A    between atoms: C_8  and  C_17
   11  A    between atoms: S_10  and  C_20
   12  A    between atoms: S_10  and  C_23
   13  A    between atoms: C_12  and  N_19
   14  A    between atoms: C_12  and  S_24
   15  A    between atoms: C_14  and  C_26
   16  A    between atoms: C_14  and  N_57
   17  A    between atoms: C_16  and  C_52
   18  A    between atoms: N_19  and  C_21
   19  A    between atoms: C_20  and  O_29
   20  A    between atoms: C_21  and  O_41
   21  A    between atoms: S_24  and  C_54
   22  A    between atoms: O_29  and  C_39
   23  A    between atoms: C_30  and  C_46
   24  A    between atoms: C_39  and  C_40
   25  A    between atoms: C_40  and  N_48
   26  A    between atoms: C_46  and  C_47
   27  A    between atoms: C_52  and  N_57
                            x       y       z     vdW  Elec       q    Type
                         _______ _______ _______ _____ _____    ______ ____

>  <TORSDO>
F 27

$$$$
=
 OpenBabel11062414163D

 60 65  0  0  1  0  0  0  0  0999 V2000
  179.4160  179.5740  140.5550 C   0  0  0  0  0  2  0  0  0  0  0  0
  181.2910  179.2170  138.2500 O   0  0  0  0  0  0  0  0  0  0  0  0
  181.5200  179.9000  139.4790 C   0  0  0  0  0  2  0  0  0  0  0  0
  180.7290  178.8740  140.2090 C   0  0  1  0  0  0  0  0  0  0  0  0
  180.0880  178.7370  141.5940 C   0  0  1  0  0  3  0  0  0  0  0  0
  180.5000  178.2220  138.8920 C   0  0  2  0  0  3  0  0  0  0  0  0
  179.9340  180.1290  143.5290 O   0  0  0  0  0  1  0  0  0  0  0  0
  180.8350  179.6180  142.5920 C   0  0  1  0  0  3  0  0  0  0  0  0
  186.2530  177.4570  144.3710 C   0  0  1  0  0  3  0  0  0  0  0  0
  184.3680  180.2090  142.8560 C   0  0  2  0  0  3  0  0  0  0  0  0
  186.1600  178.5500  145.4480 C   0  0  0  0  0  2  0  0  0  0  0  0
  181.9130  178.8290  143.2750 C   0  0  0  0  0  0  0  0  0  0  0  0
  183.2700  179.2680  143.2640 N   0  0  0  0  0  0  0  0  0  0  0  0
  184.6840  179.9960  141.3830 C   0  0  0  0  0  1  0  0  0  0  0  0
  181.6120  177.7760  143.8980 O   0  0  0  0  0  0  0  0  0  0  0  0
  185.3550  177.8660  143.2000 C   0  0  0  0  0  2  0  0  0  0  0  0
  184.9340  179.3970  145.1460 C   0  0  2  0  0  3  0  0  0  0  0  0
  183.8720  178.9260  145.8980 F   0  0  0  0  0  0  0  0  0  0  0  0
  184.6960  179.1420  143.6790 C   0  0  1  0  0  0  0  0  0  0  0  0
  187.7270  177.1420  143.9850 C   0  0  1  0  0  0  0  0  0  0  0  0
  188.0450  175.6460  144.1780 C   0  0  0  0  0  2  0  0  0  0  0  0
  188.5490  175.0950  142.9990 O   0  0  0  0  0  1  0  0  0  0  0  0
  188.0350  177.5650  142.6610 O   0  0  0  0  0  0  0  0  0  0  0  0
  189.3100  178.1630  142.6080 C   0  0  0  0  0  2  0  0  0  0  0  0
  189.8410  178.1360  141.1850 C   0  0  0  0  0  2  0  0  0  0  0  0
  191.4710  177.0880  142.4770 C   0  0  0  0  0  1  0  0  0  0  0  0
  190.7680  176.1790  140.5410 O   0  0  0  0  0  1  0  0  0  0  0  0
  191.0730  177.3670  141.1090 N   0  0  0  0  0  0  0  0  0  0  0  0
  188.8050  178.1430  145.0950 S   0  0  0  0  0  0  0  0  0  0  0  0
  189.2340  177.4800  147.6220 C   0  0  0  0  0  0  0  0  0  0  0  0
  189.1420  176.8890  146.3810 C   0  0  2  0  0  3  0  0  0  0  0  0
  188.7200  177.9990  148.6500 O   0  0  0  0  0  0  0  0  0  0  0  0
  190.4260  177.0420  146.8270 O   0  0  0  0  0  0  0  0  0  0  0  0
  181.1390  176.8230  138.8050 C   0  0  1  0  0  3  0  0  0  0  0  0
  178.9310  175.7390  139.2280 O   0  0  0  0  0  0  0  0  0  0  0  0
  180.7550  175.1250  140.4690 O   0  0  0  0  0  1  0  0  0  0  0  0
  180.2790  175.8330  139.5430 C   0  0  0  0  0  0  0  0  0  0  0  0
  181.4880  176.4390  137.4150 N   0  0  0  0  0  0  0  0  0  0  0  0
  180.7750  175.2450  136.9400 C   0  0  0  0  0  2  0  0  0  0  0  0
  180.4100  175.4010  135.5980 O   0  0  0  0  0  0  0  0  0  0  0  0
  180.2700  174.1010  135.1090 C   0  0  0  0  0  2  0  0  0  0  0  0
  180.1610  173.1230  136.2640 C   0  0  0  0  0  2  0  0  0  0  0  0
  179.8420  171.8540  135.7850 O   0  0  0  0  0  1  0  0  0  0  0  0
  182.9410  176.2050  137.3710 C   0  0  1  0  0  3  0  0  0  0  0  0
  183.3930  174.7530  137.4410 C   0  0  0  0  0  0  0  0  0  0  0  0
  183.0790  174.0750  138.4100 O   0  0  0  0  0  0  0  0  0  0  0  0
  184.2670  174.1570  136.3770 C   0  0  1  0  0  3  0  0  0  0  0  0
  183.8860  174.7140  135.0090 C   0  0  0  0  0  1  0  0  0  0  0  0
  185.7380  174.4210  136.6670 C   0  0  0  0  0  2  0  0  0  0  0  0
  186.5610  173.6020  135.7910 N   0  0  0  0  0  2  0  0  0  0  0  0
  187.7130  174.3970  135.3890 C   0  0  0  0  0  2  0  0  0  0  0  0
  188.8990  176.2990  136.5760 C   0  0  1  0  0  0  0  0  0  0  0  0
  188.4850  174.8700  136.6200 C   0  0  2  0  0  3  0  0  0  0  0  0
  189.2360  176.9310  137.9140 C   0  0  0  0  0  1  0  0  0  0  0  0
  189.7880  175.2660  136.2380 O   0  0  0  0  0  0  0  0  0  0  0  0
  188.5680  177.1660  135.3950 C   0  0  0  0  0  3  0  0  0  0  0  0
  189.5230  177.6620  134.6100 C   0  0  0  0  0  2  0  0  0  0  0  0
  183.7970  177.2740  136.1480 S   0  0  0  0  0  0  0  0  0  0  0  0
  184.9780  177.4240  138.5980 C   0  0  0  0  0  1  0  0  0  0  0  0
  184.7080  178.2650  137.3690 C   0  0  0  0  0  2  0  0  0  0  0  0
  1  5  1  0  0  0  0
  2  6  1  0  0  0  0
  2  3  1  0  0  0  0
  4  3  1  6  0  0  0
  4  1  1  0  0  0  0
  4  5  1  0  0  0  0
  5  8  1  1  0  0  0
  6 34  1  1  0  0  0
  6  4  1  0  0  0  0
  8 12  1  0  0  0  0
  8  7  1  1  0  0  0
  9 20  1  6  0  0  0
  9 11  1  0  0  0  0
 10 14  1  6  0  0  0
 10 13  1  0  0  0  0
 10 19  1  0  0  0  0
 12 15  2  0  0  0  0
 13 12  1  0  0  0  0
 13 19  1  0  0  0  0
 16  9  1  0  0  0  0
 17 11  1  0  0  0  0
 17 18  1  1  0  0  0
 19 16  1  6  0  0  0
 19 17  1  0  0  0  0
 20 21  1  1  0  0  0
 20 29  1  0  0  0  0
 22 21  1  0  0  0  0
 23 20  1  0  0  0  0
 24 23  1  0  0  0  0
 25 24  1  0  0  0  0
 27 28  1  0  0  0  0
 28 25  1  0  0  0  0
 28 26  1  0  0  0  0
 30 32  2  0  0  0  0
 31 29  1  6  0  0  0
 31 33  1  0  0  0  0
 31 30  1  0  0  0  0
 33 30  1  0  0  0  0
 34 37  1  6  0  0  0
 35 37  2  0  0  0  0
 37 36  1  0  0  0  0
 38 34  1  0  0  0  0
 39 38  1  0  0  0  0
 40 39  1  0  0  0  0
 41 40  1  0  0  0  0
 41 42  1  0  0  0  0
 43 42  1  0  0  0  0
 44 58  1  6  0  0  0
 44 38  1  0  0  0  0
 44 45  1  0  0  0  0
 45 46  2  0  0  0  0
 47 48  1  6  0  0  0
 47 49  1  0  0  0  0
 47 45  1  0  0  0  0
 50 49  1  0  0  0  0
 51 50  1  0  0  0  0
 52 53  1  0  0  0  0
 52 54  1  1  0  0  0
 53 51  1  6  0  0  0
 55 52  1  0  0  0  0
 55 53  1  0  0  0  0
 56 52  1  0  0  0  0
 57 56  2  0  0  0  0
 58 60  1  0  0  0  0
 60 59  1  0  0  0  0
M  END
>  <MODEL>
5

>  <REMARK>
 VINA RESULT:      -3.1      4.268      8.721
  Name = 
  27 active torsions:
  status: ('A' for Active; 'I' for Inactive)
    1  A    between atoms: C_1  and  C_18
    2  A    between atoms: C_1  and  N_19
    3  A    between atoms: C_1  and  C_55
    4  A    between atoms: C_2  and  O_41
    5  A    between atoms: C_2  and  C_50
    6  A    between atoms: C_4  and  C_20
    7  A    between atoms: C_6  and  C_20
    8  A    between atoms: C_7  and  C_12
    9  A    between atoms: C_7  and  C_16
   10  A    between atoms: C_8  and  C_17
   11  A    between atoms: S_10  and  C_20
   12  A    between atoms: S_10  and  C_23
   13  A    between atoms: C_12  and  N_19
   14  A    between atoms: C_12  and  S_24
   15  A    between atoms: C_14  and  C_26
   16  A    between atoms: C_14  and  N_57
   17  A    between atoms: C_16  and  C_52
   18  A    between atoms: N_19  and  C_21
   19  A    between atoms: C_20  and  O_29
   20  A    between atoms: C_21  and  O_41
   21  A    between atoms: S_24  and  C_54
   22  A    between atoms: O_29  and  C_39
   23  A    between atoms: C_30  and  C_46
   24  A    between atoms: C_39  and  C_40
   25  A    between atoms: C_40  and  N_48
   26  A    between atoms: C_46  and  C_47
   27  A    between atoms: C_52  and  N_57
                            x       y       z     vdW  Elec       q    Type
                         _______ _______ _______ _____ _____    ______ ____

>  <TORSDO>
F 27

$$$$
=
 OpenBabel11062414163D

 60 65  0  0  1  0  0  0  0  0999 V2000
  189.4760  178.8960  137.6790 C   0  0  0  0  0  2  0  0  0  0  0  0
  187.0970  178.8310  139.4940 O   0  0  0  0  0  0  0  0  0  0  0  0
  187.2580  178.2050  138.2250 C   0  0  0  0  0  2  0  0  0  0  0  0
  188.6830  177.9130  138.5380 C   0  0  1  0  0  0  0  0  0  0  0  0
  189.9290  177.4750  137.7610 C   0  0  1  0  0  3  0  0  0  0  0  0
  188.4610  178.6040  139.8360 C   0  0  2  0  0  3  0  0  0  0  0  0
  190.5680  175.9110  136.0720 O   0  0  0  0  0  1  0  0  0  0  0  0
  189.5070  176.7040  136.5120 C   0  0  1  0  0  3  0  0  0  0  0  0
  183.8990  174.3080  136.4680 C   0  0  1  0  0  3  0  0  0  0  0  0
  186.4340  176.2790  134.7030 C   0  0  2  0  0  3  0  0  0  0  0  0
  184.4720  173.3850  135.3790 C   0  0  0  0  0  2  0  0  0  0  0  0
  188.3050  175.8570  136.8070 C   0  0  0  0  0  0  0  0  0  0  0  0
  187.1840  175.8320  135.9250 N   0  0  0  0  0  0  0  0  0  0  0  0
  185.9090  177.6890  134.9290 C   0  0  0  0  0  1  0  0  0  0  0  0
  188.2950  175.1290  137.8350 O   0  0  0  0  0  0  0  0  0  0  0  0
  184.7530  175.5790  136.5100 C   0  0  0  0  0  2  0  0  0  0  0  0
  185.8730  173.8730  135.0460 C   0  0  2  0  0  3  0  0  0  0  0  0
  186.7860  173.1410  135.7850 F   0  0  0  0  0  0  0  0  0  0  0  0
  185.8520  175.3080  135.5060 C   0  0  1  0  0  0  0  0  0  0  0  0
  182.3730  174.5520  136.2830 C   0  0  1  0  0  0  0  0  0  0  0  0
  181.6270  174.4440  137.6270 C   0  0  0  0  0  2  0  0  0  0  0  0
  182.4180  174.9290  138.6690 O   0  0  0  0  0  1  0  0  0  0  0  0
  182.1040  175.7950  135.6440 O   0  0  0  0  0  0  0  0  0  0  0  0
  180.8180  175.7960  135.0690 C   0  0  0  0  0  2  0  0  0  0  0  0
  179.8360  176.5060  135.9860 C   0  0  0  0  0  2  0  0  0  0  0  0
  178.9310  178.6160  136.3770 C   0  0  0  0  0  1  0  0  0  0  0  0
  180.2530  178.2370  134.5950 O   0  0  0  0  0  1  0  0  0  0  0  0
  179.2670  177.6710  135.3270 N   0  0  0  0  0  0  0  0  0  0  0  0
  181.7510  173.2520  135.1330 S   0  0  0  0  0  0  0  0  0  0  0  0
  181.8440  170.6830  135.7650 C   0  0  0  0  0  0  0  0  0  0  0  0
  181.5130  171.8940  136.3320 C   0  0  2  0  0  3  0  0  0  0  0  0
  182.6850  169.8270  135.3770 O   0  0  0  0  0  0  0  0  0  0  0  0
  180.4320  171.1470  135.9510 O   0  0  0  0  0  0  0  0  0  0  0  0
  188.6090  177.6590  141.0430 C   0  0  1  0  0  3  0  0  0  0  0  0
  190.1070  175.6850  141.3460 O   0  0  0  0  0  1  0  0  0  0  0  0
  190.9990  177.7070  140.7490 O   0  0  0  0  0  0  0  0  0  0  0  0
  189.9760  177.0260  141.0180 C   0  0  0  0  0  0  0  0  0  0  0  0
  188.2400  178.3060  142.3260 N   0  0  0  0  0  0  0  0  0  0  0  0
  189.0730  177.8810  143.4600 C   0  0  0  0  0  2  0  0  0  0  0  0
  189.9990  178.8790  143.7810 O   0  0  0  0  0  0  0  0  0  0  0  0
  191.0890  178.1980  144.3260 C   0  0  0  0  0  2  0  0  0  0  0  0
  190.8470  177.9330  145.8010 C   0  0  0  0  0  2  0  0  0  0  0  0
  189.8800  176.9410  145.9550 O   0  0  0  0  0  1  0  0  0  0  0  0
  186.8280  177.9850  142.5940 C   0  0  1  0  0  3  0  0  0  0  0  0
  186.5120  177.4400  143.9800 C   0  0  0  0  0  0  0  0  0  0  0  0
  186.9180  176.3290  144.2930 O   0  0  0  0  0  0  0  0  0  0  0  0
  185.6610  178.2130  144.9450 C   0  0  1  0  0  3  0  0  0  0  0  0
  186.0180  179.6940  144.8930 C   0  0  0  0  0  1  0  0  0  0  0  0
  184.1810  178.0130  144.6490 C   0  0  0  0  0  2  0  0  0  0  0  0
  183.4210  179.1260  145.1940 N   0  0  0  0  0  2  0  0  0  0  0  0
  182.5260  179.6090  144.1520 C   0  0  0  0  0  2  0  0  0  0  0  0
  180.4700  178.8520  142.8740 C   0  0  1  0  0  0  0  0  0  0  0  0
  181.7270  178.4480  143.5610 C   0  0  2  0  0  3  0  0  0  0  0  0
  179.8990  177.8440  141.8940 C   0  0  0  0  0  1  0  0  0  0  0  0
  180.4650  178.3710  144.1940 O   0  0  0  0  0  0  0  0  0  0  0  0
  180.0570  180.2950  142.7980 C   0  0  0  0  0  3  0  0  0  0  0  0
  179.3950  180.7710  141.7450 C   0  0  0  0  0  2  0  0  0  0  0  0
  185.6720  179.2430  141.9220 S   0  0  0  0  0  0  0  0  0  0  0  0
  183.6310  178.6900  140.2060 C   0  0  0  0  0  1  0  0  0  0  0  0
  184.4310  178.0590  141.3250 C   0  0  0  0  0  2  0  0  0  0  0  0
  1  5  1  0  0  0  0
  2  6  1  0  0  0  0
  3  4  1  0  0  0  0
  3  2  1  0  0  0  0
  4  1  1  6  0  0  0
  4  6  1  0  0  0  0
  5  8  1  6  0  0  0
  5  4  1  0  0  0  0
  6 34  1  1  0  0  0
  8  7  1  1  0  0  0
  8 12  1  0  0  0  0
  9 20  1  6  0  0  0
  9 16  1  0  0  0  0
 10 14  1  1  0  0  0
 10 19  1  0  0  0  0
 10 13  1  0  0  0  0
 11  9  1  0  0  0  0
 12 15  2  0  0  0  0
 13 12  1  0  0  0  0
 17 11  1  0  0  0  0
 17 19  1  0  0  0  0
 17 18  1  1  0  0  0
 19 13  1  0  0  0  0
 19 16  1  1  0  0  0
 20 21  1  1  0  0  0
 21 22  1  0  0  0  0
 23 20  1  0  0  0  0
 24 23  1  0  0  0  0
 24 25  1  0  0  0  0
 27 28  1  0  0  0  0
 28 25  1  0  0  0  0
 28 26  1  0  0  0  0
 29 20  1  0  0  0  0
 30 33  1  0  0  0  0
 30 31  1  0  0  0  0
 31 29  1  6  0  0  0
 32 30  2  0  0  0  0
 33 31  1  0  0  0  0
 34 37  1  1  0  0  0
 34 38  1  0  0  0  0
 36 37  2  0  0  0  0
 37 35  1  0  0  0  0
 38 44  1  0  0  0  0
 38 39  1  0  0  0  0
 39 40  1  0  0  0  0
 40 41  1  0  0  0  0
 41 42  1  0  0  0  0
 42 43  1  0  0  0  0
 44 58  1  1  0  0  0
 44 45  1  0  0  0  0
 45 46  2  0  0  0  0
 45 47  1  0  0  0  0
 47 48  1  6  0  0  0
 49 47  1  0  0  0  0
 49 50  1  0  0  0  0
 51 50  1  0  0  0  0
 52 54  1  6  0  0  0
 52 53  1  0  0  0  0
 52 55  1  0  0  0  0
 53 51  1  1  0  0  0
 53 55  1  0  0  0  0
 56 52  1  0  0  0  0
 57 56  2  0  0  0  0
 59 60  1  0  0  0  0
 60 58  1  0  0  0  0
M  END
>  <MODEL>
6

>  <REMARK>
 VINA RESULT:      -3.0      4.276      9.468
  Name = 
  27 active torsions:
  status: ('A' for Active; 'I' for Inactive)
    1  A    between atoms: C_1  and  C_18
    2  A    between atoms: C_1  and  N_19
    3  A    between atoms: C_1  and  C_55
    4  A    between atoms: C_2  and  O_41
    5  A    between atoms: C_2  and  C_50
    6  A    between atoms: C_4  and  C_20
    7  A    between atoms: C_6  and  C_20
    8  A    between atoms: C_7  and  C_12
    9  A    between atoms: C_7  and  C_16
   10  A    between atoms: C_8  and  C_17
   11  A    between atoms: S_10  and  C_20
   12  A    between atoms: S_10  and  C_23
   13  A    between atoms: C_12  and  N_19
   14  A    between atoms: C_12  and  S_24
   15  A    between atoms: C_14  and  C_26
   16  A    between atoms: C_14  and  N_57
   17  A    between atoms: C_16  and  C_52
   18  A    between atoms: N_19  and  C_21
   19  A    between atoms: C_20  and  O_29
   20  A    between atoms: C_21  and  O_41
   21  A    between atoms: S_24  and  C_54
   22  A    between atoms: O_29  and  C_39
   23  A    between atoms: C_30  and  C_46
   24  A    between atoms: C_39  and  C_40
   25  A    between atoms: C_40  and  N_48
   26  A    between atoms: C_46  and  C_47
   27  A    between atoms: C_52  and  N_57
                            x       y       z     vdW  Elec       q    Type
                         _______ _______ _______ _____ _____    ______ ____

>  <TORSDO>
F 27

$$$$
=
 OpenBabel11062414163D

 60 65  0  0  1  0  0  0  0  0999 V2000
  184.9330  177.3930  141.7870 C   0  0  0  0  0  2  0  0  0  0  0  0
  187.5120  178.9050  141.9080 O   0  0  0  0  0  0  0  0  0  0  0  0
  186.2050  179.4070  141.6510 C   0  0  0  0  0  2  0  0  0  0  0  0
  185.6320  178.4510  142.6370 C   0  0  1  0  0  0  0  0  0  0  0  0
  184.2410  177.9230  143.0000 C   0  0  1  0  0  3  0  0  0  0  0  0
  187.0170  177.9490  142.8410 C   0  0  2  0  0  3  0  0  0  0  0  0
  183.4530  180.1640  143.2500 O   0  0  0  0  0  1  0  0  0  0  0  0
  183.1850  178.9530  142.6080 C   0  0  1  0  0  3  0  0  0  0  0  0
  182.2930  178.1430  136.6290 C   0  0  1  0  0  3  0  0  0  0  0  0
  181.3070  177.2720  140.0490 C   0  0  2  0  0  3  0  0  0  0  0  0
  180.9660  178.8750  136.8880 C   0  0  0  0  0  2  0  0  0  0  0  0
  183.1700  179.1400  141.1200 C   0  0  0  0  0  0  0  0  0  0  0  0
  182.3180  178.3570  140.2850 N   0  0  0  0  0  0  0  0  0  0  0  0
  181.9840  175.9180  140.2060 C   0  0  0  0  0  1  0  0  0  0  0  0
  183.8980  180.0260  140.5980 O   0  0  0  0  0  0  0  0  0  0  0  0
  182.7630  177.5320  137.9530 C   0  0  0  0  0  2  0  0  0  0  0  0
  180.8270  179.0710  138.3890 C   0  0  2  0  0  3  0  0  0  0  0  0
  181.2900  180.3330  138.7170 F   0  0  0  0  0  0  0  0  0  0  0  0
  181.7370  178.0110  138.9570 C   0  0  1  0  0  0  0  0  0  0  0  0
  182.1850  177.1370  135.4480 C   0  0  1  0  0  0  0  0  0  0  0  0
  180.9320  177.4160  134.5940 C   0  0  0  0  0  2  0  0  0  0  0  0
  180.6300  178.7780  134.5940 O   0  0  0  0  0  1  0  0  0  0  0  0
  183.3600  177.1260  134.6450 O   0  0  0  0  0  0  0  0  0  0  0  0
  184.2810  176.1690  135.1150 C   0  0  0  0  0  2  0  0  0  0  0  0
  185.6740  176.7720  135.1840 C   0  0  0  0  0  2  0  0  0  0  0  0
  186.7960  177.1720  137.1850 C   0  0  0  0  0  1  0  0  0  0  0  0
  185.6450  175.2640  136.8670 O   0  0  0  0  0  1  0  0  0  0  0  0
  186.4600  176.1340  136.2280 N   0  0  0  0  0  0  0  0  0  0  0  0
  182.0620  175.4510  136.1800 S   0  0  0  0  0  0  0  0  0  0  0  0
  179.7890  174.5560  137.2020 C   0  0  0  0  0  0  0  0  0  0  0  0
  180.2500  175.2260  136.0900 C   0  0  2  0  0  3  0  0  0  0  0  0
  179.4600  174.5100  138.4180 O   0  0  0  0  0  0  0  0  0  0  0  0
  179.9750  173.9050  135.8650 O   0  0  0  0  0  0  0  0  0  0  0  0
  187.5350  178.2060  144.2690 C   0  0  1  0  0  3  0  0  0  0  0  0
  185.9490  176.9050  145.6900 O   0  0  0  0  0  1  0  0  0  0  0  0
  185.7890  179.1870  145.6070 O   0  0  0  0  0  0  0  0  0  0  0  0
  186.3850  178.1410  145.2380 C   0  0  0  0  0  0  0  0  0  0  0  0
  188.6980  177.3530  144.6170 N   0  0  0  0  0  0  0  0  0  0  0  0
  189.6550  178.0060  145.5220 C   0  0  0  0  0  2  0  0  0  0  0  0
  189.2110  177.9130  146.8450 O   0  0  0  0  0  0  0  0  0  0  0  0
  189.7590  176.7230  147.3270 C   0  0  0  0  0  2  0  0  0  0  0  0
  191.2680  176.7490  147.1730 C   0  0  0  0  0  2  0  0  0  0  0  0
  191.8420  177.4630  148.2240 O   0  0  0  0  0  1  0  0  0  0  0  0
  189.3710  176.9850  143.3600 C   0  0  1  0  0  3  0  0  0  0  0  0
  190.3570  178.0010  142.8000 C   0  0  0  0  0  0  0  0  0  0  0  0
  190.7960  178.8760  143.5340 O   0  0  0  0  0  0  0  0  0  0  0  0
  190.7510  177.9870  141.3520 C   0  0  1  0  0  3  0  0  0  0  0  0
  192.2140  177.5820  141.2080 C   0  0  0  0  0  1  0  0  0  0  0  0
  189.8590  177.0480  140.5520 C   0  0  0  0  0  2  0  0  0  0  0  0
  189.9190  177.4030  139.1430 N   0  0  0  0  0  2  0  0  0  0  0  0
  190.1330  176.1800  138.3830 C   0  0  0  0  0  2  0  0  0  0  0  0
  191.6760  175.1920  136.6290 C   0  0  1  0  0  0  0  0  0  0  0  0
  191.4950  176.2180  137.6930 C   0  0  2  0  0  3  0  0  0  0  0  0
  192.7770  175.4690  135.6220 C   0  0  0  0  0  1  0  0  0  0  0  0
  192.1790  175.0020  137.9260 O   0  0  0  0  0  0  0  0  0  0  0  0
  190.5820  174.2160  136.3000 C   0  0  0  0  0  3  0  0  0  0  0  0
  190.2820  173.9120  135.0380 C   0  0  0  0  0  2  0  0  0  0  0  0
  189.8920  175.2250  143.3200 S   0  0  0  0  0  0  0  0  0  0  0  0
  192.0950  174.4190  144.7030 C   0  0  0  0  0  1  0  0  0  0  0  0
  191.6200  175.5290  143.7910 C   0  0  0  0  0  2  0  0  0  0  0  0
  1  4  1  0  0  0  0
  1  5  1  0  0  0  0
  2  6  1  0  0  0  0
  3  2  1  0  0  0  0
  4  3  1  6  0  0  0
  4  6  1  0  0  0  0
  4  5  1  0  0  0  0
  5  8  1  6  0  0  0
  6 34  1  1  0  0  0
  8  7  1  1  0  0  0
  9 20  1  6  0  0  0
  9 11  1  0  0  0  0
  9 16  1  0  0  0  0
 10 14  1  6  0  0  0
 10 13  1  0  0  0  0
 11 17  1  0  0  0  0
 12  8  1  0  0  0  0
 13 12  1  0  0  0  0
 15 12  2  0  0  0  0
 17 18  1  6  0  0  0
 17 19  1  0  0  0  0
 19 16  1  6  0  0  0
 19 10  1  0  0  0  0
 19 13  1  0  0  0  0
 20 21  1  6  0  0  0
 20 29  1  0  0  0  0
 22 21  1  0  0  0  0
 23 24  1  0  0  0  0
 23 20  1  0  0  0  0
 24 25  1  0  0  0  0
 25 28  1  0  0  0  0
 28 27  1  0  0  0  0
 28 26  1  0  0  0  0
 30 32  2  0  0  0  0
 31 29  1  1  0  0  0
 31 30  1  0  0  0  0
 33 31  1  0  0  0  0
 33 30  1  0  0  0  0
 34 38  1  0  0  0  0
 34 37  1  1  0  0  0
 37 36  2  0  0  0  0
 37 35  1  0  0  0  0
 38 39  1  0  0  0  0
 39 40  1  0  0  0  0
 40 41  1  0  0  0  0
 42 41  1  0  0  0  0
 42 43  1  0  0  0  0
 44 45  1  1  0  0  0
 44 38  1  0  0  0  0
 45 46  2  0  0  0  0
 47 48  1  1  0  0  0
 47 45  1  0  0  0  0
 49 47  1  0  0  0  0
 50 49  1  0  0  0  0
 51 50  1  0  0  0  0
 52 54  1  6  0  0  0
 52 53  1  0  0  0  0
 52 55  1  0  0  0  0
 53 55  1  0  0  0  0
 53 51  1  1  0  0  0
 56 52  1  0  0  0  0
 57 56  2  0  0  0  0
 58 44  1  0  0  0  0
 58 60  1  0  0  0  0
 60 59  1  0  0  0  0
M  END
>  <MODEL>
7

>  <REMARK>
 VINA RESULT:      -2.1      4.488     10.452
  Name = 
  27 active torsions:
  status: ('A' for Active; 'I' for Inactive)
    1  A    between atoms: C_1  and  C_18
    2  A    between atoms: C_1  and  N_19
    3  A    between atoms: C_1  and  C_55
    4  A    between atoms: C_2  and  O_41
    5  A    between atoms: C_2  and  C_50
    6  A    between atoms: C_4  and  C_20
    7  A    between atoms: C_6  and  C_20
    8  A    between atoms: C_7  and  C_12
    9  A    between atoms: C_7  and  C_16
   10  A    between atoms: C_8  and  C_17
   11  A    between atoms: S_10  and  C_20
   12  A    between atoms: S_10  and  C_23
   13  A    between atoms: C_12  and  N_19
   14  A    between atoms: C_12  and  S_24
   15  A    between atoms: C_14  and  C_26
   16  A    between atoms: C_14  and  N_57
   17  A    between atoms: C_16  and  C_52
   18  A    between atoms: N_19  and  C_21
   19  A    between atoms: C_20  and  O_29
   20  A    between atoms: C_21  and  O_41
   21  A    between atoms: S_24  and  C_54
   22  A    between atoms: O_29  and  C_39
   23  A    between atoms: C_30  and  C_46
   24  A    between atoms: C_39  and  C_40
   25  A    between atoms: C_40  and  N_48
   26  A    between atoms: C_46  and  C_47
   27  A    between atoms: C_52  and  N_57
                            x       y       z     vdW  Elec       q    Type
                         _______ _______ _______ _____ _____    ______ ____

>  <TORSDO>
F 27

$$$$
=
 OpenBabel11062414163D

 60 65  0  0  1  0  0  0  0  0999 V2000
  181.2180  176.0570  138.1240 C   0  0  0  0  0  2  0  0  0  0  0  0
  183.1920  175.9150  140.3690 O   0  0  0  0  0  0  0  0  0  0  0  0
  183.4180  175.7090  138.9780 C   0  0  0  0  0  2  0  0  0  0  0  0
  182.4500  176.7900  138.6490 C   0  0  1  0  0  0  0  0  0  0  0  0
  181.7000  177.2750  137.4050 C   0  0  1  0  0  3  0  0  0  0  0  0
  182.2340  176.9380  140.1130 C   0  0  2  0  0  3  0  0  0  0  0  0
  181.9990  177.6050  135.0570 O   0  0  0  0  0  1  0  0  0  0  0  0
  182.4810  176.8840  136.1530 C   0  0  1  0  0  3  0  0  0  0  0  0
  188.5340  176.2340  136.5150 C   0  0  1  0  0  3  0  0  0  0  0  0
  185.3620  174.9720  135.1830 C   0  0  2  0  0  3  0  0  0  0  0  0
  188.5080  176.6330  135.0300 C   0  0  0  0  0  2  0  0  0  0  0  0
  183.9440  177.1470  136.3510 C   0  0  0  0  0  0  0  0  0  0  0  0
  184.9310  176.2410  135.8610 N   0  0  0  0  0  0  0  0  0  0  0  0
  185.1070  173.7980  136.1170 C   0  0  0  0  0  1  0  0  0  0  0  0
  184.3130  178.2020  136.9340 O   0  0  0  0  0  0  0  0  0  0  0  0
  187.1570  175.6700  136.8780 C   0  0  0  0  0  2  0  0  0  0  0  0
  187.0540  176.7070  134.5940 C   0  0  2  0  0  3  0  0  0  0  0  0
  186.6280  178.0210  134.6890 F   0  0  0  0  0  0  0  0  0  0  0  0
  186.3480  175.8490  135.6120 C   0  0  1  0  0  0  0  0  0  0  0  0
  189.7320  175.2980  136.8470 C   0  0  1  0  0  0  0  0  0  0  0  0
  189.2870  174.1240  137.7430 C   0  0  0  0  0  2  0  0  0  0  0  0
  189.1630  172.9530  136.9930 O   0  0  0  0  0  1  0  0  0  0  0  0
  190.3850  174.8290  135.6740 O   0  0  0  0  0  0  0  0  0  0  0  0
  191.7330  174.5130  135.9400 C   0  0  0  0  0  2  0  0  0  0  0  0
  192.2020  173.4030  135.0160 C   0  0  0  0  0  2  0  0  0  0  0  0
  194.1640  174.2530  135.9410 C   0  0  0  0  0  1  0  0  0  0  0  0
  194.1100  172.1920  135.0370 O   0  0  0  0  0  1  0  0  0  0  0  0
  193.6470  173.4480  134.8490 N   0  0  0  0  0  0  0  0  0  0  0  0
  190.9800  176.3120  137.7460 S   0  0  0  0  0  0  0  0  0  0  0  0
  189.8440  178.0930  139.3420 C   0  0  0  0  0  0  0  0  0  0  0  0
  190.0010  176.7290  139.2320 C   0  0  2  0  0  3  0  0  0  0  0  0
  189.3000  179.1830  139.0130 O   0  0  0  0  0  0  0  0  0  0  0  0
  190.8230  177.3080  140.1590 O   0  0  0  0  0  0  0  0  0  0  0  0
  182.6930  178.3100  140.6430 C   0  0  1  0  0  3  0  0  0  0  0  0
  182.3310  180.3540  139.2570 O   0  0  0  0  0  0  0  0  0  0  0  0
  180.5780  179.4410  140.4130 O   0  0  0  0  0  1  0  0  0  0  0  0
  181.7940  179.3850  140.0920 C   0  0  0  0  0  0  0  0  0  0  0  0
  182.8600  178.3270  142.1170 N   0  0  0  0  0  0  0  0  0  0  0  0
  181.9110  179.2110  142.8070 C   0  0  0  0  0  2  0  0  0  0  0  0
  181.4490  178.6050  143.9800 O   0  0  0  0  0  0  0  0  0  0  0  0
  180.1300  179.0410  144.1160 C   0  0  0  0  0  2  0  0  0  0  0  0
  179.2720  177.9220  144.6750 C   0  0  0  0  0  2  0  0  0  0  0  0
  179.9130  176.6970  144.5020 O   0  0  0  0  0  1  0  0  0  0  0  0
  184.2400  178.7570  142.4010 C   0  0  1  0  0  3  0  0  0  0  0  0
  184.4750  179.4220  143.7500 C   0  0  0  0  0  0  0  0  0  0  0  0
  184.0980  180.5730  143.9230 O   0  0  0  0  0  0  0  0  0  0  0  0
  185.2160  178.7160  144.8470 C   0  0  1  0  0  3  0  0  0  0  0  0
  184.2320  178.1260  145.8520 C   0  0  0  0  0  1  0  0  0  0  0  0
  186.1180  177.6270  144.2850 C   0  0  0  0  0  2  0  0  0  0  0  0
  186.9840  177.1190  145.3380 N   0  0  0  0  0  2  0  0  0  0  0  0
  187.9100  178.1810  145.7060 C   0  0  0  0  0  2  0  0  0  0  0  0
  190.0250  177.0660  146.5510 C   0  0  1  0  0  0  0  0  0  0  0  0
  188.7540  177.7560  146.9050 C   0  0  2  0  0  3  0  0  0  0  0  0
  191.0900  177.0450  147.6320 C   0  0  0  0  0  1  0  0  0  0  0  0
  188.8770  176.3470  146.9230 O   0  0  0  0  0  0  0  0  0  0  0  0
  190.4020  176.8240  145.1170 C   0  0  0  0  0  3  0  0  0  0  0  0
  190.9730  177.7770  144.3810 C   0  0  0  0  0  2  0  0  0  0  0  0
  185.4930  177.5290  141.8600 S   0  0  0  0  0  0  0  0  0  0  0  0
  187.2270  179.6240  141.7110 C   0  0  0  0  0  1  0  0  0  0  0  0
  186.4480  178.6760  140.8250 C   0  0  0  0  0  2  0  0  0  0  0  0
  3  2  1  0  0  0  0
  4  1  1  1  0  0  0
  4  3  1  0  0  0  0
  4  6  1  0  0  0  0
  5  8  1  6  0  0  0
  5  1  1  0  0  0  0
  5  4  1  0  0  0  0
  6  2  1  0  0  0  0
  6 34  1  1  0  0  0
  8  7  1  6  0  0  0
  8 12  1  0  0  0  0
  9 20  1  6  0  0  0
  9 16  1  0  0  0  0
 10 19  1  0  0  0  0
 10 13  1  0  0  0  0
 10 14  1  1  0  0  0
 11  9  1  0  0  0  0
 12 15  2  0  0  0  0
 13 12  1  0  0  0  0
 17 18  1  1  0  0  0
 17 11  1  0  0  0  0
 17 19  1  0  0  0  0
 19 13  1  0  0  0  0
 19 16  1  1  0  0  0
 20 21  1  1  0  0  0
 20 29  1  0  0  0  0
 22 21  1  0  0  0  0
 23 24  1  0  0  0  0
 23 20  1  0  0  0  0
 25 24  1  0  0  0  0
 28 25  1  0  0  0  0
 28 27  1  0  0  0  0
 28 26  1  0  0  0  0
 30 33  1  0  0  0  0
 31 29  1  6  0  0  0
 31 30  1  0  0  0  0
 31 33  1  0  0  0  0
 32 30  2  0  0  0  0
 34 37  1  1  0  0  0
 34 38  1  0  0  0  0
 35 37  2  0  0  0  0
 37 36  1  0  0  0  0
 38 44  1  0  0  0  0
 38 39  1  0  0  0  0
 39 40  1  0  0  0  0
 40 41  1  0  0  0  0
 41 42  1  0  0  0  0
 43 42  1  0  0  0  0
 44 58  1  1  0  0  0
 44 45  1  0  0  0  0
 45 46  2  0  0  0  0
 45 47  1  0  0  0  0
 47 48  1  1  0  0  0
 49 47  1  0  0  0  0
 49 50  1  0  0  0  0
 50 51  1  0  0  0  0
 52 53  1  0  0  0  0
 52 55  1  0  0  0  0
 52 54  1  1  0  0  0
 53 51  1  6  0  0  0
 53 55  1  0  0  0  0
 56 52  1  0  0  0  0
 57 56  2  0  0  0  0
 60 59  1  0  0  0  0
 60 58  1  0  0  0  0
M  END
>  <MODEL>
8

>  <REMARK>
 VINA RESULT:      -1.8      3.860      6.986
  Name = 
  27 active torsions:
  status: ('A' for Active; 'I' for Inactive)
    1  A    between atoms: C_1  and  C_18
    2  A    between atoms: C_1  and  N_19
    3  A    between atoms: C_1  and  C_55
    4  A    between atoms: C_2  and  O_41
    5  A    between atoms: C_2  and  C_50
    6  A    between atoms: C_4  and  C_20
    7  A    between atoms: C_6  and  C_20
    8  A    between atoms: C_7  and  C_12
    9  A    between atoms: C_7  and  C_16
   10  A    between atoms: C_8  and  C_17
   11  A    between atoms: S_10  and  C_20
   12  A    between atoms: S_10  and  C_23
   13  A    between atoms: C_12  and  N_19
   14  A    between atoms: C_12  and  S_24
   15  A    between atoms: C_14  and  C_26
   16  A    between atoms: C_14  and  N_57
   17  A    between atoms: C_16  and  C_52
   18  A    between atoms: N_19  and  C_21
   19  A    between atoms: C_20  and  O_29
   20  A    between atoms: C_21  and  O_41
   21  A    between atoms: S_24  and  C_54
   22  A    between atoms: O_29  and  C_39
   23  A    between atoms: C_30  and  C_46
   24  A    between atoms: C_39  and  C_40
   25  A    between atoms: C_40  and  N_48
   26  A    between atoms: C_46  and  C_47
   27  A    between atoms: C_52  and  N_57
                            x       y       z     vdW  Elec       q    Type
                         _______ _______ _______ _____ _____    ______ ____

>  <TORSDO>
F 27

$$$$
=
 OpenBabel11062414163D

 60 65  0  0  1  0  0  0  0  0999 V2000
  189.3230  178.5300  137.6850 C   0  0  0  0  0  2  0  0  0  0  0  0
  188.2040  177.3370  140.1910 O   0  0  0  0  0  0  0  0  0  0  0  0
  187.9310  176.9750  138.8410 C   0  0  0  0  0  2  0  0  0  0  0  0
  189.3510  177.2240  138.4760 C   0  0  1  0  0  0  0  0  0  0  0  0
  190.1580  177.3970  137.1850 C   0  0  1  0  0  3  0  0  0  0  0  0
  189.5680  177.6190  139.8930 C   0  0  2  0  0  3  0  0  0  0  0  0
  190.3440  175.7990  135.4180 O   0  0  0  0  0  1  0  0  0  0  0  0
  189.4510  176.6740  136.0410 C   0  0  1  0  0  3  0  0  0  0  0  0
  183.7510  175.0380  137.4660 C   0  0  1  0  0  3  0  0  0  0  0  0
  185.9470  177.0830  135.3630 C   0  0  2  0  0  3  0  0  0  0  0  0
  183.7670  174.3620  136.0860 C   0  0  0  0  0  2  0  0  0  0  0  0
  188.2580  175.9260  136.5590 C   0  0  0  0  0  0  0  0  0  0  0  0
  186.9370  176.2560  136.1340 N   0  0  0  0  0  0  0  0  0  0  0  0
  185.8040  178.4410  136.0350 C   0  0  0  0  0  1  0  0  0  0  0  0
  188.4260  174.9670  137.3590 O   0  0  0  0  0  0  0  0  0  0  0  0
  184.8060  176.1490  137.4630 C   0  0  0  0  0  2  0  0  0  0  0  0
  185.0630  174.7510  135.3920 C   0  0  2  0  0  3  0  0  0  0  0  0
  185.9990  173.7540  135.6060 F   0  0  0  0  0  0  0  0  0  0  0  0
  185.4660  176.0150  136.1070 C   0  0  1  0  0  0  0  0  0  0  0  0
  182.3220  175.4970  137.8740 C   0  0  1  0  0  0  0  0  0  0  0  0
  181.9520  174.9800  139.2790 C   0  0  0  0  0  2  0  0  0  0  0  0
  181.3660  175.9940  140.0380 O   0  0  0  0  0  1  0  0  0  0  0  0
  182.1700  176.9100  137.7920 O   0  0  0  0  0  0  0  0  0  0  0  0
  181.5030  177.2760  136.6050 C   0  0  0  0  0  2  0  0  0  0  0  0
  181.1160  178.7440  136.6540 C   0  0  0  0  0  2  0  0  0  0  0  0
  179.2100  178.2070  135.4280 C   0  0  0  0  0  1  0  0  0  0  0  0
  179.1720  178.2180  137.6780 O   0  0  0  0  0  1  0  0  0  0  0  0
  179.6700  178.8960  136.6200 N   0  0  0  0  0  0  0  0  0  0  0  0
  181.1510  174.7940  136.6370 S   0  0  0  0  0  0  0  0  0  0  0  0
  180.2760  172.4440  137.4880 C   0  0  0  0  0  0  0  0  0  0  0  0
  180.1160  173.7860  137.7560 C   0  0  2  0  0  3  0  0  0  0  0  0
  180.9210  171.3630  137.5560 O   0  0  0  0  0  0  0  0  0  0  0  0
  179.0870  173.2390  137.0400 O   0  0  0  0  0  0  0  0  0  0  0  0
  190.5330  176.6720  140.6310 C   0  0  1  0  0  3  0  0  0  0  0  0
  192.8190  177.6550  140.4340 O   0  0  0  0  0  1  0  0  0  0  0  0
  192.1710  175.9890  139.0040 O   0  0  0  0  0  0  0  0  0  0  0  0
  191.8890  176.7320  139.9800 C   0  0  0  0  0  0  0  0  0  0  0  0
  190.5320  176.8850  142.1000 N   0  0  0  0  0  0  0  0  0  0  0  0
  190.8360  175.6700  142.8690 C   0  0  0  0  0  2  0  0  0  0  0  0
  191.8510  175.9260  143.7970 O   0  0  0  0  0  0  0  0  0  0  0  0
  191.3450  175.4770  145.0180 C   0  0  0  0  0  2  0  0  0  0  0  0
  192.0690  176.1630  146.1610 C   0  0  0  0  0  2  0  0  0  0  0  0
  191.1760  176.4400  147.1940 O   0  0  0  0  0  1  0  0  0  0  0  0
  189.2010  177.3930  142.4730 C   0  0  1  0  0  3  0  0  0  0  0  0
  188.3040  176.4340  143.2420 C   0  0  0  0  0  0  0  0  0  0  0  0
  188.2890  175.2500  142.9320 O   0  0  0  0  0  0  0  0  0  0  0  0
  187.3910  176.9230  144.3280 C   0  0  1  0  0  3  0  0  0  0  0  0
  188.1820  177.1730  145.6080 C   0  0  0  0  0  1  0  0  0  0  0  0
  186.6600  178.1880  143.9000 C   0  0  0  0  0  2  0  0  0  0  0  0
  185.7160  177.8700  142.8400 N   0  0  0  0  0  2  0  0  0  0  0  0
  185.2410  179.1240  142.2740 C   0  0  0  0  0  2  0  0  0  0  0  0
  182.8800  179.0050  141.3560 C   0  0  1  0  0  0  0  0  0  0  0  0
  184.3340  178.8540  141.0750 C   0  0  2  0  0  3  0  0  0  0  0  0
  181.9900  179.2100  140.1440 C   0  0  0  0  0  1  0  0  0  0  0  0
  183.5000  177.7450  141.3520 O   0  0  0  0  0  0  0  0  0  0  0  0
  182.3900  179.3880  142.7240 C   0  0  0  0  0  3  0  0  0  0  0  0
  182.5340  178.5690  143.7650 C   0  0  0  0  0  2  0  0  0  0  0  0
  189.2440  179.1310  143.0630 S   0  0  0  0  0  0  0  0  0  0  0  0
  191.7150  179.3890  144.1800 C   0  0  0  0  0  1  0  0  0  0  0  0
  190.3430  178.8230  144.4770 C   0  0  0  0  0  2  0  0  0  0  0  0
  3  2  1  0  0  0  0
  4  1  1  6  0  0  0
  4  3  1  0  0  0  0
  4  6  1  0  0  0  0
  5  8  1  6  0  0  0
  5  1  1  0  0  0  0
  5  4  1  0  0  0  0
  6  2  1  0  0  0  0
  6 34  1  1  0  0  0
  8  7  1  1  0  0  0
  8 12  1  0  0  0  0
  9 20  1  6  0  0  0
 10 14  1  1  0  0  0
 10 19  1  0  0  0  0
 10 13  1  0  0  0  0
 11  9  1  0  0  0  0
 12 15  2  0  0  0  0
 13 12  1  0  0  0  0
 16  9  1  0  0  0  0
 17 18  1  1  0  0  0
 17 11  1  0  0  0  0
 17 19  1  0  0  0  0
 19 13  1  0  0  0  0
 19 16  1  1  0  0  0
 20 21  1  1  0  0  0
 21 22  1  0  0  0  0
 23 20  1  0  0  0  0
 24 25  1  0  0  0  0
 24 23  1  0  0  0  0
 26 28  1  0  0  0  0
 28 25  1  0  0  0  0
 28 27  1  0  0  0  0
 29 20  1  0  0  0  0
 30 32  2  0  0  0  0
 30 31  1  0  0  0  0
 31 29  1  6  0  0  0
 33 30  1  0  0  0  0
 33 31  1  0  0  0  0
 34 37  1  6  0  0  0
 34 38  1  0  0  0  0
 36 37  2  0  0  0  0
 37 35  1  0  0  0  0
 38 44  1  0  0  0  0
 38 39  1  0  0  0  0
 39 40  1  0  0  0  0
 40 41  1  0  0  0  0
 41 42  1  0  0  0  0
 42 43  1  0  0  0  0
 44 58  1  1  0  0  0
 44 45  1  0  0  0  0
 45 47  1  0  0  0  0
 46 45  2  0  0  0  0
 47 48  1  1  0  0  0
 49 47  1  0  0  0  0
 50 49  1  0  0  0  0
 51 50  1  0  0  0  0
 52 54  1  6  0  0  0
 52 56  1  0  0  0  0
 53 55  1  0  0  0  0
 53 52  1  0  0  0  0
 53 51  1  1  0  0  0
 55 52  1  0  0  0  0
 56 57  2  0  0  0  0
 58 60  1  0  0  0  0
 59 60  1  0  0  0  0
M  END
>  <MODEL>
9

>  <REMARK>
 VINA RESULT:      -1.7      4.096     10.245
  Name = 
  27 active torsions:
  status: ('A' for Active; 'I' for Inactive)
    1  A    between atoms: C_1  and  C_18
    2  A    between atoms: C_1  and  N_19
    3  A    between atoms: C_1  and  C_55
    4  A    between atoms: C_2  and  O_41
    5  A    between atoms: C_2  and  C_50
    6  A    between atoms: C_4  and  C_20
    7  A    between atoms: C_6  and  C_20
    8  A    between atoms: C_7  and  C_12
    9  A    between atoms: C_7  and  C_16
   10  A    between atoms: C_8  and  C_17
   11  A    between atoms: S_10  and  C_20
   12  A    between atoms: S_10  and  C_23
   13  A    between atoms: C_12  and  N_19
   14  A    between atoms: C_12  and  S_24
   15  A    between atoms: C_14  and  C_26
   16  A    between atoms: C_14  and  N_57
   17  A    between atoms: C_16  and  C_52
   18  A    between atoms: N_19  and  C_21
   19  A    between atoms: C_20  and  O_29
   20  A    between atoms: C_21  and  O_41
   21  A    between atoms: S_24  and  C_54
   22  A    between atoms: O_29  and  C_39
   23  A    between atoms: C_30  and  C_46
   24  A    between atoms: C_39  and  C_40
   25  A    between atoms: C_40  and  N_48
   26  A    between atoms: C_46  and  C_47
   27  A    between atoms: C_52  and  N_57
                            x       y       z     vdW  Elec       q    Type
                         _______ _______ _______ _____ _____    ______ ____

>  <TORSDO>
F 27

$$$$
