=
 OpenBabel11062414453D

 27 30  0  0  1  0  0  0  0  0999 V2000
  181.3050  179.3270  141.4910 C   0  0  2  0  0  3  0  0  0  0  0  0
  184.4850  178.6650  141.4190 C   0  0  0  0  0  0  0  0  0  0  0  0
  184.9520  178.2900  138.9830 C   0  0  1  0  0  3  0  0  0  0  0  0
  183.7430  178.6680  142.4820 C   0  0  0  0  0  0  0  0  0  0  0  0
  182.4330  176.9640  138.6360 N   0  0  0  0  0  0  0  0  0  0  0  0
  180.7620  175.2010  138.5150 C   0  0  0  0  0  2  0  0  0  0  0  0
  181.4220  179.0910  143.0030 C   0  0  0  0  0  2  0  0  0  0  0  0
  184.0520  177.9010  140.1790 C   0  0  2  0  0  3  0  0  0  0  0  0
  186.3960  178.3390  139.3970 C   0  0  0  0  0  3  0  0  0  0  0  0
  186.7290  178.8850  140.5170 N   0  0  0  0  0  0  0  0  0  0  0  0
  179.5590  176.1840  140.5350 C   0  0  0  0  0  0  0  0  0  0  0  0
  180.1140  180.2220  141.1700 C   0  0  0  0  0  1  0  0  0  0  0  0
  181.3960  177.9920  140.7090 C   0  0  1  0  0  3  0  0  0  0  0  0
  179.8330  174.9630  139.6950 C   0  0  0  0  0  2  0  0  0  0  0  0
  182.9060  176.8590  136.3520 O   0  0  0  0  0  0  0  0  0  0  0  0
  182.8230  178.7180  143.4040 C   0  0  0  0  0  0  0  0  0  0  0  0
  185.7440  179.4850  141.3970 C   0  0  0  0  0  2  0  0  0  0  0  0
  184.7670  177.3780  137.7680 C   0  0  0  0  0  2  0  0  0  0  0  0
  178.9440  176.0360  141.5770 O   0  0  0  0  0  0  0  0  0  0  0  0
  180.0070  177.5740  140.1710 C   0  0  1  0  0  3  0  0  0  0  0  0
  179.6290  178.0520  138.7730 C   0  0  0  0  0  1  0  0  0  0  0  0
  183.3150  177.0990  137.5180 C   0  0  0  0  0  0  0  0  0  0  0  0
  182.5760  177.9890  139.6790 C   0  0  2  0  0  3  0  0  0  0  0  0
  182.1340  175.5910  139.0210 C   0  0  0  0  0  2  0  0  0  0  0  0
  183.1570  178.4900  144.8400 C   0  0  0  0  0  2  0  0  0  0  0  0
  185.0160  178.4350  146.4740 C   0  0  0  0  0  1  0  0  0  0  0  0
  184.5470  179.0120  145.1550 C   0  0  0  0  0  2  0  0  0  0  0  0
  1 12  1  1  0  0  0
  1  7  1  0  0  0  0
  2  4  2  0  0  0  0
  3 18  1  6  0  0  0
  3  9  1  0  0  0  0
  3  8  1  0  0  0  0
  4 16  2  0  0  0  0
  5 24  1  0  0  0  0
  5 23  1  0  0  0  0
  6 24  1  0  0  0  0
  6 14  1  0  0  0  0
  7 16  1  0  0  0  0
  8  2  1  1  0  0  0
  9 10  2  0  0  0  0
 10 17  1  0  0  0  0
 11 19  2  0  0  0  0
 13  1  1  0  0  0  0
 14 11  1  0  0  0  0
 15 22  2  0  0  0  0
 16 25  1  0  0  0  0
 17  2  1  0  0  0  0
 20 11  1  0  0  0  0
 20 13  1  0  0  0  0
 21 20  1  0  0  0  0
 22 18  1  0  0  0  0
 22  5  1  0  0  0  0
 23  8  1  0  0  0  0
 23 13  1  0  0  0  0
 25 27  1  0  0  0  0
 27 26  1  0  0  0  0
M  END
>  <MODEL>
1

>  <REMARK>
 VINA RESULT:      -6.9      0.000      0.000
  Name = 
  2 active torsions:
  status: ('A' for Active; 'I' for Inactive)
    1  A    between atoms: C_16  and  C_27
    2  A    between atoms: C_18  and  C_27
                            x       y       z     vdW  Elec       q    Type
                         _______ _______ _______ _____ _____    ______ ____

>  <TORSDO>
F 2

$$$$
=
 OpenBabel11062414453D

 27 30  0  0  1  0  0  0  0  0999 V2000
  187.8260  177.3620  137.0240 C   0  0  2  0  0  3  0  0  0  0  0  0
  190.5710  176.2820  138.3880 C   0  0  0  0  0  0  0  0  0  0  0  0
  191.4020  174.5670  136.7580 C   0  0  1  0  0  3  0  0  0  0  0  0
  189.6610  176.9830  138.9880 C   0  0  0  0  0  0  0  0  0  0  0  0
  188.7270  173.6800  136.2270 N   0  0  0  0  0  0  0  0  0  0  0  0
  186.6480  172.4250  136.3810 C   0  0  0  0  0  2  0  0  0  0  0  0
  187.5390  177.9790  138.4000 C   0  0  0  0  0  2  0  0  0  0  0  0
  190.1920  175.0430  137.5960 C   0  0  2  0  0  3  0  0  0  0  0  0
  192.6630  174.6080  137.5720 C   0  0  0  0  0  3  0  0  0  0  0  0
  192.9070  175.6180  138.3360 N   0  0  0  0  0  0  0  0  0  0  0  0
  185.4190  174.5280  137.1310 C   0  0  0  0  0  0  0  0  0  0  0  0
  187.0780  178.1080  135.9260 C   0  0  0  0  0  1  0  0  0  0  0  0
  187.6540  175.8230  137.0560 C   0  0  1  0  0  3  0  0  0  0  0  0
  185.4640  173.0220  137.1250 C   0  0  0  0  0  2  0  0  0  0  0  0
  189.6150  172.2680  134.5940 O   0  0  0  0  0  0  0  0  0  0  0  0
  188.6300  177.6730  139.3890 C   0  0  0  0  0  0  0  0  0  0  0  0
  192.0000  176.7480  138.4210 C   0  0  0  0  0  2  0  0  0  0  0  0
  191.1990  173.1800  136.1420 C   0  0  0  0  0  2  0  0  0  0  0  0
  184.5830  175.0730  137.8290 O   0  0  0  0  0  0  0  0  0  0  0  0
  186.3520  175.4010  136.3340 C   0  0  1  0  0  3  0  0  0  0  0  0
  186.4500  175.0870  134.8460 C   0  0  0  0  0  1  0  0  0  0  0  0
  189.8220  173.0400  135.5660 C   0  0  0  0  0  0  0  0  0  0  0  0
  188.9620  175.0710  136.6350 C   0  0  2  0  0  3  0  0  0  0  0  0
  187.9320  172.8090  137.0840 C   0  0  0  0  0  2  0  0  0  0  0  0
  188.5620  178.2210  140.7750 C   0  0  0  0  0  2  0  0  0  0  0  0
  188.3020  176.7860  142.7750 C   0  0  0  0  0  1  0  0  0  0  0  0
  189.2840  177.3070  141.7480 C   0  0  0  0  0  2  0  0  0  0  0  0
  1 12  1  6  0  0  0
  1 13  1  0  0  0  0
  1  7  1  0  0  0  0
  2 17  1  0  0  0  0
  2  4  2  0  0  0  0
  3 18  1  1  0  0  0
  3  9  1  0  0  0  0
  3  8  1  0  0  0  0
  4 16  2  0  0  0  0
  5 23  1  0  0  0  0
  5 24  1  0  0  0  0
  6 24  1  0  0  0  0
  6 14  1  0  0  0  0
  7 16  1  0  0  0  0
  8  2  1  6  0  0  0
  9 10  2  0  0  0  0
 10 17  1  0  0  0  0
 11 19  2  0  0  0  0
 14 11  1  0  0  0  0
 15 22  2  0  0  0  0
 16 25  1  0  0  0  0
 20 13  1  0  0  0  0
 20 11  1  0  0  0  0
 21 20  1  0  0  0  0
 22 18  1  0  0  0  0
 22  5  1  0  0  0  0
 23 13  1  0  0  0  0
 23  8  1  0  0  0  0
 25 27  1  0  0  0  0
 27 26  1  0  0  0  0
M  END
>  <MODEL>
2

>  <REMARK>
 VINA RESULT:      -5.9      5.568      7.387
  Name = 
  2 active torsions:
  status: ('A' for Active; 'I' for Inactive)
    1  A    between atoms: C_16  and  C_27
    2  A    between atoms: C_18  and  C_27
                            x       y       z     vdW  Elec       q    Type
                         _______ _______ _______ _____ _____    ______ ____

>  <TORSDO>
F 2

$$$$
=
 OpenBabel11062414453D

 27 30  0  0  1  0  0  0  0  0999 V2000
  181.4320  178.9160  140.2690 C   0  0  2  0  0  3  0  0  0  0  0  0
  184.3980  178.0220  139.2900 C   0  0  0  0  0  0  0  0  0  0  0  0
  184.0240  177.2090  136.9470 C   0  0  1  0  0  3  0  0  0  0  0  0
  184.0520  178.2580  140.5160 C   0  0  0  0  0  0  0  0  0  0  0  0
  181.5160  176.0310  137.6850 N   0  0  0  0  0  0  0  0  0  0  0  0
  179.8770  174.3990  138.4380 C   0  0  0  0  0  2  0  0  0  0  0  0
  182.0430  178.9300  141.6770 C   0  0  0  0  0  2  0  0  0  0  0  0
  183.5680  177.0930  138.4200 C   0  0  2  0  0  3  0  0  0  0  0  0
  185.5230  177.2220  136.8520 C   0  0  0  0  0  3  0  0  0  0  0  0
  186.2170  177.9220  137.6830 N   0  0  0  0  0  0  0  0  0  0  0  0
  179.4270  175.7930  140.5240 C   0  0  0  0  0  0  0  0  0  0  0  0
  180.2140  179.8290  140.1940 C   0  0  0  0  0  1  0  0  0  0  0  0
  181.2410  177.4660  139.7580 C   0  0  1  0  0  3  0  0  0  0  0  0
  179.3910  174.4310  139.8790 C   0  0  0  0  0  2  0  0  0  0  0  0
  181.2000  175.5090  135.4310 O   0  0  0  0  0  0  0  0  0  0  0  0
  183.4920  178.5290  141.6620 C   0  0  0  0  0  0  0  0  0  0  0  0
  185.5890  178.7330  138.7110 C   0  0  0  0  0  2  0  0  0  0  0  0
  183.4330  176.1220  136.0460 C   0  0  0  0  0  2  0  0  0  0  0  0
  179.1920  175.8670  141.7170 O   0  0  0  0  0  0  0  0  0  0  0  0
  179.7470  177.0660  139.7860 C   0  0  1  0  0  3  0  0  0  0  0  0
  178.9310  177.3270  138.5250 C   0  0  0  0  0  1  0  0  0  0  0  0
  181.9770  175.9110  136.3370 C   0  0  0  0  0  0  0  0  0  0  0  0
  182.0100  177.2030  138.4190 C   0  0  2  0  0  3  0  0  0  0  0  0
  181.3430  174.7680  138.3910 C   0  0  0  0  0  2  0  0  0  0  0  0
  184.2820  178.5220  142.9270 C   0  0  0  0  0  2  0  0  0  0  0  0
  184.2600  179.0020  145.3550 C   0  0  0  0  0  1  0  0  0  0  0  0
  183.4100  178.9160  144.1060 C   0  0  0  0  0  2  0  0  0  0  0  0
  1 12  1  1  0  0  0
  1  7  1  0  0  0  0
  2  4  2  0  0  0  0
  3 18  1  6  0  0  0
  3  8  1  0  0  0  0
  4 16  2  0  0  0  0
  5 24  1  0  0  0  0
  5 23  1  0  0  0  0
  6 14  1  0  0  0  0
  8  2  1  1  0  0  0
  9  3  1  0  0  0  0
  9 10  2  0  0  0  0
 10 17  1  0  0  0  0
 11 19  2  0  0  0  0
 13 20  1  0  0  0  0
 13  1  1  0  0  0  0
 14 11  1  0  0  0  0
 15 22  2  0  0  0  0
 16  7  1  0  0  0  0
 16 25  1  0  0  0  0
 17  2  1  0  0  0  0
 18 22  1  0  0  0  0
 20 11  1  0  0  0  0
 21 20  1  0  0  0  0
 22  5  1  0  0  0  0
 23  8  1  0  0  0  0
 23 13  1  0  0  0  0
 24  6  1  0  0  0  0
 25 27  1  0  0  0  0
 27 26  1  0  0  0  0
M  END
>  <MODEL>
3

>  <REMARK>
 VINA RESULT:      -5.9      1.275      1.836
  Name = 
  2 active torsions:
  status: ('A' for Active; 'I' for Inactive)
    1  A    between atoms: C_16  and  C_27
    2  A    between atoms: C_18  and  C_27
                            x       y       z     vdW  Elec       q    Type
                         _______ _______ _______ _____ _____    ______ ____

>  <TORSDO>
F 2

$$$$
=
 OpenBabel11062414453D

 27 30  0  0  1  0  0  0  0  0999 V2000
  182.9590  176.7840  139.2050 C   0  0  2  0  0  3  0  0  0  0  0  0
  184.5320  178.5450  141.4370 C   0  0  0  0  0  0  0  0  0  0  0  0
  182.9410  178.5920  143.3760 C   0  0  1  0  0  3  0  0  0  0  0  0
  184.8460  178.4720  140.1820 C   0  0  0  0  0  0  0  0  0  0  0  0
  180.6920  178.8020  141.6100 N   0  0  0  0  0  0  0  0  0  0  0  0
  178.9320  179.7670  140.2340 C   0  0  0  0  0  2  0  0  0  0  0  0
  184.0070  177.3310  138.2250 C   0  0  0  0  0  2  0  0  0  0  0  0
  183.1030  178.8430  141.8580 C   0  0  2  0  0  3  0  0  0  0  0  0
  184.1050  179.1590  144.1370 C   0  0  0  0  0  3  0  0  0  0  0  0
  185.3060  179.0000  143.6940 N   0  0  0  0  0  0  0  0  0  0  0  0
  180.0310  178.8160  138.1400 C   0  0  0  0  0  0  0  0  0  0  0  0
  182.3770  175.4690  138.7010 C   0  0  0  0  0  1  0  0  0  0  0  0
  181.9430  177.8830  139.6060 C   0  0  1  0  0  3  0  0  0  0  0  0
  179.1250  179.8670  138.7290 C   0  0  0  0  0  2  0  0  0  0  0  0
  179.3150  178.6350  143.4890 O   0  0  0  0  0  0  0  0  0  0  0  0
  184.9730  178.2640  138.9010 C   0  0  0  0  0  0  0  0  0  0  0  0
  185.5790  178.2590  142.4760 C   0  0  0  0  0  2  0  0  0  0  0  0
  181.6180  179.1210  143.9360 C   0  0  0  0  0  2  0  0  0  0  0  0
  180.3470  178.9240  136.9680 O   0  0  0  0  0  0  0  0  0  0  0  0
  180.5790  177.6470  138.9140 C   0  0  1  0  0  3  0  0  0  0  0  0
  179.5530  176.8060  139.6650 C   0  0  0  0  0  1  0  0  0  0  0  0
  180.4750  178.7910  143.0230 C   0  0  0  0  0  0  0  0  0  0  0  0
  181.9110  178.1230  141.1540 C   0  0  2  0  0  3  0  0  0  0  0  0
  180.2530  180.0150  140.9300 C   0  0  0  0  0  2  0  0  0  0  0  0
  186.0970  178.8690  138.1300 C   0  0  0  0  0  2  0  0  0  0  0  0
  188.3010  178.1780  139.0180 C   0  0  0  0  0  1  0  0  0  0  0  0
  187.2390  177.8800  137.9820 C   0  0  0  0  0  2  0  0  0  0  0  0
  1 12  1  6  0  0  0
  1 13  1  0  0  0  0
  2 17  1  0  0  0  0
  3 18  1  1  0  0  0
  3  9  1  0  0  0  0
  4  2  2  0  0  0  0
  5 22  1  0  0  0  0
  6 24  1  0  0  0  0
  7 16  1  0  0  0  0
  7  1  1  0  0  0  0
  8  2  1  6  0  0  0
  8  3  1  0  0  0  0
 10  9  2  0  0  0  0
 11 14  1  0  0  0  0
 11 20  1  0  0  0  0
 13 23  1  0  0  0  0
 14  6  1  0  0  0  0
 16  4  2  0  0  0  0
 17 10  1  0  0  0  0
 19 11  2  0  0  0  0
 20 13  1  0  0  0  0
 20 21  1  0  0  0  0
 22 15  2  0  0  0  0
 22 18  1  0  0  0  0
 23  5  1  0  0  0  0
 23  8  1  0  0  0  0
 24  5  1  0  0  0  0
 25 16  1  0  0  0  0
 27 25  1  0  0  0  0
 27 26  1  0  0  0  0
M  END
>  <MODEL>
4

>  <REMARK>
 VINA RESULT:      -5.7      1.727      4.984
  Name = 
  2 active torsions:
  status: ('A' for Active; 'I' for Inactive)
    1  A    between atoms: C_16  and  C_27
    2  A    between atoms: C_18  and  C_27
                            x       y       z     vdW  Elec       q    Type
                         _______ _______ _______ _____ _____    ______ ____

>  <TORSDO>
F 2

$$$$
=
 OpenBabel11062414453D

 27 30  0  0  1  0  0  0  0  0999 V2000
  184.5090  176.5420  137.5850 C   0  0  2  0  0  3  0  0  0  0  0  0
  186.0330  178.4390  139.7390 C   0  0  0  0  0  0  0  0  0  0  0  0
  184.4540  178.5020  141.6870 C   0  0  1  0  0  3  0  0  0  0  0  0
  186.3410  178.3300  138.4850 C   0  0  0  0  0  0  0  0  0  0  0  0
  182.1870  178.5680  139.9320 N   0  0  0  0  0  0  0  0  0  0  0  0
  180.3860  179.4190  138.5350 C   0  0  0  0  0  2  0  0  0  0  0  0
  185.5300  177.0880  136.5780 C   0  0  0  0  0  2  0  0  0  0  0  0
  184.5970  178.7020  140.1600 C   0  0  2  0  0  3  0  0  0  0  0  0
  185.6020  179.1370  142.4170 C   0  0  0  0  0  3  0  0  0  0  0  0
  186.8050  179.0040  141.9710 N   0  0  0  0  0  0  0  0  0  0  0  0
  181.5040  178.4300  136.4690 C   0  0  0  0  0  0  0  0  0  0  0  0
  183.9690  175.1900  137.1350 C   0  0  0  0  0  1  0  0  0  0  0  0
  183.4570  177.6180  137.9530 C   0  0  1  0  0  3  0  0  0  0  0  0
  180.5660  179.4700  137.0260 C   0  0  0  0  0  2  0  0  0  0  0  0
  180.8300  178.4230  141.8260 O   0  0  0  0  0  0  0  0  0  0  0  0
  186.4670  178.0790  137.2110 C   0  0  0  0  0  0  0  0  0  0  0  0
  187.0970  178.2280  140.7800 C   0  0  0  0  0  2  0  0  0  0  0  0
  183.1170  179.0050  142.2370 C   0  0  0  0  0  2  0  0  0  0  0  0
  181.8080  178.5050  135.2910 O   0  0  0  0  0  0  0  0  0  0  0  0
  182.0980  177.3100  137.2820 C   0  0  1  0  0  3  0  0  0  0  0  0
  181.1060  176.4620  138.0710 C   0  0  0  0  0  1  0  0  0  0  0  0
  181.9800  178.6020  141.3460 C   0  0  0  0  0  0  0  0  0  0  0  0
  183.4260  177.9150  139.4920 C   0  0  2  0  0  3  0  0  0  0  0  0
  181.7020  179.7380  139.2110 C   0  0  0  0  0  2  0  0  0  0  0  0
  187.5640  178.6940  136.4100 C   0  0  0  0  0  2  0  0  0  0  0  0
  189.6330  177.5130  137.0810 C   0  0  0  0  0  1  0  0  0  0  0  0
  188.8370  178.7920  137.2300 C   0  0  0  0  0  2  0  0  0  0  0  0
  1 12  1  6  0  0  0
  1 13  1  0  0  0  0
  2 17  1  0  0  0  0
  3 18  1  1  0  0  0
  3  9  1  0  0  0  0
  4  2  2  0  0  0  0
  5 22  1  0  0  0  0
  6 24  1  0  0  0  0
  7 16  1  0  0  0  0
  7  1  1  0  0  0  0
  8  2  1  6  0  0  0
  8  3  1  0  0  0  0
 10  9  2  0  0  0  0
 11 14  1  0  0  0  0
 11 20  1  0  0  0  0
 13 23  1  0  0  0  0
 14  6  1  0  0  0  0
 16  4  2  0  0  0  0
 17 10  1  0  0  0  0
 19 11  2  0  0  0  0
 20 13  1  0  0  0  0
 20 21  1  0  0  0  0
 22 15  2  0  0  0  0
 22 18  1  0  0  0  0
 23  5  1  0  0  0  0
 23  8  1  0  0  0  0
 24  5  1  0  0  0  0
 25 16  1  0  0  0  0
 25 27  1  0  0  0  0
 26 27  1  0  0  0  0
M  END
>  <MODEL>
5

>  <REMARK>
 VINA RESULT:      -5.5      1.943      5.434
  Name = 
  2 active torsions:
  status: ('A' for Active; 'I' for Inactive)
    1  A    between atoms: C_16  and  C_27
    2  A    between atoms: C_18  and  C_27
                            x       y       z     vdW  Elec       q    Type
                         _______ _______ _______ _____ _____    ______ ____

>  <TORSDO>
F 2

$$$$
=
 OpenBabel11062414453D

 27 30  0  0  1  0  0  0  0  0999 V2000
  190.2990  178.7770  143.7840 C   0  0  2  0  0  3  0  0  0  0  0  0
  187.5770  177.9920  142.1940 C   0  0  0  0  0  0  0  0  0  0  0  0
  185.7530  178.7840  143.7230 C   0  0  1  0  0  3  0  0  0  0  0  0
  188.7610  177.5470  141.9170 C   0  0  0  0  0  0  0  0  0  0  0  0
  187.2490  177.9750  146.0320 N   0  0  0  0  0  0  0  0  0  0  0  0
  188.0940  176.6120  147.8610 C   0  0  0  0  0  2  0  0  0  0  0  0
  190.9970  177.8450  142.7850 C   0  0  0  0  0  2  0  0  0  0  0  0
  187.0470  177.9430  143.6170 C   0  0  2  0  0  3  0  0  0  0  0  0
  184.8490  178.5230  142.5530 C   0  0  0  0  0  3  0  0  0  0  0  0
  185.3390  178.4450  141.3620 N   0  0  0  0  0  0  0  0  0  0  0  0
  190.4120  176.6050  146.8020 C   0  0  0  0  0  0  0  0  0  0  0  0
  191.2760  179.8040  144.3440 C   0  0  0  0  0  1  0  0  0  0  0  0
  189.4750  177.9700  144.8190 C   0  0  1  0  0  3  0  0  0  0  0  0
  189.4370  175.9120  147.7180 C   0  0  0  0  0  2  0  0  0  0  0  0
  185.5690  178.9310  147.3440 O   0  0  0  0  0  0  0  0  0  0  0  0
  190.0210  177.2220  141.8250 C   0  0  0  0  0  0  0  0  0  0  0  0
  186.7570  178.6280  141.1060 C   0  0  0  0  0  2  0  0  0  0  0  0
  185.0060  178.5750  145.0430 C   0  0  0  0  0  2  0  0  0  0  0  0
  191.4490  176.0270  146.5270 O   0  0  0  0  0  0  0  0  0  0  0  0
  190.1790  177.9640  146.1960 C   0  0  1  0  0  3  0  0  0  0  0  0
  189.8100  179.0740  147.1740 C   0  0  0  0  0  1  0  0  0  0  0  0
  185.9540  178.5570  146.2040 C   0  0  0  0  0  0  0  0  0  0  0  0
  187.9600  178.3680  144.8090 C   0  0  2  0  0  3  0  0  0  0  0  0
  187.3800  176.6100  146.5270 C   0  0  0  0  0  2  0  0  0  0  0  0
  190.5050  176.3160  140.7440 C   0  0  0  0  0  2  0  0  0  0  0  0
  189.8770  177.0590  138.4680 C   0  0  0  0  0  1  0  0  0  0  0  0
  190.9500  177.1170  139.5330 C   0  0  0  0  0  2  0  0  0  0  0  0
  1 12  1  1  0  0  0
  1 13  1  0  0  0  0
  3  9  1  6  0  0  0
  3 18  1  0  0  0  0
  4  2  2  0  0  0  0
  5 22  1  0  0  0  0
  5 24  1  0  0  0  0
  7  1  1  0  0  0  0
  8  2  1  6  0  0  0
  8  3  1  0  0  0  0
  8 23  1  0  0  0  0
 10  9  2  0  0  0  0
 11 14  1  0  0  0  0
 13 20  1  0  0  0  0
 14  6  1  0  0  0  0
 16  4  2  0  0  0  0
 16  7  1  0  0  0  0
 17 10  1  0  0  0  0
 17  2  1  0  0  0  0
 18 22  1  0  0  0  0
 19 11  2  0  0  0  0
 20 11  1  0  0  0  0
 20 21  1  0  0  0  0
 22 15  2  0  0  0  0
 23 13  1  0  0  0  0
 23  5  1  0  0  0  0
 24  6  1  0  0  0  0
 25 16  1  0  0  0  0
 26 27  1  0  0  0  0
 27 25  1  0  0  0  0
M  END
>  <MODEL>
6

>  <REMARK>
 VINA RESULT:      -5.5      5.019      9.103
  Name = 
  2 active torsions:
  status: ('A' for Active; 'I' for Inactive)
    1  A    between atoms: C_16  and  C_27
    2  A    between atoms: C_18  and  C_27
                            x       y       z     vdW  Elec       q    Type
                         _______ _______ _______ _____ _____    ______ ____

>  <TORSDO>
F 2

$$$$
=
 OpenBabel11062414453D

 27 30  0  0  1  0  0  0  0  0999 V2000
  184.1690  177.1590  136.2170 C   0  0  2  0  0  3  0  0  0  0  0  0
  187.0200  177.6440  137.6980 C   0  0  0  0  0  0  0  0  0  0  0  0
  188.5980  176.1580  136.4360 C   0  0  1  0  0  3  0  0  0  0  0  0
  185.8630  177.9950  138.1650 C   0  0  0  0  0  0  0  0  0  0  0  0
  186.5850  174.1330  136.1730 N   0  0  0  0  0  0  0  0  0  0  0  0
  185.2240  172.1720  136.6400 C   0  0  0  0  0  2  0  0  0  0  0  0
  183.5620  177.8560  137.4430 C   0  0  0  0  0  2  0  0  0  0  0  0
  187.2500  176.2310  137.1900 C   0  0  2  0  0  3  0  0  0  0  0  0
  189.6700  176.8920  137.1890 C   0  0  0  0  0  3  0  0  0  0  0  0
  189.4160  178.0400  137.7210 N   0  0  0  0  0  0  0  0  0  0  0  0
  183.1780  173.6550  136.9720 C   0  0  0  0  0  0  0  0  0  0  0  0
  183.2480  177.2820  135.0090 C   0  0  0  0  0  1  0  0  0  0  0  0
  184.6590  175.7330  136.5710 C   0  0  1  0  0  3  0  0  0  0  0  0
  183.8530  172.3420  137.2770 C   0  0  0  0  0  2  0  0  0  0  0  0
  188.0880  172.9390  134.8430 O   0  0  0  0  0  0  0  0  0  0  0  0
  184.6140  178.2460  138.4430 C   0  0  0  0  0  0  0  0  0  0  0  0
  188.1140  178.6690  137.5950 C   0  0  0  0  0  2  0  0  0  0  0  0
  189.0380  174.7250  136.1250 C   0  0  0  0  0  2  0  0  0  0  0  0
  182.1470  173.9190  137.5660 O   0  0  0  0  0  0  0  0  0  0  0  0
  183.7050  174.6640  135.9880 C   0  0  1  0  0  3  0  0  0  0  0  0
  184.0210  174.1330  134.5940 C   0  0  0  0  0  1  0  0  0  0  0  0
  187.8870  173.9020  135.6290 C   0  0  0  0  0  0  0  0  0  0  0  0
  186.1870  175.5420  136.2780 C   0  0  2  0  0  3  0  0  0  0  0  0
  186.1790  173.1960  137.2130 C   0  0  0  0  0  2  0  0  0  0  0  0
  184.2340  178.9750  139.6870 C   0  0  0  0  0  2  0  0  0  0  0  0
  184.7840  178.2830  141.9990 C   0  0  0  0  0  1  0  0  0  0  0  0
  185.3390  178.8800  140.7240 C   0  0  0  0  0  2  0  0  0  0  0  0
  1 12  1  6  0  0  0
  1 13  1  0  0  0  0
  1  7  1  0  0  0  0
  2  4  2  0  0  0  0
  3 18  1  1  0  0  0
  3  9  1  0  0  0  0
  3  8  1  0  0  0  0
  4 16  2  0  0  0  0
  5 23  1  0  0  0  0
  5 24  1  0  0  0  0
  6 24  1  0  0  0  0
  6 14  1  0  0  0  0
  7 16  1  0  0  0  0
  8  2  1  6  0  0  0
  9 10  2  0  0  0  0
 11 14  1  0  0  0  0
 11 19  2  0  0  0  0
 15 22  2  0  0  0  0
 16 25  1  0  0  0  0
 17  2  1  0  0  0  0
 17 10  1  0  0  0  0
 20 13  1  0  0  0  0
 20 11  1  0  0  0  0
 21 20  1  0  0  0  0
 22 18  1  0  0  0  0
 22  5  1  0  0  0  0
 23 13  1  0  0  0  0
 23  8  1  0  0  0  0
 25 27  1  0  0  0  0
 27 26  1  0  0  0  0
M  END
>  <MODEL>
7

>  <REMARK>
 VINA RESULT:      -5.4      3.522      5.509
  Name = 
  2 active torsions:
  status: ('A' for Active; 'I' for Inactive)
    1  A    between atoms: C_16  and  C_27
    2  A    between atoms: C_18  and  C_27
                            x       y       z     vdW  Elec       q    Type
                         _______ _______ _______ _____ _____    ______ ____

>  <TORSDO>
F 2

$$$$
=
 OpenBabel11062414453D

 27 30  0  0  1  0  0  0  0  0999 V2000
  187.0440  176.8190  143.3460 C   0  0  2  0  0  3  0  0  0  0  0  0
  186.3900  178.5680  140.6860 C   0  0  0  0  0  0  0  0  0  0  0  0
  188.0040  177.6750  138.9850 C   0  0  1  0  0  3  0  0  0  0  0  0
  185.9920  178.8510  141.8860 C   0  0  0  0  0  0  0  0  0  0  0  0
  190.0510  177.4010  140.9740 N   0  0  0  0  0  0  0  0  0  0  0  0
  191.9510  177.9170  142.4030 C   0  0  0  0  0  2  0  0  0  0  0  0
  186.2170  177.8790  144.0870 C   0  0  0  0  0  2  0  0  0  0  0  0
  187.8510  178.2510  140.4130 C   0  0  2  0  0  3  0  0  0  0  0  0
  187.1870  178.4650  138.0030 C   0  0  0  0  0  3  0  0  0  0  0  0
  185.9880  178.8320  138.3050 N   0  0  0  0  0  0  0  0  0  0  0  0
  190.4450  177.8360  144.4570 C   0  0  0  0  0  0  0  0  0  0  0  0
  187.0590  175.5050  144.1160 C   0  0  0  0  0  1  0  0  0  0  0  0
  188.4210  177.3860  142.9170 C   0  0  1  0  0  3  0  0  0  0  0  0
  191.7140  178.3630  143.8370 C   0  0  0  0  0  2  0  0  0  0  0  0
  191.3820  176.4010  139.3370 O   0  0  0  0  0  0  0  0  0  0  0  0
  185.7150  178.9490  143.1570 C   0  0  0  0  0  0  0  0  0  0  0  0
  185.3800  178.4820  139.5760 C   0  0  0  0  0  2  0  0  0  0  0  0
  189.4610  177.5810  138.5270 C   0  0  0  0  0  2  0  0  0  0  0  0
  190.1190  178.2690  145.5490 O   0  0  0  0  0  0  0  0  0  0  0  0
  189.5510  176.8150  143.8070 C   0  0  1  0  0  3  0  0  0  0  0  0
  190.2340  175.5370  143.3330 C   0  0  0  0  0  1  0  0  0  0  0  0
  190.3370  177.0450  139.6200 C   0  0  0  0  0  0  0  0  0  0  0  0
  188.6400  177.3000  141.3680 C   0  0  2  0  0  3  0  0  0  0  0  0
  190.8670  178.4820  141.5120 C   0  0  0  0  0  2  0  0  0  0  0  0
  184.8520  180.0500  143.6750 C   0  0  0  0  0  2  0  0  0  0  0  0
  182.6220  178.9770  143.6280 C   0  0  0  0  0  1  0  0  0  0  0  0
  183.7260  179.4930  144.5260 C   0  0  0  0  0  2  0  0  0  0  0  0
  1  7  1  0  0  0  0
  1 12  1  1  0  0  0
  2  4  2  0  0  0  0
  3  9  1  6  0  0  0
  3  8  1  0  0  0  0
  4 16  2  0  0  0  0
  5 23  1  0  0  0  0
  5 24  1  0  0  0  0
  6 14  1  0  0  0  0
  8  2  1  1  0  0  0
  8 23  1  0  0  0  0
  9 10  2  0  0  0  0
 10 17  1  0  0  0  0
 11 19  2  0  0  0  0
 13  1  1  0  0  0  0
 13 20  1  0  0  0  0
 14 11  1  0  0  0  0
 15 22  2  0  0  0  0
 16 25  1  0  0  0  0
 16  7  1  0  0  0  0
 17  2  1  0  0  0  0
 18  3  1  0  0  0  0
 18 22  1  0  0  0  0
 20 11  1  0  0  0  0
 21 20  1  0  0  0  0
 22  5  1  0  0  0  0
 23 13  1  0  0  0  0
 24  6  1  0  0  0  0
 25 27  1  0  0  0  0
 26 27  1  0  0  0  0
M  END
>  <MODEL>
8

>  <REMARK>
 VINA RESULT:      -5.3      4.527      7.392
  Name = 
  2 active torsions:
  status: ('A' for Active; 'I' for Inactive)
    1  A    between atoms: C_16  and  C_27
    2  A    between atoms: C_18  and  C_27
                            x       y       z     vdW  Elec       q    Type
                         _______ _______ _______ _____ _____    ______ ____

>  <TORSDO>
F 2

$$$$
=
 OpenBabel11062414453D

 27 30  0  0  1  0  0  0  0  0999 V2000
  184.4280  179.2880  139.1070 C   0  0  2  0  0  3  0  0  0  0  0  0
  187.3020  177.8400  138.6610 C   0  0  0  0  0  0  0  0  0  0  0  0
  187.1100  176.8490  136.3640 C   0  0  1  0  0  3  0  0  0  0  0  0
  186.8410  178.2580  139.7970 C   0  0  0  0  0  0  0  0  0  0  0  0
  184.3620  176.1660  136.8170 N   0  0  0  0  0  0  0  0  0  0  0  0
  182.3830  174.9010  137.4520 C   0  0  0  0  0  2  0  0  0  0  0  0
  184.8400  179.3580  140.5840 C   0  0  0  0  0  2  0  0  0  0  0  0
  186.4490  176.9650  137.7570 C   0  0  2  0  0  3  0  0  0  0  0  0
  188.5880  176.6160  136.4930 C   0  0  0  0  0  3  0  0  0  0  0  0
  189.2750  177.2840  137.3570 N   0  0  0  0  0  0  0  0  0  0  0  0
  181.9040  176.5640  139.3230 C   0  0  0  0  0  0  0  0  0  0  0  0
  183.4040  180.3680  138.7760 C   0  0  0  0  0  1  0  0  0  0  0  0
  184.0620  177.8390  138.6980 C   0  0  1  0  0  3  0  0  0  0  0  0
  181.7220  175.1640  138.7960 C   0  0  0  0  0  2  0  0  0  0  0  0
  184.2650  175.4600  134.5940 O   0  0  0  0  0  0  0  0  0  0  0  0
  186.1880  178.7350  140.8200 C   0  0  0  0  0  0  0  0  0  0  0  0
  188.6630  178.2890  138.2070 C   0  0  0  0  0  2  0  0  0  0  0  0
  186.4670  175.7770  135.4800 C   0  0  0  0  0  2  0  0  0  0  0  0
  181.5290  176.8020  140.4570 O   0  0  0  0  0  0  0  0  0  0  0  0
  182.5320  177.6840  138.5370 C   0  0  1  0  0  3  0  0  0  0  0  0
  181.9470  177.9340  137.1500 C   0  0  0  0  0  1  0  0  0  0  0  0
  184.9710  175.8300  135.5680 C   0  0  0  0  0  0  0  0  0  0  0  0
  184.9470  177.3170  137.5150 C   0  0  2  0  0  3  0  0  0  0  0  0
  183.8840  175.0280  137.5930 C   0  0  0  0  0  2  0  0  0  0  0  0
  186.7900  178.7410  142.1850 C   0  0  0  0  0  2  0  0  0  0  0  0
  186.9150  177.1640  144.0890 C   0  0  0  0  0  1  0  0  0  0  0  0
  185.9810  177.8720  143.1310 C   0  0  0  0  0  2  0  0  0  0  0  0
  1 12  1  1  0  0  0
  1  7  1  0  0  0  0
  2  4  2  0  0  0  0
  3 18  1  1  0  0  0
  3  9  1  0  0  0  0
  3  8  1  0  0  0  0
  4 16  2  0  0  0  0
  5 23  1  0  0  0  0
  5 24  1  0  0  0  0
  6 24  1  0  0  0  0
  6 14  1  0  0  0  0
  7 16  1  0  0  0  0
  8  2  1  1  0  0  0
  9 10  2  0  0  0  0
 10 17  1  0  0  0  0
 11 19  2  0  0  0  0
 13  1  1  0  0  0  0
 14 11  1  0  0  0  0
 15 22  2  0  0  0  0
 16 25  1  0  0  0  0
 17  2  1  0  0  0  0
 18 22  1  0  0  0  0
 20 13  1  0  0  0  0
 20 11  1  0  0  0  0
 21 20  1  0  0  0  0
 22  5  1  0  0  0  0
 23  8  1  0  0  0  0
 23 13  1  0  0  0  0
 25 27  1  0  0  0  0
 27 26  1  0  0  0  0
M  END
>  <MODEL>
9

>  <REMARK>
 VINA RESULT:      -5.1      2.541      3.457
  Name = 
  2 active torsions:
  status: ('A' for Active; 'I' for Inactive)
    1  A    between atoms: C_16  and  C_27
    2  A    between atoms: C_18  and  C_27
                            x       y       z     vdW  Elec       q    Type
                         _______ _______ _______ _____ _____    ______ ____

>  <TORSDO>
F 2

$$$$
