=
 OpenBabel11062414363D

 38 41  0  0  1  0  0  0  0  0999 V2000
  183.4570  178.8740  143.9730 C   0  0  0  0  0  3  0  0  0  0  0  0
  186.8460  177.9370  145.3900 C   0  0  2  0  0  3  0  0  0  0  0  0
  183.4410  178.4200  141.5820 C   0  0  0  0  0  0  0  0  0  0  0  0
  184.8390  178.6470  144.0280 C   0  0  0  0  0  0  0  0  0  0  0  0
  184.8300  178.2340  141.6320 C   0  0  0  0  0  3  0  0  0  0  0  0
  189.1430  177.9550  141.7410 C   0  0  0  0  0  3  0  0  0  0  0  0
  187.6600  178.0060  144.1220 C   0  0  0  0  0  0  0  0  0  0  0  0
  187.0060  178.1490  142.8780 C   0  0  0  0  0  0  0  0  0  0  0  0
  189.0550  177.8300  144.1640 C   0  0  0  0  0  0  0  0  0  0  0  0
  185.5360  178.3470  142.8390 C   0  0  0  0  0  0  0  0  0  0  0  0
  184.7640  178.7210  146.5680 C   0  0  0  0  0  1  0  0  0  0  0  0
  187.7580  178.1220  141.6950 C   0  0  0  0  0  3  0  0  0  0  0  0
  189.7870  177.8090  142.9710 C   0  0  0  0  0  3  0  0  0  0  0  0
  182.7650  178.7540  142.7660 C   0  0  0  0  0  3  0  0  0  0  0  0
  186.4600  176.6120  145.6170 O   0  0  0  0  0  1  0  0  0  0  0  0
  185.6170  178.8550  145.3110 C   0  0  1  0  0  3  0  0  0  0  0  0
  183.8820  180.0460  139.2540 O   0  0  0  0  0  0  0  0  0  0  0  0
  182.9240  179.2280  139.2360 C   0  0  0  0  0  0  0  0  0  0  0  0
  182.7160  178.3110  140.3340 N   0  0  0  0  0  0  0  0  0  0  0  0
  181.7310  177.2410  140.1850 C   0  0  0  0  0  2  0  0  0  0  0  0
  182.3920  176.0020  139.6120 C   0  0  0  0  0  1  0  0  0  0  0  0
  182.0340  179.2080  138.0320 C   0  0  0  0  0  2  0  0  0  0  0  0
  180.9280  180.7510  139.4460 O   0  0  0  0  0  1  0  0  0  0  0  0
  180.9660  180.2900  138.1280 C   0  0  1  0  0  3  0  0  0  0  0  0
  180.1380  181.5700  136.1290 C   0  0  0  0  0  2  0  0  0  0  0  0
  181.4100  185.2670  137.6520 O   0  0  0  0  0  1  0  0  0  0  0  0
  180.5070  182.6520  135.1260 C   0  0  0  0  0  2  0  0  0  0  0  0
  180.7350  183.9540  135.8280 C   0  0  0  0  0  3  0  0  0  0  0  0
  181.4460  182.7810  137.9140 C   0  0  1  0  0  3  0  0  0  0  0  0
  181.2010  184.0190  137.0800 C   0  0  0  0  0  0  0  0  0  0  0  0
  181.2600  181.4470  137.1600 C   0  0  1  0  0  3  0  0  0  0  0  0
  182.7320  182.8400  138.4570 O   0  0  0  0  0  1  0  0  0  0  0  0
  189.7220  177.6550  145.4190 N   0  0  0  0  0  2  0  0  0  0  0  0
  190.6200  176.6590  145.6200 O   0  0  0  0  0  0  0  0  0  0  0  0
  190.8560  176.6610  146.9970 C   0  0  0  0  0  2  0  0  0  0  0  0
  192.8550  176.2150  148.4670 N   0  0  0  0  0  1  0  0  0  0  0  0
  192.1120  175.9190  147.2900 C   0  0  0  0  0  0  0  0  0  0  0  0
  192.5370  175.0550  146.4800 O   0  0  0  0  0  0  0  0  0  0  0  0
  1  4  1  0  0  0  0
  2 15  1  6  0  0  0
  3  5  2  0  0  0  0
  3 14  1  0  0  0  0
  4 16  1  0  0  0  0
  5 10  1  0  0  0  0
  6 13  1  0  0  0  0
  7  9  1  0  0  0  0
  7  2  1  0  0  0  0
  8  7  2  0  0  0  0
  9 33  1  0  0  0  0
 10  8  1  0  0  0  0
 10  4  2  0  0  0  0
 12  6  2  0  0  0  0
 12  8  1  0  0  0  0
 13  9  2  0  0  0  0
 14  1  2  0  0  0  0
 16  2  1  0  0  0  0
 16 11  1  1  0  0  0
 18 17  2  0  0  0  0
 18 19  1  0  0  0  0
 19  3  1  0  0  0  0
 20 19  1  0  0  0  0
 21 20  1  0  0  0  0
 22 24  1  0  0  0  0
 22 18  1  0  0  0  0
 24 23  1  1  0  0  0
 25 31  1  0  0  0  0
 27 28  1  0  0  0  0
 27 25  1  0  0  0  0
 28 30  2  0  0  0  0
 29 32  1  6  0  0  0
 30 26  1  0  0  0  0
 30 29  1  0  0  0  0
 31 29  1  0  0  0  0
 31 24  1  1  0  0  0
 33 34  1  0  0  0  0
 34 35  1  0  0  0  0
 35 37  1  0  0  0  0
 37 36  1  0  0  0  0
 38 37  2  0  0  0  0
M  END
>  <MODEL>
1

>  <REMARK>
 VINA RESULT:      -9.3      0.000      0.000
  Name = 
  9 active torsions:
  status: ('A' for Active; 'I' for Inactive)
    1  A    between atoms: O_3  and  C_4
    2  A    between atoms: O_3  and  N_29
    3  A    between atoms: C_4  and  C_12
    4  A    between atoms: C_7  and  C_20
    5  A    between atoms: C_7  and  C_25
    6  A    between atoms: C_11  and  N_33
    7  A    between atoms: C_13  and  N_33
    8  A    between atoms: C_20  and  C_34
    9  A    between atoms: C_21  and  N_29
                            x       y       z     vdW  Elec       q    Type
                         _______ _______ _______ _____ _____    ______ ____

>  <TORSDO>
F 9

$$$$
=
 OpenBabel11062414363D

 38 41  0  0  1  0  0  0  0  0999 V2000
  189.3840  177.5650  140.4920 C   0  0  0  0  0  3  0  0  0  0  0  0
  190.0760  177.8580  144.2080 C   0  0  2  0  0  3  0  0  0  0  0  0
  187.0710  178.1890  140.0620 C   0  0  0  0  0  0  0  0  0  0  0  0
  189.1500  177.5700  141.8740 C   0  0  0  0  0  0  0  0  0  0  0  0
  186.8300  178.1520  141.4430 C   0  0  0  0  0  3  0  0  0  0  0  0
  186.0230  177.7480  145.6710 C   0  0  0  0  0  3  0  0  0  0  0  0
  188.6620  177.7550  144.7200 C   0  0  0  0  0  0  0  0  0  0  0  0
  187.5830  177.8070  143.8110 C   0  0  0  0  0  0  0  0  0  0  0  0
  188.4110  177.7090  146.1040 C   0  0  0  0  0  0  0  0  0  0  0  0
  187.8520  177.8430  142.3530 C   0  0  0  0  0  0  0  0  0  0  0  0
  191.6430  177.3250  142.3110 C   0  0  0  0  0  1  0  0  0  0  0  0
  186.2680  177.8030  144.2990 C   0  0  0  0  0  3  0  0  0  0  0  0
  187.0910  177.7020  146.5690 C   0  0  0  0  0  3  0  0  0  0  0  0
  188.3590  177.8790  139.5970 C   0  0  0  0  0  3  0  0  0  0  0  0
  190.4310  179.2070  144.1040 O   0  0  0  0  0  1  0  0  0  0  0  0
  190.2280  177.1510  142.8520 C   0  0  1  0  0  3  0  0  0  0  0  0
  184.5670  179.4310  140.7300 O   0  0  0  0  0  0  0  0  0  0  0  0
  184.7380  179.0360  139.5470 C   0  0  0  0  0  0  0  0  0  0  0  0
  186.0130  178.4990  139.1250 N   0  0  0  0  0  0  0  0  0  0  0  0
  186.2390  178.2510  137.7020 C   0  0  0  0  0  2  0  0  0  0  0  0
  185.8190  176.8370  137.3470 C   0  0  0  0  0  1  0  0  0  0  0  0
  183.6000  179.1730  138.5850 C   0  0  0  0  0  2  0  0  0  0  0  0
  182.1080  180.9930  138.3240 O   0  0  0  0  0  1  0  0  0  0  0  0
  182.4560  179.9670  139.2050 C   0  0  1  0  0  3  0  0  0  0  0  0
  181.5580  177.6220  139.0880 C   0  0  0  0  0  2  0  0  0  0  0  0
  179.5600  177.9330  142.7640 O   0  0  0  0  0  1  0  0  0  0  0  0
  180.3100  176.7740  139.2820 C   0  0  0  0  0  2  0  0  0  0  0  0
  179.8480  176.8490  140.7040 C   0  0  0  0  0  3  0  0  0  0  0  0
  180.8240  179.1310  140.9720 C   0  0  1  0  0  3  0  0  0  0  0  0
  180.0430  177.9330  141.4620 C   0  0  0  0  0  0  0  0  0  0  0  0
  181.2450  179.0630  139.4880 C   0  0  1  0  0  3  0  0  0  0  0  0
  180.0780  180.2900  141.1960 O   0  0  0  0  0  1  0  0  0  0  0  0
  189.5000  177.6870  147.0340 N   0  0  0  0  0  2  0  0  0  0  0  0
  190.0580  176.5250  147.4560 O   0  0  0  0  0  0  0  0  0  0  0  0
  191.3850  176.8500  147.7500 C   0  0  0  0  0  2  0  0  0  0  0  0
  192.0970  175.4150  145.8030 N   0  0  0  0  0  1  0  0  0  0  0  0
  192.2930  175.8360  147.1490 C   0  0  0  0  0  0  0  0  0  0  0  0
  193.2110  175.3230  147.8400 O   0  0  0  0  0  0  0  0  0  0  0  0
  1  4  1  0  0  0  0
  2 15  1  6  0  0  0
  2  7  1  0  0  0  0
  3  5  2  0  0  0  0
  4 10  2  0  0  0  0
  4 16  1  0  0  0  0
  5 10  1  0  0  0  0
  6 13  1  0  0  0  0
  7  9  1  0  0  0  0
  8 12  1  0  0  0  0
  8  7  2  0  0  0  0
  9 13  2  0  0  0  0
  9 33  1  0  0  0  0
 10  8  1  0  0  0  0
 12  6  2  0  0  0  0
 14  3  1  0  0  0  0
 14  1  2  0  0  0  0
 16 11  1  6  0  0  0
 16  2  1  0  0  0  0
 18 17  2  0  0  0  0
 19 18  1  0  0  0  0
 19  3  1  0  0  0  0
 20 19  1  0  0  0  0
 21 20  1  0  0  0  0
 22 24  1  0  0  0  0
 22 18  1  0  0  0  0
 24 23  1  6  0  0  0
 25 27  1  0  0  0  0
 25 31  1  0  0  0  0
 27 28  1  0  0  0  0
 28 30  2  0  0  0  0
 29 32  1  6  0  0  0
 29 30  1  0  0  0  0
 30 26  1  0  0  0  0
 31 24  1  1  0  0  0
 31 29  1  0  0  0  0
 33 34  1  0  0  0  0
 34 35  1  0  0  0  0
 36 37  1  0  0  0  0
 37 35  1  0  0  0  0
 37 38  2  0  0  0  0
M  END
>  <MODEL>
2

>  <REMARK>
 VINA RESULT:      -8.9      2.534      4.521
  Name = 
  9 active torsions:
  status: ('A' for Active; 'I' for Inactive)
    1  A    between atoms: O_3  and  C_4
    2  A    between atoms: O_3  and  N_29
    3  A    between atoms: C_4  and  C_12
    4  A    between atoms: C_7  and  C_20
    5  A    between atoms: C_7  and  C_25
    6  A    between atoms: C_11  and  N_33
    7  A    between atoms: C_13  and  N_33
    8  A    between atoms: C_20  and  C_34
    9  A    between atoms: C_21  and  N_29
                            x       y       z     vdW  Elec       q    Type
                         _______ _______ _______ _____ _____    ______ ____

>  <TORSDO>
F 9

$$$$
=
 OpenBabel11062414363D

 38 41  0  0  1  0  0  0  0  0999 V2000
  183.4780  178.9130  144.8180 C   0  0  0  0  0  3  0  0  0  0  0  0
  187.1180  177.9480  145.2630 C   0  0  2  0  0  3  0  0  0  0  0  0
  182.8580  178.6210  142.4820 C   0  0  0  0  0  0  0  0  0  0  0  0
  184.8300  178.7090  144.5050 C   0  0  0  0  0  0  0  0  0  0  0  0
  184.2150  178.4590  142.1670 C   0  0  0  0  0  3  0  0  0  0  0  0
  188.4160  178.2570  141.1630 C   0  0  0  0  0  3  0  0  0  0  0  0
  187.5830  178.1190  143.8390 C   0  0  0  0  0  0  0  0  0  0  0  0
  186.6360  178.3320  142.8130 C   0  0  0  0  0  0  0  0  0  0  0  0
  188.9440  177.9680  143.5150 C   0  0  0  0  0  0  0  0  0  0  0  0
  185.2040  178.5040  143.1610 C   0  0  0  0  0  0  0  0  0  0  0  0
  185.4010  178.6090  146.9810 C   0  0  0  0  0  1  0  0  0  0  0  0
  187.0640  178.4000  141.4800 C   0  0  0  0  0  3  0  0  0  0  0  0
  189.3510  178.0420  142.1770 C   0  0  0  0  0  3  0  0  0  0  0  0
  182.5040  178.8610  143.8180 C   0  0  0  0  0  3  0  0  0  0  0  0
  186.8040  176.6030  145.4860 O   0  0  0  0  0  1  0  0  0  0  0  0
  185.9070  178.8450  145.5620 C   0  0  1  0  0  3  0  0  0  0  0  0
  182.8590  176.8710  140.2030 O   0  0  0  0  0  0  0  0  0  0  0  0
  181.9550  177.7440  140.2820 C   0  0  0  0  0  0  0  0  0  0  0  0
  181.8410  178.5840  141.4530 N   0  0  0  0  0  0  0  0  0  0  0  0
  180.6610  179.4330  141.6010 C   0  0  0  0  0  2  0  0  0  0  0  0
  179.5120  178.6310  142.1830 C   0  0  0  0  0  1  0  0  0  0  0  0
  180.9850  177.8610  139.1490 C   0  0  0  0  0  2  0  0  0  0  0  0
  181.1470  176.7480  137.0650 O   0  0  0  0  0  1  0  0  0  0  0  0
  181.7050  177.7920  137.8070 C   0  0  1  0  0  3  0  0  0  0  0  0
  180.4480  179.0420  136.0250 C   0  0  0  0  0  2  0  0  0  0  0  0
  180.5300  182.6590  138.1500 O   0  0  0  0  0  1  0  0  0  0  0  0
  180.4200  180.3300  135.2180 C   0  0  0  0  0  2  0  0  0  0  0  0
  180.2460  181.5080  136.1250 C   0  0  0  0  0  3  0  0  0  0  0  0
  181.3620  180.3060  138.0080 C   0  0  1  0  0  3  0  0  0  0  0  0
  180.7080  181.5170  137.3800 C   0  0  0  0  0  0  0  0  0  0  0  0
  181.5840  179.1210  137.0440 C   0  0  1  0  0  3  0  0  0  0  0  0
  182.5790  180.6840  138.5770 O   0  0  0  0  0  1  0  0  0  0  0  0
  189.9070  177.7200  144.5450 N   0  0  0  0  0  2  0  0  0  0  0  0
  190.3740  176.4750  144.8060 O   0  0  0  0  0  0  0  0  0  0  0  0
  191.5510  176.6760  145.5320 C   0  0  0  0  0  2  0  0  0  0  0  0
  192.3540  176.2720  147.8870 N   0  0  0  0  0  1  0  0  0  0  0  0
  191.2780  176.5020  146.9840 C   0  0  0  0  0  0  0  0  0  0  0  0
  190.0940  176.5230  147.4100 O   0  0  0  0  0  0  0  0  0  0  0  0
  2 15  1  6  0  0  0
  2 16  1  0  0  0  0
  3 14  1  0  0  0  0
  4  1  1  0  0  0  0
  4 16  1  0  0  0  0
  5  3  2  0  0  0  0
  5 10  1  0  0  0  0
  6 12  2  0  0  0  0
  6 13  1  0  0  0  0
  7  2  1  0  0  0  0
  8 10  1  0  0  0  0
  8  7  2  0  0  0  0
  9  7  1  0  0  0  0
  9 33  1  0  0  0  0
 10  4  2  0  0  0  0
 12  8  1  0  0  0  0
 13  9  2  0  0  0  0
 14  1  2  0  0  0  0
 16 11  1  1  0  0  0
 17 18  2  0  0  0  0
 18 19  1  0  0  0  0
 19 20  1  0  0  0  0
 19  3  1  0  0  0  0
 20 21  1  0  0  0  0
 22 18  1  0  0  0  0
 24 23  1  6  0  0  0
 24 22  1  0  0  0  0
 25 31  1  0  0  0  0
 27 25  1  0  0  0  0
 27 28  1  0  0  0  0
 28 30  2  0  0  0  0
 29 32  1  6  0  0  0
 30 29  1  0  0  0  0
 30 26  1  0  0  0  0
 31 24  1  1  0  0  0
 31 29  1  0  0  0  0
 33 34  1  0  0  0  0
 34 35  1  0  0  0  0
 35 37  1  0  0  0  0
 37 38  2  0  0  0  0
 37 36  1  0  0  0  0
M  END
>  <MODEL>
3

>  <REMARK>
 VINA RESULT:      -8.7      1.540      2.008
  Name = 
  9 active torsions:
  status: ('A' for Active; 'I' for Inactive)
    1  A    between atoms: O_3  and  C_4
    2  A    between atoms: O_3  and  N_29
    3  A    between atoms: C_4  and  C_12
    4  A    between atoms: C_7  and  C_20
    5  A    between atoms: C_7  and  C_25
    6  A    between atoms: C_11  and  N_33
    7  A    between atoms: C_13  and  N_33
    8  A    between atoms: C_20  and  C_34
    9  A    between atoms: C_21  and  N_29
                            x       y       z     vdW  Elec       q    Type
                         _______ _______ _______ _____ _____    ______ ____

>  <TORSDO>
F 9

$$$$
=
 OpenBabel11062414363D

 38 41  0  0  1  0  0  0  0  0999 V2000
  183.3360  178.8280  143.9370 C   0  0  0  0  0  3  0  0  0  0  0  0
  186.7650  177.9510  145.2950 C   0  0  2  0  0  3  0  0  0  0  0  0
  183.3030  178.4220  141.5370 C   0  0  0  0  0  0  0  0  0  0  0  0
  184.7240  178.6350  143.9710 C   0  0  0  0  0  0  0  0  0  0  0  0
  184.6970  178.2710  141.5680 C   0  0  0  0  0  3  0  0  0  0  0  0
  189.0170  178.1010  141.6230 C   0  0  0  0  0  3  0  0  0  0  0  0
  187.5610  178.0660  144.0210 C   0  0  0  0  0  0  0  0  0  0  0  0
  186.8890  178.2170  142.7870 C   0  0  0  0  0  0  0  0  0  0  0  0
  188.9600  177.9260  144.0430 C   0  0  0  0  0  0  0  0  0  0  0  0
  185.4140  178.3780  142.7690 C   0  0  0  0  0  0  0  0  0  0  0  0
  184.6770  178.6550  146.5130 C   0  0  0  0  0  1  0  0  0  0  0  0
  187.6280  178.2340  141.5950 C   0  0  0  0  0  3  0  0  0  0  0  0
  189.6790  177.9480  142.8420 C   0  0  0  0  0  3  0  0  0  0  0  0
  182.6330  178.7140  142.7350 C   0  0  0  0  0  3  0  0  0  0  0  0
  186.4150  176.6110  145.4990 O   0  0  0  0  0  1  0  0  0  0  0  0
  185.5110  178.8370  145.2500 C   0  0  1  0  0  3  0  0  0  0  0  0
  182.6300  175.9710  140.1960 O   0  0  0  0  0  0  0  0  0  0  0  0
  182.3480  177.0580  139.6260 C   0  0  0  0  0  0  0  0  0  0  0  0
  182.5670  178.3210  140.2950 N   0  0  0  0  0  0  0  0  0  0  0  0
  182.0340  179.5410  139.6930 C   0  0  0  0  0  2  0  0  0  0  0  0
  183.1020  180.2170  138.8540 C   0  0  0  0  0  1  0  0  0  0  0  0
  181.7470  177.0030  138.2560 C   0  0  0  0  0  2  0  0  0  0  0  0
  180.8250  175.2650  136.9390 O   0  0  0  0  0  1  0  0  0  0  0  0
  181.9890  175.6430  137.6110 C   0  0  1  0  0  3  0  0  0  0  0  0
  183.3320  177.1040  136.0690 C   0  0  0  0  0  2  0  0  0  0  0  0
  186.9810  175.3550  137.1790 O   0  0  0  0  0  1  0  0  0  0  0  0
  184.4500  177.0990  135.0370 C   0  0  0  0  0  2  0  0  0  0  0  0
  185.7290  176.6310  135.6600 C   0  0  0  0  0  3  0  0  0  0  0  0
  184.4890  175.2490  137.3280 C   0  0  1  0  0  3  0  0  0  0  0  0
  185.7530  175.7600  136.6740 C   0  0  0  0  0  0  0  0  0  0  0  0
  183.1800  175.6950  136.6410 C   0  0  1  0  0  3  0  0  0  0  0  0
  184.5340  173.8540  137.3920 O   0  0  0  0  0  1  0  0  0  0  0  0
  189.6460  177.7420  145.2870 N   0  0  0  0  0  2  0  0  0  0  0  0
  190.3850  176.6340  145.5410 O   0  0  0  0  0  0  0  0  0  0  0  0
  190.8700  176.8150  146.8390 C   0  0  0  0  0  2  0  0  0  0  0  0
  192.8150  176.0550  148.2510 N   0  0  0  0  0  1  0  0  0  0  0  0
  192.0430  175.9270  147.0620 C   0  0  0  0  0  0  0  0  0  0  0  0
  192.3740  175.0870  146.1850 O   0  0  0  0  0  0  0  0  0  0  0  0
  1  4  1  0  0  0  0
  2 15  1  6  0  0  0
  3  5  2  0  0  0  0
  3 14  1  0  0  0  0
  4 16  1  0  0  0  0
  5 10  1  0  0  0  0
  6 13  1  0  0  0  0
  7  9  1  0  0  0  0
  7  2  1  0  0  0  0
  8  7  2  0  0  0  0
  9 33  1  0  0  0  0
 10  8  1  0  0  0  0
 10  4  2  0  0  0  0
 12  6  2  0  0  0  0
 12  8  1  0  0  0  0
 13  9  2  0  0  0  0
 14  1  2  0  0  0  0
 16  2  1  0  0  0  0
 16 11  1  1  0  0  0
 18 17  2  0  0  0  0
 18 19  1  0  0  0  0
 19  3  1  0  0  0  0
 20 19  1  0  0  0  0
 21 20  1  0  0  0  0
 22 18  1  0  0  0  0
 24 23  1  6  0  0  0
 24 22  1  0  0  0  0
 25 31  1  0  0  0  0
 27 28  1  0  0  0  0
 27 25  1  0  0  0  0
 28 30  2  0  0  0  0
 29 32  1  6  0  0  0
 30 26  1  0  0  0  0
 30 29  1  0  0  0  0
 31 29  1  0  0  0  0
 31 24  1  1  0  0  0
 33 34  1  0  0  0  0
 34 35  1  0  0  0  0
 35 37  1  0  0  0  0
 37 36  1  0  0  0  0
 38 37  2  0  0  0  0
M  END
>  <MODEL>
4

>  <REMARK>
 VINA RESULT:      -8.5      2.871      4.218
  Name = 
  9 active torsions:
  status: ('A' for Active; 'I' for Inactive)
    1  A    between atoms: O_3  and  C_4
    2  A    between atoms: O_3  and  N_29
    3  A    between atoms: C_4  and  C_12
    4  A    between atoms: C_7  and  C_20
    5  A    between atoms: C_7  and  C_25
    6  A    between atoms: C_11  and  N_33
    7  A    between atoms: C_13  and  N_33
    8  A    between atoms: C_20  and  C_34
    9  A    between atoms: C_21  and  N_29
                            x       y       z     vdW  Elec       q    Type
                         _______ _______ _______ _____ _____    ______ ____

>  <TORSDO>
F 9

$$$$
=
 OpenBabel11062414363D

 38 41  0  0  1  0  0  0  0  0999 V2000
  189.6730  177.5320  140.5840 C   0  0  0  0  0  3  0  0  0  0  0  0
  190.1550  177.8090  144.3340 C   0  0  2  0  0  3  0  0  0  0  0  0
  187.3880  178.1600  140.0270 C   0  0  0  0  0  0  0  0  0  0  0  0
  189.3610  177.5320  141.9510 C   0  0  0  0  0  0  0  0  0  0  0  0
  187.0690  178.1180  141.3920 C   0  0  0  0  0  3  0  0  0  0  0  0
  186.0250  177.6990  145.5660 C   0  0  0  0  0  3  0  0  0  0  0  0
  188.7140  177.7060  144.7660 C   0  0  0  0  0  0  0  0  0  0  0  0
  187.6870  177.7630  143.7980 C   0  0  0  0  0  0  0  0  0  0  0  0
  188.3850  177.6540  146.1330 C   0  0  0  0  0  0  0  0  0  0  0  0
  188.0380  177.8040  142.3570 C   0  0  0  0  0  0  0  0  0  0  0  0
  191.8250  177.2820  142.5260 C   0  0  0  0  0  1  0  0  0  0  0  0
  186.3470  177.7580  144.2100 C   0  0  0  0  0  3  0  0  0  0  0  0
  187.0400  177.6470  146.5230 C   0  0  0  0  0  3  0  0  0  0  0  0
  188.6990  177.8510  139.6340 C   0  0  0  0  0  3  0  0  0  0  0  0
  190.5160  179.1580  144.2560 O   0  0  0  0  0  1  0  0  0  0  0  0
  190.3820  177.1070  142.9870 C   0  0  1  0  0  3  0  0  0  0  0  0
  184.9390  179.5780  140.5260 O   0  0  0  0  0  0  0  0  0  0  0  0
  185.1300  179.1070  139.3730 C   0  0  0  0  0  0  0  0  0  0  0  0
  186.3850  178.4750  139.0330 N   0  0  0  0  0  0  0  0  0  0  0  0
  186.6470  178.1330  137.6360 C   0  0  0  0  0  2  0  0  0  0  0  0
  186.3120  176.6750  137.3850 C   0  0  0  0  0  1  0  0  0  0  0  0
  184.0370  179.2530  138.3610 C   0  0  0  0  0  2  0  0  0  0  0  0
  182.0140  180.2640  139.0600 O   0  0  0  0  0  1  0  0  0  0  0  0
  182.6710  179.0330  139.0000 C   0  0  1  0  0  3  0  0  0  0  0  0
  182.7040  177.3710  137.1150 C   0  0  0  0  0  2  0  0  0  0  0  0
  180.2590  174.6340  139.1490 O   0  0  0  0  0  1  0  0  0  0  0  0
  181.8320  176.4500  136.2750 C   0  0  0  0  0  2  0  0  0  0  0  0
  181.1900  175.4110  137.1410 C   0  0  0  0  0  3  0  0  0  0  0  0
  181.2310  176.9370  139.1160 C   0  0  1  0  0  3  0  0  0  0  0  0
  180.8770  175.6410  138.4200 C   0  0  0  0  0  0  0  0  0  0  0  0
  181.8410  178.0170  138.1980 C   0  0  1  0  0  3  0  0  0  0  0  0
  180.0940  177.4440  139.7490 O   0  0  0  0  0  1  0  0  0  0  0  0
  189.4200  177.6270  147.1230 N   0  0  0  0  0  2  0  0  0  0  0  0
  190.0760  176.4850  147.4420 O   0  0  0  0  0  0  0  0  0  0  0  0
  191.3970  176.8800  147.6660 C   0  0  0  0  0  2  0  0  0  0  0  0
  192.1470  175.2220  145.9210 N   0  0  0  0  0  1  0  0  0  0  0  0
  192.3240  175.8110  147.2050 C   0  0  0  0  0  0  0  0  0  0  0  0
  193.2410  175.4020  147.9620 O   0  0  0  0  0  0  0  0  0  0  0  0
  1  4  1  0  0  0  0
  2 15  1  6  0  0  0
  2  7  1  0  0  0  0
  3  5  2  0  0  0  0
  4 10  2  0  0  0  0
  4 16  1  0  0  0  0
  5 10  1  0  0  0  0
  6 13  1  0  0  0  0
  7  9  1  0  0  0  0
  8 12  1  0  0  0  0
  8  7  2  0  0  0  0
  9 13  2  0  0  0  0
  9 33  1  0  0  0  0
 10  8  1  0  0  0  0
 12  6  2  0  0  0  0
 14  3  1  0  0  0  0
 14  1  2  0  0  0  0
 16 11  1  6  0  0  0
 16  2  1  0  0  0  0
 18 17  2  0  0  0  0
 19 18  1  0  0  0  0
 19  3  1  0  0  0  0
 20 19  1  0  0  0  0
 21 20  1  0  0  0  0
 22 24  1  0  0  0  0
 22 18  1  0  0  0  0
 24 23  1  6  0  0  0
 25 31  1  0  0  0  0
 27 25  1  0  0  0  0
 27 28  1  0  0  0  0
 28 30  2  0  0  0  0
 29 32  1  6  0  0  0
 30 29  1  0  0  0  0
 30 26  1  0  0  0  0
 31 24  1  1  0  0  0
 31 29  1  0  0  0  0
 33 34  1  0  0  0  0
 34 35  1  0  0  0  0
 36 37  1  0  0  0  0
 37 35  1  0  0  0  0
 37 38  2  0  0  0  0
M  END
>  <MODEL>
5

>  <REMARK>
 VINA RESULT:      -8.3      2.817      4.790
  Name = 
  9 active torsions:
  status: ('A' for Active; 'I' for Inactive)
    1  A    between atoms: O_3  and  C_4
    2  A    between atoms: O_3  and  N_29
    3  A    between atoms: C_4  and  C_12
    4  A    between atoms: C_7  and  C_20
    5  A    between atoms: C_7  and  C_25
    6  A    between atoms: C_11  and  N_33
    7  A    between atoms: C_13  and  N_33
    8  A    between atoms: C_20  and  C_34
    9  A    between atoms: C_21  and  N_29
                            x       y       z     vdW  Elec       q    Type
                         _______ _______ _______ _____ _____    ______ ____

>  <TORSDO>
F 9

$$$$
=
 OpenBabel11062414363D

 38 41  0  0  1  0  0  0  0  0999 V2000
  188.1550  177.9930  139.3690 C   0  0  0  0  0  3  0  0  0  0  0  0
  187.8480  178.0110  143.1480 C   0  0  2  0  0  3  0  0  0  0  0  0
  190.0760  176.6390  138.7340 C   0  0  0  0  0  0  0  0  0  0  0  0
  188.5360  177.9370  140.7170 C   0  0  0  0  0  0  0  0  0  0  0  0
  190.4760  176.6200  140.0780 C   0  0  0  0  0  3  0  0  0  0  0  0
  191.8620  176.8160  144.1690 C   0  0  0  0  0  3  0  0  0  0  0  0
  189.2690  177.6550  143.5030 C   0  0  0  0  0  0  0  0  0  0  0  0
  190.1590  177.2360  142.4890 C   0  0  0  0  0  0  0  0  0  0  0  0
  189.6830  177.6420  144.8470 C   0  0  0  0  0  0  0  0  0  0  0  0
  189.7230  177.2630  141.0710 C   0  0  0  0  0  0  0  0  0  0  0  0
  186.3260  178.9930  141.3990 C   0  0  0  0  0  1  0  0  0  0  0  0
  191.4530  176.8190  142.8350 C   0  0  0  0  0  3  0  0  0  0  0  0
  190.9800  177.2250  145.1700 C   0  0  0  0  0  3  0  0  0  0  0  0
  188.9120  177.3440  138.3910 C   0  0  0  0  0  3  0  0  0  0  0  0
  187.0670  176.8510  143.1570 O   0  0  0  0  0  1  0  0  0  0  0  0
  187.7740  178.7040  141.7790 C   0  0  1  0  0  3  0  0  0  0  0  0
  192.9390  176.3990  138.7270 O   0  0  0  0  0  0  0  0  0  0  0  0
  192.3050  175.9840  137.7210 C   0  0  0  0  0  0  0  0  0  0  0  0
  190.8590  175.9830  137.7100 N   0  0  0  0  0  0  0  0  0  0  0  0
  190.1620  175.3020  136.6200 C   0  0  0  0  0  2  0  0  0  0  0  0
  189.7900  173.8930  137.0400 C   0  0  0  0  0  1  0  0  0  0  0  0
  193.0880  175.4600  136.5590 C   0  0  0  0  0  2  0  0  0  0  0  0
  193.0500  173.2400  135.7380 O   0  0  0  0  0  1  0  0  0  0  0  0
  193.5190  174.0180  136.7990 C   0  0  1  0  0  3  0  0  0  0  0  0
  195.7200  174.9260  135.9930 C   0  0  0  0  0  2  0  0  0  0  0  0
  197.4950  174.6880  139.7880 O   0  0  0  0  0  1  0  0  0  0  0  0
  197.2260  174.7240  136.0510 C   0  0  0  0  0  2  0  0  0  0  0  0
  197.7150  174.8680  137.4590 C   0  0  0  0  0  3  0  0  0  0  0  0
  195.5200  174.1060  138.3710 C   0  0  1  0  0  3  0  0  0  0  0  0
  196.9580  174.5500  138.5140 C   0  0  0  0  0  0  0  0  0  0  0  0
  195.0480  173.9080  136.9140 C   0  0  1  0  0  3  0  0  0  0  0  0
  195.3280  172.9250  139.0910 O   0  0  0  0  0  1  0  0  0  0  0  0
  188.7760  178.0370  145.8840 N   0  0  0  0  0  2  0  0  0  0  0  0
  188.1580  177.1280  146.6780 O   0  0  0  0  0  0  0  0  0  0  0  0
  187.4470  177.8900  147.6090 C   0  0  0  0  0  2  0  0  0  0  0  0
  185.7630  179.7470  147.3410 N   0  0  0  0  0  1  0  0  0  0  0  0
  186.2300  178.4560  146.9670 C   0  0  0  0  0  0  0  0  0  0  0  0
  185.5910  177.7790  146.1200 O   0  0  0  0  0  0  0  0  0  0  0  0
  1  4  1  0  0  0  0
  2 15  1  6  0  0  0
  2  7  1  0  0  0  0
  3  5  2  0  0  0  0
  4 10  2  0  0  0  0
  4 16  1  0  0  0  0
  5 10  1  0  0  0  0
  6 13  1  0  0  0  0
  7  9  1  0  0  0  0
  8 12  1  0  0  0  0
  8  7  2  0  0  0  0
  9 13  2  0  0  0  0
  9 33  1  0  0  0  0
 10  8  1  0  0  0  0
 12  6  2  0  0  0  0
 14  3  1  0  0  0  0
 14  1  2  0  0  0  0
 16 11  1  6  0  0  0
 16  2  1  0  0  0  0
 18 17  2  0  0  0  0
 19 18  1  0  0  0  0
 19  3  1  0  0  0  0
 20 21  1  0  0  0  0
 20 19  1  0  0  0  0
 22 24  1  0  0  0  0
 22 18  1  0  0  0  0
 24 23  1  6  0  0  0
 25 27  1  0  0  0  0
 25 31  1  0  0  0  0
 27 28  1  0  0  0  0
 28 30  2  0  0  0  0
 29 30  1  0  0  0  0
 29 32  1  1  0  0  0
 30 26  1  0  0  0  0
 31 24  1  1  0  0  0
 31 29  1  0  0  0  0
 33 34  1  0  0  0  0
 34 35  1  0  0  0  0
 37 36  1  0  0  0  0
 37 35  1  0  0  0  0
 38 37  2  0  0  0  0
M  END
>  <MODEL>
6

>  <REMARK>
 VINA RESULT:      -8.3      5.623     10.281
  Name = 
  9 active torsions:
  status: ('A' for Active; 'I' for Inactive)
    1  A    between atoms: O_3  and  C_4
    2  A    between atoms: O_3  and  N_29
    3  A    between atoms: C_4  and  C_12
    4  A    between atoms: C_7  and  C_20
    5  A    between atoms: C_7  and  C_25
    6  A    between atoms: C_11  and  N_33
    7  A    between atoms: C_13  and  N_33
    8  A    between atoms: C_20  and  C_34
    9  A    between atoms: C_21  and  N_29
                            x       y       z     vdW  Elec       q    Type
                         _______ _______ _______ _____ _____    ______ ____

>  <TORSDO>
F 9

$$$$
=
 OpenBabel11062414363D

 38 41  0  0  1  0  0  0  0  0999 V2000
  189.4840  177.5100  140.6900 C   0  0  0  0  0  3  0  0  0  0  0  0
  190.1340  177.7480  144.4180 C   0  0  2  0  0  3  0  0  0  0  0  0
  187.2030  178.2260  140.2340 C   0  0  0  0  0  0  0  0  0  0  0  0
  189.2300  177.5140  142.0690 C   0  0  0  0  0  0  0  0  0  0  0  0
  186.9410  178.1880  141.6110 C   0  0  0  0  0  3  0  0  0  0  0  0
  186.0590  177.7840  145.8240 C   0  0  0  0  0  3  0  0  0  0  0  0
  188.7100  177.6970  144.9100 C   0  0  0  0  0  0  0  0  0  0  0  0
  187.6460  177.7970  143.9870 C   0  0  0  0  0  0  0  0  0  0  0  0
  188.4380  177.6490  146.2890 C   0  0  0  0  0  0  0  0  0  0  0  0
  187.9370  177.8330  142.5320 C   0  0  0  0  0  0  0  0  0  0  0  0
  191.7060  177.1690  142.5380 C   0  0  0  0  0  1  0  0  0  0  0  0
  186.3250  177.8390  144.4560 C   0  0  0  0  0  3  0  0  0  0  0  0
  187.1120  177.6900  146.7360 C   0  0  0  0  0  3  0  0  0  0  0  0
  188.4830  177.8700  139.7840 C   0  0  0  0  0  3  0  0  0  0  0  0
  190.5420  179.0830  144.3300 O   0  0  0  0  0  1  0  0  0  0  0  0
  190.2770  177.0460  143.0590 C   0  0  1  0  0  3  0  0  0  0  0  0
  184.8050  179.6840  140.8530 O   0  0  0  0  0  0  0  0  0  0  0  0
  184.9430  179.2340  139.6850 C   0  0  0  0  0  0  0  0  0  0  0  0
  186.1700  178.5840  139.2850 N   0  0  0  0  0  0  0  0  0  0  0  0
  186.3740  178.2670  137.8720 C   0  0  0  0  0  2  0  0  0  0  0  0
  185.9740  176.8290  137.5980 C   0  0  0  0  0  1  0  0  0  0  0  0
  183.8170  179.4250  138.7170 C   0  0  0  0  0  2  0  0  0  0  0  0
  183.2030  177.4530  139.8750 O   0  0  0  0  0  1  0  0  0  0  0  0
  182.7590  178.3420  138.8930 C   0  0  1  0  0  3  0  0  0  0  0  0
  181.3120  179.0860  140.8080 C   0  0  0  0  0  2  0  0  0  0  0  0
  179.8720  182.4450  138.7470 O   0  0  0  0  0  1  0  0  0  0  0  0
  179.9250  179.5930  141.1740 C   0  0  0  0  0  2  0  0  0  0  0  0
  179.6570  180.9030  140.5010 C   0  0  0  0  0  3  0  0  0  0  0  0
  181.1800  180.3200  138.6110 C   0  0  1  0  0  3  0  0  0  0  0  0
  180.1920  181.2200  139.3180 C   0  0  0  0  0  0  0  0  0  0  0  0
  181.4040  178.9500  139.2890 C   0  0  1  0  0  3  0  0  0  0  0  0
  180.7680  180.1290  137.2910 O   0  0  0  0  0  1  0  0  0  0  0  0
  189.5120  177.5780  147.2340 N   0  0  0  0  0  2  0  0  0  0  0  0
  190.2220  176.4390  147.4270 O   0  0  0  0  0  0  0  0  0  0  0  0
  191.5600  176.8310  147.3380 C   0  0  0  0  0  2  0  0  0  0  0  0
  192.3930  174.8770  145.9780 N   0  0  0  0  0  1  0  0  0  0  0  0
  192.4240  175.6280  147.1870 C   0  0  0  0  0  0  0  0  0  0  0  0
  193.1540  175.2530  148.1400 O   0  0  0  0  0  0  0  0  0  0  0  0
  1  4  1  0  0  0  0
  2 15  1  6  0  0  0
  2  7  1  0  0  0  0
  3  5  2  0  0  0  0
  4 10  2  0  0  0  0
  4 16  1  0  0  0  0
  5 10  1  0  0  0  0
  6 13  1  0  0  0  0
  7  9  1  0  0  0  0
  8 12  1  0  0  0  0
  8  7  2  0  0  0  0
  9 13  2  0  0  0  0
  9 33  1  0  0  0  0
 10  8  1  0  0  0  0
 12  6  2  0  0  0  0
 14  3  1  0  0  0  0
 14  1  2  0  0  0  0
 16 11  1  6  0  0  0
 16  2  1  0  0  0  0
 18 17  2  0  0  0  0
 19 18  1  0  0  0  0
 19  3  1  0  0  0  0
 20 19  1  0  0  0  0
 21 20  1  0  0  0  0
 22 24  1  0  0  0  0
 22 18  1  0  0  0  0
 24 23  1  1  0  0  0
 25 27  1  0  0  0  0
 26 30  1  0  0  0  0
 28 27  1  0  0  0  0
 29 32  1  6  0  0  0
 29 31  1  0  0  0  0
 29 30  1  0  0  0  0
 30 28  2  0  0  0  0
 31 24  1  1  0  0  0
 31 25  1  0  0  0  0
 33 34  1  0  0  0  0
 35 34  1  0  0  0  0
 36 37  1  0  0  0  0
 37 35  1  0  0  0  0
 37 38  2  0  0  0  0
M  END
>  <MODEL>
7

>  <REMARK>
 VINA RESULT:      -8.3      2.306      4.032
  Name = 
  9 active torsions:
  status: ('A' for Active; 'I' for Inactive)
    1  A    between atoms: O_3  and  C_4
    2  A    between atoms: O_3  and  N_29
    3  A    between atoms: C_4  and  C_12
    4  A    between atoms: C_7  and  C_20
    5  A    between atoms: C_7  and  C_25
    6  A    between atoms: C_11  and  N_33
    7  A    between atoms: C_13  and  N_33
    8  A    between atoms: C_20  and  C_34
    9  A    between atoms: C_21  and  N_29
                            x       y       z     vdW  Elec       q    Type
                         _______ _______ _______ _____ _____    ______ ____

>  <TORSDO>
F 9

$$$$
=
 OpenBabel11062414363D

 38 41  0  0  1  0  0  0  0  0999 V2000
  183.4610  179.0020  144.7300 C   0  0  0  0  0  3  0  0  0  0  0  0
  187.0640  177.9800  145.3220 C   0  0  2  0  0  3  0  0  0  0  0  0
  182.9020  178.6250  142.3910 C   0  0  0  0  0  0  0  0  0  0  0  0
  184.8160  178.7570  144.4670 C   0  0  0  0  0  0  0  0  0  0  0  0
  184.2630  178.4220  142.1230 C   0  0  0  0  0  3  0  0  0  0  0  0
  188.4850  178.0880  141.2540 C   0  0  0  0  0  3  0  0  0  0  0  0
  187.5740  178.0800  143.9070 C   0  0  0  0  0  0  0  0  0  0  0  0
  186.6610  178.2710  142.8460 C   0  0  0  0  0  0  0  0  0  0  0  0
  188.9390  177.8870  143.6300 C   0  0  0  0  0  0  0  0  0  0  0  0
  185.2240  178.4880  143.1440 C   0  0  0  0  0  0  0  0  0  0  0  0
  185.3130  178.7490  146.9600 C   0  0  0  0  0  1  0  0  0  0  0  0
  187.1290  178.2730  141.5240 C   0  0  0  0  0  3  0  0  0  0  0  0
  189.3860  177.8960  142.3030 C   0  0  0  0  0  3  0  0  0  0  0  0
  182.5150  178.9290  143.7060 C   0  0  0  0  0  3  0  0  0  0  0  0
  186.7140  176.6530  145.5920 O   0  0  0  0  0  1  0  0  0  0  0  0
  185.8650  178.9140  145.5480 C   0  0  1  0  0  3  0  0  0  0  0  0
  182.9130  176.7620  140.2040 O   0  0  0  0  0  0  0  0  0  0  0  0
  182.0350  177.6650  140.2120 C   0  0  0  0  0  0  0  0  0  0  0  0
  181.9140  178.5660  141.3350 N   0  0  0  0  0  0  0  0  0  0  0  0
  180.7570  179.4570  141.4050 C   0  0  0  0  0  2  0  0  0  0  0  0
  179.5900  178.7450  142.0600 C   0  0  0  0  0  1  0  0  0  0  0  0
  181.1020  177.7530  139.0450 C   0  0  0  0  0  2  0  0  0  0  0  0
  182.7160  179.3800  138.4490 O   0  0  0  0  0  1  0  0  0  0  0  0
  181.7250  178.5560  137.9090 C   0  0  1  0  0  3  0  0  0  0  0  0
  183.8290  177.4970  137.0320 C   0  0  0  0  0  2  0  0  0  0  0  0
  181.9380  173.8530  136.1720 O   0  0  0  0  0  1  0  0  0  0  0  0
  184.4020  176.6610  135.8990 C   0  0  0  0  0  2  0  0  0  0  0  0
  183.7460  175.3160  135.8640 C   0  0  0  0  0  3  0  0  0  0  0  0
  181.6500  176.2380  136.8580 C   0  0  1  0  0  3  0  0  0  0  0  0
  182.4830  175.1270  136.2600 C   0  0  0  0  0  0  0  0  0  0  0  0
  182.3190  177.6290  136.8360 C   0  0  1  0  0  3  0  0  0  0  0  0
  180.4200  176.2980  136.2000 O   0  0  0  0  0  1  0  0  0  0  0  0
  189.8670  177.6630  144.6980 N   0  0  0  0  0  2  0  0  0  0  0  0
  190.3830  176.4360  144.9530 O   0  0  0  0  0  0  0  0  0  0  0  0
  191.6010  176.6830  145.5910 C   0  0  0  0  0  2  0  0  0  0  0  0
  192.6050  175.9060  147.7690 N   0  0  0  0  0  1  0  0  0  0  0  0
  191.4770  176.3780  147.0420 C   0  0  0  0  0  0  0  0  0  0  0  0
  190.3660  176.5040  147.6200 O   0  0  0  0  0  0  0  0  0  0  0  0
  2 16  1  0  0  0  0
  2 15  1  6  0  0  0
  3 14  1  0  0  0  0
  4  1  1  0  0  0  0
  4 16  1  0  0  0  0
  5  3  2  0  0  0  0
  5 10  1  0  0  0  0
  6 12  2  0  0  0  0
  6 13  1  0  0  0  0
  7  2  1  0  0  0  0
  8 10  1  0  0  0  0
  8  7  2  0  0  0  0
  9  7  1  0  0  0  0
  9 33  1  0  0  0  0
 10  4  2  0  0  0  0
 12  8  1  0  0  0  0
 13  9  2  0  0  0  0
 14  1  2  0  0  0  0
 16 11  1  1  0  0  0
 17 18  2  0  0  0  0
 18 19  1  0  0  0  0
 19 20  1  0  0  0  0
 19  3  1  0  0  0  0
 20 21  1  0  0  0  0
 22 18  1  0  0  0  0
 24 23  1  1  0  0  0
 24 22  1  0  0  0  0
 26 30  1  0  0  0  0
 27 25  1  0  0  0  0
 28 27  1  0  0  0  0
 28 30  2  0  0  0  0
 29 32  1  6  0  0  0
 30 29  1  0  0  0  0
 31 29  1  0  0  0  0
 31 25  1  0  0  0  0
 31 24  1  1  0  0  0
 33 34  1  0  0  0  0
 34 35  1  0  0  0  0
 35 37  1  0  0  0  0
 37 38  2  0  0  0  0
 37 36  1  0  0  0  0
M  END
>  <MODEL>
8

>  <REMARK>
 VINA RESULT:      -8.2      2.406      3.887
  Name = 
  9 active torsions:
  status: ('A' for Active; 'I' for Inactive)
    1  A    between atoms: O_3  and  C_4
    2  A    between atoms: O_3  and  N_29
    3  A    between atoms: C_4  and  C_12
    4  A    between atoms: C_7  and  C_20
    5  A    between atoms: C_7  and  C_25
    6  A    between atoms: C_11  and  N_33
    7  A    between atoms: C_13  and  N_33
    8  A    between atoms: C_20  and  C_34
    9  A    between atoms: C_21  and  N_29
                            x       y       z     vdW  Elec       q    Type
                         _______ _______ _______ _____ _____    ______ ____

>  <TORSDO>
F 9

$$$$
=
 OpenBabel11062414363D

 38 41  0  0  1  0  0  0  0  0999 V2000
  186.8980  178.4180  140.5650 C   0  0  0  0  0  3  0  0  0  0  0  0
  187.3110  177.5360  144.2300 C   0  0  2  0  0  3  0  0  0  0  0  0
  188.9210  177.7940  139.3640 C   0  0  0  0  0  0  0  0  0  0  0  0
  187.5280  178.1750  141.7940 C   0  0  0  0  0  0  0  0  0  0  0  0
  189.5610  177.5930  140.5960 C   0  0  0  0  0  3  0  0  0  0  0  0
  191.6100  177.2610  144.3890 C   0  0  0  0  0  3  0  0  0  0  0  0
  188.8160  177.5030  144.2970 C   0  0  0  0  0  0  0  0  0  0  0  0
  189.5720  177.5660  143.1050 C   0  0  0  0  0  0  0  0  0  0  0  0
  189.4670  177.3110  145.5290 C   0  0  0  0  0  0  0  0  0  0  0  0
  188.8820  177.7820  141.8090 C   0  0  0  0  0  0  0  0  0  0  0  0
  185.3040  178.4310  143.0000 C   0  0  0  0  0  1  0  0  0  0  0  0
  190.9670  177.4440  143.1640 C   0  0  0  0  0  3  0  0  0  0  0  0
  190.8620  177.1950  145.5650 C   0  0  0  0  0  3  0  0  0  0  0  0
  187.5840  178.2210  139.3650 C   0  0  0  0  0  3  0  0  0  0  0  0
  186.8300  176.2360  144.0400 O   0  0  0  0  0  1  0  0  0  0  0  0
  186.8250  178.4630  143.1050 C   0  0  1  0  0  3  0  0  0  0  0  0
  190.7130  175.6280  138.7720 O   0  0  0  0  0  0  0  0  0  0  0  0
  190.5890  176.5470  137.9200 C   0  0  0  0  0  0  0  0  0  0  0  0
  189.6260  177.6080  138.1150 N   0  0  0  0  0  0  0  0  0  0  0  0
  189.3610  178.5320  137.0140 C   0  0  0  0  0  2  0  0  0  0  0  0
  188.3420  177.9330  136.0640 C   0  0  0  0  0  1  0  0  0  0  0  0
  191.4370  176.4880  136.6880 C   0  0  0  0  0  2  0  0  0  0  0  0
  190.9700  174.8840  135.0100 O   0  0  0  0  0  1  0  0  0  0  0  0
  191.6300  175.0470  136.2300 C   0  0  1  0  0  3  0  0  0  0  0  0
  193.9730  175.9520  136.3420 C   0  0  0  0  0  2  0  0  0  0  0  0
  195.4920  172.4920  138.1660 O   0  0  0  0  0  1  0  0  0  0  0  0
  195.4340  175.6110  136.0920 C   0  0  0  0  0  2  0  0  0  0  0  0
  195.8600  174.4780  136.9720 C   0  0  0  0  0  3  0  0  0  0  0  0
  193.5370  173.5660  137.0390 C   0  0  1  0  0  3  0  0  0  0  0  0
  195.0120  173.5240  137.3710 C   0  0  0  0  0  0  0  0  0  0  0  0
  193.1230  174.7080  136.0850 C   0  0  1  0  0  3  0  0  0  0  0  0
  193.1520  172.3380  136.4970 O   0  0  0  0  0  1  0  0  0  0  0  0
  188.7070  177.2160  146.7390 N   0  0  0  0  0  2  0  0  0  0  0  0
  188.1170  178.2990  147.3010 O   0  0  0  0  0  0  0  0  0  0  0  0
  186.8360  177.8680  147.6540 C   0  0  0  0  0  2  0  0  0  0  0  0
  184.6800  178.6270  146.5900 N   0  0  0  0  0  1  0  0  0  0  0  0
  185.8460  178.9360  147.3450 C   0  0  0  0  0  0  0  0  0  0  0  0
  186.0570  180.1180  147.7200 O   0  0  0  0  0  0  0  0  0  0  0  0
  1  4  1  0  0  0  0
  2 15  1  6  0  0  0
  2  7  1  0  0  0  0
  3 14  1  0  0  0  0
  3  5  2  0  0  0  0
  4 10  2  0  0  0  0
  4 16  1  0  0  0  0
  5 10  1  0  0  0  0
  6 13  1  0  0  0  0
  7  9  1  0  0  0  0
  8 12  1  0  0  0  0
  8  7  2  0  0  0  0
  9 13  2  0  0  0  0
  9 33  1  0  0  0  0
 10  8  1  0  0  0  0
 12  6  2  0  0  0  0
 14  1  2  0  0  0  0
 16 11  1  6  0  0  0
 16  2  1  0  0  0  0
 18 19  1  0  0  0  0
 18 17  2  0  0  0  0
 19  3  1  0  0  0  0
 20 19  1  0  0  0  0
 21 20  1  0  0  0  0
 22 18  1  0  0  0  0
 24 23  1  6  0  0  0
 24 22  1  0  0  0  0
 27 25  1  0  0  0  0
 27 28  1  0  0  0  0
 28 30  2  0  0  0  0
 29 32  1  6  0  0  0
 29 30  1  0  0  0  0
 30 26  1  0  0  0  0
 31 24  1  1  0  0  0
 31 25  1  0  0  0  0
 31 29  1  0  0  0  0
 33 34  1  0  0  0  0
 34 35  1  0  0  0  0
 36 37  1  0  0  0  0
 37 35  1  0  0  0  0
 37 38  2  0  0  0  0
M  END
>  <MODEL>
9

>  <REMARK>
 VINA RESULT:      -7.7      5.356      9.271
  Name = 
  9 active torsions:
  status: ('A' for Active; 'I' for Inactive)
    1  A    between atoms: O_3  and  C_4
    2  A    between atoms: O_3  and  N_29
    3  A    between atoms: C_4  and  C_12
    4  A    between atoms: C_7  and  C_20
    5  A    between atoms: C_7  and  C_25
    6  A    between atoms: C_11  and  N_33
    7  A    between atoms: C_13  and  N_33
    8  A    between atoms: C_20  and  C_34
    9  A    between atoms: C_21  and  N_29
                            x       y       z     vdW  Elec       q    Type
                         _______ _______ _______ _____ _____    ______ ____

>  <TORSDO>
F 9

$$$$
