=
 OpenBabel11062414383D

 38 41  0  0  1  0  0  0  0  0999 V2000
  190.0920  176.9900  140.9440 C   0  0  0  0  0  3  0  0  0  0  0  0
  189.1160  176.5940  141.7460 C   0  0  0  0  0  3  0  0  0  0  0  0
  189.5280  177.9350  138.5450 C   0  0  0  0  0  0  0  0  0  0  0  0
  189.7810  177.5060  139.6420 C   0  0  0  0  0  0  0  0  0  0  0  0
  189.2300  178.4530  137.2060 C   0  0  2  0  0  3  0  0  0  0  0  0
  188.0120  179.1400  137.2250 O   0  0  0  0  0  1  0  0  0  0  0  0
  188.4400  176.1370  136.6700 C   0  0  0  0  0  0  0  0  0  0  0  0
  190.6370  175.3610  136.3230 N   0  0  0  0  0  0  0  0  0  0  0  0
  189.3380  175.0160  136.7520 C   0  0  0  0  0  0  0  0  0  0  0  0
  189.2160  177.3180  136.1740 C   0  0  2  0  0  3  0  0  0  0  0  0
  187.1330  176.0870  136.9440 C   0  0  0  0  0  3  0  0  0  0  0  0
  190.6380  176.7610  135.9110 C   0  0  0  0  0  3  0  0  0  0  0  0
  189.0250  173.8640  137.1520 O   0  0  0  0  0  0  0  0  0  0  0  0
  185.2330  177.2450  137.8710 N   0  0  0  0  0  0  0  0  0  0  0  0
  184.0280  177.1210  135.9450 N   0  0  0  0  0  0  0  0  0  0  0  0
  186.2240  177.2680  136.8070 C   0  0  2  0  0  3  0  0  0  0  0  0
  184.0560  177.1730  137.3580 C   0  0  0  0  0  0  0  0  0  0  0  0
  182.8240  177.1280  138.1890 C   0  0  0  0  0  1  0  0  0  0  0  0
  185.4120  177.1740  135.5100 C   0  0  0  0  0  3  0  0  0  0  0  0
  189.4110  176.0550  143.1070 C   0  0  1  0  0  3  0  0  0  0  0  0
  190.7950  175.9450  143.2700 O   0  0  0  0  0  1  0  0  0  0  0  0
  189.7150  177.0850  145.2510 O   0  0  0  0  0  1  0  0  0  0  0  0
  188.8370  176.9880  144.1690 C   0  0  2  0  0  3  0  0  0  0  0  0
  187.4930  176.4690  144.6610 C   0  0  0  0  0  2  0  0  0  0  0  0
  186.1230  179.2600  146.9470 C   0  0  0  0  0  2  0  0  0  0  0  0
  183.3980  178.7930  142.1240 C   0  0  0  0  0  2  0  0  0  0  0  0
  186.8660  178.0490  146.4320 C   0  0  0  0  0  3  0  0  0  0  0  0
  183.2570  178.9340  144.6640 C   0  0  0  0  0  3  0  0  0  0  0  0
  182.8150  178.2240  143.4170 C   0  0  0  0  0  2  0  0  0  0  0  0
  184.8760  179.1930  142.1840 C   0  0  1  0  0  3  0  0  0  0  0  0
  184.5140  178.8780  145.1150 C   0  0  0  0  0  0  0  0  0  0  0  0
  185.6080  178.2160  144.3650 C   0  0  0  0  0  0  0  0  0  0  0  0
  186.6590  177.5910  145.1900 C   0  0  0  0  0  0  0  0  0  0  0  0
  184.7990  179.3340  146.4070 O   0  0  0  0  0  0  0  0  0  0  0  0
  185.7490  178.3160  143.0370 C   0  0  0  0  0  3  0  0  0  0  0  0
  186.6290  178.9540  140.5890 O   0  0  0  0  0  1  0  0  0  0  0  0
  184.6480  179.7680  139.7600 O   0  0  0  0  0  0  0  0  0  0  0  0
  185.4350  179.2960  140.8060 C   0  0  0  0  0  0  0  0  0  0  0  0
  1  2  2  0  0  0  0
  2 20  1  0  0  0  0
  3  4  3  0  0  0  0
  4  1  1  0  0  0  0
  5  6  1  1  0  0  0
  5  3  1  0  0  0  0
  7  9  1  0  0  0  0
  7 11  2  0  0  0  0
  8  9  1  0  0  0  0
  9 13  2  0  0  0  0
 10  7  1  0  0  0  0
 10  5  1  1  0  0  0
 12 10  1  0  0  0  0
 12  8  2  0  0  0  0
 15 17  1  0  0  0  0
 16 11  1  1  0  0  0
 16 14  1  0  0  0  0
 17 14  2  0  0  0  0
 17 18  1  0  0  0  0
 19 15  2  0  0  0  0
 19 16  1  0  0  0  0
 20 21  1  1  0  0  0
 20 23  1  0  0  0  0
 23 24  1  0  0  0  0
 23 22  1  1  0  0  0
 24 33  1  0  0  0  0
 26 30  1  0  0  0  0
 26 29  1  0  0  0  0
 27 25  1  0  0  0  0
 28 31  2  0  0  0  0
 29 28  1  0  0  0  0
 30 38  1  6  0  0  0
 30 35  1  0  0  0  0
 31 34  1  0  0  0  0
 32 31  1  0  0  0  0
 32 33  1  0  0  0  0
 33 27  2  0  0  0  0
 34 25  1  0  0  0  0
 35 32  2  0  0  0  0
 36 38  1  0  0  0  0
 37 38  2  0  0  0  0
M  END
>  <MODEL>
1

>  <REMARK>
 VINA RESULT:      -8.6      0.000      0.000
  Name = 
  9 active torsions:
  status: ('A' for Active; 'I' for Inactive)
    1  A    between atoms: C_7  and  C_20
    2  A    between atoms: C_7  and  C_21
    3  A    between atoms: C_9  and  C_30
    4  A    between atoms: C_11  and  C_13
    5  A    between atoms: C_11  and  C_35
    6  A    between atoms: C_13  and  C_23
    7  A    between atoms: C_14  and  C_29
    8  A    between atoms: C_17  and  C_23
    9  A    between atoms: C_24  and  C_31
                            x       y       z     vdW  Elec       q    Type
                         _______ _______ _______ _____ _____    ______ ____

>  <TORSDO>
F 9

$$$$
=
 OpenBabel11062414383D

 38 41  0  0  1  0  0  0  0  0999 V2000
  183.5630  178.6660  143.5680 C   0  0  0  0  0  3  0  0  0  0  0  0
  184.5400  179.0540  144.3720 C   0  0  0  0  0  3  0  0  0  0  0  0
  183.9040  178.7570  140.9520 C   0  0  0  0  0  0  0  0  0  0  0  0
  183.7480  178.7100  142.1460 C   0  0  0  0  0  0  0  0  0  0  0  0
  184.0940  178.8270  139.4990 C   0  0  2  0  0  3  0  0  0  0  0  0
  183.6710  180.0730  139.0270 O   0  0  0  0  0  1  0  0  0  0  0  0
  183.6990  177.6170  137.3430 C   0  0  0  0  0  0  0  0  0  0  0  0
  181.3780  178.0080  137.4330 N   0  0  0  0  0  0  0  0  0  0  0  0
  182.4940  177.8340  136.5870 C   0  0  0  0  0  0  0  0  0  0  0  0
  183.3530  177.6820  138.7980 C   0  0  2  0  0  3  0  0  0  0  0  0
  184.8950  177.3530  136.8070 C   0  0  0  0  0  3  0  0  0  0  0  0
  181.8170  177.8900  138.8200 C   0  0  0  0  0  3  0  0  0  0  0  0
  182.4200  177.8660  135.3310 O   0  0  0  0  0  0  0  0  0  0  0  0
  186.9010  178.3150  137.7350 N   0  0  0  0  0  0  0  0  0  0  0  0
  188.2740  176.8260  136.6980 N   0  0  0  0  0  0  0  0  0  0  0  0
  186.1170  177.0940  137.6290 C   0  0  2  0  0  3  0  0  0  0  0  0
  188.0650  178.1210  137.2250 C   0  0  0  0  0  0  0  0  0  0  0  0
  189.1020  179.1860  137.1770 C   0  0  0  0  0  1  0  0  0  0  0  0
  187.0400  176.0940  136.9210 C   0  0  0  0  0  3  0  0  0  0  0  0
  184.3760  179.0160  145.8560 C   0  0  1  0  0  3  0  0  0  0  0  0
  183.5060  177.9760  146.1970 O   0  0  0  0  0  1  0  0  0  0  0  0
  186.0060  179.8390  147.4100 O   0  0  0  0  0  1  0  0  0  0  0  0
  185.7310  178.7970  146.5210 C   0  0  2  0  0  3  0  0  0  0  0  0
  186.8330  178.7320  145.4720 C   0  0  0  0  0  2  0  0  0  0  0  0
  188.9540  176.3130  147.6030 C   0  0  0  0  0  2  0  0  0  0  0  0
  191.4160  177.8470  142.8600 C   0  0  0  0  0  2  0  0  0  0  0  0
  187.8930  177.2900  147.1520 C   0  0  0  0  0  3  0  0  0  0  0  0
  191.5990  177.5920  145.3890 C   0  0  0  0  0  3  0  0  0  0  0  0
  191.8150  178.4760  144.1950 C   0  0  0  0  0  2  0  0  0  0  0  0
  190.1160  177.0360  142.8720 C   0  0  1  0  0  3  0  0  0  0  0  0
  190.3800  177.2560  145.8230 C   0  0  0  0  0  0  0  0  0  0  0  0
  189.1400  177.6220  145.0980 C   0  0  0  0  0  0  0  0  0  0  0  0
  187.9560  177.8650  145.9440 C   0  0  0  0  0  0  0  0  0  0  0  0
  190.2420  176.6570  147.0800 O   0  0  0  0  0  0  0  0  0  0  0  0
  189.0300  177.5700  143.7640 C   0  0  0  0  0  3  0  0  0  0  0  0
  190.3190  176.2780  140.6240 O   0  0  0  0  0  0  0  0  0  0  0  0
  188.3500  177.3460  141.1290 O   0  0  0  0  0  1  0  0  0  0  0  0
  189.6060  176.8640  141.4830 C   0  0  0  0  0  0  0  0  0  0  0  0
  1  2  2  0  0  0  0
  2 20  1  0  0  0  0
  3  4  3  0  0  0  0
  4  1  1  0  0  0  0
  5  6  1  6  0  0  0
  5  3  1  0  0  0  0
  7 10  1  0  0  0  0
  8 12  2  0  0  0  0
  9  7  1  0  0  0  0
  9  8  1  0  0  0  0
 10 12  1  0  0  0  0
 10  5  1  6  0  0  0
 11  7  2  0  0  0  0
 13  9  2  0  0  0  0
 15 19  2  0  0  0  0
 15 17  1  0  0  0  0
 16 11  1  6  0  0  0
 16 14  1  0  0  0  0
 17 14  2  0  0  0  0
 18 17  1  0  0  0  0
 19 16  1  0  0  0  0
 20 21  1  6  0  0  0
 20 23  1  0  0  0  0
 23 22  1  1  0  0  0
 24 33  1  0  0  0  0
 24 23  1  0  0  0  0
 26 30  1  0  0  0  0
 26 29  1  0  0  0  0
 27 25  1  0  0  0  0
 28 31  2  0  0  0  0
 29 28  1  0  0  0  0
 30 38  1  6  0  0  0
 30 35  1  0  0  0  0
 31 34  1  0  0  0  0
 32 31  1  0  0  0  0
 32 33  1  0  0  0  0
 33 27  2  0  0  0  0
 34 25  1  0  0  0  0
 35 32  2  0  0  0  0
 36 38  2  0  0  0  0
 37 38  1  0  0  0  0
M  END
>  <MODEL>
2

>  <REMARK>
 VINA RESULT:      -8.4      1.937      5.813
  Name = 
  9 active torsions:
  status: ('A' for Active; 'I' for Inactive)
    1  A    between atoms: C_7  and  C_20
    2  A    between atoms: C_7  and  C_21
    3  A    between atoms: C_9  and  C_30
    4  A    between atoms: C_11  and  C_13
    5  A    between atoms: C_11  and  C_35
    6  A    between atoms: C_13  and  C_23
    7  A    between atoms: C_14  and  C_29
    8  A    between atoms: C_17  and  C_23
    9  A    between atoms: C_24  and  C_31
                            x       y       z     vdW  Elec       q    Type
                         _______ _______ _______ _____ _____    ______ ____

>  <TORSDO>
F 9

$$$$
=
 OpenBabel11062414383D

 38 41  0  0  1  0  0  0  0  0999 V2000
  188.3840  178.4700  140.0510 C   0  0  0  0  0  3  0  0  0  0  0  0
  188.9040  177.4390  139.4050 C   0  0  0  0  0  3  0  0  0  0  0  0
  186.8680  178.0540  142.1730 C   0  0  0  0  0  0  0  0  0  0  0  0
  187.5630  178.2480  141.2070 C   0  0  0  0  0  0  0  0  0  0  0  0
  186.0180  177.8090  143.3420 C   0  0  2  0  0  3  0  0  0  0  0  0
  184.6740  177.8150  142.9570 O   0  0  0  0  0  1  0  0  0  0  0  0
  187.0580  178.2470  145.5770 C   0  0  0  0  0  0  0  0  0  0  0  0
  185.0150  178.9750  146.4970 N   0  0  0  0  0  0  0  0  0  0  0  0
  186.2460  178.3380  146.7610 C   0  0  0  0  0  0  0  0  0  0  0  0
  186.2900  178.8450  144.4400 C   0  0  2  0  0  3  0  0  0  0  0  0
  188.3010  177.7560  145.5420 C   0  0  0  0  0  3  0  0  0  0  0  0
  184.9780  179.3550  145.0880 C   0  0  0  0  0  3  0  0  0  0  0  0
  186.5740  177.9130  147.9010 O   0  0  0  0  0  0  0  0  0  0  0  0
  189.7300  176.3990  144.1550 N   0  0  0  0  0  0  0  0  0  0  0  0
  191.4890  177.8340  144.3020 N   0  0  0  0  0  0  0  0  0  0  0  0
  189.1280  177.7160  144.2970 C   0  0  2  0  0  3  0  0  0  0  0  0
  191.0110  176.5120  144.1550 C   0  0  0  0  0  0  0  0  0  0  0  0
  191.9150  175.3380  144.0290 C   0  0  0  0  0  1  0  0  0  0  0  0
  190.3140  178.6810  144.4060 C   0  0  0  0  0  3  0  0  0  0  0  0
  189.7640  177.6400  138.2010 C   0  0  1  0  0  3  0  0  0  0  0  0
  191.0520  177.1650  138.4690 O   0  0  0  0  0  1  0  0  0  0  0  0
  189.9940  177.0410  135.8910 O   0  0  0  0  0  1  0  0  0  0  0  0
  189.1730  176.8910  137.0110 C   0  0  2  0  0  3  0  0  0  0  0  0
  187.7830  177.4230  136.6860 C   0  0  0  0  0  2  0  0  0  0  0  0
  186.1160  173.9590  137.0280 C   0  0  0  0  0  2  0  0  0  0  0  0
  182.5720  178.2040  137.6000 C   0  0  0  0  0  2  0  0  0  0  0  0
  187.1020  175.0650  136.7300 C   0  0  0  0  0  3  0  0  0  0  0  0
  183.1020  175.9900  136.4560 C   0  0  0  0  0  3  0  0  0  0  0  0
  182.6490  177.4120  136.2950 C   0  0  0  0  0  2  0  0  0  0  0  0
  183.7210  177.9710  138.5850 C   0  0  1  0  0  3  0  0  0  0  0  0
  184.3490  175.6700  136.8150 C   0  0  0  0  0  0  0  0  0  0  0  0
  185.3590  176.6830  137.2030 C   0  0  0  0  0  0  0  0  0  0  0  0
  186.7560  176.3520  136.8680 C   0  0  0  0  0  0  0  0  0  0  0  0
  184.7780  174.3430  136.6910 O   0  0  0  0  0  0  0  0  0  0  0  0
  185.0710  177.7480  137.9640 C   0  0  0  0  0  3  0  0  0  0  0  0
  184.6790  179.9660  139.4660 O   0  0  0  0  0  0  0  0  0  0  0  0
  182.8610  179.1570  140.6120 O   0  0  0  0  0  1  0  0  0  0  0  0
  183.7840  179.0850  139.5730 C   0  0  0  0  0  0  0  0  0  0  0  0
  1  4  1  0  0  0  0
  2  1  2  0  0  0  0
  3  5  1  0  0  0  0
  4  3  3  0  0  0  0
  5  6  1  6  0  0  0
  7  9  1  0  0  0  0
  8  9  1  0  0  0  0
  9 13  2  0  0  0  0
 10  5  1  6  0  0  0
 10 12  1  0  0  0  0
 10  7  1  0  0  0  0
 11  7  2  0  0  0  0
 12  8  2  0  0  0  0
 14 16  1  0  0  0  0
 15 19  2  0  0  0  0
 16 19  1  0  0  0  0
 16 11  1  1  0  0  0
 17 14  2  0  0  0  0
 17 15  1  0  0  0  0
 18 17  1  0  0  0  0
 20 21  1  1  0  0  0
 20  2  1  0  0  0  0
 23 22  1  6  0  0  0
 23 20  1  0  0  0  0
 24 33  1  0  0  0  0
 24 23  1  0  0  0  0
 26 30  1  0  0  0  0
 27 33  2  0  0  0  0
 27 25  1  0  0  0  0
 28 31  2  0  0  0  0
 29 28  1  0  0  0  0
 29 26  1  0  0  0  0
 30 38  1  1  0  0  0
 31 32  1  0  0  0  0
 32 35  2  0  0  0  0
 33 32  1  0  0  0  0
 34 31  1  0  0  0  0
 34 25  1  0  0  0  0
 35 30  1  0  0  0  0
 36 38  2  0  0  0  0
 38 37  1  0  0  0  0
M  END
>  <MODEL>
3

>  <REMARK>
 VINA RESULT:      -8.4      3.125      8.099
  Name = 
  9 active torsions:
  status: ('A' for Active; 'I' for Inactive)
    1  A    between atoms: C_7  and  C_20
    2  A    between atoms: C_7  and  C_21
    3  A    between atoms: C_9  and  C_30
    4  A    between atoms: C_11  and  C_13
    5  A    between atoms: C_11  and  C_35
    6  A    between atoms: C_13  and  C_23
    7  A    between atoms: C_14  and  C_29
    8  A    between atoms: C_17  and  C_23
    9  A    between atoms: C_24  and  C_31
                            x       y       z     vdW  Elec       q    Type
                         _______ _______ _______ _____ _____    ______ ____

>  <TORSDO>
F 9

$$$$
=
 OpenBabel11062414383D

 38 41  0  0  1  0  0  0  0  0999 V2000
  182.6740  178.9790  144.2220 C   0  0  0  0  0  3  0  0  0  0  0  0
  182.0360  178.9640  143.0640 C   0  0  0  0  0  3  0  0  0  0  0  0
  185.2280  178.3160  144.3140 C   0  0  0  0  0  0  0  0  0  0  0  0
  184.0620  178.6170  144.2780 C   0  0  0  0  0  0  0  0  0  0  0  0
  186.6480  177.9520  144.3470 C   0  0  2  0  0  3  0  0  0  0  0  0
  186.7820  176.5640  144.2540 O   0  0  0  0  0  1  0  0  0  0  0  0
  188.5850  177.7560  145.9230 C   0  0  0  0  0  0  0  0  0  0  0  0
  187.1720  177.4090  147.7750 N   0  0  0  0  0  0  0  0  0  0  0  0
  188.4300  177.1210  147.2040 C   0  0  0  0  0  0  0  0  0  0  0  0
  187.3210  178.4960  145.6140 C   0  0  2  0  0  3  0  0  0  0  0  0
  189.6980  177.7160  145.1840 C   0  0  0  0  0  3  0  0  0  0  0  0
  186.4370  178.2870  146.8700 C   0  0  0  0  0  3  0  0  0  0  0  0
  189.2940  176.3970  147.7660 O   0  0  0  0  0  0  0  0  0  0  0  0
  189.5220  177.5050  142.7900 N   0  0  0  0  0  0  0  0  0  0  0  0
  191.6790  178.1300  142.4250 N   0  0  0  0  0  0  0  0  0  0  0  0
  189.8340  178.4240  143.8730 C   0  0  2  0  0  3  0  0  0  0  0  0
  190.5480  177.3820  142.0250 C   0  0  0  0  0  0  0  0  0  0  0  0
  190.5470  176.5040  140.8240 C   0  0  0  0  0  1  0  0  0  0  0  0
  191.2910  178.8370  143.6320 C   0  0  0  0  0  3  0  0  0  0  0  0
  180.5920  179.3380  142.9760 C   0  0  1  0  0  3  0  0  0  0  0  0
  180.4830  180.7230  142.8200 O   0  0  0  0  0  1  0  0  0  0  0  0
  178.9330  177.7760  142.2310 O   0  0  0  0  0  1  0  0  0  0  0  0
  179.9450  178.6310  141.7890 C   0  0  2  0  0  3  0  0  0  0  0  0
  180.9830  177.8220  141.0230 C   0  0  0  0  0  2  0  0  0  0  0  0
  180.1660  179.5070  137.6490 C   0  0  0  0  0  2  0  0  0  0  0  0
  185.2450  177.2530  137.8430 C   0  0  0  0  0  2  0  0  0  0  0  0
  180.0430  178.8920  139.0240 C   0  0  0  0  0  3  0  0  0  0  0  0
  183.0370  177.4650  136.5880 C   0  0  0  0  0  3  0  0  0  0  0  0
  184.0960  176.5450  137.1250 C   0  0  0  0  0  2  0  0  0  0  0  0
  184.8410  178.4190  138.7510 C   0  0  1  0  0  3  0  0  0  0  0  0
  182.2170  178.1580  137.3840 C   0  0  0  0  0  0  0  0  0  0  0  0
  182.3550  178.1780  138.8590 C   0  0  0  0  0  0  0  0  0  0  0  0
  181.0960  178.3130  139.6160 C   0  0  0  0  0  0  0  0  0  0  0  0
  181.0940  178.7840  136.8310 O   0  0  0  0  0  0  0  0  0  0  0  0
  183.5400  178.2480  139.4820 C   0  0  0  0  0  3  0  0  0  0  0  0
  185.6660  179.2470  140.8260 O   0  0  0  0  0  1  0  0  0  0  0  0
  187.2600  178.4340  139.3860 O   0  0  0  0  0  0  0  0  0  0  0  0
  185.9380  178.7230  139.7120 C   0  0  0  0  0  0  0  0  0  0  0  0
  1  4  1  0  0  0  0
  2  1  2  0  0  0  0
  3  5  1  0  0  0  0
  4  3  3  0  0  0  0
  5  6  1  1  0  0  0
  7  9  1  0  0  0  0
  9 13  2  0  0  0  0
  9  8  1  0  0  0  0
 10  5  1  6  0  0  0
 10  7  1  0  0  0  0
 10 12  1  0  0  0  0
 11  7  2  0  0  0  0
 12  8  2  0  0  0  0
 14 16  1  0  0  0  0
 15 19  2  0  0  0  0
 16 11  1  1  0  0  0
 17 15  1  0  0  0  0
 17 14  2  0  0  0  0
 18 17  1  0  0  0  0
 19 16  1  0  0  0  0
 20 21  1  6  0  0  0
 20  2  1  0  0  0  0
 23 22  1  1  0  0  0
 23 20  1  0  0  0  0
 24 23  1  0  0  0  0
 25 27  1  0  0  0  0
 26 30  1  0  0  0  0
 27 33  2  0  0  0  0
 28 29  1  0  0  0  0
 28 31  2  0  0  0  0
 29 26  1  0  0  0  0
 30 35  1  0  0  0  0
 30 38  1  1  0  0  0
 31 32  1  0  0  0  0
 32 35  2  0  0  0  0
 32 33  1  0  0  0  0
 33 24  1  0  0  0  0
 34 31  1  0  0  0  0
 34 25  1  0  0  0  0
 37 38  2  0  0  0  0
 38 36  1  0  0  0  0
M  END
>  <MODEL>
4

>  <REMARK>
 VINA RESULT:      -8.4      3.269      8.488
  Name = 
  9 active torsions:
  status: ('A' for Active; 'I' for Inactive)
    1  A    between atoms: C_7  and  C_20
    2  A    between atoms: C_7  and  C_21
    3  A    between atoms: C_9  and  C_30
    4  A    between atoms: C_11  and  C_13
    5  A    between atoms: C_11  and  C_35
    6  A    between atoms: C_13  and  C_23
    7  A    between atoms: C_14  and  C_29
    8  A    between atoms: C_17  and  C_23
    9  A    between atoms: C_24  and  C_31
                            x       y       z     vdW  Elec       q    Type
                         _______ _______ _______ _____ _____    ______ ____

>  <TORSDO>
F 9

$$$$
=
 OpenBabel11062414383D

 38 41  0  0  1  0  0  0  0  0999 V2000
  183.5570  178.6960  142.8440 C   0  0  0  0  0  3  0  0  0  0  0  0
  184.6210  178.5100  143.6080 C   0  0  0  0  0  3  0  0  0  0  0  0
  183.4190  177.5430  140.4730 C   0  0  0  0  0  0  0  0  0  0  0  0
  183.4860  178.0720  141.5540 C   0  0  0  0  0  0  0  0  0  0  0  0
  183.3300  176.8910  139.1630 C   0  0  2  0  0  3  0  0  0  0  0  0
  183.0230  177.8390  138.1830 O   0  0  0  0  0  1  0  0  0  0  0  0
  182.1450  175.1260  137.8390 C   0  0  0  0  0  0  0  0  0  0  0  0
  180.0260  176.0030  138.3780 N   0  0  0  0  0  0  0  0  0  0  0  0
  180.7870  175.3180  137.4060 C   0  0  0  0  0  0  0  0  0  0  0  0
  182.2970  175.7570  139.1880 C   0  0  2  0  0  3  0  0  0  0  0  0
  183.0720  174.4480  137.1560 C   0  0  0  0  0  3  0  0  0  0  0  0
  180.8780  176.2780  139.5300 C   0  0  0  0  0  3  0  0  0  0  0  0
  180.3130  174.9310  136.3050 O   0  0  0  0  0  0  0  0  0  0  0  0
  185.3960  175.0140  136.8570 N   0  0  0  0  0  0  0  0  0  0  0  0
  186.0410  172.8510  136.5710 N   0  0  0  0  0  0  0  0  0  0  0  0
  184.4650  174.2360  137.6590 C   0  0  2  0  0  3  0  0  0  0  0  0
  186.2380  174.2230  136.2920 C   0  0  0  0  0  0  0  0  0  0  0  0
  187.3200  174.7150  135.3990 C   0  0  0  0  0  1  0  0  0  0  0  0
  184.8940  172.7780  137.4580 C   0  0  0  0  0  3  0  0  0  0  0  0
  184.7210  179.1450  144.9560 C   0  0  1  0  0  3  0  0  0  0  0  0
  183.4340  179.3670  145.4570 O   0  0  0  0  0  1  0  0  0  0  0  0
  184.7090  177.9130  147.0130 O   0  0  0  0  0  1  0  0  0  0  0  0
  185.4940  178.2320  145.9030 C   0  0  2  0  0  3  0  0  0  0  0  0
  186.7720  178.9150  146.3730 C   0  0  0  0  0  2  0  0  0  0  0  0
  189.0150  176.0780  147.7200 C   0  0  0  0  0  2  0  0  0  0  0  0
  190.7290  178.1560  142.8570 C   0  0  0  0  0  2  0  0  0  0  0  0
  187.9800  177.1740  147.6130 C   0  0  0  0  0  3  0  0  0  0  0  0
  191.3310  177.5130  145.2480 C   0  0  0  0  0  3  0  0  0  0  0  0
  191.4100  178.5520  144.1670 C   0  0  0  0  0  2  0  0  0  0  0  0
  189.3860  177.4340  143.0000 C   0  0  1  0  0  3  0  0  0  0  0  0
  190.1820  177.1910  145.8510 C   0  0  0  0  0  0  0  0  0  0  0  0
  188.8710  177.7360  145.4280 C   0  0  0  0  0  0  0  0  0  0  0  0
  187.8800  177.9200  146.5040 C   0  0  0  0  0  0  0  0  0  0  0  0
  190.2160  176.4180  147.0180 O   0  0  0  0  0  0  0  0  0  0  0  0
  188.5240  177.8910  144.1430 C   0  0  0  0  0  3  0  0  0  0  0  0
  187.5200  178.1050  141.6810 O   0  0  0  0  0  1  0  0  0  0  0  0
  189.1330  176.9090  140.5680 O   0  0  0  0  0  0  0  0  0  0  0  0
  188.6270  177.5040  141.7200 C   0  0  0  0  0  0  0  0  0  0  0  0
  1  2  2  0  0  0  0
  2 20  1  0  0  0  0
  3  4  3  0  0  0  0
  4  1  1  0  0  0  0
  5  6  1  6  0  0  0
  5  3  1  0  0  0  0
  7 10  1  0  0  0  0
  8 12  2  0  0  0  0
  9  7  1  0  0  0  0
  9  8  1  0  0  0  0
 10  5  1  6  0  0  0
 10 12  1  0  0  0  0
 11  7  2  0  0  0  0
 13  9  2  0  0  0  0
 14 16  1  0  0  0  0
 15 19  2  0  0  0  0
 16 11  1  6  0  0  0
 17 15  1  0  0  0  0
 17 14  2  0  0  0  0
 18 17  1  0  0  0  0
 19 16  1  0  0  0  0
 20 21  1  1  0  0  0
 20 23  1  0  0  0  0
 23 24  1  0  0  0  0
 23 22  1  1  0  0  0
 24 33  1  0  0  0  0
 26 30  1  0  0  0  0
 26 29  1  0  0  0  0
 27 25  1  0  0  0  0
 28 31  2  0  0  0  0
 29 28  1  0  0  0  0
 30 38  1  6  0  0  0
 30 35  1  0  0  0  0
 31 34  1  0  0  0  0
 32 31  1  0  0  0  0
 32 33  1  0  0  0  0
 33 27  2  0  0  0  0
 34 25  1  0  0  0  0
 35 32  2  0  0  0  0
 36 38  1  0  0  0  0
 37 38  2  0  0  0  0
M  END
>  <MODEL>
5

>  <REMARK>
 VINA RESULT:      -8.2      2.613      6.045
  Name = 
  9 active torsions:
  status: ('A' for Active; 'I' for Inactive)
    1  A    between atoms: C_7  and  C_20
    2  A    between atoms: C_7  and  C_21
    3  A    between atoms: C_9  and  C_30
    4  A    between atoms: C_11  and  C_13
    5  A    between atoms: C_11  and  C_35
    6  A    between atoms: C_13  and  C_23
    7  A    between atoms: C_14  and  C_29
    8  A    between atoms: C_17  and  C_23
    9  A    between atoms: C_24  and  C_31
                            x       y       z     vdW  Elec       q    Type
                         _______ _______ _______ _____ _____    ______ ____

>  <TORSDO>
F 9

$$$$
=
 OpenBabel11062414383D

 38 41  0  0  1  0  0  0  0  0999 V2000
  187.2900  177.5860  137.8170 C   0  0  0  0  0  3  0  0  0  0  0  0
  188.1730  177.3020  138.7610 C   0  0  0  0  0  3  0  0  0  0  0  0
  184.7280  177.7560  138.4350 C   0  0  0  0  0  0  0  0  0  0  0  0
  185.8960  177.6780  138.1480 C   0  0  0  0  0  0  0  0  0  0  0  0
  183.3110  177.8520  138.7960 C   0  0  2  0  0  3  0  0  0  0  0  0
  182.8420  176.6000  139.2040 O   0  0  0  0  0  1  0  0  0  0  0  0
  181.0170  178.2700  137.8810 C   0  0  0  0  0  0  0  0  0  0  0  0
  181.4510  177.0020  135.9440 N   0  0  0  0  0  0  0  0  0  0  0  0
  180.4640  177.4170  136.8640 C   0  0  0  0  0  0  0  0  0  0  0  0
  182.4870  178.4050  137.6270 C   0  0  2  0  0  3  0  0  0  0  0  0
  180.3060  178.8670  138.8420 C   0  0  0  0  0  3  0  0  0  0  0  0
  182.7260  177.6020  136.3230 C   0  0  0  0  0  3  0  0  0  0  0  0
  179.2560  177.0710  136.7830 O   0  0  0  0  0  0  0  0  0  0  0  0
  180.9130  179.1290  141.1600 N   0  0  0  0  0  0  0  0  0  0  0  0
  179.6400  180.9940  141.4390 N   0  0  0  0  0  0  0  0  0  0  0  0
  180.9140  179.7800  139.8590 C   0  0  2  0  0  3  0  0  0  0  0  0
  180.2180  179.8260  141.9870 C   0  0  0  0  0  0  0  0  0  0  0  0
  180.0230  179.4200  143.4050 C   0  0  0  0  0  1  0  0  0  0  0  0
  180.0470  181.0320  140.0460 C   0  0  0  0  0  3  0  0  0  0  0  0
  189.6290  177.2020  138.4460 C   0  0  1  0  0  3  0  0  0  0  0  0
  189.9540  178.1420  137.4630 O   0  0  0  0  0  1  0  0  0  0  0  0
  191.7790  177.0850  139.5010 O   0  0  0  0  0  1  0  0  0  0  0  0
  190.4500  177.4650  139.7040 C   0  0  2  0  0  3  0  0  0  0  0  0
  189.8820  176.6840  140.8820 C   0  0  0  0  0  2  0  0  0  0  0  0
  191.2430  178.8800  143.7480 C   0  0  0  0  0  2  0  0  0  0  0  0
  185.8180  177.7460  144.1920 C   0  0  0  0  0  2  0  0  0  0  0  0
  191.1490  177.9590  142.5540 C   0  0  0  0  0  3  0  0  0  0  0  0
  188.1050  177.7730  145.3170 C   0  0  0  0  0  3  0  0  0  0  0  0
  186.8520  176.9960  145.0330 C   0  0  0  0  0  2  0  0  0  0  0  0
  186.3810  178.5670  143.0270 C   0  0  1  0  0  3  0  0  0  0  0  0
  188.9890  178.0830  144.3640 C   0  0  0  0  0  0  0  0  0  0  0  0
  188.7580  177.7960  142.9290 C   0  0  0  0  0  0  0  0  0  0  0  0
  189.9640  177.4920  142.1360 C   0  0  0  0  0  0  0  0  0  0  0  0
  190.2490  178.5690  144.7320 O   0  0  0  0  0  0  0  0  0  0  0  0
  187.5710  177.9690  142.3300 C   0  0  0  0  0  3  0  0  0  0  0  0
  185.5210  179.6850  141.1080 O   0  0  0  0  0  0  0  0  0  0  0  0
  184.0600  178.2540  142.1530 O   0  0  0  0  0  1  0  0  0  0  0  0
  185.3030  178.8680  142.0440 C   0  0  0  0  0  0  0  0  0  0  0  0
  1  4  1  0  0  0  0
  1  2  2  0  0  0  0
  3  5  1  0  0  0  0
  4  3  3  0  0  0  0
  5  6  1  6  0  0  0
  7 11  2  0  0  0  0
  8 12  2  0  0  0  0
  8  9  1  0  0  0  0
  9  7  1  0  0  0  0
 10  7  1  0  0  0  0
 10  5  1  1  0  0  0
 12 10  1  0  0  0  0
 13  9  2  0  0  0  0
 14 17  2  0  0  0  0
 15 17  1  0  0  0  0
 16 11  1  6  0  0  0
 16 19  1  0  0  0  0
 16 14  1  0  0  0  0
 17 18  1  0  0  0  0
 19 15  2  0  0  0  0
 20 21  1  6  0  0  0
 20  2  1  0  0  0  0
 20 23  1  0  0  0  0
 23 22  1  6  0  0  0
 23 24  1  0  0  0  0
 24 33  1  0  0  0  0
 25 34  1  0  0  0  0
 26 29  1  0  0  0  0
 27 25  1  0  0  0  0
 29 28  1  0  0  0  0
 30 38  1  6  0  0  0
 30 26  1  0  0  0  0
 31 34  1  0  0  0  0
 31 28  2  0  0  0  0
 32 31  1  0  0  0  0
 33 27  2  0  0  0  0
 33 32  1  0  0  0  0
 35 32  2  0  0  0  0
 35 30  1  0  0  0  0
 36 38  2  0  0  0  0
 38 37  1  0  0  0  0
M  END
>  <MODEL>
6

>  <REMARK>
 VINA RESULT:      -8.1      2.851      5.887
  Name = 
  9 active torsions:
  status: ('A' for Active; 'I' for Inactive)
    1  A    between atoms: C_7  and  C_20
    2  A    between atoms: C_7  and  C_21
    3  A    between atoms: C_9  and  C_30
    4  A    between atoms: C_11  and  C_13
    5  A    between atoms: C_11  and  C_35
    6  A    between atoms: C_13  and  C_23
    7  A    between atoms: C_14  and  C_29
    8  A    between atoms: C_17  and  C_23
    9  A    between atoms: C_24  and  C_31
                            x       y       z     vdW  Elec       q    Type
                         _______ _______ _______ _____ _____    ______ ____

>  <TORSDO>
F 9

$$$$
=
 OpenBabel11062414383D

 38 41  0  0  1  0  0  0  0  0999 V2000
  185.9870  177.9080  137.0020 C   0  0  0  0  0  3  0  0  0  0  0  0
  185.4150  177.9390  138.1940 C   0  0  0  0  0  3  0  0  0  0  0  0
  188.5210  177.2020  136.7710 C   0  0  0  0  0  0  0  0  0  0  0  0
  187.3650  177.5260  136.8810 C   0  0  0  0  0  0  0  0  0  0  0  0
  189.9240  176.8020  136.6270 C   0  0  2  0  0  3  0  0  0  0  0  0
  190.2640  176.7490  135.2710 O   0  0  0  0  0  1  0  0  0  0  0  0
  191.5570  175.4040  137.9120 C   0  0  0  0  0  0  0  0  0  0  0  0
  191.4720  173.6670  136.3240 N   0  0  0  0  0  0  0  0  0  0  0  0
  192.2760  174.3360  137.2700 C   0  0  0  0  0  0  0  0  0  0  0  0
  190.1820  175.4600  137.3210 C   0  0  2  0  0  3  0  0  0  0  0  0
  192.0430  176.1630  138.8990 C   0  0  0  0  0  3  0  0  0  0  0  0
  190.1460  174.2770  136.3200 C   0  0  0  0  0  3  0  0  0  0  0  0
  193.4710  174.0190  137.5090 O   0  0  0  0  0  0  0  0  0  0  0  0
  191.9570  177.7040  140.7500 N   0  0  0  0  0  0  0  0  0  0  0  0
  189.9840  176.8870  141.5340 N   0  0  0  0  0  0  0  0  0  0  0  0
  191.2480  177.2390  139.5680 C   0  0  2  0  0  3  0  0  0  0  0  0
  191.2310  177.5010  141.7920 C   0  0  0  0  0  0  0  0  0  0  0  0
  191.6810  177.8670  143.1610 C   0  0  0  0  0  1  0  0  0  0  0  0
  189.9230  176.6790  140.0990 C   0  0  0  0  0  3  0  0  0  0  0  0
  183.9820  178.3300  138.3490 C   0  0  1  0  0  3  0  0  0  0  0  0
  183.2270  177.1980  138.6730 O   0  0  0  0  0  1  0  0  0  0  0  0
  184.1800  180.6390  138.9620 O   0  0  0  0  0  1  0  0  0  0  0  0
  183.8460  179.3750  139.4520 C   0  0  2  0  0  3  0  0  0  0  0  0
  184.7620  179.0350  140.6210 C   0  0  0  0  0  2  0  0  0  0  0  0
  181.8010  178.1710  142.9400 C   0  0  0  0  0  2  0  0  0  0  0  0
  186.6870  178.4560  145.5770 C   0  0  0  0  0  2  0  0  0  0  0  0
  182.6250  178.6160  141.7540 C   0  0  0  0  0  3  0  0  0  0  0  0
  184.2470  179.1880  145.4920 C   0  0  0  0  0  3  0  0  0  0  0  0
  185.6810  179.6040  145.6550 C   0  0  0  0  0  2  0  0  0  0  0  0
  186.4090  177.4040  144.4980 C   0  0  1  0  0  3  0  0  0  0  0  0
  183.7590  178.7350  144.3330 C   0  0  0  0  0  0  0  0  0  0  0  0
  184.6080  178.4880  143.1450 C   0  0  0  0  0  0  0  0  0  0  0  0
  183.9590  178.7120  141.8390 C   0  0  0  0  0  0  0  0  0  0  0  0
  182.3730  178.6160  144.1750 O   0  0  0  0  0  0  0  0  0  0  0  0
  185.8240  177.9300  143.2180 C   0  0  0  0  0  3  0  0  0  0  0  0
  187.6730  175.8270  143.2380 O   0  0  0  0  0  0  0  0  0  0  0  0
  188.7640  176.7530  145.0340 O   0  0  0  0  0  1  0  0  0  0  0  0
  187.6440  176.6190  144.2190 C   0  0  0  0  0  0  0  0  0  0  0  0
  1  2  2  0  0  0  0
  2 20  1  0  0  0  0
  3  4  3  0  0  0  0
  4  1  1  0  0  0  0
  5  6  1  6  0  0  0
  5  3  1  0  0  0  0
  7 11  2  0  0  0  0
  8  9  1  0  0  0  0
  9 13  2  0  0  0  0
  9  7  1  0  0  0  0
 10  5  1  6  0  0  0
 10  7  1  0  0  0  0
 12  8  2  0  0  0  0
 12 10  1  0  0  0  0
 14 17  2  0  0  0  0
 15 17  1  0  0  0  0
 16 11  1  1  0  0  0
 16 19  1  0  0  0  0
 16 14  1  0  0  0  0
 17 18  1  0  0  0  0
 19 15  2  0  0  0  0
 20 21  1  1  0  0  0
 20 23  1  0  0  0  0
 23 22  1  6  0  0  0
 23 24  1  0  0  0  0
 24 33  1  0  0  0  0
 25 34  1  0  0  0  0
 26 29  1  0  0  0  0
 27 33  2  0  0  0  0
 27 25  1  0  0  0  0
 28 29  1  0  0  0  0
 30 38  1  6  0  0  0
 30 26  1  0  0  0  0
 31 28  2  0  0  0  0
 32 35  2  0  0  0  0
 32 31  1  0  0  0  0
 33 32  1  0  0  0  0
 34 31  1  0  0  0  0
 35 30  1  0  0  0  0
 36 38  2  0  0  0  0
 38 37  1  0  0  0  0
M  END
>  <MODEL>
7

>  <REMARK>
 VINA RESULT:      -8.1      2.352      5.412
  Name = 
  9 active torsions:
  status: ('A' for Active; 'I' for Inactive)
    1  A    between atoms: C_7  and  C_20
    2  A    between atoms: C_7  and  C_21
    3  A    between atoms: C_9  and  C_30
    4  A    between atoms: C_11  and  C_13
    5  A    between atoms: C_11  and  C_35
    6  A    between atoms: C_13  and  C_23
    7  A    between atoms: C_14  and  C_29
    8  A    between atoms: C_17  and  C_23
    9  A    between atoms: C_24  and  C_31
                            x       y       z     vdW  Elec       q    Type
                         _______ _______ _______ _____ _____    ______ ____

>  <TORSDO>
F 9

$$$$
=
 OpenBabel11062414383D

 38 41  0  0  1  0  0  0  0  0999 V2000
  191.2380  176.7710  139.4000 C   0  0  0  0  0  3  0  0  0  0  0  0
  192.4720  176.7340  138.9230 C   0  0  0  0  0  3  0  0  0  0  0  0
  190.8230  177.5030  141.9030 C   0  0  0  0  0  0  0  0  0  0  0  0
  191.0100  177.1640  140.7610 C   0  0  0  0  0  0  0  0  0  0  0  0
  190.6030  177.9250  143.2890 C   0  0  2  0  0  3  0  0  0  0  0  0
  191.6800  178.7040  143.7230 O   0  0  0  0  0  1  0  0  0  0  0  0
  190.0500  177.1280  145.5980 C   0  0  0  0  0  0  0  0  0  0  0  0
  192.0550  175.9030  145.7640 N   0  0  0  0  0  0  0  0  0  0  0  0
  191.0800  176.6360  146.4730 C   0  0  0  0  0  0  0  0  0  0  0  0
  190.3880  176.7100  144.2010 C   0  0  2  0  0  3  0  0  0  0  0  0
  188.9640  177.7930  146.0010 C   0  0  0  0  0  3  0  0  0  0  0  0
  191.6810  175.8690  144.3530 C   0  0  0  0  0  3  0  0  0  0  0  0
  191.1260  176.8210  147.7180 O   0  0  0  0  0  0  0  0  0  0  0  0
  186.8210  178.8810  145.8190 N   0  0  0  0  0  0  0  0  0  0  0  0
  185.8440  177.1130  144.7720 N   0  0  0  0  0  0  0  0  0  0  0  0
  187.8940  178.2540  145.0630 C   0  0  2  0  0  3  0  0  0  0  0  0
  185.7260  178.2350  145.6250 C   0  0  0  0  0  0  0  0  0  0  0  0
  184.4430  178.6280  146.2650 C   0  0  0  0  0  1  0  0  0  0  0  0
  187.2370  177.0560  144.3660 C   0  0  0  0  0  3  0  0  0  0  0  0
  192.7380  176.3310  137.5100 C   0  0  1  0  0  3  0  0  0  0  0  0
  194.1160  176.1770  137.3260 O   0  0  0  0  0  1  0  0  0  0  0  0
  192.9540  174.0340  136.8590 O   0  0  0  0  0  1  0  0  0  0  0  0
  192.0250  175.0180  137.2030 C   0  0  2  0  0  3  0  0  0  0  0  0
  191.0430  175.2020  136.0540 C   0  0  0  0  0  2  0  0  0  0  0  0
  188.2800  172.6330  136.8670 C   0  0  0  0  0  2  0  0  0  0  0  0
  186.5310  177.9090  137.0130 C   0  0  0  0  0  2  0  0  0  0  0  0
  189.5720  173.2690  136.4070 C   0  0  0  0  0  3  0  0  0  0  0  0
  186.1550  175.5470  136.1350 C   0  0  0  0  0  3  0  0  0  0  0  0
  186.2280  177.0110  135.8140 C   0  0  0  0  0  2  0  0  0  0  0  0
  187.5890  177.3790  137.9870 C   0  0  1  0  0  3  0  0  0  0  0  0
  187.2290  174.8360  136.4950 C   0  0  0  0  0  0  0  0  0  0  0  0
  188.5580  175.4490  136.7270 C   0  0  0  0  0  0  0  0  0  0  0  0
  189.7180  174.6010  136.3950 C   0  0  0  0  0  0  0  0  0  0  0  0
  187.1460  173.4390  136.5230 O   0  0  0  0  0  0  0  0  0  0  0  0
  188.7230  176.6190  137.3590 C   0  0  0  0  0  3  0  0  0  0  0  0
  187.7030  178.6280  140.0120 O   0  0  0  0  0  1  0  0  0  0  0  0
  189.0550  179.3780  138.3140 O   0  0  0  0  0  0  0  0  0  0  0  0
  188.1140  178.4910  138.8280 C   0  0  0  0  0  0  0  0  0  0  0  0
  1  4  1  0  0  0  0
  2  1  2  0  0  0  0
  3  5  1  0  0  0  0
  4  3  3  0  0  0  0
  5  6  1  1  0  0  0
  7 11  2  0  0  0  0
  7  9  1  0  0  0  0
  8  9  1  0  0  0  0
  9 13  2  0  0  0  0
 10  5  1  6  0  0  0
 10 12  1  0  0  0  0
 10  7  1  0  0  0  0
 12  8  2  0  0  0  0
 15 17  1  0  0  0  0
 16 14  1  0  0  0  0
 16 11  1  1  0  0  0
 17 14  2  0  0  0  0
 17 18  1  0  0  0  0
 19 15  2  0  0  0  0
 19 16  1  0  0  0  0
 20 21  1  1  0  0  0
 20  2  1  0  0  0  0
 23 22  1  6  0  0  0
 23 20  1  0  0  0  0
 24 33  1  0  0  0  0
 24 23  1  0  0  0  0
 26 30  1  0  0  0  0
 27 25  1  0  0  0  0
 28 31  2  0  0  0  0
 29 28  1  0  0  0  0
 29 26  1  0  0  0  0
 30 38  1  6  0  0  0
 31 34  1  0  0  0  0
 31 32  1  0  0  0  0
 32 35  2  0  0  0  0
 33 27  2  0  0  0  0
 33 32  1  0  0  0  0
 34 25  1  0  0  0  0
 35 30  1  0  0  0  0
 37 38  2  0  0  0  0
 38 36  1  0  0  0  0
M  END
>  <MODEL>
8

>  <REMARK>
 VINA RESULT:      -8.0      3.354      8.162
  Name = 
  9 active torsions:
  status: ('A' for Active; 'I' for Inactive)
    1  A    between atoms: C_7  and  C_20
    2  A    between atoms: C_7  and  C_21
    3  A    between atoms: C_9  and  C_30
    4  A    between atoms: C_11  and  C_13
    5  A    between atoms: C_11  and  C_35
    6  A    between atoms: C_13  and  C_23
    7  A    between atoms: C_14  and  C_29
    8  A    between atoms: C_17  and  C_23
    9  A    between atoms: C_24  and  C_31
                            x       y       z     vdW  Elec       q    Type
                         _______ _______ _______ _____ _____    ______ ____

>  <TORSDO>
F 9

$$$$
=
 OpenBabel11062414383D

 38 41  0  0  1  0  0  0  0  0999 V2000
  184.6520  179.1660  142.6510 C   0  0  0  0  0  3  0  0  0  0  0  0
  184.4670  178.6280  141.4560 C   0  0  0  0  0  3  0  0  0  0  0  0
  186.0590  177.8770  144.4760 C   0  0  0  0  0  0  0  0  0  0  0  0
  185.4140  178.4610  143.6420 C   0  0  0  0  0  0  0  0  0  0  0  0
  186.8500  177.1780  145.4930 C   0  0  2  0  0  3  0  0  0  0  0  0
  186.0690  176.9630  146.6330 O   0  0  0  0  0  1  0  0  0  0  0  0
  189.3510  177.1290  145.6160 C   0  0  0  0  0  0  0  0  0  0  0  0
  189.3500  177.6970  147.9020 N   0  0  0  0  0  0  0  0  0  0  0  0
  190.0230  176.9940  146.8800 C   0  0  0  0  0  0  0  0  0  0  0  0
  188.1250  177.9620  145.8270 C   0  0  2  0  0  3  0  0  0  0  0  0
  189.7980  176.6300  144.4590 C   0  0  0  0  0  3  0  0  0  0  0  0
  188.1820  178.3570  147.3250 C   0  0  0  0  0  3  0  0  0  0  0  0
  191.0810  176.3390  147.0740 O   0  0  0  0  0  0  0  0  0  0  0  0
  189.7730  176.0800  142.1130 N   0  0  0  0  0  0  0  0  0  0  0  0
  189.8840  178.2530  141.4480 N   0  0  0  0  0  0  0  0  0  0  0  0
  189.0880  176.8260  143.1570 C   0  0  2  0  0  3  0  0  0  0  0  0
  190.1800  176.8930  141.2030 C   0  0  0  0  0  0  0  0  0  0  0  0
  190.9230  176.4350  139.9990 C   0  0  0  0  0  1  0  0  0  0  0  0
  189.1730  178.2920  142.7130 C   0  0  0  0  0  3  0  0  0  0  0  0
  183.6800  179.3400  140.4060 C   0  0  1  0  0  3  0  0  0  0  0  0
  184.5550  179.8660  139.4510 O   0  0  0  0  0  1  0  0  0  0  0  0
  181.7290  177.9690  140.6500 O   0  0  0  0  0  1  0  0  0  0  0  0
  182.7090  178.3700  139.7400 C   0  0  2  0  0  3  0  0  0  0  0  0
  183.4520  177.1410  139.2310 C   0  0  0  0  0  2  0  0  0  0  0  0
  182.5090  177.5030  135.5070 C   0  0  0  0  0  2  0  0  0  0  0  0
  187.8510  176.2050  136.3370 C   0  0  0  0  0  2  0  0  0  0  0  0
  182.4320  177.3560  137.0090 C   0  0  0  0  0  3  0  0  0  0  0  0
  185.6770  175.6730  135.1190 C   0  0  0  0  0  3  0  0  0  0  0  0
  186.8390  175.1430  135.9080 C   0  0  0  0  0  2  0  0  0  0  0  0
  187.2540  177.5290  136.8240 C   0  0  1  0  0  3  0  0  0  0  0  0
  184.7400  176.4580  135.6600 C   0  0  0  0  0  0  0  0  0  0  0  0
  184.8270  176.9740  137.0470 C   0  0  0  0  0  0  0  0  0  0  0  0
  183.5380  177.1610  137.7390 C   0  0  0  0  0  0  0  0  0  0  0  0
  183.5570  176.6990  134.9530 O   0  0  0  0  0  0  0  0  0  0  0  0
  185.9680  177.4160  137.5930 C   0  0  0  0  0  3  0  0  0  0  0  0
  189.3570  178.6190  137.0800 O   0  0  0  0  0  0  0  0  0  0  0  0
  188.0100  178.6280  138.9400 O   0  0  0  0  0  1  0  0  0  0  0  0
  188.2650  178.2870  137.6150 C   0  0  0  0  0  0  0  0  0  0  0  0
  1  4  1  0  0  0  0
  2  1  2  0  0  0  0
  3  5  1  0  0  0  0
  4  3  3  0  0  0  0
  5  6  1  1  0  0  0
  7 10  1  0  0  0  0
  7  9  1  0  0  0  0
  9 13  2  0  0  0  0
  9  8  1  0  0  0  0
 10  5  1  1  0  0  0
 10 12  1  0  0  0  0
 11  7  2  0  0  0  0
 12  8  2  0  0  0  0
 14 16  1  0  0  0  0
 15 19  2  0  0  0  0
 16 11  1  1  0  0  0
 17 15  1  0  0  0  0
 17 14  2  0  0  0  0
 18 17  1  0  0  0  0
 19 16  1  0  0  0  0
 20 21  1  6  0  0  0
 20  2  1  0  0  0  0
 23 20  1  0  0  0  0
 23 22  1  1  0  0  0
 24 23  1  0  0  0  0
 25 27  1  0  0  0  0
 26 30  1  0  0  0  0
 27 33  2  0  0  0  0
 28 31  2  0  0  0  0
 28 29  1  0  0  0  0
 29 26  1  0  0  0  0
 30 35  1  0  0  0  0
 30 38  1  1  0  0  0
 31 32  1  0  0  0  0
 32 35  2  0  0  0  0
 32 33  1  0  0  0  0
 33 24  1  0  0  0  0
 34 25  1  0  0  0  0
 34 31  1  0  0  0  0
 36 38  2  0  0  0  0
 38 37  1  0  0  0  0
M  END
>  <MODEL>
9

>  <REMARK>
 VINA RESULT:      -8.0      2.818      8.417
  Name = 
  9 active torsions:
  status: ('A' for Active; 'I' for Inactive)
    1  A    between atoms: C_7  and  C_20
    2  A    between atoms: C_7  and  C_21
    3  A    between atoms: C_9  and  C_30
    4  A    between atoms: C_11  and  C_13
    5  A    between atoms: C_11  and  C_35
    6  A    between atoms: C_13  and  C_23
    7  A    between atoms: C_14  and  C_29
    8  A    between atoms: C_17  and  C_23
    9  A    between atoms: C_24  and  C_31
                            x       y       z     vdW  Elec       q    Type
                         _______ _______ _______ _____ _____    ______ ____

>  <TORSDO>
F 9

$$$$
