=
 OpenBabel11062415533D

 41 48  0  0  1  0  0  0  0  0999 V2000
  182.9520  178.9540  138.0710 N   0  0  0  0  0  2  0  0  0  0  0  0
  185.3760  178.8320  143.1000 C   0  0  0  0  0  0  0  0  0  0  0  0
  183.7320  177.4630  139.6600 C   0  0  0  0  0  2  0  0  0  0  0  0
  184.0960  179.5380  142.7780 C   0  0  2  0  0  3  0  0  0  0  0  0
  183.4070  178.6520  145.2000 C   0  0  0  0  0  2  0  0  0  0  0  0
  182.9890  177.5870  138.4090 N   0  0  0  0  0  2  0  0  0  0  0  0
  181.8330  179.0170  143.3200 C   0  0  0  0  0  0  0  0  0  0  0  0
  188.2370  177.7770  141.3340 N   0  0  0  0  0  0  0  0  0  0  0  0
  181.0540  178.1480  141.2090 C   0  0  0  0  0  3  0  0  0  0  0  0
  186.3400  178.6880  140.8080 C   0  0  0  0  0  0  0  0  0  0  0  0
  183.9190  178.8510  140.2240 C   0  0  0  0  0  0  0  0  0  0  0  0
  179.7740  177.9910  141.7630 C   0  0  0  0  0  3  0  0  0  0  0  0
  182.0730  178.6670  142.0150 C   0  0  0  0  0  0  0  0  0  0  0  0
  186.8670  177.8920  144.7540 C   0  0  0  0  0  0  0  0  0  0  0  0
  187.5300  177.9290  142.4710 C   0  0  0  0  0  0  0  0  0  0  0  0
  179.5290  178.3580  143.0970 C   0  0  0  0  0  3  0  0  0  0  0  0
  183.0640  179.5380  143.9700 C   0  0  2  0  0  3  0  0  0  0  0  0
  180.5660  178.8780  143.8890 C   0  0  0  0  0  3  0  0  0  0  0  0
  185.7140  178.5280  144.4060 C   0  0  0  0  0  0  0  0  0  0  0  0
  183.0810  179.6990  139.3100 C   0  0  0  0  0  2  0  0  0  0  0  0
  185.3920  177.9980  146.6140 N   0  0  0  0  0  0  0  0  0  0  0  0
  186.3300  178.5140  142.1550 C   0  0  0  0  0  0  0  0  0  0  0  0
  187.5200  178.2440  140.3080 N   0  0  0  0  0  0  0  0  0  0  0  0
  183.4170  178.9310  141.6180 N   0  0  0  0  0  0  0  0  0  0  0  0
  185.2950  179.2330  140.0610 O   0  0  0  0  0  0  0  0  0  0  0  0
  187.8500  177.5610  143.7930 C   0  0  0  0  0  3  0  0  0  0  0  0
  184.8390  178.6290  145.4800 N   0  0  0  0  0  0  0  0  0  0  0  0
  186.7510  177.5560  146.2000 C   0  0  0  0  0  3  0  0  0  0  0  0
  189.5490  177.1540  141.2130 C   0  0  2  0  0  3  0  0  0  0  0  0
  191.6250  178.0780  142.0200 O   0  0  0  0  0  1  0  0  0  0  0  0
  190.4190  177.4980  142.4240 C   0  0  2  0  0  3  0  0  0  0  0  0
  190.1980  175.1030  142.8700 C   0  0  0  0  0  2  0  0  0  0  0  0
  190.6770  176.2830  143.2670 C   0  0  0  0  0  0  0  0  0  0  0  0
  191.6320  176.3490  144.4240 C   0  0  0  0  0  2  0  0  0  0  0  0
  191.9790  178.5780  145.2390 O   0  0  0  0  0  1  0  0  0  0  0  0
  191.2170  177.4200  145.4230 C   0  0  2  0  0  3  0  0  0  0  0  0
  192.1580  175.6200  146.8770 C   0  0  0  0  0  1  0  0  0  0  0  0
  189.9900  176.6510  147.5000 C   0  0  0  0  0  1  0  0  0  0  0  0
  191.3440  176.9000  146.8540 C   0  0  0  0  0  3  0  0  0  0  0  0
  190.1610  177.5590  140.0220 O   0  0  0  0  0  0  0  0  0  0  0  0
  190.3880  176.3760  139.3160 C   0  0  0  0  0  1  0  0  0  0  0  0
  1  6  1  0  0  0  0
  1 20  1  0  0  0  0
  2 19  1  0  0  0  0
  3 11  1  0  0  0  0
  4  2  1  1  0  0  0
  4 17  1  0  0  0  0
  5 27  1  0  0  0  0
  6  3  1  0  0  0  0
  7 18  1  0  0  0  0
  7 17  1  0  0  0  0
  8 15  1  0  0  0  0
  9 12  2  0  0  0  0
  9 13  1  0  0  0  0
 10 22  1  0  0  0  0
 11 24  1  0  0  0  0
 12 16  1  0  0  0  0
 13  7  2  0  0  0  0
 14 28  1  0  0  0  0
 15 26  2  0  0  0  0
 16 18  2  0  0  0  0
 17  5  1  1  0  0  0
 19 14  2  0  0  0  0
 19 27  1  0  0  0  0
 20 11  1  0  0  0  0
 22 15  1  0  0  0  0
 22  2  2  0  0  0  0
 23 10  2  0  0  0  0
 23  8  1  0  0  0  0
 24 13  1  0  0  0  0
 24  4  1  0  0  0  0
 25 11  1  0  0  0  0
 25 10  1  0  0  0  0
 26 14  1  0  0  0  0
 27 21  1  0  0  0  0
 28 21  2  0  0  0  0
 29 40  1  6  0  0  0
 29  8  1  0  0  0  0
 29 31  1  0  0  0  0
 31 30  1  6  0  0  0
 31 33  1  0  0  0  0
 32 33  2  0  0  0  0
 33 34  1  0  0  0  0
 34 36  1  0  0  0  0
 36 35  1  1  0  0  0
 36 39  1  0  0  0  0
 39 37  1  0  0  0  0
 39 38  1  0  0  0  0
 41 40  1  0  0  0  0
M  END
>  <MODEL>
1

>  <REMARK>
 VINA RESULT:      -9.7      0.000      0.000
  Name = 
  7 active torsions:
  status: ('A' for Active; 'I' for Inactive)
    1  A    between atoms: C_7  and  C_20
    2  A    between atoms: C_7  and  C_34
    3  A    between atoms: O_12  and  C_18
    4  A    between atoms: N_13  and  C_18
    5  A    between atoms: C_18  and  C_39
    6  A    between atoms: C_20  and  C_39
    7  A    between atoms: C_34  and  C_40
                            x       y       z     vdW  Elec       q    Type
                         _______ _______ _______ _____ _____    ______ ____

>  <TORSDO>
F 7

$$$$
=
 OpenBabel11062415533D

 41 48  0  0  1  0  0  0  0  0999 V2000
  187.5100  177.3420  135.3280 N   0  0  0  0  0  2  0  0  0  0  0  0
  185.6430  178.7020  140.4120 C   0  0  0  0  0  0  0  0  0  0  0  0
  186.7910  176.3720  137.3030 C   0  0  0  0  0  2  0  0  0  0  0  0
  185.0410  179.1630  139.1220 C   0  0  2  0  0  3  0  0  0  0  0  0
  182.7610  178.8150  140.4670 C   0  0  0  0  0  2  0  0  0  0  0  0
  187.1660  176.1090  135.9160 N   0  0  0  0  0  2  0  0  0  0  0  0
  183.0210  178.5410  138.0170 C   0  0  0  0  0  0  0  0  0  0  0  0
  188.7960  177.5750  141.5140 N   0  0  0  0  0  0  0  0  0  0  0  0
  183.8840  177.1090  136.2780 C   0  0  0  0  0  3  0  0  0  0  0  0
  187.9250  178.1180  139.6020 C   0  0  0  0  0  0  0  0  0  0  0  0
  186.6560  177.8670  137.4680 C   0  0  0  0  0  0  0  0  0  0  0  0
  182.5810  176.9500  135.7830 C   0  0  0  0  0  3  0  0  0  0  0  0
  184.0790  177.9160  137.4040 C   0  0  0  0  0  0  0  0  0  0  0  0
  185.4290  178.3570  142.7950 C   0  0  0  0  0  0  0  0  0  0  0  0
  187.5110  177.9170  141.7350 C   0  0  0  0  0  0  0  0  0  0  0  0
  181.5010  177.5970  136.4080 C   0  0  0  0  0  3  0  0  0  0  0  0
  183.4750  179.3360  139.1880 C   0  0  2  0  0  3  0  0  0  0  0  0
  181.7180  178.4040  137.5370 C   0  0  0  0  0  3  0  0  0  0  0  0
  184.9280  178.7590  141.5940 C   0  0  0  0  0  0  0  0  0  0  0  0
  186.7960  178.3730  136.0600 C   0  0  0  0  0  2  0  0  0  0  0  0
  183.0910  178.7440  142.9680 N   0  0  0  0  0  0  0  0  0  0  0  0
  186.9490  178.2730  140.5350 C   0  0  0  0  0  0  0  0  0  0  0  0
  189.0620  177.6990  140.2100 N   0  0  0  0  0  0  0  0  0  0  0  0
  185.3270  178.2240  138.0220 N   0  0  0  0  0  0  0  0  0  0  0  0
  187.7730  178.3480  138.2340 O   0  0  0  0  0  0  0  0  0  0  0  0
  186.7650  177.9160  142.9300 C   0  0  0  0  0  3  0  0  0  0  0  0
  183.5650  179.0180  141.6670 N   0  0  0  0  0  0  0  0  0  0  0  0
  184.2940  178.3680  143.7590 C   0  0  0  0  0  3  0  0  0  0  0  0
  189.7410  177.0910  142.5110 C   0  0  2  0  0  3  0  0  0  0  0  0
  192.0880  177.6350  142.6150 O   0  0  0  0  0  1  0  0  0  0  0  0
  190.8030  178.1520  142.8040 C   0  0  2  0  0  3  0  0  0  0  0  0
  191.4210  179.7210  144.5760 C   0  0  0  0  0  2  0  0  0  0  0  0
  190.6560  178.6970  144.1940 C   0  0  0  0  0  0  0  0  0  0  0  0
  189.5260  178.2430  145.0730 C   0  0  0  0  0  2  0  0  0  0  0  0
  190.9150  176.6730  146.2400 O   0  0  0  0  0  1  0  0  0  0  0  0
  190.0380  177.7480  146.4190 C   0  0  2  0  0  3  0  0  0  0  0  0
  187.5570  177.5300  146.5970 C   0  0  0  0  0  1  0  0  0  0  0  0
  188.8500  178.1750  148.6130 C   0  0  0  0  0  1  0  0  0  0  0  0
  188.8740  177.3590  147.3300 C   0  0  0  0  0  3  0  0  0  0  0  0
  190.3270  175.8990  142.0720 O   0  0  0  0  0  0  0  0  0  0  0  0
  190.4520  175.1170  143.2220 C   0  0  0  0  0  1  0  0  0  0  0  0
  1  6  1  0  0  0  0
  1 20  1  0  0  0  0
  2 22  2  0  0  0  0
  2 19  1  0  0  0  0
  3 11  1  0  0  0  0
  4 17  1  0  0  0  0
  4  2  1  1  0  0  0
  5 27  1  0  0  0  0
  6  3  1  0  0  0  0
  7 17  1  0  0  0  0
  8 15  1  0  0  0  0
  8 29  1  0  0  0  0
  9 13  1  0  0  0  0
 10 23  2  0  0  0  0
 10 22  1  0  0  0  0
 11 24  1  0  0  0  0
 11 25  1  0  0  0  0
 12  9  2  0  0  0  0
 12 16  1  0  0  0  0
 13  7  2  0  0  0  0
 13 24  1  0  0  0  0
 14 26  1  0  0  0  0
 14 28  1  0  0  0  0
 15 26  2  0  0  0  0
 16 18  2  0  0  0  0
 17  5  1  1  0  0  0
 18  7  1  0  0  0  0
 19 27  1  0  0  0  0
 19 14  2  0  0  0  0
 20 11  1  0  0  0  0
 21 28  2  0  0  0  0
 22 15  1  0  0  0  0
 23  8  1  0  0  0  0
 24  4  1  0  0  0  0
 25 10  1  0  0  0  0
 27 21  1  0  0  0  0
 29 40  1  6  0  0  0
 29 31  1  0  0  0  0
 31 30  1  1  0  0  0
 31 33  1  0  0  0  0
 33 32  2  0  0  0  0
 33 34  1  0  0  0  0
 34 36  1  0  0  0  0
 36 35  1  6  0  0  0
 36 39  1  0  0  0  0
 37 39  1  0  0  0  0
 39 38  1  0  0  0  0
 40 41  1  0  0  0  0
M  END
>  <MODEL>
2

>  <REMARK>
 VINA RESULT:      -9.5      2.379      3.899
  Name = 
  7 active torsions:
  status: ('A' for Active; 'I' for Inactive)
    1  A    between atoms: C_7  and  C_20
    2  A    between atoms: C_7  and  C_34
    3  A    between atoms: O_12  and  C_18
    4  A    between atoms: N_13  and  C_18
    5  A    between atoms: C_18  and  C_39
    6  A    between atoms: C_20  and  C_39
    7  A    between atoms: C_34  and  C_40
                            x       y       z     vdW  Elec       q    Type
                         _______ _______ _______ _____ _____    ______ ____

>  <TORSDO>
F 7

$$$$
=
 OpenBabel11062415533D

 41 48  0  0  1  0  0  0  0  0999 V2000
  192.0130  176.3830  144.6460 N   0  0  0  0  0  2  0  0  0  0  0  0
  186.7380  177.5270  143.2150 C   0  0  0  0  0  0  0  0  0  0  0  0
  190.6680  178.1450  143.9810 C   0  0  0  0  0  2  0  0  0  0  0  0
  187.1620  176.8800  144.4960 C   0  0  2  0  0  3  0  0  0  0  0  0
  185.2050  178.3940  145.4980 C   0  0  0  0  0  2  0  0  0  0  0  0
  191.9890  177.7820  144.4870 N   0  0  0  0  0  2  0  0  0  0  0  0
  187.2480  177.7170  146.7270 C   0  0  0  0  0  0  0  0  0  0  0  0
  188.0390  177.8570  139.9560 N   0  0  0  0  0  0  0  0  0  0  0  0
  189.6170  178.1030  146.9700 C   0  0  0  0  0  3  0  0  0  0  0  0
  188.7430  177.0150  141.8270 C   0  0  0  0  0  0  0  0  0  0  0  0
  189.7810  176.9290  144.0950 C   0  0  0  0  0  0  0  0  0  0  0  0
  189.4000  178.5040  148.2970 C   0  0  0  0  0  3  0  0  0  0  0  0
  188.5160  177.7110  146.2010 C   0  0  0  0  0  0  0  0  0  0  0  0
  185.0560  178.7110  141.9450 C   0  0  0  0  0  0  0  0  0  0  0  0
  187.0760  178.0530  140.8770 C   0  0  0  0  0  0  0  0  0  0  0  0
  188.1020  178.5020  148.8360 C   0  0  0  0  0  3  0  0  0  0  0  0
  186.2500  177.2650  145.7230 C   0  0  2  0  0  3  0  0  0  0  0  0
  187.0100  178.1030  148.0480 C   0  0  0  0  0  3  0  0  0  0  0  0
  185.4920  178.1130  143.0880 C   0  0  0  0  0  0  0  0  0  0  0  0
  190.6400  175.9580  144.8550 C   0  0  0  0  0  2  0  0  0  0  0  0
  183.5800  179.1980  143.7430 N   0  0  0  0  0  0  0  0  0  0  0  0
  187.5030  177.5170  142.0660 C   0  0  0  0  0  0  0  0  0  0  0  0
  189.0640  177.2170  140.5260 N   0  0  0  0  0  0  0  0  0  0  0  0
  188.5460  177.2400  144.8560 N   0  0  0  0  0  0  0  0  0  0  0  0
  189.5560  176.3970  142.7790 O   0  0  0  0  0  0  0  0  0  0  0  0
  185.8320  178.7060  140.7640 C   0  0  0  0  0  3  0  0  0  0  0  0
  184.6360  178.3580  144.1550 N   0  0  0  0  0  0  0  0  0  0  0  0
  183.7810  179.4020  142.2830 C   0  0  0  0  0  3  0  0  0  0  0  0
  188.0120  178.3120  138.5720 C   0  0  2  0  0  3  0  0  0  0  0  0
  188.5080  176.6090  136.9380 O   0  0  0  0  0  1  0  0  0  0  0  0
  187.4710  177.2110  137.6560 C   0  0  2  0  0  3  0  0  0  0  0  0
  186.6870  177.7880  135.4120 C   0  0  0  0  0  2  0  0  0  0  0  0
  186.4290  177.7500  136.7200 C   0  0  0  0  0  0  0  0  0  0  0  0
  185.0420  178.0450  137.2150 C   0  0  0  0  0  2  0  0  0  0  0  0
  184.3680  175.7600  136.9360 O   0  0  0  0  0  1  0  0  0  0  0  0
  184.4100  176.8160  137.8520 C   0  0  2  0  0  3  0  0  0  0  0  0
  182.8520  178.6380  138.5520 C   0  0  0  0  0  1  0  0  0  0  0  0
  182.7170  176.4430  139.6980 C   0  0  0  0  0  1  0  0  0  0  0  0
  183.0120  177.1400  138.3790 C   0  0  0  0  0  3  0  0  0  0  0  0
  189.2930  178.7120  138.1770 O   0  0  0  0  0  0  0  0  0  0  0  0
  189.0820  179.8120  137.3430 C   0  0  0  0  0  1  0  0  0  0  0  0
  1 20  1  0  0  0  0
  3 11  1  0  0  0  0
  3  6  1  0  0  0  0
  4  2  1  6  0  0  0
  4 24  1  0  0  0  0
  4 17  1  0  0  0  0
  6  1  1  0  0  0  0
  7 18  1  0  0  0  0
  8 23  1  0  0  0  0
  8 15  1  0  0  0  0
  9 12  2  0  0  0  0
 10 22  1  0  0  0  0
 10 25  1  0  0  0  0
 11 20  1  0  0  0  0
 11 24  1  0  0  0  0
 12 16  1  0  0  0  0
 13  7  2  0  0  0  0
 13  9  1  0  0  0  0
 14 28  1  0  0  0  0
 14 19  2  0  0  0  0
 15 22  1  0  0  0  0
 17  5  1  6  0  0  0
 17  7  1  0  0  0  0
 18 16  2  0  0  0  0
 19  2  1  0  0  0  0
 19 27  1  0  0  0  0
 21 27  1  0  0  0  0
 22  2  2  0  0  0  0
 23 10  2  0  0  0  0
 24 13  1  0  0  0  0
 25 11  1  0  0  0  0
 26 15  2  0  0  0  0
 26 14  1  0  0  0  0
 27  5  1  0  0  0  0
 28 21  2  0  0  0  0
 29 40  1  6  0  0  0
 29  8  1  0  0  0  0
 31 30  1  6  0  0  0
 31 29  1  0  0  0  0
 32 33  2  0  0  0  0
 33 34  1  0  0  0  0
 33 31  1  0  0  0  0
 34 36  1  0  0  0  0
 36 35  1  6  0  0  0
 36 39  1  0  0  0  0
 39 37  1  0  0  0  0
 39 38  1  0  0  0  0
 41 40  1  0  0  0  0
M  END
>  <MODEL>
3

>  <REMARK>
 VINA RESULT:      -8.7      2.513      7.308
  Name = 
  7 active torsions:
  status: ('A' for Active; 'I' for Inactive)
    1  A    between atoms: C_7  and  C_20
    2  A    between atoms: C_7  and  C_34
    3  A    between atoms: O_12  and  C_18
    4  A    between atoms: N_13  and  C_18
    5  A    between atoms: C_18  and  C_39
    6  A    between atoms: C_20  and  C_39
    7  A    between atoms: C_34  and  C_40
                            x       y       z     vdW  Elec       q    Type
                         _______ _______ _______ _____ _____    ______ ____

>  <TORSDO>
F 7

$$$$
=
 OpenBabel11062415533D

 41 48  0  0  1  0  0  0  0  0999 V2000
  189.4940  177.3280  136.7100 N   0  0  0  0  0  2  0  0  0  0  0  0
  186.9730  178.3910  141.5780 C   0  0  0  0  0  0  0  0  0  0  0  0
  188.4700  176.2490  138.4820 C   0  0  0  0  0  2  0  0  0  0  0  0
  186.5760  178.9730  140.2580 C   0  0  2  0  0  3  0  0  0  0  0  0
  184.1180  178.6290  141.2410 C   0  0  0  0  0  2  0  0  0  0  0  0
  189.0280  176.0720  137.1450 N   0  0  0  0  0  2  0  0  0  0  0  0
  184.7130  178.5250  138.8370 C   0  0  0  0  0  0  0  0  0  0  0  0
  189.8980  177.0470  143.0130 N   0  0  0  0  0  0  0  0  0  0  0  0
  185.7650  177.1880  137.1260 C   0  0  0  0  0  3  0  0  0  0  0  0
  189.3250  177.7680  141.0480 C   0  0  0  0  0  0  0  0  0  0  0  0
  188.3640  177.7320  138.7450 C   0  0  0  0  0  0  0  0  0  0  0  0
  184.5400  177.1240  136.4440 C   0  0  0  0  0  3  0  0  0  0  0  0
  185.8250  177.9000  138.3290 C   0  0  0  0  0  0  0  0  0  0  0  0
  186.4120  177.8820  143.8730 C   0  0  0  0  0  0  0  0  0  0  0  0
  188.6070  177.4280  143.0800 C   0  0  0  0  0  0  0  0  0  0  0  0
  183.4050  177.7710  136.9630 C   0  0  0  0  0  3  0  0  0  0  0  0
  185.0230  179.2110  140.1190 C   0  0  2  0  0  3  0  0  0  0  0  0
  183.4870  178.4820  138.1710 C   0  0  0  0  0  3  0  0  0  0  0  0
  186.1000  178.3930  142.6500 C   0  0  0  0  0  0  0  0  0  0  0  0
  188.7190  178.3330  137.4150 C   0  0  0  0  0  2  0  0  0  0  0  0
  184.0870  178.3590  143.7500 N   0  0  0  0  0  0  0  0  0  0  0  0
  188.2330  177.8970  141.8460 C   0  0  0  0  0  0  0  0  0  0  0  0
  190.3500  177.2550  141.7730 N   0  0  0  0  0  0  0  0  0  0  0  0
  186.9820  178.1060  139.1360 N   0  0  0  0  0  0  0  0  0  0  0  0
  189.3760  178.1050  139.6950 O   0  0  0  0  0  0  0  0  0  0  0  0
  187.7000  177.3720  144.1570 C   0  0  0  0  0  3  0  0  0  0  0  0
  184.7500  178.7070  142.5540 N   0  0  0  0  0  0  0  0  0  0  0  0
  185.1520  177.8720  144.6680 C   0  0  0  0  0  3  0  0  0  0  0  0
  190.6750  176.4490  144.0900 C   0  0  2  0  0  3  0  0  0  0  0  0
  192.0160  178.1980  145.0670 O   0  0  0  0  0  1  0  0  0  0  0  0
  190.8530  177.4430  145.2400 C   0  0  2  0  0  3  0  0  0  0  0  0
  192.0480  176.3820  147.0920 C   0  0  0  0  0  2  0  0  0  0  0  0
  190.8750  176.7390  146.5650 C   0  0  0  0  0  0  0  0  0  0  0  0
  189.6230  176.6240  147.3860 C   0  0  0  0  0  2  0  0  0  0  0  0
  189.7540  178.6510  148.6630 O   0  0  0  0  0  1  0  0  0  0  0  0
  189.0210  177.9930  147.6700 C   0  0  2  0  0  3  0  0  0  0  0  0
  186.7430  178.9930  147.4570 C   0  0  0  0  0  1  0  0  0  0  0  0
  187.3610  177.8630  149.5770 C   0  0  0  0  0  1  0  0  0  0  0  0
  187.5510  177.8640  148.0680 C   0  0  0  0  0  3  0  0  0  0  0  0
  191.9130  176.0170  143.6010 O   0  0  0  0  0  0  0  0  0  0  0  0
  192.0540  174.7150  144.0860 C   0  0  0  0  0  1  0  0  0  0  0  0
  1  6  1  0  0  0  0
  1 20  1  0  0  0  0
  2 22  2  0  0  0  0
  2 19  1  0  0  0  0
  3 11  1  0  0  0  0
  4  2  1  1  0  0  0
  5 27  1  0  0  0  0
  6  3  1  0  0  0  0
  7 17  1  0  0  0  0
  8 15  1  0  0  0  0
  8 29  1  0  0  0  0
  9 13  2  0  0  0  0
 10 23  2  0  0  0  0
 10 22  1  0  0  0  0
 11 24  1  0  0  0  0
 11 25  1  0  0  0  0
 12 16  2  0  0  0  0
 12  9  1  0  0  0  0
 13  7  1  0  0  0  0
 13 24  1  0  0  0  0
 14 26  1  0  0  0  0
 14 28  1  0  0  0  0
 15 26  2  0  0  0  0
 16 18  1  0  0  0  0
 17  4  1  0  0  0  0
 17  5  1  1  0  0  0
 18  7  2  0  0  0  0
 19 14  2  0  0  0  0
 20 11  1  0  0  0  0
 21 28  2  0  0  0  0
 22 15  1  0  0  0  0
 23  8  1  0  0  0  0
 24  4  1  0  0  0  0
 25 10  1  0  0  0  0
 27 19  1  0  0  0  0
 27 21  1  0  0  0  0
 29 40  1  6  0  0  0
 29 31  1  0  0  0  0
 31 30  1  6  0  0  0
 31 33  1  0  0  0  0
 33 32  2  0  0  0  0
 33 34  1  0  0  0  0
 34 36  1  0  0  0  0
 36 39  1  0  0  0  0
 36 35  1  1  0  0  0
 37 39  1  0  0  0  0
 39 38  1  0  0  0  0
 40 41  1  0  0  0  0
M  END
>  <MODEL>
4

>  <REMARK>
 VINA RESULT:      -8.5      2.296      4.379
  Name = 
  7 active torsions:
  status: ('A' for Active; 'I' for Inactive)
    1  A    between atoms: C_7  and  C_20
    2  A    between atoms: C_7  and  C_34
    3  A    between atoms: O_12  and  C_18
    4  A    between atoms: N_13  and  C_18
    5  A    between atoms: C_18  and  C_39
    6  A    between atoms: C_20  and  C_39
    7  A    between atoms: C_34  and  C_40
                            x       y       z     vdW  Elec       q    Type
                         _______ _______ _______ _____ _____    ______ ____

>  <TORSDO>
F 7

$$$$
=
 OpenBabel11062415533D

 41 48  0  0  1  0  0  0  0  0999 V2000
  182.7320  179.2950  137.9980 N   0  0  0  0  0  2  0  0  0  0  0  0
  186.9380  178.3140  141.5370 C   0  0  0  0  0  0  0  0  0  0  0  0
  183.8110  177.5550  139.0760 C   0  0  0  0  0  2  0  0  0  0  0  0
  185.7890  179.2350  141.8000 C   0  0  2  0  0  3  0  0  0  0  0  0
  186.0060  178.2340  144.2660 C   0  0  0  0  0  2  0  0  0  0  0  0
  182.6570  177.9130  138.2570 N   0  0  0  0  0  2  0  0  0  0  0  0
  183.8940  179.0170  143.2320 C   0  0  0  0  0  0  0  0  0  0  0  0
  188.5830  177.0080  138.7060 N   0  0  0  0  0  0  0  0  0  0  0  0
  182.1750  178.4880  141.6240 C   0  0  0  0  0  3  0  0  0  0  0  0
  186.8350  178.2470  139.0490 C   0  0  0  0  0  0  0  0  0  0  0  0
  184.4600  178.8350  139.5430 C   0  0  0  0  0  0  0  0  0  0  0  0
  181.2300  178.4770  142.6600 C   0  0  0  0  0  3  0  0  0  0  0  0
  183.5110  178.7630  141.9380 C   0  0  0  0  0  0  0  0  0  0  0  0
  188.7800  176.9990  142.3870 C   0  0  0  0  0  0  0  0  0  0  0  0
  188.4440  177.1550  140.0390 C   0  0  0  0  0  0  0  0  0  0  0  0
  181.6240  178.7450  143.9830 C   0  0  0  0  0  3  0  0  0  0  0  0
  185.3550  179.2780  143.3160 C   0  0  2  0  0  3  0  0  0  0  0  0
  182.9690  179.0210  144.2770 C   0  0  0  0  0  3  0  0  0  0  0  0
  187.7210  177.8350  142.5720 C   0  0  0  0  0  0  0  0  0  0  0  0
  183.4900  179.8880  139.0870 C   0  0  0  0  0  2  0  0  0  0  0  0
  188.2430  177.1490  144.6970 N   0  0  0  0  0  0  0  0  0  0  0  0
  187.3470  177.9460  140.2710 C   0  0  0  0  0  0  0  0  0  0  0  0
  187.6050  177.6770  138.0890 N   0  0  0  0  0  0  0  0  0  0  0  0
  184.5970  178.8550  141.0190 N   0  0  0  0  0  0  0  0  0  0  0  0
  185.6930  179.0160  138.8250 O   0  0  0  0  0  0  0  0  0  0  0  0
  189.2050  176.6160  141.0950 C   0  0  0  0  0  3  0  0  0  0  0  0
  187.3970  177.9640  143.9170 N   0  0  0  0  0  0  0  0  0  0  0  0
  189.2090  176.5450  143.7400 C   0  0  0  0  0  3  0  0  0  0  0  0
  189.5940  176.2060  138.0300 C   0  0  2  0  0  3  0  0  0  0  0  0
  190.9840  177.1370  136.2930 O   0  0  0  0  0  1  0  0  0  0  0  0
  190.8120  177.0640  137.6780 C   0  0  2  0  0  3  0  0  0  0  0  0
  192.5100  177.1320  139.4360 C   0  0  0  0  0  2  0  0  0  0  0  0
  192.0530  176.5350  138.3340 C   0  0  0  0  0  0  0  0  0  0  0  0
  192.6550  175.2330  137.8880 C   0  0  0  0  0  2  0  0  0  0  0  0
  194.7090  175.9010  136.8450 O   0  0  0  0  0  1  0  0  0  0  0  0
  194.1740  175.2700  137.9730 C   0  0  2  0  0  3  0  0  0  0  0  0
  196.1760  173.9230  138.6170 C   0  0  0  0  0  1  0  0  0  0  0  0
  194.6770  173.0630  136.8380 C   0  0  0  0  0  1  0  0  0  0  0  0
  194.7400  173.8590  138.1320 C   0  0  0  0  0  3  0  0  0  0  0  0
  189.0460  175.6150  136.8860 O   0  0  0  0  0  0  0  0  0  0  0  0
  189.1240  174.2410  137.1220 C   0  0  0  0  0  1  0  0  0  0  0  0
  1  6  1  0  0  0  0
  1 20  1  0  0  0  0
  2 19  1  0  0  0  0
  3 11  1  0  0  0  0
  4  2  1  1  0  0  0
  4 17  1  0  0  0  0
  6  3  1  0  0  0  0
  7 17  1  0  0  0  0
  7 18  1  0  0  0  0
  8 15  1  0  0  0  0
  9 13  1  0  0  0  0
  9 12  2  0  0  0  0
 10 22  1  0  0  0  0
 11 24  1  0  0  0  0
 12 16  1  0  0  0  0
 13  7  2  0  0  0  0
 14 19  2  0  0  0  0
 14 28  1  0  0  0  0
 15 22  1  0  0  0  0
 15 26  2  0  0  0  0
 16 18  2  0  0  0  0
 17  5  1  1  0  0  0
 19 27  1  0  0  0  0
 20 11  1  0  0  0  0
 22  2  2  0  0  0  0
 23  8  1  0  0  0  0
 23 10  2  0  0  0  0
 24  4  1  0  0  0  0
 24 13  1  0  0  0  0
 25 10  1  0  0  0  0
 25 11  1  0  0  0  0
 26 14  1  0  0  0  0
 27  5  1  0  0  0  0
 27 21  1  0  0  0  0
 28 21  2  0  0  0  0
 29 40  1  6  0  0  0
 29  8  1  0  0  0  0
 31 30  1  6  0  0  0
 31 29  1  0  0  0  0
 31 33  1  0  0  0  0
 33 32  2  0  0  0  0
 34 36  1  0  0  0  0
 34 33  1  0  0  0  0
 36 35  1  6  0  0  0
 36 39  1  0  0  0  0
 38 39  1  0  0  0  0
 39 37  1  0  0  0  0
 40 41  1  0  0  0  0
M  END
>  <MODEL>
5

>  <REMARK>
 VINA RESULT:      -8.4      2.571      4.458
  Name = 
  7 active torsions:
  status: ('A' for Active; 'I' for Inactive)
    1  A    between atoms: C_7  and  C_20
    2  A    between atoms: C_7  and  C_34
    3  A    between atoms: O_12  and  C_18
    4  A    between atoms: N_13  and  C_18
    5  A    between atoms: C_18  and  C_39
    6  A    between atoms: C_20  and  C_39
    7  A    between atoms: C_34  and  C_40
                            x       y       z     vdW  Elec       q    Type
                         _______ _______ _______ _____ _____    ______ ____

>  <TORSDO>
F 7

$$$$
=
 OpenBabel11062415533D

 41 48  0  0  1  0  0  0  0  0999 V2000
  182.7870  179.3700  137.9350 N   0  0  0  0  0  2  0  0  0  0  0  0
  186.5570  178.5570  141.9740 C   0  0  0  0  0  0  0  0  0  0  0  0
  183.8510  177.6710  139.0920 C   0  0  0  0  0  2  0  0  0  0  0  0
  185.3140  179.3790  142.1090 C   0  0  2  0  0  3  0  0  0  0  0  0
  185.2830  178.2940  144.5480 C   0  0  0  0  0  2  0  0  0  0  0  0
  182.7880  177.9760  138.1370 N   0  0  0  0  0  2  0  0  0  0  0  0
  183.2700  178.9610  143.2660 C   0  0  0  0  0  0  0  0  0  0  0  0
  188.6570  177.4970  139.3490 N   0  0  0  0  0  0  0  0  0  0  0  0
  181.8250  178.3730  141.4250 C   0  0  0  0  0  3  0  0  0  0  0  0
  186.7870  178.5870  139.4940 C   0  0  0  0  0  0  0  0  0  0  0  0
  184.3290  178.9760  139.6820 C   0  0  0  0  0  0  0  0  0  0  0  0
  180.7560  178.2480  142.3250 C   0  0  0  0  0  3  0  0  0  0  0  0
  183.0820  178.7330  141.9250 C   0  0  0  0  0  0  0  0  0  0  0  0
  188.3690  177.3490  143.0210 C   0  0  0  0  0  0  0  0  0  0  0  0
  188.3330  177.5770  140.6550 C   0  0  0  0  0  0  0  0  0  0  0  0
  180.9500  178.4890  143.6960 C   0  0  0  0  0  3  0  0  0  0  0  0
  184.6820  179.3260  143.5530 C   0  0  2  0  0  3  0  0  0  0  0  0
  182.2190  178.8520  144.1770 C   0  0  0  0  0  3  0  0  0  0  0  0
  187.2320  178.0950  143.0880 C   0  0  0  0  0  0  0  0  0  0  0  0
  183.3460  179.9710  139.1330 C   0  0  0  0  0  2  0  0  0  0  0  0
  187.5230  177.3610  145.2420 N   0  0  0  0  0  0  0  0  0  0  0  0
  187.1560  178.2740  140.7630 C   0  0  0  0  0  0  0  0  0  0  0  0
  187.7190  178.1160  138.6280 N   0  0  0  0  0  0  0  0  0  0  0  0
  184.2680  178.9440  141.1640 N   0  0  0  0  0  0  0  0  0  0  0  0
  185.6260  179.2780  139.1420 O   0  0  0  0  0  0  0  0  0  0  0  0
  188.9900  177.0520  141.7860 C   0  0  0  0  0  3  0  0  0  0  0  0
  186.7250  178.1430  144.3810 N   0  0  0  0  0  0  0  0  0  0  0  0
  188.6510  176.8720  144.4040 C   0  0  0  0  0  3  0  0  0  0  0  0
  189.8080  176.8010  138.7900 C   0  0  2  0  0  3  0  0  0  0  0  0
  190.3330  174.5970  137.9640 O   0  0  0  0  0  1  0  0  0  0  0  0
  189.3570  175.5980  137.9590 C   0  0  2  0  0  3  0  0  0  0  0  0
  189.9250  176.6970  135.8490 C   0  0  0  0  0  2  0  0  0  0  0  0
  189.0280  176.0040  136.5530 C   0  0  0  0  0  0  0  0  0  0  0  0
  187.8030  175.4650  135.8720 C   0  0  0  0  0  2  0  0  0  0  0  0
  186.5990  173.6590  136.8930 O   0  0  0  0  0  1  0  0  0  0  0  0
  186.7460  175.0500  136.8850 C   0  0  2  0  0  3  0  0  0  0  0  0
  184.5290  174.8350  135.7550 C   0  0  0  0  0  1  0  0  0  0  0  0
  185.6010  177.0680  135.8710 C   0  0  0  0  0  1  0  0  0  0  0  0
  185.4150  175.7400  136.5890 C   0  0  0  0  0  3  0  0  0  0  0  0
  190.6730  176.4090  139.8170 O   0  0  0  0  0  0  0  0  0  0  0  0
  191.8510  177.1230  139.5870 C   0  0  0  0  0  1  0  0  0  0  0  0
  1  6  1  0  0  0  0
  1 20  1  0  0  0  0
  2 19  1  0  0  0  0
  3 11  1  0  0  0  0
  4  2  1  1  0  0  0
  4 17  1  0  0  0  0
  6  3  1  0  0  0  0
  7 17  1  0  0  0  0
  7 18  1  0  0  0  0
  8 15  1  0  0  0  0
  9 13  1  0  0  0  0
  9 12  2  0  0  0  0
 10 22  1  0  0  0  0
 11 24  1  0  0  0  0
 12 16  1  0  0  0  0
 13  7  2  0  0  0  0
 14 19  2  0  0  0  0
 14 28  1  0  0  0  0
 15 22  1  0  0  0  0
 15 26  2  0  0  0  0
 16 18  2  0  0  0  0
 17  5  1  1  0  0  0
 19 27  1  0  0  0  0
 20 11  1  0  0  0  0
 22  2  2  0  0  0  0
 23  8  1  0  0  0  0
 23 10  2  0  0  0  0
 24 13  1  0  0  0  0
 24  4  1  0  0  0  0
 25 10  1  0  0  0  0
 25 11  1  0  0  0  0
 26 14  1  0  0  0  0
 27  5  1  0  0  0  0
 27 21  1  0  0  0  0
 28 21  2  0  0  0  0
 29  8  1  0  0  0  0
 29 40  1  1  0  0  0
 31 30  1  6  0  0  0
 31 29  1  0  0  0  0
 32 33  2  0  0  0  0
 33 31  1  0  0  0  0
 34 33  1  0  0  0  0
 34 36  1  0  0  0  0
 36 35  1  6  0  0  0
 37 39  1  0  0  0  0
 38 39  1  0  0  0  0
 39 36  1  0  0  0  0
 41 40  1  0  0  0  0
M  END
>  <MODEL>
6

>  <REMARK>
 VINA RESULT:      -8.4      2.287      5.012
  Name = 
  7 active torsions:
  status: ('A' for Active; 'I' for Inactive)
    1  A    between atoms: C_7  and  C_20
    2  A    between atoms: C_7  and  C_34
    3  A    between atoms: O_12  and  C_18
    4  A    between atoms: N_13  and  C_18
    5  A    between atoms: C_18  and  C_39
    6  A    between atoms: C_20  and  C_39
    7  A    between atoms: C_34  and  C_40
                            x       y       z     vdW  Elec       q    Type
                         _______ _______ _______ _____ _____    ______ ____

>  <TORSDO>
F 7

$$$$
=
 OpenBabel11062415533D

 41 48  0  0  1  0  0  0  0  0999 V2000
  183.9140  179.7400  143.6900 N   0  0  0  0  0  2  0  0  0  0  0  0
  188.0720  178.1290  140.3290 C   0  0  0  0  0  0  0  0  0  0  0  0
  184.7060  177.8760  142.5690 C   0  0  0  0  0  2  0  0  0  0  0  0
  188.2480  178.7720  141.6680 C   0  0  2  0  0  3  0  0  0  0  0  0
  190.2730  177.0410  141.8430 C   0  0  0  0  0  2  0  0  0  0  0  0
  183.7290  178.3500  143.5450 N   0  0  0  0  0  2  0  0  0  0  0  0
  188.9470  177.8750  143.7650 C   0  0  0  0  0  0  0  0  0  0  0  0
  185.5830  178.0360  137.8360 N   0  0  0  0  0  0  0  0  0  0  0  0
  186.8320  177.7160  144.9130 C   0  0  0  0  0  3  0  0  0  0  0  0
  185.7510  178.8810  139.8260 C   0  0  0  0  0  0  0  0  0  0  0  0
  185.6880  178.9950  142.3190 C   0  0  0  0  0  0  0  0  0  0  0  0
  187.5030  177.2530  146.0550 C   0  0  0  0  0  3  0  0  0  0  0  0
  187.5830  178.0230  143.7730 C   0  0  0  0  0  0  0  0  0  0  0  0
  188.9980  176.8280  138.5150 C   0  0  0  0  0  0  0  0  0  0  0  0
  186.8020  177.7150  138.3110 C   0  0  0  0  0  0  0  0  0  0  0  0
  188.9020  177.1100  146.0460 C   0  0  0  0  0  3  0  0  0  0  0  0
  189.5190  178.2600  142.4480 C   0  0  2  0  0  3  0  0  0  0  0  0
  189.6370  177.4250  144.8920 C   0  0  0  0  0  3  0  0  0  0  0  0
  189.1040  177.4270  139.7330 C   0  0  0  0  0  0  0  0  0  0  0  0
  185.2960  180.0200  143.3450 C   0  0  0  0  0  2  0  0  0  0  0  0
  190.9970  176.1390  139.6010 N   0  0  0  0  0  0  0  0  0  0  0  0
  186.9270  178.2520  139.5680 C   0  0  0  0  0  0  0  0  0  0  0  0
  184.9310  178.7550  138.7540 N   0  0  0  0  0  0  0  0  0  0  0  0
  187.0820  178.5390  142.5410 N   0  0  0  0  0  0  0  0  0  0  0  0
  185.4390  179.5440  141.0140 O   0  0  0  0  0  0  0  0  0  0  0  0
  187.8300  176.9470  137.7280 C   0  0  0  0  0  3  0  0  0  0  0  0
  190.2760  177.0640  140.3850 N   0  0  0  0  0  0  0  0  0  0  0  0
  190.2260  176.0030  138.3350 C   0  0  0  0  0  3  0  0  0  0  0  0
  185.0250  177.6260  136.5540 C   0  0  2  0  0  3  0  0  0  0  0  0
  183.9250  175.4890  136.3550 O   0  0  0  0  0  1  0  0  0  0  0  0
  183.7440  176.8140  136.7610 C   0  0  2  0  0  3  0  0  0  0  0  0
  182.3330  177.0580  134.7790 C   0  0  0  0  0  2  0  0  0  0  0  0
  182.5870  177.4330  136.0330 C   0  0  0  0  0  0  0  0  0  0  0  0
  181.6040  178.3020  136.7650 C   0  0  0  0  0  2  0  0  0  0  0  0
  180.4510  176.8900  138.3240 O   0  0  0  0  0  1  0  0  0  0  0  0
  181.4510  177.8610  138.2140 C   0  0  2  0  0  3  0  0  0  0  0  0
  181.6390  180.3390  138.4600 C   0  0  0  0  0  1  0  0  0  0  0  0
  181.7840  178.9210  140.4890 C   0  0  0  0  0  1  0  0  0  0  0  0
  181.1510  179.0600  139.1130 C   0  0  0  0  0  3  0  0  0  0  0  0
  185.9740  176.8940  135.8330 O   0  0  0  0  0  0  0  0  0  0  0  0
  186.0530  177.5320  134.5940 C   0  0  0  0  0  1  0  0  0  0  0  0
  3  6  1  0  0  0  0
  4  2  1  6  0  0  0
  4 17  1  0  0  0  0
  4 24  1  0  0  0  0
  6  1  1  0  0  0  0
  7 13  2  0  0  0  0
  7 18  1  0  0  0  0
  8 15  1  0  0  0  0
  8 23  1  0  0  0  0
  9 12  2  0  0  0  0
 10 25  1  0  0  0  0
 11 24  1  0  0  0  0
 11  3  1  0  0  0  0
 11 20  1  0  0  0  0
 13  9  1  0  0  0  0
 14 19  2  0  0  0  0
 15 22  1  0  0  0  0
 16 12  1  0  0  0  0
 17  5  1  6  0  0  0
 17  7  1  0  0  0  0
 18 16  2  0  0  0  0
 19  2  1  0  0  0  0
 19 27  1  0  0  0  0
 20  1  1  0  0  0  0
 21 27  1  0  0  0  0
 22 10  1  0  0  0  0
 22  2  2  0  0  0  0
 23 10  2  0  0  0  0
 24 13  1  0  0  0  0
 25 11  1  0  0  0  0
 26 15  2  0  0  0  0
 26 14  1  0  0  0  0
 27  5  1  0  0  0  0
 28 14  1  0  0  0  0
 28 21  2  0  0  0  0
 29 40  1  1  0  0  0
 29 31  1  0  0  0  0
 29  8  1  0  0  0  0
 31 30  1  6  0  0  0
 32 33  2  0  0  0  0
 33 31  1  0  0  0  0
 33 34  1  0  0  0  0
 34 36  1  0  0  0  0
 36 35  1  6  0  0  0
 36 39  1  0  0  0  0
 37 39  1  0  0  0  0
 39 38  1  0  0  0  0
 41 40  1  0  0  0  0
M  END
>  <MODEL>
7

>  <REMARK>
 VINA RESULT:      -8.2      2.680      7.924
  Name = 
  7 active torsions:
  status: ('A' for Active; 'I' for Inactive)
    1  A    between atoms: C_7  and  C_20
    2  A    between atoms: C_7  and  C_34
    3  A    between atoms: O_12  and  C_18
    4  A    between atoms: N_13  and  C_18
    5  A    between atoms: C_18  and  C_39
    6  A    between atoms: C_20  and  C_39
    7  A    between atoms: C_34  and  C_40
                            x       y       z     vdW  Elec       q    Type
                         _______ _______ _______ _____ _____    ______ ____

>  <TORSDO>
F 7

$$$$
=
 OpenBabel11062415533D

 41 48  0  0  1  0  0  0  0  0999 V2000
  189.0600  179.3720  138.1920 N   0  0  0  0  0  2  0  0  0  0  0  0
  184.3920  176.4740  137.2010 C   0  0  0  0  0  0  0  0  0  0  0  0
  187.5980  177.9040  139.2220 C   0  0  0  0  0  2  0  0  0  0  0  0
  185.6420  176.3990  136.3820 C   0  0  2  0  0  3  0  0  0  0  0  0
  184.9970  173.8100  136.2740 C   0  0  0  0  0  2  0  0  0  0  0  0
  188.8780  178.5950  139.3530 N   0  0  0  0  0  2  0  0  0  0  0  0
  187.3090  174.7020  136.2080 C   0  0  0  0  0  0  0  0  0  0  0  0
  182.8710  178.8170  139.3500 N   0  0  0  0  0  0  0  0  0  0  0  0
  189.0800  175.6770  137.5240 C   0  0  0  0  0  3  0  0  0  0  0  0
  184.7510  178.6920  138.2760 C   0  0  0  0  0  0  0  0  0  0  0  0
  187.1230  178.0780  137.8000 C   0  0  0  0  0  0  0  0  0  0  0  0
  189.8930  174.5750  137.2190 C   0  0  0  0  0  3  0  0  0  0  0  0
  187.7820  175.7170  137.0020 C   0  0  0  0  0  0  0  0  0  0  0  0
  182.2770  175.5010  137.8530 C   0  0  0  0  0  0  0  0  0  0  0  0
  182.8860  177.6400  138.6940 C   0  0  0  0  0  0  0  0  0  0  0  0
  189.4080  173.5410  136.3990 C   0  0  0  0  0  3  0  0  0  0  0  0
  185.9110  174.9670  135.7790 C   0  0  2  0  0  3  0  0  0  0  0  0
  188.1030  173.6010  135.8840 C   0  0  0  0  0  3  0  0  0  0  0  0
  183.4330  175.4790  137.1340 C   0  0  0  0  0  0  0  0  0  0  0  0
  188.2980  178.7360  137.1330 C   0  0  0  0  0  2  0  0  0  0  0  0
  182.5780  173.3710  136.8430 N   0  0  0  0  0  0  0  0  0  0  0  0
  184.0670  177.5510  138.0010 C   0  0  0  0  0  0  0  0  0  0  0  0
  184.0060  179.4730  139.0970 N   0  0  0  0  0  0  0  0  0  0  0  0
  186.8320  176.7660  137.1710 N   0  0  0  0  0  0  0  0  0  0  0  0
  186.0230  179.0030  137.7910 O   0  0  0  0  0  0  0  0  0  0  0  0
  181.9370  176.5990  138.6760 C   0  0  0  0  0  3  0  0  0  0  0  0
  183.6270  174.2530  136.5090 N   0  0  0  0  0  0  0  0  0  0  0  0
  181.6350  174.1690  137.6730 C   0  0  0  0  0  3  0  0  0  0  0  0
  181.8200  179.2900  140.2420 C   0  0  2  0  0  3  0  0  0  0  0  0
  180.2950  178.2660  141.8040 O   0  0  0  0  0  1  0  0  0  0  0  0
  181.6360  178.3250  141.4150 C   0  0  2  0  0  3  0  0  0  0  0  0
  181.9520  179.3400  143.6180 C   0  0  0  0  0  2  0  0  0  0  0  0
  182.5030  178.7140  142.5760 C   0  0  0  0  0  0  0  0  0  0  0  0
  183.9210  178.2260  142.6650 C   0  0  0  0  0  2  0  0  0  0  0  0
  185.6800  179.7530  142.0930 O   0  0  0  0  0  1  0  0  0  0  0  0
  184.8550  179.3300  143.1400 C   0  0  2  0  0  3  0  0  0  0  0  0
  186.4240  177.5820  143.9870 C   0  0  0  0  0  1  0  0  0  0  0  0
  184.8300  178.6280  145.5730 C   0  0  0  0  0  1  0  0  0  0  0  0
  185.6840  178.8580  144.3350 C   0  0  0  0  0  3  0  0  0  0  0  0
  180.6270  179.4500  139.5290 O   0  0  0  0  0  0  0  0  0  0  0  0
  180.6140  180.7940  139.1480 C   0  0  0  0  0  1  0  0  0  0  0  0
  1  6  1  0  0  0  0
  2 22  1  0  0  0  0
  3  6  1  0  0  0  0
  4 24  1  0  0  0  0
  4  2  1  1  0  0  0
  5 27  1  0  0  0  0
  7 13  1  0  0  0  0
  8 29  1  0  0  0  0
 10 23  2  0  0  0  0
 11  3  1  0  0  0  0
 12  9  1  0  0  0  0
 13 24  1  0  0  0  0
 13  9  2  0  0  0  0
 14 26  2  0  0  0  0
 15  8  1  0  0  0  0
 16 12  2  0  0  0  0
 17  7  1  0  0  0  0
 17  5  1  1  0  0  0
 17  4  1  0  0  0  0
 18  7  2  0  0  0  0
 18 16  1  0  0  0  0
 19  2  2  0  0  0  0
 19 14  1  0  0  0  0
 20 11  1  0  0  0  0
 20  1  1  0  0  0  0
 21 28  2  0  0  0  0
 22 10  1  0  0  0  0
 22 15  2  0  0  0  0
 23  8  1  0  0  0  0
 24 11  1  0  0  0  0
 25 11  1  0  0  0  0
 25 10  1  0  0  0  0
 26 15  1  0  0  0  0
 27 21  1  0  0  0  0
 27 19  1  0  0  0  0
 28 14  1  0  0  0  0
 29 40  1  6  0  0  0
 29 31  1  0  0  0  0
 31 30  1  1  0  0  0
 31 33  1  0  0  0  0
 33 34  1  0  0  0  0
 33 32  2  0  0  0  0
 34 36  1  0  0  0  0
 36 35  1  6  0  0  0
 36 39  1  0  0  0  0
 37 39  1  0  0  0  0
 39 38  1  0  0  0  0
 41 40  1  0  0  0  0
M  END
>  <MODEL>
8

>  <REMARK>
 VINA RESULT:      -8.1      3.549      8.210
  Name = 
  7 active torsions:
  status: ('A' for Active; 'I' for Inactive)
    1  A    between atoms: C_7  and  C_20
    2  A    between atoms: C_7  and  C_34
    3  A    between atoms: O_12  and  C_18
    4  A    between atoms: N_13  and  C_18
    5  A    between atoms: C_18  and  C_39
    6  A    between atoms: C_20  and  C_39
    7  A    between atoms: C_34  and  C_40
                            x       y       z     vdW  Elec       q    Type
                         _______ _______ _______ _____ _____    ______ ____

>  <TORSDO>
F 7

$$$$
=
 OpenBabel11062415533D

 41 48  0  0  1  0  0  0  0  0999 V2000
  192.0380  176.2800  144.5800 N   0  0  0  0  0  2  0  0  0  0  0  0
  186.7760  177.5140  143.1780 C   0  0  0  0  0  0  0  0  0  0  0  0
  190.7180  178.0660  143.9300 C   0  0  0  0  0  2  0  0  0  0  0  0
  187.1940  176.8540  144.4530 C   0  0  2  0  0  3  0  0  0  0  0  0
  185.2660  178.3930  145.4730 C   0  0  0  0  0  2  0  0  0  0  0  0
  192.0350  177.6800  144.4280 N   0  0  0  0  0  2  0  0  0  0  0  0
  187.3030  177.6770  146.6890 C   0  0  0  0  0  0  0  0  0  0  0  0
  188.0680  177.8410  139.9150 N   0  0  0  0  0  0  0  0  0  0  0  0
  189.6790  178.0250  146.9240 C   0  0  0  0  0  3  0  0  0  0  0  0
  188.7660  176.9790  141.7790 C   0  0  0  0  0  0  0  0  0  0  0  0
  189.8130  176.8630  144.0420 C   0  0  0  0  0  0  0  0  0  0  0  0
  189.4740  178.4210  148.2540 C   0  0  0  0  0  3  0  0  0  0  0  0
  188.5690  177.6540  146.1570 C   0  0  0  0  0  0  0  0  0  0  0  0
  185.1070  178.7310  141.9220 C   0  0  0  0  0  0  0  0  0  0  0  0
  187.1120  178.0480  140.8410 C   0  0  0  0  0  0  0  0  0  0  0  0
  188.1780  178.4360  148.7980 C   0  0  0  0  0  3  0  0  0  0  0  0
  186.2940  177.2460  145.6870 C   0  0  2  0  0  3  0  0  0  0  0  0
  187.0770  178.0590  148.0120 C   0  0  0  0  0  3  0  0  0  0  0  0
  185.5390  178.1210  143.0600 C   0  0  0  0  0  0  0  0  0  0  0  0
  190.6590  175.8750  144.7930 C   0  0  0  0  0  2  0  0  0  0  0  0
  183.6460  179.2310  143.7290 N   0  0  0  0  0  0  0  0  0  0  0  0
  187.5350  177.4980  142.0250 C   0  0  0  0  0  0  0  0  0  0  0  0
  189.0850  177.1820  140.4770 N   0  0  0  0  0  0  0  0  0  0  0  0
  188.5860  177.1900  144.8090 N   0  0  0  0  0  0  0  0  0  0  0  0
  189.5730  176.3430  142.7230 O   0  0  0  0  0  0  0  0  0  0  0  0
  185.8780  178.7210  140.7370 C   0  0  0  0  0  3  0  0  0  0  0  0
  184.6910  178.3740  144.1320 N   0  0  0  0  0  0  0  0  0  0  0  0
  183.8440  179.4410  142.2690 C   0  0  0  0  0  3  0  0  0  0  0  0
  188.0410  178.3040  138.5340 C   0  0  2  0  0  3  0  0  0  0  0  0
  188.5900  177.3100  136.4060 O   0  0  0  0  0  1  0  0  0  0  0  0
  187.8480  177.1260  137.5760 C   0  0  2  0  0  3  0  0  0  0  0  0
  185.5860  177.9840  137.2170 C   0  0  0  0  0  2  0  0  0  0  0  0
  186.3970  176.9250  137.2520 C   0  0  0  0  0  0  0  0  0  0  0  0
  185.9030  175.5920  136.7680 C   0  0  0  0  0  2  0  0  0  0  0  0
  187.6180  174.3970  135.5920 O   0  0  0  0  0  1  0  0  0  0  0  0
  186.9990  174.5380  136.8380 C   0  0  2  0  0  3  0  0  0  0  0  0
  186.6200  172.1390  136.2610 C   0  0  0  0  0  1  0  0  0  0  0  0
  184.9630  173.3010  137.6940 C   0  0  0  0  0  1  0  0  0  0  0  0
  186.4350  173.2040  137.3250 C   0  0  0  0  0  3  0  0  0  0  0  0
  189.2190  179.0020  138.2430 O   0  0  0  0  0  0  0  0  0  0  0  0
  188.8360  179.9820  137.3240 C   0  0  0  0  0  1  0  0  0  0  0  0
  1 20  1  0  0  0  0
  3 11  1  0  0  0  0
  3  6  1  0  0  0  0
  4  2  1  6  0  0  0
  4 24  1  0  0  0  0
  4 17  1  0  0  0  0
  6  1  1  0  0  0  0
  7 18  1  0  0  0  0
  8 23  1  0  0  0  0
  8 15  1  0  0  0  0
  9 12  2  0  0  0  0
 10 22  1  0  0  0  0
 10 25  1  0  0  0  0
 11 20  1  0  0  0  0
 11 24  1  0  0  0  0
 12 16  1  0  0  0  0
 13  7  2  0  0  0  0
 13  9  1  0  0  0  0
 14 28  1  0  0  0  0
 14 19  2  0  0  0  0
 15 22  1  0  0  0  0
 17  5  1  6  0  0  0
 17  7  1  0  0  0  0
 18 16  2  0  0  0  0
 19  2  1  0  0  0  0
 19 27  1  0  0  0  0
 21 27  1  0  0  0  0
 22  2  2  0  0  0  0
 23 10  2  0  0  0  0
 24 13  1  0  0  0  0
 25 11  1  0  0  0  0
 26 15  2  0  0  0  0
 26 14  1  0  0  0  0
 27  5  1  0  0  0  0
 28 21  2  0  0  0  0
 29 40  1  6  0  0  0
 29  8  1  0  0  0  0
 31 30  1  6  0  0  0
 31 29  1  0  0  0  0
 32 33  2  0  0  0  0
 33 31  1  0  0  0  0
 34 36  1  0  0  0  0
 34 33  1  0  0  0  0
 36 35  1  6  0  0  0
 36 39  1  0  0  0  0
 37 39  1  0  0  0  0
 39 38  1  0  0  0  0
 41 40  1  0  0  0  0
M  END
>  <MODEL>
9

>  <REMARK>
 VINA RESULT:      -8.1      2.992      7.259
  Name = 
  7 active torsions:
  status: ('A' for Active; 'I' for Inactive)
    1  A    between atoms: C_7  and  C_20
    2  A    between atoms: C_7  and  C_34
    3  A    between atoms: O_12  and  C_18
    4  A    between atoms: N_13  and  C_18
    5  A    between atoms: C_18  and  C_39
    6  A    between atoms: C_20  and  C_39
    7  A    between atoms: C_34  and  C_40
                            x       y       z     vdW  Elec       q    Type
                         _______ _______ _______ _____ _____    ______ ____

>  <TORSDO>
F 7

$$$$
