=
 OpenBabel11062413533D

 25 27  0  0  1  0  0  0  0  0999 V2000
  191.5430  176.7150  145.5820 C   0  0  1  0  0  3  0  0  0  0  0  0
  188.3920  177.4780  143.8240 C   0  0  0  0  0  0  0  0  0  0  0  0
  189.1700  177.3400  146.6280 C   0  0  0  0  0  2  0  0  0  0  0  0
  187.3420  177.7220  144.8960 C   0  0  1  0  0  3  0  0  0  0  0  0
  192.0140  176.5490  144.2520 O   0  0  0  0  0  0  0  0  0  0  0  0
  190.1210  177.1080  145.4910 C   0  0  0  0  0  0  0  0  0  0  0  0
  190.9260  176.8300  143.3840 C   0  0  1  0  0  3  0  0  0  0  0  0
  188.0200  178.2510  146.1790 C   0  0  0  0  0  2  0  0  0  0  0  0
  189.7660  177.1560  144.2410 C   0  0  0  0  0  0  0  0  0  0  0  0
  188.0930  177.4740  142.5990 O   0  0  0  0  0  0  0  0  0  0  0  0
  184.2340  178.6530  146.0280 C   0  0  0  0  0  2  0  0  0  0  0  0
  186.2120  178.6600  144.4260 C   0  0  0  0  0  3  0  0  0  0  0  0
  183.8550  178.5850  143.4920 C   0  0  0  0  0  2  0  0  0  0  0  0
  185.5120  179.3720  145.6040 C   0  0  0  0  0  2  0  0  0  0  0  0
  185.2160  177.8970  143.5310 C   0  0  0  0  0  2  0  0  0  0  0  0
  183.2110  178.6200  144.8850 C   0  0  0  0  0  2  0  0  0  0  0  0
  192.3940  175.7150  147.7060 C   0  0  0  0  0  1  0  0  0  0  0  0
  192.4650  174.4900  145.6660 O   0  0  0  0  0  1  0  0  0  0  0  0
  191.7150  175.4250  146.3830 C   0  0  2  0  0  3  0  0  0  0  0  0
  191.2710  178.0120  142.4920 C   0  0  0  0  0  2  0  0  0  0  0  0
  191.6890  177.5250  141.1150 C   0  0  0  0  0  2  0  0  0  0  0  0
  190.5500  176.7730  140.4490 C   0  0  0  0  0  2  0  0  0  0  0  0
  190.5710  177.1650  138.0970 O   0  0  0  0  0  0  0  0  0  0  0  0
  190.0960  177.4820  139.2180 C   0  0  0  0  0  0  0  0  0  0  0  0
  189.1720  178.5150  139.3130 O   0  0  0  0  0  1  0  0  0  0  0  0
  1 19  1  1  0  0  0
  2  9  1  0  0  0  0
  2  4  1  0  0  0  0
  4 12  1  6  0  0  0
  4  8  1  0  0  0  0
  5  1  1  0  0  0  0
  6  1  1  0  0  0  0
  6  3  1  0  0  0  0
  7 20  1  6  0  0  0
  7  9  1  0  0  0  0
  7  5  1  0  0  0  0
  8  3  1  0  0  0  0
  9  6  2  0  0  0  0
 10  2  2  0  0  0  0
 12 14  1  0  0  0  0
 13 15  1  0  0  0  0
 13 16  1  0  0  0  0
 14 11  1  0  0  0  0
 15 12  1  0  0  0  0
 16 11  1  0  0  0  0
 18 19  1  0  0  0  0
 19 17  1  1  0  0  0
 21 20  1  0  0  0  0
 22 21  1  0  0  0  0
 23 24  2  0  0  0  0
 24 25  1  0  0  0  0
 24 22  1  0  0  0  0
M  END
>  <MODEL>
1

>  <REMARK>
 VINA RESULT:      -7.9      0.000      0.000
  Name = 
  6 active torsions:
  status: ('A' for Active; 'I' for Inactive)
    1  A    between atoms: C_1  and  C_22
    2  A    between atoms: C_5  and  C_11
    3  A    between atoms: C_5  and  C_19
    4  A    between atoms: C_7  and  C_14
    5  A    between atoms: C_13  and  C_18
    6  A    between atoms: C_18  and  C_19
                            x       y       z     vdW  Elec       q    Type
                         _______ _______ _______ _____ _____    ______ ____

>  <TORSDO>
F 6

$$$$
=
 OpenBabel11062413533D

 25 27  0  0  1  0  0  0  0  0999 V2000
  190.2130  176.5320  143.4840 C   0  0  1  0  0  3  0  0  0  0  0  0
  188.3920  178.3220  140.8230 C   0  0  0  0  0  0  0  0  0  0  0  0
  190.8670  176.7860  140.9110 C   0  0  0  0  0  2  0  0  0  0  0  0
  189.2240  178.1870  139.5580 C   0  0  1  0  0  3  0  0  0  0  0  0
  189.1330  177.0130  144.2730 O   0  0  0  0  0  0  0  0  0  0  0  0
  189.9740  176.9900  142.1000 C   0  0  0  0  0  0  0  0  0  0  0  0
  188.2700  177.7340  143.4070 C   0  0  1  0  0  3  0  0  0  0  0  0
  190.0510  176.8830  139.6150 C   0  0  0  0  0  2  0  0  0  0  0  0
  188.8780  177.6890  142.0600 C   0  0  0  0  0  0  0  0  0  0  0  0
  187.3430  179.0200  140.8480 O   0  0  0  0  0  0  0  0  0  0  0  0
  187.9280  175.9590  137.2850 C   0  0  0  0  0  2  0  0  0  0  0  0
  188.3770  178.2620  138.2720 C   0  0  0  0  0  3  0  0  0  0  0  0
  188.5730  177.9220  135.7660 C   0  0  0  0  0  2  0  0  0  0  0  0
  187.3810  177.0870  138.1550 C   0  0  0  0  0  2  0  0  0  0  0  0
  189.2880  178.3800  137.0340 C   0  0  0  0  0  2  0  0  0  0  0  0
  188.1870  176.4400  135.8510 C   0  0  0  0  0  2  0  0  0  0  0  0
  191.6800  176.7260  145.4960 C   0  0  0  0  0  1  0  0  0  0  0  0
  191.6610  178.4280  143.8310 O   0  0  0  0  0  1  0  0  0  0  0  0
  191.5470  177.0490  144.0210 C   0  0  2  0  0  3  0  0  0  0  0  0
  186.8970  177.0810  143.3870 C   0  0  0  0  0  2  0  0  0  0  0  0
  185.8890  177.9570  144.1120 C   0  0  0  0  0  2  0  0  0  0  0  0
  186.1250  177.9100  145.6120 C   0  0  0  0  0  2  0  0  0  0  0  0
  185.6610  179.5300  147.2980 O   0  0  0  0  0  1  0  0  0  0  0  0
  185.2300  178.8710  146.3170 C   0  0  0  0  0  0  0  0  0  0  0  0
  183.9100  179.0160  145.9130 O   0  0  0  0  0  0  0  0  0  0  0  0
  1 19  1  1  0  0  0
  1  5  1  0  0  0  0
  2 10  2  0  0  0  0
  2  9  1  0  0  0  0
  3  6  1  0  0  0  0
  4 12  1  6  0  0  0
  4  8  1  0  0  0  0
  4  2  1  0  0  0  0
  6  1  1  0  0  0  0
  7 20  1  6  0  0  0
  7  5  1  0  0  0  0
  8  3  1  0  0  0  0
  9  6  2  0  0  0  0
  9  7  1  0  0  0  0
 11 14  1  0  0  0  0
 13 16  1  0  0  0  0
 13 15  1  0  0  0  0
 14 12  1  0  0  0  0
 15 12  1  0  0  0  0
 16 11  1  0  0  0  0
 18 19  1  0  0  0  0
 19 17  1  1  0  0  0
 20 21  1  0  0  0  0
 21 22  1  0  0  0  0
 22 24  1  0  0  0  0
 24 23  1  0  0  0  0
 25 24  2  0  0  0  0
M  END
>  <MODEL>
2

>  <REMARK>
 VINA RESULT:      -7.6      2.528      6.440
  Name = 
  6 active torsions:
  status: ('A' for Active; 'I' for Inactive)
    1  A    between atoms: C_1  and  C_22
    2  A    between atoms: C_5  and  C_11
    3  A    between atoms: C_5  and  C_19
    4  A    between atoms: C_7  and  C_14
    5  A    between atoms: C_13  and  C_18
    6  A    between atoms: C_18  and  C_19
                            x       y       z     vdW  Elec       q    Type
                         _______ _______ _______ _____ _____    ______ ____

>  <TORSDO>
F 6

$$$$
=
 OpenBabel11062413533D

 25 27  0  0  1  0  0  0  0  0999 V2000
  188.1680  178.2960  139.5850 C   0  0  1  0  0  3  0  0  0  0  0  0
  188.1500  177.6730  143.2200 C   0  0  0  0  0  0  0  0  0  0  0  0
  190.2360  177.7760  141.1880 C   0  0  0  0  0  2  0  0  0  0  0  0
  189.5890  177.3890  143.6210 C   0  0  1  0  0  3  0  0  0  0  0  0
  186.7670  178.4070  139.7970 O   0  0  0  0  0  0  0  0  0  0  0  0
  188.7850  178.0310  140.9020 C   0  0  0  0  0  0  0  0  0  0  0  0
  186.5370  178.2170  141.1860 C   0  0  1  0  0  3  0  0  0  0  0  0
  190.5520  178.1100  142.6520 C   0  0  0  0  0  2  0  0  0  0  0  0
  187.8560  177.9680  141.8090 C   0  0  0  0  0  0  0  0  0  0  0  0
  187.2070  177.5870  144.0520 O   0  0  0  0  0  0  0  0  0  0  0  0
  191.8350  176.4190  146.0350 C   0  0  0  0  0  2  0  0  0  0  0  0
  189.8860  177.7570  145.0890 C   0  0  0  0  0  3  0  0  0  0  0  0
  189.7150  176.7940  147.4290 C   0  0  0  0  0  2  0  0  0  0  0  0
  191.3980  177.7390  145.4050 C   0  0  0  0  0  2  0  0  0  0  0  0
  189.0810  176.8530  146.0430 C   0  0  0  0  0  2  0  0  0  0  0  0
  191.1200  176.1800  147.3710 C   0  0  0  0  0  2  0  0  0  0  0  0
  189.5530  177.6270  137.6180 C   0  0  0  0  0  1  0  0  0  0  0  0
  187.3310  176.8110  137.8800 O   0  0  0  0  0  1  0  0  0  0  0  0
  188.4780  177.1800  138.5880 C   0  0  2  0  0  3  0  0  0  0  0  0
  185.9030  179.4660  141.7780 C   0  0  0  0  0  2  0  0  0  0  0  0
  184.6180  179.1070  142.5040 C   0  0  0  0  0  2  0  0  0  0  0  0
  184.5550  179.8070  143.8510 C   0  0  0  0  0  2  0  0  0  0  0  0
  182.5080  178.7070  144.3850 O   0  0  0  0  0  0  0  0  0  0  0  0
  183.6420  179.0830  144.7800 C   0  0  0  0  0  0  0  0  0  0  0  0
  184.0300  178.8490  146.0930 O   0  0  0  0  0  1  0  0  0  0  0  0
  1 19  1  6  0  0  0
  1  5  1  0  0  0  0
  1  6  1  0  0  0  0
  2  4  1  0  0  0  0
  2 10  2  0  0  0  0
  3  8  1  0  0  0  0
  4 12  1  1  0  0  0
  5  7  1  0  0  0  0
  6  3  1  0  0  0  0
  6  9  2  0  0  0  0
  7 20  1  1  0  0  0
  7  9  1  0  0  0  0
  8  4  1  0  0  0  0
  9  2  1  0  0  0  0
 11 16  1  0  0  0  0
 12 14  1  0  0  0  0
 12 15  1  0  0  0  0
 14 11  1  0  0  0  0
 15 13  1  0  0  0  0
 16 13  1  0  0  0  0
 18 19  1  0  0  0  0
 19 17  1  6  0  0  0
 20 21  1  0  0  0  0
 21 22  1  0  0  0  0
 22 24  1  0  0  0  0
 23 24  2  0  0  0  0
 24 25  1  0  0  0  0
M  END
>  <MODEL>
3

>  <REMARK>
 VINA RESULT:      -7.6      2.284      6.820
  Name = 
  6 active torsions:
  status: ('A' for Active; 'I' for Inactive)
    1  A    between atoms: C_1  and  C_22
    2  A    between atoms: C_5  and  C_11
    3  A    between atoms: C_5  and  C_19
    4  A    between atoms: C_7  and  C_14
    5  A    between atoms: C_13  and  C_18
    6  A    between atoms: C_18  and  C_19
                            x       y       z     vdW  Elec       q    Type
                         _______ _______ _______ _____ _____    ______ ____

>  <TORSDO>
F 6

$$$$
=
 OpenBabel11062413533D

 25 27  0  0  1  0  0  0  0  0999 V2000
  188.6540  177.9430  146.4980 C   0  0  1  0  0  3  0  0  0  0  0  0
  186.5480  177.9330  143.4710 C   0  0  0  0  0  0  0  0  0  0  0  0
  186.0460  178.4660  146.2910 C   0  0  0  0  0  2  0  0  0  0  0  0
  185.1320  178.2570  143.9230 C   0  0  1  0  0  3  0  0  0  0  0  0
  189.6560  177.5710  145.5620 O   0  0  0  0  0  0  0  0  0  0  0  0
  187.4000  178.1290  145.7380 C   0  0  0  0  0  0  0  0  0  0  0  0
  189.0410  177.5310  144.2830 C   0  0  1  0  0  3  0  0  0  0  0  0
  185.1790  179.1160  145.2060 C   0  0  0  0  0  2  0  0  0  0  0  0
  187.6160  177.8770  144.4810 C   0  0  0  0  0  0  0  0  0  0  0  0
  186.8050  177.6440  142.2710 O   0  0  0  0  0  0  0  0  0  0  0  0
  181.8080  178.9410  143.3850 C   0  0  0  0  0  2  0  0  0  0  0  0
  184.2910  178.9320  142.8210 C   0  0  0  0  0  3  0  0  0  0  0  0
  182.6020  178.3670  141.0150 C   0  0  0  0  0  2  0  0  0  0  0  0
  183.1080  179.7410  143.3990 C   0  0  0  0  0  2  0  0  0  0  0  0
  183.8320  177.8910  141.7820 C   0  0  0  0  0  2  0  0  0  0  0  0
  181.4050  178.5640  141.9540 C   0  0  0  0  0  2  0  0  0  0  0  0
  188.1430  177.5160  148.9050 C   0  0  0  0  0  1  0  0  0  0  0  0
  189.6740  176.1310  147.7180 O   0  0  0  0  0  1  0  0  0  0  0  0
  188.4990  176.8740  147.5780 C   0  0  2  0  0  3  0  0  0  0  0  0
  189.7050  178.5420  143.3600 C   0  0  0  0  0  2  0  0  0  0  0  0
  191.2160  178.4050  143.4340 C   0  0  0  0  0  2  0  0  0  0  0  0
  191.6610  177.0890  142.8200 C   0  0  0  0  0  2  0  0  0  0  0  0
  192.0850  177.7640  140.5720 O   0  0  0  0  0  0  0  0  0  0  0  0
  191.3850  177.0700  141.3550 C   0  0  0  0  0  0  0  0  0  0  0  0
  190.3350  176.3110  140.8560 O   0  0  0  0  0  1  0  0  0  0  0  0
  1 19  1  1  0  0  0
  2  4  1  0  0  0  0
  2  9  1  0  0  0  0
  4 12  1  6  0  0  0
  4  8  1  0  0  0  0
  5  1  1  0  0  0  0
  6  3  1  0  0  0  0
  6  1  1  0  0  0  0
  7 20  1  6  0  0  0
  7  9  1  0  0  0  0
  7  5  1  0  0  0  0
  8  3  1  0  0  0  0
  9  6  2  0  0  0  0
 10  2  2  0  0  0  0
 11 14  1  0  0  0  0
 12 14  1  0  0  0  0
 13 15  1  0  0  0  0
 13 16  1  0  0  0  0
 15 12  1  0  0  0  0
 16 11  1  0  0  0  0
 19 18  1  0  0  0  0
 19 17  1  1  0  0  0
 20 21  1  0  0  0  0
 22 21  1  0  0  0  0
 23 24  2  0  0  0  0
 24 22  1  0  0  0  0
 25 24  1  0  0  0  0
M  END
>  <MODEL>
4

>  <REMARK>
 VINA RESULT:      -7.5      2.039      2.944
  Name = 
  6 active torsions:
  status: ('A' for Active; 'I' for Inactive)
    1  A    between atoms: C_1  and  C_22
    2  A    between atoms: C_5  and  C_11
    3  A    between atoms: C_5  and  C_19
    4  A    between atoms: C_7  and  C_14
    5  A    between atoms: C_13  and  C_18
    6  A    between atoms: C_18  and  C_19
                            x       y       z     vdW  Elec       q    Type
                         _______ _______ _______ _____ _____    ______ ____

>  <TORSDO>
F 6

$$$$
=
 OpenBabel11062413533D

 25 27  0  0  1  0  0  0  0  0999 V2000
  184.8500  179.2640  141.0640 C   0  0  1  0  0  3  0  0  0  0  0  0
  187.1100  177.2650  143.1860 C   0  0  0  0  0  0  0  0  0  0  0  0
  187.2710  178.3140  140.4720 C   0  0  0  0  0  2  0  0  0  0  0  0
  188.3380  176.9550  142.3450 C   0  0  1  0  0  3  0  0  0  0  0  0
  184.0170  179.1780  142.2130 O   0  0  0  0  0  0  0  0  0  0  0  0
  186.1040  178.5510  141.3850 C   0  0  0  0  0  0  0  0  0  0  0  0
  184.7330  178.4420  143.1940 C   0  0  1  0  0  3  0  0  0  0  0  0
  188.5440  178.0690  141.2930 C   0  0  0  0  0  2  0  0  0  0  0  0
  186.0300  178.0680  142.5900 C   0  0  0  0  0  0  0  0  0  0  0  0
  186.9700  176.7900  144.3450 O   0  0  0  0  0  0  0  0  0  0  0  0
  190.3620  178.8780  144.3490 C   0  0  0  0  0  2  0  0  0  0  0  0
  189.6070  176.7390  143.1940 C   0  0  0  0  0  3  0  0  0  0  0  0
  192.0730  177.3310  143.2280 C   0  0  0  0  0  2  0  0  0  0  0  0
  189.5910  177.5690  144.4960 C   0  0  0  0  0  2  0  0  0  0  0  0
  190.8690  177.0020  142.3500 C   0  0  0  0  0  2  0  0  0  0  0  0
  191.8400  178.6170  144.0300 C   0  0  0  0  0  2  0  0  0  0  0  0
  183.4610  179.7370  139.0440 C   0  0  0  0  0  1  0  0  0  0  0  0
  183.2280  177.6860  140.2330 O   0  0  0  0  0  1  0  0  0  0  0  0
  184.1580  178.6550  139.8460 C   0  0  2  0  0  3  0  0  0  0  0  0
  184.9550  179.3080  144.4250 C   0  0  0  0  0  2  0  0  0  0  0  0
  183.9950  178.9040  145.5300 C   0  0  0  0  0  2  0  0  0  0  0  0
  184.7160  178.0920  146.5920 C   0  0  0  0  0  2  0  0  0  0  0  0
  187.0520  178.2590  147.0430 O   0  0  0  0  0  0  0  0  0  0  0  0
  185.9240  178.8170  147.0800 C   0  0  0  0  0  0  0  0  0  0  0  0
  185.8020  180.0970  147.6050 O   0  0  0  0  0  1  0  0  0  0  0  0
  1 19  1  6  0  0  0
  1  6  1  0  0  0  0
  1  5  1  0  0  0  0
  2 10  2  0  0  0  0
  3  8  1  0  0  0  0
  3  6  1  0  0  0  0
  4  2  1  0  0  0  0
  4 12  1  1  0  0  0
  5  7  1  0  0  0  0
  6  9  2  0  0  0  0
  7 20  1  1  0  0  0
  8  4  1  0  0  0  0
  9  2  1  0  0  0  0
  9  7  1  0  0  0  0
 11 14  1  0  0  0  0
 12 14  1  0  0  0  0
 13 16  1  0  0  0  0
 15 12  1  0  0  0  0
 15 13  1  0  0  0  0
 16 11  1  0  0  0  0
 19 17  1  1  0  0  0
 19 18  1  0  0  0  0
 20 21  1  0  0  0  0
 21 22  1  0  0  0  0
 22 24  1  0  0  0  0
 23 24  2  0  0  0  0
 24 25  1  0  0  0  0
M  END
>  <MODEL>
5

>  <REMARK>
 VINA RESULT:      -7.5      3.048      7.594
  Name = 
  6 active torsions:
  status: ('A' for Active; 'I' for Inactive)
    1  A    between atoms: C_1  and  C_22
    2  A    between atoms: C_5  and  C_11
    3  A    between atoms: C_5  and  C_19
    4  A    between atoms: C_7  and  C_14
    5  A    between atoms: C_13  and  C_18
    6  A    between atoms: C_18  and  C_19
                            x       y       z     vdW  Elec       q    Type
                         _______ _______ _______ _____ _____    ______ ____

>  <TORSDO>
F 6

$$$$
=
 OpenBabel11062413533D

 25 27  0  0  1  0  0  0  0  0999 V2000
  191.7400  176.8580  138.1920 C   0  0  1  0  0  3  0  0  0  0  0  0
  189.2140  177.4530  140.8130 C   0  0  0  0  0  0  0  0  0  0  0  0
  192.0420  176.7490  140.8400 C   0  0  0  0  0  2  0  0  0  0  0  0
  189.9050  177.2190  142.1460 C   0  0  1  0  0  3  0  0  0  0  0  0
  190.6330  177.1260  137.3420 O   0  0  0  0  0  0  0  0  0  0  0  0
  191.2600  176.9940  139.5830 C   0  0  0  0  0  0  0  0  0  0  0  0
  189.5230  177.4140  138.1780 C   0  0  1  0  0  3  0  0  0  0  0  0
  191.4150  177.5180  142.0100 C   0  0  0  0  0  2  0  0  0  0  0  0
  189.9940  177.2930  139.5750 C   0  0  0  0  0  0  0  0  0  0  0  0
  187.9810  177.7070  140.7470 O   0  0  0  0  0  0  0  0  0  0  0  0
  190.3720  177.5130  145.5380 C   0  0  0  0  0  2  0  0  0  0  0  0
  189.2710  178.0220  143.2990 C   0  0  0  0  0  3  0  0  0  0  0  0
  187.8210  177.7000  145.3550 C   0  0  0  0  0  2  0  0  0  0  0  0
  190.3150  178.4680  144.3480 C   0  0  0  0  0  2  0  0  0  0  0  0
  188.1110  177.2300  143.9320 C   0  0  0  0  0  2  0  0  0  0  0  0
  189.0270  177.4640  146.2730 C   0  0  0  0  0  2  0  0  0  0  0  0
  192.9870  175.4170  136.5790 C   0  0  0  0  0  1  0  0  0  0  0  0
  191.2830  174.5020  137.9680 O   0  0  0  0  0  1  0  0  0  0  0  0
  192.2990  175.4610  137.9290 C   0  0  2  0  0  3  0  0  0  0  0  0
  189.0290  178.8280  137.9100 C   0  0  0  0  0  2  0  0  0  0  0  0
  187.8030  178.7930  137.0150 C   0  0  0  0  0  2  0  0  0  0  0  0
  186.9290  177.5980  137.3550 C   0  0  0  0  0  2  0  0  0  0  0  0
  185.6380  179.0040  138.7850 O   0  0  0  0  0  1  0  0  0  0  0  0
  185.6470  178.0410  137.9750 C   0  0  0  0  0  0  0  0  0  0  0  0
  184.4660  177.3710  137.6820 O   0  0  0  0  0  0  0  0  0  0  0  0
  1 19  1  1  0  0  0
  1  6  1  0  0  0  0
  2  4  1  0  0  0  0
  3  8  1  0  0  0  0
  4 12  1  1  0  0  0
  5  7  1  0  0  0  0
  5  1  1  0  0  0  0
  6  3  1  0  0  0  0
  7 20  1  6  0  0  0
  7  9  1  0  0  0  0
  8  4  1  0  0  0  0
  9  6  2  0  0  0  0
  9  2  1  0  0  0  0
 10  2  2  0  0  0  0
 11 16  1  0  0  0  0
 12 15  1  0  0  0  0
 12 14  1  0  0  0  0
 13 16  1  0  0  0  0
 14 11  1  0  0  0  0
 15 13  1  0  0  0  0
 19 17  1  6  0  0  0
 19 18  1  0  0  0  0
 21 22  1  0  0  0  0
 21 20  1  0  0  0  0
 22 24  1  0  0  0  0
 24 23  1  0  0  0  0
 25 24  2  0  0  0  0
M  END
>  <MODEL>
6

>  <REMARK>
 VINA RESULT:      -7.0      2.835      5.829
  Name = 
  6 active torsions:
  status: ('A' for Active; 'I' for Inactive)
    1  A    between atoms: C_1  and  C_22
    2  A    between atoms: C_5  and  C_11
    3  A    between atoms: C_5  and  C_19
    4  A    between atoms: C_7  and  C_14
    5  A    between atoms: C_13  and  C_18
    6  A    between atoms: C_18  and  C_19
                            x       y       z     vdW  Elec       q    Type
                         _______ _______ _______ _____ _____    ______ ____

>  <TORSDO>
F 6

$$$$
=
 OpenBabel11062413533D

 25 27  0  0  1  0  0  0  0  0999 V2000
  187.1860  178.4950  144.3310 C   0  0  1  0  0  3  0  0  0  0  0  0
  189.4260  177.3490  141.6350 C   0  0  0  0  0  0  0  0  0  0  0  0
  186.7260  178.4420  141.7040 C   0  0  0  0  0  2  0  0  0  0  0  0
  188.6530  177.4940  140.3340 C   0  0  1  0  0  3  0  0  0  0  0  0
  188.2870  178.1060  145.1420 O   0  0  0  0  0  0  0  0  0  0  0  0
  187.5740  178.2480  142.9270 C   0  0  0  0  0  0  0  0  0  0  0  0
  189.3060  177.6400  144.2690 C   0  0  1  0  0  3  0  0  0  0  0  0
  187.6160  178.6320  140.4690 C   0  0  0  0  0  2  0  0  0  0  0  0
  188.7730  177.7450  142.8930 C   0  0  0  0  0  0  0  0  0  0  0  0
  190.5750  176.8320  141.6630 O   0  0  0  0  0  0  0  0  0  0  0  0
  188.2490  178.2850  137.0140 C   0  0  0  0  0  2  0  0  0  0  0  0
  189.5700  177.7080  139.1120 C   0  0  0  0  0  3  0  0  0  0  0  0
  190.1950  176.6180  136.9100 C   0  0  0  0  0  2  0  0  0  0  0  0
  189.0600  178.8330  138.1850 C   0  0  0  0  0  2  0  0  0  0  0  0
  189.7780  176.3810  138.3580 C   0  0  0  0  0  2  0  0  0  0  0  0
  189.1020  177.3630  136.1330 C   0  0  0  0  0  2  0  0  0  0  0  0
  184.7190  178.6210  144.6980 C   0  0  0  0  0  1  0  0  0  0  0  0
  186.0690  177.1300  145.9740 O   0  0  0  0  0  1  0  0  0  0  0  0
  185.9310  177.7100  144.7100 C   0  0  2  0  0  3  0  0  0  0  0  0
  190.5480  178.5050  144.4190 C   0  0  0  0  0  2  0  0  0  0  0  0
  191.7410  177.6460  144.8010 C   0  0  0  0  0  2  0  0  0  0  0  0
  191.2820  176.3800  145.5050 C   0  0  0  0  0  2  0  0  0  0  0  0
  192.4310  176.0520  147.5680 O   0  0  0  0  0  0  0  0  0  0  0  0
  191.4190  176.5180  146.9830 C   0  0  0  0  0  0  0  0  0  0  0  0
  190.4160  177.1340  147.7190 O   0  0  0  0  0  1  0  0  0  0  0  0
  1 19  1  1  0  0  0
  1  5  1  0  0  0  0
  2 10  2  0  0  0  0
  2  9  1  0  0  0  0
  3  6  1  0  0  0  0
  4 12  1  6  0  0  0
  4  8  1  0  0  0  0
  4  2  1  0  0  0  0
  6  1  1  0  0  0  0
  7 20  1  6  0  0  0
  7  5  1  0  0  0  0
  8  3  1  0  0  0  0
  9  6  2  0  0  0  0
  9  7  1  0  0  0  0
 11 14  1  0  0  0  0
 13 15  1  0  0  0  0
 14 12  1  0  0  0  0
 15 12  1  0  0  0  0
 16 13  1  0  0  0  0
 16 11  1  0  0  0  0
 19 17  1  1  0  0  0
 19 18  1  0  0  0  0
 20 21  1  0  0  0  0
 21 22  1  0  0  0  0
 22 24  1  0  0  0  0
 24 23  2  0  0  0  0
 24 25  1  0  0  0  0
M  END
>  <MODEL>
7

>  <REMARK>
 VINA RESULT:      -7.0      2.168      6.513
  Name = 
  6 active torsions:
  status: ('A' for Active; 'I' for Inactive)
    1  A    between atoms: C_1  and  C_22
    2  A    between atoms: C_5  and  C_11
    3  A    between atoms: C_5  and  C_19
    4  A    between atoms: C_7  and  C_14
    5  A    between atoms: C_13  and  C_18
    6  A    between atoms: C_18  and  C_19
                            x       y       z     vdW  Elec       q    Type
                         _______ _______ _______ _____ _____    ______ ____

>  <TORSDO>
F 6

$$$$
=
 OpenBabel11062413533D

 25 27  0  0  1  0  0  0  0  0999 V2000
  186.3440  177.8570  142.5430 C   0  0  1  0  0  3  0  0  0  0  0  0
  189.8210  178.2370  143.7140 C   0  0  0  0  0  0  0  0  0  0  0  0
  187.2730  177.7490  145.0410 C   0  0  0  0  0  2  0  0  0  0  0  0
  189.7850  178.1310  145.2300 C   0  0  1  0  0  3  0  0  0  0  0  0
  186.9540  178.0830  141.2800 O   0  0  0  0  0  0  0  0  0  0  0  0
  187.4220  177.8790  143.5540 C   0  0  0  0  0  0  0  0  0  0  0  0
  188.3470  178.2360  141.5080 C   0  0  1  0  0  3  0  0  0  0  0  0
  188.5870  177.2570  145.6630 C   0  0  0  0  0  2  0  0  0  0  0  0
  188.5590  178.1120  142.9670 C   0  0  0  0  0  0  0  0  0  0  0  0
  190.8890  178.5010  143.0990 O   0  0  0  0  0  0  0  0  0  0  0  0
  191.7780  175.3580  144.8460 C   0  0  0  0  0  2  0  0  0  0  0  0
  191.1080  177.6100  145.8260 C   0  0  0  0  0  3  0  0  0  0  0  0
  191.9920  175.7980  147.3640 C   0  0  0  0  0  2  0  0  0  0  0  0
  191.9720  176.8710  144.7810 C   0  0  0  0  0  2  0  0  0  0  0  0
  190.8330  176.7460  147.0720 C   0  0  0  0  0  2  0  0  0  0  0  0
  192.2000  174.8050  146.2140 C   0  0  0  0  0  2  0  0  0  0  0  0
  183.9600  178.2680  143.1620 C   0  0  0  0  0  1  0  0  0  0  0  0
  185.1290  179.7770  141.7380 O   0  0  0  0  0  1  0  0  0  0  0  0
  185.2870  178.9220  142.8320 C   0  0  2  0  0  3  0  0  0  0  0  0
  189.1120  177.1480  140.7710 C   0  0  0  0  0  2  0  0  0  0  0  0
  189.9370  177.7560  139.6490 C   0  0  0  0  0  2  0  0  0  0  0  0
  189.3050  177.4550  138.3010 C   0  0  0  0  0  2  0  0  0  0  0  0
  189.0580  179.7070  137.5580 O   0  0  0  0  0  0  0  0  0  0  0  0
  188.4960  178.6140  137.8270 C   0  0  0  0  0  0  0  0  0  0  0  0
  187.1170  178.4980  137.7110 O   0  0  0  0  0  1  0  0  0  0  0  0
  1 19  1  1  0  0  0
  1  6  1  0  0  0  0
  2  4  1  0  0  0  0
  3  8  1  0  0  0  0
  4  8  1  0  0  0  0
  4 12  1  6  0  0  0
  5  7  1  0  0  0  0
  5  1  1  0  0  0  0
  6  3  1  0  0  0  0
  7 20  1  6  0  0  0
  7  9  1  0  0  0  0
  9  6  2  0  0  0  0
  9  2  1  0  0  0  0
 10  2  2  0  0  0  0
 11 16  1  0  0  0  0
 12 15  1  0  0  0  0
 14 11  1  0  0  0  0
 14 12  1  0  0  0  0
 15 13  1  0  0  0  0
 16 13  1  0  0  0  0
 18 19  1  0  0  0  0
 19 17  1  6  0  0  0
 21 20  1  0  0  0  0
 22 21  1  0  0  0  0
 23 24  2  0  0  0  0
 24 22  1  0  0  0  0
 25 24  1  0  0  0  0
M  END
>  <MODEL>
8

>  <REMARK>
 VINA RESULT:      -7.0      1.934      5.685
  Name = 
  6 active torsions:
  status: ('A' for Active; 'I' for Inactive)
    1  A    between atoms: C_1  and  C_22
    2  A    between atoms: C_5  and  C_11
    3  A    between atoms: C_5  and  C_19
    4  A    between atoms: C_7  and  C_14
    5  A    between atoms: C_13  and  C_18
    6  A    between atoms: C_18  and  C_19
                            x       y       z     vdW  Elec       q    Type
                         _______ _______ _______ _____ _____    ______ ____

>  <TORSDO>
F 6

$$$$
=
 OpenBabel11062413533D

 25 27  0  0  1  0  0  0  0  0999 V2000
  183.9970  179.1650  142.8340 C   0  0  1  0  0  3  0  0  0  0  0  0
  187.3180  177.6720  143.4210 C   0  0  0  0  0  0  0  0  0  0  0  0
  185.9920  178.8250  141.0970 C   0  0  0  0  0  2  0  0  0  0  0  0
  188.0450  177.6860  142.0850 C   0  0  1  0  0  3  0  0  0  0  0  0
  183.8300  178.8470  144.2090 O   0  0  0  0  0  0  0  0  0  0  0  0
  185.3650  178.7520  142.4580 C   0  0  0  0  0  0  0  0  0  0  0  0
  185.0450  178.2630  144.6550 C   0  0  1  0  0  3  0  0  0  0  0  0
  187.5210  178.8540  141.2200 C   0  0  0  0  0  2  0  0  0  0  0  0
  185.9550  178.2220  143.4890 C   0  0  0  0  0  0  0  0  0  0  0  0
  187.8280  177.1360  144.4410 O   0  0  0  0  0  0  0  0  0  0  0  0
  190.5180  175.5870  143.2190 C   0  0  0  0  0  2  0  0  0  0  0  0
  189.5780  177.7400  142.2380 C   0  0  0  0  0  3  0  0  0  0  0  0
  191.3720  177.8660  144.0270 C   0  0  0  0  0  2  0  0  0  0  0  0
  190.2460  176.3790  141.9430 C   0  0  0  0  0  2  0  0  0  0  0  0
  189.9610  178.2880  143.6260 C   0  0  0  0  0  2  0  0  0  0  0  0
  191.4830  176.3410  144.1430 C   0  0  0  0  0  2  0  0  0  0  0  0
  182.9630  178.9990  140.5670 C   0  0  0  0  0  1  0  0  0  0  0  0
  181.6700  178.6160  142.5300 O   0  0  0  0  0  1  0  0  0  0  0  0
  182.9450  178.4560  141.9830 C   0  0  2  0  0  3  0  0  0  0  0  0
  185.6480  179.1110  145.7630 C   0  0  0  0  0  2  0  0  0  0  0  0
  185.9750  178.2450  146.9680 C   0  0  0  0  0  2  0  0  0  0  0  0
  187.1180  178.8500  147.7640 C   0  0  0  0  0  2  0  0  0  0  0  0
  187.9970  176.6350  147.7200 O   0  0  0  0  0  0  0  0  0  0  0  0
  188.2030  177.8500  147.9750 C   0  0  0  0  0  0  0  0  0  0  0  0
  189.4310  178.2530  148.4820 O   0  0  0  0  0  1  0  0  0  0  0  0
  1 19  1  6  0  0  0
  1  5  1  0  0  0  0
  2  9  1  0  0  0  0
  2 10  2  0  0  0  0
  3  8  1  0  0  0  0
  3  6  1  0  0  0  0
  4 12  1  1  0  0  0
  4  2  1  0  0  0  0
  5  7  1  0  0  0  0
  6  1  1  0  0  0  0
  6  9  2  0  0  0  0
  7 20  1  1  0  0  0
  8  4  1  0  0  0  0
  9  7  1  0  0  0  0
 11 16  1  0  0  0  0
 12 15  1  0  0  0  0
 13 16  1  0  0  0  0
 14 12  1  0  0  0  0
 14 11  1  0  0  0  0
 15 13  1  0  0  0  0
 19 17  1  6  0  0  0
 19 18  1  0  0  0  0
 20 21  1  0  0  0  0
 21 22  1  0  0  0  0
 22 24  1  0  0  0  0
 23 24  2  0  0  0  0
 24 25  1  0  0  0  0
M  END
>  <MODEL>
9

>  <REMARK>
 VINA RESULT:      -6.8      2.780      7.563
  Name = 
  6 active torsions:
  status: ('A' for Active; 'I' for Inactive)
    1  A    between atoms: C_1  and  C_22
    2  A    between atoms: C_5  and  C_11
    3  A    between atoms: C_5  and  C_19
    4  A    between atoms: C_7  and  C_14
    5  A    between atoms: C_13  and  C_18
    6  A    between atoms: C_18  and  C_19
                            x       y       z     vdW  Elec       q    Type
                         _______ _______ _______ _____ _____    ______ ____

>  <TORSDO>
F 6

$$$$
