=
 OpenBabel11062414003D

 49 54  0  0  1  0  0  0  0  0999 V2000
  184.9280  177.2200  138.0300 C   0  0  1  0  0  3  0  0  0  0  0  0
  187.4970  178.5610  141.1650 C   0  0  2  0  0  3  0  0  0  0  0  0
  184.3530  177.2710  141.3490 C   0  0  0  0  0  2  0  0  0  0  0  0
  184.4860  178.4330  142.3250 C   0  0  0  0  0  0  0  0  0  0  0  0
  192.2450  176.7880  139.4630 F   0  0  0  0  0  0  0  0  0  0  0  0
  183.4660  180.1090  143.7780 C   0  0  0  0  0  3  0  0  0  0  0  0
  186.3830  177.6540  137.6720 C   0  0  1  0  0  3  0  0  0  0  0  0
  192.5350  176.0950  137.2000 C   0  0  0  0  0  0  0  0  0  0  0  0
  189.0340  178.7060  140.9180 C   0  0  2  0  0  3  0  0  0  0  0  0
  188.4210  179.0910  138.6250 C   0  0  2  0  0  3  0  0  0  0  0  0
  189.7610  176.3390  136.7690 C   0  0  0  0  0  0  0  0  0  0  0  0
  186.9850  178.5170  138.7880 C   0  0  2  0  0  3  0  0  0  0  0  0
  187.1140  175.4030  137.9920 O   0  0  0  0  0  0  0  0  0  0  0  0
  187.2610  176.4520  137.3810 C   0  0  0  0  0  0  0  0  0  0  0  0
  188.9010  179.4300  137.2230 C   0  0  0  0  0  1  0  0  0  0  0  0
  187.3090  176.8540  143.0400 C   0  0  0  0  0  0  0  0  0  0  0  0
  186.9820  178.1360  142.4660 N   0  0  0  0  0  0  0  0  0  0  0  0
  189.4800  177.0070  139.2360 C   0  0  0  0  0  2  0  0  0  0  0  0
  183.4650  177.5280  140.1110 C   0  0  0  0  0  2  0  0  0  0  0  0
  187.9340  175.9920  142.3660 O   0  0  0  0  0  0  0  0  0  0  0  0
  188.3250  176.5630  136.3350 C   0  0  0  0  0  2  0  0  0  0  0  0
  184.1670  178.2170  138.9330 C   0  0  0  0  0  2  0  0  0  0  0  0
  191.7060  176.5200  138.2450 C   0  0  0  0  0  0  0  0  0  0  0  0
  189.4360  178.4580  139.4980 N   0  0  2  0  0  0  0  0  0  0  0  0
  184.7190  180.4810  144.2550 C   0  0  0  0  0  3  0  0  0  0  0  0
  191.9890  175.7980  135.9540 C   0  0  0  0  0  3  0  0  0  0  0  0
  190.6170  175.9280  135.7430 C   0  0  0  0  0  3  0  0  0  0  0  0
  185.7630  178.7890  142.8680 C   0  0  0  0  0  0  0  0  0  0  0  0
  185.8570  179.8200  143.8080 C   0  0  0  0  0  3  0  0  0  0  0  0
  194.0020  175.9490  137.4050 C   0  0  0  0  0  1  0  0  0  0  0  0
  190.3180  176.6490  138.0450 C   0  0  0  0  0  0  0  0  0  0  0  0
  186.8640  177.7580  140.0880 C   0  0  0  0  0  2  0  0  0  0  0  0
  183.3330  179.0850  142.8300 C   0  0  0  0  0  0  0  0  0  0  0  0
  181.0110  178.5860  143.5840 C   0  0  0  0  0  3  0  0  0  0  0  0
  181.9500  178.6710  142.4100 C   0  0  1  0  0  3  0  0  0  0  0  0
  181.4030  179.5510  141.2700 C   0  0  0  0  0  2  0  0  0  0  0  0
  179.1980  178.4240  141.9490 C   0  0  0  0  0  2  0  0  0  0  0  0
  179.8670  179.5380  141.1380 C   0  0  0  0  0  2  0  0  0  0  0  0
  179.6990  178.4630  143.3620 C   0  0  0  0  0  3  0  0  0  0  0  0
  183.1600  177.5790  136.4980 O   0  0  0  0  0  0  0  0  0  0  0  0
  184.1370  176.9110  136.7970 C   0  0  0  0  0  3  0  0  0  0  0  0
  190.1920  178.9090  143.0010 O   0  0  0  0  0  1  0  0  0  0  0  0
  189.9550  178.0400  141.9370 C   0  0  0  0  0  2  0  0  0  0  0  0
  186.8820  176.5050  144.4320 C   0  0  0  0  0  2  0  0  0  0  0  0
  187.5570  177.4050  145.4620 C   0  0  0  0  0  2  0  0  0  0  0  0
  189.0190  177.0330  145.6680 C   0  0  0  0  0  2  0  0  0  0  0  0
  190.5480  176.8990  147.4920 O   0  0  0  0  0  0  0  0  0  0  0  0
  189.3470  176.9570  147.1210 C   0  0  0  0  0  0  0  0  0  0  0  0
  188.3300  176.9790  148.0640 O   0  0  0  0  0  1  0  0  0  0  0  0
  1 41  1  6  0  0  0
  1 22  1  0  0  0  0
  2 32  1  6  0  0  0
  2 17  1  0  0  0  0
  3  4  1  0  0  0  0
  4 33  2  0  0  0  0
  4 28  1  0  0  0  0
  6 25  2  0  0  0  0
  7 14  1  1  0  0  0
  7  1  1  0  0  0  0
  7 12  1  0  0  0  0
  8 30  1  0  0  0  0
  8 23  1  0  0  0  0
  9  2  1  0  0  0  0
  9 43  1  1  0  0  0
 10 15  1  6  0  0  0
 10 12  1  0  0  0  0
 10 24  1  0  0  0  0
 11 31  1  0  0  0  0
 12 32  1  1  0  0  0
 14 13  2  0  0  0  0
 16 44  1  0  0  0  0
 17 28  1  0  0  0  0
 17 16  1  0  0  0  0
 19  3  1  0  0  0  0
 20 16  2  0  0  0  0
 21 11  1  0  0  0  0
 21 14  1  0  0  0  0
 22 19  1  0  0  0  0
 23  5  1  0  0  0  0
 24 18  1  6  0  0  0
 24  9  1  0  0  0  0
 26  8  2  0  0  0  0
 27 26  1  0  0  0  0
 27 11  2  0  0  0  0
 28 29  2  0  0  0  0
 29 25  1  0  0  0  0
 31 23  2  0  0  0  0
 31 18  1  0  0  0  0
 33  6  1  0  0  0  0
 35 33  1  1  0  0  0
 35 34  1  0  0  0  0
 36 35  1  0  0  0  0
 37 39  1  0  0  0  0
 38 36  1  0  0  0  0
 38 37  1  0  0  0  0
 39 34  2  0  0  0  0
 40 41  2  0  0  0  0
 43 42  1  0  0  0  0
 44 45  1  0  0  0  0
 45 46  1  0  0  0  0
 46 48  1  0  0  0  0
 48 47  2  0  0  0  0
 48 49  1  0  0  0  0
M  END
>  <MODEL>
1

>  <REMARK>
 VINA RESULT:      -5.0      0.000      0.000
  Name = 
  7 active torsions:
  status: ('A' for Active; 'I' for Inactive)
    1  A    between atoms: C_1  and  C_32
    2  A    between atoms: C_5  and  C_26
    3  A    between atoms: C_5  and  C_37
    4  A    between atoms: C_10  and  C_13
    5  A    between atoms: C_10  and  C_37
    6  A    between atoms: C_16  and  C_49
    7  A    between atoms: C_17  and  C_34
                            x       y       z     vdW  Elec       q    Type
                         _______ _______ _______ _____ _____    ______ ____

>  <TORSDO>
F 7

$$$$
=
 OpenBabel11062414003D

 49 54  0  0  1  0  0  0  0  0999 V2000
  190.4280  176.6920  141.5410 C   0  0  1  0  0  3  0  0  0  0  0  0
  187.5910  177.8470  138.5670 C   0  0  2  0  0  3  0  0  0  0  0  0
  190.0760  175.5270  138.3990 C   0  0  0  0  0  2  0  0  0  0  0  0
  190.0150  176.3060  137.0920 C   0  0  0  0  0  0  0  0  0  0  0  0
  183.1800  178.4960  141.5180 F   0  0  0  0  0  0  0  0  0  0  0  0
  191.0330  176.9810  134.9780 C   0  0  0  0  0  3  0  0  0  0  0  0
  189.3060  177.7050  141.9280 C   0  0  1  0  0  3  0  0  0  0  0  0
  183.3310  178.6720  143.8900 C   0  0  0  0  0  0  0  0  0  0  0  0
  186.2830  178.6000  138.9740 C   0  0  2  0  0  3  0  0  0  0  0  0
  187.5750  179.4150  140.8310 C   0  0  2  0  0  3  0  0  0  0  0  0
  186.0700  178.0250  143.7660 C   0  0  0  0  0  0  0  0  0  0  0  0
  188.6930  178.3450  140.6770 C   0  0  2  0  0  3  0  0  0  0  0  0
  187.9150  175.8810  142.5930 O   0  0  0  0  0  0  0  0  0  0  0  0
  188.2390  177.0450  142.7800 C   0  0  0  0  0  0  0  0  0  0  0  0
  187.6060  180.3110  142.0590 C   0  0  0  0  0  1  0  0  0  0  0  0
  186.7790  175.7050  137.4650 C   0  0  0  0  0  0  0  0  0  0  0  0
  187.5950  176.8940  137.4580 N   0  0  0  0  0  0  0  0  0  0  0  0
  185.8500  177.7690  141.2180 C   0  0  0  0  0  2  0  0  0  0  0  0
  191.3000  175.8110  139.2980 C   0  0  0  0  0  2  0  0  0  0  0  0
  186.1440  175.3710  138.5000 O   0  0  0  0  0  0  0  0  0  0  0  0
  187.5730  177.8410  143.8590 C   0  0  0  0  0  2  0  0  0  0  0  0
  191.1650  177.0280  140.2240 C   0  0  0  0  0  2  0  0  0  0  0  0
  183.9310  178.4340  142.6480 C   0  0  0  0  0  0  0  0  0  0  0  0
  186.2270  178.9550  140.4270 N   0  0  2  0  0  0  0  0  0  0  0  0
  189.8540  177.6140  134.5940 C   0  0  0  0  0  3  0  0  0  0  0  0
  184.0860  178.5920  145.0570 C   0  0  0  0  0  3  0  0  0  0  0  0
  185.4430  178.2800  144.9910 C   0  0  0  0  0  3  0  0  0  0  0  0
  188.7930  176.9120  136.6570 C   0  0  0  0  0  0  0  0  0  0  0  0
  188.7420  177.5720  135.4260 C   0  0  0  0  0  3  0  0  0  0  0  0
  181.8820  179.0060  143.9830 C   0  0  0  0  0  1  0  0  0  0  0  0
  185.2990  178.1130  142.5700 C   0  0  0  0  0  0  0  0  0  0  0  0
  188.2400  177.2380  139.7550 C   0  0  0  0  0  2  0  0  0  0  0  0
  191.1240  176.3160  136.2080 C   0  0  0  0  0  0  0  0  0  0  0  0
  192.3720  174.1680  136.0190 C   0  0  0  0  0  3  0  0  0  0  0  0
  192.3940  175.5820  136.5350 C   0  0  1  0  0  3  0  0  0  0  0  0
  193.6450  176.3610  136.0840 C   0  0  0  0  0  2  0  0  0  0  0  0
  194.7670  174.0920  136.5150 C   0  0  0  0  0  2  0  0  0  0  0  0
  194.9080  175.4930  135.9110 C   0  0  0  0  0  2  0  0  0  0  0  0
  193.5030  173.4560  136.0160 C   0  0  0  0  0  3  0  0  0  0  0  0
  191.2070  175.6750  143.5310 O   0  0  0  0  0  0  0  0  0  0  0  0
  191.4030  176.5100  142.6620 C   0  0  0  0  0  3  0  0  0  0  0  0
  183.9560  178.9780  138.5700 O   0  0  0  0  0  1  0  0  0  0  0  0
  184.9730  178.0330  138.4340 C   0  0  0  0  0  2  0  0  0  0  0  0
  186.6990  174.8220  136.2580 C   0  0  0  0  0  2  0  0  0  0  0  0
  187.2100  173.4170  136.5630 C   0  0  0  0  0  2  0  0  0  0  0  0
  186.2770  172.3440  136.0190 C   0  0  0  0  0  2  0  0  0  0  0  0
  184.6160  172.4920  137.7230 O   0  0  0  0  0  1  0  0  0  0  0  0
  184.8810  172.5650  136.4950 C   0  0  0  0  0  0  0  0  0  0  0  0
  183.8790  172.8790  135.5870 O   0  0  0  0  0  0  0  0  0  0  0  0
  1  7  1  0  0  0  0
  1 41  1  1  0  0  0
  2  9  1  0  0  0  0
  2 32  1  1  0  0  0
  3 19  1  0  0  0  0
  4  3  1  0  0  0  0
  5 23  1  0  0  0  0
  6 33  1  0  0  0  0
  7 14  1  6  0  0  0
  8 30  1  0  0  0  0
  8 26  1  0  0  0  0
  9 43  1  1  0  0  0
  9 24  1  0  0  0  0
 10 15  1  1  0  0  0
 11 21  1  0  0  0  0
 11 27  1  0  0  0  0
 12 32  1  6  0  0  0
 12 10  1  0  0  0  0
 12  7  1  0  0  0  0
 13 14  2  0  0  0  0
 14 21  1  0  0  0  0
 16 20  2  0  0  0  0
 17 16  1  0  0  0  0
 17  2  1  0  0  0  0
 18 31  1  0  0  0  0
 19 22  1  0  0  0  0
 22  1  1  0  0  0  0
 23  8  2  0  0  0  0
 24 10  1  0  0  0  0
 24 18  1  1  0  0  0
 25  6  2  0  0  0  0
 25 29  1  0  0  0  0
 27 26  2  0  0  0  0
 28  4  1  0  0  0  0
 28 17  1  0  0  0  0
 29 28  2  0  0  0  0
 31 23  1  0  0  0  0
 31 11  2  0  0  0  0
 33  4  2  0  0  0  0
 34 35  1  0  0  0  0
 35 33  1  6  0  0  0
 36 35  1  0  0  0  0
 38 36  1  0  0  0  0
 38 37  1  0  0  0  0
 39 34  2  0  0  0  0
 39 37  1  0  0  0  0
 41 40  2  0  0  0  0
 43 42  1  0  0  0  0
 44 45  1  0  0  0  0
 44 16  1  0  0  0  0
 46 48  1  0  0  0  0
 46 45  1  0  0  0  0
 48 47  1  0  0  0  0
 49 48  2  0  0  0  0
M  END
>  <MODEL>
2

>  <REMARK>
 VINA RESULT:      -3.2      2.442      9.521
  Name = 
  7 active torsions:
  status: ('A' for Active; 'I' for Inactive)
    1  A    between atoms: C_1  and  C_32
    2  A    between atoms: C_5  and  C_26
    3  A    between atoms: C_5  and  C_37
    4  A    between atoms: C_10  and  C_13
    5  A    between atoms: C_10  and  C_37
    6  A    between atoms: C_16  and  C_49
    7  A    between atoms: C_17  and  C_34
                            x       y       z     vdW  Elec       q    Type
                         _______ _______ _______ _____ _____    ______ ____

>  <TORSDO>
F 7

$$$$
=
 OpenBabel11062414003D

 49 54  0  0  1  0  0  0  0  0999 V2000
  184.9780  178.2170  142.2010 C   0  0  1  0  0  3  0  0  0  0  0  0
  186.6250  178.0070  138.2680 C   0  0  2  0  0  3  0  0  0  0  0  0
  187.7500  176.6090  141.1600 C   0  0  0  0  0  2  0  0  0  0  0  0
  188.9290  177.1530  140.3630 C   0  0  0  0  0  0  0  0  0  0  0  0
  182.2000  177.5710  135.2990 F   0  0  0  0  0  0  0  0  0  0  0  0
  191.2670  177.8440  140.2430 C   0  0  0  0  0  3  0  0  0  0  0  0
  184.1830  178.8550  141.0210 C   0  0  1  0  0  3  0  0  0  0  0  0
  180.0670  178.0890  136.2290 C   0  0  0  0  0  0  0  0  0  0  0  0
  185.7420  178.3440  137.0230 C   0  0  2  0  0  3  0  0  0  0  0  0
  184.5190  179.7610  138.5330 C   0  0  2  0  0  3  0  0  0  0  0  0
  181.2390  178.3480  138.7780 C   0  0  0  0  0  0  0  0  0  0  0  0
  185.0980  179.0980  139.8140 C   0  0  2  0  0  3  0  0  0  0  0  0
  183.0460  176.7810  140.6910 O   0  0  0  0  0  0  0  0  0  0  0  0
  182.9900  178.0020  140.6360 C   0  0  0  0  0  0  0  0  0  0  0  0
  183.3920  180.7690  138.6950 C   0  0  0  0  0  1  0  0  0  0  0  0
  187.3430  175.5950  137.9080 C   0  0  0  0  0  0  0  0  0  0  0  0
  187.6560  176.9720  138.1990 N   0  0  0  0  0  0  0  0  0  0  0  0
  183.5090  177.7110  137.7510 C   0  0  0  0  0  2  0  0  0  0  0  0
  187.3900  177.3840  142.4470 C   0  0  0  0  0  2  0  0  0  0  0  0
  186.1450  175.2090  137.8500 O   0  0  0  0  0  0  0  0  0  0  0  0
  181.7330  178.6710  140.1750 C   0  0  0  0  0  2  0  0  0  0  0  0
  186.4750  178.6010  142.2450 C   0  0  0  0  0  2  0  0  0  0  0  0
  181.4460  177.9000  136.3800 C   0  0  0  0  0  0  0  0  0  0  0  0
  184.3770  178.8440  137.3790 N   0  0  2  0  0  0  0  0  0  0  0  0
  191.1640  178.0090  138.8650 C   0  0  0  0  0  3  0  0  0  0  0  0
  179.2810  178.4060  137.3340 C   0  0  0  0  0  3  0  0  0  0  0  0
  179.8670  178.5420  138.5920 C   0  0  0  0  0  3  0  0  0  0  0  0
  188.8560  177.2730  138.9380 C   0  0  0  0  0  0  0  0  0  0  0  0
  189.9680  177.7180  138.2190 C   0  0  0  0  0  3  0  0  0  0  0  0
  179.4220  177.9470  134.8940 C   0  0  0  0  0  1  0  0  0  0  0  0
  182.0470  178.0290  137.6460 C   0  0  0  0  0  0  0  0  0  0  0  0
  185.7820  177.7960  139.4720 C   0  0  0  0  0  2  0  0  0  0  0  0
  190.1710  177.4070  140.9990 C   0  0  0  0  0  0  0  0  0  0  0  0
  191.1970  175.9440  142.7350 C   0  0  0  0  0  3  0  0  0  0  0  0
  190.3630  177.1700  142.4700 C   0  0  1  0  0  3  0  0  0  0  0  0
  190.8950  178.4220  143.1940 C   0  0  0  0  0  2  0  0  0  0  0  0
  191.3410  176.7100  145.0550 C   0  0  0  0  0  2  0  0  0  0  0  0
  191.5860  178.1320  144.5420 C   0  0  0  0  0  2  0  0  0  0  0  0
  191.6580  175.7240  143.9700 C   0  0  0  0  0  3  0  0  0  0  0  0
  184.2030  179.6490  143.9190 O   0  0  0  0  0  0  0  0  0  0  0  0
  184.3200  178.5030  143.5150 C   0  0  0  0  0  3  0  0  0  0  0  0
  186.7190  177.6480  134.9540 O   0  0  0  0  0  1  0  0  0  0  0  0
  185.7390  177.3210  135.8900 C   0  0  0  0  0  2  0  0  0  0  0  0
  188.4320  174.5870  137.7060 C   0  0  0  0  0  2  0  0  0  0  0  0
  189.0280  174.6850  136.3050 C   0  0  0  0  0  2  0  0  0  0  0  0
  190.3550  173.9470  136.2000 C   0  0  0  0  0  2  0  0  0  0  0  0
  191.8300  174.5290  137.9800 O   0  0  0  0  0  1  0  0  0  0  0  0
  191.4580  174.7520  136.7980 C   0  0  0  0  0  0  0  0  0  0  0  0
  192.0950  175.7260  136.0430 O   0  0  0  0  0  0  0  0  0  0  0  0
  1 22  1  0  0  0  0
  1 41  1  1  0  0  0
  2 32  1  1  0  0  0
  3 19  1  0  0  0  0
  4 33  1  0  0  0  0
  4  3  1  0  0  0  0
  5 23  1  0  0  0  0
  6 33  2  0  0  0  0
  7 14  1  6  0  0  0
  7  1  1  0  0  0  0
  8 23  2  0  0  0  0
  8 26  1  0  0  0  0
  9 43  1  6  0  0  0
  9 24  1  0  0  0  0
  9  2  1  0  0  0  0
 10 15  1  1  0  0  0
 10 12  1  0  0  0  0
 11 21  1  0  0  0  0
 12 32  1  6  0  0  0
 12  7  1  0  0  0  0
 14 13  2  0  0  0  0
 16 17  1  0  0  0  0
 17  2  1  0  0  0  0
 17 28  1  0  0  0  0
 20 16  2  0  0  0  0
 21 14  1  0  0  0  0
 22 19  1  0  0  0  0
 23 31  1  0  0  0  0
 24 18  1  1  0  0  0
 24 10  1  0  0  0  0
 25  6  1  0  0  0  0
 26 27  2  0  0  0  0
 27 11  1  0  0  0  0
 28  4  2  0  0  0  0
 29 25  2  0  0  0  0
 29 28  1  0  0  0  0
 30  8  1  0  0  0  0
 31 18  1  0  0  0  0
 31 11  2  0  0  0  0
 34 39  2  0  0  0  0
 35 33  1  6  0  0  0
 35 34  1  0  0  0  0
 35 36  1  0  0  0  0
 36 38  1  0  0  0  0
 38 37  1  0  0  0  0
 39 37  1  0  0  0  0
 41 40  2  0  0  0  0
 42 43  1  0  0  0  0
 44 16  1  0  0  0  0
 45 44  1  0  0  0  0
 46 45  1  0  0  0  0
 46 48  1  0  0  0  0
 48 47  1  0  0  0  0
 49 48  2  0  0  0  0
M  END
>  <MODEL>
3

>  <REMARK>
 VINA RESULT:      -2.6      3.107      8.352
  Name = 
  7 active torsions:
  status: ('A' for Active; 'I' for Inactive)
    1  A    between atoms: C_1  and  C_32
    2  A    between atoms: C_5  and  C_26
    3  A    between atoms: C_5  and  C_37
    4  A    between atoms: C_10  and  C_13
    5  A    between atoms: C_10  and  C_37
    6  A    between atoms: C_16  and  C_49
    7  A    between atoms: C_17  and  C_34
                            x       y       z     vdW  Elec       q    Type
                         _______ _______ _______ _____ _____    ______ ____

>  <TORSDO>
F 7

$$$$
=
 OpenBabel11062414003D

 49 54  0  0  1  0  0  0  0  0999 V2000
  184.9930  178.2400  142.2400 C   0  0  1  0  0  3  0  0  0  0  0  0
  186.6700  178.0280  138.3200 C   0  0  2  0  0  3  0  0  0  0  0  0
  187.7760  176.6370  141.2220 C   0  0  0  0  0  2  0  0  0  0  0  0
  188.9600  177.1820  140.4340 C   0  0  0  0  0  0  0  0  0  0  0  0
  182.2680  177.5790  135.3180 F   0  0  0  0  0  0  0  0  0  0  0  0
  191.2970  177.8780  140.3300 C   0  0  0  0  0  3  0  0  0  0  0  0
  184.2060  178.8750  141.0530 C   0  0  1  0  0  3  0  0  0  0  0  0
  180.1270  178.0930  136.2310 C   0  0  0  0  0  0  0  0  0  0  0  0
  185.7950  178.3610  137.0680 C   0  0  2  0  0  3  0  0  0  0  0  0
  184.5580  179.7780  138.5660 C   0  0  2  0  0  3  0  0  0  0  0  0
  181.2800  178.3590  138.7890 C   0  0  0  0  0  0  0  0  0  0  0  0
  185.1290  179.1180  139.8530 C   0  0  2  0  0  3  0  0  0  0  0  0
  183.0750  176.7980  140.7170 O   0  0  0  0  0  0  0  0  0  0  0  0
  183.0170  178.0190  140.6600 C   0  0  0  0  0  0  0  0  0  0  0  0
  183.4280  180.7840  138.7190 C   0  0  0  0  0  1  0  0  0  0  0  0
  187.3960  175.6160  137.9680 C   0  0  0  0  0  0  0  0  0  0  0  0
  187.7040  176.9950  138.2610 N   0  0  0  0  0  0  0  0  0  0  0  0
  183.5580  177.7250  137.7800 C   0  0  0  0  0  2  0  0  0  0  0  0
  187.4040  177.4130  142.5060 C   0  0  0  0  0  2  0  0  0  0  0  0
  186.1990  175.2280  137.9030 O   0  0  0  0  0  0  0  0  0  0  0  0
  181.7630  178.6850  140.1890 C   0  0  0  0  0  2  0  0  0  0  0  0
  186.4890  178.6270  142.2950 C   0  0  0  0  0  2  0  0  0  0  0  0
  181.5050  177.9080  136.3930 C   0  0  0  0  0  0  0  0  0  0  0  0
  184.4260  178.8590  137.4130 N   0  0  2  0  0  0  0  0  0  0  0  0
  191.2040  178.0400  138.9500 C   0  0  0  0  0  3  0  0  0  0  0  0
  179.3320  178.4100  137.3300 C   0  0  0  0  0  3  0  0  0  0  0  0
  179.9080  178.5490  138.5920 C   0  0  0  0  0  3  0  0  0  0  0  0
  188.8970  177.2990  139.0080 C   0  0  0  0  0  0  0  0  0  0  0  0
  190.0140  177.7460  138.2960 C   0  0  0  0  0  3  0  0  0  0  0  0
  179.4920  177.9480  134.8920 C   0  0  0  0  0  1  0  0  0  0  0  0
  182.0960  178.0400  137.6630 C   0  0  0  0  0  0  0  0  0  0  0  0
  185.8180  177.8170  139.5180 C   0  0  0  0  0  2  0  0  0  0  0  0
  190.1960  177.4390  141.0780 C   0  0  0  0  0  0  0  0  0  0  0  0
  191.2280  175.9920  142.8240 C   0  0  0  0  0  3  0  0  0  0  0  0
  190.3780  177.2040  142.5510 C   0  0  1  0  0  3  0  0  0  0  0  0
  190.8830  178.4640  143.2800 C   0  0  0  0  0  2  0  0  0  0  0  0
  191.3380  176.7590  145.1460 C   0  0  0  0  0  2  0  0  0  0  0  0
  191.5660  178.1850  144.6340 C   0  0  0  0  0  2  0  0  0  0  0  0
  191.6800  175.7780  144.0630 C   0  0  0  0  0  3  0  0  0  0  0  0
  184.1190  179.6760  143.9070 O   0  0  0  0  0  0  0  0  0  0  0  0
  184.3240  178.5270  143.5480 C   0  0  0  0  0  3  0  0  0  0  0  0
  186.6620  177.7570  134.9220 O   0  0  0  0  0  1  0  0  0  0  0  0
  185.8030  177.3360  135.9370 C   0  0  0  0  0  2  0  0  0  0  0  0
  188.4880  174.6100  137.7770 C   0  0  0  0  0  2  0  0  0  0  0  0
  188.8600  174.4690  136.3040 C   0  0  0  0  0  2  0  0  0  0  0  0
  188.6520  173.0470  135.8010 C   0  0  0  0  0  2  0  0  0  0  0  0
  186.6750  171.7170  135.8240 O   0  0  0  0  0  1  0  0  0  0  0  0
  187.2160  172.8010  135.4850 C   0  0  0  0  0  0  0  0  0  0  0  0
  186.4690  173.7780  134.8430 O   0  0  0  0  0  0  0  0  0  0  0  0
  1 22  1  0  0  0  0
  1 41  1  1  0  0  0
  2 32  1  1  0  0  0
  3 19  1  0  0  0  0
  4 33  1  0  0  0  0
  4  3  1  0  0  0  0
  5 23  1  0  0  0  0
  6 33  2  0  0  0  0
  7 14  1  6  0  0  0
  7  1  1  0  0  0  0
  8 23  2  0  0  0  0
  8 26  1  0  0  0  0
  9 43  1  6  0  0  0
  9 24  1  0  0  0  0
  9  2  1  0  0  0  0
 10 15  1  1  0  0  0
 10 12  1  0  0  0  0
 11 21  1  0  0  0  0
 12 32  1  6  0  0  0
 12  7  1  0  0  0  0
 14 13  2  0  0  0  0
 16 17  1  0  0  0  0
 17  2  1  0  0  0  0
 17 28  1  0  0  0  0
 20 16  2  0  0  0  0
 21 14  1  0  0  0  0
 22 19  1  0  0  0  0
 23 31  1  0  0  0  0
 24 18  1  1  0  0  0
 24 10  1  0  0  0  0
 25  6  1  0  0  0  0
 26 27  2  0  0  0  0
 27 11  1  0  0  0  0
 28  4  2  0  0  0  0
 29 25  2  0  0  0  0
 29 28  1  0  0  0  0
 30  8  1  0  0  0  0
 31 18  1  0  0  0  0
 31 11  2  0  0  0  0
 34 39  2  0  0  0  0
 35 33  1  6  0  0  0
 35 34  1  0  0  0  0
 35 36  1  0  0  0  0
 36 38  1  0  0  0  0
 38 37  1  0  0  0  0
 39 37  1  0  0  0  0
 41 40  2  0  0  0  0
 42 43  1  0  0  0  0
 44 16  1  0  0  0  0
 45 44  1  0  0  0  0
 46 45  1  0  0  0  0
 48 46  1  0  0  0  0
 48 47  1  0  0  0  0
 49 48  2  0  0  0  0
M  END
>  <MODEL>
4

>  <REMARK>
 VINA RESULT:      -2.2      3.183      8.530
  Name = 
  7 active torsions:
  status: ('A' for Active; 'I' for Inactive)
    1  A    between atoms: C_1  and  C_32
    2  A    between atoms: C_5  and  C_26
    3  A    between atoms: C_5  and  C_37
    4  A    between atoms: C_10  and  C_13
    5  A    between atoms: C_10  and  C_37
    6  A    between atoms: C_16  and  C_49
    7  A    between atoms: C_17  and  C_34
                            x       y       z     vdW  Elec       q    Type
                         _______ _______ _______ _____ _____    ______ ____

>  <TORSDO>
F 7

$$$$
