=
 OpenBabel11062417373D

 57 64  0  0  1  0  0  0  0  0999 V2000
  187.7960  177.3840  138.4530 C   0  0  2  0  0  3  0  0  0  0  0  0
  186.9030  177.5760  135.6750 C   0  0  0  0  0  2  0  0  0  0  0  0
  186.2690  178.4750  136.7440 C   0  0  0  0  0  2  0  0  0  0  0  0
  187.9410  176.6290  136.2960 C   0  0  2  0  0  3  0  0  0  0  0  0
  188.6410  177.3030  137.3170 O   0  0  0  0  0  0  0  0  0  0  0  0
  186.3300  177.8030  138.1090 C   0  0  2  0  0  3  0  0  0  0  0  0
  189.1150  179.3960  139.1060 O   0  0  0  0  0  0  0  0  0  0  0  0
  188.3740  177.9400  140.7120 O   0  0  0  0  0  1  0  0  0  0  0  0
  188.4360  178.2480  139.4940 C   0  0  0  0  0  0  0  0  0  0  0  0
  188.8960  176.0820  135.2360 C   0  0  1  0  0  3  0  0  0  0  0  0
  189.9520  176.9740  135.0300 O   0  0  0  0  0  1  0  0  0  0  0  0
  189.4210  174.6910  135.6210 C   0  0  1  0  0  3  0  0  0  0  0  0
  190.4210  174.1610  134.6050 C   0  0  0  0  0  1  0  0  0  0  0  0
  189.9370  174.5880  137.0630 C   0  0  0  0  0  2  0  0  0  0  0  0
  191.3700  175.0790  137.2120 C   0  0  0  0  0  2  0  0  0  0  0  0
  192.1730  174.0510  137.7270 O   0  0  0  0  0  0  0  0  0  0  0  0
  193.8300  172.5650  136.6300 C   0  0  1  0  0  3  0  0  0  0  0  0
  193.3630  173.9950  136.9710 C   0  0  2  0  0  3  0  0  0  0  0  0
  192.7910  171.9010  135.7470 C   0  0  0  0  0  1  0  0  0  0  0  0
  195.2660  173.8620  139.3150 F   0  0  0  0  0  0  0  0  0  0  0  0
  195.5930  174.6730  138.2410 C   0  0  1  0  0  3  0  0  0  0  0  0
  196.4950  172.2910  137.1190 S   0  0  0  0  0  0  0  0  0  0  0  0
  196.7310  174.0820  137.4070 C   0  0  2  0  0  3  0  0  0  0  0  0
  195.1640  172.5470  135.9070 C   0  0  0  0  0  2  0  0  0  0  0  0
  194.3940  175.0160  137.4040 C   0  0  0  0  0  0  0  0  0  0  0  0
  194.2480  176.1720  137.0410 O   0  0  0  0  0  0  0  0  0  0  0  0
  198.0480  174.3430  138.1220 C   0  0  2  0  0  3  0  0  0  0  0  0
  198.9980  174.9260  137.1630 N   0  0  0  0  0  2  0  0  0  0  0  0
  199.1300  173.5240  137.5780 C   0  0  0  0  0  2  0  0  0  0  0  0
  185.7100  178.6210  139.0950 O   0  0  0  0  0  0  0  0  0  0  0  0
  183.5950  177.6930  139.1660 O   0  0  0  0  0  0  0  0  0  0  0  0
  184.5580  178.2270  139.7820 C   0  0  0  0  0  0  0  0  0  0  0  0
  183.2890  179.0230  143.3430 C   0  0  0  0  0  0  0  0  0  0  0  0
  182.0150  179.2600  143.6170 C   0  0  0  0  0  2  0  0  0  0  0  0
  184.4910  178.4670  141.2340 C   0  0  0  0  0  2  0  0  0  0  0  0
  182.0090  178.8690  141.4350 C   0  0  0  0  0  3  0  0  0  0  0  0
  183.3810  178.7640  141.9160 C   0  0  0  0  0  0  0  0  0  0  0  0
  181.2270  179.1550  142.4290 N   0  0  0  0  0  0  0  0  0  0  0  0
  184.4140  179.1000  144.3270 C   0  0  0  0  0  2  0  0  0  0  0  0
  185.7990  177.5060  145.6770 C   0  0  0  0  0  3  0  0  0  0  0  0
  184.8290  177.7300  144.7830 C   0  0  0  0  0  3  0  0  0  0  0  0
  186.5600  178.6130  146.3340 C   0  0  0  0  0  2  0  0  0  0  0  0
  191.9160  175.6990  146.4760 C   0  0  0  0  0  3  0  0  0  0  0  0
  188.6840  178.0130  145.0540 C   0  0  0  0  0  0  0  0  0  0  0  0
  190.8490  176.6700  144.4940 C   0  0  0  0  0  0  0  0  0  0  0  0
  189.9500  177.0550  146.7130 C   0  0  0  0  0  0  0  0  0  0  0  0
  187.9900  178.3560  146.2590 N   0  0  0  0  0  0  0  0  0  0  0  0
  191.8640  175.8850  145.0800 C   0  0  0  0  0  3  0  0  0  0  0  0
  189.8910  177.2370  145.3460 C   0  0  0  0  0  0  0  0  0  0  0  0
  189.0650  178.6540  148.4810 C   0  0  0  0  0  2  0  0  0  0  0  0
  190.9500  176.2840  147.3090 C   0  0  0  0  0  3  0  0  0  0  0  0
  188.1660  177.4280  148.6640 C   0  0  0  0  0  2  0  0  0  0  0  0
  188.2600  178.2930  143.9010 O   0  0  0  0  0  0  0  0  0  0  0  0
  188.7780  177.7360  147.3190 C   0  0  0  0  0  0  0  0  0  0  0  0
  192.0800  177.2120  142.4190 C   0  0  0  0  0  2  0  0  0  0  0  0
  190.7710  176.8420  143.0060 C   0  0  2  0  0  3  0  0  0  0  0  0
  191.0940  178.1750  142.6830 O   0  0  0  0  0  0  0  0  0  0  0  0
  1  9  1  1  0  0  0
  2  4  1  0  0  0  0
  2  3  1  0  0  0  0
  3  6  1  0  0  0  0
  4 10  1  6  0  0  0
  4  5  1  0  0  0  0
  5  1  1  0  0  0  0
  6  1  1  0  0  0  0
  6 30  1  1  0  0  0
  7  9  2  0  0  0  0
  9  8  1  0  0  0  0
 10 11  1  1  0  0  0
 10 12  1  0  0  0  0
 12 13  1  6  0  0  0
 12 14  1  0  0  0  0
 14 15  1  0  0  0  0
 15 16  1  0  0  0  0
 17 19  1  6  0  0  0
 17 18  1  0  0  0  0
 18 25  1  0  0  0  0
 18 16  1  1  0  0  0
 21 20  1  1  0  0  0
 23 22  1  1  0  0  0
 23 27  1  0  0  0  0
 23 21  1  0  0  0  0
 24 17  1  0  0  0  0
 24 22  1  0  0  0  0
 25 21  1  0  0  0  0
 26 25  2  0  0  0  0
 27 29  1  6  0  0  0
 28 29  1  0  0  0  0
 28 27  1  0  0  0  0
 30 32  1  0  0  0  0
 31 32  2  0  0  0  0
 32 35  1  0  0  0  0
 33 34  1  0  0  0  0
 33 39  1  0  0  0  0
 35 37  1  0  0  0  0
 36 37  1  0  0  0  0
 36 38  2  0  0  0  0
 37 33  2  0  0  0  0
 38 34  1  0  0  0  0
 39 41  1  0  0  0  0
 40 42  1  0  0  0  0
 41 40  2  0  0  0  0
 43 51  1  0  0  0  0
 44 49  1  0  0  0  0
 44 47  1  0  0  0  0
 45 48  1  0  0  0  0
 45 49  2  0  0  0  0
 46 51  2  0  0  0  0
 46 54  1  0  0  0  0
 47 42  1  0  0  0  0
 47 54  1  0  0  0  0
 48 43  2  0  0  0  0
 49 46  1  0  0  0  0
 50 52  1  0  0  0  0
 53 44  2  0  0  0  0
 54 50  1  0  0  0  0
 54 52  1  0  0  0  0
 55 57  1  0  0  0  0
 55 56  1  0  0  0  0
 56 45  1  1  0  0  0
 57 56  1  0  0  0  0
M  END
>  <MODEL>
1

>  <REMARK>
 VINA RESULT:      -8.7      0.000      0.000
  Name = 
  16 active torsions:
  status: ('A' for Active; 'I' for Inactive)
    1  A    between atoms: C_2  and  O_25
    2  A    between atoms: C_3  and  C_5
    3  A    between atoms: C_3  and  C_53
    4  A    between atoms: C_9  and  C_11
    5  A    between atoms: C_9  and  C_42
    6  A    between atoms: C_10  and  C_31
    7  A    between atoms: C_11  and  C_12
    8  A    between atoms: C_12  and  C_22
    9  A    between atoms: C_15  and  C_55
   10  A    between atoms: N_20  and  C_57
   11  A    between atoms: O_25  and  C_42
   12  A    between atoms: C_27  and  C_52
   13  A    between atoms: C_28  and  C_30
   14  A    between atoms: C_36  and  C_57
   15  A    between atoms: O_43  and  C_48
   16  A    between atoms: O_43  and  C_52
                            x       y       z     vdW  Elec       q    Type
                         _______ _______ _______ _____ _____    ______ ____

>  <TORSDO>
F 16

$$$$
=
 OpenBabel11062417373D

 57 64  0  0  1  0  0  0  0  0999 V2000
  184.5940  176.5210  137.0050 C   0  0  2  0  0  3  0  0  0  0  0  0
  182.4800  175.1140  138.4540 C   0  0  0  0  0  2  0  0  0  0  0  0
  182.3870  176.6310  138.2540 C   0  0  0  0  0  2  0  0  0  0  0  0
  183.7810  174.5570  137.8560 C   0  0  2  0  0  3  0  0  0  0  0  0
  184.0810  175.2430  136.6630 O   0  0  0  0  0  0  0  0  0  0  0  0
  183.7780  177.2380  138.1280 C   0  0  2  0  0  3  0  0  0  0  0  0
  186.0120  177.8270  135.4250 O   0  0  0  0  0  1  0  0  0  0  0  0
  183.7650  177.6100  135.0370 O   0  0  0  0  0  0  0  0  0  0  0  0
  184.7550  177.3440  135.7650 C   0  0  0  0  0  0  0  0  0  0  0  0
  183.6810  173.0510  137.6210 C   0  0  1  0  0  3  0  0  0  0  0  0
  182.6640  172.7700  136.7050 O   0  0  0  0  0  1  0  0  0  0  0  0
  185.0220  172.4700  137.1460 C   0  0  1  0  0  3  0  0  0  0  0  0
  184.9400  171.9480  135.7190 C   0  0  0  0  0  1  0  0  0  0  0  0
  186.2250  173.3990  137.3640 C   0  0  0  0  0  2  0  0  0  0  0  0
  187.0490  173.6010  136.1000 C   0  0  0  0  0  2  0  0  0  0  0  0
  187.6810  174.8520  136.1400 O   0  0  0  0  0  0  0  0  0  0  0  0
  189.1980  176.1810  137.5860 C   0  0  1  0  0  3  0  0  0  0  0  0
  188.7110  174.7990  137.1030 C   0  0  2  0  0  3  0  0  0  0  0  0
  188.0580  176.8910  138.2920 C   0  0  0  0  0  1  0  0  0  0  0  0
  191.0210  174.8680  135.1560 F   0  0  0  0  0  0  0  0  0  0  0  0
  191.0900  174.0020  136.2350 C   0  0  1  0  0  3  0  0  0  0  0  0
  191.9200  176.2780  137.6060 S   0  0  0  0  0  0  0  0  0  0  0  0
  192.0880  174.4840  137.2890 C   0  0  2  0  0  3  0  0  0  0  0  0
  190.3730  176.0810  138.5410 C   0  0  0  0  0  2  0  0  0  0  0  0
  189.7360  173.7200  136.8230 C   0  0  0  0  0  0  0  0  0  0  0  0
  189.4510  172.5670  137.1020 O   0  0  0  0  0  0  0  0  0  0  0  0
  193.4960  174.1520  136.8160 C   0  0  2  0  0  3  0  0  0  0  0  0
  194.3350  173.8780  137.9920 N   0  0  0  0  0  2  0  0  0  0  0  0
  194.4670  175.1480  137.2670 C   0  0  0  0  0  2  0  0  0  0  0  0
  183.6940  178.6510  137.9780 O   0  0  0  0  0  0  0  0  0  0  0  0
  182.5820  180.5160  138.7680 O   0  0  0  0  0  0  0  0  0  0  0  0
  183.2770  179.4920  139.0130 C   0  0  0  0  0  0  0  0  0  0  0  0
  183.2330  178.6770  142.7890 C   0  0  0  0  0  0  0  0  0  0  0  0
  182.1140  178.5580  143.4880 C   0  0  0  0  0  2  0  0  0  0  0  0
  183.6870  179.1650  140.3900 C   0  0  0  0  0  2  0  0  0  0  0  0
  181.3980  179.0030  141.4370 C   0  0  0  0  0  3  0  0  0  0  0  0
  182.8560  178.9820  141.4190 C   0  0  0  0  0  0  0  0  0  0  0  0
  180.9810  178.7540  142.6400 N   0  0  0  0  0  0  0  0  0  0  0  0
  184.6180  178.5910  143.3530 C   0  0  0  0  0  2  0  0  0  0  0  0
  185.3580  179.0770  145.6980 C   0  0  0  0  0  3  0  0  0  0  0  0
  184.7640  179.4680  144.5640 C   0  0  0  0  0  3  0  0  0  0  0  0
  185.9610  177.7180  145.8640 C   0  0  0  0  0  2  0  0  0  0  0  0
  191.8400  176.2340  146.5160 C   0  0  0  0  0  3  0  0  0  0  0  0
  188.2300  177.4860  144.7210 C   0  0  0  0  0  0  0  0  0  0  0  0
  190.6780  176.6450  144.3970 C   0  0  0  0  0  0  0  0  0  0  0  0
  189.6000  177.0920  146.5230 C   0  0  0  0  0  0  0  0  0  0  0  0
  187.4130  177.8070  145.8520 N   0  0  0  0  0  0  0  0  0  0  0  0
  191.8180  176.2140  145.1070 C   0  0  0  0  0  3  0  0  0  0  0  0
  189.5690  177.0710  145.1430 C   0  0  0  0  0  0  0  0  0  0  0  0
  188.2690  178.6500  148.0300 C   0  0  0  0  0  2  0  0  0  0  0  0
  190.7210  176.6730  147.2400 C   0  0  0  0  0  3  0  0  0  0  0  0
  187.6780  177.2780  148.3680 C   0  0  0  0  0  2  0  0  0  0  0  0
  187.8120  177.4990  143.5320 O   0  0  0  0  0  0  0  0  0  0  0  0
  188.2690  177.5440  147.0040 C   0  0  0  0  0  0  0  0  0  0  0  0
  191.8570  177.1780  142.2890 C   0  0  0  0  0  2  0  0  0  0  0  0
  190.6390  176.5940  142.8990 C   0  0  2  0  0  3  0  0  0  0  0  0
  190.6650  177.9090  142.3960 O   0  0  0  0  0  0  0  0  0  0  0  0
  1  9  1  6  0  0  0
  1  6  1  0  0  0  0
  3  2  1  0  0  0  0
  4 10  1  6  0  0  0
  4  2  1  0  0  0  0
  5  1  1  0  0  0  0
  5  4  1  0  0  0  0
  6 30  1  6  0  0  0
  6  3  1  0  0  0  0
  7  9  1  0  0  0  0
  8  9  2  0  0  0  0
 10 11  1  6  0  0  0
 12 13  1  6  0  0  0
 12 14  1  0  0  0  0
 12 10  1  0  0  0  0
 15 16  1  0  0  0  0
 15 14  1  0  0  0  0
 17 19  1  1  0  0  0
 17 24  1  0  0  0  0
 18 16  1  6  0  0  0
 18 17  1  0  0  0  0
 21 20  1  6  0  0  0
 21 25  1  0  0  0  0
 21 23  1  0  0  0  0
 22 24  1  0  0  0  0
 23 22  1  6  0  0  0
 25 26  2  0  0  0  0
 25 18  1  0  0  0  0
 27 29  1  1  0  0  0
 27 23  1  0  0  0  0
 27 28  1  0  0  0  0
 29 28  1  0  0  0  0
 30 32  1  0  0  0  0
 31 32  2  0  0  0  0
 32 35  1  0  0  0  0
 33 39  1  0  0  0  0
 33 34  1  0  0  0  0
 35 37  1  0  0  0  0
 36 38  2  0  0  0  0
 37 36  1  0  0  0  0
 37 33  2  0  0  0  0
 38 34  1  0  0  0  0
 39 41  1  0  0  0  0
 40 42  1  0  0  0  0
 41 40  2  0  0  0  0
 43 51  1  0  0  0  0
 44 49  1  0  0  0  0
 44 47  1  0  0  0  0
 45 48  1  0  0  0  0
 45 49  2  0  0  0  0
 46 54  1  0  0  0  0
 46 51  2  0  0  0  0
 47 42  1  0  0  0  0
 47 54  1  0  0  0  0
 48 43  2  0  0  0  0
 49 46  1  0  0  0  0
 50 52  1  0  0  0  0
 53 44  2  0  0  0  0
 54 50  1  0  0  0  0
 54 52  1  0  0  0  0
 55 57  1  0  0  0  0
 55 56  1  0  0  0  0
 56 45  1  1  0  0  0
 57 56  1  0  0  0  0
M  END
>  <MODEL>
2

>  <REMARK>
 VINA RESULT:      -8.6      2.619      3.996
  Name = 
  16 active torsions:
  status: ('A' for Active; 'I' for Inactive)
    1  A    between atoms: C_2  and  O_25
    2  A    between atoms: C_3  and  C_5
    3  A    between atoms: C_3  and  C_53
    4  A    between atoms: C_9  and  C_11
    5  A    between atoms: C_9  and  C_42
    6  A    between atoms: C_10  and  C_31
    7  A    between atoms: C_11  and  C_12
    8  A    between atoms: C_12  and  C_22
    9  A    between atoms: C_15  and  C_55
   10  A    between atoms: N_20  and  C_57
   11  A    between atoms: O_25  and  C_42
   12  A    between atoms: C_27  and  C_52
   13  A    between atoms: C_28  and  C_30
   14  A    between atoms: C_36  and  C_57
   15  A    between atoms: O_43  and  C_48
   16  A    between atoms: O_43  and  C_52
                            x       y       z     vdW  Elec       q    Type
                         _______ _______ _______ _____ _____    ______ ____

>  <TORSDO>
F 16

$$$$
=
 OpenBabel11062417373D

 57 64  0  0  1  0  0  0  0  0999 V2000
  183.0440  176.0410  136.6390 C   0  0  2  0  0  3  0  0  0  0  0  0
  181.2150  174.8190  138.5660 C   0  0  0  0  0  2  0  0  0  0  0  0
  181.7930  176.2120  138.8420 C   0  0  0  0  0  2  0  0  0  0  0  0
  181.7680  174.2420  137.2540 C   0  0  2  0  0  3  0  0  0  0  0  0
  181.8980  175.2740  136.3040 O   0  0  0  0  0  0  0  0  0  0  0  0
  183.1470  176.3700  138.1630 C   0  0  2  0  0  3  0  0  0  0  0  0
  182.0340  178.1260  135.7170 O   0  0  0  0  0  1  0  0  0  0  0  0
  184.1290  177.4770  135.0550 O   0  0  0  0  0  0  0  0  0  0  0  0
  183.1120  177.2510  135.7600 C   0  0  0  0  0  0  0  0  0  0  0  0
  180.8820  173.1130  136.7290 C   0  0  1  0  0  3  0  0  0  0  0  0
  180.0480  173.5850  135.7120 O   0  0  0  0  0  1  0  0  0  0  0  0
  181.7240  171.9250  136.2390 C   0  0  1  0  0  3  0  0  0  0  0  0
  181.9020  171.9400  134.7280 C   0  0  0  0  0  1  0  0  0  0  0  0
  183.0530  171.7430  136.9860 C   0  0  0  0  0  2  0  0  0  0  0  0
  184.2240  171.4840  136.0490 C   0  0  0  0  0  2  0  0  0  0  0  0
  185.4270  171.8190  136.6870 O   0  0  0  0  0  0  0  0  0  0  0  0
  187.7220  171.9200  135.7490 C   0  0  1  0  0  3  0  0  0  0  0  0
  186.2710  172.4450  135.7450 C   0  0  2  0  0  3  0  0  0  0  0  0
  187.7230  170.4580  135.3430 C   0  0  0  0  0  1  0  0  0  0  0  0
  187.2560  174.6500  137.5610 F   0  0  0  0  0  0  0  0  0  0  0  0
  186.9310  174.9650  136.2520 C   0  0  1  0  0  3  0  0  0  0  0  0
  189.4850  173.9960  135.7160 S   0  0  0  0  0  0  0  0  0  0  0  0
  188.1760  175.2360  135.4060 C   0  0  2  0  0  3  0  0  0  0  0  0
  188.6190  172.6880  134.7960 C   0  0  0  0  0  2  0  0  0  0  0  0
  186.0330  173.9350  135.6270 C   0  0  0  0  0  0  0  0  0  0  0  0
  185.0710  174.3170  134.9800 O   0  0  0  0  0  0  0  0  0  0  0  0
  188.6810  176.6380  135.7140 C   0  0  2  0  0  3  0  0  0  0  0  0
  188.0290  177.5860  134.7980 N   0  0  0  0  0  2  0  0  0  0  0  0
  189.4310  177.2020  134.5940 C   0  0  0  0  0  2  0  0  0  0  0  0
  183.7010  177.6510  138.4490 O   0  0  0  0  0  0  0  0  0  0  0  0
  182.2490  179.3960  138.8810 O   0  0  0  0  0  0  0  0  0  0  0  0
  183.0860  178.5570  139.3160 C   0  0  0  0  0  0  0  0  0  0  0  0
  182.9560  178.7220  143.1740 C   0  0  0  0  0  0  0  0  0  0  0  0
  181.8400  178.9560  143.8480 C   0  0  0  0  0  2  0  0  0  0  0  0
  183.4550  178.5230  140.7430 C   0  0  0  0  0  2  0  0  0  0  0  0
  181.1800  178.9840  141.7320 C   0  0  0  0  0  3  0  0  0  0  0  0
  182.6170  178.7320  141.7610 C   0  0  0  0  0  0  0  0  0  0  0  0
  180.7420  179.1100  142.9460 N   0  0  0  0  0  0  0  0  0  0  0  0
  184.3160  178.5640  143.7810 C   0  0  0  0  0  2  0  0  0  0  0  0
  185.0900  178.8580  146.1460 C   0  0  0  0  0  3  0  0  0  0  0  0
  184.4180  179.3090  145.0810 C   0  0  0  0  0  3  0  0  0  0  0  0
  185.8330  177.5600  146.1390 C   0  0  0  0  0  2  0  0  0  0  0  0
  191.8520  176.6130  146.4130 C   0  0  0  0  0  3  0  0  0  0  0  0
  188.0690  177.7550  144.9260 C   0  0  0  0  0  0  0  0  0  0  0  0
  190.5750  177.2400  144.4160 C   0  0  0  0  0  0  0  0  0  0  0  0
  189.5390  177.2190  146.6090 C   0  0  0  0  0  0  0  0  0  0  0  0
  187.2680  177.8010  146.1120 N   0  0  0  0  0  0  0  0  0  0  0  0
  191.7780  176.8210  145.0220 C   0  0  0  0  0  3  0  0  0  0  0  0
  189.4590  177.4200  145.2450 C   0  0  0  0  0  0  0  0  0  0  0  0
  188.1170  178.3640  148.3800 C   0  0  0  0  0  2  0  0  0  0  0  0
  190.7230  176.8090  147.2230 C   0  0  0  0  0  3  0  0  0  0  0  0
  187.6790  176.9010  148.4990 C   0  0  0  0  0  2  0  0  0  0  0  0
  187.6080  177.9180  143.7650 O   0  0  0  0  0  0  0  0  0  0  0  0
  188.1880  177.4450  147.1860 C   0  0  0  0  0  0  0  0  0  0  0  0
  190.3480  176.1390  142.2140 C   0  0  0  0  0  2  0  0  0  0  0  0
  190.4850  177.4280  142.9310 C   0  0  2  0  0  3  0  0  0  0  0  0
  191.5850  176.7910  142.3230 O   0  0  0  0  0  0  0  0  0  0  0  0
  1  9  1  6  0  0  0
  1  6  1  0  0  0  0
  2  3  1  0  0  0  0
  4 10  1  6  0  0  0
  4  2  1  0  0  0  0
  5  1  1  0  0  0  0
  5  4  1  0  0  0  0
  6 30  1  6  0  0  0
  6  3  1  0  0  0  0
  7  9  1  0  0  0  0
  8  9  2  0  0  0  0
 10 11  1  6  0  0  0
 12 13  1  6  0  0  0
 12 10  1  0  0  0  0
 12 14  1  0  0  0  0
 15 16  1  0  0  0  0
 15 14  1  0  0  0  0
 17 19  1  6  0  0  0
 18 17  1  0  0  0  0
 18 16  1  1  0  0  0
 21 20  1  1  0  0  0
 23 27  1  0  0  0  0
 23 22  1  1  0  0  0
 23 21  1  0  0  0  0
 24 22  1  0  0  0  0
 24 17  1  0  0  0  0
 25 18  1  0  0  0  0
 25 21  1  0  0  0  0
 26 25  2  0  0  0  0
 27 29  1  6  0  0  0
 28 27  1  0  0  0  0
 29 28  1  0  0  0  0
 30 32  1  0  0  0  0
 31 32  2  0  0  0  0
 32 35  1  0  0  0  0
 33 39  1  0  0  0  0
 33 34  1  0  0  0  0
 35 37  1  0  0  0  0
 36 37  1  0  0  0  0
 36 38  2  0  0  0  0
 37 33  2  0  0  0  0
 38 34  1  0  0  0  0
 39 41  1  0  0  0  0
 41 40  2  0  0  0  0
 42 40  1  0  0  0  0
 43 51  1  0  0  0  0
 44 49  1  0  0  0  0
 44 47  1  0  0  0  0
 45 48  1  0  0  0  0
 45 49  2  0  0  0  0
 46 54  1  0  0  0  0
 46 51  2  0  0  0  0
 47 42  1  0  0  0  0
 47 54  1  0  0  0  0
 48 43  2  0  0  0  0
 49 46  1  0  0  0  0
 50 52  1  0  0  0  0
 53 44  2  0  0  0  0
 54 50  1  0  0  0  0
 54 52  1  0  0  0  0
 55 57  1  0  0  0  0
 55 56  1  0  0  0  0
 56 45  1  1  0  0  0
 57 56  1  0  0  0  0
M  END
>  <MODEL>
3

>  <REMARK>
 VINA RESULT:      -8.6      4.131      5.726
  Name = 
  16 active torsions:
  status: ('A' for Active; 'I' for Inactive)
    1  A    between atoms: C_2  and  O_25
    2  A    between atoms: C_3  and  C_5
    3  A    between atoms: C_3  and  C_53
    4  A    between atoms: C_9  and  C_11
    5  A    between atoms: C_9  and  C_42
    6  A    between atoms: C_10  and  C_31
    7  A    between atoms: C_11  and  C_12
    8  A    between atoms: C_12  and  C_22
    9  A    between atoms: C_15  and  C_55
   10  A    between atoms: N_20  and  C_57
   11  A    between atoms: O_25  and  C_42
   12  A    between atoms: C_27  and  C_52
   13  A    between atoms: C_28  and  C_30
   14  A    between atoms: C_36  and  C_57
   15  A    between atoms: O_43  and  C_48
   16  A    between atoms: O_43  and  C_52
                            x       y       z     vdW  Elec       q    Type
                         _______ _______ _______ _____ _____    ______ ____

>  <TORSDO>
F 16

$$$$
=
 OpenBabel11062417373D

 57 64  0  0  1  0  0  0  0  0999 V2000
  189.5510  178.1860  144.2920 C   0  0  2  0  0  3  0  0  0  0  0  0
  187.1260  176.5540  144.3600 C   0  0  0  0  0  2  0  0  0  0  0  0
  188.1270  176.3850  143.2100 C   0  0  0  0  0  2  0  0  0  0  0  0
  187.5760  177.6620  145.3250 C   0  0  2  0  0  3  0  0  0  0  0  0
  188.9780  177.6240  145.4620 O   0  0  0  0  0  0  0  0  0  0  0  0
  188.8870  177.6830  142.9700 C   0  0  2  0  0  3  0  0  0  0  0  0
  191.8650  179.0580  143.9680 O   0  0  0  0  0  0  0  0  0  0  0  0
  191.5390  176.8970  144.6550 O   0  0  0  0  0  1  0  0  0  0  0  0
  191.0370  178.0000  144.3220 C   0  0  0  0  0  0  0  0  0  0  0  0
  186.8820  177.5310  146.6790 C   0  0  1  0  0  3  0  0  0  0  0  0
  187.7900  177.7730  147.7140 O   0  0  0  0  0  1  0  0  0  0  0  0
  185.6730  178.4730  146.7800 C   0  0  1  0  0  3  0  0  0  0  0  0
  186.0780  179.9330  146.6460 C   0  0  0  0  0  1  0  0  0  0  0  0
  184.5040  178.1010  145.8570 C   0  0  0  0  0  2  0  0  0  0  0  0
  184.4940  178.9060  144.5650 C   0  0  0  0  0  2  0  0  0  0  0  0
  184.1670  178.0710  143.4870 O   0  0  0  0  0  0  0  0  0  0  0  0
  181.9180  178.6530  142.6150 C   0  0  1  0  0  3  0  0  0  0  0  0
  183.4490  178.8300  142.5390 C   0  0  2  0  0  3  0  0  0  0  0  0
  181.4250  179.1620  143.9560 C   0  0  0  0  0  1  0  0  0  0  0  0
  183.4020  176.7310  140.3660 F   0  0  0  0  0  0  0  0  0  0  0  0
  183.6520  178.0460  140.0110 C   0  0  1  0  0  3  0  0  0  0  0  0
  180.8800  178.2730  140.1260 S   0  0  0  0  0  0  0  0  0  0  0  0
  182.4580  178.6780  139.2940 C   0  0  2  0  0  3  0  0  0  0  0  0
  181.1920  179.4050  141.5140 C   0  0  0  0  0  2  0  0  0  0  0  0
  184.1140  178.8700  141.1790 C   0  0  0  0  0  0  0  0  0  0  0  0
  185.0630  179.6210  141.0230 O   0  0  0  0  0  0  0  0  0  0  0  0
  182.4440  178.1960  137.8500 C   0  0  2  0  0  3  0  0  0  0  0  0
  181.5030  179.0270  137.0850 N   0  0  0  0  0  2  0  0  0  0  0  0
  181.1380  177.6600  137.4720 C   0  0  0  0  0  2  0  0  0  0  0  0
  189.7910  177.5360  141.8800 O   0  0  0  0  0  0  0  0  0  0  0  0
  188.4770  178.5850  140.2950 O   0  0  0  0  0  0  0  0  0  0  0  0
  189.4170  177.7850  140.5570 C   0  0  0  0  0  0  0  0  0  0  0  0
  192.1920  176.3240  138.3010 C   0  0  0  0  0  0  0  0  0  0  0  0
  193.4820  176.4700  138.5590 C   0  0  0  0  0  3  0  0  0  0  0  0
  190.1330  177.0770  139.4810 C   0  0  0  0  0  3  0  0  0  0  0  0
  192.4960  177.5220  140.2430 C   0  0  0  0  0  3  0  0  0  0  0  0
  191.4610  177.0000  139.3590 C   0  0  0  0  0  0  0  0  0  0  0  0
  193.6620  177.2070  139.7710 N   0  0  0  0  0  0  0  0  0  0  0  0
  191.6240  175.6550  137.0870 C   0  0  0  0  0  2  0  0  0  0  0  0
  190.9750  173.3370  136.3900 C   0  0  0  0  0  3  0  0  0  0  0  0
  191.4770  174.1760  137.3040 C   0  0  0  0  0  3  0  0  0  0  0  0
  190.5270  173.7930  135.0380 C   0  0  0  0  0  2  0  0  0  0  0  0
  185.1710  175.6680  137.2750 C   0  0  0  0  0  3  0  0  0  0  0  0
  188.8540  175.7120  135.2130 C   0  0  0  0  0  0  0  0  0  0  0  0
  186.8650  177.0790  136.2020 C   0  0  0  0  0  0  0  0  0  0  0  0
  187.0700  174.6620  136.2090 C   0  0  0  0  0  0  0  0  0  0  0  0
  189.1710  174.3200  135.1090 N   0  0  0  0  0  0  0  0  0  0  0  0
  185.6610  176.9410  136.9250 C   0  0  0  0  0  3  0  0  0  0  0  0
  187.5590  175.9070  135.8660 C   0  0  0  0  0  0  0  0  0  0  0  0
  187.4970  172.4880  134.9600 C   0  0  0  0  0  2  0  0  0  0  0  0
  185.8790  174.5100  136.9200 C   0  0  0  0  0  3  0  0  0  0  0  0
  188.1980  172.2430  136.3000 C   0  0  0  0  0  2  0  0  0  0  0  0
  189.6300  176.6340  134.8450 O   0  0  0  0  0  0  0  0  0  0  0  0
  188.0520  173.6440  135.7550 C   0  0  0  0  0  0  0  0  0  0  0  0
  188.3330  178.9430  136.8970 C   0  0  0  0  0  2  0  0  0  0  0  0
  187.4060  178.4340  135.8580 C   0  0  2  0  0  3  0  0  0  0  0  0
  186.9930  179.3540  136.8420 O   0  0  0  0  0  0  0  0  0  0  0  0
  1  9  1  6  0  0  0
  1  5  1  0  0  0  0
  2  4  1  0  0  0  0
  3  2  1  0  0  0  0
  4  5  1  0  0  0  0
  4 10  1  1  0  0  0
  6 30  1  6  0  0  0
  6  3  1  0  0  0  0
  6  1  1  0  0  0  0
  7  9  2  0  0  0  0
  9  8  1  0  0  0  0
 10 12  1  0  0  0  0
 10 11  1  1  0  0  0
 12 13  1  6  0  0  0
 14 12  1  0  0  0  0
 15 14  1  0  0  0  0
 16 15  1  0  0  0  0
 17 19  1  1  0  0  0
 18 17  1  0  0  0  0
 18 16  1  1  0  0  0
 21 20  1  1  0  0  0
 21 25  1  0  0  0  0
 22 24  1  0  0  0  0
 23 21  1  0  0  0  0
 23 22  1  1  0  0  0
 24 17  1  0  0  0  0
 25 18  1  0  0  0  0
 26 25  2  0  0  0  0
 27 29  1  1  0  0  0
 27 23  1  0  0  0  0
 28 29  1  0  0  0  0
 28 27  1  0  0  0  0
 31 32  2  0  0  0  0
 32 30  1  0  0  0  0
 33 34  2  0  0  0  0
 33 37  1  0  0  0  0
 34 38  1  0  0  0  0
 35 32  1  0  0  0  0
 37 35  2  0  0  0  0
 37 36  1  0  0  0  0
 38 36  2  0  0  0  0
 39 41  1  0  0  0  0
 39 33  1  0  0  0  0
 40 41  2  0  0  0  0
 42 47  1  0  0  0  0
 42 40  1  0  0  0  0
 44 49  1  0  0  0  0
 45 48  2  0  0  0  0
 46 51  1  0  0  0  0
 47 44  1  0  0  0  0
 47 54  1  0  0  0  0
 48 43  1  0  0  0  0
 49 45  1  0  0  0  0
 49 46  2  0  0  0  0
 50 54  1  0  0  0  0
 50 52  1  0  0  0  0
 51 43  2  0  0  0  0
 53 44  2  0  0  0  0
 54 46  1  0  0  0  0
 54 52  1  0  0  0  0
 56 45  1  1  0  0  0
 56 57  1  0  0  0  0
 56 55  1  0  0  0  0
 57 55  1  0  0  0  0
M  END
>  <MODEL>
4

>  <REMARK>
 VINA RESULT:      -8.5      3.952     11.329
  Name = 
  16 active torsions:
  status: ('A' for Active; 'I' for Inactive)
    1  A    between atoms: C_2  and  O_25
    2  A    between atoms: C_3  and  C_5
    3  A    between atoms: C_3  and  C_53
    4  A    between atoms: C_9  and  C_11
    5  A    between atoms: C_9  and  C_42
    6  A    between atoms: C_10  and  C_31
    7  A    between atoms: C_11  and  C_12
    8  A    between atoms: C_12  and  C_22
    9  A    between atoms: C_15  and  C_55
   10  A    between atoms: N_20  and  C_57
   11  A    between atoms: O_25  and  C_42
   12  A    between atoms: C_27  and  C_52
   13  A    between atoms: C_28  and  C_30
   14  A    between atoms: C_36  and  C_57
   15  A    between atoms: O_43  and  C_48
   16  A    between atoms: O_43  and  C_52
                            x       y       z     vdW  Elec       q    Type
                         _______ _______ _______ _____ _____    ______ ____

>  <TORSDO>
F 16

$$$$
=
 OpenBabel11062417373D

 57 64  0  0  1  0  0  0  0  0999 V2000
  186.5030  176.5530  137.3010 C   0  0  2  0  0  3  0  0  0  0  0  0
  189.0860  175.1930  137.1290 C   0  0  0  0  0  2  0  0  0  0  0  0
  187.8530  174.5750  136.4580 C   0  0  0  0  0  2  0  0  0  0  0  0
  188.7210  176.4900  137.8670 C   0  0  2  0  0  3  0  0  0  0  0  0
  187.7550  177.1980  137.1250 O   0  0  0  0  0  0  0  0  0  0  0  0
  186.5840  174.9970  137.1870 C   0  0  2  0  0  3  0  0  0  0  0  0
  184.2480  177.5320  136.8910 O   0  0  0  0  0  1  0  0  0  0  0  0
  185.7470  177.3480  135.1690 O   0  0  0  0  0  0  0  0  0  0  0  0
  185.4890  177.1680  136.3870 C   0  0  0  0  0  0  0  0  0  0  0  0
  189.9590  177.3470  138.1260 C   0  0  1  0  0  3  0  0  0  0  0  0
  189.5840  178.6220  138.5580 O   0  0  0  0  0  1  0  0  0  0  0  0
  190.8980  176.6780  139.1420 C   0  0  1  0  0  3  0  0  0  0  0  0
  192.2530  176.3500  138.5310 C   0  0  0  0  0  1  0  0  0  0  0  0
  191.0200  177.4260  140.4760 C   0  0  0  0  0  2  0  0  0  0  0  0
  189.8650  177.1340  141.4230 C   0  0  0  0  0  2  0  0  0  0  0  0
  190.2450  176.1470  142.3450 O   0  0  0  0  0  0  0  0  0  0  0  0
  191.1470  175.8260  144.6340 C   0  0  1  0  0  3  0  0  0  0  0  0
  190.5990  176.7820  143.5550 C   0  0  2  0  0  3  0  0  0  0  0  0
  192.4420  175.2090  144.1400 C   0  0  0  0  0  1  0  0  0  0  0  0
  187.9150  176.4810  144.9110 F   0  0  0  0  0  0  0  0  0  0  0  0
  188.5900  177.6840  145.0380 C   0  0  1  0  0  3  0  0  0  0  0  0
  189.9760  176.3330  147.0400 S   0  0  0  0  0  0  0  0  0  0  0  0
  189.1720  177.8640  146.4410 C   0  0  2  0  0  3  0  0  0  0  0  0
  191.4180  176.5310  145.9500 C   0  0  0  0  0  2  0  0  0  0  0  0
  189.6260  177.8680  143.9660 C   0  0  0  0  0  0  0  0  0  0  0  0
  189.7000  178.9500  143.4070 O   0  0  0  0  0  0  0  0  0  0  0  0
  188.0540  178.2880  147.3830 C   0  0  2  0  0  3  0  0  0  0  0  0
  188.6470  178.6810  148.6700 N   0  0  0  0  0  2  0  0  0  0  0  0
  187.9520  177.3950  148.5360 C   0  0  0  0  0  2  0  0  0  0  0  0
  185.4410  174.3950  136.5870 O   0  0  0  0  0  0  0  0  0  0  0  0
  184.7630  172.4120  137.5600 O   0  0  0  0  0  0  0  0  0  0  0  0
  184.5280  173.6280  137.3140 C   0  0  0  0  0  0  0  0  0  0  0  0
  180.9040  174.9560  137.4820 C   0  0  0  0  0  0  0  0  0  0  0  0
  180.0220  174.7680  136.5120 C   0  0  0  0  0  3  0  0  0  0  0  0
  183.2800  174.2660  137.7670 C   0  0  0  0  0  3  0  0  0  0  0  0
  181.8390  173.7420  135.7630 C   0  0  0  0  0  3  0  0  0  0  0  0
  182.1430  174.3190  137.0670 C   0  0  0  0  0  0  0  0  0  0  0  0
  180.6090  174.0070  135.4530 N   0  0  0  0  0  0  0  0  0  0  0  0
  180.6650  175.7560  138.7250 C   0  0  0  0  0  2  0  0  0  0  0  0
  180.0830  178.1210  139.3130 C   0  0  0  0  0  3  0  0  0  0  0  0
  180.3980  177.1980  138.3980 C   0  0  0  0  0  3  0  0  0  0  0  0
  179.9860  177.8090  140.7720 C   0  0  0  0  0  2  0  0  0  0  0  0
  184.2110  179.0450  144.9930 C   0  0  0  0  0  3  0  0  0  0  0  0
  182.4400  178.3400  141.2270 C   0  0  0  0  0  0  0  0  0  0  0  0
  184.6290  178.5500  142.6290 C   0  0  0  0  0  0  0  0  0  0  0  0
  182.3740  178.8800  143.4590 C   0  0  0  0  0  0  0  0  0  0  0  0
  181.0430  178.4900  141.5050 N   0  0  0  0  0  0  0  0  0  0  0  0
  185.1040  178.7670  143.9400 C   0  0  0  0  0  3  0  0  0  0  0  0
  183.2430  178.6030  142.4220 C   0  0  0  0  0  0  0  0  0  0  0  0
  180.0940  179.9870  143.2490 C   0  0  0  0  0  2  0  0  0  0  0  0
  182.8290  179.1010  144.7600 C   0  0  0  0  0  3  0  0  0  0  0  0
  179.7350  178.5780  143.7320 C   0  0  0  0  0  2  0  0  0  0  0  0
  182.8930  177.9660  140.1130 O   0  0  0  0  0  0  0  0  0  0  0  0
  180.9890  178.8160  142.9260 C   0  0  0  0  0  0  0  0  0  0  0  0
  186.8290  179.0040  141.5950 C   0  0  0  0  0  2  0  0  0  0  0  0
  185.5740  178.2200  141.5130 C   0  0  2  0  0  3  0  0  0  0  0  0
  185.7850  179.3760  140.7360 O   0  0  0  0  0  0  0  0  0  0  0  0
  1  9  1  6  0  0  0
  2  4  1  0  0  0  0
  3  2  1  0  0  0  0
  3  6  1  0  0  0  0
  4 10  1  6  0  0  0
  5  1  1  0  0  0  0
  5  4  1  0  0  0  0
  6 30  1  6  0  0  0
  6  1  1  0  0  0  0
  8  9  2  0  0  0  0
  9  7  1  0  0  0  0
 10 11  1  1  0  0  0
 10 12  1  0  0  0  0
 12 13  1  6  0  0  0
 12 14  1  0  0  0  0
 14 15  1  0  0  0  0
 15 16  1  0  0  0  0
 17 19  1  6  0  0  0
 17 24  1  0  0  0  0
 18 16  1  6  0  0  0
 18 25  1  0  0  0  0
 18 17  1  0  0  0  0
 21 20  1  1  0  0  0
 21 23  1  0  0  0  0
 23 22  1  1  0  0  0
 23 27  1  0  0  0  0
 24 22  1  0  0  0  0
 25 21  1  0  0  0  0
 26 25  2  0  0  0  0
 27 29  1  1  0  0  0
 27 28  1  0  0  0  0
 29 28  1  0  0  0  0
 30 32  1  0  0  0  0
 32 31  2  0  0  0  0
 32 35  1  0  0  0  0
 33 39  1  0  0  0  0
 34 33  2  0  0  0  0
 36 37  1  0  0  0  0
 37 33  1  0  0  0  0
 37 35  2  0  0  0  0
 38 36  2  0  0  0  0
 38 34  1  0  0  0  0
 40 42  1  0  0  0  0
 41 39  1  0  0  0  0
 41 40  2  0  0  0  0
 42 47  1  0  0  0  0
 44 47  1  0  0  0  0
 44 49  1  0  0  0  0
 45 48  1  0  0  0  0
 46 51  2  0  0  0  0
 47 54  1  0  0  0  0
 48 43  2  0  0  0  0
 49 45  2  0  0  0  0
 49 46  1  0  0  0  0
 50 52  1  0  0  0  0
 51 43  1  0  0  0  0
 53 44  2  0  0  0  0
 54 50  1  0  0  0  0
 54 46  1  0  0  0  0
 54 52  1  0  0  0  0
 56 55  1  0  0  0  0
 56 45  1  1  0  0  0
 57 56  1  0  0  0  0
 57 55  1  0  0  0  0
M  END
>  <MODEL>
5

>  <REMARK>
 VINA RESULT:      -8.1      3.970      7.967
  Name = 
  16 active torsions:
  status: ('A' for Active; 'I' for Inactive)
    1  A    between atoms: C_2  and  O_25
    2  A    between atoms: C_3  and  C_5
    3  A    between atoms: C_3  and  C_53
    4  A    between atoms: C_9  and  C_11
    5  A    between atoms: C_9  and  C_42
    6  A    between atoms: C_10  and  C_31
    7  A    between atoms: C_11  and  C_12
    8  A    between atoms: C_12  and  C_22
    9  A    between atoms: C_15  and  C_55
   10  A    between atoms: N_20  and  C_57
   11  A    between atoms: O_25  and  C_42
   12  A    between atoms: C_27  and  C_52
   13  A    between atoms: C_28  and  C_30
   14  A    between atoms: C_36  and  C_57
   15  A    between atoms: O_43  and  C_48
   16  A    between atoms: O_43  and  C_52
                            x       y       z     vdW  Elec       q    Type
                         _______ _______ _______ _____ _____    ______ ____

>  <TORSDO>
F 16

$$$$
=
 OpenBabel11062417373D

 57 64  0  0  1  0  0  0  0  0999 V2000
  188.0300  178.2520  146.0570 C   0  0  2  0  0  3  0  0  0  0  0  0
  186.5040  177.1980  143.7960 C   0  0  0  0  0  2  0  0  0  0  0  0
  187.9540  176.7480  144.0140 C   0  0  0  0  0  2  0  0  0  0  0  0
  186.0830  178.2340  144.8510 C   0  0  2  0  0  3  0  0  0  0  0  0
  186.6560  177.8970  146.0940 O   0  0  0  0  0  0  0  0  0  0  0  0
  188.7450  177.8330  144.7340 C   0  0  2  0  0  3  0  0  0  0  0  0
  188.7250  176.3850  147.5550 O   0  0  0  0  0  0  0  0  0  0  0  0
  189.2590  178.5460  148.0940 O   0  0  0  0  0  1  0  0  0  0  0  0
  188.7100  177.7480  147.2910 C   0  0  0  0  0  0  0  0  0  0  0  0
  184.5620  178.3350  144.9500 C   0  0  1  0  0  3  0  0  0  0  0  0
  184.1890  178.7940  146.2160 O   0  0  0  0  0  1  0  0  0  0  0  0
  183.9910  179.2410  143.8480 C   0  0  1  0  0  3  0  0  0  0  0  0
  184.6650  178.9970  142.5070 C   0  0  0  0  0  1  0  0  0  0  0  0
  182.4590  179.2230  143.7480 C   0  0  0  0  0  2  0  0  0  0  0  0
  181.9640  178.8660  142.3540 C   0  0  0  0  0  2  0  0  0  0  0  0
  180.7060  178.2520  142.4390 O   0  0  0  0  0  0  0  0  0  0  0  0
  179.8420  177.5800  140.2120 C   0  0  1  0  0  3  0  0  0  0  0  0
  179.9420  178.6480  141.3200 C   0  0  2  0  0  3  0  0  0  0  0  0
  179.1120  176.3660  140.7560 C   0  0  0  0  0  1  0  0  0  0  0  0
  182.2270  179.8230  139.7290 F   0  0  0  0  0  0  0  0  0  0  0  0
  181.0210  180.5050  139.7600 C   0  0  1  0  0  3  0  0  0  0  0  0
  180.3060  178.6940  137.7710 S   0  0  0  0  0  0  0  0  0  0  0  0
  180.2740  180.4010  138.4300 C   0  0  2  0  0  3  0  0  0  0  0  0
  179.1010  178.0830  138.9870 C   0  0  0  0  0  2  0  0  0  0  0  0
  180.1670  180.0930  140.9250 C   0  0  0  0  0  0  0  0  0  0  0  0
  179.6140  180.9620  141.5790 O   0  0  0  0  0  0  0  0  0  0  0  0
  180.9010  181.3710  137.4390 C   0  0  2  0  0  3  0  0  0  0  0  0
  179.8830  182.3490  137.0290 N   0  0  0  0  0  2  0  0  0  0  0  0
  180.2840  181.2700  136.1180 C   0  0  0  0  0  2  0  0  0  0  0  0
  190.1000  177.4300  144.9040 O   0  0  0  0  0  0  0  0  0  0  0  0
  191.6800  175.8140  144.4200 O   0  0  0  0  0  0  0  0  0  0  0  0
  190.7410  176.5580  144.0210 C   0  0  0  0  0  0  0  0  0  0  0  0
  190.6410  176.9530  140.1790 C   0  0  0  0  0  0  0  0  0  0  0  0
  191.6690  177.4000  139.4730 C   0  0  0  0  0  3  0  0  0  0  0  0
  190.3080  176.5430  142.6120 C   0  0  0  0  0  3  0  0  0  0  0  0
  192.4260  177.4160  141.5570 C   0  0  0  0  0  3  0  0  0  0  0  0
  191.0480  176.9400  141.5740 C   0  0  0  0  0  0  0  0  0  0  0  0
  192.7750  177.6770  140.3360 N   0  0  0  0  0  0  0  0  0  0  0  0
  189.2930  176.6130  139.6220 C   0  0  0  0  0  2  0  0  0  0  0  0
  188.0380  178.3370  138.3050 C   0  0  0  0  0  3  0  0  0  0  0  0
  188.4400  177.8420  139.4810 C   0  0  0  0  0  3  0  0  0  0  0  0
  188.3840  177.6930  137.0000 C   0  0  0  0  0  2  0  0  0  0  0  0
  184.9840  172.6470  137.4110 C   0  0  0  0  0  3  0  0  0  0  0  0
  186.0260  176.7180  137.0130 C   0  0  0  0  0  0  0  0  0  0  0  0
  184.1610  174.9550  137.4810 C   0  0  0  0  0  0  0  0  0  0  0  0
  186.4730  174.4660  136.9350 C   0  0  0  0  0  0  0  0  0  0  0  0
  187.4170  176.6540  136.6790 N   0  0  0  0  0  0  0  0  0  0  0  0
  183.9400  173.5690  137.6220 C   0  0  0  0  0  3  0  0  0  0  0  0
  185.4560  175.3760  137.1440 C   0  0  0  0  0  0  0  0  0  0  0  0
  188.4930  174.7960  135.4250 C   0  0  0  0  0  2  0  0  0  0  0  0
  186.2690  173.0920  137.0670 C   0  0  0  0  0  3  0  0  0  0  0  0
  189.1290  174.7230  136.8170 C   0  0  0  0  0  2  0  0  0  0  0  0
  185.4090  177.7950  137.2260 O   0  0  0  0  0  0  0  0  0  0  0  0
  187.7160  175.2270  136.6440 C   0  0  0  0  0  0  0  0  0  0  0  0
  182.9410  176.2780  139.1770 C   0  0  0  0  0  2  0  0  0  0  0  0
  183.0610  175.9410  137.7390 C   0  0  2  0  0  3  0  0  0  0  0  0
  182.0940  175.3390  138.5680 O   0  0  0  0  0  0  0  0  0  0  0  0
  1  5  1  0  0  0  0
  1  9  1  1  0  0  0
  2  3  1  0  0  0  0
  2  4  1  0  0  0  0
  3  6  1  0  0  0  0
  4 10  1  1  0  0  0
  4  5  1  0  0  0  0
  6 30  1  1  0  0  0
  6  1  1  0  0  0  0
  9  7  2  0  0  0  0
  9  8  1  0  0  0  0
 10 11  1  1  0  0  0
 12 13  1  6  0  0  0
 12 10  1  0  0  0  0
 14 12  1  0  0  0  0
 15 16  1  0  0  0  0
 15 14  1  0  0  0  0
 17 19  1  1  0  0  0
 17 18  1  0  0  0  0
 18 16  1  1  0  0  0
 21 20  1  6  0  0  0
 21 25  1  0  0  0  0
 22 24  1  0  0  0  0
 23 22  1  6  0  0  0
 23 21  1  0  0  0  0
 24 17  1  0  0  0  0
 25 18  1  0  0  0  0
 25 26  2  0  0  0  0
 27 29  1  6  0  0  0
 27 23  1  0  0  0  0
 28 27  1  0  0  0  0
 29 28  1  0  0  0  0
 32 31  2  0  0  0  0
 32 30  1  0  0  0  0
 33 37  1  0  0  0  0
 34 33  2  0  0  0  0
 34 38  1  0  0  0  0
 35 32  1  0  0  0  0
 36 37  1  0  0  0  0
 37 35  2  0  0  0  0
 38 36  2  0  0  0  0
 39 33  1  0  0  0  0
 40 41  2  0  0  0  0
 41 39  1  0  0  0  0
 42 40  1  0  0  0  0
 43 48  1  0  0  0  0
 44 49  1  0  0  0  0
 44 53  2  0  0  0  0
 45 48  2  0  0  0  0
 46 51  1  0  0  0  0
 46 49  2  0  0  0  0
 47 42  1  0  0  0  0
 47 44  1  0  0  0  0
 49 45  1  0  0  0  0
 50 54  1  0  0  0  0
 50 52  1  0  0  0  0
 51 43  2  0  0  0  0
 54 47  1  0  0  0  0
 54 52  1  0  0  0  0
 54 46  1  0  0  0  0
 56 45  1  1  0  0  0
 56 57  1  0  0  0  0
 56 55  1  0  0  0  0
 57 55  1  0  0  0  0
M  END
>  <MODEL>
6

>  <REMARK>
 VINA RESULT:      -7.9      4.711     11.789
  Name = 
  16 active torsions:
  status: ('A' for Active; 'I' for Inactive)
    1  A    between atoms: C_2  and  O_25
    2  A    between atoms: C_3  and  C_5
    3  A    between atoms: C_3  and  C_53
    4  A    between atoms: C_9  and  C_11
    5  A    between atoms: C_9  and  C_42
    6  A    between atoms: C_10  and  C_31
    7  A    between atoms: C_11  and  C_12
    8  A    between atoms: C_12  and  C_22
    9  A    between atoms: C_15  and  C_55
   10  A    between atoms: N_20  and  C_57
   11  A    between atoms: O_25  and  C_42
   12  A    between atoms: C_27  and  C_52
   13  A    between atoms: C_28  and  C_30
   14  A    between atoms: C_36  and  C_57
   15  A    between atoms: O_43  and  C_48
   16  A    between atoms: O_43  and  C_52
                            x       y       z     vdW  Elec       q    Type
                         _______ _______ _______ _____ _____    ______ ____

>  <TORSDO>
F 16

$$$$
=
 OpenBabel11062417373D

 57 64  0  0  1  0  0  0  0  0999 V2000
  190.5030  176.9780  142.3420 C   0  0  2  0  0  3  0  0  0  0  0  0
  189.0890  178.1890  140.0870 C   0  0  0  0  0  2  0  0  0  0  0  0
  188.6860  178.5490  141.5220 C   0  0  0  0  0  2  0  0  0  0  0  0
  190.2170  177.1460  140.0760 C   0  0  2  0  0  3  0  0  0  0  0  0
  191.1100  177.4080  141.1330 O   0  0  0  0  0  0  0  0  0  0  0  0
  189.0040  177.3990  142.4690 C   0  0  2  0  0  3  0  0  0  0  0  0
  191.6850  176.4720  144.4780 O   0  0  0  0  0  1  0  0  0  0  0  0
  191.7360  178.5930  143.6140 O   0  0  0  0  0  0  0  0  0  0  0  0
  191.3450  177.4030  143.5050 C   0  0  0  0  0  0  0  0  0  0  0  0
  190.9400  177.1270  138.7300 C   0  0  1  0  0  3  0  0  0  0  0  0
  192.2620  176.7070  138.8970 O   0  0  0  0  0  1  0  0  0  0  0  0
  190.2060  176.2370  137.7150 C   0  0  1  0  0  3  0  0  0  0  0  0
  190.1570  176.8730  136.3340 C   0  0  0  0  0  1  0  0  0  0  0  0
  190.7010  174.7850  137.6760 C   0  0  0  0  0  2  0  0  0  0  0  0
  191.2600  174.3900  136.3160 C   0  0  0  0  0  2  0  0  0  0  0  0
  191.6450  173.0420  136.3340 O   0  0  0  0  0  0  0  0  0  0  0  0
  193.6410  171.5860  136.0940 C   0  0  1  0  0  3  0  0  0  0  0  0
  192.9660  172.9510  135.8440 C   0  0  2  0  0  3  0  0  0  0  0  0
  192.8840  170.5110  135.3370 C   0  0  0  0  0  1  0  0  0  0  0  0
  194.3440  173.8880  138.3650 F   0  0  0  0  0  0  0  0  0  0  0  0
  194.8000  174.3620  137.1460 C   0  0  1  0  0  3  0  0  0  0  0  0
  196.1600  171.9340  137.0690 S   0  0  0  0  0  0  0  0  0  0  0  0
  196.1410  173.7370  136.7580 C   0  0  2  0  0  3  0  0  0  0  0  0
  195.0900  171.5650  135.6460 C   0  0  0  0  0  2  0  0  0  0  0  0
  193.7710  174.2150  136.0600 C   0  0  0  0  0  0  0  0  0  0  0  0
  193.5830  175.1540  135.3050 O   0  0  0  0  0  0  0  0  0  0  0  0
  197.2470  174.4290  137.5430 C   0  0  2  0  0  3  0  0  0  0  0  0
  197.6690  175.6280  136.8050 N   0  0  0  0  0  2  0  0  0  0  0  0
  198.5120  174.4260  136.8110 C   0  0  0  0  0  2  0  0  0  0  0  0
  188.5970  177.7190  143.7960 O   0  0  0  0  0  0  0  0  0  0  0  0
  187.0930  177.0490  145.4160 O   0  0  0  0  0  0  0  0  0  0  0  0
  187.2960  177.4990  144.2550 C   0  0  0  0  0  0  0  0  0  0  0  0
  183.8850  178.6240  142.8310 C   0  0  0  0  0  0  0  0  0  0  0  0
  182.9470  179.1930  143.5730 C   0  0  0  0  0  3  0  0  0  0  0  0
  186.1740  177.7870  143.3450 C   0  0  0  0  0  3  0  0  0  0  0  0
  184.5980  178.8410  145.0100 C   0  0  0  0  0  3  0  0  0  0  0  0
  185.0140  178.3460  143.7030 C   0  0  0  0  0  0  0  0  0  0  0  0
  183.4010  179.3310  144.9210 N   0  0  0  0  0  0  0  0  0  0  0  0
  183.7460  178.2690  141.3830 C   0  0  0  0  0  2  0  0  0  0  0  0
  185.0380  178.6320  139.2670 C   0  0  0  0  0  3  0  0  0  0  0  0
  184.9520  178.7050  140.6000 C   0  0  0  0  0  3  0  0  0  0  0  0
  183.9200  178.1240  138.4140 C   0  0  0  0  0  2  0  0  0  0  0  0
  187.2380  173.4400  136.3510 C   0  0  0  0  0  3  0  0  0  0  0  0
  183.9180  175.6770  137.6890 C   0  0  0  0  0  0  0  0  0  0  0  0
  184.9260  173.3310  137.1590 C   0  0  0  0  0  0  0  0  0  0  0  0
  186.0400  175.4610  136.8360 C   0  0  0  0  0  0  0  0  0  0  0  0
  184.3840  177.0260  137.5770 N   0  0  0  0  0  0  0  0  0  0  0  0
  186.1070  172.6900  136.7290 C   0  0  0  0  0  3  0  0  0  0  0  0
  184.9290  174.7320  137.2130 C   0  0  0  0  0  0  0  0  0  0  0  0
  186.0350  177.8250  135.8990 C   0  0  0  0  0  2  0  0  0  0  0  0
  187.2140  174.8420  136.4050 C   0  0  0  0  0  3  0  0  0  0  0  0
  186.7530  178.0030  137.2400 C   0  0  0  0  0  2  0  0  0  0  0  0
  182.8070  175.3620  138.1940 O   0  0  0  0  0  0  0  0  0  0  0  0
  185.7390  176.9000  137.0520 C   0  0  0  0  0  0  0  0  0  0  0  0
  183.5470  171.3150  136.7740 C   0  0  0  0  0  2  0  0  0  0  0  0
  183.7330  172.5340  137.5950 C   0  0  2  0  0  3  0  0  0  0  0  0
  182.8070  172.4820  136.5340 O   0  0  0  0  0  0  0  0  0  0  0  0
  1  6  1  0  0  0  0
  1  9  1  1  0  0  0
  2  3  1  0  0  0  0
  3  6  1  0  0  0  0
  4 10  1  6  0  0  0
  4  2  1  0  0  0  0
  4  5  1  0  0  0  0
  5  1  1  0  0  0  0
  6 30  1  1  0  0  0
  9  8  2  0  0  0  0
  9  7  1  0  0  0  0
 10 11  1  1  0  0  0
 12 13  1  6  0  0  0
 12 10  1  0  0  0  0
 14 12  1  0  0  0  0
 15 16  1  0  0  0  0
 15 14  1  0  0  0  0
 17 19  1  6  0  0  0
 18 25  1  0  0  0  0
 18 17  1  0  0  0  0
 18 16  1  1  0  0  0
 21 20  1  1  0  0  0
 23 22  1  1  0  0  0
 23 21  1  0  0  0  0
 23 27  1  0  0  0  0
 24 17  1  0  0  0  0
 24 22  1  0  0  0  0
 25 21  1  0  0  0  0
 26 25  2  0  0  0  0
 27 29  1  6  0  0  0
 28 29  1  0  0  0  0
 28 27  1  0  0  0  0
 30 32  1  0  0  0  0
 32 31  2  0  0  0  0
 33 34  2  0  0  0  0
 33 37  1  0  0  0  0
 34 38  1  0  0  0  0
 35 37  2  0  0  0  0
 35 32  1  0  0  0  0
 37 36  1  0  0  0  0
 38 36  2  0  0  0  0
 39 33  1  0  0  0  0
 40 41  2  0  0  0  0
 41 39  1  0  0  0  0
 42 40  1  0  0  0  0
 43 51  2  0  0  0  0
 43 48  1  0  0  0  0
 44 53  2  0  0  0  0
 45 49  1  0  0  0  0
 46 54  1  0  0  0  0
 46 49  2  0  0  0  0
 47 44  1  0  0  0  0
 47 42  1  0  0  0  0
 48 45  2  0  0  0  0
 49 44  1  0  0  0  0
 50 54  1  0  0  0  0
 50 52  1  0  0  0  0
 51 46  1  0  0  0  0
 54 52  1  0  0  0  0
 54 47  1  0  0  0  0
 55 56  1  0  0  0  0
 56 45  1  6  0  0  0
 57 55  1  0  0  0  0
 57 56  1  0  0  0  0
M  END
>  <MODEL>
7

>  <REMARK>
 VINA RESULT:      -7.9      2.450      6.409
  Name = 
  16 active torsions:
  status: ('A' for Active; 'I' for Inactive)
    1  A    between atoms: C_2  and  O_25
    2  A    between atoms: C_3  and  C_5
    3  A    between atoms: C_3  and  C_53
    4  A    between atoms: C_9  and  C_11
    5  A    between atoms: C_9  and  C_42
    6  A    between atoms: C_10  and  C_31
    7  A    between atoms: C_11  and  C_12
    8  A    between atoms: C_12  and  C_22
    9  A    between atoms: C_15  and  C_55
   10  A    between atoms: N_20  and  C_57
   11  A    between atoms: O_25  and  C_42
   12  A    between atoms: C_27  and  C_52
   13  A    between atoms: C_28  and  C_30
   14  A    between atoms: C_36  and  C_57
   15  A    between atoms: O_43  and  C_48
   16  A    between atoms: O_43  and  C_52
                            x       y       z     vdW  Elec       q    Type
                         _______ _______ _______ _____ _____    ______ ____

>  <TORSDO>
F 16

$$$$
=
 OpenBabel11062417373D

 57 64  0  0  1  0  0  0  0  0999 V2000
  190.6520  177.2650  143.0890 C   0  0  2  0  0  3  0  0  0  0  0  0
  188.9500  177.9820  140.8210 C   0  0  0  0  0  2  0  0  0  0  0  0
  188.5030  178.3230  142.2480 C   0  0  0  0  0  2  0  0  0  0  0  0
  190.2890  177.2290  140.8280 C   0  0  2  0  0  3  0  0  0  0  0  0
  191.1180  177.7520  141.8400 O   0  0  0  0  0  0  0  0  0  0  0  0
  189.0980  177.3350  143.2430 C   0  0  2  0  0  3  0  0  0  0  0  0
  191.9570  179.1910  143.9830 O   0  0  0  0  0  0  0  0  0  0  0  0
  191.5210  177.3830  145.3200 O   0  0  0  0  0  1  0  0  0  0  0  0
  191.3940  177.9400  144.2000 C   0  0  0  0  0  0  0  0  0  0  0  0
  190.9700  177.2990  139.4620 C   0  0  1  0  0  3  0  0  0  0  0  0
  192.2640  176.7760  139.5390 O   0  0  0  0  0  1  0  0  0  0  0  0
  190.1470  176.5680  138.3900 C   0  0  1  0  0  3  0  0  0  0  0  0
  189.8070  177.4770  137.2190 C   0  0  0  0  0  1  0  0  0  0  0  0
  190.7450  175.2280  137.9400 C   0  0  0  0  0  2  0  0  0  0  0  0
  191.1970  175.2440  136.4860 C   0  0  0  0  0  2  0  0  0  0  0  0
  191.3290  173.9290  136.0160 O   0  0  0  0  0  0  0  0  0  0  0  0
  193.1720  172.2940  135.7210 C   0  0  1  0  0  3  0  0  0  0  0  0
  192.6600  173.7430  135.5850 C   0  0  2  0  0  3  0  0  0  0  0  0
  192.3540  171.3920  134.8170 C   0  0  0  0  0  1  0  0  0  0  0  0
  193.9720  174.2640  138.2570 F   0  0  0  0  0  0  0  0  0  0  0  0
  194.5490  174.8040  137.1200 C   0  0  1  0  0  3  0  0  0  0  0  0
  195.6490  172.2610  136.8510 S   0  0  0  0  0  0  0  0  0  0  0  0
  195.8380  174.0780  136.7350 C   0  0  2  0  0  3  0  0  0  0  0  0
  194.6350  172.1590  135.3450 C   0  0  0  0  0  2  0  0  0  0  0  0
  193.5780  174.8820  135.9750 C   0  0  0  0  0  0  0  0  0  0  0  0
  193.5360  175.9080  135.3160 O   0  0  0  0  0  0  0  0  0  0  0  0
  196.9600  174.5600  137.6430 C   0  0  2  0  0  3  0  0  0  0  0  0
  197.8670  175.4120  136.8590 N   0  0  0  0  0  2  0  0  0  0  0  0
  198.2600  174.0430  137.2180 C   0  0  0  0  0  2  0  0  0  0  0  0
  188.6540  177.6290  144.5630 O   0  0  0  0  0  0  0  0  0  0  0  0
  187.0270  177.1190  146.1220 O   0  0  0  0  0  0  0  0  0  0  0  0
  187.3200  177.4960  144.9540 C   0  0  0  0  0  0  0  0  0  0  0  0
  184.0310  178.6410  143.2810 C   0  0  0  0  0  0  0  0  0  0  0  0
  183.0490  179.2280  143.9480 C   0  0  0  0  0  3  0  0  0  0  0  0
  186.2670  177.7850  143.9640 C   0  0  0  0  0  3  0  0  0  0  0  0
  184.5910  178.8740  145.5020 C   0  0  0  0  0  3  0  0  0  0  0  0
  185.0920  178.3600  144.2330 C   0  0  0  0  0  0  0  0  0  0  0  0
  183.4080  179.3760  145.3240 N   0  0  0  0  0  0  0  0  0  0  0  0
  183.9900  178.2710  141.8300 C   0  0  0  0  0  2  0  0  0  0  0  0
  184.9690  179.2320  139.7330 C   0  0  0  0  0  3  0  0  0  0  0  0
  185.0370  179.0160  141.0520 C   0  0  0  0  0  3  0  0  0  0  0  0
  183.8190  178.7670  138.8990 C   0  0  0  0  0  2  0  0  0  0  0  0
  183.4540  173.7270  135.4840 C   0  0  0  0  0  3  0  0  0  0  0  0
  185.0670  177.1300  137.3910 C   0  0  0  0  0  0  0  0  0  0  0  0
  185.3500  175.2780  135.5770 C   0  0  0  0  0  0  0  0  0  0  0  0
  183.4910  175.4810  137.1210 C   0  0  0  0  0  0  0  0  0  0  0  0
  184.0780  177.4310  138.3830 N   0  0  0  0  0  0  0  0  0  0  0  0
  184.6980  174.1710  134.9940 C   0  0  0  0  0  3  0  0  0  0  0  0
  184.7080  175.9240  136.6430 C   0  0  0  0  0  0  0  0  0  0  0  0
  182.6250  175.7500  139.4970 C   0  0  0  0  0  2  0  0  0  0  0  0
  182.8350  174.3860  136.5580 C   0  0  0  0  0  3  0  0  0  0  0  0
  181.6480  176.6100  138.6890 C   0  0  0  0  0  2  0  0  0  0  0  0
  186.0710  177.8560  137.1650 O   0  0  0  0  0  0  0  0  0  0  0  0
  183.0630  176.3990  138.2080 C   0  0  0  0  0  0  0  0  0  0  0  0
  187.5380  174.6640  134.6000 C   0  0  0  0  0  2  0  0  0  0  0  0
  186.6580  175.7740  135.0350 C   0  0  2  0  0  3  0  0  0  0  0  0
  187.7020  175.2870  135.8460 O   0  0  0  0  0  0  0  0  0  0  0  0
  1  6  1  0  0  0  0
  1  9  1  1  0  0  0
  2  4  1  0  0  0  0
  2  3  1  0  0  0  0
  3  6  1  0  0  0  0
  4 10  1  6  0  0  0
  4  5  1  0  0  0  0
  5  1  1  0  0  0  0
  6 30  1  1  0  0  0
  7  9  2  0  0  0  0
  9  8  1  0  0  0  0
 10 11  1  1  0  0  0
 12 13  1  6  0  0  0
 12 10  1  0  0  0  0
 14 12  1  0  0  0  0
 15 14  1  0  0  0  0
 16 15  1  0  0  0  0
 17 19  1  6  0  0  0
 18 17  1  0  0  0  0
 18 25  1  0  0  0  0
 18 16  1  1  0  0  0
 21 20  1  1  0  0  0
 23 22  1  1  0  0  0
 23 21  1  0  0  0  0
 23 27  1  0  0  0  0
 24 17  1  0  0  0  0
 24 22  1  0  0  0  0
 25 21  1  0  0  0  0
 26 25  2  0  0  0  0
 27 29  1  6  0  0  0
 28 29  1  0  0  0  0
 28 27  1  0  0  0  0
 30 32  1  0  0  0  0
 32 31  2  0  0  0  0
 33 34  2  0  0  0  0
 33 37  1  0  0  0  0
 34 38  1  0  0  0  0
 35 37  2  0  0  0  0
 35 32  1  0  0  0  0
 37 36  1  0  0  0  0
 38 36  2  0  0  0  0
 39 33  1  0  0  0  0
 40 41  2  0  0  0  0
 41 39  1  0  0  0  0
 42 40  1  0  0  0  0
 43 51  1  0  0  0  0
 44 47  1  0  0  0  0
 45 49  2  0  0  0  0
 46 54  1  0  0  0  0
 47 42  1  0  0  0  0
 48 43  2  0  0  0  0
 48 45  1  0  0  0  0
 49 46  1  0  0  0  0
 49 44  1  0  0  0  0
 51 46  2  0  0  0  0
 52 50  1  0  0  0  0
 53 44  2  0  0  0  0
 54 47  1  0  0  0  0
 54 52  1  0  0  0  0
 54 50  1  0  0  0  0
 55 56  1  0  0  0  0
 55 57  1  0  0  0  0
 56 45  1  1  0  0  0
 56 57  1  0  0  0  0
M  END
>  <MODEL>
8

>  <REMARK>
 VINA RESULT:      -7.9      2.288      6.518
  Name = 
  16 active torsions:
  status: ('A' for Active; 'I' for Inactive)
    1  A    between atoms: C_2  and  O_25
    2  A    between atoms: C_3  and  C_5
    3  A    between atoms: C_3  and  C_53
    4  A    between atoms: C_9  and  C_11
    5  A    between atoms: C_9  and  C_42
    6  A    between atoms: C_10  and  C_31
    7  A    between atoms: C_11  and  C_12
    8  A    between atoms: C_12  and  C_22
    9  A    between atoms: C_15  and  C_55
   10  A    between atoms: N_20  and  C_57
   11  A    between atoms: O_25  and  C_42
   12  A    between atoms: C_27  and  C_52
   13  A    between atoms: C_28  and  C_30
   14  A    between atoms: C_36  and  C_57
   15  A    between atoms: O_43  and  C_48
   16  A    between atoms: O_43  and  C_52
                            x       y       z     vdW  Elec       q    Type
                         _______ _______ _______ _____ _____    ______ ____

>  <TORSDO>
F 16

$$$$
=
 OpenBabel11062417373D

 57 64  0  0  1  0  0  0  0  0999 V2000
  181.6300  178.5270  141.3050 C   0  0  2  0  0  3  0  0  0  0  0  0
  184.4750  177.9200  141.0130 C   0  0  0  0  0  2  0  0  0  0  0  0
  183.5440  177.8100  139.7990 C   0  0  0  0  0  2  0  0  0  0  0  0
  183.6930  178.3140  142.2750 C   0  0  2  0  0  3  0  0  0  0  0  0
  182.6850  179.2370  141.9340 O   0  0  0  0  0  0  0  0  0  0  0  0
  182.1240  177.4890  140.2450 C   0  0  2  0  0  3  0  0  0  0  0  0
  179.2950  179.3890  141.1630 O   0  0  0  0  0  1  0  0  0  0  0  0
  180.9640  180.3950  139.9590 O   0  0  0  0  0  0  0  0  0  0  0  0
  180.6230  179.4950  140.7680 C   0  0  0  0  0  0  0  0  0  0  0  0
  184.6220  178.8780  143.3480 C   0  0  1  0  0  3  0  0  0  0  0  0
  185.1240  180.1200  142.9500 O   0  0  0  0  0  1  0  0  0  0  0  0
  183.9090  178.9850  144.7050 C   0  0  1  0  0  3  0  0  0  0  0  0
  182.3960  178.9200  144.5560 C   0  0  0  0  0  1  0  0  0  0  0  0
  184.4370  178.0170  145.7730 C   0  0  0  0  0  2  0  0  0  0  0  0
  185.2940  178.7110  146.8230 C   0  0  0  0  0  2  0  0  0  0  0  0
  186.5420  179.0380  146.2760 O   0  0  0  0  0  0  0  0  0  0  0  0
  188.4320  177.8920  147.4050 C   0  0  1  0  0  3  0  0  0  0  0  0
  187.3550  177.8850  146.3000 C   0  0  2  0  0  3  0  0  0  0  0  0
  187.7530  177.9040  148.7610 C   0  0  0  0  0  1  0  0  0  0  0  0
  189.5050  178.9260  144.4500 F   0  0  0  0  0  0  0  0  0  0  0  0
  189.0750  177.6190  144.2960 C   0  0  1  0  0  3  0  0  0  0  0  0
  190.8410  177.1250  146.3910 S   0  0  0  0  0  0  0  0  0  0  0  0
  190.1190  176.6150  144.7890 C   0  0  2  0  0  3  0  0  0  0  0  0
  189.3470  176.6850  147.3300 C   0  0  0  0  0  2  0  0  0  0  0  0
  187.7280  177.3880  144.9190 C   0  0  0  0  0  0  0  0  0  0  0  0
  186.8950  176.7570  144.2890 O   0  0  0  0  0  0  0  0  0  0  0  0
  191.2040  176.4790  143.7300 C   0  0  2  0  0  3  0  0  0  0  0  0
  190.9760  175.2360  142.9790 N   0  0  0  0  0  2  0  0  0  0  0  0
  192.0530  175.3150  143.9730 C   0  0  0  0  0  2  0  0  0  0  0  0
  181.2660  177.3530  139.1170 O   0  0  0  0  0  0  0  0  0  0  0  0
  179.5420  175.8140  139.0820 O   0  0  0  0  0  0  0  0  0  0  0  0
  180.7160  176.1260  138.7370 C   0  0  0  0  0  0  0  0  0  0  0  0
  182.0560  172.9840  136.9320 C   0  0  0  0  0  0  0  0  0  0  0  0
  181.4020  171.8330  136.9060 C   0  0  0  0  0  3  0  0  0  0  0  0
  181.5450  175.2010  137.9450 C   0  0  0  0  0  3  0  0  0  0  0  0
  180.0650  173.1620  138.0740 C   0  0  0  0  0  3  0  0  0  0  0  0
  181.2500  173.9220  137.6940 C   0  0  0  0  0  0  0  0  0  0  0  0
  180.1630  171.9550  137.6100 N   0  0  0  0  0  0  0  0  0  0  0  0
  183.4150  173.2190  136.3470 C   0  0  0  0  0  2  0  0  0  0  0  0
  185.7880  173.1990  137.1530 C   0  0  0  0  0  3  0  0  0  0  0  0
  184.4940  172.9200  137.3490 C   0  0  0  0  0  3  0  0  0  0  0  0
  186.2890  173.8650  135.9120 C   0  0  0  0  0  2  0  0  0  0  0  0
  188.6190  178.5440  139.0540 C   0  0  0  0  0  3  0  0  0  0  0  0
  188.4030  174.9750  136.8110 C   0  0  0  0  0  0  0  0  0  0  0  0
  189.8300  176.5370  138.3360 C   0  0  0  0  0  0  0  0  0  0  0  0
  187.5690  176.9730  137.5750 C   0  0  0  0  0  0  0  0  0  0  0  0
  187.0860  175.0340  136.2540 N   0  0  0  0  0  0  0  0  0  0  0  0
  189.7730  177.7360  139.0770 C   0  0  0  0  0  3  0  0  0  0  0  0
  188.6950  176.1750  137.5970 C   0  0  0  0  0  0  0  0  0  0  0  0
  185.8770  177.1310  135.6830 C   0  0  0  0  0  2  0  0  0  0  0  0
  187.4990  178.1640  138.3000 C   0  0  0  0  0  3  0  0  0  0  0  0
  185.0490  176.5210  136.8180 C   0  0  0  0  0  2  0  0  0  0  0  0
  189.1700  173.9830  136.6840 O   0  0  0  0  0  0  0  0  0  0  0  0
  186.5390  176.2930  136.7480 C   0  0  0  0  0  0  0  0  0  0  0  0
  192.2990  176.4320  138.2370 C   0  0  0  0  0  2  0  0  0  0  0  0
  191.0440  175.6580  138.3860 C   0  0  2  0  0  3  0  0  0  0  0  0
  191.7240  175.7490  137.1550 O   0  0  0  0  0  0  0  0  0  0  0  0
  1  9  1  6  0  0  0
  1  5  1  0  0  0  0
  2  4  1  0  0  0  0
  3  6  1  0  0  0  0
  3  2  1  0  0  0  0
  4 10  1  1  0  0  0
  5  4  1  0  0  0  0
  6 30  1  6  0  0  0
  6  1  1  0  0  0  0
  8  9  2  0  0  0  0
  9  7  1  0  0  0  0
 10 11  1  6  0  0  0
 10 12  1  0  0  0  0
 12 13  1  6  0  0  0
 12 14  1  0  0  0  0
 14 15  1  0  0  0  0
 16 15  1  0  0  0  0
 17 19  1  1  0  0  0
 18 16  1  6  0  0  0
 18 17  1  0  0  0  0
 21 20  1  1  0  0  0
 21 23  1  0  0  0  0
 21 25  1  0  0  0  0
 22 24  1  0  0  0  0
 23 22  1  1  0  0  0
 24 17  1  0  0  0  0
 25 18  1  0  0  0  0
 26 25  2  0  0  0  0
 27 29  1  1  0  0  0
 27 23  1  0  0  0  0
 28 27  1  0  0  0  0
 28 29  1  0  0  0  0
 32 31  2  0  0  0  0
 32 30  1  0  0  0  0
 33 37  1  0  0  0  0
 34 33  2  0  0  0  0
 34 38  1  0  0  0  0
 35 32  1  0  0  0  0
 37 35  2  0  0  0  0
 37 36  1  0  0  0  0
 38 36  2  0  0  0  0
 39 33  1  0  0  0  0
 39 41  1  0  0  0  0
 40 41  2  0  0  0  0
 42 47  1  0  0  0  0
 42 40  1  0  0  0  0
 43 48  1  0  0  0  0
 44 49  1  0  0  0  0
 45 48  2  0  0  0  0
 46 49  2  0  0  0  0
 46 51  1  0  0  0  0
 47 54  1  0  0  0  0
 47 44  1  0  0  0  0
 49 45  1  0  0  0  0
 50 54  1  0  0  0  0
 50 52  1  0  0  0  0
 51 43  2  0  0  0  0
 53 44  2  0  0  0  0
 54 52  1  0  0  0  0
 54 46  1  0  0  0  0
 55 56  1  0  0  0  0
 56 45  1  6  0  0  0
 57 55  1  0  0  0  0
 57 56  1  0  0  0  0
M  END
>  <MODEL>
9

>  <REMARK>
 VINA RESULT:      -7.9      3.964      9.388
  Name = 
  16 active torsions:
  status: ('A' for Active; 'I' for Inactive)
    1  A    between atoms: C_2  and  O_25
    2  A    between atoms: C_3  and  C_5
    3  A    between atoms: C_3  and  C_53
    4  A    between atoms: C_9  and  C_11
    5  A    between atoms: C_9  and  C_42
    6  A    between atoms: C_10  and  C_31
    7  A    between atoms: C_11  and  C_12
    8  A    between atoms: C_12  and  C_22
    9  A    between atoms: C_15  and  C_55
   10  A    between atoms: N_20  and  C_57
   11  A    between atoms: O_25  and  C_42
   12  A    between atoms: C_27  and  C_52
   13  A    between atoms: C_28  and  C_30
   14  A    between atoms: C_36  and  C_57
   15  A    between atoms: O_43  and  C_48
   16  A    between atoms: O_43  and  C_52
                            x       y       z     vdW  Elec       q    Type
                         _______ _______ _______ _____ _____    ______ ____

>  <TORSDO>
F 16

$$$$
