=
 OpenBabel11062418153D

 59 64  0  0  1  0  0  0  0  0999 V2000
  186.3370  176.8140  137.0600 C   0  0  1  0  0  3  0  0  0  0  0  0
  187.2930  176.4560  134.9390 O   0  0  0  0  0  0  0  0  0  0  0  0
  187.3020  176.1400  136.1170 C   0  0  0  0  0  0  0  0  0  0  0  0
  188.2350  175.0650  136.5820 C   0  0  0  0  0  2  0  0  0  0  0  0
  191.4250  174.3370  137.5580 N   0  0  0  0  0  0  0  0  0  0  0  0
  192.2720  173.0920  135.7050 N   0  0  0  0  0  2  0  0  0  0  0  0
  189.6810  175.5320  136.4850 C   0  0  1  0  0  3  0  0  0  0  0  0
  191.3830  174.0290  136.3090 C   0  0  0  0  0  0  0  0  0  0  0  0
  190.3800  175.3160  137.8310 C   0  0  0  0  0  2  0  0  0  0  0  0
  190.4020  174.6860  135.5990 O   0  0  0  0  0  0  0  0  0  0  0  0
  193.2850  172.3830  136.4780 C   0  0  0  0  0  3  0  0  0  0  0  0
  194.6170  173.1290  136.4260 C   0  0  0  0  0  2  0  0  0  0  0  0
  194.9000  173.7180  135.0490 C   0  0  0  0  0  1  0  0  0  0  0  0
  193.4430  170.9510  135.9840 C   0  0  0  0  0  2  0  0  0  0  0  0
  194.6790  170.3010  136.5940 C   0  0  0  0  0  1  0  0  0  0  0  0
  186.8240  178.1760  137.5680 C   0  0  0  0  0  2  0  0  0  0  0  0
  187.3540  178.1380  139.0070 C   0  0  1  0  0  3  0  0  0  0  0  0
  188.4540  178.9870  139.1330 O   0  0  0  0  0  0  0  0  0  0  0  0
  189.1150  178.8790  137.9090 C   0  0  0  0  0  1  0  0  0  0  0  0
  185.2070  179.2110  139.4930 O   0  0  0  0  0  1  0  0  0  0  0  0
  186.2570  178.4530  140.0330 C   0  0  2  0  0  3  0  0  0  0  0  0
  186.8300  179.0630  141.3100 C   0  0  0  0  0  2  0  0  0  0  0  0
  186.7620  178.1000  143.6620 N   0  0  0  0  0  2  0  0  0  0  0  0
  187.9790  177.0800  141.9460 O   0  0  0  0  0  0  0  0  0  0  0  0
  187.2370  178.0320  142.3150 C   0  0  0  0  0  0  0  0  0  0  0  0
  187.1430  177.0710  144.6220 C   0  0  0  0  0  2  0  0  0  0  0  0
  187.8270  177.6780  145.8400 C   0  0  0  0  0  2  0  0  0  0  0  0
  189.1360  177.2630  148.2530 O   0  0  0  0  0  0  0  0  0  0  0  0
  189.2450  177.3100  145.9160 N   0  0  0  0  0  0  0  0  0  0  0  0
  189.7960  177.0020  147.2120 C   0  0  0  0  0  0  0  0  0  0  0  0
  191.0730  176.3810  147.3470 N   0  0  0  0  0  0  0  0  0  0  0  0
  192.1810  175.8390  148.1870 C   0  0  0  0  0  2  0  0  0  0  0  0
  192.3250  175.7590  146.8180 C   0  0  0  0  0  2  0  0  0  0  0  0
  191.1690  176.3030  142.8510 C   0  0  0  0  0  3  0  0  0  0  0  0
  190.0700  177.3860  144.7370 C   0  0  0  0  0  0  0  0  0  0  0  0
  190.3940  176.2250  144.0110 C   0  0  0  0  0  3  0  0  0  0  0  0
  191.6150  177.5470  142.3930 C   0  0  0  0  0  3  0  0  0  0  0  0
  190.4960  178.6300  144.2460 C   0  0  0  0  0  3  0  0  0  0  0  0
  191.2710  178.7100  143.0860 C   0  0  0  0  0  3  0  0  0  0  0  0
  185.0490  176.8810  136.5200 O   0  0  0  0  0  0  0  0  0  0  0  0
  184.2540  176.1990  137.4510 C   0  0  2  0  0  3  0  0  0  0  0  0
  184.0650  174.7140  137.1090 C   0  0  0  0  0  2  0  0  0  0  0  0
  184.2060  174.4040  135.6240 C   0  0  0  0  0  2  0  0  0  0  0  0
  184.7040  172.9830  135.4040 C   0  0  0  0  0  2  0  0  0  0  0  0
  184.4620  172.1410  136.6520 C   0  0  0  0  0  2  0  0  0  0  0  0
  181.2670  170.2340  135.6750 O   0  0  0  0  0  1  0  0  0  0  0  0
  182.0630  171.3460  135.9400 C   0  0  2  0  0  0  0  0  0  0  0  0
  183.4850  171.0230  136.3520 C   0  0  2  0  0  0  0  0  0  0  0  0
  182.4530  171.2230  137.2720 O   0  0  0  0  0  0  0  0  0  0  0  0
  183.1160  171.2860  135.0320 O   0  0  0  0  0  0  0  0  0  0  0  0
  182.9730  176.9660  137.7960 C   0  0  0  0  0  2  0  0  0  0  0  0
  182.5940  178.0590  136.8040 C   0  0  0  0  0  2  0  0  0  0  0  0
  181.5830  178.8810  137.3150 O   0  0  0  0  0  0  0  0  0  0  0  0
  181.1910  179.9940  139.2960 C   0  0  0  0  0  2  0  0  0  0  0  0
  182.1830  179.6830  138.2420 N   0  0  0  0  0  0  0  0  0  0  0  0
  181.5080  181.0120  138.3000 C   0  0  1  0  0  3  0  0  0  0  0  0
  180.3610  181.1760  137.2980 C   0  0  0  0  0  2  0  0  0  0  0  0
  180.4970  182.4710  136.5080 C   0  0  0  0  0  2  0  0  0  0  0  0
  181.1550  183.5500  137.3510 C   0  0  0  0  0  1  0  0  0  0  0  0
  1 16  1  6  0  0  0
  2  3  2  0  0  0  0
  3  4  1  0  0  0  0
  3  1  1  0  0  0  0
  5  9  1  0  0  0  0
  6  8  1  0  0  0  0
  6 11  1  0  0  0  0
  7  4  1  1  0  0  0
  7  9  1  0  0  0  0
  8  5  2  0  0  0  0
 10  8  1  0  0  0  0
 10  7  1  0  0  0  0
 12 11  1  0  0  0  0
 13 12  1  0  0  0  0
 14 11  1  0  0  0  0
 14 15  1  0  0  0  0
 17 16  1  6  0  0  0
 17 18  1  0  0  0  0
 17 21  1  0  0  0  0
 19 18  1  0  0  0  0
 21 20  1  6  0  0  0
 21 22  1  0  0  0  0
 22 25  1  0  0  0  0
 23 26  1  0  0  0  0
 24 25  2  0  0  0  0
 25 23  1  0  0  0  0
 26 27  1  0  0  0  0
 27 29  1  0  0  0  0
 29 30  1  0  0  0  0
 30 31  1  0  0  0  0
 30 28  2  0  0  0  0
 31 32  1  0  0  0  0
 33 31  1  0  0  0  0
 33 32  1  0  0  0  0
 34 36  1  0  0  0  0
 35 29  1  0  0  0  0
 36 35  2  0  0  0  0
 37 34  2  0  0  0  0
 37 39  1  0  0  0  0
 38 35  1  0  0  0  0
 39 38  2  0  0  0  0
 40  1  1  0  0  0  0
 40 41  1  0  0  0  0
 41 42  1  6  0  0  0
 41 51  1  0  0  0  0
 43 42  1  0  0  0  0
 44 43  1  0  0  0  0
 44 45  1  0  0  0  0
 47 46  1  6  0  0  0
 47 48  1  0  0  0  0
 47 49  1  0  0  0  0
 48 45  1  1  0  0  0
 48 49  1  0  0  0  0
 50 47  1  0  0  0  0
 50 48  1  0  0  0  0
 52 53  1  0  0  0  0
 52 51  1  0  0  0  0
 53 55  1  0  0  0  0
 55 56  1  0  0  0  0
 55 54  1  0  0  0  0
 56 57  1  6  0  0  0
 56 54  1  0  0  0  0
 58 57  1  0  0  0  0
 58 59  1  0  0  0  0
M  END
>  <MODEL>
1

>  <REMARK>
 VINA RESULT:      -5.9      0.000      0.000
  Name = 
  29 active torsions:
  status: ('A' for Active; 'I' for Inactive)
    1  A    between atoms: O_1  and  C_14
    2  A    between atoms: C_3  and  C_59
    3  A    between atoms: C_4  and  C_43
    4  A    between atoms: C_4  and  C_50
    5  A    between atoms: N_5  and  C_25
    6  A    between atoms: N_5  and  C_41
    7  A    between atoms: N_6  and  C_15
    8  A    between atoms: C_10  and  C_21
    9  A    between atoms: C_10  and  C_34
   10  A    between atoms: C_12  and  C_46
   11  A    between atoms: C_14  and  C_57
   12  A    between atoms: C_14  and  C_58
   13  A    between atoms: C_15  and  C_41
   14  A    between atoms: C_17  and  C_45
   15  A    between atoms: C_17  and  C_57
   16  A    between atoms: N_19  and  C_46
   17  A    between atoms: C_28  and  C_39
   18  A    between atoms: C_28  and  C_56
   19  A    between atoms: O_31  and  C_43
   20  A    between atoms: O_31  and  C_51
   21  A    between atoms: C_32  and  C_53
   22  A    between atoms: C_33  and  C_46
   23  A    between atoms: C_34  and  C_51
   24  A    between atoms: O_36  and  N_44
   25  A    between atoms: O_36  and  C_50
   26  A    between atoms: C_39  and  C_53
   27  A    between atoms: C_43  and  C_56
   28  A    between atoms: C_47  and  C_59
   29  A    between atoms: C_51  and  C_58
                            x       y       z     vdW  Elec       q    Type
                         _______ _______ _______ _____ _____    ______ ____

>  <TORSDO>
F 29

$$$$
=
 OpenBabel11062418153D

 59 64  0  0  1  0  0  0  0  0999 V2000
  188.5460  177.7180  140.5180 C   0  0  1  0  0  3  0  0  0  0  0  0
  188.1980  176.3670  142.4140 O   0  0  0  0  0  0  0  0  0  0  0  0
  189.0200  176.8320  141.6440 C   0  0  0  0  0  0  0  0  0  0  0  0
  190.4750  176.5500  141.8630 C   0  0  0  0  0  2  0  0  0  0  0  0
  189.5440  178.5880  144.4390 N   0  0  0  0  0  0  0  0  0  0  0  0
  188.6690  177.0470  146.0400 N   0  0  0  0  0  2  0  0  0  0  0  0
  190.9390  177.1330  143.1910 C   0  0  1  0  0  3  0  0  0  0  0  0
  189.4810  177.3960  144.9220 C   0  0  0  0  0  0  0  0  0  0  0  0
  190.4620  178.5850  143.3080 C   0  0  0  0  0  2  0  0  0  0  0  0
  190.2720  176.4800  144.2640 O   0  0  0  0  0  0  0  0  0  0  0  0
  187.8160  178.0240  146.7070 C   0  0  0  0  0  3  0  0  0  0  0  0
  188.2070  178.1630  148.1770 C   0  0  0  0  0  2  0  0  0  0  0  0
  189.6910  177.9040  148.4090 C   0  0  0  0  0  1  0  0  0  0  0  0
  186.3460  177.6480  146.5680 C   0  0  0  0  0  2  0  0  0  0  0  0
  185.4590  178.8840  146.6580 C   0  0  0  0  0  1  0  0  0  0  0  0
  187.7000  178.9070  140.9870 C   0  0  0  0  0  2  0  0  0  0  0  0
  186.2210  178.5600  141.1990 C   0  0  1  0  0  3  0  0  0  0  0  0
  185.6890  179.3450  142.2230 O   0  0  0  0  0  0  0  0  0  0  0  0
  185.1440  178.4220  143.1170 C   0  0  0  0  0  1  0  0  0  0  0  0
  184.7870  179.9210  139.7550 O   0  0  0  0  0  1  0  0  0  0  0  0
  185.4110  178.6730  139.9010 C   0  0  2  0  0  3  0  0  0  0  0  0
  184.4440  177.5050  139.7290 C   0  0  0  0  0  2  0  0  0  0  0  0
  182.3020  177.2180  138.3890 N   0  0  0  0  0  2  0  0  0  0  0  0
  184.2900  177.9460  137.3970 O   0  0  0  0  0  0  0  0  0  0  0  0
  183.6890  177.5590  138.4380 C   0  0  0  0  0  0  0  0  0  0  0  0
  181.5730  177.3050  137.1290 C   0  0  0  0  0  2  0  0  0  0  0  0
  180.1050  177.6370  137.3630 C   0  0  0  0  0  2  0  0  0  0  0  0
  178.9310  177.0230  139.8030 O   0  0  0  0  0  0  0  0  0  0  0  0
  179.9290  178.6320  138.4280 N   0  0  0  0  0  0  0  0  0  0  0  0
  179.4170  178.1810  139.6970 C   0  0  0  0  0  0  0  0  0  0  0  0
  179.4680  179.0110  140.8560 N   0  0  0  0  0  0  0  0  0  0  0  0
  179.1830  179.2600  142.3000 C   0  0  0  0  0  2  0  0  0  0  0  0
  179.8320  180.2550  141.5990 C   0  0  0  0  0  2  0  0  0  0  0  0
  179.3090  182.1940  137.4100 C   0  0  0  0  0  3  0  0  0  0  0  0
  180.1470  180.0280  138.1480 C   0  0  0  0  0  0  0  0  0  0  0  0
  179.1040  180.8330  137.6540 C   0  0  0  0  0  3  0  0  0  0  0  0
  180.5540  182.7700  137.6760 C   0  0  0  0  0  3  0  0  0  0  0  0
  181.3820  180.6290  138.4410 C   0  0  0  0  0  3  0  0  0  0  0  0
  181.5880  181.9890  138.1990 C   0  0  0  0  0  3  0  0  0  0  0  0
  189.6030  178.1130  139.6920 O   0  0  0  0  0  0  0  0  0  0  0  0
  189.3110  177.5150  138.4580 C   0  0  2  0  0  3  0  0  0  0  0  0
  190.5620  177.0410  137.7070 C   0  0  0  0  0  2  0  0  0  0  0  0
  191.6920  176.5860  138.6230 C   0  0  0  0  0  2  0  0  0  0  0  0
  193.0240  176.5640  137.8850 C   0  0  0  0  0  2  0  0  0  0  0  0
  193.5440  175.1350  137.7800 C   0  0  0  0  0  2  0  0  0  0  0  0
  196.2300  174.4750  135.1070 O   0  0  0  0  0  1  0  0  0  0  0  0
  195.7220  174.6760  136.3890 C   0  0  2  0  0  0  0  0  0  0  0  0
  194.2270  174.9200  136.4460 C   0  0  2  0  0  0  0  0  0  0  0  0
  195.1650  175.9540  136.3780 O   0  0  0  0  0  0  0  0  0  0  0  0
  194.8000  173.6550  136.5970 O   0  0  0  0  0  0  0  0  0  0  0  0
  188.3170  178.3400  137.6330 C   0  0  0  0  0  2  0  0  0  0  0  0
  187.4990  177.5380  136.6270 C   0  0  0  0  0  2  0  0  0  0  0  0
  187.2130  176.2560  137.1120 O   0  0  0  0  0  0  0  0  0  0  0  0
  186.4360  175.4120  135.1120 C   0  0  0  0  0  2  0  0  0  0  0  0
  187.5340  175.3920  136.1050 N   0  0  0  0  0  0  0  0  0  0  0  0
  186.5410  174.2830  136.0310 C   0  0  1  0  0  3  0  0  0  0  0  0
  185.4490  174.3460  137.1040 C   0  0  0  0  0  2  0  0  0  0  0  0
  185.1970  172.9740  137.7180 C   0  0  0  0  0  2  0  0  0  0  0  0
  183.8960  172.3840  137.2010 C   0  0  0  0  0  1  0  0  0  0  0  0
  1 16  1  1  0  0  0
  1  3  1  0  0  0  0
  3  4  1  0  0  0  0
  3  2  2  0  0  0  0
  5  8  2  0  0  0  0
  6 11  1  0  0  0  0
  7  4  1  6  0  0  0
  7  9  1  0  0  0  0
  7 10  1  0  0  0  0
  8  6  1  0  0  0  0
  9  5  1  0  0  0  0
 10  8  1  0  0  0  0
 11 12  1  0  0  0  0
 12 13  1  0  0  0  0
 14 15  1  0  0  0  0
 14 11  1  0  0  0  0
 17 16  1  6  0  0  0
 17 18  1  0  0  0  0
 18 19  1  0  0  0  0
 21 20  1  1  0  0  0
 21 17  1  0  0  0  0
 22 21  1  0  0  0  0
 23 25  1  0  0  0  0
 24 25  2  0  0  0  0
 25 22  1  0  0  0  0
 26 27  1  0  0  0  0
 26 23  1  0  0  0  0
 27 29  1  0  0  0  0
 29 30  1  0  0  0  0
 30 28  2  0  0  0  0
 30 31  1  0  0  0  0
 31 33  1  0  0  0  0
 31 32  1  0  0  0  0
 33 32  1  0  0  0  0
 34 36  2  0  0  0  0
 34 37  1  0  0  0  0
 35 29  1  0  0  0  0
 35 38  2  0  0  0  0
 36 35  1  0  0  0  0
 37 39  2  0  0  0  0
 39 38  1  0  0  0  0
 40  1  1  0  0  0  0
 41 51  1  6  0  0  0
 41 40  1  0  0  0  0
 42 41  1  0  0  0  0
 42 43  1  0  0  0  0
 44 43  1  0  0  0  0
 45 44  1  0  0  0  0
 47 46  1  6  0  0  0
 47 48  1  0  0  0  0
 47 50  1  0  0  0  0
 48 50  1  0  0  0  0
 48 45  1  1  0  0  0
 49 47  1  0  0  0  0
 49 48  1  0  0  0  0
 52 53  1  0  0  0  0
 52 51  1  0  0  0  0
 54 56  1  0  0  0  0
 54 55  1  0  0  0  0
 55 53  1  0  0  0  0
 56 55  1  0  0  0  0
 56 57  1  1  0  0  0
 57 58  1  0  0  0  0
 59 58  1  0  0  0  0
M  END
>  <MODEL>
2

>  <REMARK>
 VINA RESULT:      -5.8      2.724     10.089
  Name = 
  29 active torsions:
  status: ('A' for Active; 'I' for Inactive)
    1  A    between atoms: O_1  and  C_14
    2  A    between atoms: C_3  and  C_59
    3  A    between atoms: C_4  and  C_43
    4  A    between atoms: C_4  and  C_50
    5  A    between atoms: N_5  and  C_25
    6  A    between atoms: N_5  and  C_41
    7  A    between atoms: N_6  and  C_15
    8  A    between atoms: C_10  and  C_21
    9  A    between atoms: C_10  and  C_34
   10  A    between atoms: C_12  and  C_46
   11  A    between atoms: C_14  and  C_57
   12  A    between atoms: C_14  and  C_58
   13  A    between atoms: C_15  and  C_41
   14  A    between atoms: C_17  and  C_45
   15  A    between atoms: C_17  and  C_57
   16  A    between atoms: N_19  and  C_46
   17  A    between atoms: C_28  and  C_39
   18  A    between atoms: C_28  and  C_56
   19  A    between atoms: O_31  and  C_43
   20  A    between atoms: O_31  and  C_51
   21  A    between atoms: C_32  and  C_53
   22  A    between atoms: C_33  and  C_46
   23  A    between atoms: C_34  and  C_51
   24  A    between atoms: O_36  and  N_44
   25  A    between atoms: O_36  and  C_50
   26  A    between atoms: C_39  and  C_53
   27  A    between atoms: C_43  and  C_56
   28  A    between atoms: C_47  and  C_59
   29  A    between atoms: C_51  and  C_58
                            x       y       z     vdW  Elec       q    Type
                         _______ _______ _______ _____ _____    ______ ____

>  <TORSDO>
F 29

$$$$
=
 OpenBabel11062418153D

 59 64  0  0  1  0  0  0  0  0999 V2000
  187.3660  175.0400  136.4700 C   0  0  1  0  0  3  0  0  0  0  0  0
  188.7250  174.0760  134.8060 O   0  0  0  0  0  0  0  0  0  0  0  0
  188.7010  174.6970  135.8550 C   0  0  0  0  0  0  0  0  0  0  0  0
  189.9910  175.0600  136.5240 C   0  0  0  0  0  2  0  0  0  0  0  0
  193.3620  175.3950  136.0960 N   0  0  0  0  0  0  0  0  0  0  0  0
  194.2420  173.6240  137.4340 N   0  0  0  0  0  2  0  0  0  0  0  0
  191.1760  174.5650  135.7040 C   0  0  1  0  0  3  0  0  0  0  0  0
  193.2140  174.2540  136.6720 C   0  0  0  0  0  0  0  0  0  0  0  0
  192.1200  175.7360  135.4120 C   0  0  0  0  0  2  0  0  0  0  0  0
  191.9720  173.6870  136.4910 O   0  0  0  0  0  0  0  0  0  0  0  0
  195.5420  174.2520  137.6410 C   0  0  0  0  0  3  0  0  0  0  0  0
  196.4930  173.9040  136.4980 C   0  0  0  0  0  2  0  0  0  0  0  0
  196.9990  172.4680  136.5810 C   0  0  0  0  0  1  0  0  0  0  0  0
  196.1330  173.8480  138.9850 C   0  0  0  0  0  2  0  0  0  0  0  0
  197.2290  174.8180  139.4080 C   0  0  0  0  0  1  0  0  0  0  0  0
  187.4590  176.0670  137.6040 C   0  0  0  0  0  2  0  0  0  0  0  0
  187.4720  177.5210  137.1150 C   0  0  1  0  0  3  0  0  0  0  0  0
  186.1660  177.9720  136.9250 O   0  0  0  0  0  0  0  0  0  0  0  0
  185.7340  178.3260  138.2050 C   0  0  0  0  0  1  0  0  0  0  0  0
  188.9770  179.4360  137.3640 O   0  0  0  0  0  1  0  0  0  0  0  0
  188.2730  178.4360  138.0510 C   0  0  2  0  0  3  0  0  0  0  0  0
  189.1580  177.6400  139.0060 C   0  0  0  0  0  2  0  0  0  0  0  0
  189.6940  177.3710  141.4760 N   0  0  0  0  0  2  0  0  0  0  0  0
  188.0430  178.8460  140.7260 O   0  0  0  0  0  0  0  0  0  0  0  0
  188.9190  177.9820  140.4430 C   0  0  0  0  0  0  0  0  0  0  0  0
  189.4700  177.7370  142.8700 C   0  0  0  0  0  2  0  0  0  0  0  0
  188.4780  176.7930  143.5370 C   0  0  0  0  0  2  0  0  0  0  0  0
  189.9740  176.4240  145.8460 O   0  0  0  0  0  0  0  0  0  0  0  0
  188.0430  177.2880  144.8480 N   0  0  0  0  0  0  0  0  0  0  0  0
  188.9490  177.1470  145.9590 C   0  0  0  0  0  0  0  0  0  0  0  0
  188.7250  177.8310  147.1900 N   0  0  0  0  0  0  0  0  0  0  0  0
  189.1100  178.1520  148.5970 C   0  0  0  0  0  2  0  0  0  0  0  0
  187.9840  178.7670  148.0900 C   0  0  0  0  0  2  0  0  0  0  0  0
  184.7720  178.2160  146.4450 C   0  0  0  0  0  3  0  0  0  0  0  0
  186.6990  177.7770  145.0190 C   0  0  0  0  0  0  0  0  0  0  0  0
  186.0660  177.7140  146.2730 C   0  0  0  0  0  3  0  0  0  0  0  0
  184.1040  178.8040  145.3670 C   0  0  0  0  0  3  0  0  0  0  0  0
  186.0270  178.4000  143.9550 C   0  0  0  0  0  3  0  0  0  0  0  0
  184.7350  178.9030  144.1240 C   0  0  0  0  0  3  0  0  0  0  0  0
  186.4290  175.4060  135.4990 O   0  0  0  0  0  0  0  0  0  0  0  0
  185.3340  174.5690  135.7510 C   0  0  2  0  0  3  0  0  0  0  0  0
  184.0080  175.3320  135.8730 C   0  0  0  0  0  2  0  0  0  0  0  0
  183.6060  175.6370  137.3120 C   0  0  0  0  0  2  0  0  0  0  0  0
  182.3220  174.9120  137.6900 C   0  0  0  0  0  2  0  0  0  0  0  0
  181.6790  175.5770  138.9010 C   0  0  0  0  0  2  0  0  0  0  0  0
  182.4510  179.0380  140.3920 O   0  0  0  0  0  1  0  0  0  0  0  0
  181.8670  177.7750  140.3250 C   0  0  2  0  0  0  0  0  0  0  0  0
  182.2320  176.9740  139.0900 C   0  0  2  0  0  0  0  0  0  0  0  0
  181.0910  177.7780  139.1670 O   0  0  0  0  0  0  0  0  0  0  0  0
  182.9230  176.8690  140.2990 O   0  0  0  0  0  0  0  0  0  0  0  0
  185.6190  173.5570  136.8650 C   0  0  0  0  0  2  0  0  0  0  0  0
  185.3520  172.1030  136.4940 C   0  0  0  0  0  2  0  0  0  0  0  0
  184.1810  171.9790  135.7350 O   0  0  0  0  0  0  0  0  0  0  0  0
  182.8540  170.2350  135.0200 C   0  0  0  0  0  2  0  0  0  0  0  0
  183.5730  170.8370  136.1660 N   0  0  0  0  0  0  0  0  0  0  0  0
  182.0920  170.9520  136.0370 C   0  0  1  0  0  3  0  0  0  0  0  0
  181.6130  172.3080  135.5090 C   0  0  0  0  0  2  0  0  0  0  0  0
  180.0960  172.3440  135.3710 C   0  0  0  0  0  2  0  0  0  0  0  0
  179.5640  173.7440  135.6300 C   0  0  0  0  0  1  0  0  0  0  0  0
  1 16  1  1  0  0  0
  2  3  2  0  0  0  0
  3  1  1  0  0  0  0
  3  4  1  0  0  0  0
  5  8  2  0  0  0  0
  6 11  1  0  0  0  0
  7 10  1  0  0  0  0
  7  4  1  1  0  0  0
  8  6  1  0  0  0  0
  9  7  1  0  0  0  0
  9  5  1  0  0  0  0
 10  8  1  0  0  0  0
 11 14  1  0  0  0  0
 12 13  1  0  0  0  0
 12 11  1  0  0  0  0
 14 15  1  0  0  0  0
 17 16  1  1  0  0  0
 17 21  1  0  0  0  0
 18 17  1  0  0  0  0
 18 19  1  0  0  0  0
 21 20  1  6  0  0  0
 21 22  1  0  0  0  0
 22 25  1  0  0  0  0
 23 26  1  0  0  0  0
 25 24  2  0  0  0  0
 25 23  1  0  0  0  0
 26 27  1  0  0  0  0
 27 29  1  0  0  0  0
 28 30  2  0  0  0  0
 29 35  1  0  0  0  0
 29 30  1  0  0  0  0
 30 31  1  0  0  0  0
 31 33  1  0  0  0  0
 31 32  1  0  0  0  0
 33 32  1  0  0  0  0
 35 36  2  0  0  0  0
 36 34  1  0  0  0  0
 37 34  2  0  0  0  0
 38 39  2  0  0  0  0
 38 35  1  0  0  0  0
 39 37  1  0  0  0  0
 40 41  1  0  0  0  0
 40  1  1  0  0  0  0
 41 42  1  1  0  0  0
 41 51  1  0  0  0  0
 42 43  1  0  0  0  0
 43 44  1  0  0  0  0
 44 45  1  0  0  0  0
 47 46  1  6  0  0  0
 48 45  1  1  0  0  0
 48 49  1  0  0  0  0
 48 50  1  0  0  0  0
 48 47  1  0  0  0  0
 49 47  1  0  0  0  0
 50 47  1  0  0  0  0
 52 51  1  0  0  0  0
 53 55  1  0  0  0  0
 53 52  1  0  0  0  0
 54 56  1  0  0  0  0
 54 55  1  0  0  0  0
 56 57  1  6  0  0  0
 56 55  1  0  0  0  0
 58 57  1  0  0  0  0
 58 59  1  0  0  0  0
M  END
>  <MODEL>
3

>  <REMARK>
 VINA RESULT:      -5.4      2.650      5.248
  Name = 
  29 active torsions:
  status: ('A' for Active; 'I' for Inactive)
    1  A    between atoms: O_1  and  C_14
    2  A    between atoms: C_3  and  C_59
    3  A    between atoms: C_4  and  C_43
    4  A    between atoms: C_4  and  C_50
    5  A    between atoms: N_5  and  C_25
    6  A    between atoms: N_5  and  C_41
    7  A    between atoms: N_6  and  C_15
    8  A    between atoms: C_10  and  C_21
    9  A    between atoms: C_10  and  C_34
   10  A    between atoms: C_12  and  C_46
   11  A    between atoms: C_14  and  C_57
   12  A    between atoms: C_14  and  C_58
   13  A    between atoms: C_15  and  C_41
   14  A    between atoms: C_17  and  C_45
   15  A    between atoms: C_17  and  C_57
   16  A    between atoms: N_19  and  C_46
   17  A    between atoms: C_28  and  C_39
   18  A    between atoms: C_28  and  C_56
   19  A    between atoms: O_31  and  C_43
   20  A    between atoms: O_31  and  C_51
   21  A    between atoms: C_32  and  C_53
   22  A    between atoms: C_33  and  C_46
   23  A    between atoms: C_34  and  C_51
   24  A    between atoms: O_36  and  N_44
   25  A    between atoms: O_36  and  C_50
   26  A    between atoms: C_39  and  C_53
   27  A    between atoms: C_43  and  C_56
   28  A    between atoms: C_47  and  C_59
   29  A    between atoms: C_51  and  C_58
                            x       y       z     vdW  Elec       q    Type
                         _______ _______ _______ _____ _____    ______ ____

>  <TORSDO>
F 29

$$$$
=
 OpenBabel11062418153D

 59 64  0  0  1  0  0  0  0  0999 V2000
  184.6070  178.4050  139.6650 C   0  0  1  0  0  3  0  0  0  0  0  0
  185.3550  179.5830  137.7690 O   0  0  0  0  0  0  0  0  0  0  0  0
  185.4780  178.5760  138.4450 C   0  0  0  0  0  0  0  0  0  0  0  0
  186.4530  177.5210  138.0200 C   0  0  0  0  0  2  0  0  0  0  0  0
  189.7720  176.8590  138.4690 N   0  0  0  0  0  0  0  0  0  0  0  0
  190.4550  176.1020  136.3100 N   0  0  0  0  0  2  0  0  0  0  0  0
  187.8500  178.1120  137.8750 C   0  0  1  0  0  3  0  0  0  0  0  0
  189.5960  176.8180  137.1940 C   0  0  0  0  0  0  0  0  0  0  0  0
  188.7170  177.6730  139.0590 C   0  0  0  0  0  2  0  0  0  0  0  0
  188.5030  177.5310  136.7530 O   0  0  0  0  0  0  0  0  0  0  0  0
  191.5920  175.3290  136.7970 C   0  0  0  0  0  3  0  0  0  0  0  0
  192.7130  176.2570  137.2590 C   0  0  0  0  0  2  0  0  0  0  0  0
  193.8940  175.4930  137.8470 C   0  0  0  0  0  1  0  0  0  0  0  0
  192.0900  174.3620  135.7300 C   0  0  0  0  0  2  0  0  0  0  0  0
  191.4600  172.9860  135.9100 C   0  0  0  0  0  1  0  0  0  0  0  0
  185.0170  179.2970  140.8420 C   0  0  0  0  0  2  0  0  0  0  0  0
  184.2430  179.0020  142.1330 C   0  0  1  0  0  3  0  0  0  0  0  0
  183.2780  178.0220  141.8970 O   0  0  0  0  0  0  0  0  0  0  0  0
  182.0780  178.6190  142.2830 C   0  0  0  0  0  1  0  0  0  0  0  0
  186.0160  177.5470  142.9910 O   0  0  0  0  0  1  0  0  0  0  0  0
  185.1770  178.6300  143.2930 C   0  0  2  0  0  3  0  0  0  0  0  0
  184.4130  178.4390  144.6000 C   0  0  0  0  0  2  0  0  0  0  0  0
  186.2330  177.4980  146.1060 N   0  0  0  0  0  2  0  0  0  0  0  0
  185.2170  179.5590  146.5380 O   0  0  0  0  0  0  0  0  0  0  0  0
  185.2930  178.5330  145.8070 C   0  0  0  0  0  0  0  0  0  0  0  0
  187.1050  177.6190  147.2690 C   0  0  0  0  0  2  0  0  0  0  0  0
  188.2720  178.5570  146.9890 C   0  0  0  0  0  2  0  0  0  0  0  0
  190.2220  177.8090  148.8180 O   0  0  0  0  0  0  0  0  0  0  0  0
  189.4840  177.8260  146.5980 N   0  0  0  0  0  0  0  0  0  0  0  0
  190.3730  177.3830  147.6420 C   0  0  0  0  0  0  0  0  0  0  0  0
  191.4170  176.4470  147.3800 N   0  0  0  0  0  0  0  0  0  0  0  0
  192.5840  175.6310  147.8280 C   0  0  0  0  0  2  0  0  0  0  0  0
  192.1960  175.5170  146.5090 C   0  0  0  0  0  2  0  0  0  0  0  0
  189.4790  176.5900  143.0510 C   0  0  0  0  0  3  0  0  0  0  0  0
  189.8150  177.6810  145.2030 C   0  0  0  0  0  0  0  0  0  0  0  0
  189.1770  176.7110  144.4110 C   0  0  0  0  0  3  0  0  0  0  0  0
  190.4100  177.4530  142.4650 C   0  0  0  0  0  3  0  0  0  0  0  0
  190.7230  178.5620  144.5930 C   0  0  0  0  0  3  0  0  0  0  0  0
  191.0250  178.4440  143.2340 C   0  0  0  0  0  3  0  0  0  0  0  0
  183.2500  178.5320  139.3520 O   0  0  0  0  0  0  0  0  0  0  0  0
  183.0630  177.6450  138.2830 C   0  0  2  0  0  3  0  0  0  0  0  0
  181.8790  178.0270  137.3840 C   0  0  0  0  0  2  0  0  0  0  0  0
  181.9780  179.4320  136.8030 C   0  0  0  0  0  2  0  0  0  0  0  0
  180.8570  180.3220  137.3220 C   0  0  0  0  0  2  0  0  0  0  0  0
  180.4600  181.3420  136.2610 C   0  0  0  0  0  2  0  0  0  0  0  0
  180.5640  185.0480  137.2870 O   0  0  0  0  0  1  0  0  0  0  0  0
  180.9900  183.8830  136.6520 C   0  0  2  0  0  0  0  0  0  0  0  0
  180.1200  182.6690  136.9060 C   0  0  2  0  0  0  0  0  0  0  0  0
  181.2490  182.9700  137.6720 O   0  0  0  0  0  0  0  0  0  0  0  0
  179.9510  183.5100  135.8050 O   0  0  0  0  0  0  0  0  0  0  0  0
  183.1100  176.1790  138.7270 C   0  0  0  0  0  2  0  0  0  0  0  0
  183.0190  175.1640  137.5950 C   0  0  0  0  0  2  0  0  0  0  0  0
  184.2900  174.7410  137.1880 O   0  0  0  0  0  0  0  0  0  0  0  0
  184.3670  172.4760  137.6140 C   0  0  0  0  0  2  0  0  0  0  0  0
  184.1110  173.5230  136.5990 N   0  0  0  0  0  0  0  0  0  0  0  0
  185.3840  172.7470  136.6040 C   0  0  1  0  0  3  0  0  0  0  0  0
  186.5740  173.4980  137.2110 C   0  0  0  0  0  2  0  0  0  0  0  0
  187.8970  172.8910  136.7640 C   0  0  0  0  0  2  0  0  0  0  0  0
  187.6660  171.6120  135.9760 C   0  0  0  0  0  1  0  0  0  0  0  0
  1 16  1  1  0  0  0
  2  3  2  0  0  0  0
  3  1  1  0  0  0  0
  4  3  1  0  0  0  0
  5  9  1  0  0  0  0
  6 11  1  0  0  0  0
  6  8  1  0  0  0  0
  7  4  1  1  0  0  0
  7  9  1  0  0  0  0
  8  5  2  0  0  0  0
 10  8  1  0  0  0  0
 10  7  1  0  0  0  0
 11 12  1  0  0  0  0
 12 13  1  0  0  0  0
 14 15  1  0  0  0  0
 14 11  1  0  0  0  0
 17 16  1  6  0  0  0
 17 21  1  0  0  0  0
 18 17  1  0  0  0  0
 18 19  1  0  0  0  0
 21 20  1  6  0  0  0
 21 22  1  0  0  0  0
 22 25  1  0  0  0  0
 23 26  1  0  0  0  0
 25 23  1  0  0  0  0
 25 24  2  0  0  0  0
 27 26  1  0  0  0  0
 29 27  1  0  0  0  0
 29 30  1  0  0  0  0
 30 28  2  0  0  0  0
 31 30  1  0  0  0  0
 31 32  1  0  0  0  0
 33 31  1  0  0  0  0
 33 32  1  0  0  0  0
 34 36  1  0  0  0  0
 35 29  1  0  0  0  0
 36 35  2  0  0  0  0
 37 34  2  0  0  0  0
 37 39  1  0  0  0  0
 38 35  1  0  0  0  0
 39 38  2  0  0  0  0
 40  1  1  0  0  0  0
 41 42  1  1  0  0  0
 41 51  1  0  0  0  0
 41 40  1  0  0  0  0
 43 44  1  0  0  0  0
 43 42  1  0  0  0  0
 45 44  1  0  0  0  0
 47 48  1  0  0  0  0
 47 46  1  1  0  0  0
 47 49  1  0  0  0  0
 48 45  1  6  0  0  0
 48 49  1  0  0  0  0
 50 47  1  0  0  0  0
 50 48  1  0  0  0  0
 52 51  1  0  0  0  0
 53 52  1  0  0  0  0
 55 56  1  0  0  0  0
 55 53  1  0  0  0  0
 55 54  1  0  0  0  0
 56 57  1  1  0  0  0
 56 54  1  0  0  0  0
 58 57  1  0  0  0  0
 59 58  1  0  0  0  0
M  END
>  <MODEL>
4

>  <REMARK>
 VINA RESULT:      -5.4      2.364      6.098
  Name = 
  29 active torsions:
  status: ('A' for Active; 'I' for Inactive)
    1  A    between atoms: O_1  and  C_14
    2  A    between atoms: C_3  and  C_59
    3  A    between atoms: C_4  and  C_43
    4  A    between atoms: C_4  and  C_50
    5  A    between atoms: N_5  and  C_25
    6  A    between atoms: N_5  and  C_41
    7  A    between atoms: N_6  and  C_15
    8  A    between atoms: C_10  and  C_21
    9  A    between atoms: C_10  and  C_34
   10  A    between atoms: C_12  and  C_46
   11  A    between atoms: C_14  and  C_57
   12  A    between atoms: C_14  and  C_58
   13  A    between atoms: C_15  and  C_41
   14  A    between atoms: C_17  and  C_45
   15  A    between atoms: C_17  and  C_57
   16  A    between atoms: N_19  and  C_46
   17  A    between atoms: C_28  and  C_39
   18  A    between atoms: C_28  and  C_56
   19  A    between atoms: O_31  and  C_43
   20  A    between atoms: O_31  and  C_51
   21  A    between atoms: C_32  and  C_53
   22  A    between atoms: C_33  and  C_46
   23  A    between atoms: C_34  and  C_51
   24  A    between atoms: O_36  and  N_44
   25  A    between atoms: O_36  and  C_50
   26  A    between atoms: C_39  and  C_53
   27  A    between atoms: C_43  and  C_56
   28  A    between atoms: C_47  and  C_59
   29  A    between atoms: C_51  and  C_58
                            x       y       z     vdW  Elec       q    Type
                         _______ _______ _______ _____ _____    ______ ____

>  <TORSDO>
F 29

$$$$
=
 OpenBabel11062418153D

 59 64  0  0  1  0  0  0  0  0999 V2000
  186.1300  177.8520  142.6070 C   0  0  1  0  0  3  0  0  0  0  0  0
  183.9820  177.9410  141.6470 O   0  0  0  0  0  0  0  0  0  0  0  0
  185.1650  178.1990  141.5010 C   0  0  0  0  0  0  0  0  0  0  0  0
  185.6290  178.8080  140.2130 C   0  0  0  0  0  2  0  0  0  0  0  0
  184.4470  177.0380  137.5440 N   0  0  0  0  0  0  0  0  0  0  0  0
  182.8230  175.6000  138.5420 N   0  0  0  0  0  2  0  0  0  0  0  0
  184.5220  178.7620  139.1690 C   0  0  1  0  0  3  0  0  0  0  0  0
  183.6290  176.7760  138.5020 C   0  0  0  0  0  0  0  0  0  0  0  0
  185.1030  178.3090  137.8260 C   0  0  0  0  0  2  0  0  0  0  0  0
  183.5970  177.7320  139.4930 O   0  0  0  0  0  0  0  0  0  0  0  0
  182.8920  174.5840  137.4980 C   0  0  0  0  0  3  0  0  0  0  0  0
  184.3450  174.2370  137.1830 C   0  0  0  0  0  2  0  0  0  0  0  0
  184.6990  172.8060  137.5730 C   0  0  0  0  0  1  0  0  0  0  0  0
  182.1570  175.0410  136.2450 C   0  0  0  0  0  2  0  0  0  0  0  0
  183.1120  175.1430  135.0630 C   0  0  0  0  0  1  0  0  0  0  0  0
  187.2930  178.8410  142.7390 C   0  0  0  0  0  2  0  0  0  0  0  0
  188.6710  178.1670  142.7600 C   0  0  1  0  0  3  0  0  0  0  0  0
  189.2390  178.2790  144.0290 O   0  0  0  0  0  0  0  0  0  0  0  0
  190.4470  178.9410  143.8090 C   0  0  0  0  0  1  0  0  0  0  0  0
  188.1170  175.8350  143.2610 O   0  0  0  0  0  1  0  0  0  0  0  0
  188.6060  176.7100  142.2800 C   0  0  2  0  0  3  0  0  0  0  0  0
  189.9320  176.2480  141.6830 C   0  0  0  0  0  2  0  0  0  0  0  0
  189.4210  177.2570  139.4060 N   0  0  0  0  0  2  0  0  0  0  0  0
  191.4930  177.5510  140.4480 O   0  0  0  0  0  0  0  0  0  0  0  0
  190.3380  177.0420  140.4810 C   0  0  0  0  0  0  0  0  0  0  0  0
  189.8200  178.0590  138.2550 C   0  0  0  0  0  2  0  0  0  0  0  0
  189.2130  177.5180  136.9670 C   0  0  0  0  0  2  0  0  0  0  0  0
  187.4200  175.4280  137.3160 O   0  0  0  0  0  0  0  0  0  0  0  0
  189.5790  176.1160  136.7340 N   0  0  0  0  0  0  0  0  0  0  0  0
  188.5410  175.1210  136.8290 C   0  0  0  0  0  0  0  0  0  0  0  0
  188.7430  173.7890  136.3600 N   0  0  0  0  0  0  0  0  0  0  0  0
  188.2650  172.3910  136.1460 C   0  0  0  0  0  2  0  0  0  0  0  0
  189.5350  172.7030  135.7070 C   0  0  0  0  0  2  0  0  0  0  0  0
  193.0380  174.8110  137.3970 C   0  0  0  0  0  3  0  0  0  0  0  0
  190.9610  175.7570  136.5430 C   0  0  0  0  0  0  0  0  0  0  0  0
  191.7050  175.1850  137.5910 C   0  0  0  0  0  3  0  0  0  0  0  0
  193.6370  174.9890  136.1460 C   0  0  0  0  0  3  0  0  0  0  0  0
  191.5660  175.8980  135.2840 C   0  0  0  0  0  3  0  0  0  0  0  0
  192.8980  175.5240  135.0880 C   0  0  0  0  0  3  0  0  0  0  0  0
  185.4690  177.6460  143.8220 O   0  0  0  0  0  0  0  0  0  0  0  0
  185.5500  178.8870  144.4670 C   0  0  2  0  0  3  0  0  0  0  0  0
  186.1560  178.7970  145.8750 C   0  0  0  0  0  2  0  0  0  0  0  0
  186.7800  177.4420  146.1880 C   0  0  0  0  0  2  0  0  0  0  0  0
  187.5950  177.4960  147.4730 C   0  0  0  0  0  2  0  0  0  0  0  0
  188.9260  178.1950  147.2230 C   0  0  0  0  0  2  0  0  0  0  0  0
  191.9170  175.7850  147.4480 O   0  0  0  0  0  1  0  0  0  0  0  0
  190.8830  176.4890  146.8320 C   0  0  2  0  0  0  0  0  0  0  0  0
  190.0690  177.3620  147.7660 C   0  0  2  0  0  0  0  0  0  0  0  0
  189.7110  176.0500  147.4440 O   0  0  0  0  0  0  0  0  0  0  0  0
  191.1640  177.8360  147.0410 O   0  0  0  0  0  0  0  0  0  0  0  0
  184.2460  179.6850  144.3590 C   0  0  0  0  0  2  0  0  0  0  0  0
  182.9940  178.9260  144.7840 C   0  0  0  0  0  2  0  0  0  0  0  0
  182.1400  178.7050  143.6970 O   0  0  0  0  0  0  0  0  0  0  0  0
  179.9580  178.0890  144.1190 C   0  0  0  0  0  2  0  0  0  0  0  0
  180.9260  179.2090  144.0640 N   0  0  0  0  0  0  0  0  0  0  0  0
  179.9240  179.0000  142.9800 C   0  0  1  0  0  3  0  0  0  0  0  0
  180.4900  178.3290  141.7240 C   0  0  0  0  0  2  0  0  0  0  0  0
  179.3780  177.7520  140.8560 C   0  0  0  0  0  2  0  0  0  0  0  0
  179.5260  176.2460  140.7210 C   0  0  0  0  0  1  0  0  0  0  0  0
  1 16  1  1  0  0  0
  1 40  1  0  0  0  0
  3  2  2  0  0  0  0
  3  1  1  0  0  0  0
  4  3  1  0  0  0  0
  5  9  1  0  0  0  0
  5  8  2  0  0  0  0
  7 10  1  0  0  0  0
  7  4  1  1  0  0  0
  8  6  1  0  0  0  0
  8 10  1  0  0  0  0
  9  7  1  0  0  0  0
 11  6  1  0  0  0  0
 12 11  1  0  0  0  0
 12 13  1  0  0  0  0
 14 11  1  0  0  0  0
 15 14  1  0  0  0  0
 17 16  1  1  0  0  0
 17 18  1  0  0  0  0
 19 18  1  0  0  0  0
 21 17  1  0  0  0  0
 21 20  1  1  0  0  0
 22 21  1  0  0  0  0
 23 25  1  0  0  0  0
 24 25  2  0  0  0  0
 25 22  1  0  0  0  0
 26 23  1  0  0  0  0
 27 26  1  0  0  0  0
 29 30  1  0  0  0  0
 29 27  1  0  0  0  0
 30 28  2  0  0  0  0
 31 30  1  0  0  0  0
 32 31  1  0  0  0  0
 33 32  1  0  0  0  0
 33 31  1  0  0  0  0
 34 36  1  0  0  0  0
 35 29  1  0  0  0  0
 35 36  2  0  0  0  0
 37 34  2  0  0  0  0
 38 35  1  0  0  0  0
 39 38  2  0  0  0  0
 39 37  1  0  0  0  0
 40 41  1  0  0  0  0
 41 51  1  1  0  0  0
 41 42  1  0  0  0  0
 42 43  1  0  0  0  0
 43 44  1  0  0  0  0
 45 44  1  0  0  0  0
 47 50  1  0  0  0  0
 47 49  1  0  0  0  0
 47 46  1  1  0  0  0
 47 48  1  0  0  0  0
 48 45  1  6  0  0  0
 49 48  1  0  0  0  0
 50 48  1  0  0  0  0
 51 52  1  0  0  0  0
 53 55  1  0  0  0  0
 53 52  1  0  0  0  0
 55 54  1  0  0  0  0
 56 57  1  6  0  0  0
 56 55  1  0  0  0  0
 56 54  1  0  0  0  0
 58 57  1  0  0  0  0
 59 58  1  0  0  0  0
M  END
>  <MODEL>
5

>  <REMARK>
 VINA RESULT:      -5.0      3.321      9.105
  Name = 
  29 active torsions:
  status: ('A' for Active; 'I' for Inactive)
    1  A    between atoms: O_1  and  C_14
    2  A    between atoms: C_3  and  C_59
    3  A    between atoms: C_4  and  C_43
    4  A    between atoms: C_4  and  C_50
    5  A    between atoms: N_5  and  C_25
    6  A    between atoms: N_5  and  C_41
    7  A    between atoms: N_6  and  C_15
    8  A    between atoms: C_10  and  C_21
    9  A    between atoms: C_10  and  C_34
   10  A    between atoms: C_12  and  C_46
   11  A    between atoms: C_14  and  C_57
   12  A    between atoms: C_14  and  C_58
   13  A    between atoms: C_15  and  C_41
   14  A    between atoms: C_17  and  C_45
   15  A    between atoms: C_17  and  C_57
   16  A    between atoms: N_19  and  C_46
   17  A    between atoms: C_28  and  C_39
   18  A    between atoms: C_28  and  C_56
   19  A    between atoms: O_31  and  C_43
   20  A    between atoms: O_31  and  C_51
   21  A    between atoms: C_32  and  C_53
   22  A    between atoms: C_33  and  C_46
   23  A    between atoms: C_34  and  C_51
   24  A    between atoms: O_36  and  N_44
   25  A    between atoms: O_36  and  C_50
   26  A    between atoms: C_39  and  C_53
   27  A    between atoms: C_43  and  C_56
   28  A    between atoms: C_47  and  C_59
   29  A    between atoms: C_51  and  C_58
                            x       y       z     vdW  Elec       q    Type
                         _______ _______ _______ _____ _____    ______ ____

>  <TORSDO>
F 29

$$$$
=
 OpenBabel11062418153D

 59 64  0  0  1  0  0  0  0  0999 V2000
  188.1100  177.8580  140.7620 C   0  0  1  0  0  3  0  0  0  0  0  0
  189.0370  179.1160  139.0010 O   0  0  0  0  0  0  0  0  0  0  0  0
  188.1160  178.4000  139.3540 C   0  0  0  0  0  0  0  0  0  0  0  0
  186.9980  178.1170  138.3970 C   0  0  0  0  0  2  0  0  0  0  0  0
  187.5350  174.9950  137.1230 N   0  0  0  0  0  0  0  0  0  0  0  0
  185.5510  174.5950  135.8550 N   0  0  0  0  0  2  0  0  0  0  0  0
  187.5150  177.3650  137.1780 C   0  0  1  0  0  3  0  0  0  0  0  0
  186.5120  175.4420  136.4820 C   0  0  0  0  0  0  0  0  0  0  0  0
  188.2970  176.1280  137.6320 C   0  0  0  0  0  2  0  0  0  0  0  0
  186.4220  176.8160  136.4520 O   0  0  0  0  0  0  0  0  0  0  0  0
  185.6460  173.1410  135.9230 C   0  0  0  0  0  3  0  0  0  0  0  0
  186.6790  172.6240  134.9230 C   0  0  0  0  0  2  0  0  0  0  0  0
  187.5570  171.5260  135.5120 C   0  0  0  0  0  1  0  0  0  0  0  0
  184.2870  172.4960  135.6840 C   0  0  0  0  0  2  0  0  0  0  0  0
  183.7050  171.9610  136.9870 C   0  0  0  0  0  1  0  0  0  0  0  0
  188.7370  178.8090  141.7880 C   0  0  0  0  0  2  0  0  0  0  0  0
  190.1970  178.4760  142.1190 C   0  0  1  0  0  3  0  0  0  0  0  0
  190.3250  178.1920  143.4790 O   0  0  0  0  0  0  0  0  0  0  0  0
  191.2270  179.1480  143.9480 C   0  0  0  0  0  1  0  0  0  0  0  0
  190.7970  176.1120  141.8990 O   0  0  0  0  0  1  0  0  0  0  0  0
  190.7450  177.3470  141.2360 C   0  0  2  0  0  3  0  0  0  0  0  0
  192.0730  177.7260  140.5870 C   0  0  0  0  0  2  0  0  0  0  0  0
  191.5550  176.1510  138.6590 N   0  0  0  0  0  2  0  0  0  0  0  0
  193.7380  176.4860  139.4260 O   0  0  0  0  0  0  0  0  0  0  0  0
  192.5090  176.7480  139.5400 C   0  0  0  0  0  0  0  0  0  0  0  0
  191.9990  175.2230  137.6250 C   0  0  0  0  0  2  0  0  0  0  0  0
  192.7390  175.9520  136.5110 C   0  0  0  0  0  2  0  0  0  0  0  0
  194.9900  177.2670  135.5560 O   0  0  0  0  0  0  0  0  0  0  0  0
  193.9560  175.2410  136.1020 N   0  0  0  0  0  0  0  0  0  0  0  0
  195.1070  176.0250  135.7340 C   0  0  0  0  0  0  0  0  0  0  0  0
  196.3950  175.4300  135.5860 N   0  0  0  0  0  0  0  0  0  0  0  0
  197.8490  175.5240  135.2640 C   0  0  0  0  0  2  0  0  0  0  0  0
  197.3580  174.2890  135.6340 C   0  0  0  0  0  2  0  0  0  0  0  0
  193.5620  171.8230  134.5940 C   0  0  0  0  0  3  0  0  0  0  0  0
  193.9340  173.8070  135.9580 C   0  0  0  0  0  0  0  0  0  0  0  0
  193.5550  173.2130  134.7410 C   0  0  0  0  0  3  0  0  0  0  0  0
  193.9670  171.0120  135.6570 C   0  0  0  0  0  3  0  0  0  0  0  0
  194.3710  172.9800  137.0060 C   0  0  0  0  0  3  0  0  0  0  0  0
  194.3790  171.5910  136.8600 C   0  0  0  0  0  3  0  0  0  0  0  0
  186.8350  177.4300  141.1450 O   0  0  0  0  0  0  0  0  0  0  0  0
  186.5130  178.2540  142.2320 C   0  0  2  0  0  3  0  0  0  0  0  0
  186.1040  177.4670  143.4850 C   0  0  0  0  0  2  0  0  0  0  0  0
  186.2760  178.2470  144.7830 C   0  0  0  0  0  2  0  0  0  0  0  0
  187.5700  177.8640  145.4880 C   0  0  0  0  0  2  0  0  0  0  0  0
  187.4650  178.1620  146.9790 C   0  0  0  0  0  2  0  0  0  0  0  0
  190.9580  177.0310  148.1260 O   0  0  0  0  0  1  0  0  0  0  0  0
  189.7110  176.9140  147.5140 C   0  0  2  0  0  0  0  0  0  0  0  0
  188.8380  178.1480  147.6170 C   0  0  2  0  0  0  0  0  0  0  0  0
  188.7730  177.0920  148.5290 O   0  0  0  0  0  0  0  0  0  0  0  0
  189.6780  177.8980  146.5300 O   0  0  0  0  0  0  0  0  0  0  0  0
  185.5750  179.4000  141.8360 C   0  0  0  0  0  2  0  0  0  0  0  0
  184.4670  179.0130  140.8630 C   0  0  0  0  0  2  0  0  0  0  0  0
  183.3330  178.5520  141.5420 O   0  0  0  0  0  0  0  0  0  0  0  0
  181.5810  179.3140  140.2500 C   0  0  0  0  0  2  0  0  0  0  0  0
  182.4510  178.1610  140.5770 N   0  0  0  0  0  0  0  0  0  0  0  0
  181.0510  178.2410  141.0850 C   0  0  1  0  0  3  0  0  0  0  0  0
  180.9390  178.6860  142.5460 C   0  0  0  0  0  2  0  0  0  0  0  0
  179.5120  179.0930  142.8930 C   0  0  0  0  0  2  0  0  0  0  0  0
  179.3230  180.5920  142.7260 C   0  0  0  0  0  1  0  0  0  0  0  0
  1 40  1  0  0  0  0
  1 16  1  1  0  0  0
  2  3  2  0  0  0  0
  3  1  1  0  0  0  0
  4  3  1  0  0  0  0
  5  9  1  0  0  0  0
  6 11  1  0  0  0  0
  6  8  1  0  0  0  0
  7  9  1  0  0  0  0
  7  4  1  1  0  0  0
  8  5  2  0  0  0  0
 10  8  1  0  0  0  0
 10  7  1  0  0  0  0
 12 13  1  0  0  0  0
 12 11  1  0  0  0  0
 14 11  1  0  0  0  0
 14 15  1  0  0  0  0
 17 16  1  6  0  0  0
 17 18  1  0  0  0  0
 18 19  1  0  0  0  0
 21 20  1  1  0  0  0
 21 17  1  0  0  0  0
 22 21  1  0  0  0  0
 23 25  1  0  0  0  0
 24 25  2  0  0  0  0
 25 22  1  0  0  0  0
 26 23  1  0  0  0  0
 27 26  1  0  0  0  0
 28 30  2  0  0  0  0
 29 27  1  0  0  0  0
 30 29  1  0  0  0  0
 31 33  1  0  0  0  0
 31 30  1  0  0  0  0
 32 31  1  0  0  0  0
 32 33  1  0  0  0  0
 34 36  2  0  0  0  0
 34 37  1  0  0  0  0
 35 29  1  0  0  0  0
 35 38  2  0  0  0  0
 36 35  1  0  0  0  0
 37 39  2  0  0  0  0
 39 38  1  0  0  0  0
 40 41  1  0  0  0  0
 41 51  1  6  0  0  0
 41 42  1  0  0  0  0
 42 43  1  0  0  0  0
 43 44  1  0  0  0  0
 44 45  1  0  0  0  0
 47 48  1  0  0  0  0
 47 46  1  1  0  0  0
 47 49  1  0  0  0  0
 48 45  1  6  0  0  0
 48 49  1  0  0  0  0
 50 47  1  0  0  0  0
 50 48  1  0  0  0  0
 52 53  1  0  0  0  0
 52 51  1  0  0  0  0
 54 55  1  0  0  0  0
 54 56  1  0  0  0  0
 55 56  1  0  0  0  0
 55 53  1  0  0  0  0
 56 57  1  1  0  0  0
 57 58  1  0  0  0  0
 59 58  1  0  0  0  0
M  END
>  <MODEL>
6

>  <REMARK>
 VINA RESULT:      -4.8      3.186      8.806
  Name = 
  29 active torsions:
  status: ('A' for Active; 'I' for Inactive)
    1  A    between atoms: O_1  and  C_14
    2  A    between atoms: C_3  and  C_59
    3  A    between atoms: C_4  and  C_43
    4  A    between atoms: C_4  and  C_50
    5  A    between atoms: N_5  and  C_25
    6  A    between atoms: N_5  and  C_41
    7  A    between atoms: N_6  and  C_15
    8  A    between atoms: C_10  and  C_21
    9  A    between atoms: C_10  and  C_34
   10  A    between atoms: C_12  and  C_46
   11  A    between atoms: C_14  and  C_57
   12  A    between atoms: C_14  and  C_58
   13  A    between atoms: C_15  and  C_41
   14  A    between atoms: C_17  and  C_45
   15  A    between atoms: C_17  and  C_57
   16  A    between atoms: N_19  and  C_46
   17  A    between atoms: C_28  and  C_39
   18  A    between atoms: C_28  and  C_56
   19  A    between atoms: O_31  and  C_43
   20  A    between atoms: O_31  and  C_51
   21  A    between atoms: C_32  and  C_53
   22  A    between atoms: C_33  and  C_46
   23  A    between atoms: C_34  and  C_51
   24  A    between atoms: O_36  and  N_44
   25  A    between atoms: O_36  and  C_50
   26  A    between atoms: C_39  and  C_53
   27  A    between atoms: C_43  and  C_56
   28  A    between atoms: C_47  and  C_59
   29  A    between atoms: C_51  and  C_58
                            x       y       z     vdW  Elec       q    Type
                         _______ _______ _______ _____ _____    ______ ____

>  <TORSDO>
F 29

$$$$
=
 OpenBabel11062418153D

 59 64  0  0  1  0  0  0  0  0999 V2000
  184.2990  178.5330  139.7570 C   0  0  1  0  0  3  0  0  0  0  0  0
  184.8530  179.8030  137.8530 O   0  0  0  0  0  0  0  0  0  0  0  0
  185.0410  178.7640  138.4640 C   0  0  0  0  0  0  0  0  0  0  0  0
  185.9660  177.7340  137.8920 C   0  0  0  0  0  2  0  0  0  0  0  0
  189.1650  177.0490  138.8690 N   0  0  0  0  0  0  0  0  0  0  0  0
  190.0860  175.9760  136.9450 N   0  0  0  0  0  2  0  0  0  0  0  0
  187.3950  178.2580  137.8560 C   0  0  1  0  0  3  0  0  0  0  0  0
  189.1540  176.8340  137.6000 C   0  0  0  0  0  0  0  0  0  0  0  0
  188.0810  177.9680  139.1950 C   0  0  0  0  0  2  0  0  0  0  0  0
  188.1610  177.5070  136.9230 O   0  0  0  0  0  0  0  0  0  0  0  0
  191.1130  175.2490  137.6820 C   0  0  0  0  0  3  0  0  0  0  0  0
  192.4640  175.9490  137.5510 C   0  0  0  0  0  2  0  0  0  0  0  0
  192.8200  176.7580  138.7930 C   0  0  0  0  0  1  0  0  0  0  0  0
  191.2010  173.8030  137.2080 C   0  0  0  0  0  2  0  0  0  0  0  0
  189.8560  173.3260  136.6730 C   0  0  0  0  0  1  0  0  0  0  0  0
  184.8090  179.3920  140.9200 C   0  0  0  0  0  2  0  0  0  0  0  0
  184.1260  179.0790  142.2570 C   0  0  1  0  0  3  0  0  0  0  0  0
  183.1230  178.1280  142.0700 O   0  0  0  0  0  0  0  0  0  0  0  0
  181.9610  178.7600  142.5140 C   0  0  0  0  0  1  0  0  0  0  0  0
  186.0530  177.6990  142.8740 O   0  0  0  0  0  1  0  0  0  0  0  0
  185.1350  178.6560  143.3340 C   0  0  2  0  0  3  0  0  0  0  0  0
  184.4440  178.2370  144.6280 C   0  0  0  0  0  2  0  0  0  0  0  0
  186.2380  177.4280  146.2380 N   0  0  0  0  0  2  0  0  0  0  0  0
  185.2180  179.5170  146.4770 O   0  0  0  0  0  0  0  0  0  0  0  0
  185.3040  178.4330  145.8370 C   0  0  0  0  0  0  0  0  0  0  0  0
  187.0910  177.6460  147.4000 C   0  0  0  0  0  2  0  0  0  0  0  0
  188.2610  178.5610  147.0610 C   0  0  0  0  0  2  0  0  0  0  0  0
  190.2860  177.7010  148.7540 O   0  0  0  0  0  0  0  0  0  0  0  0
  189.4260  177.8100  146.5810 N   0  0  0  0  0  0  0  0  0  0  0  0
  190.3590  177.3090  147.5590 C   0  0  0  0  0  0  0  0  0  0  0  0
  191.3580  176.3530  147.2100 N   0  0  0  0  0  0  0  0  0  0  0  0
  192.5230  175.4900  147.5650 C   0  0  0  0  0  2  0  0  0  0  0  0
  192.0590  175.4290  146.2680 C   0  0  0  0  0  2  0  0  0  0  0  0
  189.2800  176.6040  143.0270 C   0  0  0  0  0  3  0  0  0  0  0  0
  189.6750  177.7010  145.1660 C   0  0  0  0  0  0  0  0  0  0  0  0
  189.0610  176.6910  144.4040 C   0  0  0  0  0  3  0  0  0  0  0  0
  190.1030  177.5390  142.3910 C   0  0  0  0  0  3  0  0  0  0  0  0
  190.4720  178.6520  144.5080 C   0  0  0  0  0  3  0  0  0  0  0  0
  190.6920  178.5670  143.1310 C   0  0  0  0  0  3  0  0  0  0  0  0
  182.9160  178.6420  139.5850 O   0  0  0  0  0  0  0  0  0  0  0  0
  182.6600  177.9110  138.4160 C   0  0  2  0  0  3  0  0  0  0  0  0
  181.3390  178.3000  137.7400 C   0  0  0  0  0  2  0  0  0  0  0  0
  181.3590  179.6850  137.1050 C   0  0  0  0  0  2  0  0  0  0  0  0
  180.4180  179.7570  135.9110 C   0  0  0  0  0  2  0  0  0  0  0  0
  179.2780  180.7280  136.1960 C   0  0  0  0  0  2  0  0  0  0  0  0
  180.7810  184.1310  135.2160 O   0  0  0  0  0  1  0  0  0  0  0  0
  180.6470  182.9550  135.9520 C   0  0  2  0  0  0  0  0  0  0  0  0
  179.5220  182.0480  135.4940 C   0  0  2  0  0  0  0  0  0  0  0  0
  179.3690  183.0000  136.5060 O   0  0  0  0  0  0  0  0  0  0  0  0
  180.8380  181.9170  135.0450 O   0  0  0  0  0  0  0  0  0  0  0  0
  182.8870  176.4080  138.6090 C   0  0  0  0  0  2  0  0  0  0  0  0
  181.8480  175.7090  139.4780 C   0  0  0  0  0  2  0  0  0  0  0  0
  181.4450  174.4940  138.9110 O   0  0  0  0  0  0  0  0  0  0  0  0
  179.2970  173.8150  139.4060 C   0  0  0  0  0  2  0  0  0  0  0  0
  180.1430  174.6670  138.5380 N   0  0  0  0  0  0  0  0  0  0  0  0
  179.5690  173.3850  138.0380 C   0  0  1  0  0  3  0  0  0  0  0  0
  180.5620  172.2190  138.0160 C   0  0  0  0  0  2  0  0  0  0  0  0
  180.3790  171.3590  136.7720 C   0  0  0  0  0  2  0  0  0  0  0  0
  179.0360  171.6360  136.1170 C   0  0  0  0  0  1  0  0  0  0  0  0
  1 16  1  1  0  0  0
  2  3  2  0  0  0  0
  3  1  1  0  0  0  0
  4  3  1  0  0  0  0
  5  9  1  0  0  0  0
  6  8  1  0  0  0  0
  6 11  1  0  0  0  0
  7  4  1  1  0  0  0
  7  9  1  0  0  0  0
  8  5  2  0  0  0  0
 10  8  1  0  0  0  0
 10  7  1  0  0  0  0
 12 11  1  0  0  0  0
 12 13  1  0  0  0  0
 14 11  1  0  0  0  0
 15 14  1  0  0  0  0
 17 16  1  6  0  0  0
 17 21  1  0  0  0  0
 18 17  1  0  0  0  0
 18 19  1  0  0  0  0
 21 20  1  6  0  0  0
 21 22  1  0  0  0  0
 22 25  1  0  0  0  0
 23 26  1  0  0  0  0
 25 23  1  0  0  0  0
 25 24  2  0  0  0  0
 27 26  1  0  0  0  0
 29 27  1  0  0  0  0
 29 30  1  0  0  0  0
 30 28  2  0  0  0  0
 31 30  1  0  0  0  0
 31 32  1  0  0  0  0
 33 31  1  0  0  0  0
 33 32  1  0  0  0  0
 34 36  1  0  0  0  0
 35 29  1  0  0  0  0
 36 35  2  0  0  0  0
 37 34  2  0  0  0  0
 37 39  1  0  0  0  0
 38 35  1  0  0  0  0
 39 38  2  0  0  0  0
 40  1  1  0  0  0  0
 41 42  1  1  0  0  0
 41 51  1  0  0  0  0
 41 40  1  0  0  0  0
 43 42  1  0  0  0  0
 44 45  1  0  0  0  0
 44 43  1  0  0  0  0
 47 46  1  6  0  0  0
 47 49  1  0  0  0  0
 48 47  1  0  0  0  0
 48 45  1  1  0  0  0
 48 49  1  0  0  0  0
 50 48  1  0  0  0  0
 50 47  1  0  0  0  0
 51 52  1  0  0  0  0
 53 52  1  0  0  0  0
 55 53  1  0  0  0  0
 55 54  1  0  0  0  0
 56 57  1  1  0  0  0
 56 55  1  0  0  0  0
 56 54  1  0  0  0  0
 58 57  1  0  0  0  0
 59 58  1  0  0  0  0
M  END
>  <MODEL>
7

>  <REMARK>
 VINA RESULT:      -4.5      2.626      5.880
  Name = 
  29 active torsions:
  status: ('A' for Active; 'I' for Inactive)
    1  A    between atoms: O_1  and  C_14
    2  A    between atoms: C_3  and  C_59
    3  A    between atoms: C_4  and  C_43
    4  A    between atoms: C_4  and  C_50
    5  A    between atoms: N_5  and  C_25
    6  A    between atoms: N_5  and  C_41
    7  A    between atoms: N_6  and  C_15
    8  A    between atoms: C_10  and  C_21
    9  A    between atoms: C_10  and  C_34
   10  A    between atoms: C_12  and  C_46
   11  A    between atoms: C_14  and  C_57
   12  A    between atoms: C_14  and  C_58
   13  A    between atoms: C_15  and  C_41
   14  A    between atoms: C_17  and  C_45
   15  A    between atoms: C_17  and  C_57
   16  A    between atoms: N_19  and  C_46
   17  A    between atoms: C_28  and  C_39
   18  A    between atoms: C_28  and  C_56
   19  A    between atoms: O_31  and  C_43
   20  A    between atoms: O_31  and  C_51
   21  A    between atoms: C_32  and  C_53
   22  A    between atoms: C_33  and  C_46
   23  A    between atoms: C_34  and  C_51
   24  A    between atoms: O_36  and  N_44
   25  A    between atoms: O_36  and  C_50
   26  A    between atoms: C_39  and  C_53
   27  A    between atoms: C_43  and  C_56
   28  A    between atoms: C_47  and  C_59
   29  A    between atoms: C_51  and  C_58
                            x       y       z     vdW  Elec       q    Type
                         _______ _______ _______ _____ _____    ______ ____

>  <TORSDO>
F 29

$$$$
=
 OpenBabel11062418153D

 59 64  0  0  1  0  0  0  0  0999 V2000
  186.2420  176.8170  137.5180 C   0  0  1  0  0  3  0  0  0  0  0  0
  186.8110  175.8720  135.4380 O   0  0  0  0  0  0  0  0  0  0  0  0
  187.2080  176.1830  136.5490 C   0  0  0  0  0  0  0  0  0  0  0  0
  188.6250  175.8850  136.9310 C   0  0  0  0  0  2  0  0  0  0  0  0
  191.7340  175.4190  135.5990 N   0  0  0  0  0  0  0  0  0  0  0  0
  192.3530  173.2730  136.4440 N   0  0  0  0  0  2  0  0  0  0  0  0
  189.3750  175.2580  135.7630 C   0  0  1  0  0  3  0  0  0  0  0  0
  191.4020  174.2690  136.0750 C   0  0  0  0  0  0  0  0  0  0  0  0
  190.5200  176.1810  135.3350 C   0  0  0  0  0  2  0  0  0  0  0  0
  190.0440  174.0800  136.1970 O   0  0  0  0  0  0  0  0  0  0  0  0
  193.7900  173.5010  136.3360 C   0  0  0  0  0  3  0  0  0  0  0  0
  194.5460  172.1750  136.3580 C   0  0  0  0  0  2  0  0  0  0  0  0
  193.8930  171.1190  135.4730 C   0  0  0  0  0  1  0  0  0  0  0  0
  194.2780  174.4250  137.4440 C   0  0  0  0  0  2  0  0  0  0  0  0
  195.1260  173.6600  138.4540 C   0  0  0  0  0  1  0  0  0  0  0  0
  186.7150  178.1710  138.0590 C   0  0  0  0  0  2  0  0  0  0  0  0
  186.8240  178.2160  139.5880 C   0  0  1  0  0  3  0  0  0  0  0  0
  187.9530  178.9440  139.9650 O   0  0  0  0  0  0  0  0  0  0  0  0
  188.9920  178.3730  139.2290 C   0  0  0  0  0  1  0  0  0  0  0  0
  184.8710  179.6870  139.4380 O   0  0  0  0  0  1  0  0  0  0  0  0
  185.5430  178.7530  140.2410 C   0  0  2  0  0  3  0  0  0  0  0  0
  185.7970  179.2660  141.6560 C   0  0  0  0  0  2  0  0  0  0  0  0
  186.2930  178.3870  143.9900 N   0  0  0  0  0  2  0  0  0  0  0  0
  186.7710  177.1360  142.0730 O   0  0  0  0  0  0  0  0  0  0  0  0
  186.3260  178.2070  142.5720 C   0  0  0  0  0  0  0  0  0  0  0  0
  186.7840  177.3330  144.8700 C   0  0  0  0  0  2  0  0  0  0  0  0
  187.6450  177.9060  145.9890 C   0  0  0  0  0  2  0  0  0  0  0  0
  189.1800  177.4350  148.2540 O   0  0  0  0  0  0  0  0  0  0  0  0
  189.0300  177.4230  145.9200 N   0  0  0  0  0  0  0  0  0  0  0  0
  189.6960  177.0980  147.1550 C   0  0  0  0  0  0  0  0  0  0  0  0
  190.9260  176.3780  147.1680 N   0  0  0  0  0  0  0  0  0  0  0  0
  192.0750  175.7640  147.8980 C   0  0  0  0  0  2  0  0  0  0  0  0
  192.0570  175.6430  146.5240 C   0  0  0  0  0  2  0  0  0  0  0  0
  190.1210  176.3890  142.4780 C   0  0  0  0  0  3  0  0  0  0  0  0
  189.7200  177.4060  144.6550 C   0  0  0  0  0  0  0  0  0  0  0  0
  189.4730  176.3880  143.7160 C   0  0  0  0  0  3  0  0  0  0  0  0
  191.0120  177.4170  142.1580 C   0  0  0  0  0  3  0  0  0  0  0  0
  190.5920  178.4490  144.3060 C   0  0  0  0  0  3  0  0  0  0  0  0
  191.2410  178.4520  143.0680 C   0  0  0  0  0  3  0  0  0  0  0  0
  184.9480  176.8790  136.9920 O   0  0  0  0  0  0  0  0  0  0  0  0
  184.1590  176.2320  137.9530 C   0  0  2  0  0  3  0  0  0  0  0  0
  183.9380  174.7430  137.6480 C   0  0  0  0  0  2  0  0  0  0  0  0
  184.7200  174.2420  136.4390 C   0  0  0  0  0  2  0  0  0  0  0  0
  184.1840  172.9020  135.9540 C   0  0  0  0  0  2  0  0  0  0  0  0
  183.5020  172.1630  137.1000 C   0  0  0  0  0  2  0  0  0  0  0  0
  180.8430  170.0800  135.2590 O   0  0  0  0  0  1  0  0  0  0  0  0
  181.4850  171.2360  135.6980 C   0  0  2  0  0  0  0  0  0  0  0  0
  182.7010  170.9920  136.5700 C   0  0  2  0  0  0  0  0  0  0  0  0
  181.4210  171.1980  137.0900 O   0  0  0  0  0  0  0  0  0  0  0  0
  182.7770  171.1710  135.1870 O   0  0  0  0  0  0  0  0  0  0  0  0
  182.8980  177.0280  138.3030 C   0  0  0  0  0  2  0  0  0  0  0  0
  182.5960  177.1260  139.7940 C   0  0  0  0  0  2  0  0  0  0  0  0
  181.4520  177.8970  140.0310 O   0  0  0  0  0  0  0  0  0  0  0  0
  179.1470  177.8340  140.0660 C   0  0  0  0  0  2  0  0  0  0  0  0
  180.3910  177.0550  139.8670 N   0  0  0  0  0  0  0  0  0  0  0  0
  179.6070  176.9500  141.1310 C   0  0  1  0  0  3  0  0  0  0  0  0
  180.1890  177.7530  142.2990 C   0  0  0  0  0  2  0  0  0  0  0  0
  179.5540  179.1360  142.3900 C   0  0  0  0  0  2  0  0  0  0  0  0
  178.9850  179.3780  143.7780 C   0  0  0  0  0  1  0  0  0  0  0  0
  1 16  1  6  0  0  0
  2  3  2  0  0  0  0
  3  4  1  0  0  0  0
  3  1  1  0  0  0  0
  5  8  2  0  0  0  0
  7 10  1  0  0  0  0
  7  4  1  1  0  0  0
  8 10  1  0  0  0  0
  8  6  1  0  0  0  0
  9  5  1  0  0  0  0
  9  7  1  0  0  0  0
 11 12  1  0  0  0  0
 11  6  1  0  0  0  0
 11 14  1  0  0  0  0
 13 12  1  0  0  0  0
 14 15  1  0  0  0  0
 17 16  1  6  0  0  0
 17 18  1  0  0  0  0
 17 21  1  0  0  0  0
 19 18  1  0  0  0  0
 21 20  1  6  0  0  0
 21 22  1  0  0  0  0
 22 25  1  0  0  0  0
 23 26  1  0  0  0  0
 24 25  2  0  0  0  0
 25 23  1  0  0  0  0
 26 27  1  0  0  0  0
 29 27  1  0  0  0  0
 29 30  1  0  0  0  0
 30 31  1  0  0  0  0
 30 28  2  0  0  0  0
 31 32  1  0  0  0  0
 33 31  1  0  0  0  0
 33 32  1  0  0  0  0
 34 36  1  0  0  0  0
 35 29  1  0  0  0  0
 36 35  2  0  0  0  0
 37 34  2  0  0  0  0
 37 39  1  0  0  0  0
 38 35  1  0  0  0  0
 39 38  2  0  0  0  0
 40  1  1  0  0  0  0
 40 41  1  0  0  0  0
 41 42  1  6  0  0  0
 41 51  1  0  0  0  0
 43 42  1  0  0  0  0
 44 43  1  0  0  0  0
 44 45  1  0  0  0  0
 47 46  1  6  0  0  0
 47 48  1  0  0  0  0
 47 49  1  0  0  0  0
 48 49  1  0  0  0  0
 48 45  1  1  0  0  0
 50 47  1  0  0  0  0
 50 48  1  0  0  0  0
 51 52  1  0  0  0  0
 52 53  1  0  0  0  0
 54 56  1  0  0  0  0
 55 53  1  0  0  0  0
 55 54  1  0  0  0  0
 55 56  1  0  0  0  0
 56 57  1  1  0  0  0
 57 58  1  0  0  0  0
 58 59  1  0  0  0  0
M  END
>  <MODEL>
8

>  <REMARK>
 VINA RESULT:      -4.5      1.800      2.221
  Name = 
  29 active torsions:
  status: ('A' for Active; 'I' for Inactive)
    1  A    between atoms: O_1  and  C_14
    2  A    between atoms: C_3  and  C_59
    3  A    between atoms: C_4  and  C_43
    4  A    between atoms: C_4  and  C_50
    5  A    between atoms: N_5  and  C_25
    6  A    between atoms: N_5  and  C_41
    7  A    between atoms: N_6  and  C_15
    8  A    between atoms: C_10  and  C_21
    9  A    between atoms: C_10  and  C_34
   10  A    between atoms: C_12  and  C_46
   11  A    between atoms: C_14  and  C_57
   12  A    between atoms: C_14  and  C_58
   13  A    between atoms: C_15  and  C_41
   14  A    between atoms: C_17  and  C_45
   15  A    between atoms: C_17  and  C_57
   16  A    between atoms: N_19  and  C_46
   17  A    between atoms: C_28  and  C_39
   18  A    between atoms: C_28  and  C_56
   19  A    between atoms: O_31  and  C_43
   20  A    between atoms: O_31  and  C_51
   21  A    between atoms: C_32  and  C_53
   22  A    between atoms: C_33  and  C_46
   23  A    between atoms: C_34  and  C_51
   24  A    between atoms: O_36  and  N_44
   25  A    between atoms: O_36  and  C_50
   26  A    between atoms: C_39  and  C_53
   27  A    between atoms: C_43  and  C_56
   28  A    between atoms: C_47  and  C_59
   29  A    between atoms: C_51  and  C_58
                            x       y       z     vdW  Elec       q    Type
                         _______ _______ _______ _____ _____    ______ ____

>  <TORSDO>
F 29

$$$$
=
 OpenBabel11062418153D

 59 64  0  0  1  0  0  0  0  0999 V2000
  183.5520  178.9920  139.6270 C   0  0  1  0  0  3  0  0  0  0  0  0
  183.4490  176.6940  140.1290 O   0  0  0  0  0  0  0  0  0  0  0  0
  183.7000  177.5310  139.2790 C   0  0  0  0  0  0  0  0  0  0  0  0
  184.1920  177.0890  137.9350 C   0  0  0  0  0  2  0  0  0  0  0  0
  183.9660  174.6610  135.5450 N   0  0  0  0  0  0  0  0  0  0  0  0
  184.5800  172.6870  136.7400 N   0  0  0  0  0  2  0  0  0  0  0  0
  183.2660  176.0300  137.3490 C   0  0  1  0  0  3  0  0  0  0  0  0
  184.0850  174.0210  136.6560 C   0  0  0  0  0  0  0  0  0  0  0  0
  183.4350  175.9890  135.8270 C   0  0  0  0  0  2  0  0  0  0  0  0
  183.6900  174.7380  137.7640 O   0  0  0  0  0  0  0  0  0  0  0  0
  185.0210  171.9530  135.5590 C   0  0  0  0  0  3  0  0  0  0  0  0
  184.3120  170.6030  135.4700 C   0  0  0  0  0  2  0  0  0  0  0  0
  182.7970  170.7490  135.3770 C   0  0  0  0  0  1  0  0  0  0  0  0
  186.5340  171.7740  135.5640 C   0  0  0  0  0  2  0  0  0  0  0  0
  187.2400  173.1220  135.4820 C   0  0  0  0  0  1  0  0  0  0  0  0
  184.6510  179.5160  140.5590 C   0  0  0  0  0  2  0  0  0  0  0  0
  185.8350  178.5530  140.7120 C   0  0  1  0  0  3  0  0  0  0  0  0
  186.8890  178.9580  139.8930 O   0  0  0  0  0  0  0  0  0  0  0  0
  187.9720  178.1890  140.3190 C   0  0  0  0  0  1  0  0  0  0  0  0
  187.3750  177.5540  142.3330 O   0  0  0  0  0  1  0  0  0  0  0  0
  186.2640  178.3970  142.1770 C   0  0  2  0  0  3  0  0  0  0  0  0
  185.0940  178.0060  143.0750 C   0  0  0  0  0  2  0  0  0  0  0  0
  186.5730  177.3990  145.0520 N   0  0  0  0  0  2  0  0  0  0  0  0
  184.7030  178.7810  145.2890 O   0  0  0  0  0  0  0  0  0  0  0  0
  185.4290  178.0790  144.5320 C   0  0  0  0  0  0  0  0  0  0  0  0
  186.9040  177.5050  146.4690 C   0  0  0  0  0  2  0  0  0  0  0  0
  188.0930  178.4310  146.6900 C   0  0  0  0  0  2  0  0  0  0  0  0
  189.8260  177.8720  148.7860 O   0  0  0  0  0  0  0  0  0  0  0  0
  189.3730  177.7400  146.4940 N   0  0  0  0  0  0  0  0  0  0  0  0
  190.1410  177.3940  147.6630 C   0  0  0  0  0  0  0  0  0  0  0  0
  191.2460  176.4970  147.5860 N   0  0  0  0  0  0  0  0  0  0  0  0
  192.3800  175.7610  148.2200 C   0  0  0  0  0  2  0  0  0  0  0  0
  192.1670  175.5610  146.8720 C   0  0  0  0  0  2  0  0  0  0  0  0
  190.3130  176.0820  143.2580 C   0  0  0  0  0  3  0  0  0  0  0  0
  189.8830  177.5400  145.1620 C   0  0  0  0  0  0  0  0  0  0  0  0
  189.8450  176.2690  144.5610 C   0  0  0  0  0  3  0  0  0  0  0  0
  190.8100  177.1700  142.5330 C   0  0  0  0  0  3  0  0  0  0  0  0
  190.3530  178.6280  144.4090 C   0  0  0  0  0  3  0  0  0  0  0  0
  190.8210  178.4440  143.1060 C   0  0  0  0  0  3  0  0  0  0  0  0
  183.4060  179.7820  138.4830 O   0  0  0  0  0  0  0  0  0  0  0  0
  182.0310  180.0460  138.4250 C   0  0  2  0  0  3  0  0  0  0  0  0
  181.2250  178.9090  137.7810 C   0  0  0  0  0  2  0  0  0  0  0  0
  179.8350  178.7260  138.3790 C   0  0  0  0  0  2  0  0  0  0  0  0
  179.9020  177.9910  139.7100 C   0  0  0  0  0  2  0  0  0  0  0  0
  179.5950  178.9490  140.8550 C   0  0  0  0  0  2  0  0  0  0  0  0
  180.5880  178.5820  144.5540 O   0  0  0  0  0  1  0  0  0  0  0  0
  180.1710  179.2430  143.4000 C   0  0  2  0  0  0  0  0  0  0  0  0
  180.0560  178.3610  142.1730 C   0  0  2  0  0  0  0  0  0  0  0  0
  181.2080  179.0890  142.4810 O   0  0  0  0  0  0  0  0  0  0  0  0
  178.9800  178.6310  143.0210 O   0  0  0  0  0  0  0  0  0  0  0  0
  181.7290  181.4520  137.8960 C   0  0  0  0  0  2  0  0  0  0  0  0
  180.4360  181.5720  137.0970 C   0  0  0  0  0  2  0  0  0  0  0  0
  179.6570  182.6440  137.5500 O   0  0  0  0  0  0  0  0  0  0  0  0
  180.1950  184.3270  136.0680 C   0  0  0  0  0  2  0  0  0  0  0  0
  179.2100  183.2820  136.4300 N   0  0  0  0  0  0  0  0  0  0  0  0
  178.9500  184.7220  136.7180 C   0  0  1  0  0  3  0  0  0  0  0  0
  179.1940  185.1240  138.1760 C   0  0  0  0  0  2  0  0  0  0  0  0
  179.9000  186.4710  138.2680 C   0  0  0  0  0  2  0  0  0  0  0  0
  181.2470  186.3290  138.9570 C   0  0  0  0  0  1  0  0  0  0  0  0
  1 16  1  6  0  0  0
  3  1  1  0  0  0  0
  3  2  2  0  0  0  0
  4  3  1  0  0  0  0
  5  9  1  0  0  0  0
  5  8  2  0  0  0  0
  7 10  1  0  0  0  0
  7  4  1  1  0  0  0
  8  6  1  0  0  0  0
  8 10  1  0  0  0  0
  9  7  1  0  0  0  0
 11 14  1  0  0  0  0
 11  6  1  0  0  0  0
 12 11  1  0  0  0  0
 13 12  1  0  0  0  0
 15 14  1  0  0  0  0
 17 16  1  1  0  0  0
 17 21  1  0  0  0  0
 18 19  1  0  0  0  0
 18 17  1  0  0  0  0
 21 20  1  6  0  0  0
 21 22  1  0  0  0  0
 22 25  1  0  0  0  0
 23 26  1  0  0  0  0
 25 23  1  0  0  0  0
 25 24  2  0  0  0  0
 26 27  1  0  0  0  0
 29 27  1  0  0  0  0
 29 30  1  0  0  0  0
 30 28  2  0  0  0  0
 31 30  1  0  0  0  0
 31 32  1  0  0  0  0
 33 31  1  0  0  0  0
 33 32  1  0  0  0  0
 34 36  1  0  0  0  0
 35 29  1  0  0  0  0
 36 35  2  0  0  0  0
 37 39  1  0  0  0  0
 37 34  2  0  0  0  0
 38 35  1  0  0  0  0
 39 38  2  0  0  0  0
 40  1  1  0  0  0  0
 41 42  1  6  0  0  0
 41 40  1  0  0  0  0
 42 43  1  0  0  0  0
 43 44  1  0  0  0  0
 44 45  1  0  0  0  0
 47 46  1  1  0  0  0
 48 45  1  6  0  0  0
 48 49  1  0  0  0  0
 48 50  1  0  0  0  0
 48 47  1  0  0  0  0
 49 47  1  0  0  0  0
 50 47  1  0  0  0  0
 51 41  1  0  0  0  0
 52 53  1  0  0  0  0
 52 51  1  0  0  0  0
 54 55  1  0  0  0  0
 54 56  1  0  0  0  0
 55 56  1  0  0  0  0
 55 53  1  0  0  0  0
 56 57  1  1  0  0  0
 57 58  1  0  0  0  0
 58 59  1  0  0  0  0
M  END
>  <MODEL>
9

>  <REMARK>
 VINA RESULT:      -4.0      3.395      5.853
  Name = 
  29 active torsions:
  status: ('A' for Active; 'I' for Inactive)
    1  A    between atoms: O_1  and  C_14
    2  A    between atoms: C_3  and  C_59
    3  A    between atoms: C_4  and  C_43
    4  A    between atoms: C_4  and  C_50
    5  A    between atoms: N_5  and  C_25
    6  A    between atoms: N_5  and  C_41
    7  A    between atoms: N_6  and  C_15
    8  A    between atoms: C_10  and  C_21
    9  A    between atoms: C_10  and  C_34
   10  A    between atoms: C_12  and  C_46
   11  A    between atoms: C_14  and  C_57
   12  A    between atoms: C_14  and  C_58
   13  A    between atoms: C_15  and  C_41
   14  A    between atoms: C_17  and  C_45
   15  A    between atoms: C_17  and  C_57
   16  A    between atoms: N_19  and  C_46
   17  A    between atoms: C_28  and  C_39
   18  A    between atoms: C_28  and  C_56
   19  A    between atoms: O_31  and  C_43
   20  A    between atoms: O_31  and  C_51
   21  A    between atoms: C_32  and  C_53
   22  A    between atoms: C_33  and  C_46
   23  A    between atoms: C_34  and  C_51
   24  A    between atoms: O_36  and  N_44
   25  A    between atoms: O_36  and  C_50
   26  A    between atoms: C_39  and  C_53
   27  A    between atoms: C_43  and  C_56
   28  A    between atoms: C_47  and  C_59
   29  A    between atoms: C_51  and  C_58
                            x       y       z     vdW  Elec       q    Type
                         _______ _______ _______ _____ _____    ______ ____

>  <TORSDO>
F 29

$$$$
