=
 OpenBabel11062415453D

 27 30  0  0  1  0  0  0  0  0999 V2000
  188.1120  178.4240  141.3710 C   0  0  2  0  0  3  0  0  0  0  0  0
  190.2130  177.3760  141.2390 C   0  0  0  0  0  3  0  0  0  0  0  0
  189.6000  177.1020  139.9870 N   0  0  0  0  0  0  0  0  0  0  0  0
  188.3430  177.7520  140.0600 C   0  0  0  0  0  0  0  0  0  0  0  0
  189.4260  178.1070  142.0250 C   0  0  1  0  0  3  0  0  0  0  0  0
  187.5300  177.7670  139.0990 O   0  0  0  0  0  0  0  0  0  0  0  0
  187.0950  177.8090  143.5260 O   0  0  0  0  0  0  0  0  0  0  0  0
  183.3840  178.9780  144.9280 C   0  0  0  0  0  3  0  0  0  0  0  0
  185.6510  178.2640  145.4830 C   0  0  0  0  0  3  0  0  0  0  0  0
  184.9610  178.4880  143.1810 C   0  0  0  0  0  0  0  0  0  0  0  0
  185.5280  178.3590  141.8130 C   0  0  2  0  0  3  0  0  0  0  0  0
  186.9390  177.7550  142.1070 C   0  0  1  0  0  3  0  0  0  0  0  0
  183.6790  178.8930  143.5560 C   0  0  0  0  0  3  0  0  0  0  0  0
  184.3670  178.6650  145.8870 C   0  0  0  0  0  3  0  0  0  0  0  0
  185.6170  179.6840  141.2140 N   0  0  0  0  0  1  0  0  0  0  0  0
  185.9110  178.1860  144.1160 C   0  0  0  0  0  0  0  0  0  0  0  0
  189.8240  178.5940  143.3840 C   0  0  1  0  0  3  0  0  0  0  0  0
  189.9440  177.4800  144.3140 N   0  0  0  0  0  2  0  0  0  0  0  0
  191.0000  177.8620  145.2400 C   0  0  2  0  0  3  0  0  0  0  0  0
  191.1500  179.3300  143.3450 C   0  0  0  0  0  2  0  0  0  0  0  0
  191.9600  178.7510  144.4770 C   0  0  0  0  0  2  0  0  0  0  0  0
  191.7840  175.5130  144.7490 C   0  0  0  0  0  1  0  0  0  0  0  0
  191.7120  176.6210  145.7900 C   0  0  2  0  0  3  0  0  0  0  0  0
  191.0700  176.1000  147.0790 C   0  0  0  0  0  2  0  0  0  0  0  0
  190.2260  177.1590  147.7790 C   0  0  0  0  0  2  0  0  0  0  0  0
  188.7590  176.7760  147.7370 C   0  0  0  0  0  2  0  0  0  0  0  0
  187.9760  177.7200  148.5160 N   0  0  0  0  0  1  0  0  0  0  0  0
  1  4  1  6  0  0  0
  1  5  1  0  0  0  0
  1 12  1  0  0  0  0
  3  4  1  0  0  0  0
  3  2  2  0  0  0  0
  5  2  1  6  0  0  0
  5 17  1  0  0  0  0
  6  4  2  0  0  0  0
  7 16  1  0  0  0  0
  8 14  1  0  0  0  0
  9 14  2  0  0  0  0
 10 13  1  0  0  0  0
 10 16  2  0  0  0  0
 11 15  1  1  0  0  0
 11 12  1  0  0  0  0
 11 10  1  0  0  0  0
 12  7  1  1  0  0  0
 13  8  2  0  0  0  0
 16  9  1  0  0  0  0
 17 20  1  6  0  0  0
 17 18  1  0  0  0  0
 18 19  1  0  0  0  0
 19 23  1  6  0  0  0
 20 21  1  0  0  0  0
 21 19  1  0  0  0  0
 23 22  1  6  0  0  0
 23 24  1  0  0  0  0
 24 25  1  0  0  0  0
 26 25  1  0  0  0  0
 26 27  1  0  0  0  0
M  END
>  <MODEL>
1

>  <REMARK>
 VINA RESULT:      -8.1      0.000      0.000
  Name = 
  6 active torsions:
  status: ('A' for Active; 'I' for Inactive)
    1  A    between atoms: C_1  and  C_10
    2  A    between atoms: C_2  and  C_22
    3  A    between atoms: C_3  and  C_26
    4  A    between atoms: C_11  and  C_21
    5  A    between atoms: C_11  and  C_26
    6  A    between atoms: C_14  and  C_21
                            x       y       z     vdW  Elec       q    Type
                         _______ _______ _______ _____ _____    ______ ____

>  <TORSDO>
F 6

$$$$
=
 OpenBabel11062415453D

 27 30  0  0  1  0  0  0  0  0999 V2000
  189.1730  177.1660  141.6340 C   0  0  2  0  0  3  0  0  0  0  0  0
  188.5290  178.5940  139.8800 C   0  0  0  0  0  3  0  0  0  0  0  0
  189.6360  177.8710  139.3610 N   0  0  0  0  0  0  0  0  0  0  0  0
  190.0090  176.9960  140.4110 C   0  0  0  0  0  0  0  0  0  0  0  0
  188.2400  178.2290  141.1270 C   0  0  1  0  0  3  0  0  0  0  0  0
  190.9400  176.1560  140.2950 O   0  0  0  0  0  0  0  0  0  0  0  0
  189.2440  178.1540  143.8870 O   0  0  0  0  0  0  0  0  0  0  0  0
  191.0280  176.5220  147.2430 C   0  0  0  0  0  3  0  0  0  0  0  0
  189.2940  177.9930  146.3550 C   0  0  0  0  0  3  0  0  0  0  0  0
  190.7920  176.8230  144.8690 C   0  0  0  0  0  0  0  0  0  0  0  0
  191.0260  176.6410  143.4130 C   0  0  2  0  0  3  0  0  0  0  0  0
  190.0380  177.6810  142.7960 C   0  0  1  0  0  3  0  0  0  0  0  0
  191.4580  176.2220  145.9390 C   0  0  0  0  0  3  0  0  0  0  0  0
  189.9490  177.4040  147.4490 C   0  0  0  0  0  3  0  0  0  0  0  0
  190.6750  175.2740  143.0480 N   0  0  0  0  0  1  0  0  0  0  0  0
  189.7470  177.6780  145.0750 C   0  0  0  0  0  0  0  0  0  0  0  0
  187.0930  178.7800  141.9150 C   0  0  1  0  0  3  0  0  0  0  0  0
  186.0970  179.3660  141.0290 N   0  0  0  0  0  2  0  0  0  0  0  0
  184.8170  179.1450  141.6870 C   0  0  2  0  0  3  0  0  0  0  0  0
  186.4210  177.7030  142.7460 C   0  0  0  0  0  2  0  0  0  0  0  0
  184.9440  177.8640  142.4870 C   0  0  0  0  0  2  0  0  0  0  0  0
  182.9870  177.6950  140.7280 C   0  0  0  0  0  1  0  0  0  0  0  0
  183.6880  179.0440  140.6550 C   0  0  2  0  0  3  0  0  0  0  0  0
  184.1730  179.3160  139.2280 C   0  0  0  0  0  2  0  0  0  0  0  0
  183.9170  178.1400  138.2920 C   0  0  0  0  0  2  0  0  0  0  0  0
  185.2280  177.6100  137.7420 C   0  0  0  0  0  2  0  0  0  0  0  0
  186.1760  178.6980  137.5830 N   0  0  0  0  0  1  0  0  0  0  0  0
  1  4  1  6  0  0  0
  1 12  1  0  0  0  0
  3  2  2  0  0  0  0
  3  4  1  0  0  0  0
  5  2  1  6  0  0  0
  5  1  1  0  0  0  0
  5 17  1  0  0  0  0
  6  4  2  0  0  0  0
  7 16  1  0  0  0  0
  8 14  1  0  0  0  0
  9 14  2  0  0  0  0
 10 16  2  0  0  0  0
 10 13  1  0  0  0  0
 11 15  1  6  0  0  0
 11 10  1  0  0  0  0
 12 11  1  0  0  0  0
 12  7  1  1  0  0  0
 13  8  2  0  0  0  0
 16  9  1  0  0  0  0
 17 20  1  6  0  0  0
 18 19  1  0  0  0  0
 18 17  1  0  0  0  0
 19 23  1  6  0  0  0
 19 21  1  0  0  0  0
 21 20  1  0  0  0  0
 23 22  1  6  0  0  0
 24 23  1  0  0  0  0
 25 24  1  0  0  0  0
 26 25  1  0  0  0  0
 27 26  1  0  0  0  0
M  END
>  <MODEL>
2

>  <REMARK>
 VINA RESULT:      -7.4      2.201      6.752
  Name = 
  6 active torsions:
  status: ('A' for Active; 'I' for Inactive)
    1  A    between atoms: C_1  and  C_10
    2  A    between atoms: C_2  and  C_22
    3  A    between atoms: C_3  and  C_26
    4  A    between atoms: C_11  and  C_21
    5  A    between atoms: C_11  and  C_26
    6  A    between atoms: C_14  and  C_21
                            x       y       z     vdW  Elec       q    Type
                         _______ _______ _______ _____ _____    ______ ____

>  <TORSDO>
F 6

$$$$
=
 OpenBabel11062415453D

 27 30  0  0  1  0  0  0  0  0999 V2000
  188.9960  177.2090  141.5620 C   0  0  2  0  0  3  0  0  0  0  0  0
  188.3670  178.5850  139.7620 C   0  0  0  0  0  3  0  0  0  0  0  0
  189.4780  177.8480  139.2740 N   0  0  0  0  0  0  0  0  0  0  0  0
  189.8430  177.0030  140.3520 C   0  0  0  0  0  0  0  0  0  0  0  0
  188.0680  178.2560  141.0160 C   0  0  1  0  0  3  0  0  0  0  0  0
  190.7740  176.1600  140.2690 O   0  0  0  0  0  0  0  0  0  0  0  0
  189.0480  178.2020  143.8130 O   0  0  0  0  0  0  0  0  0  0  0  0
  190.9180  176.6430  147.1560 C   0  0  0  0  0  3  0  0  0  0  0  0
  189.1240  178.0470  146.2810 C   0  0  0  0  0  3  0  0  0  0  0  0
  190.6520  176.9300  144.7850 C   0  0  0  0  0  0  0  0  0  0  0  0
  190.8810  176.7550  143.3260 C   0  0  2  0  0  3  0  0  0  0  0  0
  189.8500  177.7570  142.7170 C   0  0  1  0  0  3  0  0  0  0  0  0
  191.3480  176.3560  145.8490 C   0  0  0  0  0  3  0  0  0  0  0  0
  189.8090  177.4850  147.3710 C   0  0  0  0  0  3  0  0  0  0  0  0
  190.5780  175.3760  142.9660 N   0  0  0  0  0  1  0  0  0  0  0  0
  189.5770  177.7470  144.9980 C   0  0  0  0  0  0  0  0  0  0  0  0
  186.9130  178.8300  141.7780 C   0  0  1  0  0  3  0  0  0  0  0  0
  185.8400  179.2140  140.8710 N   0  0  0  0  0  2  0  0  0  0  0  0
  184.6080  178.9970  141.6160 C   0  0  2  0  0  3  0  0  0  0  0  0
  186.3600  177.8360  142.7810 C   0  0  0  0  0  2  0  0  0  0  0  0
  184.8650  177.8530  142.5770 C   0  0  0  0  0  2  0  0  0  0  0  0
  183.4520  179.5930  139.4530 C   0  0  0  0  0  1  0  0  0  0  0  0
  183.4510  178.6730  140.6650 C   0  0  2  0  0  3  0  0  0  0  0  0
  182.0890  178.7140  141.3640 C   0  0  0  0  0  2  0  0  0  0  0  0
  181.0410  179.4690  140.5540 C   0  0  0  0  0  2  0  0  0  0  0  0
  179.9290  179.9610  141.4610 C   0  0  0  0  0  2  0  0  0  0  0  0
  180.4590  180.2650  142.7780 N   0  0  0  0  0  1  0  0  0  0  0  0
  1  4  1  6  0  0  0
  1 12  1  0  0  0  0
  3  2  2  0  0  0  0
  3  4  1  0  0  0  0
  5  2  1  6  0  0  0
  5  1  1  0  0  0  0
  5 17  1  0  0  0  0
  6  4  2  0  0  0  0
  7 16  1  0  0  0  0
  8 14  1  0  0  0  0
  9 14  2  0  0  0  0
 10 16  2  0  0  0  0
 10 13  1  0  0  0  0
 11 15  1  6  0  0  0
 11 10  1  0  0  0  0
 12 11  1  0  0  0  0
 12  7  1  1  0  0  0
 13  8  2  0  0  0  0
 16  9  1  0  0  0  0
 17 20  1  1  0  0  0
 18 19  1  0  0  0  0
 18 17  1  0  0  0  0
 19 23  1  6  0  0  0
 19 21  1  0  0  0  0
 21 20  1  0  0  0  0
 23 22  1  6  0  0  0
 23 24  1  0  0  0  0
 25 24  1  0  0  0  0
 25 26  1  0  0  0  0
 26 27  1  0  0  0  0
M  END
>  <MODEL>
3

>  <REMARK>
 VINA RESULT:      -7.2      2.253      6.764
  Name = 
  6 active torsions:
  status: ('A' for Active; 'I' for Inactive)
    1  A    between atoms: C_1  and  C_10
    2  A    between atoms: C_2  and  C_22
    3  A    between atoms: C_3  and  C_26
    4  A    between atoms: C_11  and  C_21
    5  A    between atoms: C_11  and  C_26
    6  A    between atoms: C_14  and  C_21
                            x       y       z     vdW  Elec       q    Type
                         _______ _______ _______ _____ _____    ______ ____

>  <TORSDO>
F 6

$$$$
=
 OpenBabel11062415453D

 27 30  0  0  1  0  0  0  0  0999 V2000
  188.8790  176.9530  139.2540 C   0  0  2  0  0  3  0  0  0  0  0  0
  188.0450  178.6580  140.6430 C   0  0  0  0  0  3  0  0  0  0  0  0
  187.1460  178.6230  139.5450 N   0  0  0  0  0  0  0  0  0  0  0  0
  187.6370  177.5810  138.7190 C   0  0  0  0  0  0  0  0  0  0  0  0
  189.0100  177.7490  140.5220 C   0  0  1  0  0  3  0  0  0  0  0  0
  187.0570  177.2240  137.6600 O   0  0  0  0  0  0  0  0  0  0  0  0
  191.3180  177.0960  138.9580 O   0  0  0  0  0  0  0  0  0  0  0  0
  193.6250  174.8490  136.3630 C   0  0  0  0  0  3  0  0  0  0  0  0
  193.5310  176.1120  138.4490 C   0  0  0  0  0  3  0  0  0  0  0  0
  191.5710  175.8870  137.0580 C   0  0  0  0  0  0  0  0  0  0  0  0
  190.1360  176.2730  137.0560 C   0  0  2  0  0  3  0  0  0  0  0  0
  190.0550  177.2160  138.2990 C   0  0  1  0  0  3  0  0  0  0  0  0
  192.2660  175.1180  136.1230 C   0  0  0  0  0  3  0  0  0  0  0  0
  194.2540  175.3440  137.5220 C   0  0  0  0  0  3  0  0  0  0  0  0
  189.3270  175.0740  137.2290 N   0  0  0  0  0  1  0  0  0  0  0  0
  192.1860  176.3650  138.1810 C   0  0  0  0  0  0  0  0  0  0  0  0
  190.0740  177.5160  141.5500 C   0  0  1  0  0  3  0  0  0  0  0  0
  189.8410  178.3450  142.7250 N   0  0  0  0  0  2  0  0  0  0  0  0
  190.3360  177.5650  143.8500 C   0  0  2  0  0  3  0  0  0  0  0  0
  190.1150  176.0640  141.9880 C   0  0  0  0  0  2  0  0  0  0  0  0
  190.1520  176.1040  143.4950 C   0  0  0  0  0  2  0  0  0  0  0  0
  190.1550  177.2050  146.3420 C   0  0  0  0  0  1  0  0  0  0  0  0
  189.5760  177.9240  145.1320 C   0  0  2  0  0  3  0  0  0  0  0  0
  188.0740  177.6510  145.0190 C   0  0  0  0  0  2  0  0  0  0  0  0
  187.3600  177.7520  146.3620 C   0  0  0  0  0  2  0  0  0  0  0  0
  185.9000  178.1090  146.1570 C   0  0  0  0  0  2  0  0  0  0  0  0
  185.5450  179.2470  146.9870 N   0  0  0  0  0  1  0  0  0  0  0  0
  1  4  1  6  0  0  0
  1  5  1  0  0  0  0
  3  2  2  0  0  0  0
  4  3  1  0  0  0  0
  5  2  1  1  0  0  0
  5 17  1  0  0  0  0
  6  4  2  0  0  0  0
  8 14  1  0  0  0  0
 10 16  2  0  0  0  0
 11 10  1  0  0  0  0
 11 15  1  1  0  0  0
 11 12  1  0  0  0  0
 12  7  1  1  0  0  0
 12  1  1  0  0  0  0
 13  8  2  0  0  0  0
 13 10  1  0  0  0  0
 14  9  2  0  0  0  0
 16  9  1  0  0  0  0
 16  7  1  0  0  0  0
 17 20  1  1  0  0  0
 17 18  1  0  0  0  0
 18 19  1  0  0  0  0
 19 23  1  1  0  0  0
 20 21  1  0  0  0  0
 21 19  1  0  0  0  0
 23 22  1  1  0  0  0
 24 23  1  0  0  0  0
 24 25  1  0  0  0  0
 26 25  1  0  0  0  0
 26 27  1  0  0  0  0
M  END
>  <MODEL>
4

>  <REMARK>
 VINA RESULT:      -7.0      3.138      6.357
  Name = 
  6 active torsions:
  status: ('A' for Active; 'I' for Inactive)
    1  A    between atoms: C_1  and  C_10
    2  A    between atoms: C_2  and  C_22
    3  A    between atoms: C_3  and  C_26
    4  A    between atoms: C_11  and  C_21
    5  A    between atoms: C_11  and  C_26
    6  A    between atoms: C_14  and  C_21
                            x       y       z     vdW  Elec       q    Type
                         _______ _______ _______ _____ _____    ______ ____

>  <TORSDO>
F 6

$$$$
=
 OpenBabel11062415453D

 27 30  0  0  1  0  0  0  0  0999 V2000
  187.4760  177.4960  145.8880 C   0  0  2  0  0  3  0  0  0  0  0  0
  189.8200  177.4890  145.7000 C   0  0  0  0  0  3  0  0  0  0  0  0
  189.5650  178.1150  146.9490 N   0  0  0  0  0  2  0  0  0  0  0  0
  188.1540  178.0990  147.0710 C   0  0  0  0  0  0  0  0  0  0  0  0
  188.6930  177.1290  145.0890 C   0  0  0  0  0  0  0  0  0  0  0  0
  187.5560  178.5360  148.0890 O   0  0  0  0  0  0  0  0  0  0  0  0
  186.3110  178.1740  143.8280 O   0  0  0  0  0  0  0  0  0  0  0  0
  182.2830  179.0250  143.4350 C   0  0  0  0  0  3  0  0  0  0  0  0
  184.3290  178.2530  142.3500 C   0  0  0  0  0  3  0  0  0  0  0  0
  184.3300  178.8630  144.6850 C   0  0  0  0  0  0  0  0  0  0  0  0
  185.2610  178.8990  145.8440 C   0  0  2  0  0  3  0  0  0  0  0  0
  186.6280  178.5580  145.1680 C   0  0  1  0  0  3  0  0  0  0  0  0
  182.9710  179.1750  144.6520 C   0  0  0  0  0  3  0  0  0  0  0  0
  182.9600  178.5640  142.2890 C   0  0  0  0  0  3  0  0  0  0  0  0
  184.8580  177.8780  146.8020 N   0  0  0  0  0  1  0  0  0  0  0  0
  184.9820  178.4170  143.5710 C   0  0  0  0  0  0  0  0  0  0  0  0
  188.6480  176.4010  143.7810 C   0  0  1  0  0  3  0  0  0  0  0  0
  188.4250  177.3330  142.6840 N   0  0  0  0  0  2  0  0  0  0  0  0
  189.1390  176.7680  141.5470 C   0  0  2  0  0  3  0  0  0  0  0  0
  189.9400  175.6520  143.5170 C   0  0  0  0  0  2  0  0  0  0  0  0
  190.3230  176.0030  142.1010 C   0  0  0  0  0  2  0  0  0  0  0  0
  188.4860  178.2610  139.6190 C   0  0  0  0  0  1  0  0  0  0  0  0
  189.5930  177.8760  140.5900 C   0  0  2  0  0  3  0  0  0  0  0  0
  190.8660  177.5030  139.8260 C   0  0  0  0  0  2  0  0  0  0  0  0
  190.5750  177.0120  138.4110 C   0  0  0  0  0  2  0  0  0  0  0  0
  191.5470  175.9140  138.0250 C   0  0  0  0  0  2  0  0  0  0  0  0
  190.8570  174.6370  137.9680 N   0  0  0  0  0  1  0  0  0  0  0  0
  1  5  1  6  0  0  0
  1  4  1  0  0  0  0
  2  3  1  0  0  0  0
  3  4  1  0  0  0  0
  4  6  2  0  0  0  0
  5  2  2  0  0  0  0
  8 13  1  0  0  0  0
  9 16  2  0  0  0  0
 10 11  1  0  0  0  0
 11 15  1  1  0  0  0
 12  7  1  6  0  0  0
 12 11  1  0  0  0  0
 12  1  1  0  0  0  0
 13 10  2  0  0  0  0
 14  9  1  0  0  0  0
 14  8  2  0  0  0  0
 16  7  1  0  0  0  0
 16 10  1  0  0  0  0
 17  5  1  1  0  0  0
 18 17  1  0  0  0  0
 19 23  1  6  0  0  0
 19 21  1  0  0  0  0
 19 18  1  0  0  0  0
 20 17  1  0  0  0  0
 21 20  1  0  0  0  0
 23 22  1  6  0  0  0
 24 23  1  0  0  0  0
 25 24  1  0  0  0  0
 26 25  1  0  0  0  0
 27 26  1  0  0  0  0
M  END
>  <MODEL>
5

>  <REMARK>
 VINA RESULT:      -7.0      2.169      5.591
  Name = 
  6 active torsions:
  status: ('A' for Active; 'I' for Inactive)
    1  A    between atoms: C_1  and  C_10
    2  A    between atoms: C_2  and  C_22
    3  A    between atoms: C_3  and  C_26
    4  A    between atoms: C_11  and  C_21
    5  A    between atoms: C_11  and  C_26
    6  A    between atoms: C_14  and  C_21
                            x       y       z     vdW  Elec       q    Type
                         _______ _______ _______ _____ _____    ______ ____

>  <TORSDO>
F 6

$$$$
=
 OpenBabel11062415453D

 27 30  0  0  1  0  0  0  0  0999 V2000
  185.9410  178.6810  141.8960 C   0  0  2  0  0  3  0  0  0  0  0  0
  187.6840  177.3520  142.7500 C   0  0  0  0  0  3  0  0  0  0  0  0
  188.0620  177.6150  141.4060 N   0  0  0  0  0  0  0  0  0  0  0  0
  187.0220  178.4340  140.9000 C   0  0  0  0  0  0  0  0  0  0  0  0
  186.5240  177.9280  143.0580 C   0  0  1  0  0  3  0  0  0  0  0  0
  187.0400  178.9090  139.7340 O   0  0  0  0  0  0  0  0  0  0  0  0
  183.5790  178.1860  142.3790 O   0  0  0  0  0  0  0  0  0  0  0  0
  180.3010  179.4060  140.1730 C   0  0  0  0  0  3  0  0  0  0  0  0
  181.1690  178.7430  142.3560 C   0  0  0  0  0  3  0  0  0  0  0  0
  182.6200  178.8270  140.4290 C   0  0  0  0  0  0  0  0  0  0  0  0
  184.0500  178.6220  140.0810 C   0  0  2  0  0  3  0  0  0  0  0  0
  184.6260  178.0470  141.4150 C   0  0  1  0  0  3  0  0  0  0  0  0
  181.5750  179.2430  139.6020 C   0  0  0  0  0  3  0  0  0  0  0  0
  180.0990  179.1580  141.5450 C   0  0  0  0  0  3  0  0  0  0  0  0
  184.6410  179.9100  139.7440 N   0  0  0  0  0  1  0  0  0  0  0  0
  182.4190  178.5870  141.7590 C   0  0  0  0  0  0  0  0  0  0  0  0
  185.8970  177.8690  144.4170 C   0  0  1  0  0  3  0  0  0  0  0  0
  186.7210  177.0880  145.3290 N   0  0  0  0  0  2  0  0  0  0  0  0
  186.5280  177.6930  146.6390 C   0  0  2  0  0  3  0  0  0  0  0  0
  185.7150  179.2560  145.0050 C   0  0  0  0  0  2  0  0  0  0  0  0
  186.2520  179.1660  146.4110 C   0  0  0  0  0  2  0  0  0  0  0  0
  187.8350  178.5240  148.6310 C   0  0  0  0  0  1  0  0  0  0  0  0
  187.7680  177.4910  147.5160 C   0  0  2  0  0  3  0  0  0  0  0  0
  189.0670  177.4990  146.7050 C   0  0  0  0  0  2  0  0  0  0  0  0
  190.1810  176.7080  147.3810 C   0  0  0  0  0  2  0  0  0  0  0  0
  191.3990  176.6360  146.4790 C   0  0  0  0  0  2  0  0  0  0  0  0
  192.3280  175.6380  146.9780 N   0  0  0  0  0  1  0  0  0  0  0  0
  1  4  1  6  0  0  0
  1  5  1  0  0  0  0
  3  2  2  0  0  0  0
  4  3  1  0  0  0  0
  5  2  1  1  0  0  0
  5 17  1  0  0  0  0
  6  4  2  0  0  0  0
  8 14  1  0  0  0  0
 10 16  2  0  0  0  0
 11 15  1  1  0  0  0
 11 10  1  0  0  0  0
 11 12  1  0  0  0  0
 12  1  1  0  0  0  0
 12  7  1  1  0  0  0
 13  8  2  0  0  0  0
 13 10  1  0  0  0  0
 14  9  2  0  0  0  0
 16  9  1  0  0  0  0
 16  7  1  0  0  0  0
 17 20  1  1  0  0  0
 17 18  1  0  0  0  0
 18 19  1  0  0  0  0
 19 23  1  1  0  0  0
 20 21  1  0  0  0  0
 21 19  1  0  0  0  0
 23 22  1  1  0  0  0
 24 25  1  0  0  0  0
 24 23  1  0  0  0  0
 26 27  1  0  0  0  0
 26 25  1  0  0  0  0
M  END
>  <MODEL>
6

>  <REMARK>
 VINA RESULT:      -6.8      2.433      3.995
  Name = 
  6 active torsions:
  status: ('A' for Active; 'I' for Inactive)
    1  A    between atoms: C_1  and  C_10
    2  A    between atoms: C_2  and  C_22
    3  A    between atoms: C_3  and  C_26
    4  A    between atoms: C_11  and  C_21
    5  A    between atoms: C_11  and  C_26
    6  A    between atoms: C_14  and  C_21
                            x       y       z     vdW  Elec       q    Type
                         _______ _______ _______ _____ _____    ______ ____

>  <TORSDO>
F 6

$$$$
=
 OpenBabel11062415453D

 27 30  0  0  1  0  0  0  0  0999 V2000
  184.5590  178.1840  142.3580 C   0  0  2  0  0  3  0  0  0  0  0  0
  185.6330  179.1020  144.2380 C   0  0  0  0  0  3  0  0  0  0  0  0
  184.2940  179.5660  144.3320 N   0  0  0  0  0  2  0  0  0  0  0  0
  183.6430  178.9940  143.2110 C   0  0  0  0  0  0  0  0  0  0  0  0
  185.8160  178.3330  143.1660 C   0  0  0  0  0  0  0  0  0  0  0  0
  182.4130  179.1510  142.9890 O   0  0  0  0  0  0  0  0  0  0  0  0
  185.9980  178.6280  140.4120 O   0  0  0  0  0  0  0  0  0  0  0  0
  185.2700  177.5120  136.4970 C   0  0  0  0  0  3  0  0  0  0  0  0
  186.9370  178.0510  138.1960 C   0  0  0  0  0  3  0  0  0  0  0  0
  184.5820  178.0960  138.7250 C   0  0  0  0  0  0  0  0  0  0  0  0
  183.6890  178.3350  139.8890 C   0  0  2  0  0  3  0  0  0  0  0  0
  184.6990  178.8340  140.9710 C   0  0  1  0  0  3  0  0  0  0  0  0
  184.2360  177.7210  137.4260 C   0  0  0  0  0  3  0  0  0  0  0  0
  186.6150  177.6760  136.8820 C   0  0  0  0  0  3  0  0  0  0  0  0
  183.0640  177.0740  140.2680 N   0  0  0  0  0  1  0  0  0  0  0  0
  185.8890  178.2540  139.0930 C   0  0  0  0  0  0  0  0  0  0  0  0
  187.1110  177.6590  142.8320 C   0  0  1  0  0  3  0  0  0  0  0  0
  188.2380  178.5160  143.1730 N   0  0  0  0  0  2  0  0  0  0  0  0
  189.3080  177.6090  143.5650 C   0  0  2  0  0  3  0  0  0  0  0  0
  187.2630  176.3480  143.5790 C   0  0  0  0  0  2  0  0  0  0  0  0
  188.6520  176.3820  144.1660 C   0  0  0  0  0  2  0  0  0  0  0  0
  191.6280  178.5150  143.9730 C   0  0  0  0  0  1  0  0  0  0  0  0
  190.2470  178.2840  144.5700 C   0  0  2  0  0  3  0  0  0  0  0  0
  190.3590  177.5040  145.8830 C   0  0  0  0  0  2  0  0  0  0  0  0
  191.6800  176.7530  146.0040 C   0  0  0  0  0  2  0  0  0  0  0  0
  191.6670  175.8580  147.2290 C   0  0  0  0  0  2  0  0  0  0  0  0
  192.7900  176.1820  148.0930 N   0  0  0  0  0  1  0  0  0  0  0  0
  1  5  1  1  0  0  0
  1  4  1  0  0  0  0
  2  3  1  0  0  0  0
  4  3  1  0  0  0  0
  5  2  2  0  0  0  0
  6  4  2  0  0  0  0
  8 14  2  0  0  0  0
  8 13  1  0  0  0  0
  9 16  2  0  0  0  0
 10 16  1  0  0  0  0
 10 11  1  0  0  0  0
 11 15  1  1  0  0  0
 11 12  1  0  0  0  0
 12  7  1  6  0  0  0
 12  1  1  0  0  0  0
 13 10  2  0  0  0  0
 14  9  1  0  0  0  0
 16  7  1  0  0  0  0
 17  5  1  1  0  0  0
 17 18  1  0  0  0  0
 17 20  1  0  0  0  0
 18 19  1  0  0  0  0
 19 21  1  0  0  0  0
 19 23  1  1  0  0  0
 20 21  1  0  0  0  0
 23 22  1  6  0  0  0
 23 24  1  0  0  0  0
 24 25  1  0  0  0  0
 25 26  1  0  0  0  0
 26 27  1  0  0  0  0
M  END
>  <MODEL>
7

>  <REMARK>
 VINA RESULT:      -6.8      2.661      4.927
  Name = 
  6 active torsions:
  status: ('A' for Active; 'I' for Inactive)
    1  A    between atoms: C_1  and  C_10
    2  A    between atoms: C_2  and  C_22
    3  A    between atoms: C_3  and  C_26
    4  A    between atoms: C_11  and  C_21
    5  A    between atoms: C_11  and  C_26
    6  A    between atoms: C_14  and  C_21
                            x       y       z     vdW  Elec       q    Type
                         _______ _______ _______ _____ _____    ______ ____

>  <TORSDO>
F 6

$$$$
=
 OpenBabel11062415453D

 27 30  0  0  1  0  0  0  0  0999 V2000
  188.9160  177.8820  144.5030 C   0  0  2  0  0  3  0  0  0  0  0  0
  187.0490  177.0100  145.6350 C   0  0  0  0  0  3  0  0  0  0  0  0
  188.0610  177.0910  146.6280 N   0  0  0  0  0  2  0  0  0  0  0  0
  189.1790  177.6360  145.9500 C   0  0  0  0  0  0  0  0  0  0  0  0
  187.4800  177.4430  144.4530 C   0  0  0  0  0  0  0  0  0  0  0  0
  190.2640  177.8980  146.5310 O   0  0  0  0  0  0  0  0  0  0  0  0
  189.2250  176.6880  142.3730 O   0  0  0  0  0  0  0  0  0  0  0  0
  192.3020  177.2270  139.6640 C   0  0  0  0  0  3  0  0  0  0  0  0
  189.9860  176.5490  140.0230 C   0  0  0  0  0  3  0  0  0  0  0  0
  191.3510  177.2900  141.8700 C   0  0  0  0  0  0  0  0  0  0  0  0
  191.2360  177.5400  143.3310 C   0  0  2  0  0  3  0  0  0  0  0  0
  189.8130  176.9760  143.6430 C   0  0  1  0  0  3  0  0  0  0  0  0
  192.4470  177.5040  141.0340 C   0  0  0  0  0  3  0  0  0  0  0  0
  191.0750  176.7520  139.1600 C   0  0  0  0  0  3  0  0  0  0  0  0
  191.3180  178.9750  143.5690 N   0  0  0  0  0  1  0  0  0  0  0  0
  190.1630  176.8290  141.3770 C   0  0  0  0  0  0  0  0  0  0  0  0
  186.6220  177.5250  143.2290 C   0  0  1  0  0  3  0  0  0  0  0  0
  185.2130  177.5830  143.5930 N   0  0  0  0  0  2  0  0  0  0  0  0
  184.5820  178.4000  142.5670 C   0  0  2  0  0  3  0  0  0  0  0  0
  186.9530  178.7520  142.3990 C   0  0  0  0  0  2  0  0  0  0  0  0
  185.6240  179.3900  142.0840 C   0  0  0  0  0  2  0  0  0  0  0  0
  183.2870  179.0080  144.6460 C   0  0  0  0  0  1  0  0  0  0  0  0
  183.3520  179.1210  143.1300 C   0  0  2  0  0  3  0  0  0  0  0  0
  182.0460  178.6270  142.5020 C   0  0  0  0  0  2  0  0  0  0  0  0
  180.8830  178.6410  143.4890 C   0  0  0  0  0  2  0  0  0  0  0  0
  179.6790  179.3310  142.8740 C   0  0  0  0  0  2  0  0  0  0  0  0
  179.9590  180.7430  142.6840 N   0  0  0  0  0  1  0  0  0  0  0  0
  1  5  1  1  0  0  0
  1  4  1  0  0  0  0
  2  3  1  0  0  0  0
  4  6  2  0  0  0  0
  4  3  1  0  0  0  0
  5  2  2  0  0  0  0
  8 13  1  0  0  0  0
  9 16  2  0  0  0  0
 10 11  1  0  0  0  0
 11 15  1  6  0  0  0
 11 12  1  0  0  0  0
 12  7  1  6  0  0  0
 12  1  1  0  0  0  0
 13 10  2  0  0  0  0
 14  8  2  0  0  0  0
 14  9  1  0  0  0  0
 16 10  1  0  0  0  0
 16  7  1  0  0  0  0
 17 18  1  0  0  0  0
 17  5  1  1  0  0  0
 19 23  1  1  0  0  0
 19 18  1  0  0  0  0
 20 17  1  0  0  0  0
 21 20  1  0  0  0  0
 21 19  1  0  0  0  0
 23 22  1  1  0  0  0
 24 23  1  0  0  0  0
 24 25  1  0  0  0  0
 26 25  1  0  0  0  0
 27 26  1  0  0  0  0
M  END
>  <MODEL>
8

>  <REMARK>
 VINA RESULT:      -6.7      2.387      7.334
  Name = 
  6 active torsions:
  status: ('A' for Active; 'I' for Inactive)
    1  A    between atoms: C_1  and  C_10
    2  A    between atoms: C_2  and  C_22
    3  A    between atoms: C_3  and  C_26
    4  A    between atoms: C_11  and  C_21
    5  A    between atoms: C_11  and  C_26
    6  A    between atoms: C_14  and  C_21
                            x       y       z     vdW  Elec       q    Type
                         _______ _______ _______ _____ _____    ______ ____

>  <TORSDO>
F 6

$$$$
=
 OpenBabel11062415453D

 27 30  0  0  1  0  0  0  0  0999 V2000
  191.7350  176.4450  137.8260 C   0  0  2  0  0  3  0  0  0  0  0  0
  192.3300  177.1450  139.9910 C   0  0  0  0  0  3  0  0  0  0  0  0
  193.5550  177.1280  139.2740 N   0  0  0  0  0  2  0  0  0  0  0  0
  193.1930  176.7270  137.9640 C   0  0  0  0  0  0  0  0  0  0  0  0
  191.3040  176.7800  139.2250 C   0  0  0  0  0  0  0  0  0  0  0  0
  194.0270  176.6440  137.0250 O   0  0  0  0  0  0  0  0  0  0  0  0
  190.2430  174.4930  137.9680 O   0  0  0  0  0  0  0  0  0  0  0  0
  188.7390  172.2990  134.8020 C   0  0  0  0  0  3  0  0  0  0  0  0
  188.4320  173.0450  137.1050 C   0  0  0  0  0  3  0  0  0  0  0  0
  190.3740  173.7210  135.8420 C   0  0  0  0  0  0  0  0  0  0  0  0
  191.5820  174.5730  135.9960 C   0  0  2  0  0  3  0  0  0  0  0  0
  191.5140  174.9560  137.5090 C   0  0  1  0  0  3  0  0  0  0  0  0
  189.9490  173.0090  134.7190 C   0  0  0  0  0  3  0  0  0  0  0  0
  187.9830  172.3180  135.9900 C   0  0  0  0  0  3  0  0  0  0  0  0
  191.4470  175.7390  135.1330 N   0  0  0  0  0  1  0  0  0  0  0  0
  189.6370  173.7360  136.9930 C   0  0  0  0  0  0  0  0  0  0  0  0
  189.8810  176.7530  139.6910 C   0  0  1  0  0  3  0  0  0  0  0  0
  189.8180  176.5790  141.1360 N   0  0  0  0  0  2  0  0  0  0  0  0
  188.6320  177.3090  141.5610 C   0  0  2  0  0  3  0  0  0  0  0  0
  189.1530  178.0340  139.3300 C   0  0  0  0  0  2  0  0  0  0  0  0
  188.4490  178.4620  140.5930 C   0  0  0  0  0  2  0  0  0  0  0  0
  190.2420  178.1670  143.3040 C   0  0  0  0  0  1  0  0  0  0  0  0
  188.7940  177.8140  142.9990 C   0  0  2  0  0  3  0  0  0  0  0  0
  188.2590  176.8190  144.0330 C   0  0  0  0  0  2  0  0  0  0  0  0
  187.0810  177.3780  144.8240 C   0  0  0  0  0  2  0  0  0  0  0  0
  187.5470  177.8780  146.1790 C   0  0  0  0  0  2  0  0  0  0  0  0
  188.7150  177.1300  146.6090 N   0  0  0  0  0  1  0  0  0  0  0  0
  1  4  1  1  0  0  0
  1  5  1  0  0  0  0
  3  2  1  0  0  0  0
  4  3  1  0  0  0  0
  5  2  2  0  0  0  0
  6  4  2  0  0  0  0
  8 14  1  0  0  0  0
 10 11  1  0  0  0  0
 10 16  2  0  0  0  0
 11 15  1  6  0  0  0
 11 12  1  0  0  0  0
 12  1  1  0  0  0  0
 12  7  1  6  0  0  0
 13  8  2  0  0  0  0
 13 10  1  0  0  0  0
 14  9  2  0  0  0  0
 16  9  1  0  0  0  0
 16  7  1  0  0  0  0
 17  5  1  1  0  0  0
 17 18  1  0  0  0  0
 18 19  1  0  0  0  0
 19 23  1  1  0  0  0
 20 17  1  0  0  0  0
 20 21  1  0  0  0  0
 21 19  1  0  0  0  0
 23 22  1  1  0  0  0
 23 24  1  0  0  0  0
 24 25  1  0  0  0  0
 25 26  1  0  0  0  0
 26 27  1  0  0  0  0
M  END
>  <MODEL>
9

>  <REMARK>
 VINA RESULT:      -6.7      4.295      7.101
  Name = 
  6 active torsions:
  status: ('A' for Active; 'I' for Inactive)
    1  A    between atoms: C_1  and  C_10
    2  A    between atoms: C_2  and  C_22
    3  A    between atoms: C_3  and  C_26
    4  A    between atoms: C_11  and  C_21
    5  A    between atoms: C_11  and  C_26
    6  A    between atoms: C_14  and  C_21
                            x       y       z     vdW  Elec       q    Type
                         _______ _______ _______ _____ _____    ______ ____

>  <TORSDO>
F 6

$$$$
