=
 OpenBabel11062414523D

 33 35  0  0  1  0  0  0  0  0999 V2000
  184.3690  178.6040  146.6670 O   0  0  0  0  0  0  0  0  0  0  0  0
  186.8680  177.6020  144.2910 C   0  0  0  0  0  0  0  0  0  0  0  0
  184.9320  178.5580  143.0800 C   0  0  0  0  0  0  0  0  0  0  0  0
  186.1020  177.9150  143.0640 C   0  0  0  0  0  3  0  0  0  0  0  0
  186.3330  177.8770  145.5070 C   0  0  0  0  0  0  0  0  0  0  0  0
  184.3570  179.1100  144.3510 C   0  0  0  0  0  2  0  0  0  0  0  0
  184.9890  178.5180  145.5750 C   0  0  0  0  0  0  0  0  0  0  0  0
  188.2790  175.8890  143.4440 O   0  0  0  0  0  0  0  0  0  0  0  0
  189.3970  177.5530  144.6180 N   0  0  0  0  0  2  0  0  0  0  0  0
  188.2000  176.9660  144.0970 C   0  0  0  0  0  0  0  0  0  0  0  0
  190.7150  176.9540  144.4510 C   0  0  2  0  0  3  0  0  0  0  0  0
  192.4520  175.6110  147.2490 C   0  0  0  0  0  3  0  0  0  0  0  0
  191.2980  176.5940  145.7820 C   0  0  0  0  0  0  0  0  0  0  0  0
  191.7730  176.5650  147.9210 N   0  0  0  0  0  0  0  0  0  0  0  0
  191.0330  177.1990  146.9910 C   0  0  0  0  0  3  0  0  0  0  0  0
  192.1650  175.6330  145.9670 O   0  0  0  0  0  0  0  0  0  0  0  0
  191.6390  177.9180  143.7250 C   0  0  0  0  0  2  0  0  0  0  0  0
  191.0350  179.3090  143.6990 C   0  0  0  0  0  1  0  0  0  0  0  0
  187.3910  178.3880  147.5790 N   0  0  0  0  0  2  0  0  0  0  0  0
  187.0440  177.5300  146.7070 N   0  0  0  0  0  0  0  0  0  0  0  0
  184.2380  178.8540  141.7950 C   0  0  0  0  0  2  0  0  0  0  0  0
  185.2480  179.0200  140.6720 C   0  0  0  0  0  2  0  0  0  0  0  0
  184.7310  178.3780  139.3950 C   0  0  0  0  0  2  0  0  0  0  0  0
  185.7370  178.5300  138.2640 C   0  0  1  0  0  3  0  0  0  0  0  0
  187.0880  177.2330  136.8690 C   0  0  0  0  0  2  0  0  0  0  0  0
  187.0390  178.6580  138.7830 O   0  0  0  0  0  0  0  0  0  0  0  0
  188.8300  178.9560  137.2420 C   0  0  0  0  0  1  0  0  0  0  0  0
  185.6870  177.3200  137.3740 C   0  0  0  0  0  2  0  0  0  0  0  0
  187.9070  177.9580  137.9210 C   0  0  2  0  0  0  0  0  0  0  0  0
  188.7150  176.9590  138.7600 C   0  0  0  0  0  2  0  0  0  0  0  0
  190.1080  177.4530  139.1440 C   0  0  0  0  0  2  0  0  0  0  0  0
  190.2310  177.5180  140.5320 O   0  0  0  0  0  0  0  0  0  0  0  0
  190.4440  176.2740  140.9020 O   0  0  0  0  0  1  0  0  0  0  0  0
  2  5  2  0  0  0  0
  3  6  1  0  0  0  0
  4  3  2  0  0  0  0
  4  2  1  0  0  0  0
  5  7  1  0  0  0  0
  5 20  1  0  0  0  0
  6  7  1  0  0  0  0
  7  1  2  0  0  0  0
  8 10  2  0  0  0  0
 10  2  1  0  0  0  0
 10  9  1  0  0  0  0
 11 17  1  1  0  0  0
 11  9  1  0  0  0  0
 11 13  1  0  0  0  0
 12 14  2  0  0  0  0
 13 16  1  0  0  0  0
 13 15  2  0  0  0  0
 15 14  1  0  0  0  0
 16 12  1  0  0  0  0
 18 17  1  0  0  0  0
 20 19  2  0  0  0  0
 21  3  1  0  0  0  0
 22 21  1  0  0  0  0
 23 22  1  0  0  0  0
 24 26  1  0  0  0  0
 24 23  1  1  0  0  0
 25 28  1  0  0  0  0
 25 29  1  0  0  0  0
 28 24  1  0  0  0  0
 29 27  1  6  0  0  0
 29 30  1  0  0  0  0
 29 26  1  0  0  0  0
 30 31  1  0  0  0  0
 31 32  1  0  0  0  0
 32 33  1  0  0  0  0
M  END
>  <MODEL>
1

>  <REMARK>
 VINA RESULT:      -8.4      0.000      0.000
  Name = 
  12 active torsions:
  status: ('A' for Active; 'I' for Inactive)
    1  A    between atoms: C_1  and  C_9
    2  A    between atoms: C_1  and  C_10
    3  A    between atoms: C_5  and  C_14
    4  A    between atoms: N_6  and  C_14
    5  A    between atoms: C_7  and  C_10
    6  A    between atoms: C_7  and  C_13
    7  A    between atoms: C_8  and  C_16
    8  A    between atoms: C_8  and  C_26
    9  A    between atoms: N_11  and  C_17
   10  A    between atoms: C_12  and  C_19
   11  A    between atoms: C_14  and  C_28
   12  A    between atoms: C_16  and  O_27
                            x       y       z     vdW  Elec       q    Type
                         _______ _______ _______ _____ _____    ______ ____

>  <TORSDO>
F 12

$$$$
=
 OpenBabel11062414523D

 33 35  0  0  1  0  0  0  0  0999 V2000
  180.9610  178.8850  143.0750 O   0  0  0  0  0  0  0  0  0  0  0  0
  184.1150  179.0430  141.3670 C   0  0  0  0  0  0  0  0  0  0  0  0
  184.5160  178.9740  143.8090 C   0  0  0  0  0  0  0  0  0  0  0  0
  184.9790  179.1310  142.5660 C   0  0  0  0  0  3  0  0  0  0  0  0
  182.7740  178.9030  141.5120 C   0  0  0  0  0  0  0  0  0  0  0  0
  183.0900  178.5890  144.0730 C   0  0  0  0  0  2  0  0  0  0  0  0
  182.2020  178.8110  142.8860 C   0  0  0  0  0  0  0  0  0  0  0  0
  184.5660  180.1390  139.3080 O   0  0  0  0  0  0  0  0  0  0  0  0
  185.7310  178.1500  139.6070 N   0  0  0  0  0  2  0  0  0  0  0  0
  184.8000  179.1450  140.0490 C   0  0  0  0  0  0  0  0  0  0  0  0
  186.4140  178.2160  138.3200 C   0  0  2  0  0  3  0  0  0  0  0  0
  184.4300  175.8860  136.5080 C   0  0  0  0  0  3  0  0  0  0  0  0
  185.7800  177.2750  137.3440 C   0  0  0  0  0  0  0  0  0  0  0  0
  185.3530  176.0970  135.5460 N   0  0  0  0  0  0  0  0  0  0  0  0
  186.2200  176.9850  136.0710 C   0  0  0  0  0  3  0  0  0  0  0  0
  184.6890  176.5950  137.5830 O   0  0  0  0  0  0  0  0  0  0  0  0
  187.8840  177.8700  138.4920 C   0  0  0  0  0  2  0  0  0  0  0  0
  188.3450  178.2110  139.8960 C   0  0  0  0  0  1  0  0  0  0  0  0
  181.4290  177.7940  139.8890 N   0  0  0  0  0  2  0  0  0  0  0  0
  181.9200  178.8690  140.3560 N   0  0  0  0  0  0  0  0  0  0  0  0
  185.4590  179.0550  144.9590 C   0  0  0  0  0  2  0  0  0  0  0  0
  185.8970  177.6630  145.3850 C   0  0  0  0  0  2  0  0  0  0  0  0
  187.3040  177.7040  145.9600 C   0  0  0  0  0  2  0  0  0  0  0  0
  188.3290  177.9830  144.8700 C   0  0  1  0  0  3  0  0  0  0  0  0
  189.8130  176.8560  143.4630 C   0  0  0  0  0  2  0  0  0  0  0  0
  189.6020  178.1820  145.4370 O   0  0  0  0  0  0  0  0  0  0  0  0
  191.4090  178.6850  143.9700 C   0  0  0  0  0  1  0  0  0  0  0  0
  188.3960  176.8160  143.9260 C   0  0  0  0  0  2  0  0  0  0  0  0
  190.5440  177.5900  144.5730 C   0  0  2  0  0  0  0  0  0  0  0  0
  191.4010  176.6150  145.3920 C   0  0  0  0  0  2  0  0  0  0  0  0
  191.2330  176.7570  146.9030 C   0  0  0  0  0  2  0  0  0  0  0  0
  191.7240  175.6240  147.5510 O   0  0  0  0  0  0  0  0  0  0  0  0
  192.7980  176.0450  148.1820 O   0  0  0  0  0  1  0  0  0  0  0  0
  2  5  2  0  0  0  0
  2  4  1  0  0  0  0
  3  6  1  0  0  0  0
  3 21  1  0  0  0  0
  4  3  2  0  0  0  0
  5  7  1  0  0  0  0
  7  1  2  0  0  0  0
  7  6  1  0  0  0  0
  8 10  2  0  0  0  0
  9 10  1  0  0  0  0
 10  2  1  0  0  0  0
 11 17  1  1  0  0  0
 11  9  1  0  0  0  0
 12 16  1  0  0  0  0
 13 16  1  0  0  0  0
 13 11  1  0  0  0  0
 14 15  1  0  0  0  0
 14 12  2  0  0  0  0
 15 13  2  0  0  0  0
 17 18  1  0  0  0  0
 19 20  2  0  0  0  0
 20  5  1  0  0  0  0
 21 22  1  0  0  0  0
 22 23  1  0  0  0  0
 24 26  1  0  0  0  0
 24 23  1  1  0  0  0
 25 28  1  0  0  0  0
 25 29  1  0  0  0  0
 28 24  1  0  0  0  0
 29 27  1  6  0  0  0
 29 30  1  0  0  0  0
 29 26  1  0  0  0  0
 30 31  1  0  0  0  0
 31 32  1  0  0  0  0
 32 33  1  0  0  0  0
M  END
>  <MODEL>
2

>  <REMARK>
 VINA RESULT:      -7.6      3.432      7.518
  Name = 
  12 active torsions:
  status: ('A' for Active; 'I' for Inactive)
    1  A    between atoms: C_1  and  C_9
    2  A    between atoms: C_1  and  C_10
    3  A    between atoms: C_5  and  C_14
    4  A    between atoms: N_6  and  C_14
    5  A    between atoms: C_7  and  C_10
    6  A    between atoms: C_7  and  C_13
    7  A    between atoms: C_8  and  C_16
    8  A    between atoms: C_8  and  C_26
    9  A    between atoms: N_11  and  C_17
   10  A    between atoms: C_12  and  C_19
   11  A    between atoms: C_14  and  C_28
   12  A    between atoms: C_16  and  O_27
                            x       y       z     vdW  Elec       q    Type
                         _______ _______ _______ _____ _____    ______ ____

>  <TORSDO>
F 12

$$$$
=
 OpenBabel11062414523D

 33 35  0  0  1  0  0  0  0  0999 V2000
  189.6030  177.3910  147.7830 O   0  0  0  0  0  0  0  0  0  0  0  0
  188.3700  177.1390  144.4200 C   0  0  0  0  0  0  0  0  0  0  0  0
  186.5620  177.9800  145.8870 C   0  0  0  0  0  0  0  0  0  0  0  0
  186.9680  177.5220  144.7000 C   0  0  0  0  0  3  0  0  0  0  0  0
  189.2820  177.1420  145.4240 C   0  0  0  0  0  0  0  0  0  0  0  0
  187.5320  178.2400  147.0020 C   0  0  0  0  0  2  0  0  0  0  0  0
  188.8530  177.5640  146.7880 C   0  0  0  0  0  0  0  0  0  0  0  0
  188.8280  175.5170  142.7460 O   0  0  0  0  0  0  0  0  0  0  0  0
  188.8000  177.7070  141.9710 N   0  0  0  0  0  2  0  0  0  0  0  0
  188.6800  176.7390  143.0200 C   0  0  0  0  0  0  0  0  0  0  0  0
  189.1090  177.3510  140.5920 C   0  0  2  0  0  3  0  0  0  0  0  0
  192.4590  177.0200  139.4480 C   0  0  0  0  0  3  0  0  0  0  0  0
  190.5900  177.2890  140.3870 C   0  0  0  0  0  0  0  0  0  0  0  0
  192.7550  177.3890  140.7120 N   0  0  0  0  0  0  0  0  0  0  0  0
  191.5650  177.5650  141.3200 C   0  0  0  0  0  3  0  0  0  0  0  0
  191.1610  176.9620  139.2580 O   0  0  0  0  0  0  0  0  0  0  0  0
  188.4960  178.3670  139.6410 C   0  0  0  0  0  2  0  0  0  0  0  0
  187.6560  177.6670  138.5900 C   0  0  0  0  0  1  0  0  0  0  0  0
  191.6000  177.5380  145.0410 N   0  0  0  0  0  2  0  0  0  0  0  0
  190.6350  176.7220  145.1760 N   0  0  0  0  0  0  0  0  0  0  0  0
  185.1360  178.3660  146.0770 C   0  0  0  0  0  2  0  0  0  0  0  0
  184.7390  179.4410  145.0790 C   0  0  0  0  0  2  0  0  0  0  0  0
  183.5140  179.0070  144.2910 C   0  0  0  0  0  2  0  0  0  0  0  0
  183.9150  178.3550  142.9760 C   0  0  1  0  0  3  0  0  0  0  0  0
  184.6320  178.9270  140.8280 C   0  0  0  0  0  2  0  0  0  0  0  0
  182.7880  178.1860  142.1510 O   0  0  0  0  0  0  0  0  0  0  0  0
  183.1030  177.1450  140.0320 C   0  0  0  0  0  1  0  0  0  0  0  0
  184.9120  179.2250  142.2630 C   0  0  0  0  0  2  0  0  0  0  0  0
  183.1950  178.4380  140.8250 C   0  0  2  0  0  0  0  0  0  0  0  0
  182.2630  179.5030  140.2310 C   0  0  0  0  0  2  0  0  0  0  0  0
  180.8130  179.3900  140.6960 C   0  0  0  0  0  2  0  0  0  0  0  0
  180.3570  180.6240  141.1600 O   0  0  0  0  0  0  0  0  0  0  0  0
  179.2310  180.8240  140.5110 O   0  0  0  0  0  1  0  0  0  0  0  0
  2  4  1  0  0  0  0
  2  5  2  0  0  0  0
  3 21  1  0  0  0  0
  3  6  1  0  0  0  0
  4  3  2  0  0  0  0
  5  7  1  0  0  0  0
  7  6  1  0  0  0  0
  7  1  2  0  0  0  0
  8 10  2  0  0  0  0
  9 10  1  0  0  0  0
 10  2  1  0  0  0  0
 11 17  1  6  0  0  0
 11  9  1  0  0  0  0
 12 14  2  0  0  0  0
 13 11  1  0  0  0  0
 13 15  2  0  0  0  0
 14 15  1  0  0  0  0
 16 12  1  0  0  0  0
 16 13  1  0  0  0  0
 18 17  1  0  0  0  0
 19 20  2  0  0  0  0
 20  5  1  0  0  0  0
 22 21  1  0  0  0  0
 23 22  1  0  0  0  0
 24 23  1  1  0  0  0
 25 28  1  0  0  0  0
 26 24  1  0  0  0  0
 28 24  1  0  0  0  0
 29 27  1  6  0  0  0
 29 25  1  0  0  0  0
 29 26  1  0  0  0  0
 30 31  1  0  0  0  0
 30 29  1  0  0  0  0
 31 32  1  0  0  0  0
 33 32  1  0  0  0  0
M  END
>  <MODEL>
3

>  <REMARK>
 VINA RESULT:      -7.5      2.834      5.769
  Name = 
  12 active torsions:
  status: ('A' for Active; 'I' for Inactive)
    1  A    between atoms: C_1  and  C_9
    2  A    between atoms: C_1  and  C_10
    3  A    between atoms: C_5  and  C_14
    4  A    between atoms: N_6  and  C_14
    5  A    between atoms: C_7  and  C_10
    6  A    between atoms: C_7  and  C_13
    7  A    between atoms: C_8  and  C_16
    8  A    between atoms: C_8  and  C_26
    9  A    between atoms: N_11  and  C_17
   10  A    between atoms: C_12  and  C_19
   11  A    between atoms: C_14  and  C_28
   12  A    between atoms: C_16  and  O_27
                            x       y       z     vdW  Elec       q    Type
                         _______ _______ _______ _____ _____    ______ ____

>  <TORSDO>
F 12

$$$$
=
 OpenBabel11062414523D

 33 35  0  0  1  0  0  0  0  0999 V2000
  187.6570  177.9540  148.1190 O   0  0  0  0  0  0  0  0  0  0  0  0
  187.2000  177.4790  144.5890 C   0  0  0  0  0  0  0  0  0  0  0  0
  185.1620  178.5130  145.5410 C   0  0  0  0  0  0  0  0  0  0  0  0
  185.7960  177.9430  144.5140 C   0  0  0  0  0  3  0  0  0  0  0  0
  187.8610  177.5270  145.7730 C   0  0  0  0  0  0  0  0  0  0  0  0
  185.8700  178.8220  146.8270 C   0  0  0  0  0  2  0  0  0  0  0  0
  187.1620  178.0770  146.9690 C   0  0  0  0  0  0  0  0  0  0  0  0
  188.0190  175.7170  143.2230 O   0  0  0  0  0  0  0  0  0  0  0  0
  188.0990  177.8150  142.2260 N   0  0  0  0  0  2  0  0  0  0  0  0
  187.7930  176.9540  143.3290 C   0  0  0  0  0  0  0  0  0  0  0  0
  188.6860  177.3340  140.9810 C   0  0  2  0  0  3  0  0  0  0  0  0
  192.1320  177.5480  141.8280 C   0  0  0  0  0  3  0  0  0  0  0  0
  190.1790  177.4060  141.0450 C   0  0  0  0  0  0  0  0  0  0  0  0
  192.2990  177.4520  140.4920 N   0  0  0  0  0  0  0  0  0  0  0  0
  191.0550  177.3600  139.9830 C   0  0  0  0  0  3  0  0  0  0  0  0
  190.8610  177.5190  142.1550 O   0  0  0  0  0  0  0  0  0  0  0  0
  188.1770  178.1620  139.8120 C   0  0  0  0  0  2  0  0  0  0  0  0
  186.7050  178.4790  139.9910 C   0  0  0  0  0  1  0  0  0  0  0  0
  190.2250  177.7240  145.5560 N   0  0  0  0  0  2  0  0  0  0  0  0
  189.2070  177.0320  145.8710 N   0  0  0  0  0  0  0  0  0  0  0  0
  183.7550  178.9730  145.3720 C   0  0  0  0  0  2  0  0  0  0  0  0
  183.3010  178.7750  143.9350 C   0  0  0  0  0  2  0  0  0  0  0  0
  181.7830  178.7690  143.8540 C   0  0  0  0  0  2  0  0  0  0  0  0
  181.3120  179.0960  142.4450 C   0  0  1  0  0  3  0  0  0  0  0  0
  180.3010  178.0780  140.6020 C   0  0  0  0  0  2  0  0  0  0  0  0
  182.3520  178.8830  141.5210 O   0  0  0  0  0  0  0  0  0  0  0  0
  181.9200  179.3560  139.2270 C   0  0  0  0  0  1  0  0  0  0  0  0
  180.1520  178.2140  142.0810 C   0  0  0  0  0  2  0  0  0  0  0  0
  181.7740  178.3460  140.3530 C   0  0  2  0  0  0  0  0  0  0  0  0
  182.5090  177.0440  140.0090 C   0  0  0  0  0  2  0  0  0  0  0  0
  183.3770  177.1320  138.7560 C   0  0  0  0  0  2  0  0  0  0  0  0
  183.4730  175.8810  138.1460 O   0  0  0  0  0  0  0  0  0  0  0  0
  183.3350  176.1290  136.8620 O   0  0  0  0  0  1  0  0  0  0  0  0
  2  5  2  0  0  0  0
  3  6  1  0  0  0  0
  4  2  1  0  0  0  0
  4  3  2  0  0  0  0
  5 20  1  0  0  0  0
  5  7  1  0  0  0  0
  6  7  1  0  0  0  0
  7  1  2  0  0  0  0
  8 10  2  0  0  0  0
  9 10  1  0  0  0  0
 10  2  1  0  0  0  0
 11 17  1  6  0  0  0
 11 13  1  0  0  0  0
 11  9  1  0  0  0  0
 12 16  1  0  0  0  0
 13 16  1  0  0  0  0
 14 12  2  0  0  0  0
 15 14  1  0  0  0  0
 15 13  2  0  0  0  0
 17 18  1  0  0  0  0
 19 20  2  0  0  0  0
 21  3  1  0  0  0  0
 22 21  1  0  0  0  0
 23 22  1  0  0  0  0
 24 23  1  1  0  0  0
 25 28  1  0  0  0  0
 26 24  1  0  0  0  0
 28 24  1  0  0  0  0
 29 27  1  6  0  0  0
 29 25  1  0  0  0  0
 29 26  1  0  0  0  0
 30 29  1  0  0  0  0
 31 30  1  0  0  0  0
 32 31  1  0  0  0  0
 33 32  1  0  0  0  0
M  END
>  <MODEL>
4

>  <REMARK>
 VINA RESULT:      -7.5      2.691      5.121
  Name = 
  12 active torsions:
  status: ('A' for Active; 'I' for Inactive)
    1  A    between atoms: C_1  and  C_9
    2  A    between atoms: C_1  and  C_10
    3  A    between atoms: C_5  and  C_14
    4  A    between atoms: N_6  and  C_14
    5  A    between atoms: C_7  and  C_10
    6  A    between atoms: C_7  and  C_13
    7  A    between atoms: C_8  and  C_16
    8  A    between atoms: C_8  and  C_26
    9  A    between atoms: N_11  and  C_17
   10  A    between atoms: C_12  and  C_19
   11  A    between atoms: C_14  and  C_28
   12  A    between atoms: C_16  and  O_27
                            x       y       z     vdW  Elec       q    Type
                         _______ _______ _______ _____ _____    ______ ____

>  <TORSDO>
F 12

$$$$
=
 OpenBabel11062414523D

 33 35  0  0  1  0  0  0  0  0999 V2000
  192.5520  177.5300  140.6220 O   0  0  0  0  0  0  0  0  0  0  0  0
  189.2390  177.0890  141.9350 C   0  0  0  0  0  0  0  0  0  0  0  0
  189.0870  177.8460  139.5830 C   0  0  0  0  0  0  0  0  0  0  0  0
  188.4970  177.5720  140.7490 C   0  0  0  0  0  3  0  0  0  0  0  0
  190.5930  177.0120  141.8960 C   0  0  0  0  0  0  0  0  0  0  0  0
  190.5460  177.5790  139.3600 C   0  0  0  0  0  2  0  0  0  0  0  0
  191.3010  177.3910  140.6410 C   0  0  0  0  0  0  0  0  0  0  0  0
  188.0070  175.5530  143.2640 O   0  0  0  0  0  0  0  0  0  0  0  0
  188.1080  177.7040  144.1370 N   0  0  0  0  0  2  0  0  0  0  0  0
  188.4220  176.7370  143.1290 C   0  0  0  0  0  0  0  0  0  0  0  0
  187.3060  177.3950  145.3140 C   0  0  2  0  0  3  0  0  0  0  0  0
  184.2130  178.8940  144.4070 C   0  0  0  0  0  3  0  0  0  0  0  0
  185.9690  178.0590  145.2250 C   0  0  0  0  0  0  0  0  0  0  0  0
  184.0700  179.0230  145.7440 N   0  0  0  0  0  0  0  0  0  0  0  0
  185.1880  178.4900  146.2750 C   0  0  0  0  0  3  0  0  0  0  0  0
  185.3510  178.3160  144.1010 O   0  0  0  0  0  0  0  0  0  0  0  0
  188.0290  177.8520  146.5720 C   0  0  0  0  0  2  0  0  0  0  0  0
  189.3280  177.0890  146.7400 C   0  0  0  0  0  1  0  0  0  0  0  0
  191.7580  177.4070  143.9350 N   0  0  0  0  0  2  0  0  0  0  0  0
  191.3280  176.5940  143.0590 N   0  0  0  0  0  0  0  0  0  0  0  0
  188.2610  178.3060  138.4310 C   0  0  0  0  0  2  0  0  0  0  0  0
  188.7750  177.7030  137.1350 C   0  0  0  0  0  2  0  0  0  0  0  0
  188.0940  176.3720  136.8620 C   0  0  0  0  0  2  0  0  0  0  0  0
  189.0460  175.4050  136.1760 C   0  0  1  0  0  3  0  0  0  0  0  0
  190.3270  173.5060  136.6370 C   0  0  0  0  0  2  0  0  0  0  0  0
  190.3710  175.8670  136.2810 O   0  0  0  0  0  0  0  0  0  0  0  0
  192.0890  174.5730  135.2570 C   0  0  0  0  0  1  0  0  0  0  0  0
  188.9510  174.0530  136.8250 C   0  0  0  0  0  2  0  0  0  0  0  0
  191.1960  174.7400  136.4760 C   0  0  2  0  0  0  0  0  0  0  0  0
  192.0400  174.9740  137.7350 C   0  0  0  0  0  2  0  0  0  0  0  0
  193.5020  175.3100  137.4510 C   0  0  0  0  0  2  0  0  0  0  0  0
  193.7060  176.6880  137.5320 O   0  0  0  0  0  0  0  0  0  0  0  0
  194.4460  176.9730  136.4830 O   0  0  0  0  0  1  0  0  0  0  0  0
  1  7  2  0  0  0  0
  2 10  1  0  0  0  0
  3  4  2  0  0  0  0
  4  2  1  0  0  0  0
  5  2  2  0  0  0  0
  5 20  1  0  0  0  0
  6  3  1  0  0  0  0
  6  7  1  0  0  0  0
  7  5  1  0  0  0  0
  9 11  1  0  0  0  0
 10  8  2  0  0  0  0
 10  9  1  0  0  0  0
 11 17  1  1  0  0  0
 12 14  2  0  0  0  0
 13 11  1  0  0  0  0
 13 15  2  0  0  0  0
 14 15  1  0  0  0  0
 16 12  1  0  0  0  0
 16 13  1  0  0  0  0
 17 18  1  0  0  0  0
 20 19  2  0  0  0  0
 21  3  1  0  0  0  0
 22 21  1  0  0  0  0
 23 22  1  0  0  0  0
 24 26  1  0  0  0  0
 24 28  1  0  0  0  0
 24 23  1  1  0  0  0
 25 28  1  0  0  0  0
 26 29  1  0  0  0  0
 29 27  1  6  0  0  0
 29 25  1  0  0  0  0
 29 30  1  0  0  0  0
 31 32  1  0  0  0  0
 31 30  1  0  0  0  0
 33 32  1  0  0  0  0
M  END
>  <MODEL>
5

>  <REMARK>
 VINA RESULT:      -7.4      2.832      5.624
  Name = 
  12 active torsions:
  status: ('A' for Active; 'I' for Inactive)
    1  A    between atoms: C_1  and  C_9
    2  A    between atoms: C_1  and  C_10
    3  A    between atoms: C_5  and  C_14
    4  A    between atoms: N_6  and  C_14
    5  A    between atoms: C_7  and  C_10
    6  A    between atoms: C_7  and  C_13
    7  A    between atoms: C_8  and  C_16
    8  A    between atoms: C_8  and  C_26
    9  A    between atoms: N_11  and  C_17
   10  A    between atoms: C_12  and  C_19
   11  A    between atoms: C_14  and  C_28
   12  A    between atoms: C_16  and  O_27
                            x       y       z     vdW  Elec       q    Type
                         _______ _______ _______ _____ _____    ______ ____

>  <TORSDO>
F 12

$$$$
=
 OpenBabel11062414523D

 33 35  0  0  1  0  0  0  0  0999 V2000
  184.7830  179.0640  146.6660 O   0  0  0  0  0  0  0  0  0  0  0  0
  185.3430  178.4010  143.1820 C   0  0  0  0  0  0  0  0  0  0  0  0
  187.1690  177.3820  144.5080 C   0  0  0  0  0  0  0  0  0  0  0  0
  186.6490  177.7180  143.3250 C   0  0  0  0  0  3  0  0  0  0  0  0
  184.6740  178.8100  144.2880 C   0  0  0  0  0  0  0  0  0  0  0  0
  186.4080  177.5810  145.7850 C   0  0  0  0  0  2  0  0  0  0  0  0
  185.2590  178.5320  145.6300 C   0  0  0  0  0  0  0  0  0  0  0  0
  185.3990  179.5150  141.0850 O   0  0  0  0  0  0  0  0  0  0  0  0
  183.8060  177.8300  141.2290 N   0  0  0  0  0  2  0  0  0  0  0  0
  184.8590  178.6210  141.7910 C   0  0  0  0  0  0  0  0  0  0  0  0
  183.3030  178.0230  139.8740 C   0  0  2  0  0  3  0  0  0  0  0  0
  180.4080  179.9820  140.5220 C   0  0  0  0  0  3  0  0  0  0  0  0
  182.1360  178.9590  139.8780 C   0  0  0  0  0  0  0  0  0  0  0  0
  180.6730  180.4840  139.2970 N   0  0  0  0  0  0  0  0  0  0  0  0
  181.7770  179.8370  138.8780 C   0  0  0  0  0  3  0  0  0  0  0  0
  181.2880  179.0700  140.8660 O   0  0  0  0  0  0  0  0  0  0  0  0
  182.8940  176.6870  139.2750 C   0  0  0  0  0  2  0  0  0  0  0  0
  183.5530  176.4910  137.9240 C   0  0  0  0  0  1  0  0  0  0  0  0
  182.2960  178.9570  144.2710 N   0  0  0  0  0  2  0  0  0  0  0  0
  183.4300  179.5200  144.1610 N   0  0  0  0  0  0  0  0  0  0  0  0
  188.4790  176.6740  144.5590 C   0  0  0  0  0  2  0  0  0  0  0  0
  189.3340  177.2210  145.6900 C   0  0  0  0  0  2  0  0  0  0  0  0
  190.7800  176.7830  145.5220 C   0  0  0  0  0  2  0  0  0  0  0  0
  191.4210  177.4730  144.3270 C   0  0  1  0  0  3  0  0  0  0  0  0
  190.8880  178.9630  142.6090 C   0  0  0  0  0  2  0  0  0  0  0  0
  191.2860  176.6780  143.1740 O   0  0  0  0  0  0  0  0  0  0  0  0
  192.2370  177.4850  141.1450 C   0  0  0  0  0  1  0  0  0  0  0  0
  190.7490  178.7950  144.0850 C   0  0  0  0  0  2  0  0  0  0  0  0
  191.0480  177.5460  142.0890 C   0  0  2  0  0  0  0  0  0  0  0  0
  189.7690  177.0840  141.3770 C   0  0  0  0  0  2  0  0  0  0  0  0
  189.8110  177.2430  139.8590 C   0  0  0  0  0  2  0  0  0  0  0  0
  189.4330  178.5360  139.4980 O   0  0  0  0  0  0  0  0  0  0  0  0
  188.1590  178.6070  139.8180 O   0  0  0  0  0  1  0  0  0  0  0  0
  2  4  1  0  0  0  0
  2  5  2  0  0  0  0
  3 21  1  0  0  0  0
  3  6  1  0  0  0  0
  4  3  2  0  0  0  0
  5  7  1  0  0  0  0
  7  6  1  0  0  0  0
  7  1  2  0  0  0  0
  8 10  2  0  0  0  0
  9 10  1  0  0  0  0
 10  2  1  0  0  0  0
 11 17  1  1  0  0  0
 11 13  1  0  0  0  0
 11  9  1  0  0  0  0
 12 16  1  0  0  0  0
 13 16  1  0  0  0  0
 14 12  2  0  0  0  0
 15 14  1  0  0  0  0
 15 13  2  0  0  0  0
 18 17  1  0  0  0  0
 20 19  2  0  0  0  0
 20  5  1  0  0  0  0
 21 22  1  0  0  0  0
 23 22  1  0  0  0  0
 24 23  1  1  0  0  0
 25 28  1  0  0  0  0
 26 24  1  0  0  0  0
 28 24  1  0  0  0  0
 29 27  1  6  0  0  0
 29 25  1  0  0  0  0
 29 26  1  0  0  0  0
 30 29  1  0  0  0  0
 31 30  1  0  0  0  0
 32 33  1  0  0  0  0
 32 31  1  0  0  0  0
M  END
>  <MODEL>
6

>  <REMARK>
 VINA RESULT:      -7.4      3.169      7.338
  Name = 
  12 active torsions:
  status: ('A' for Active; 'I' for Inactive)
    1  A    between atoms: C_1  and  C_9
    2  A    between atoms: C_1  and  C_10
    3  A    between atoms: C_5  and  C_14
    4  A    between atoms: N_6  and  C_14
    5  A    between atoms: C_7  and  C_10
    6  A    between atoms: C_7  and  C_13
    7  A    between atoms: C_8  and  C_16
    8  A    between atoms: C_8  and  C_26
    9  A    between atoms: N_11  and  C_17
   10  A    between atoms: C_12  and  C_19
   11  A    between atoms: C_14  and  C_28
   12  A    between atoms: C_16  and  O_27
                            x       y       z     vdW  Elec       q    Type
                         _______ _______ _______ _____ _____    ______ ____

>  <TORSDO>
F 12

$$$$
=
 OpenBabel11062414523D

 33 35  0  0  1  0  0  0  0  0999 V2000
  184.5540  179.0030  146.6310 O   0  0  0  0  0  0  0  0  0  0  0  0
  185.3830  178.4730  143.1770 C   0  0  0  0  0  0  0  0  0  0  0  0
  187.2010  177.5740  144.5970 C   0  0  0  0  0  0  0  0  0  0  0  0
  186.7290  177.8950  143.3900 C   0  0  0  0  0  3  0  0  0  0  0  0
  184.6140  178.7980  144.2460 C   0  0  0  0  0  0  0  0  0  0  0  0
  186.3480  177.6790  145.8260 C   0  0  0  0  0  2  0  0  0  0  0  0
  185.1360  178.5360  145.6170 C   0  0  0  0  0  0  0  0  0  0  0  0
  185.5970  179.5210  141.0560 O   0  0  0  0  0  0  0  0  0  0  0  0
  183.8860  177.9530  141.1780 N   0  0  0  0  0  2  0  0  0  0  0  0
  184.9690  178.6850  141.7630 C   0  0  0  0  0  0  0  0  0  0  0  0
  183.4510  178.1420  139.8000 C   0  0  2  0  0  3  0  0  0  0  0  0
  180.4810  180.0520  140.2170 C   0  0  0  0  0  3  0  0  0  0  0  0
  182.3000  179.0960  139.7400 C   0  0  0  0  0  0  0  0  0  0  0  0
  180.9620  180.7290  139.1520 N   0  0  0  0  0  0  0  0  0  0  0  0
  182.1250  180.1250  138.8410 C   0  0  0  0  0  3  0  0  0  0  0  0
  181.2870  179.0760  140.5660 O   0  0  0  0  0  0  0  0  0  0  0  0
  183.0490  176.8070  139.1930 C   0  0  0  0  0  2  0  0  0  0  0  0
  183.4230  176.7610  137.7240 C   0  0  0  0  0  1  0  0  0  0  0  0
  182.2330  178.7690  144.1690 N   0  0  0  0  0  2  0  0  0  0  0  0
  183.3260  179.4070  144.0540 N   0  0  0  0  0  0  0  0  0  0  0  0
  188.5600  176.9750  144.7190 C   0  0  0  0  0  2  0  0  0  0  0  0
  188.9760  176.3310  143.4070 C   0  0  0  0  0  2  0  0  0  0  0  0
  190.4910  176.3040  143.2860 C   0  0  0  0  0  2  0  0  0  0  0  0
  190.9190  176.2350  141.8280 C   0  0  1  0  0  3  0  0  0  0  0  0
  191.4900  177.6390  140.0500 C   0  0  0  0  0  2  0  0  0  0  0  0
  189.7900  176.2480  140.9870 O   0  0  0  0  0  0  0  0  0  0  0  0
  190.1490  176.1050  138.6370 C   0  0  0  0  0  1  0  0  0  0  0  0
  191.7830  177.4190  141.4970 C   0  0  0  0  0  2  0  0  0  0  0  0
  190.1190  177.0170  139.8520 C   0  0  2  0  0  0  0  0  0  0  0  0
  189.0510  178.1050  139.6840 C   0  0  0  0  0  2  0  0  0  0  0  0
  187.9980  177.7860  138.6260 C   0  0  0  0  0  2  0  0  0  0  0  0
  187.7640  178.9040  137.8250 O   0  0  0  0  0  0  0  0  0  0  0  0
  186.9580  178.4690  136.8810 O   0  0  0  0  0  1  0  0  0  0  0  0
  2  4  1  0  0  0  0
  2  5  2  0  0  0  0
  3 21  1  0  0  0  0
  3  6  1  0  0  0  0
  4  3  2  0  0  0  0
  5  7  1  0  0  0  0
  7  6  1  0  0  0  0
  7  1  2  0  0  0  0
  8 10  2  0  0  0  0
  9 10  1  0  0  0  0
 10  2  1  0  0  0  0
 11 17  1  1  0  0  0
 11  9  1  0  0  0  0
 12 16  1  0  0  0  0
 13 11  1  0  0  0  0
 13 16  1  0  0  0  0
 14 12  2  0  0  0  0
 15 14  1  0  0  0  0
 15 13  2  0  0  0  0
 18 17  1  0  0  0  0
 20 19  2  0  0  0  0
 20  5  1  0  0  0  0
 22 21  1  0  0  0  0
 23 22  1  0  0  0  0
 24 23  1  1  0  0  0
 25 28  1  0  0  0  0
 26 24  1  0  0  0  0
 28 24  1  0  0  0  0
 29 27  1  6  0  0  0
 29 25  1  0  0  0  0
 29 26  1  0  0  0  0
 30 29  1  0  0  0  0
 31 30  1  0  0  0  0
 32 31  1  0  0  0  0
 33 32  1  0  0  0  0
M  END
>  <MODEL>
7

>  <REMARK>
 VINA RESULT:      -7.3      3.133      7.061
  Name = 
  12 active torsions:
  status: ('A' for Active; 'I' for Inactive)
    1  A    between atoms: C_1  and  C_9
    2  A    between atoms: C_1  and  C_10
    3  A    between atoms: C_5  and  C_14
    4  A    between atoms: N_6  and  C_14
    5  A    between atoms: C_7  and  C_10
    6  A    between atoms: C_7  and  C_13
    7  A    between atoms: C_8  and  C_16
    8  A    between atoms: C_8  and  C_26
    9  A    between atoms: N_11  and  C_17
   10  A    between atoms: C_12  and  C_19
   11  A    between atoms: C_14  and  C_28
   12  A    between atoms: C_16  and  O_27
                            x       y       z     vdW  Elec       q    Type
                         _______ _______ _______ _____ _____    ______ ____

>  <TORSDO>
F 12

$$$$
=
 OpenBabel11062414523D

 33 35  0  0  1  0  0  0  0  0999 V2000
  192.5490  177.7190  140.5870 O   0  0  0  0  0  0  0  0  0  0  0  0
  189.2570  177.1340  141.8960 C   0  0  0  0  0  0  0  0  0  0  0  0
  189.0840  177.7420  139.5030 C   0  0  0  0  0  0  0  0  0  0  0  0
  188.4990  177.4970  140.6780 C   0  0  0  0  0  3  0  0  0  0  0  0
  190.6130  177.1450  141.8730 C   0  0  0  0  0  0  0  0  0  0  0  0
  190.5600  177.5610  139.3080 C   0  0  0  0  0  2  0  0  0  0  0  0
  191.3100  177.4980  140.6040 C   0  0  0  0  0  0  0  0  0  0  0  0
  187.9700  175.6370  143.2180 O   0  0  0  0  0  0  0  0  0  0  0  0
  188.2210  177.7540  144.1430 N   0  0  0  0  0  2  0  0  0  0  0  0
  188.4510  176.7980  143.1020 C   0  0  0  0  0  0  0  0  0  0  0  0
  187.4320  177.4600  145.3330 C   0  0  2  0  0  3  0  0  0  0  0  0
  184.3540  178.9920  144.4260 C   0  0  0  0  0  3  0  0  0  0  0  0
  186.0890  178.1130  145.2430 C   0  0  0  0  0  0  0  0  0  0  0  0
  184.1550  179.0050  145.7620 N   0  0  0  0  0  0  0  0  0  0  0  0
  185.2590  178.4430  146.2920 C   0  0  0  0  0  3  0  0  0  0  0  0
  185.5130  178.4560  144.1210 O   0  0  0  0  0  0  0  0  0  0  0  0
  188.1620  177.9450  146.5750 C   0  0  0  0  0  2  0  0  0  0  0  0
  189.2750  176.9830  146.9420 C   0  0  0  0  0  1  0  0  0  0  0  0
  191.7450  177.7370  143.8830 N   0  0  0  0  0  2  0  0  0  0  0  0
  191.3610  176.8450  143.0640 N   0  0  0  0  0  0  0  0  0  0  0  0
  188.2430  178.0780  138.3190 C   0  0  0  0  0  2  0  0  0  0  0  0
  187.6030  176.8240  137.7490 C   0  0  0  0  0  2  0  0  0  0  0  0
  186.7330  177.1700  136.5510 C   0  0  0  0  0  2  0  0  0  0  0  0
  185.3250  176.6240  136.7260 C   0  0  1  0  0  3  0  0  0  0  0  0
  183.1070  177.3530  136.8020 C   0  0  0  0  0  2  0  0  0  0  0  0
  184.9740  176.6060  138.0890 O   0  0  0  0  0  0  0  0  0  0  0  0
  182.8290  175.7560  138.6780 C   0  0  0  0  0  1  0  0  0  0  0  0
  184.3480  177.4940  135.9860 C   0  0  0  0  0  2  0  0  0  0  0  0
  183.6120  176.9590  138.1780 C   0  0  2  0  0  0  0  0  0  0  0  0
  183.4830  178.1320  139.1590 C   0  0  0  0  0  2  0  0  0  0  0  0
  184.7300  178.3770  140.0040 C   0  0  0  0  0  2  0  0  0  0  0  0
  184.9300  179.7460  140.1840 O   0  0  0  0  0  0  0  0  0  0  0  0
  184.4350  180.2960  139.0970 O   0  0  0  0  0  1  0  0  0  0  0  0
  1  7  2  0  0  0  0
  2 10  1  0  0  0  0
  3  4  2  0  0  0  0
  4  2  1  0  0  0  0
  5  2  2  0  0  0  0
  5 20  1  0  0  0  0
  6  3  1  0  0  0  0
  6  7  1  0  0  0  0
  7  5  1  0  0  0  0
  9 11  1  0  0  0  0
 10  8  2  0  0  0  0
 10  9  1  0  0  0  0
 11 17  1  1  0  0  0
 12 14  2  0  0  0  0
 13 11  1  0  0  0  0
 13 15  2  0  0  0  0
 14 15  1  0  0  0  0
 16 12  1  0  0  0  0
 16 13  1  0  0  0  0
 17 18  1  0  0  0  0
 20 19  2  0  0  0  0
 21  3  1  0  0  0  0
 22 21  1  0  0  0  0
 23 22  1  0  0  0  0
 24 23  1  1  0  0  0
 24 26  1  0  0  0  0
 25 29  1  0  0  0  0
 26 29  1  0  0  0  0
 28 24  1  0  0  0  0
 28 25  1  0  0  0  0
 29 27  1  1  0  0  0
 29 30  1  0  0  0  0
 30 31  1  0  0  0  0
 31 32  1  0  0  0  0
 33 32  1  0  0  0  0
M  END
>  <MODEL>
8

>  <REMARK>
 VINA RESULT:      -7.3      2.194      5.582
  Name = 
  12 active torsions:
  status: ('A' for Active; 'I' for Inactive)
    1  A    between atoms: C_1  and  C_9
    2  A    between atoms: C_1  and  C_10
    3  A    between atoms: C_5  and  C_14
    4  A    between atoms: N_6  and  C_14
    5  A    between atoms: C_7  and  C_10
    6  A    between atoms: C_7  and  C_13
    7  A    between atoms: C_8  and  C_16
    8  A    between atoms: C_8  and  C_26
    9  A    between atoms: N_11  and  C_17
   10  A    between atoms: C_12  and  C_19
   11  A    between atoms: C_14  and  C_28
   12  A    between atoms: C_16  and  O_27
                            x       y       z     vdW  Elec       q    Type
                         _______ _______ _______ _____ _____    ______ ____

>  <TORSDO>
F 12

$$$$
=
 OpenBabel11062414523D

 33 35  0  0  1  0  0  0  0  0999 V2000
  184.4830  178.6900  146.5170 O   0  0  0  0  0  0  0  0  0  0  0  0
  186.8910  177.5760  144.0970 C   0  0  0  0  0  0  0  0  0  0  0  0
  184.8670  178.3810  142.9200 C   0  0  0  0  0  0  0  0  0  0  0  0
  186.0550  177.7710  142.8910 C   0  0  0  0  0  3  0  0  0  0  0  0
  186.4080  177.9300  145.3150 C   0  0  0  0  0  0  0  0  0  0  0  0
  184.3400  179.0130  144.1730 C   0  0  0  0  0  2  0  0  0  0  0  0
  185.0500  178.5360  145.4040 C   0  0  0  0  0  0  0  0  0  0  0  0
  188.3260  175.9210  143.1790 O   0  0  0  0  0  0  0  0  0  0  0  0
  189.4180  177.5380  144.4410 N   0  0  0  0  0  2  0  0  0  0  0  0
  188.2310  176.9640  143.8820 C   0  0  0  0  0  0  0  0  0  0  0  0
  190.7440  176.9610  144.2560 C   0  0  2  0  0  3  0  0  0  0  0  0
  192.4160  175.4730  147.0190 C   0  0  0  0  0  3  0  0  0  0  0  0
  191.3260  176.5560  145.5730 C   0  0  0  0  0  0  0  0  0  0  0  0
  191.8600  176.4990  147.6990 N   0  0  0  0  0  0  0  0  0  0  0  0
  191.1620  177.1970  146.7820 C   0  0  0  0  0  3  0  0  0  0  0  0
  192.0940  175.5120  145.7470 O   0  0  0  0  0  0  0  0  0  0  0  0
  191.6580  177.9640  143.5720 C   0  0  0  0  0  2  0  0  0  0  0  0
  191.2650  179.3790  143.9490 C   0  0  0  0  0  1  0  0  0  0  0  0
  186.9850  178.3090  147.5940 N   0  0  0  0  0  2  0  0  0  0  0  0
  187.1890  177.6980  146.4990 N   0  0  0  0  0  0  0  0  0  0  0  0
  184.1010  178.5560  141.6540 C   0  0  0  0  0  2  0  0  0  0  0  0
  185.0320  178.9540  140.5200 C   0  0  0  0  0  2  0  0  0  0  0  0
  184.2730  179.0050  139.2040 C   0  0  0  0  0  2  0  0  0  0  0  0
  182.7800  179.1770  139.4440 C   0  0  1  0  0  3  0  0  0  0  0  0
  180.7480  179.0660  138.2980 C   0  0  0  0  0  2  0  0  0  0  0  0
  182.4020  180.5150  139.2280 O   0  0  0  0  0  0  0  0  0  0  0  0
  180.1190  181.0980  139.5720 C   0  0  0  0  0  1  0  0  0  0  0  0
  182.0110  178.2970  138.4990 C   0  0  0  0  0  2  0  0  0  0  0  0
  181.1340  180.5000  138.6120 C   0  0  2  0  0  0  0  0  0  0  0  0
  181.2160  181.3320  137.3250 C   0  0  0  0  0  2  0  0  0  0  0  0
  181.0440  182.8330  137.5430 C   0  0  0  0  0  2  0  0  0  0  0  0
  182.2440  183.3980  137.9780 O   0  0  0  0  0  0  0  0  0  0  0  0
  182.2060  184.6340  137.5310 O   0  0  0  0  0  1  0  0  0  0  0  0
  2  5  2  0  0  0  0
  3  6  1  0  0  0  0
  4  3  2  0  0  0  0
  4  2  1  0  0  0  0
  5  7  1  0  0  0  0
  5 20  1  0  0  0  0
  6  7  1  0  0  0  0
  7  1  2  0  0  0  0
  8 10  2  0  0  0  0
 10  2  1  0  0  0  0
 10  9  1  0  0  0  0
 11 17  1  1  0  0  0
 11  9  1  0  0  0  0
 11 13  1  0  0  0  0
 12 14  2  0  0  0  0
 13 16  1  0  0  0  0
 13 15  2  0  0  0  0
 15 14  1  0  0  0  0
 16 12  1  0  0  0  0
 17 18  1  0  0  0  0
 20 19  2  0  0  0  0
 21  3  1  0  0  0  0
 22 21  1  0  0  0  0
 23 22  1  0  0  0  0
 24 23  1  6  0  0  0
 25 28  1  0  0  0  0
 25 29  1  0  0  0  0
 26 24  1  0  0  0  0
 28 24  1  0  0  0  0
 29 26  1  0  0  0  0
 29 27  1  1  0  0  0
 30 31  1  0  0  0  0
 30 29  1  0  0  0  0
 31 32  1  0  0  0  0
 33 32  1  0  0  0  0
M  END
>  <MODEL>
9

>  <REMARK>
 VINA RESULT:      -7.2      2.868      4.549
  Name = 
  12 active torsions:
  status: ('A' for Active; 'I' for Inactive)
    1  A    between atoms: C_1  and  C_9
    2  A    between atoms: C_1  and  C_10
    3  A    between atoms: C_5  and  C_14
    4  A    between atoms: N_6  and  C_14
    5  A    between atoms: C_7  and  C_10
    6  A    between atoms: C_7  and  C_13
    7  A    between atoms: C_8  and  C_16
    8  A    between atoms: C_8  and  C_26
    9  A    between atoms: N_11  and  C_17
   10  A    between atoms: C_12  and  C_19
   11  A    between atoms: C_14  and  C_28
   12  A    between atoms: C_16  and  O_27
                            x       y       z     vdW  Elec       q    Type
                         _______ _______ _______ _____ _____    ______ ____

>  <TORSDO>
F 12

$$$$
