=
 OpenBabel11062412543D

 50 55  0  0  1  0  0  0  0  0999 V2000
  183.8570  178.2140  138.3600 C   0  0  0  0  0  0  0  0  0  0  0  0
  185.6240  177.1020  137.0710 C   0  0  0  0  0  0  0  0  0  0  0  0
  184.6800  176.4050  136.3220 C   0  0  0  0  0  0  0  0  0  0  0  0
  185.2080  178.0110  138.0050 C   0  0  0  0  0  3  0  0  0  0  0  0
  184.9510  176.0870  134.9930 N   0  0  0  0  0  1  0  0  0  0  0  0
  182.9440  177.5090  137.6830 C   0  0  0  0  0  3  0  0  0  0  0  0
  183.3420  176.6710  136.6750 N   0  0  0  0  0  0  0  0  0  0  0  0
  187.1470  177.2690  136.7030 C   0  0  1  0  0  0  0  0  0  0  0  0
  187.1430  178.2420  135.5170 C   0  0  0  0  0  1  0  0  0  0  0  0
  188.1990  177.9190  137.6770 C   0  0  0  0  0  0  0  0  0  0  0  0
  189.1630  177.1770  138.3900 N   0  0  0  0  0  2  0  0  0  0  0  0
  188.3710  179.1570  137.5380 O   0  0  0  0  0  0  0  0  0  0  0  0
  190.5370  177.2240  137.8720 C   0  0  0  0  0  2  0  0  0  0  0  0
  191.3720  176.1130  138.4900 C   0  0  0  0  0  2  0  0  0  0  0  0
  191.1880  174.6990  138.0690 N   0  0  0  0  0  2  0  0  0  0  0  0
  192.1210  174.4870  137.0090 C   0  0  0  0  0  2  0  0  0  0  0  0
  193.4290  173.9530  137.5620 C   0  0  0  0  0  2  0  0  0  0  0  0
  196.5010  174.2820  138.4940 C   0  0  0  0  0  0  0  0  0  0  0  0
  197.8530  174.7890  139.1390 C   0  0  0  0  0  1  0  0  0  0  0  0
  194.0640  175.6250  136.0760 O   0  0  0  0  0  0  0  0  0  0  0  0
  195.9160  174.9830  137.4260 N   0  0  0  0  0  2  0  0  0  0  0  0
  194.4890  174.9980  137.0930 C   0  0  0  0  0  0  0  0  0  0  0  0
  195.9760  173.2970  138.9870 O   0  0  0  0  0  0  0  0  0  0  0  0
  187.5440  175.9910  136.2880 O   0  0  0  0  0  0  0  0  0  0  0  0
  188.3660  176.0690  135.1520 C   0  0  0  0  0  1  0  0  0  0  0  0
  183.5420  179.0320  139.5720 C   0  0  0  0  0  2  0  0  0  0  0  0
  184.8240  179.4690  140.2750 C   0  0  0  0  0  2  0  0  0  0  0  0
  185.6860  177.8470  144.4140 C   0  0  0  0  0  2  0  0  0  0  0  0
  185.4430  179.7470  142.7740 C   0  0  1  0  0  3  0  0  0  0  0  0
  185.4310  180.0620  145.1770 O   0  0  0  0  0  1  0  0  0  0  0  0
  184.9130  178.8200  141.6440 C   0  0  1  0  0  0  0  0  0  0  0  0
  182.8290  178.4720  143.0910 C   0  0  0  0  0  2  0  0  0  0  0  0
  185.0460  179.2090  144.1410 C   0  0  2  0  0  0  0  0  0  0  0  0
  187.2400  179.0470  141.2890 O   0  0  0  0  0  1  0  0  0  0  0  0
  183.8270  177.8250  142.0450 C   0  0  0  0  0  2  0  0  0  0  0  0
  183.5440  178.8670  144.3570 C   0  0  0  0  0  2  0  0  0  0  0  0
  186.2630  178.6650  142.2440 C   0  0  1  0  0  0  0  0  0  0  0  0
  186.8080  177.8460  143.3590 C   0  0  2  0  0  3  0  0  0  0  0  0
  188.8990  176.7310  143.2080 C   0  0  1  0  0  0  0  0  0  0  0  0
  188.0270  175.5960  143.3440 O   0  0  0  0  0  0  0  0  0  0  0  0
  187.4560  176.7000  142.7010 C   0  0  1  0  0  3  0  0  0  0  0  0
  190.3660  177.2090  147.3180 C   0  0  0  0  0  3  0  0  0  0  0  0
  189.1180  177.7560  146.9940 C   0  0  0  0  0  3  0  0  0  0  0  0
  189.4220  177.0690  144.6710 C   0  0  0  0  0  0  0  0  0  0  0  0
  188.5880  177.6150  145.6900 C   0  0  0  0  0  3  0  0  0  0  0  0
  191.1520  176.6510  146.3490 C   0  0  0  0  0  3  0  0  0  0  0  0
  191.7680  176.4160  144.1130 O   0  0  0  0  0  1  0  0  0  0  0  0
  190.8000  176.7450  145.0250 C   0  0  0  0  0  0  0  0  0  0  0  0
  189.9630  176.7980  142.0520 C   0  0  0  0  0  2  0  0  0  0  0  0
  190.3760  178.0680  141.5610 O   0  0  0  0  0  1  0  0  0  0  0  0
  1 26  1  0  0  0  0
  2  4  2  0  0  0  0
  3  7  2  0  0  0  0
  3  2  1  0  0  0  0
  4  1  1  0  0  0  0
  5  3  1  0  0  0  0
  6  1  2  0  0  0  0
  7  6  1  0  0  0  0
  8  9  1  6  0  0  0
  8  2  1  0  0  0  0
  8 10  1  0  0  0  0
 10 11  1  0  0  0  0
 12 10  2  0  0  0  0
 13 11  1  0  0  0  0
 13 14  1  0  0  0  0
 15 14  1  0  0  0  0
 16 17  1  0  0  0  0
 16 15  1  0  0  0  0
 18 23  2  0  0  0  0
 18 19  1  0  0  0  0
 20 22  2  0  0  0  0
 21 18  1  0  0  0  0
 22 21  1  0  0  0  0
 22 17  1  0  0  0  0
 24  8  1  0  0  0  0
 25 24  1  0  0  0  0
 26 27  1  0  0  0  0
 27 31  1  0  0  0  0
 29 33  1  0  0  0  0
 31 35  1  0  0  0  0
 31 37  1  0  0  0  0
 31 29  1  0  0  0  0
 32 36  1  0  0  0  0
 33 36  1  0  0  0  0
 33 28  1  0  0  0  0
 33 30  1  0  0  0  0
 34 37  1  0  0  0  0
 35 32  1  0  0  0  0
 37 29  1  0  0  0  0
 37 38  1  0  0  0  0
 38 28  1  0  0  0  0
 39 40  1  0  0  0  0
 39 44  1  0  0  0  0
 41 39  1  0  0  0  0
 41 40  1  0  0  0  0
 41 38  1  0  0  0  0
 43 42  1  0  0  0  0
 44 48  2  0  0  0  0
 44 45  1  0  0  0  0
 45 43  2  0  0  0  0
 46 42  2  0  0  0  0
 47 48  1  0  0  0  0
 48 46  1  0  0  0  0
 49 39  1  0  0  0  0
 50 49  1  0  0  0  0
M  END
>  <MODEL>
1

>  <REMARK>
 VINA RESULT:      -8.2      0.000      0.000
  Name = 
  15 active torsions:
  status: ('A' for Active; 'I' for Inactive)
    1  A    between atoms: C_1  and  C_34
    2  A    between atoms: C_2  and  C_22
    3  A    between atoms: C_4  and  C_20
    4  A    between atoms: C_4  and  C_29
    5  A    between atoms: C_5  and  C_33
    6  A    between atoms: C_5  and  C_49
    7  A    between atoms: O_6  and  C_22
    8  A    between atoms: C_13  and  C_50
    9  A    between atoms: C_18  and  C_22
   10  A    between atoms: C_21  and  C_37
   11  A    between atoms: C_26  and  N_30
   12  A    between atoms: C_26  and  C_48
   13  A    between atoms: C_34  and  C_37
   14  A    between atoms: N_39  and  C_48
   15  A    between atoms: N_39  and  C_49
                            x       y       z     vdW  Elec       q    Type
                         _______ _______ _______ _____ _____    ______ ____

>  <TORSDO>
F 15

$$$$
=
 OpenBabel11062412543D

 50 55  0  0  1  0  0  0  0  0999 V2000
  187.3690  177.7660  146.8060 C   0  0  0  0  0  0  0  0  0  0  0  0
  189.7170  177.6670  146.0980 C   0  0  0  0  0  0  0  0  0  0  0  0
  190.1500  177.8170  147.4130 C   0  0  0  0  0  0  0  0  0  0  0  0
  188.3770  177.5850  145.8340 C   0  0  0  0  0  3  0  0  0  0  0  0
  191.3330  177.2070  147.8250 N   0  0  0  0  0  1  0  0  0  0  0  0
  187.7760  177.9660  148.0640 C   0  0  0  0  0  3  0  0  0  0  0  0
  189.1140  177.9480  148.3590 N   0  0  0  0  0  0  0  0  0  0  0  0
  190.6020  177.1760  144.8900 C   0  0  1  0  0  0  0  0  0  0  0  0
  189.6710  176.2540  144.0920 C   0  0  0  0  0  1  0  0  0  0  0  0
  191.1560  178.1470  143.7830 C   0  0  0  0  0  0  0  0  0  0  0  0
  191.6720  177.7060  142.5460 N   0  0  0  0  0  2  0  0  0  0  0  0
  190.8120  179.3520  143.8980 O   0  0  0  0  0  0  0  0  0  0  0  0
  190.7970  177.8730  141.3770 C   0  0  0  0  0  2  0  0  0  0  0  0
  190.4690  176.5190  140.7660 C   0  0  0  0  0  2  0  0  0  0  0  0
  190.4620  176.3320  139.2920 N   0  0  0  0  0  2  0  0  0  0  0  0
  190.1150  177.6040  138.7430 C   0  0  0  0  0  2  0  0  0  0  0  0
  189.3890  177.4230  137.4230 C   0  0  0  0  0  2  0  0  0  0  0  0
  186.1640  177.3600  137.5000 C   0  0  0  0  0  0  0  0  0  0  0  0
  184.6280  177.4450  137.1330 C   0  0  0  0  0  1  0  0  0  0  0  0
  189.0020  179.7130  137.5410 O   0  0  0  0  0  0  0  0  0  0  0  0
  186.9380  178.5290  137.5960 N   0  0  0  0  0  2  0  0  0  0  0  0
  188.3840  178.6170  137.3820 C   0  0  0  0  0  0  0  0  0  0  0  0
  186.6470  176.2490  137.6480 O   0  0  0  0  0  0  0  0  0  0  0  0
  191.6280  176.4360  145.4920 O   0  0  0  0  0  0  0  0  0  0  0  0
  191.8810  175.2570  144.7720 C   0  0  0  0  0  1  0  0  0  0  0  0
  185.9510  177.9210  146.3570 C   0  0  0  0  0  2  0  0  0  0  0  0
  185.8120  179.1090  145.4090 C   0  0  0  0  0  2  0  0  0  0  0  0
  184.4480  178.2590  141.1760 C   0  0  0  0  0  2  0  0  0  0  0  0
  185.6220  179.6860  142.8920 C   0  0  1  0  0  3  0  0  0  0  0  0
  185.9630  179.9330  140.5050 O   0  0  0  0  0  1  0  0  0  0  0  0
  185.4580  178.6230  144.0160 C   0  0  1  0  0  0  0  0  0  0  0  0
  187.0630  177.1500  142.6710 C   0  0  0  0  0  2  0  0  0  0  0  0
  185.7290  179.0150  141.5310 C   0  0  2  0  0  0  0  0  0  0  0  0
  183.6550  180.1350  144.2540 O   0  0  0  0  0  1  0  0  0  0  0  0
  185.8100  177.1870  143.6390 C   0  0  0  0  0  2  0  0  0  0  0  0
  186.7810  177.8790  141.3830 C   0  0  0  0  0  2  0  0  0  0  0  0
  184.3010  179.2640  143.3400 C   0  0  1  0  0  0  0  0  0  0  0  0
  183.4600  178.8980  142.1700 C   0  0  2  0  0  3  0  0  0  0  0  0
  181.1010  178.8890  141.8930 C   0  0  1  0  0  0  0  0  0  0  0  0
  181.3270  177.4840  142.0980 O   0  0  0  0  0  0  0  0  0  0  0  0
  182.2340  178.3260  142.7510 C   0  0  1  0  0  3  0  0  0  0  0  0
  181.2930  179.1270  137.5130 C   0  0  0  0  0  3  0  0  0  0  0  0
  181.7830  180.2090  138.2560 C   0  0  0  0  0  3  0  0  0  0  0  0
  181.0740  179.1110  140.3180 C   0  0  0  0  0  0  0  0  0  0  0  0
  181.7630  180.1780  139.6710 C   0  0  0  0  0  3  0  0  0  0  0  0
  180.6650  178.0850  138.1360 C   0  0  0  0  0  3  0  0  0  0  0  0
  179.5040  177.2020  139.9550 O   0  0  0  0  0  1  0  0  0  0  0  0
  180.3740  178.1470  139.4770 C   0  0  0  0  0  0  0  0  0  0  0  0
  180.0140  179.6630  142.7260 C   0  0  0  0  0  2  0  0  0  0  0  0
  179.6740  180.9940  142.3580 O   0  0  0  0  0  1  0  0  0  0  0  0
  1  6  1  0  0  0  0
  2  3  2  0  0  0  0
  3  5  1  0  0  0  0
  3  7  1  0  0  0  0
  4  2  1  0  0  0  0
  4  1  2  0  0  0  0
  6  7  2  0  0  0  0
  8  9  1  6  0  0  0
  8 24  1  0  0  0  0
  8  2  1  0  0  0  0
 10 12  2  0  0  0  0
 10  8  1  0  0  0  0
 11 10  1  0  0  0  0
 13 11  1  0  0  0  0
 14 13  1  0  0  0  0
 15 14  1  0  0  0  0
 16 15  1  0  0  0  0
 17 16  1  0  0  0  0
 18 21  1  0  0  0  0
 18 23  2  0  0  0  0
 19 18  1  0  0  0  0
 22 17  1  0  0  0  0
 22 20  2  0  0  0  0
 22 21  1  0  0  0  0
 25 24  1  0  0  0  0
 26  1  1  0  0  0  0
 27 26  1  0  0  0  0
 28 33  1  0  0  0  0
 28 38  1  0  0  0  0
 29 37  1  0  0  0  0
 29 31  1  0  0  0  0
 30 33  1  0  0  0  0
 31 27  1  0  0  0  0
 32 35  1  0  0  0  0
 33 29  1  0  0  0  0
 35 31  1  0  0  0  0
 36 33  1  0  0  0  0
 36 32  1  0  0  0  0
 37 31  1  0  0  0  0
 37 34  1  0  0  0  0
 38 41  1  0  0  0  0
 38 37  1  0  0  0  0
 39 40  1  0  0  0  0
 39 49  1  0  0  0  0
 39 41  1  0  0  0  0
 40 41  1  0  0  0  0
 42 46  2  0  0  0  0
 42 43  1  0  0  0  0
 43 45  2  0  0  0  0
 44 39  1  0  0  0  0
 45 44  1  0  0  0  0
 46 48  1  0  0  0  0
 48 47  1  0  0  0  0
 48 44  2  0  0  0  0
 50 49  1  0  0  0  0
M  END
>  <MODEL>
2

>  <REMARK>
 VINA RESULT:      -7.5      3.097      8.541
  Name = 
  15 active torsions:
  status: ('A' for Active; 'I' for Inactive)
    1  A    between atoms: C_1  and  C_34
    2  A    between atoms: C_2  and  C_22
    3  A    between atoms: C_4  and  C_20
    4  A    between atoms: C_4  and  C_29
    5  A    between atoms: C_5  and  C_33
    6  A    between atoms: C_5  and  C_49
    7  A    between atoms: O_6  and  C_22
    8  A    between atoms: C_13  and  C_50
    9  A    between atoms: C_18  and  C_22
   10  A    between atoms: C_21  and  C_37
   11  A    between atoms: C_26  and  N_30
   12  A    between atoms: C_26  and  C_48
   13  A    between atoms: C_34  and  C_37
   14  A    between atoms: N_39  and  C_48
   15  A    between atoms: N_39  and  C_49
                            x       y       z     vdW  Elec       q    Type
                         _______ _______ _______ _____ _____    ______ ____

>  <TORSDO>
F 15

$$$$
=
 OpenBabel11062412543D

 50 55  0  0  1  0  0  0  0  0999 V2000
  189.8890  176.7270  139.0940 C   0  0  0  0  0  0  0  0  0  0  0  0
  189.7630  177.4500  141.4360 C   0  0  0  0  0  0  0  0  0  0  0  0
  188.9540  178.5300  141.0900 C   0  0  0  0  0  0  0  0  0  0  0  0
  190.1520  176.5620  140.4720 C   0  0  0  0  0  3  0  0  0  0  0  0
  187.9870  178.9840  141.9840 N   0  0  0  0  0  1  0  0  0  0  0  0
  189.1580  177.7910  138.7450 C   0  0  0  0  0  3  0  0  0  0  0  0
  188.6750  178.6330  139.7120 N   0  0  0  0  0  0  0  0  0  0  0  0
  189.9700  176.8890  142.8930 C   0  0  1  0  0  0  0  0  0  0  0  0
  190.7230  178.0080  143.6240 C   0  0  0  0  0  1  0  0  0  0  0  0
  188.7770  176.5830  143.8720 C   0  0  0  0  0  0  0  0  0  0  0  0
  188.7120  177.0610  145.1980 N   0  0  0  0  0  2  0  0  0  0  0  0
  187.7190  176.1780  143.3240 O   0  0  0  0  0  0  0  0  0  0  0  0
  187.8070  178.1920  145.4400 C   0  0  0  0  0  2  0  0  0  0  0  0
  186.5290  177.7110  146.1110 C   0  0  0  0  0  2  0  0  0  0  0  0
  185.2290  178.3740  145.8340 N   0  0  0  0  0  2  0  0  0  0  0  0
  185.0460  178.2910  144.4200 C   0  0  0  0  0  2  0  0  0  0  0  0
  184.3910  179.5580  143.9020 C   0  0  0  0  0  2  0  0  0  0  0  0
  183.7330  179.0440  140.7840 C   0  0  0  0  0  0  0  0  0  0  0  0
  183.1710  179.1370  139.3090 C   0  0  0  0  0  1  0  0  0  0  0  0
  182.2730  178.6300  144.1440 O   0  0  0  0  0  0  0  0  0  0  0  0
  182.8890  178.6760  141.8450 N   0  0  0  0  0  2  0  0  0  0  0  0
  183.0650  179.0550  143.2490 C   0  0  0  0  0  0  0  0  0  0  0  0
  184.9020  179.3460  140.9620 O   0  0  0  0  0  0  0  0  0  0  0  0
  190.7990  175.7720  142.7190 O   0  0  0  0  0  0  0  0  0  0  0  0
  191.7250  175.6710  143.7690 C   0  0  0  0  0  1  0  0  0  0  0  0
  190.5880  175.8420  138.1120 C   0  0  0  0  0  2  0  0  0  0  0  0
  192.0010  176.3520  137.8380 C   0  0  0  0  0  2  0  0  0  0  0  0
  194.2580  173.4860  135.1550 C   0  0  0  0  0  2  0  0  0  0  0  0
  192.6890  173.9770  137.0670 C   0  0  1  0  0  3  0  0  0  0  0  0
  192.8450  171.8040  136.0060 O   0  0  0  0  0  1  0  0  0  0  0  0
  192.6600  175.5030  136.7670 C   0  0  1  0  0  0  0  0  0  0  0  0
  191.4400  174.9150  134.5940 C   0  0  0  0  0  2  0  0  0  0  0  0
  192.8990  173.1820  135.7870 C   0  0  2  0  0  0  0  0  0  0  0  0
  194.3040  175.1790  138.4340 O   0  0  0  0  0  1  0  0  0  0  0  0
  192.4590  175.8960  135.3060 C   0  0  0  0  0  2  0  0  0  0  0  0
  191.9520  173.4980  134.5940 C   0  0  0  0  0  2  0  0  0  0  0  0
  193.9040  174.7790  137.1340 C   0  0  1  0  0  0  0  0  0  0  0  0
  194.9870  174.1280  136.3510 C   0  0  2  0  0  3  0  0  0  0  0  0
  197.3170  174.3060  136.7740 C   0  0  1  0  0  0  0  0  0  0  0  0
  197.2350  175.0510  135.5470 O   0  0  0  0  0  0  0  0  0  0  0  0
  196.0870  175.1070  136.3450 C   0  0  1  0  0  3  0  0  0  0  0  0
  198.6960  170.2060  136.0220 C   0  0  0  0  0  3  0  0  0  0  0  0
  198.9350  171.1740  135.0380 C   0  0  0  0  0  3  0  0  0  0  0  0
  197.7170  172.8210  136.3670 C   0  0  0  0  0  0  0  0  0  0  0  0
  198.5290  172.5160  135.2360 C   0  0  0  0  0  3  0  0  0  0  0  0
  197.9490  170.5070  137.1260 C   0  0  0  0  0  3  0  0  0  0  0  0
  196.3580  171.8220  138.2100 O   0  0  0  0  0  1  0  0  0  0  0  0
  197.3010  171.7140  137.2210 C   0  0  0  0  0  0  0  0  0  0  0  0
  198.0410  174.9030  138.0350 C   0  0  0  0  0  2  0  0  0  0  0  0
  197.3320  174.9940  139.2650 O   0  0  0  0  0  1  0  0  0  0  0  0
  1  4  1  0  0  0  0
  2  8  1  0  0  0  0
  3  2  1  0  0  0  0
  3  5  1  0  0  0  0
  4  2  2  0  0  0  0
  6  1  2  0  0  0  0
  6  7  1  0  0  0  0
  7  3  2  0  0  0  0
  8  9  1  1  0  0  0
  8 10  1  0  0  0  0
 10 11  1  0  0  0  0
 11 13  1  0  0  0  0
 12 10  2  0  0  0  0
 13 14  1  0  0  0  0
 15 14  1  0  0  0  0
 16 15  1  0  0  0  0
 17 16  1  0  0  0  0
 18 23  2  0  0  0  0
 18 21  1  0  0  0  0
 19 18  1  0  0  0  0
 21 22  1  0  0  0  0
 22 17  1  0  0  0  0
 22 20  2  0  0  0  0
 24  8  1  0  0  0  0
 24 25  1  0  0  0  0
 26  1  1  0  0  0  0
 27 26  1  0  0  0  0
 28 33  1  0  0  0  0
 28 38  1  0  0  0  0
 29 37  1  0  0  0  0
 31 29  1  0  0  0  0
 31 37  1  0  0  0  0
 31 27  1  0  0  0  0
 32 36  1  0  0  0  0
 32 35  1  0  0  0  0
 33 30  1  0  0  0  0
 33 29  1  0  0  0  0
 35 31  1  0  0  0  0
 36 33  1  0  0  0  0
 37 34  1  0  0  0  0
 38 37  1  0  0  0  0
 39 49  1  0  0  0  0
 40 41  1  0  0  0  0
 40 39  1  0  0  0  0
 41 38  1  0  0  0  0
 41 39  1  0  0  0  0
 42 46  1  0  0  0  0
 43 45  1  0  0  0  0
 43 42  2  0  0  0  0
 44 39  1  0  0  0  0
 44 48  1  0  0  0  0
 45 44  2  0  0  0  0
 46 48  2  0  0  0  0
 48 47  1  0  0  0  0
 49 50  1  0  0  0  0
M  END
>  <MODEL>
3

>  <REMARK>
 VINA RESULT:      -7.4      2.917     10.875
  Name = 
  15 active torsions:
  status: ('A' for Active; 'I' for Inactive)
    1  A    between atoms: C_1  and  C_34
    2  A    between atoms: C_2  and  C_22
    3  A    between atoms: C_4  and  C_20
    4  A    between atoms: C_4  and  C_29
    5  A    between atoms: C_5  and  C_33
    6  A    between atoms: C_5  and  C_49
    7  A    between atoms: O_6  and  C_22
    8  A    between atoms: C_13  and  C_50
    9  A    between atoms: C_18  and  C_22
   10  A    between atoms: C_21  and  C_37
   11  A    between atoms: C_26  and  N_30
   12  A    between atoms: C_26  and  C_48
   13  A    between atoms: C_34  and  C_37
   14  A    between atoms: N_39  and  C_48
   15  A    between atoms: N_39  and  C_49
                            x       y       z     vdW  Elec       q    Type
                         _______ _______ _______ _____ _____    ______ ____

>  <TORSDO>
F 15

$$$$
=
 OpenBabel11062412543D

 50 55  0  0  1  0  0  0  0  0999 V2000
  190.7170  173.4120  135.2850 C   0  0  0  0  0  0  0  0  0  0  0  0
  192.8430  173.5660  136.5010 C   0  0  0  0  0  0  0  0  0  0  0  0
  193.2140  172.2930  136.0730 C   0  0  0  0  0  0  0  0  0  0  0  0
  191.6670  174.1090  136.0620 C   0  0  0  0  0  3  0  0  0  0  0  0
  194.5580  172.0030  135.8530 N   0  0  0  0  0  1  0  0  0  0  0  0
  191.0400  172.1680  134.9140 C   0  0  0  0  0  3  0  0  0  0  0  0
  192.2600  171.6490  135.2600 N   0  0  0  0  0  0  0  0  0  0  0  0
  193.8090  174.6420  137.1270 C   0  0  1  0  0  0  0  0  0  0  0  0
  194.9380  174.7780  136.0970 C   0  0  0  0  0  1  0  0  0  0  0  0
  193.3840  176.1370  137.3710 C   0  0  0  0  0  0  0  0  0  0  0  0
  192.4840  176.5370  138.3810 N   0  0  0  0  0  2  0  0  0  0  0  0
  194.1350  177.0040  136.8550 O   0  0  0  0  0  0  0  0  0  0  0  0
  193.0750  177.1590  139.5740 C   0  0  0  0  0  2  0  0  0  0  0  0
  192.0320  177.2880  140.6740 C   0  0  0  0  0  2  0  0  0  0  0  0
  190.6010  176.9930  140.4030 N   0  0  0  0  0  2  0  0  0  0  0  0
  189.8880  177.4480  141.5550 C   0  0  0  0  0  2  0  0  0  0  0  0
  190.0920  176.4840  142.7090 C   0  0  0  0  0  2  0  0  0  0  0  0
  189.8100  177.1330  145.8570 C   0  0  0  0  0  0  0  0  0  0  0  0
  189.5450  177.0470  147.4140 C   0  0  0  0  0  1  0  0  0  0  0  0
  187.7800  176.7130  142.8080 O   0  0  0  0  0  0  0  0  0  0  0  0
  188.7360  177.1120  144.9510 N   0  0  0  0  0  2  0  0  0  0  0  0
  188.7960  176.6450  143.5640 C   0  0  0  0  0  0  0  0  0  0  0  0
  190.9710  177.1710  145.4840 O   0  0  0  0  0  0  0  0  0  0  0  0
  194.2840  174.0390  138.2990 O   0  0  0  0  0  0  0  0  0  0  0  0
  195.6510  174.3060  138.4780 C   0  0  0  0  0  1  0  0  0  0  0  0
  189.3600  174.0100  135.0920 C   0  0  0  0  0  2  0  0  0  0  0  0
  188.7080  174.3120  136.4390 C   0  0  0  0  0  2  0  0  0  0  0  0
  186.5730  178.2760  136.9200 C   0  0  0  0  0  2  0  0  0  0  0  0
  187.8810  176.3260  137.8400 C   0  0  1  0  0  3  0  0  0  0  0  0
  187.6440  178.4340  139.0120 O   0  0  0  0  0  1  0  0  0  0  0  0
  188.1270  175.7130  136.4320 C   0  0  1  0  0  0  0  0  0  0  0  0
  189.5870  177.7590  135.9440 C   0  0  0  0  0  2  0  0  0  0  0  0
  187.7790  177.8420  137.7550 C   0  0  2  0  0  0  0  0  0  0  0  0
  186.2230  174.6230  137.3150 O   0  0  0  0  0  1  0  0  0  0  0  0
  188.5890  176.6830  135.3480 C   0  0  0  0  0  2  0  0  0  0  0  0
  188.9240  178.5880  137.0130 C   0  0  0  0  0  2  0  0  0  0  0  0
  186.7680  175.8950  137.0040 C   0  0  1  0  0  0  0  0  0  0  0  0
  185.7490  176.9750  136.9170 C   0  0  2  0  0  3  0  0  0  0  0  0
  183.4320  176.5380  136.6380 C   0  0  1  0  0  0  0  0  0  0  0  0
  183.7010  177.2240  135.4030 O   0  0  0  0  0  0  0  0  0  0  0  0
  184.7800  176.4970  135.9170 C   0  0  1  0  0  3  0  0  0  0  0  0
  182.1380  179.8880  139.1640 C   0  0  0  0  0  3  0  0  0  0  0  0
  182.9400  178.8950  139.7430 C   0  0  0  0  0  3  0  0  0  0  0  0
  182.8880  177.6380  137.6500 C   0  0  0  0  0  0  0  0  0  0  0  0
  183.4010  177.8020  138.9700 C   0  0  0  0  0  3  0  0  0  0  0  0
  181.6760  179.7490  137.8850 C   0  0  0  0  0  3  0  0  0  0  0  0
  181.1360  178.4180  136.0500 O   0  0  0  0  0  1  0  0  0  0  0  0
  181.8660  178.5750  137.1990 C   0  0  0  0  0  0  0  0  0  0  0  0
  182.6890  175.1520  136.6470 C   0  0  0  0  0  2  0  0  0  0  0  0
  181.7440  174.8770  137.6750 O   0  0  0  0  0  1  0  0  0  0  0  0
  1  4  1  0  0  0  0
  2  8  1  0  0  0  0
  3  2  1  0  0  0  0
  4  2  2  0  0  0  0
  5  3  1  0  0  0  0
  6  7  1  0  0  0  0
  6  1  2  0  0  0  0
  7  3  2  0  0  0  0
  8  9  1  6  0  0  0
  8 10  1  0  0  0  0
  8 24  1  0  0  0  0
 10 11  1  0  0  0  0
 11 13  1  0  0  0  0
 12 10  2  0  0  0  0
 13 14  1  0  0  0  0
 15 14  1  0  0  0  0
 15 16  1  0  0  0  0
 16 17  1  0  0  0  0
 17 22  1  0  0  0  0
 18 19  1  0  0  0  0
 20 22  2  0  0  0  0
 21 18  1  0  0  0  0
 22 21  1  0  0  0  0
 23 18  2  0  0  0  0
 24 25  1  0  0  0  0
 26  1  1  0  0  0  0
 26 27  1  0  0  0  0
 28 33  1  0  0  0  0
 31 27  1  0  0  0  0
 31 37  1  0  0  0  0
 31 29  1  0  0  0  0
 32 36  1  0  0  0  0
 33 29  1  0  0  0  0
 33 30  1  0  0  0  0
 35 32  1  0  0  0  0
 35 31  1  0  0  0  0
 36 33  1  0  0  0  0
 37 34  1  0  0  0  0
 37 29  1  0  0  0  0
 38 28  1  0  0  0  0
 38 37  1  0  0  0  0
 39 49  1  0  0  0  0
 39 44  1  0  0  0  0
 40 41  1  0  0  0  0
 40 39  1  0  0  0  0
 41 39  1  0  0  0  0
 41 38  1  0  0  0  0
 42 43  1  0  0  0  0
 44 45  1  0  0  0  0
 45 43  2  0  0  0  0
 46 42  2  0  0  0  0
 47 48  1  0  0  0  0
 48 44  2  0  0  0  0
 48 46  1  0  0  0  0
 49 50  1  0  0  0  0
M  END
>  <MODEL>
4

>  <REMARK>
 VINA RESULT:      -7.3      2.715      8.583
  Name = 
  15 active torsions:
  status: ('A' for Active; 'I' for Inactive)
    1  A    between atoms: C_1  and  C_34
    2  A    between atoms: C_2  and  C_22
    3  A    between atoms: C_4  and  C_20
    4  A    between atoms: C_4  and  C_29
    5  A    between atoms: C_5  and  C_33
    6  A    between atoms: C_5  and  C_49
    7  A    between atoms: O_6  and  C_22
    8  A    between atoms: C_13  and  C_50
    9  A    between atoms: C_18  and  C_22
   10  A    between atoms: C_21  and  C_37
   11  A    between atoms: C_26  and  N_30
   12  A    between atoms: C_26  and  C_48
   13  A    between atoms: C_34  and  C_37
   14  A    between atoms: N_39  and  C_48
   15  A    between atoms: N_39  and  C_49
                            x       y       z     vdW  Elec       q    Type
                         _______ _______ _______ _____ _____    ______ ____

>  <TORSDO>
F 15

$$$$
=
 OpenBabel11062412543D

 50 55  0  0  1  0  0  0  0  0999 V2000
  184.3710  178.5270  143.0800 C   0  0  0  0  0  0  0  0  0  0  0  0
  182.5420  178.4110  141.4480 C   0  0  0  0  0  0  0  0  0  0  0  0
  181.6260  178.8520  142.4000 C   0  0  0  0  0  0  0  0  0  0  0  0
  183.8660  178.3190  141.7780 C   0  0  0  0  0  3  0  0  0  0  0  0
  180.5380  179.6280  142.0050 N   0  0  0  0  0  1  0  0  0  0  0  0
  183.4900  178.8990  144.0150 C   0  0  0  0  0  3  0  0  0  0  0  0
  182.1770  179.0950  143.6740 N   0  0  0  0  0  0  0  0  0  0  0  0
  182.3030  178.3770  139.8910 C   0  0  1  0  0  0  0  0  0  0  0  0
  183.6260  177.8500  139.3190 C   0  0  0  0  0  1  0  0  0  0  0  0
  181.2370  177.4440  139.2070 C   0  0  0  0  0  0  0  0  0  0  0  0
  181.3900  176.0480  139.0780 N   0  0  0  0  0  2  0  0  0  0  0  0
  180.0870  177.9390  139.0810 O   0  0  0  0  0  0  0  0  0  0  0  0
  180.6120  175.2170  140.0060 C   0  0  0  0  0  2  0  0  0  0  0  0
  179.7910  174.1930  139.2360 C   0  0  0  0  0  2  0  0  0  0  0  0
  179.8020  174.1720  137.7500 N   0  0  0  0  0  2  0  0  0  0  0  0
  180.4650  172.9600  137.3860 C   0  0  0  0  0  2  0  0  0  0  0  0
  181.5230  173.2380  136.3360 C   0  0  0  0  0  2  0  0  0  0  0  0
  184.5460  173.0470  137.4510 C   0  0  0  0  0  0  0  0  0  0  0  0
  186.1150  172.9060  137.5860 C   0  0  0  0  0  1  0  0  0  0  0  0
  181.8070  170.9360  136.1730 O   0  0  0  0  0  0  0  0  0  0  0  0
  183.7600  171.9390  137.0900 N   0  0  0  0  0  2  0  0  0  0  0  0
  182.4630  171.9940  136.4120 C   0  0  0  0  0  0  0  0  0  0  0  0
  184.0620  174.1540  137.6260 O   0  0  0  0  0  0  0  0  0  0  0  0
  182.1180  179.7220  139.5410 O   0  0  0  0  0  0  0  0  0  0  0  0
  183.2010  180.1930  138.7820 C   0  0  0  0  0  1  0  0  0  0  0  0
  185.7840  178.1390  143.3790 C   0  0  0  0  0  2  0  0  0  0  0  0
  186.7400  178.7660  142.3670 C   0  0  0  0  0  2  0  0  0  0  0  0
  190.4330  176.4450  141.1500 C   0  0  0  0  0  2  0  0  0  0  0  0
  189.2910  178.5330  141.9850 C   0  0  1  0  0  3  0  0  0  0  0  0
  191.6740  178.1500  142.2020 O   0  0  0  0  0  1  0  0  0  0  0  0
  187.9070  177.8320  142.1080 C   0  0  1  0  0  0  0  0  0  0  0  0
  188.9360  176.4310  143.9890 C   0  0  0  0  0  2  0  0  0  0  0  0
  190.4190  177.5390  142.2190 C   0  0  2  0  0  0  0  0  0  0  0  0
  187.9320  178.9030  140.0000 O   0  0  0  0  0  1  0  0  0  0  0  0
  187.9050  176.4650  142.7860 C   0  0  0  0  0  2  0  0  0  0  0  0
  190.3440  176.6740  143.5100 C   0  0  0  0  0  2  0  0  0  0  0  0
  188.6260  177.9730  140.8150 C   0  0  1  0  0  0  0  0  0  0  0  0
  189.5690  177.1060  140.0600 C   0  0  2  0  0  3  0  0  0  0  0  0
  189.6520  176.3980  137.7950 C   0  0  1  0  0  0  0  0  0  0  0  0
  189.0160  175.2520  138.3850 O   0  0  0  0  0  0  0  0  0  0  0  0
  188.7430  176.4670  139.0220 C   0  0  1  0  0  3  0  0  0  0  0  0
  193.8620  175.1650  137.9670 C   0  0  0  0  0  3  0  0  0  0  0  0
  193.5540  176.5030  138.2450 C   0  0  0  0  0  3  0  0  0  0  0  0
  191.2060  176.0640  137.7370 C   0  0  0  0  0  0  0  0  0  0  0  0
  192.2110  176.9510  138.2220 C   0  0  0  0  0  3  0  0  0  0  0  0
  192.8920  174.3030  137.5370 C   0  0  0  0  0  3  0  0  0  0  0  0
  190.8200  173.9020  136.5470 O   0  0  0  0  0  1  0  0  0  0  0  0
  191.6350  174.7650  137.2320 C   0  0  0  0  0  0  0  0  0  0  0  0
  189.0400  177.0980  136.5270 C   0  0  0  0  0  2  0  0  0  0  0  0
  188.9990  176.3900  135.2940 O   0  0  0  0  0  1  0  0  0  0  0  0
  1 26  1  0  0  0  0
  1  6  1  0  0  0  0
  2  4  1  0  0  0  0
  2  3  2  0  0  0  0
  3  7  1  0  0  0  0
  4  1  2  0  0  0  0
  5  3  1  0  0  0  0
  7  6  2  0  0  0  0
  8  9  1  6  0  0  0
  8  2  1  0  0  0  0
 10  8  1  0  0  0  0
 11 10  1  0  0  0  0
 11 13  1  0  0  0  0
 12 10  2  0  0  0  0
 14 13  1  0  0  0  0
 15 14  1  0  0  0  0
 16 15  1  0  0  0  0
 17 22  1  0  0  0  0
 17 16  1  0  0  0  0
 18 19  1  0  0  0  0
 18 23  2  0  0  0  0
 20 22  2  0  0  0  0
 21 18  1  0  0  0  0
 22 21  1  0  0  0  0
 24  8  1  0  0  0  0
 25 24  1  0  0  0  0
 27 26  1  0  0  0  0
 28 33  1  0  0  0  0
 29 31  1  0  0  0  0
 29 33  1  0  0  0  0
 30 33  1  0  0  0  0
 31 27  1  0  0  0  0
 31 35  1  0  0  0  0
 33 36  1  0  0  0  0
 34 37  1  0  0  0  0
 35 32  1  0  0  0  0
 36 32  1  0  0  0  0
 37 29  1  0  0  0  0
 37 31  1  0  0  0  0
 38 37  1  0  0  0  0
 38 28  1  0  0  0  0
 39 40  1  0  0  0  0
 39 41  1  0  0  0  0
 40 41  1  0  0  0  0
 41 38  1  0  0  0  0
 42 43  1  0  0  0  0
 44 39  1  0  0  0  0
 44 45  1  0  0  0  0
 45 43  2  0  0  0  0
 46 42  2  0  0  0  0
 47 48  1  0  0  0  0
 48 46  1  0  0  0  0
 48 44  2  0  0  0  0
 49 39  1  0  0  0  0
 50 49  1  0  0  0  0
M  END
>  <MODEL>
5

>  <REMARK>
 VINA RESULT:      -7.3      3.377      8.050
  Name = 
  15 active torsions:
  status: ('A' for Active; 'I' for Inactive)
    1  A    between atoms: C_1  and  C_34
    2  A    between atoms: C_2  and  C_22
    3  A    between atoms: C_4  and  C_20
    4  A    between atoms: C_4  and  C_29
    5  A    between atoms: C_5  and  C_33
    6  A    between atoms: C_5  and  C_49
    7  A    between atoms: O_6  and  C_22
    8  A    between atoms: C_13  and  C_50
    9  A    between atoms: C_18  and  C_22
   10  A    between atoms: C_21  and  C_37
   11  A    between atoms: C_26  and  N_30
   12  A    between atoms: C_26  and  C_48
   13  A    between atoms: C_34  and  C_37
   14  A    between atoms: N_39  and  C_48
   15  A    between atoms: N_39  and  C_49
                            x       y       z     vdW  Elec       q    Type
                         _______ _______ _______ _____ _____    ______ ____

>  <TORSDO>
F 15

$$$$
=
 OpenBabel11062412543D

 50 55  0  0  1  0  0  0  0  0999 V2000
  185.7300  178.6370  141.1720 C   0  0  0  0  0  0  0  0  0  0  0  0
  188.0380  177.8510  140.8960 C   0  0  0  0  0  0  0  0  0  0  0  0
  188.0500  177.3390  142.1910 C   0  0  0  0  0  0  0  0  0  0  0  0
  186.8940  178.4170  140.4040 C   0  0  0  0  0  3  0  0  0  0  0  0
  188.7980  176.2000  142.4780 N   0  0  0  0  0  1  0  0  0  0  0  0
  185.7500  178.1980  142.4350 C   0  0  0  0  0  3  0  0  0  0  0  0
  186.8530  177.5370  142.9090 N   0  0  0  0  0  0  0  0  0  0  0  0
  189.0750  177.5020  139.7620 C   0  0  1  0  0  0  0  0  0  0  0  0
  189.1890  178.7960  138.9460 C   0  0  0  0  0  1  0  0  0  0  0  0
  190.5790  177.1470  140.0560 C   0  0  0  0  0  0  0  0  0  0  0  0
  191.3940  177.8780  140.9460 N   0  0  0  0  0  2  0  0  0  0  0  0
  190.9350  175.9860  139.7290 O   0  0  0  0  0  0  0  0  0  0  0  0
  191.6390  177.2670  142.2590 C   0  0  0  0  0  2  0  0  0  0  0  0
  191.5770  178.3230  143.3530 C   0  0  0  0  0  2  0  0  0  0  0  0
  191.4630  177.9320  144.7820 N   0  0  0  0  0  2  0  0  0  0  0  0
  190.0880  178.1200  145.1240 C   0  0  0  0  0  2  0  0  0  0  0  0
  189.6260  177.0160  146.0570 C   0  0  0  0  0  2  0  0  0  0  0  0
  186.5770  177.8360  146.7220 C   0  0  0  0  0  0  0  0  0  0  0  0
  185.2280  178.6250  146.9620 C   0  0  0  0  0  1  0  0  0  0  0  0
  189.9570  177.8760  148.1920 O   0  0  0  0  0  0  0  0  0  0  0  0
  187.6490  177.9680  147.6200 N   0  0  0  0  0  2  0  0  0  0  0  0
  189.0650  177.7820  147.2950 C   0  0  0  0  0  0  0  0  0  0  0  0
  186.6580  177.1540  145.7120 O   0  0  0  0  0  0  0  0  0  0  0  0
  188.4430  176.5020  139.0110 O   0  0  0  0  0  0  0  0  0  0  0  0
  188.4600  176.8210  137.6430 C   0  0  0  0  0  1  0  0  0  0  0  0
  184.6440  179.5000  140.6100 C   0  0  0  0  0  2  0  0  0  0  0  0
  184.5750  179.3580  139.0920 C   0  0  0  0  0  2  0  0  0  0  0  0
  181.2650  176.4850  137.9570 C   0  0  0  0  0  2  0  0  0  0  0  0
  183.1160  177.2550  139.4860 C   0  0  1  0  0  3  0  0  0  0  0  0
  181.4110  175.6710  140.1630 O   0  0  0  0  0  1  0  0  0  0  0  0
  183.3340  178.5800  138.6990 C   0  0  1  0  0  0  0  0  0  0  0  0
  181.0080  179.2840  139.5060 C   0  0  0  0  0  2  0  0  0  0  0  0
  181.6630  176.8110  139.3970 C   0  0  2  0  0  0  0  0  0  0  0  0
  184.9130  177.0320  137.8600 O   0  0  0  0  0  1  0  0  0  0  0  0
  182.0740  179.3600  138.3370 C   0  0  0  0  0  2  0  0  0  0  0  0
  180.5780  177.8630  139.7620 C   0  0  0  0  0  2  0  0  0  0  0  0
  183.5290  177.2390  138.0880 C   0  0  1  0  0  0  0  0  0  0  0  0
  182.6530  176.3240  137.3100 C   0  0  2  0  0  3  0  0  0  0  0  0
  183.4120  175.1330  135.4000 C   0  0  1  0  0  0  0  0  0  0  0  0
  182.4220  175.9750  134.7850 O   0  0  0  0  0  0  0  0  0  0  0  0
  183.0470  176.5300  135.9060 C   0  0  1  0  0  3  0  0  0  0  0  0
  181.7840  171.1120  136.0780 C   0  0  0  0  0  3  0  0  0  0  0  0
  181.0490  171.9970  135.2780 C   0  0  0  0  0  3  0  0  0  0  0  0
  182.6890  173.7510  135.7150 C   0  0  0  0  0  0  0  0  0  0  0  0
  181.5360  173.2990  135.0100 C   0  0  0  0  0  3  0  0  0  0  0  0
  182.9110  171.5350  136.7250 C   0  0  0  0  0  3  0  0  0  0  0  0
  184.2300  173.2400  137.6130 O   0  0  0  0  0  1  0  0  0  0  0  0
  183.2630  172.8630  136.7190 C   0  0  0  0  0  0  0  0  0  0  0  0
  184.8700  175.0420  134.8180 C   0  0  0  0  0  2  0  0  0  0  0  0
  185.9790  175.1780  135.6990 O   0  0  0  0  0  1  0  0  0  0  0  0
  1  6  1  0  0  0  0
  2  3  2  0  0  0  0
  3  5  1  0  0  0  0
  3  7  1  0  0  0  0
  4  2  1  0  0  0  0
  4  1  2  0  0  0  0
  6  7  2  0  0  0  0
  8  9  1  6  0  0  0
  8 10  1  0  0  0  0
  8  2  1  0  0  0  0
 10 11  1  0  0  0  0
 11 13  1  0  0  0  0
 12 10  2  0  0  0  0
 13 14  1  0  0  0  0
 14 15  1  0  0  0  0
 15 16  1  0  0  0  0
 16 17  1  0  0  0  0
 17 22  1  0  0  0  0
 18 19  1  0  0  0  0
 18 21  1  0  0  0  0
 22 21  1  0  0  0  0
 22 20  2  0  0  0  0
 23 18  2  0  0  0  0
 24  8  1  0  0  0  0
 25 24  1  0  0  0  0
 26  1  1  0  0  0  0
 27 26  1  0  0  0  0
 28 33  1  0  0  0  0
 31 27  1  0  0  0  0
 31 29  1  0  0  0  0
 32 36  1  0  0  0  0
 33 29  1  0  0  0  0
 33 36  1  0  0  0  0
 33 30  1  0  0  0  0
 34 37  1  0  0  0  0
 35 31  1  0  0  0  0
 35 32  1  0  0  0  0
 37 31  1  0  0  0  0
 37 29  1  0  0  0  0
 38 28  1  0  0  0  0
 38 37  1  0  0  0  0
 39 44  1  0  0  0  0
 39 41  1  0  0  0  0
 40 39  1  0  0  0  0
 40 41  1  0  0  0  0
 41 38  1  0  0  0  0
 42 46  1  0  0  0  0
 43 42  2  0  0  0  0
 44 48  1  0  0  0  0
 45 43  1  0  0  0  0
 45 44  2  0  0  0  0
 48 46  2  0  0  0  0
 48 47  1  0  0  0  0
 49 39  1  0  0  0  0
 49 50  1  0  0  0  0
M  END
>  <MODEL>
6

>  <REMARK>
 VINA RESULT:      -7.3      3.436      8.574
  Name = 
  15 active torsions:
  status: ('A' for Active; 'I' for Inactive)
    1  A    between atoms: C_1  and  C_34
    2  A    between atoms: C_2  and  C_22
    3  A    between atoms: C_4  and  C_20
    4  A    between atoms: C_4  and  C_29
    5  A    between atoms: C_5  and  C_33
    6  A    between atoms: C_5  and  C_49
    7  A    between atoms: O_6  and  C_22
    8  A    between atoms: C_13  and  C_50
    9  A    between atoms: C_18  and  C_22
   10  A    between atoms: C_21  and  C_37
   11  A    between atoms: C_26  and  N_30
   12  A    between atoms: C_26  and  C_48
   13  A    between atoms: C_34  and  C_37
   14  A    between atoms: N_39  and  C_48
   15  A    between atoms: N_39  and  C_49
                            x       y       z     vdW  Elec       q    Type
                         _______ _______ _______ _____ _____    ______ ____

>  <TORSDO>
F 15

$$$$
=
 OpenBabel11062412543D

 50 55  0  0  1  0  0  0  0  0999 V2000
  185.2430  178.7120  144.9850 C   0  0  0  0  0  0  0  0  0  0  0  0
  187.5670  177.9430  145.1420 C   0  0  0  0  0  0  0  0  0  0  0  0
  187.5030  177.9390  146.5340 C   0  0  0  0  0  0  0  0  0  0  0  0
  186.4530  178.2600  144.4160 C   0  0  0  0  0  3  0  0  0  0  0  0
  188.2390  177.0040  147.2570 N   0  0  0  0  0  1  0  0  0  0  0  0
  185.1880  178.7650  146.3200 C   0  0  0  0  0  3  0  0  0  0  0  0
  186.2630  178.3520  147.0620 N   0  0  0  0  0  0  0  0  0  0  0  0
  188.6740  177.2350  144.2730 C   0  0  1  0  0  0  0  0  0  0  0  0
  187.9310  176.0830  143.5840 C   0  0  0  0  0  1  0  0  0  0  0  0
  189.4040  177.9410  143.0720 C   0  0  0  0  0  0  0  0  0  0  0  0
  189.2940  177.5140  141.7320 N   0  0  0  0  0  2  0  0  0  0  0  0
  189.8180  179.1070  143.3010 O   0  0  0  0  0  0  0  0  0  0  0  0
  188.4190  178.3110  140.8610 C   0  0  0  0  0  2  0  0  0  0  0  0
  188.9050  178.2450  139.4220 C   0  0  0  0  0  2  0  0  0  0  0  0
  188.8310  176.9770  138.6510 N   0  0  0  0  0  2  0  0  0  0  0  0
  190.1810  176.6480  138.3180 C   0  0  0  0  0  2  0  0  0  0  0  0
  190.2440  176.0420  136.9290 C   0  0  0  0  0  2  0  0  0  0  0  0
  187.3100  175.3390  135.7830 C   0  0  0  0  0  0  0  0  0  0  0  0
  185.7690  175.0160  135.6310 C   0  0  0  0  0  1  0  0  0  0  0  0
  190.1740  173.7930  137.5130 O   0  0  0  0  0  0  0  0  0  0  0  0
  188.1800  174.4030  136.3680 N   0  0  0  0  0  2  0  0  0  0  0  0
  189.4320  174.7160  137.0610 C   0  0  0  0  0  0  0  0  0  0  0  0
  187.6940  176.4390  135.4160 O   0  0  0  0  0  0  0  0  0  0  0  0
  189.5860  176.7370  145.2140 O   0  0  0  0  0  0  0  0  0  0  0  0
  190.8760  176.6610  144.6650 C   0  0  0  0  0  1  0  0  0  0  0  0
  184.1890  179.2820  144.0880 C   0  0  0  0  0  2  0  0  0  0  0  0
  182.8500  178.5890  144.3230 C   0  0  0  0  0  2  0  0  0  0  0  0
  180.3020  178.9470  140.5970 C   0  0  0  0  0  2  0  0  0  0  0  0
  181.2220  177.6390  142.5470 C   0  0  1  0  0  3  0  0  0  0  0  0
  179.2850  176.9330  141.2740 O   0  0  0  0  0  1  0  0  0  0  0  0
  181.9020  178.8880  143.1770 C   0  0  1  0  0  0  0  0  0  0  0  0
  179.5440  179.7910  143.5990 C   0  0  0  0  0  2  0  0  0  0  0  0
  179.9690  178.0390  141.7820 C   0  0  2  0  0  0  0  0  0  0  0  0
  183.5610  177.7980  141.8930 O   0  0  0  0  0  1  0  0  0  0  0  0
  181.0470  180.1500  143.2550 C   0  0  0  0  0  2  0  0  0  0  0  0
  178.9310  178.9200  142.5340 C   0  0  0  0  0  2  0  0  0  0  0  0
  182.2640  178.3670  141.8330 C   0  0  1  0  0  0  0  0  0  0  0  0
  181.8120  178.6780  140.4520 C   0  0  2  0  0  3  0  0  0  0  0  0
  183.4260  178.7820  138.7130 C   0  0  1  0  0  0  0  0  0  0  0  0
  182.8790  180.1080  138.6170 O   0  0  0  0  0  0  0  0  0  0  0  0
  182.8580  179.5570  139.9030 C   0  0  1  0  0  3  0  0  0  0  0  0
  181.6760  176.1840  135.6360 C   0  0  0  0  0  3  0  0  0  0  0  0
  181.4490  177.5640  135.5450 C   0  0  0  0  0  3  0  0  0  0  0  0
  182.6430  177.8980  137.6480 C   0  0  0  0  0  0  0  0  0  0  0  0
  182.0040  178.4490  136.4990 C   0  0  0  0  0  3  0  0  0  0  0  0
  182.3220  175.6580  136.7200 C   0  0  0  0  0  3  0  0  0  0  0  0
  183.0110  175.7940  138.9430 O   0  0  0  0  0  1  0  0  0  0  0  0
  182.6290  176.4480  137.8000 C   0  0  0  0  0  0  0  0  0  0  0  0
  184.9790  178.5530  138.8050 C   0  0  0  0  0  2  0  0  0  0  0  0
  185.6920  178.1510  137.6410 O   0  0  0  0  0  1  0  0  0  0  0  0
  1  6  1  0  0  0  0
  2  3  2  0  0  0  0
  3  7  1  0  0  0  0
  3  5  1  0  0  0  0
  4  1  2  0  0  0  0
  4  2  1  0  0  0  0
  6  7  2  0  0  0  0
  8  9  1  6  0  0  0
  8  2  1  0  0  0  0
  8 24  1  0  0  0  0
 10 12  2  0  0  0  0
 10  8  1  0  0  0  0
 11 10  1  0  0  0  0
 13 11  1  0  0  0  0
 14 13  1  0  0  0  0
 15 14  1  0  0  0  0
 16 15  1  0  0  0  0
 17 22  1  0  0  0  0
 17 16  1  0  0  0  0
 18 21  1  0  0  0  0
 19 18  1  0  0  0  0
 21 22  1  0  0  0  0
 22 20  2  0  0  0  0
 23 18  2  0  0  0  0
 25 24  1  0  0  0  0
 26 27  1  0  0  0  0
 26  1  1  0  0  0  0
 28 33  1  0  0  0  0
 29 31  1  0  0  0  0
 30 33  1  0  0  0  0
 31 35  1  0  0  0  0
 31 27  1  0  0  0  0
 33 36  1  0  0  0  0
 33 29  1  0  0  0  0
 35 32  1  0  0  0  0
 36 32  1  0  0  0  0
 37 34  1  0  0  0  0
 37 29  1  0  0  0  0
 37 31  1  0  0  0  0
 38 28  1  0  0  0  0
 38 37  1  0  0  0  0
 39 49  1  0  0  0  0
 39 41  1  0  0  0  0
 40 39  1  0  0  0  0
 40 41  1  0  0  0  0
 41 38  1  0  0  0  0
 42 46  1  0  0  0  0
 43 42  2  0  0  0  0
 43 45  1  0  0  0  0
 44 48  1  0  0  0  0
 44 39  1  0  0  0  0
 45 44  2  0  0  0  0
 46 48  2  0  0  0  0
 48 47  1  0  0  0  0
 50 49  1  0  0  0  0
M  END
>  <MODEL>
7

>  <REMARK>
 VINA RESULT:      -7.2      3.121      7.910
  Name = 
  15 active torsions:
  status: ('A' for Active; 'I' for Inactive)
    1  A    between atoms: C_1  and  C_34
    2  A    between atoms: C_2  and  C_22
    3  A    between atoms: C_4  and  C_20
    4  A    between atoms: C_4  and  C_29
    5  A    between atoms: C_5  and  C_33
    6  A    between atoms: C_5  and  C_49
    7  A    between atoms: O_6  and  C_22
    8  A    between atoms: C_13  and  C_50
    9  A    between atoms: C_18  and  C_22
   10  A    between atoms: C_21  and  C_37
   11  A    between atoms: C_26  and  N_30
   12  A    between atoms: C_26  and  C_48
   13  A    between atoms: C_34  and  C_37
   14  A    between atoms: N_39  and  C_48
   15  A    between atoms: N_39  and  C_49
                            x       y       z     vdW  Elec       q    Type
                         _______ _______ _______ _____ _____    ______ ____

>  <TORSDO>
F 15

$$$$
=
 OpenBabel11062412543D

 50 55  0  0  1  0  0  0  0  0999 V2000
  185.3010  178.7090  144.8930 C   0  0  0  0  0  0  0  0  0  0  0  0
  187.6200  177.9120  144.9730 C   0  0  0  0  0  0  0  0  0  0  0  0
  187.5910  177.8770  146.3650 C   0  0  0  0  0  0  0  0  0  0  0  0
  186.4910  178.2570  144.2830 C   0  0  0  0  0  3  0  0  0  0  0  0
  188.3350  176.9170  147.0480 N   0  0  0  0  0  1  0  0  0  0  0  0
  185.2810  178.7320  146.2300 C   0  0  0  0  0  3  0  0  0  0  0  0
  186.3710  178.2910  146.9350 N   0  0  0  0  0  0  0  0  0  0  0  0
  188.6960  177.2110  144.0590 C   0  0  1  0  0  0  0  0  0  0  0  0
  187.9400  176.0400  143.4180 C   0  0  0  0  0  1  0  0  0  0  0  0
  189.3550  177.9160  142.8160 C   0  0  0  0  0  0  0  0  0  0  0  0
  189.1410  177.5070  141.4830 N   0  0  0  0  0  2  0  0  0  0  0  0
  189.8110  179.0690  143.0270 O   0  0  0  0  0  0  0  0  0  0  0  0
  188.2260  178.3340  140.6850 C   0  0  0  0  0  2  0  0  0  0  0  0
  188.7650  178.5060  139.2730 C   0  0  0  0  0  2  0  0  0  0  0  0
  188.8880  177.3400  138.3590 N   0  0  0  0  0  2  0  0  0  0  0  0
  190.2720  177.2650  138.0140 C   0  0  0  0  0  2  0  0  0  0  0  0
  190.9010  176.0330  138.6380 C   0  0  0  0  0  2  0  0  0  0  0  0
  193.6670  175.2990  137.1460 C   0  0  0  0  0  0  0  0  0  0  0  0
  195.0850  174.7110  136.7670 C   0  0  0  0  0  1  0  0  0  0  0  0
  192.3240  177.4170  139.8480 O   0  0  0  0  0  0  0  0  0  0  0  0
  193.5440  176.2600  138.1630 N   0  0  0  0  0  2  0  0  0  0  0  0
  192.3530  176.4890  138.9850 C   0  0  0  0  0  0  0  0  0  0  0  0
  192.6960  174.8520  136.5570 O   0  0  0  0  0  0  0  0  0  0  0  0
  189.6600  176.7390  144.9600 O   0  0  0  0  0  0  0  0  0  0  0  0
  190.8310  176.3620  144.2840 C   0  0  0  0  0  1  0  0  0  0  0  0
  184.2310  179.3100  144.0370 C   0  0  0  0  0  2  0  0  0  0  0  0
  182.8810  178.6570  144.3250 C   0  0  0  0  0  2  0  0  0  0  0  0
  180.2890  178.9390  140.6230 C   0  0  0  0  0  2  0  0  0  0  0  0
  181.2420  177.6680  142.5820 C   0  0  1  0  0  3  0  0  0  0  0  0
  179.2960  176.9270  141.3420 O   0  0  0  0  0  1  0  0  0  0  0  0
  181.9180  178.9320  143.1860 C   0  0  1  0  0  0  0  0  0  0  0  0
  179.5580  179.8220  143.6210 C   0  0  0  0  0  2  0  0  0  0  0  0
  179.9770  178.0460  141.8250 C   0  0  2  0  0  0  0  0  0  0  0  0
  183.5720  177.8360  141.8990 O   0  0  0  0  0  1  0  0  0  0  0  0
  181.0550  180.1880  143.2550 C   0  0  0  0  0  2  0  0  0  0  0  0
  178.9400  178.9300  142.5760 C   0  0  0  0  0  2  0  0  0  0  0  0
  182.2690  178.3940  141.8460 C   0  0  1  0  0  0  0  0  0  0  0  0
  181.7990  178.6800  140.4650 C   0  0  2  0  0  3  0  0  0  0  0  0
  183.4070  178.7620  138.7200 C   0  0  1  0  0  0  0  0  0  0  0  0
  182.8420  180.0780  138.5920 O   0  0  0  0  0  0  0  0  0  0  0  0
  182.8320  179.5590  139.8910 C   0  0  1  0  0  3  0  0  0  0  0  0
  181.6840  176.0730  135.7070 C   0  0  0  0  0  3  0  0  0  0  0  0
  181.4190  177.4440  135.5980 C   0  0  0  0  0  3  0  0  0  0  0  0
  182.6330  177.8420  137.6780 C   0  0  0  0  0  0  0  0  0  0  0  0
  181.9640  178.3590  136.5310 C   0  0  0  0  0  3  0  0  0  0  0  0
  182.3590  175.5800  136.7890 C   0  0  0  0  0  3  0  0  0  0  0  0
  183.0750  175.7690  139.0000 O   0  0  0  0  0  1  0  0  0  0  0  0
  182.6590  176.3940  137.8530 C   0  0  0  0  0  0  0  0  0  0  0  0
  184.9640  178.5560  138.8120 C   0  0  0  0  0  2  0  0  0  0  0  0
  185.6960  178.2590  137.6290 O   0  0  0  0  0  1  0  0  0  0  0  0
  1  6  1  0  0  0  0
  2  3  2  0  0  0  0
  3  7  1  0  0  0  0
  3  5  1  0  0  0  0
  4  1  2  0  0  0  0
  4  2  1  0  0  0  0
  6  7  2  0  0  0  0
  8  9  1  6  0  0  0
  8 24  1  0  0  0  0
  8  2  1  0  0  0  0
 10 12  2  0  0  0  0
 10  8  1  0  0  0  0
 11 10  1  0  0  0  0
 13 11  1  0  0  0  0
 14 13  1  0  0  0  0
 15 14  1  0  0  0  0
 16 15  1  0  0  0  0
 16 17  1  0  0  0  0
 17 22  1  0  0  0  0
 18 21  1  0  0  0  0
 19 18  1  0  0  0  0
 21 22  1  0  0  0  0
 22 20  2  0  0  0  0
 23 18  2  0  0  0  0
 25 24  1  0  0  0  0
 26 27  1  0  0  0  0
 26  1  1  0  0  0  0
 28 33  1  0  0  0  0
 29 31  1  0  0  0  0
 30 33  1  0  0  0  0
 31 35  1  0  0  0  0
 31 27  1  0  0  0  0
 33 36  1  0  0  0  0
 33 29  1  0  0  0  0
 35 32  1  0  0  0  0
 36 32  1  0  0  0  0
 37 34  1  0  0  0  0
 37 29  1  0  0  0  0
 37 31  1  0  0  0  0
 38 28  1  0  0  0  0
 38 37  1  0  0  0  0
 39 49  1  0  0  0  0
 39 41  1  0  0  0  0
 40 39  1  0  0  0  0
 40 41  1  0  0  0  0
 41 38  1  0  0  0  0
 42 46  1  0  0  0  0
 43 42  2  0  0  0  0
 43 45  1  0  0  0  0
 44 48  1  0  0  0  0
 44 39  1  0  0  0  0
 45 44  2  0  0  0  0
 46 48  2  0  0  0  0
 48 47  1  0  0  0  0
 50 49  1  0  0  0  0
M  END
>  <MODEL>
8

>  <REMARK>
 VINA RESULT:      -7.2      3.015      7.365
  Name = 
  15 active torsions:
  status: ('A' for Active; 'I' for Inactive)
    1  A    between atoms: C_1  and  C_34
    2  A    between atoms: C_2  and  C_22
    3  A    between atoms: C_4  and  C_20
    4  A    between atoms: C_4  and  C_29
    5  A    between atoms: C_5  and  C_33
    6  A    between atoms: C_5  and  C_49
    7  A    between atoms: O_6  and  C_22
    8  A    between atoms: C_13  and  C_50
    9  A    between atoms: C_18  and  C_22
   10  A    between atoms: C_21  and  C_37
   11  A    between atoms: C_26  and  N_30
   12  A    between atoms: C_26  and  C_48
   13  A    between atoms: C_34  and  C_37
   14  A    between atoms: N_39  and  C_48
   15  A    between atoms: N_39  and  C_49
                            x       y       z     vdW  Elec       q    Type
                         _______ _______ _______ _____ _____    ______ ____

>  <TORSDO>
F 15

$$$$
=
 OpenBabel11062412543D

 50 55  0  0  1  0  0  0  0  0999 V2000
  183.2970  178.8260  138.9000 C   0  0  0  0  0  0  0  0  0  0  0  0
  181.1640  177.7130  138.4180 C   0  0  0  0  0  0  0  0  0  0  0  0
  180.5520  178.9360  138.1550 C   0  0  0  0  0  0  0  0  0  0  0  0
  182.4990  177.6770  138.7160 C   0  0  0  0  0  3  0  0  0  0  0  0
  179.5350  179.0100  137.2060 N   0  0  0  0  0  1  0  0  0  0  0  0
  182.7040  180.0090  138.7040 C   0  0  0  0  0  3  0  0  0  0  0  0
  181.3940  180.0560  138.3050 N   0  0  0  0  0  0  0  0  0  0  0  0
  180.5940  176.2980  138.0240 C   0  0  1  0  0  0  0  0  0  0  0  0
  179.0870  176.4130  138.2870 C   0  0  0  0  0  1  0  0  0  0  0  0
  180.6460  175.7310  136.5580 C   0  0  0  0  0  0  0  0  0  0  0  0
  181.3180  176.3720  135.4960 N   0  0  0  0  0  2  0  0  0  0  0  0
  180.3530  174.5130  136.4390 O   0  0  0  0  0  0  0  0  0  0  0  0
  182.6120  175.7980  135.1010 C   0  0  0  0  0  2  0  0  0  0  0  0
  183.7510  176.6840  135.5830 C   0  0  0  0  0  2  0  0  0  0  0  0
  185.1170  176.1300  135.7710 N   0  0  0  0  0  2  0  0  0  0  0  0
  185.9120  177.2180  136.2480 C   0  0  0  0  0  2  0  0  0  0  0  0
  186.9270  176.7190  137.2590 C   0  0  0  0  0  2  0  0  0  0  0  0
  190.1310  176.5500  137.6080 C   0  0  0  0  0  0  0  0  0  0  0  0
  191.6090  176.6130  138.1650 C   0  0  0  0  0  1  0  0  0  0  0  0
  187.4180  178.9810  137.0410 O   0  0  0  0  0  0  0  0  0  0  0  0
  189.4220  177.7330  137.3340 N   0  0  0  0  0  2  0  0  0  0  0  0
  187.9650  177.8810  137.3520 C   0  0  0  0  0  0  0  0  0  0  0  0
  189.6260  175.4470  137.4730 O   0  0  0  0  0  0  0  0  0  0  0  0
  181.1870  175.4190  138.9420 O   0  0  0  0  0  0  0  0  0  0  0  0
  180.2610  175.0230  139.9200 C   0  0  0  0  0  1  0  0  0  0  0  0
  184.6660  178.6710  139.4830 C   0  0  0  0  0  2  0  0  0  0  0  0
  184.8760  179.6510  140.6340 C   0  0  0  0  0  2  0  0  0  0  0  0
  185.6870  177.7410  144.6590 C   0  0  0  0  0  2  0  0  0  0  0  0
  185.4040  179.7550  143.1670 C   0  0  1  0  0  3  0  0  0  0  0  0
  185.3040  179.8730  145.5850 O   0  0  0  0  0  1  0  0  0  0  0  0
  184.9530  178.8980  141.9490 C   0  0  1  0  0  0  0  0  0  0  0  0
  182.8460  178.3420  143.2920 C   0  0  0  0  0  2  0  0  0  0  0  0
  184.9910  179.0910  144.4720 C   0  0  2  0  0  0  0  0  0  0  0  0
  187.2770  179.2580  141.6930 O   0  0  0  0  0  1  0  0  0  0  0  0
  183.9050  177.8270  142.2330 C   0  0  0  0  0  2  0  0  0  0  0  0
  183.5010  178.6650  144.6090 C   0  0  0  0  0  2  0  0  0  0  0  0
  186.2910  178.7570  142.5810 C   0  0  1  0  0  0  0  0  0  0  0  0
  186.8390  177.8760  143.6460 C   0  0  2  0  0  3  0  0  0  0  0  0
  188.9970  176.9070  143.4400 C   0  0  1  0  0  0  0  0  0  0  0  0
  188.1990  175.7130  143.4980 O   0  0  0  0  0  0  0  0  0  0  0  0
  187.5610  176.8170  142.9220 C   0  0  1  0  0  3  0  0  0  0  0  0
  190.3530  177.2140  147.6050 C   0  0  0  0  0  3  0  0  0  0  0  0
  189.1600  177.8560  147.2490 C   0  0  0  0  0  3  0  0  0  0  0  0
  189.4930  177.1840  144.9260 C   0  0  0  0  0  0  0  0  0  0  0  0
  188.6660  177.7750  145.9250 C   0  0  0  0  0  3  0  0  0  0  0  0
  191.1290  176.6140  146.6530 C   0  0  0  0  0  3  0  0  0  0  0  0
  191.8030  176.3680  144.4350 O   0  0  0  0  0  1  0  0  0  0  0  0
  190.8300  176.7540  145.3200 C   0  0  0  0  0  0  0  0  0  0  0  0
  190.0600  177.1140  142.2990 C   0  0  0  0  0  2  0  0  0  0  0  0
  190.4160  176.0130  141.4730 O   0  0  0  0  0  1  0  0  0  0  0  0
  1 26  1  0  0  0  0
  2  4  2  0  0  0  0
  3  7  2  0  0  0  0
  3  2  1  0  0  0  0
  4  1  1  0  0  0  0
  5  3  1  0  0  0  0
  6  1  2  0  0  0  0
  7  6  1  0  0  0  0
  8  9  1  1  0  0  0
  8  2  1  0  0  0  0
  8 24  1  0  0  0  0
 10  8  1  0  0  0  0
 11 10  1  0  0  0  0
 12 10  2  0  0  0  0
 13 11  1  0  0  0  0
 13 14  1  0  0  0  0
 14 15  1  0  0  0  0
 15 16  1  0  0  0  0
 16 17  1  0  0  0  0
 17 22  1  0  0  0  0
 18 19  1  0  0  0  0
 20 22  2  0  0  0  0
 21 22  1  0  0  0  0
 21 18  1  0  0  0  0
 23 18  2  0  0  0  0
 24 25  1  0  0  0  0
 26 27  1  0  0  0  0
 27 31  1  0  0  0  0
 29 33  1  0  0  0  0
 31 35  1  0  0  0  0
 31 37  1  0  0  0  0
 31 29  1  0  0  0  0
 32 36  1  0  0  0  0
 33 36  1  0  0  0  0
 33 28  1  0  0  0  0
 33 30  1  0  0  0  0
 34 37  1  0  0  0  0
 35 32  1  0  0  0  0
 37 29  1  0  0  0  0
 37 38  1  0  0  0  0
 38 28  1  0  0  0  0
 39 40  1  0  0  0  0
 39 44  1  0  0  0  0
 41 39  1  0  0  0  0
 41 40  1  0  0  0  0
 41 38  1  0  0  0  0
 43 42  1  0  0  0  0
 44 48  2  0  0  0  0
 44 45  1  0  0  0  0
 45 43  2  0  0  0  0
 46 42  2  0  0  0  0
 47 48  1  0  0  0  0
 48 46  1  0  0  0  0
 49 39  1  0  0  0  0
 50 49  1  0  0  0  0
M  END
>  <MODEL>
9

>  <REMARK>
 VINA RESULT:      -7.2      2.327      4.874
  Name = 
  15 active torsions:
  status: ('A' for Active; 'I' for Inactive)
    1  A    between atoms: C_1  and  C_34
    2  A    between atoms: C_2  and  C_22
    3  A    between atoms: C_4  and  C_20
    4  A    between atoms: C_4  and  C_29
    5  A    between atoms: C_5  and  C_33
    6  A    between atoms: C_5  and  C_49
    7  A    between atoms: O_6  and  C_22
    8  A    between atoms: C_13  and  C_50
    9  A    between atoms: C_18  and  C_22
   10  A    between atoms: C_21  and  C_37
   11  A    between atoms: C_26  and  N_30
   12  A    between atoms: C_26  and  C_48
   13  A    between atoms: C_34  and  C_37
   14  A    between atoms: N_39  and  C_48
   15  A    between atoms: N_39  and  C_49
                            x       y       z     vdW  Elec       q    Type
                         _______ _______ _______ _____ _____    ______ ____

>  <TORSDO>
F 15

$$$$
