=
 OpenBabel11062412203D

 43 49  0  0  1  0  0  0  0  0999 V2000
  189.7590  176.0680  138.0970 C   0  0  1  0  0  3  0  0  0  0  0  0
  189.2580  178.5930  137.8270 C   0  0  0  0  0  2  0  0  0  0  0  0
  190.0590  177.5110  138.5670 C   0  0  1  0  0  3  0  0  0  0  0  0
  186.7880  174.0300  137.2890 C   0  0  0  0  0  2  0  0  0  0  0  0
  185.8070  174.4570  136.2230 C   0  0  1  0  0  3  0  0  0  0  0  0
  188.1200  176.9550  136.3100 C   0  0  2  0  0  3  0  0  0  0  0  0
  186.5760  174.4210  134.9240 C   0  0  0  0  0  2  0  0  0  0  0  0
  188.3760  175.9350  137.4210 C   0  0  1  0  0  3  0  0  0  0  0  0
  188.3080  176.2140  135.0060 C   0  0  0  0  0  2  0  0  0  0  0  0
  189.0100  178.1990  136.3740 C   0  0  0  0  0  2  0  0  0  0  0  0
  188.0130  174.7500  135.3020 C   0  0  1  0  0  3  0  0  0  0  0  0
  188.1310  174.5570  136.8160 C   0  0  2  0  0  3  0  0  0  0  0  0
  190.9020  175.4860  137.3080 C   0  0  0  0  0  0  0  0  0  0  0  0
  193.1100  174.4560  135.9200 C   0  0  0  0  0  0  0  0  0  0  0  0
  193.9090  176.6890  135.6010 F   0  0  0  0  0  0  0  0  0  0  0  0
  191.0460  174.1030  137.1330 C   0  0  0  0  0  3  0  0  0  0  0  0
  192.1440  173.5880  136.4410 C   0  0  0  0  0  0  0  0  0  0  0  0
  192.9700  175.8390  136.0900 C   0  0  0  0  0  0  0  0  0  0  0  0
  192.2730  172.2480  136.2870 F   0  0  0  0  0  0  0  0  0  0  0  0
  191.8760  176.3500  136.7920 C   0  0  0  0  0  3  0  0  0  0  0  0
  194.2090  173.9450  135.2410 O   0  0  0  0  0  1  0  0  0  0  0  0
  184.5640  173.6250  136.1960 C   0  0  0  0  0  0  0  0  0  0  0  0
  184.6720  172.1390  136.2570 C   0  0  0  0  0  1  0  0  0  0  0  0
  183.3380  174.1590  136.1460 C   0  0  0  0  0  3  0  0  0  0  0  0
  183.1900  176.2050  135.0020 O   0  0  0  0  0  0  0  0  0  0  0  0
  182.9680  175.5910  136.0810 C   0  0  0  0  0  0  0  0  0  0  0  0
  182.3910  176.3390  137.2580 C   0  0  1  0  0  3  0  0  0  0  0  0
  182.9170  176.8070  139.8760 C   0  0  2  0  0  3  0  0  0  0  0  0
  184.7110  177.2550  137.4650 O   0  0  0  0  0  1  0  0  0  0  0  0
  183.0560  178.0800  139.0990 C   0  0  0  0  0  2  0  0  0  0  0  0
  183.0560  175.9720  138.5810 C   0  0  1  0  0  0  0  0  0  0  0  0
  183.3660  177.3030  137.8500 C   0  0  1  0  0  0  0  0  0  0  0  0
  181.7940  175.9440  139.4360 C   0  0  0  0  0  2  0  0  0  0  0  0
  189.8930  177.6820  140.0830 C   0  0  1  0  0  3  0  0  0  0  0  0
  188.6760  177.1540  140.5450 O   0  0  0  0  0  0  0  0  0  0  0  0
  187.9450  178.2600  140.9800 C   0  0  0  0  0  1  0  0  0  0  0  0
  191.0510  177.1480  140.8150 N   0  0  0  0  0  0  0  0  0  0  0  0
  192.2480  177.7660  140.2670 C   0  0  0  0  0  2  0  0  0  0  0  0
  193.3370  176.7220  140.1100 C   0  0  0  0  0  1  0  0  0  0  0  0
  190.9750  177.5020  142.2300 C   0  0  0  0  0  2  0  0  0  0  0  0
  190.9720  176.2720  143.0740 C   0  0  0  0  0  0  0  0  0  0  0  0
  191.7910  176.1850  144.1920 O   0  0  0  0  0  1  0  0  0  0  0  0
  190.2490  175.2950  142.7490 O   0  0  0  0  0  0  0  0  0  0  0  0
  1 13  1  6  0  0  0
  1  3  1  0  0  0  0
  2  3  1  0  0  0  0
  3 34  1  1  0  0  0
  5 22  1  6  0  0  0
  5  4  1  0  0  0  0
  6  9  1  6  0  0  0
  6 10  1  0  0  0  0
  6  8  1  0  0  0  0
  7 11  1  0  0  0  0
  7  5  1  0  0  0  0
  8  1  1  0  0  0  0
  9 11  1  0  0  0  0
 10  2  1  0  0  0  0
 11 12  1  0  0  0  0
 12  4  1  0  0  0  0
 12  8  1  0  0  0  0
 14 18  2  0  0  0  0
 14 17  1  0  0  0  0
 15 18  1  0  0  0  0
 16 13  1  0  0  0  0
 17 16  2  0  0  0  0
 18 20  1  0  0  0  0
 19 17  1  0  0  0  0
 20 13  2  0  0  0  0
 21 14  1  0  0  0  0
 22 23  1  0  0  0  0
 24 22  2  0  0  0  0
 25 26  2  0  0  0  0
 26 24  1  0  0  0  0
 26 27  1  0  0  0  0
 27 32  1  0  0  0  0
 27 31  1  0  0  0  0
 29 32  1  0  0  0  0
 30 28  1  0  0  0  0
 31 33  1  0  0  0  0
 31 28  1  0  0  0  0
 32 31  1  0  0  0  0
 32 30  1  0  0  0  0
 33 28  1  0  0  0  0
 34 35  1  0  0  0  0
 34 37  1  0  0  0  0
 35 36  1  0  0  0  0
 37 40  1  0  0  0  0
 38 37  1  0  0  0  0
 39 38  1  0  0  0  0
 40 41  1  0  0  0  0
 41 42  1  0  0  0  0
 43 41  2  0  0  0  0
M  END
>  <MODEL>
1

>  <REMARK>
 VINA RESULT:      -6.2      0.000      0.000
  Name = 
  10 active torsions:
  status: ('A' for Active; 'I' for Inactive)
    1  A    between atoms: C_1  and  C_2
    2  A    between atoms: C_3  and  C_33
    3  A    between atoms: C_5  and  C_26
    4  A    between atoms: C_9  and  C_30
    5  A    between atoms: C_12  and  C_14
    6  A    between atoms: C_18  and  N_43
    7  A    between atoms: O_19  and  C_30
    8  A    between atoms: C_24  and  C_26
    9  A    between atoms: C_30  and  N_43
   10  A    between atoms: C_33  and  N_43
                            x       y       z     vdW  Elec       q    Type
                         _______ _______ _______ _____ _____    ______ ____

>  <TORSDO>
F 10

$$$$
=
 OpenBabel11062412203D

 43 49  0  0  1  0  0  0  0  0999 V2000
  188.3010  176.5840  138.1020 C   0  0  1  0  0  3  0  0  0  0  0  0
  189.0830  179.0510  138.0630 C   0  0  0  0  0  2  0  0  0  0  0  0
  189.3010  177.6400  138.6300 C   0  0  1  0  0  3  0  0  0  0  0  0
  184.6640  176.3350  137.5110 C   0  0  0  0  0  2  0  0  0  0  0  0
  183.9470  177.3020  136.5990 C   0  0  1  0  0  3  0  0  0  0  0  0
  187.1870  178.3510  136.5840 C   0  0  2  0  0  3  0  0  0  0  0  0
  184.5080  177.0510  135.2190 C   0  0  0  0  0  2  0  0  0  0  0  0
  186.9860  177.2120  137.5850 C   0  0  1  0  0  3  0  0  0  0  0  0
  186.8970  177.7670  135.2190 C   0  0  0  0  0  2  0  0  0  0  0  0
  188.5740  178.9960  136.6270 C   0  0  0  0  0  2  0  0  0  0  0  0
  185.9430  176.6020  135.4480 C   0  0  1  0  0  3  0  0  0  0  0  0
  186.0570  176.2020  136.9210 C   0  0  2  0  0  3  0  0  0  0  0  0
  188.9540  175.6210  137.1480 C   0  0  0  0  0  0  0  0  0  0  0  0
  190.2780  173.8380  135.4350 C   0  0  0  0  0  0  0  0  0  0  0  0
  191.8600  175.5600  134.9210 F   0  0  0  0  0  0  0  0  0  0  0  0
  188.4850  174.3090  136.9910 C   0  0  0  0  0  3  0  0  0  0  0  0
  189.1420  173.4210  136.1370 C   0  0  0  0  0  0  0  0  0  0  0  0
  190.7500  175.1490  135.5870 C   0  0  0  0  0  0  0  0  0  0  0  0
  188.6810  172.1540  136.0010 F   0  0  0  0  0  0  0  0  0  0  0  0
  190.0960  176.0310  136.4490 C   0  0  0  0  0  3  0  0  0  0  0  0
  190.9400  172.9520  134.5940 O   0  0  0  0  0  1  0  0  0  0  0  0
  182.4570  177.1790  136.6620 C   0  0  0  0  0  0  0  0  0  0  0  0
  181.7420  176.3680  135.6360 C   0  0  0  0  0  1  0  0  0  0  0  0
  181.7260  177.7500  137.6260 C   0  0  0  0  0  3  0  0  0  0  0  0
  182.5120  179.7880  138.4900 O   0  0  0  0  0  0  0  0  0  0  0  0
  182.1940  178.5940  138.7480 C   0  0  0  0  0  0  0  0  0  0  0  0
  182.3480  178.0710  140.1550 C   0  0  1  0  0  3  0  0  0  0  0  0
  182.8070  178.9820  142.6660 C   0  0  2  0  0  3  0  0  0  0  0  0
  180.6480  179.8240  140.7020 O   0  0  0  0  0  1  0  0  0  0  0  0
  181.4200  178.4230  142.5800 C   0  0  0  0  0  2  0  0  0  0  0  0
  182.8740  179.1220  141.1270 C   0  0  1  0  0  0  0  0  0  0  0  0
  181.3820  178.7030  141.1030 C   0  0  1  0  0  0  0  0  0  0  0  0
  183.8220  178.2160  141.9050 C   0  0  0  0  0  2  0  0  0  0  0  0
  189.3450  177.6920  140.1640 C   0  0  1  0  0  3  0  0  0  0  0  0
  188.0900  177.4330  140.7390 O   0  0  0  0  0  0  0  0  0  0  0  0
  187.7230  178.6280  141.3600 C   0  0  0  0  0  1  0  0  0  0  0  0
  190.4000  176.8220  140.7020 N   0  0  0  0  0  0  0  0  0  0  0  0
  191.4900  176.7950  139.7390 C   0  0  0  0  0  2  0  0  0  0  0  0
  192.6940  177.5210  140.3090 C   0  0  0  0  0  1  0  0  0  0  0  0
  190.9250  177.3610  141.9530 C   0  0  0  0  0  2  0  0  0  0  0  0
  190.6290  176.4330  143.0840 C   0  0  0  0  0  0  0  0  0  0  0  0
  190.8630  176.8260  144.3950 O   0  0  0  0  0  1  0  0  0  0  0  0
  190.1980  175.2760  142.8440 O   0  0  0  0  0  0  0  0  0  0  0  0
  1 13  1  6  0  0  0
  1  3  1  0  0  0  0
  2  3  1  0  0  0  0
  3 34  1  1  0  0  0
  5 22  1  6  0  0  0
  5  4  1  0  0  0  0
  6  9  1  6  0  0  0
  6 10  1  0  0  0  0
  6  8  1  0  0  0  0
  7 11  1  0  0  0  0
  7  5  1  0  0  0  0
  8  1  1  0  0  0  0
  9 11  1  0  0  0  0
 10  2  1  0  0  0  0
 11 12  1  0  0  0  0
 12  4  1  0  0  0  0
 12  8  1  0  0  0  0
 14 18  2  0  0  0  0
 14 17  1  0  0  0  0
 15 18  1  0  0  0  0
 16 13  1  0  0  0  0
 17 16  2  0  0  0  0
 18 20  1  0  0  0  0
 19 17  1  0  0  0  0
 20 13  2  0  0  0  0
 21 14  1  0  0  0  0
 22 24  2  0  0  0  0
 23 22  1  0  0  0  0
 24 26  1  0  0  0  0
 25 26  2  0  0  0  0
 26 27  1  0  0  0  0
 27 32  1  0  0  0  0
 27 31  1  0  0  0  0
 29 32  1  0  0  0  0
 30 28  1  0  0  0  0
 31 33  1  0  0  0  0
 31 28  1  0  0  0  0
 32 31  1  0  0  0  0
 32 30  1  0  0  0  0
 33 28  1  0  0  0  0
 34 37  1  0  0  0  0
 34 35  1  0  0  0  0
 35 36  1  0  0  0  0
 37 40  1  0  0  0  0
 38 39  1  0  0  0  0
 38 37  1  0  0  0  0
 40 41  1  0  0  0  0
 41 42  1  0  0  0  0
 43 41  2  0  0  0  0
M  END
>  <MODEL>
2

>  <REMARK>
 VINA RESULT:      -6.2      2.038      2.901
  Name = 
  10 active torsions:
  status: ('A' for Active; 'I' for Inactive)
    1  A    between atoms: C_1  and  C_2
    2  A    between atoms: C_3  and  C_33
    3  A    between atoms: C_5  and  C_26
    4  A    between atoms: C_9  and  C_30
    5  A    between atoms: C_12  and  C_14
    6  A    between atoms: C_18  and  N_43
    7  A    between atoms: O_19  and  C_30
    8  A    between atoms: C_24  and  C_26
    9  A    between atoms: C_30  and  N_43
   10  A    between atoms: C_33  and  N_43
                            x       y       z     vdW  Elec       q    Type
                         _______ _______ _______ _____ _____    ______ ____

>  <TORSDO>
F 10

$$$$
=
 OpenBabel11062412203D

 43 49  0  0  1  0  0  0  0  0999 V2000
  189.6530  176.1590  138.7000 C   0  0  1  0  0  3  0  0  0  0  0  0
  189.4830  178.7140  139.0800 C   0  0  0  0  0  2  0  0  0  0  0  0
  190.1000  177.3820  139.5350 C   0  0  1  0  0  3  0  0  0  0  0  0
  186.5060  174.8100  137.3170 C   0  0  0  0  0  2  0  0  0  0  0  0
  185.6500  175.6220  136.3730 C   0  0  1  0  0  3  0  0  0  0  0  0
  188.2430  177.6820  137.1630 C   0  0  2  0  0  3  0  0  0  0  0  0
  186.4840  175.8120  135.1290 C   0  0  0  0  0  2  0  0  0  0  0  0
  188.3060  176.3880  137.9780 C   0  0  1  0  0  3  0  0  0  0  0  0
  188.4150  177.2770  135.7170 C   0  0  0  0  0  2  0  0  0  0  0  0
  189.2750  178.7380  137.5700 C   0  0  0  0  0  2  0  0  0  0  0  0
  187.9250  175.8390  135.6150 C   0  0  1  0  0  3  0  0  0  0  0  0
  187.9290  175.2550  137.0310 C   0  0  2  0  0  3  0  0  0  0  0  0
  190.7590  175.6480  137.8170 C   0  0  0  0  0  0  0  0  0  0  0  0
  192.9020  174.7200  136.2640 C   0  0  0  0  0  0  0  0  0  0  0  0
  193.9460  176.8630  136.4840 F   0  0  0  0  0  0  0  0  0  0  0  0
  190.7640  174.3340  137.3280 C   0  0  0  0  0  3  0  0  0  0  0  0
  191.8290  173.8710  136.5540 C   0  0  0  0  0  0  0  0  0  0  0  0
  192.9030  176.0350  136.7480 C   0  0  0  0  0  0  0  0  0  0  0  0
  191.8230  172.5960  136.0950 F   0  0  0  0  0  0  0  0  0  0  0  0
  191.8400  176.4920  137.5310 C   0  0  0  0  0  3  0  0  0  0  0  0
  193.9690  174.2570  135.5030 O   0  0  0  0  0  1  0  0  0  0  0  0
  184.3180  174.9980  136.1010 C   0  0  0  0  0  0  0  0  0  0  0  0
  184.2410  173.5520  135.7430 C   0  0  0  0  0  1  0  0  0  0  0  0
  183.1690  175.6790  136.1890 C   0  0  0  0  0  3  0  0  0  0  0  0
  182.4460  177.8490  135.6540 O   0  0  0  0  0  0  0  0  0  0  0  0
  182.9800  177.1080  136.5240 C   0  0  0  0  0  0  0  0  0  0  0  0
  183.4410  177.7080  137.8300 C   0  0  1  0  0  3  0  0  0  0  0  0
  182.4290  178.9960  139.9900 C   0  0  2  0  0  3  0  0  0  0  0  0
  181.5950  176.3270  138.8040 O   0  0  0  0  0  1  0  0  0  0  0  0
  182.9350  177.6470  140.4000 C   0  0  0  0  0  2  0  0  0  0  0  0
  182.3660  178.5520  138.5100 C   0  0  1  0  0  0  0  0  0  0  0  0
  182.7250  177.1270  139.0050 C   0  0  1  0  0  0  0  0  0  0  0  0
  183.2720  179.6830  138.9830 C   0  0  0  0  0  2  0  0  0  0  0  0
  189.8670  177.1840  141.0390 C   0  0  1  0  0  3  0  0  0  0  0  0
  190.6400  178.0630  141.8150 O   0  0  0  0  0  0  0  0  0  0  0  0
  191.7900  177.3420  142.1410 C   0  0  0  0  0  1  0  0  0  0  0  0
  188.4370  177.2460  141.3750 N   0  0  0  0  0  0  0  0  0  0  0  0
  188.2320  176.4850  142.5970 C   0  0  0  0  0  2  0  0  0  0  0  0
  188.2990  177.4140  143.7950 C   0  0  0  0  0  1  0  0  0  0  0  0
  188.0280  178.6240  141.6340 C   0  0  0  0  0  2  0  0  0  0  0  0
  186.6180  178.8390  141.1980 C   0  0  0  0  0  0  0  0  0  0  0  0
  186.2630  178.6820  139.8650 O   0  0  0  0  0  0  0  0  0  0  0  0
  185.7540  179.1980  142.0380 O   0  0  0  0  0  1  0  0  0  0  0  0
  1 13  1  6  0  0  0
  1  3  1  0  0  0  0
  2  3  1  0  0  0  0
  3 34  1  1  0  0  0
  5 22  1  6  0  0  0
  5  4  1  0  0  0  0
  6  9  1  6  0  0  0
  6 10  1  0  0  0  0
  6  8  1  0  0  0  0
  7 11  1  0  0  0  0
  7  5  1  0  0  0  0
  8  1  1  0  0  0  0
 10  2  1  0  0  0  0
 11  9  1  0  0  0  0
 11 12  1  0  0  0  0
 12  4  1  0  0  0  0
 12  8  1  0  0  0  0
 14 17  2  0  0  0  0
 14 18  1  0  0  0  0
 15 18  1  0  0  0  0
 16 13  2  0  0  0  0
 17 16  1  0  0  0  0
 18 20  2  0  0  0  0
 19 17  1  0  0  0  0
 20 13  1  0  0  0  0
 21 14  1  0  0  0  0
 22 24  2  0  0  0  0
 23 22  1  0  0  0  0
 24 26  1  0  0  0  0
 25 26  2  0  0  0  0
 26 27  1  0  0  0  0
 27 31  1  0  0  0  0
 27 32  1  0  0  0  0
 28 30  1  0  0  0  0
 29 32  1  0  0  0  0
 31 33  1  0  0  0  0
 31 32  1  0  0  0  0
 31 28  1  0  0  0  0
 32 30  1  0  0  0  0
 33 28  1  0  0  0  0
 34 37  1  0  0  0  0
 34 35  1  0  0  0  0
 35 36  1  0  0  0  0
 37 40  1  0  0  0  0
 37 38  1  0  0  0  0
 38 39  1  0  0  0  0
 41 40  1  0  0  0  0
 41 43  1  0  0  0  0
 42 41  2  0  0  0  0
M  END
>  <MODEL>
3

>  <REMARK>
 VINA RESULT:      -6.0      1.502      2.656
  Name = 
  10 active torsions:
  status: ('A' for Active; 'I' for Inactive)
    1  A    between atoms: C_1  and  C_2
    2  A    between atoms: C_3  and  C_33
    3  A    between atoms: C_5  and  C_26
    4  A    between atoms: C_9  and  C_30
    5  A    between atoms: C_12  and  C_14
    6  A    between atoms: C_18  and  N_43
    7  A    between atoms: O_19  and  C_30
    8  A    between atoms: C_24  and  C_26
    9  A    between atoms: C_30  and  N_43
   10  A    between atoms: C_33  and  N_43
                            x       y       z     vdW  Elec       q    Type
                         _______ _______ _______ _____ _____    ______ ____

>  <TORSDO>
F 10

$$$$
=
 OpenBabel11062412203D

 43 49  0  0  1  0  0  0  0  0999 V2000
  188.2750  176.6230  138.1590 C   0  0  1  0  0  3  0  0  0  0  0  0
  189.1040  179.0740  138.0680 C   0  0  0  0  0  2  0  0  0  0  0  0
  189.3130  177.6640  138.6420 C   0  0  1  0  0  3  0  0  0  0  0  0
  184.6170  176.4400  137.6930 C   0  0  0  0  0  2  0  0  0  0  0  0
  183.8880  177.4120  136.7950 C   0  0  1  0  0  3  0  0  0  0  0  0
  187.1450  178.3970  136.6600 C   0  0  2  0  0  3  0  0  0  0  0  0
  184.3970  177.1370  135.4000 C   0  0  0  0  0  2  0  0  0  0  0  0
  186.9570  177.2720  137.6790 C   0  0  1  0  0  3  0  0  0  0  0  0
  186.7980  177.8050  135.3120 C   0  0  0  0  0  2  0  0  0  0  0  0
  188.5460  179.0150  136.6500 C   0  0  0  0  0  2  0  0  0  0  0  0
  185.8300  176.6620  135.5850 C   0  0  1  0  0  3  0  0  0  0  0  0
  185.9860  176.2750  137.0580 C   0  0  2  0  0  3  0  0  0  0  0  0
  188.8770  175.6380  137.1930 C   0  0  0  0  0  0  0  0  0  0  0  0
  190.1080  173.8150  135.4530 C   0  0  0  0  0  0  0  0  0  0  0  0
  191.6710  175.5170  134.8300 F   0  0  0  0  0  0  0  0  0  0  0  0
  188.3940  174.3260  137.0840 C   0  0  0  0  0  3  0  0  0  0  0  0
  189.0050  173.4180  136.2170 C   0  0  0  0  0  0  0  0  0  0  0  0
  190.5930  175.1250  135.5560 C   0  0  0  0  0  0  0  0  0  0  0  0
  188.5320  172.1510  136.1290 F   0  0  0  0  0  0  0  0  0  0  0  0
  189.9860  176.0280  136.4320 C   0  0  0  0  0  3  0  0  0  0  0  0
  190.7240  172.9080  134.5980 O   0  0  0  0  0  1  0  0  0  0  0  0
  182.3990  177.3200  136.9100 C   0  0  0  0  0  0  0  0  0  0  0  0
  181.6790  176.1950  136.2480 C   0  0  0  0  0  1  0  0  0  0  0  0
  181.6730  178.1980  137.6110 C   0  0  0  0  0  3  0  0  0  0  0  0
  182.9340  179.2020  139.3200 O   0  0  0  0  0  0  0  0  0  0  0  0
  182.1470  179.3890  138.3520 C   0  0  0  0  0  0  0  0  0  0  0  0
  181.6880  180.7880  138.0260 C   0  0  1  0  0  3  0  0  0  0  0  0
  179.4600  182.1030  137.2150 C   0  0  2  0  0  3  0  0  0  0  0  0
  179.8150  180.2500  139.5960 O   0  0  0  0  0  1  0  0  0  0  0  0
  179.8050  182.5130  138.6140 C   0  0  0  0  0  2  0  0  0  0  0  0
  180.3210  180.8250  137.3500 C   0  0  1  0  0  0  0  0  0  0  0  0
  180.5080  181.2030  138.8410 C   0  0  1  0  0  0  0  0  0  0  0  0
  180.6330  181.9130  136.3290 C   0  0  0  0  0  2  0  0  0  0  0  0
  189.4100  177.7300  140.1720 C   0  0  1  0  0  3  0  0  0  0  0  0
  188.1760  177.4790  140.7920 O   0  0  0  0  0  0  0  0  0  0  0  0
  187.8820  178.6470  141.4990 C   0  0  0  0  0  1  0  0  0  0  0  0
  190.4820  176.8620  140.6810 N   0  0  0  0  0  0  0  0  0  0  0  0
  191.5220  176.7960  139.6670 C   0  0  0  0  0  2  0  0  0  0  0  0
  192.7720  177.4940  140.1690 C   0  0  0  0  0  1  0  0  0  0  0  0
  191.0740  177.4290  141.8890 C   0  0  0  0  0  2  0  0  0  0  0  0
  190.8680  176.5130  143.0490 C   0  0  0  0  0  0  0  0  0  0  0  0
  190.3630  175.2350  142.8530 O   0  0  0  0  0  0  0  0  0  0  0  0
  191.1190  176.9160  144.2140 O   0  0  0  0  0  1  0  0  0  0  0  0
  1 13  1  6  0  0  0
  1  3  1  0  0  0  0
  2  3  1  0  0  0  0
  3 34  1  1  0  0  0
  5 22  1  6  0  0  0
  5  4  1  0  0  0  0
  6  9  1  6  0  0  0
  6  8  1  0  0  0  0
  7 11  1  0  0  0  0
  7  5  1  0  0  0  0
  8  1  1  0  0  0  0
  9 11  1  0  0  0  0
 10  6  1  0  0  0  0
 10  2  1  0  0  0  0
 11 12  1  0  0  0  0
 12  8  1  0  0  0  0
 12  4  1  0  0  0  0
 14 18  2  0  0  0  0
 14 17  1  0  0  0  0
 15 18  1  0  0  0  0
 16 13  1  0  0  0  0
 17 16  2  0  0  0  0
 18 20  1  0  0  0  0
 19 17  1  0  0  0  0
 20 13  2  0  0  0  0
 21 14  1  0  0  0  0
 22 24  2  0  0  0  0
 23 22  1  0  0  0  0
 24 26  1  0  0  0  0
 26 25  2  0  0  0  0
 27 26  1  0  0  0  0
 27 32  1  0  0  0  0
 28 31  1  0  0  0  0
 28 30  1  0  0  0  0
 30 32  1  0  0  0  0
 31 27  1  0  0  0  0
 31 32  1  0  0  0  0
 32 29  1  0  0  0  0
 33 28  1  0  0  0  0
 33 31  1  0  0  0  0
 34 37  1  0  0  0  0
 34 35  1  0  0  0  0
 35 36  1  0  0  0  0
 37 40  1  0  0  0  0
 38 39  1  0  0  0  0
 38 37  1  0  0  0  0
 40 41  1  0  0  0  0
 41 43  1  0  0  0  0
 42 41  2  0  0  0  0
M  END
>  <MODEL>
4

>  <REMARK>
 VINA RESULT:      -6.0      2.532      3.449
  Name = 
  10 active torsions:
  status: ('A' for Active; 'I' for Inactive)
    1  A    between atoms: C_1  and  C_2
    2  A    between atoms: C_3  and  C_33
    3  A    between atoms: C_5  and  C_26
    4  A    between atoms: C_9  and  C_30
    5  A    between atoms: C_12  and  C_14
    6  A    between atoms: C_18  and  N_43
    7  A    between atoms: O_19  and  C_30
    8  A    between atoms: C_24  and  C_26
    9  A    between atoms: C_30  and  N_43
   10  A    between atoms: C_33  and  N_43
                            x       y       z     vdW  Elec       q    Type
                         _______ _______ _______ _____ _____    ______ ____

>  <TORSDO>
F 10

$$$$
=
 OpenBabel11062412203D

 43 49  0  0  1  0  0  0  0  0999 V2000
  184.7260  175.3270  137.1470 C   0  0  1  0  0  3  0  0  0  0  0  0
  185.2970  177.1610  135.4110 C   0  0  0  0  0  2  0  0  0  0  0  0
  185.6470  175.7810  135.9890 C   0  0  1  0  0  3  0  0  0  0  0  0
  183.2700  176.8000  140.2040 C   0  0  0  0  0  2  0  0  0  0  0  0
  182.3960  178.0310  140.1450 C   0  0  1  0  0  3  0  0  0  0  0  0
  183.3180  177.4790  136.9140 C   0  0  2  0  0  3  0  0  0  0  0  0
  181.1630  177.6180  139.3770 C   0  0  0  0  0  2  0  0  0  0  0  0
  184.0330  176.5110  137.8590 C   0  0  1  0  0  3  0  0  0  0  0  0
  181.8440  177.1600  137.0220 C   0  0  0  0  0  2  0  0  0  0  0  0
  183.7940  177.4150  135.4600 C   0  0  0  0  0  2  0  0  0  0  0  0
  181.6390  176.5510  138.4020 C   0  0  1  0  0  3  0  0  0  0  0  0
  183.0070  176.0730  138.8970 C   0  0  2  0  0  3  0  0  0  0  0  0
  183.7990  174.2200  136.7250 C   0  0  0  0  0  0  0  0  0  0  0  0
  182.0460  172.1330  136.0600 C   0  0  0  0  0  0  0  0  0  0  0  0
  183.4210  170.6250  137.3110 F   0  0  0  0  0  0  0  0  0  0  0  0
  182.6680  174.4690  135.9340 C   0  0  0  0  0  3  0  0  0  0  0  0
  181.7960  173.4310  135.6010 C   0  0  0  0  0  0  0  0  0  0  0  0
  183.1760  171.8780  136.8480 C   0  0  0  0  0  0  0  0  0  0  0  0
  180.7030  173.6890  134.8420 F   0  0  0  0  0  0  0  0  0  0  0  0
  184.0410  172.9200  137.1880 C   0  0  0  0  0  3  0  0  0  0  0  0
  181.1730  171.1010  135.7380 O   0  0  0  0  0  1  0  0  0  0  0  0
  182.0880  178.6010  141.4940 C   0  0  0  0  0  0  0  0  0  0  0  0
  180.6690  178.8300  141.8890 C   0  0  0  0  0  1  0  0  0  0  0  0
  183.0400  178.8950  142.3880 C   0  0  0  0  0  3  0  0  0  0  0  0
  185.0740  179.4660  141.3630 O   0  0  0  0  0  0  0  0  0  0  0  0
  184.5060  178.7580  142.2390 C   0  0  0  0  0  0  0  0  0  0  0  0
  185.3210  177.7830  143.0510 C   0  0  1  0  0  3  0  0  0  0  0  0
  187.5970  177.7060  144.5220 C   0  0  2  0  0  3  0  0  0  0  0  0
  185.2140  179.5690  144.8010 O   0  0  0  0  0  1  0  0  0  0  0  0
  186.4120  177.5030  145.4170 C   0  0  0  0  0  2  0  0  0  0  0  0
  186.6970  178.3250  143.4270 C   0  0  1  0  0  0  0  0  0  0  0  0
  185.5360  178.2530  144.4520 C   0  0  1  0  0  0  0  0  0  0  0  0
  187.4850  177.0400  143.2020 C   0  0  0  0  0  2  0  0  0  0  0  0
  187.1340  175.7330  136.3670 C   0  0  1  0  0  3  0  0  0  0  0  0
  187.3330  175.8700  137.7510 O   0  0  0  0  0  0  0  0  0  0  0  0
  187.9060  177.1330  137.9100 C   0  0  0  0  0  1  0  0  0  0  0  0
  187.7890  174.5360  135.8210 N   0  0  0  0  0  0  0  0  0  0  0  0
  187.1000  174.1710  134.5940 C   0  0  0  0  0  2  0  0  0  0  0  0
  186.7510  172.6950  134.6220 C   0  0  0  0  0  1  0  0  0  0  0  0
  189.1810  174.8200  135.4820 C   0  0  0  0  0  2  0  0  0  0  0  0
  190.0950  173.9110  136.2350 C   0  0  0  0  0  0  0  0  0  0  0  0
  190.3180  174.1060  137.5920 O   0  0  0  0  0  1  0  0  0  0  0  0
  190.6930  172.9870  135.6280 O   0  0  0  0  0  0  0  0  0  0  0  0
  1 13  1  6  0  0  0
  1  8  1  0  0  0  0
  2 10  1  0  0  0  0
  2  3  1  0  0  0  0
  3 34  1  1  0  0  0
  3  1  1  0  0  0  0
  5  4  1  0  0  0  0
  5 22  1  1  0  0  0
  6 10  1  6  0  0  0
  6  9  1  0  0  0  0
  6  8  1  0  0  0  0
  7  5  1  0  0  0  0
  8 12  1  0  0  0  0
  9 11  1  0  0  0  0
 11 12  1  0  0  0  0
 11  7  1  0  0  0  0
 12  4  1  0  0  0  0
 13 20  1  0  0  0  0
 14 18  1  0  0  0  0
 16 13  2  0  0  0  0
 17 16  1  0  0  0  0
 17 14  2  0  0  0  0
 18 20  2  0  0  0  0
 18 15  1  0  0  0  0
 19 17  1  0  0  0  0
 21 14  1  0  0  0  0
 22 23  1  0  0  0  0
 22 24  2  0  0  0  0
 25 26  2  0  0  0  0
 26 24  1  0  0  0  0
 26 27  1  0  0  0  0
 27 31  1  0  0  0  0
 27 32  1  0  0  0  0
 28 30  1  0  0  0  0
 31 32  1  0  0  0  0
 31 28  1  0  0  0  0
 32 29  1  0  0  0  0
 32 30  1  0  0  0  0
 33 31  1  0  0  0  0
 33 28  1  0  0  0  0
 34 35  1  0  0  0  0
 35 36  1  0  0  0  0
 37 34  1  0  0  0  0
 38 39  1  0  0  0  0
 38 37  1  0  0  0  0
 40 37  1  0  0  0  0
 40 41  1  0  0  0  0
 41 42  1  0  0  0  0
 43 41  2  0  0  0  0
M  END
>  <MODEL>
5

>  <REMARK>
 VINA RESULT:      -5.6      3.729      7.695
  Name = 
  10 active torsions:
  status: ('A' for Active; 'I' for Inactive)
    1  A    between atoms: C_1  and  C_2
    2  A    between atoms: C_3  and  C_33
    3  A    between atoms: C_5  and  C_26
    4  A    between atoms: C_9  and  C_30
    5  A    between atoms: C_12  and  C_14
    6  A    between atoms: C_18  and  N_43
    7  A    between atoms: O_19  and  C_30
    8  A    between atoms: C_24  and  C_26
    9  A    between atoms: C_30  and  N_43
   10  A    between atoms: C_33  and  N_43
                            x       y       z     vdW  Elec       q    Type
                         _______ _______ _______ _____ _____    ______ ____

>  <TORSDO>
F 10

$$$$
=
 OpenBabel11062412203D

 43 49  0  0  1  0  0  0  0  0999 V2000
  189.3360  175.9660  137.6080 C   0  0  1  0  0  3  0  0  0  0  0  0
  190.3890  177.8850  136.2250 C   0  0  0  0  0  2  0  0  0  0  0  0
  190.0070  176.3970  136.2820 C   0  0  1  0  0  3  0  0  0  0  0  0
  189.8680  176.4890  141.2240 C   0  0  0  0  0  2  0  0  0  0  0  0
  189.8950  177.8760  141.8230 C   0  0  1  0  0  3  0  0  0  0  0  0
  189.4410  178.3920  138.4880 C   0  0  2  0  0  3  0  0  0  0  0  0
  188.5040  178.4310  141.6260 C   0  0  0  0  0  2  0  0  0  0  0  0
  189.6760  176.9090  138.7840 C   0  0  1  0  0  3  0  0  0  0  0  0
  188.1480  178.7590  139.1800 C   0  0  0  0  0  2  0  0  0  0  0  0
  189.3910  178.7410  136.9980 C   0  0  0  0  0  2  0  0  0  0  0  0
  187.9970  177.7890  140.3440 C   0  0  1  0  0  3  0  0  0  0  0  0
  188.9020  176.5880  140.0570 C   0  0  2  0  0  3  0  0  0  0  0  0
  187.8670  175.6910  137.4290 C   0  0  0  0  0  0  0  0  0  0  0  0
  185.1270  175.1320  137.2140 C   0  0  0  0  0  0  0  0  0  0  0  0
  185.6000  172.8220  137.6280 F   0  0  0  0  0  0  0  0  0  0  0  0
  186.9520  176.7210  137.1740 C   0  0  0  0  0  3  0  0  0  0  0  0
  185.5870  176.4440  137.0650 C   0  0  0  0  0  0  0  0  0  0  0  0
  186.0380  174.0980  137.4670 C   0  0  0  0  0  0  0  0  0  0  0  0
  184.7140  177.4520  136.8250 F   0  0  0  0  0  0  0  0  0  0  0  0
  187.4000  174.3800  137.5860 C   0  0  0  0  0  3  0  0  0  0  0  0
  183.7690  174.8560  137.1170 O   0  0  0  0  0  1  0  0  0  0  0  0
  190.3410  177.8930  143.2510 C   0  0  0  0  0  0  0  0  0  0  0  0
  191.7690  178.1730  143.5730 C   0  0  0  0  0  1  0  0  0  0  0  0
  189.5000  177.6910  144.2730 C   0  0  0  0  0  3  0  0  0  0  0  0
  187.6910  176.3120  143.6860 O   0  0  0  0  0  0  0  0  0  0  0  0
  188.0500  177.3980  144.2170 C   0  0  0  0  0  0  0  0  0  0  0  0
  187.0030  178.3610  144.7220 C   0  0  1  0  0  3  0  0  0  0  0  0
  184.6850  178.3500  146.1270 C   0  0  2  0  0  3  0  0  0  0  0  0
  187.3890  177.2080  146.9100 O   0  0  0  0  0  1  0  0  0  0  0  0
  185.7480  179.0510  146.9160 C   0  0  0  0  0  2  0  0  0  0  0  0
  185.7550  177.6590  145.2490 C   0  0  1  0  0  0  0  0  0  0  0  0
  186.8150  178.2690  146.2010 C   0  0  1  0  0  0  0  0  0  0  0  0
  184.7260  178.6250  144.6710 C   0  0  0  0  0  2  0  0  0  0  0  0
  191.2240  175.5300  135.9300 C   0  0  1  0  0  3  0  0  0  0  0  0
  191.1920  175.0900  134.5970 O   0  0  0  0  0  0  0  0  0  0  0  0
  190.3100  174.0070  134.5960 C   0  0  0  0  0  1  0  0  0  0  0  0
  192.4830  176.2090  136.2680 N   0  0  0  0  0  0  0  0  0  0  0  0
  192.9810  175.6340  137.5080 C   0  0  0  0  0  2  0  0  0  0  0  0
  192.6960  174.1450  137.5320 C   0  0  0  0  0  1  0  0  0  0  0  0
  193.4880  175.9740  135.2340 C   0  0  0  0  0  2  0  0  0  0  0  0
  194.8100  176.5180  135.6620 C   0  0  0  0  0  0  0  0  0  0  0  0
  195.8320  175.6590  136.0460 O   0  0  0  0  0  1  0  0  0  0  0  0
  194.9870  177.7620  135.7080 O   0  0  0  0  0  0  0  0  0  0  0  0
  1 13  1  6  0  0  0
  1  8  1  0  0  0  0
  2  3  1  0  0  0  0
  2 10  1  0  0  0  0
  3 34  1  1  0  0  0
  3  1  1  0  0  0  0
  4  5  1  0  0  0  0
  5 22  1  1  0  0  0
  6 10  1  6  0  0  0
  6  8  1  0  0  0  0
  6  9  1  0  0  0  0
  7  5  1  0  0  0  0
  8 12  1  0  0  0  0
  9 11  1  0  0  0  0
 11  7  1  0  0  0  0
 12 11  1  0  0  0  0
 12  4  1  0  0  0  0
 13 20  1  0  0  0  0
 14 18  1  0  0  0  0
 16 13  2  0  0  0  0
 17 16  1  0  0  0  0
 17 14  2  0  0  0  0
 18 20  2  0  0  0  0
 18 15  1  0  0  0  0
 19 17  1  0  0  0  0
 21 14  1  0  0  0  0
 22 23  1  0  0  0  0
 22 24  2  0  0  0  0
 25 26  2  0  0  0  0
 26 24  1  0  0  0  0
 26 27  1  0  0  0  0
 27 31  1  0  0  0  0
 27 32  1  0  0  0  0
 28 30  1  0  0  0  0
 31 28  1  0  0  0  0
 31 32  1  0  0  0  0
 32 29  1  0  0  0  0
 32 30  1  0  0  0  0
 33 31  1  0  0  0  0
 33 28  1  0  0  0  0
 34 37  1  0  0  0  0
 35 34  1  0  0  0  0
 36 35  1  0  0  0  0
 37 38  1  0  0  0  0
 38 39  1  0  0  0  0
 40 41  1  0  0  0  0
 40 37  1  0  0  0  0
 41 43  2  0  0  0  0
 41 42  1  0  0  0  0
M  END
>  <MODEL>
6

>  <REMARK>
 VINA RESULT:      -5.4      3.289      7.252
  Name = 
  10 active torsions:
  status: ('A' for Active; 'I' for Inactive)
    1  A    between atoms: C_1  and  C_2
    2  A    between atoms: C_3  and  C_33
    3  A    between atoms: C_5  and  C_26
    4  A    between atoms: C_9  and  C_30
    5  A    between atoms: C_12  and  C_14
    6  A    between atoms: C_18  and  N_43
    7  A    between atoms: O_19  and  C_30
    8  A    between atoms: C_24  and  C_26
    9  A    between atoms: C_30  and  N_43
   10  A    between atoms: C_33  and  N_43
                            x       y       z     vdW  Elec       q    Type
                         _______ _______ _______ _____ _____    ______ ____

>  <TORSDO>
F 10

$$$$
=
 OpenBabel11062412203D

 43 49  0  0  1  0  0  0  0  0999 V2000
  189.2650  176.3380  138.7000 C   0  0  1  0  0  3  0  0  0  0  0  0
  189.4260  178.8850  139.1360 C   0  0  0  0  0  2  0  0  0  0  0  0
  189.8930  177.4770  139.5380 C   0  0  1  0  0  3  0  0  0  0  0  0
  185.9220  175.4160  137.4320 C   0  0  0  0  0  2  0  0  0  0  0  0
  185.1330  176.3480  136.5440 C   0  0  1  0  0  3  0  0  0  0  0  0
  187.9900  178.0580  137.2560 C   0  0  2  0  0  3  0  0  0  0  0  0
  185.9310  176.4660  135.2670 C   0  0  0  0  0  2  0  0  0  0  0  0
  187.9270  176.7470  138.0430 C   0  0  1  0  0  3  0  0  0  0  0  0
  188.0500  177.6700  135.7960 C   0  0  0  0  0  2  0  0  0  0  0  0
  189.1590  178.9710  137.6370 C   0  0  0  0  0  2  0  0  0  0  0  0
  187.3840  176.3050  135.6900 C   0  0  1  0  0  3  0  0  0  0  0  0
  187.3760  175.6910  137.0920 C   0  0  2  0  0  3  0  0  0  0  0  0
  190.2630  175.7190  137.7590 C   0  0  0  0  0  0  0  0  0  0  0  0
  192.0310  174.5590  135.9170 C   0  0  0  0  0  0  0  0  0  0  0  0
  190.5930  172.6490  135.7900 F   0  0  0  0  0  0  0  0  0  0  0  0
  191.4220  176.4000  137.3640 C   0  0  0  0  0  3  0  0  0  0  0  0
  192.3050  175.8230  136.4480 C   0  0  0  0  0  0  0  0  0  0  0  0
  190.8750  173.8720  136.3100 C   0  0  0  0  0  0  0  0  0  0  0  0
  193.4170  176.4980  136.0700 F   0  0  0  0  0  0  0  0  0  0  0  0
  189.9900  174.4560  137.2180 C   0  0  0  0  0  3  0  0  0  0  0  0
  192.9020  173.9870  134.9970 O   0  0  0  0  0  1  0  0  0  0  0  0
  183.7240  175.8970  136.3190 C   0  0  0  0  0  0  0  0  0  0  0  0
  183.4190  174.9670  135.1940 C   0  0  0  0  0  1  0  0  0  0  0  0
  182.7100  176.2750  137.1080 C   0  0  0  0  0  3  0  0  0  0  0  0
  183.2640  176.7400  139.3430 O   0  0  0  0  0  0  0  0  0  0  0  0
  182.7530  177.1810  138.2770 C   0  0  0  0  0  0  0  0  0  0  0  0
  182.1700  178.5730  138.2520 C   0  0  1  0  0  3  0  0  0  0  0  0
  179.9000  179.8560  137.5100 C   0  0  2  0  0  3  0  0  0  0  0  0
  180.2200  177.4830  139.3800 O   0  0  0  0  0  1  0  0  0  0  0  0
  180.0480  179.9150  139.0000 C   0  0  0  0  0  2  0  0  0  0  0  0
  180.8850  178.6660  137.4340 C   0  0  1  0  0  0  0  0  0  0  0  0
  180.8710  178.6560  138.9840 C   0  0  1  0  0  0  0  0  0  0  0  0
  181.1730  180.0060  136.7650 C   0  0  0  0  0  2  0  0  0  0  0  0
  189.7010  177.2720  141.0470 C   0  0  1  0  0  3  0  0  0  0  0  0
  190.5030  178.1390  141.8050 O   0  0  0  0  0  0  0  0  0  0  0  0
  191.6950  177.4410  142.0110 C   0  0  0  0  0  1  0  0  0  0  0  0
  188.2810  177.3470  141.4230 N   0  0  0  0  0  0  0  0  0  0  0  0
  188.0870  176.5130  142.5990 C   0  0  0  0  0  2  0  0  0  0  0  0
  188.1770  177.3660  143.8510 C   0  0  0  0  0  1  0  0  0  0  0  0
  187.9140  178.7140  141.7810 C   0  0  0  0  0  2  0  0  0  0  0  0
  186.5290  179.0180  141.3160 C   0  0  0  0  0  0  0  0  0  0  0  0
  185.6460  179.7020  142.1420 O   0  0  0  0  0  1  0  0  0  0  0  0
  186.1500  178.6220  140.1850 O   0  0  0  0  0  0  0  0  0  0  0  0
  1 13  1  6  0  0  0
  1  3  1  0  0  0  0
  2  3  1  0  0  0  0
  3 34  1  1  0  0  0
  5 22  1  6  0  0  0
  5  4  1  0  0  0  0
  6  9  1  6  0  0  0
  6 10  1  0  0  0  0
  6  8  1  0  0  0  0
  7 11  1  0  0  0  0
  7  5  1  0  0  0  0
  8  1  1  0  0  0  0
 10  2  1  0  0  0  0
 11  9  1  0  0  0  0
 11 12  1  0  0  0  0
 12  4  1  0  0  0  0
 12  8  1  0  0  0  0
 14 18  2  0  0  0  0
 14 17  1  0  0  0  0
 15 18  1  0  0  0  0
 16 13  1  0  0  0  0
 17 16  2  0  0  0  0
 18 20  1  0  0  0  0
 19 17  1  0  0  0  0
 20 13  2  0  0  0  0
 21 14  1  0  0  0  0
 22 24  2  0  0  0  0
 23 22  1  0  0  0  0
 24 26  1  0  0  0  0
 26 25  2  0  0  0  0
 27 26  1  0  0  0  0
 27 32  1  0  0  0  0
 28 30  1  0  0  0  0
 31 28  1  0  0  0  0
 31 27  1  0  0  0  0
 31 32  1  0  0  0  0
 32 30  1  0  0  0  0
 32 29  1  0  0  0  0
 33 31  1  0  0  0  0
 33 28  1  0  0  0  0
 34 37  1  0  0  0  0
 34 35  1  0  0  0  0
 35 36  1  0  0  0  0
 37 40  1  0  0  0  0
 37 38  1  0  0  0  0
 38 39  1  0  0  0  0
 41 40  1  0  0  0  0
 41 42  1  0  0  0  0
 43 41  2  0  0  0  0
M  END
>  <MODEL>
7

>  <REMARK>
 VINA RESULT:      -5.3      2.044      3.387
  Name = 
  10 active torsions:
  status: ('A' for Active; 'I' for Inactive)
    1  A    between atoms: C_1  and  C_2
    2  A    between atoms: C_3  and  C_33
    3  A    between atoms: C_5  and  C_26
    4  A    between atoms: C_9  and  C_30
    5  A    between atoms: C_12  and  C_14
    6  A    between atoms: C_18  and  N_43
    7  A    between atoms: O_19  and  C_30
    8  A    between atoms: C_24  and  C_26
    9  A    between atoms: C_30  and  N_43
   10  A    between atoms: C_33  and  N_43
                            x       y       z     vdW  Elec       q    Type
                         _______ _______ _______ _____ _____    ______ ____

>  <TORSDO>
F 10

$$$$
=
 OpenBabel11062412203D

 43 49  0  0  1  0  0  0  0  0999 V2000
  189.7240  176.0370  138.7710 C   0  0  1  0  0  3  0  0  0  0  0  0
  189.3910  178.5700  139.1900 C   0  0  0  0  0  2  0  0  0  0  0  0
  190.0540  177.2640  139.6550 C   0  0  1  0  0  3  0  0  0  0  0  0
  186.7420  174.5520  137.1800 C   0  0  0  0  0  2  0  0  0  0  0  0
  185.8970  175.3370  136.2040 C   0  0  1  0  0  3  0  0  0  0  0  0
  188.3220  177.5160  137.1840 C   0  0  2  0  0  3  0  0  0  0  0  0
  186.7890  175.6010  135.0140 C   0  0  0  0  0  2  0  0  0  0  0  0
  188.4100  176.2100  137.9750 C   0  0  1  0  0  3  0  0  0  0  0  0
  188.5990  177.1540  135.7430 C   0  0  0  0  0  2  0  0  0  0  0  0
  189.2680  178.6170  137.6710 C   0  0  0  0  0  2  0  0  0  0  0  0
  188.1960  175.6950  135.5850 C   0  0  1  0  0  3  0  0  0  0  0  0
  188.1520  175.0800  136.9860 C   0  0  2  0  0  3  0  0  0  0  0  0
  190.9060  175.6080  137.9440 C   0  0  0  0  0  0  0  0  0  0  0  0
  193.0290  174.7840  136.3070 C   0  0  0  0  0  0  0  0  0  0  0  0
  192.0040  172.6280  136.1220 F   0  0  0  0  0  0  0  0  0  0  0  0
  191.9440  176.4960  137.6280 C   0  0  0  0  0  3  0  0  0  0  0  0
  193.0020  176.0870  136.8150 C   0  0  0  0  0  0  0  0  0  0  0  0
  191.9950  173.8910  136.6210 C   0  0  0  0  0  0  0  0  0  0  0  0
  193.9940  176.9590  136.5120 F   0  0  0  0  0  0  0  0  0  0  0  0
  190.9330  174.3070  137.4260 C   0  0  0  0  0  3  0  0  0  0  0  0
  194.0760  174.3780  135.4880 O   0  0  0  0  0  1  0  0  0  0  0  0
  184.6190  174.6470  135.8420 C   0  0  0  0  0  0  0  0  0  0  0  0
  184.6350  173.1940  135.5120 C   0  0  0  0  0  1  0  0  0  0  0  0
  183.4390  175.2780  135.8240 C   0  0  0  0  0  3  0  0  0  0  0  0
  183.4640  177.5490  135.2250 O   0  0  0  0  0  0  0  0  0  0  0  0
  183.1610  176.7030  136.1110 C   0  0  0  0  0  0  0  0  0  0  0  0
  182.5820  177.1740  137.4220 C   0  0  1  0  0  3  0  0  0  0  0  0
  183.0810  177.0150  140.0820 C   0  0  2  0  0  3  0  0  0  0  0  0
  184.9170  177.9640  137.8560 O   0  0  0  0  0  1  0  0  0  0  0  0
  183.2570  178.4290  139.6210 C   0  0  0  0  0  2  0  0  0  0  0  0
  183.2210  176.4970  138.6320 C   0  0  1  0  0  0  0  0  0  0  0  0
  183.5690  177.9530  138.2290 C   0  0  1  0  0  0  0  0  0  0  0  0
  181.9470  176.3030  139.4460 C   0  0  0  0  0  2  0  0  0  0  0  0
  189.7460  177.0190  141.1380 C   0  0  1  0  0  3  0  0  0  0  0  0
  190.4980  175.9560  141.6660 O   0  0  0  0  0  0  0  0  0  0  0  0
  189.7780  175.5240  142.7810 C   0  0  0  0  0  1  0  0  0  0  0  0
  189.8840  178.2520  141.9270 N   0  0  0  0  0  0  0  0  0  0  0  0
  188.7550  178.3250  142.8400 C   0  0  0  0  0  2  0  0  0  0  0  0
  187.4610  178.1310  142.0710 C   0  0  0  0  0  1  0  0  0  0  0  0
  191.1040  178.2160  142.7300 C   0  0  0  0  0  2  0  0  0  0  0  0
  190.8740  178.8670  144.0530 C   0  0  0  0  0  0  0  0  0  0  0  0
  190.5610  178.1010  145.1680 O   0  0  0  0  0  1  0  0  0  0  0  0
  190.9300  180.1200  144.1480 O   0  0  0  0  0  0  0  0  0  0  0  0
  1 13  1  6  0  0  0
  1  3  1  0  0  0  0
  2  3  1  0  0  0  0
  3 34  1  1  0  0  0
  5 22  1  6  0  0  0
  5  4  1  0  0  0  0
  6  9  1  6  0  0  0
  6 10  1  0  0  0  0
  6  8  1  0  0  0  0
  7 11  1  0  0  0  0
  7  5  1  0  0  0  0
  8  1  1  0  0  0  0
 10  2  1  0  0  0  0
 11  9  1  0  0  0  0
 11 12  1  0  0  0  0
 12  4  1  0  0  0  0
 12  8  1  0  0  0  0
 14 18  2  0  0  0  0
 14 17  1  0  0  0  0
 15 18  1  0  0  0  0
 16 13  1  0  0  0  0
 17 16  2  0  0  0  0
 18 20  1  0  0  0  0
 19 17  1  0  0  0  0
 20 13  2  0  0  0  0
 21 14  1  0  0  0  0
 23 22  1  0  0  0  0
 24 22  2  0  0  0  0
 24 26  1  0  0  0  0
 25 26  2  0  0  0  0
 26 27  1  0  0  0  0
 27 32  1  0  0  0  0
 27 31  1  0  0  0  0
 29 32  1  0  0  0  0
 30 28  1  0  0  0  0
 31 33  1  0  0  0  0
 31 28  1  0  0  0  0
 32 31  1  0  0  0  0
 32 30  1  0  0  0  0
 33 28  1  0  0  0  0
 34 35  1  0  0  0  0
 34 37  1  0  0  0  0
 35 36  1  0  0  0  0
 37 40  1  0  0  0  0
 37 38  1  0  0  0  0
 39 38  1  0  0  0  0
 40 41  1  0  0  0  0
 41 43  2  0  0  0  0
 41 42  1  0  0  0  0
M  END
>  <MODEL>
8

>  <REMARK>
 VINA RESULT:      -5.1      1.215      2.257
  Name = 
  10 active torsions:
  status: ('A' for Active; 'I' for Inactive)
    1  A    between atoms: C_1  and  C_2
    2  A    between atoms: C_3  and  C_33
    3  A    between atoms: C_5  and  C_26
    4  A    between atoms: C_9  and  C_30
    5  A    between atoms: C_12  and  C_14
    6  A    between atoms: C_18  and  N_43
    7  A    between atoms: O_19  and  C_30
    8  A    between atoms: C_24  and  C_26
    9  A    between atoms: C_30  and  N_43
   10  A    between atoms: C_33  and  N_43
                            x       y       z     vdW  Elec       q    Type
                         _______ _______ _______ _____ _____    ______ ____

>  <TORSDO>
F 10

$$$$
=
 OpenBabel11062412203D

 43 49  0  0  1  0  0  0  0  0999 V2000
  184.7630  176.0710  137.2310 C   0  0  1  0  0  3  0  0  0  0  0  0
  184.7200  175.5500  134.6960 C   0  0  0  0  0  2  0  0  0  0  0  0
  184.0300  175.3790  136.0580 C   0  0  1  0  0  3  0  0  0  0  0  0
  188.2290  176.3990  138.4610 C   0  0  0  0  0  2  0  0  0  0  0  0
  189.3220  176.9740  137.5910 C   0  0  1  0  0  3  0  0  0  0  0  0
  186.5500  176.9950  135.6120 C   0  0  2  0  0  3  0  0  0  0  0  0
  188.9350  178.4140  137.3510 C   0  0  0  0  0  2  0  0  0  0  0  0
  186.2650  176.3010  136.9450 C   0  0  1  0  0  3  0  0  0  0  0  0
  186.8740  178.4330  135.9480 C   0  0  0  0  0  2  0  0  0  0  0  0
  185.4110  176.9060  134.5940 C   0  0  0  0  0  2  0  0  0  0  0  0
  187.4140  178.4270  137.3710 C   0  0  1  0  0  3  0  0  0  0  0  0
  186.9650  177.1180  138.0240 C   0  0  2  0  0  3  0  0  0  0  0  0
  184.0230  177.2890  137.7140 C   0  0  0  0  0  0  0  0  0  0  0  0
  182.5370  179.4930  138.6080 C   0  0  0  0  0  0  0  0  0  0  0  0
  181.2590  179.4090  136.5850 F   0  0  0  0  0  0  0  0  0  0  0  0
  184.2980  177.8710  138.9590 C   0  0  0  0  0  3  0  0  0  0  0  0
  183.5600  178.9690  139.4050 C   0  0  0  0  0  0  0  0  0  0  0  0
  182.2590  178.9170  137.3610 C   0  0  0  0  0  0  0  0  0  0  0  0
  183.8320  179.5160  140.6150 F   0  0  0  0  0  0  0  0  0  0  0  0
  182.9920  177.8120  136.9230 C   0  0  0  0  0  3  0  0  0  0  0  0
  181.7940  180.5800  139.0550 O   0  0  0  0  0  1  0  0  0  0  0  0
  190.6880  176.8200  138.1800 C   0  0  0  0  0  0  0  0  0  0  0  0
  191.8120  176.3510  137.3200 C   0  0  0  0  0  1  0  0  0  0  0  0
  190.9610  177.1110  139.4570 C   0  0  0  0  0  3  0  0  0  0  0  0
  189.4660  178.7030  140.3220 O   0  0  0  0  0  0  0  0  0  0  0  0
  190.0290  177.5890  140.5030 C   0  0  0  0  0  0  0  0  0  0  0  0
  189.7730  176.8260  141.7790 C   0  0  1  0  0  3  0  0  0  0  0  0
  188.9420  177.2600  144.3230 C   0  0  2  0  0  3  0  0  0  0  0  0
  187.5640  178.0000  141.7180 O   0  0  0  0  0  1  0  0  0  0  0  0
  187.9230  176.4380  143.5940 C   0  0  0  0  0  2  0  0  0  0  0  0
  189.5540  177.7360  142.9840 C   0  0  1  0  0  0  0  0  0  0  0  0
  188.3780  177.0100  142.2800 C   0  0  1  0  0  0  0  0  0  0  0  0
  190.3470  176.9180  143.9970 C   0  0  0  0  0  2  0  0  0  0  0  0
  183.7640  173.8910  136.3270 C   0  0  1  0  0  3  0  0  0  0  0  0
  184.2520  173.4840  137.5790 O   0  0  0  0  0  0  0  0  0  0  0  0
  185.3370  172.6530  137.2900 C   0  0  0  0  0  1  0  0  0  0  0  0
  182.3440  173.5560  136.1410 N   0  0  0  0  0  0  0  0  0  0  0  0
  182.2730  172.2530  135.5010 C   0  0  0  0  0  2  0  0  0  0  0  0
  181.2750  171.3760  136.2330 C   0  0  0  0  0  1  0  0  0  0  0  0
  181.6660  173.4560  137.4300 C   0  0  0  0  0  2  0  0  0  0  0  0
  180.9430  174.7250  137.7380 C   0  0  0  0  0  0  0  0  0  0  0  0
  181.2300  175.4330  138.8970 O   0  0  0  0  0  1  0  0  0  0  0  0
  180.0450  175.1350  136.9590 O   0  0  0  0  0  0  0  0  0  0  0  0
  1 13  1  6  0  0  0
  2  3  1  0  0  0  0
  3 34  1  1  0  0  0
  3  1  1  0  0  0  0
  5 22  1  1  0  0  0
  5  4  1  0  0  0  0
  6 10  1  6  0  0  0
  6  9  1  0  0  0  0
  6  8  1  0  0  0  0
  7 11  1  0  0  0  0
  7  5  1  0  0  0  0
  8  1  1  0  0  0  0
  8 12  1  0  0  0  0
  9 11  1  0  0  0  0
 10  2  1  0  0  0  0
 11 12  1  0  0  0  0
 12  4  1  0  0  0  0
 13 16  1  0  0  0  0
 14 21  1  0  0  0  0
 14 17  1  0  0  0  0
 15 18  1  0  0  0  0
 16 17  2  0  0  0  0
 17 19  1  0  0  0  0
 18 14  2  0  0  0  0
 20 18  1  0  0  0  0
 20 13  2  0  0  0  0
 22 24  2  0  0  0  0
 23 22  1  0  0  0  0
 24 26  1  0  0  0  0
 25 26  2  0  0  0  0
 26 27  1  0  0  0  0
 27 32  1  0  0  0  0
 27 31  1  0  0  0  0
 29 32  1  0  0  0  0
 30 28  1  0  0  0  0
 31 33  1  0  0  0  0
 31 28  1  0  0  0  0
 32 31  1  0  0  0  0
 32 30  1  0  0  0  0
 33 28  1  0  0  0  0
 34 35  1  0  0  0  0
 36 35  1  0  0  0  0
 37 34  1  0  0  0  0
 37 40  1  0  0  0  0
 38 37  1  0  0  0  0
 38 39  1  0  0  0  0
 40 41  1  0  0  0  0
 41 42  1  0  0  0  0
 43 41  2  0  0  0  0
M  END
>  <MODEL>
9

>  <REMARK>
 VINA RESULT:      -5.0      3.844      8.673
  Name = 
  10 active torsions:
  status: ('A' for Active; 'I' for Inactive)
    1  A    between atoms: C_1  and  C_2
    2  A    between atoms: C_3  and  C_33
    3  A    between atoms: C_5  and  C_26
    4  A    between atoms: C_9  and  C_30
    5  A    between atoms: C_12  and  C_14
    6  A    between atoms: C_18  and  N_43
    7  A    between atoms: O_19  and  C_30
    8  A    between atoms: C_24  and  C_26
    9  A    between atoms: C_30  and  N_43
   10  A    between atoms: C_33  and  N_43
                            x       y       z     vdW  Elec       q    Type
                         _______ _______ _______ _____ _____    ______ ____

>  <TORSDO>
F 10

$$$$
