=
 OpenBabel11062415423D

 34 39  0  0  1  0  0  0  0  0999 V2000
  186.4960  178.1620  141.1140 C   0  0  0  0  0  0  0  0  0  0  0  0
  187.1190  178.6030  138.6190 C   0  0  2  0  0  3  0  0  0  0  0  0
  184.8720  177.5860  138.4510 C   0  0  0  0  0  0  0  0  0  0  0  0
  186.8540  177.9700  142.5510 C   0  0  0  0  0  0  0  0  0  0  0  0
  189.7900  178.1670  140.3190 C   0  0  0  0  0  2  0  0  0  0  0  0
  186.9320  178.3180  147.6040 C   0  0  0  0  0  0  0  0  0  0  0  0
  183.1230  178.1250  140.1080 N   0  0  0  0  0  2  0  0  0  0  0  0
  188.9200  176.5150  142.0360 C   0  0  2  0  0  3  0  0  0  0  0  0
  187.5790  178.1890  140.0440 C   0  0  1  0  0  3  0  0  0  0  0  0
  191.2840  176.4320  141.1430 C   0  0  0  0  0  1  0  0  0  0  0  0
  188.6550  178.9710  140.4930 O   0  0  0  0  0  0  0  0  0  0  0  0
  190.6850  178.2780  142.6420 C   0  0  0  0  0  1  0  0  0  0  0  0
  188.2760  177.1560  144.3630 C   0  0  0  0  0  3  0  0  0  0  0  0
  186.3320  178.5030  144.8780 C   0  0  0  0  0  0  0  0  0  0  0  0
  185.5090  179.1310  145.8170 C   0  0  0  0  0  3  0  0  0  0  0  0
  183.8380  177.9830  141.3530 C   0  0  0  0  0  2  0  0  0  0  0  0
  187.9910  177.2360  142.9890 C   0  0  0  0  0  0  0  0  0  0  0  0
  187.4610  177.7800  145.3040 C   0  0  0  0  0  0  0  0  0  0  0  0
  189.2940  175.2750  142.5680 O   0  0  0  0  0  1  0  0  0  0  0  0
  186.2130  177.6440  138.0650 O   0  0  0  0  0  0  0  0  0  0  0  0
  184.0660  176.7700  137.8560 N   0  0  0  0  0  2  0  0  0  0  0  0
  184.3910  178.5000  139.5340 C   0  0  1  0  0  3  0  0  0  0  0  0
  187.7580  177.6890  146.6670 C   0  0  0  0  0  3  0  0  0  0  0  0
  185.2040  178.2450  140.7690 C   0  0  0  0  0  0  0  0  0  0  0  0
  187.2190  178.2300  148.9250 F   0  0  0  0  0  0  0  0  0  0  0  0
  185.8090  179.0380  147.1800 C   0  0  0  0  0  3  0  0  0  0  0  0
  190.1450  177.3500  141.5610 C   0  0  0  0  0  0  0  0  0  0  0  0
  186.0430  178.5950  143.5180 C   0  0  0  0  0  3  0  0  0  0  0  0
  188.8610  179.8480  137.6130 O   0  0  0  0  0  0  0  0  0  0  0  0
  188.2690  178.7800  137.6750 C   0  0  0  0  0  0  0  0  0  0  0  0
  188.6810  177.6440  136.7980 C   0  0  0  0  0  2  0  0  0  0  0  0
  190.4440  175.9910  136.2920 C   0  0  0  0  0  2  0  0  0  0  0  0
  189.8670  175.6560  137.6500 C   0  0  0  0  0  2  0  0  0  0  0  0
  190.0290  177.1030  137.2330 C   0  0  0  0  0  3  0  0  0  0  0  0
  1  4  1  0  0  0  0
  2 30  1  6  0  0  0
  2  9  1  0  0  0  0
  4 17  2  0  0  0  0
  4 28  1  0  0  0  0
  5 11  1  0  0  0  0
  5 27  1  0  0  0  0
  6 25  1  0  0  0  0
  7 16  1  0  0  0  0
  8 19  1  1  0  0  0
  8 17  1  0  0  0  0
  9 11  1  1  0  0  0
  9  1  1  0  0  0  0
 10 27  1  0  0  0  0
 13 18  2  0  0  0  0
 14 18  1  0  0  0  0
 14 15  1  0  0  0  0
 15 26  2  0  0  0  0
 17 13  1  0  0  0  0
 18 23  1  0  0  0  0
 20  3  1  0  0  0  0
 20  2  1  0  0  0  0
 21  3  2  0  0  0  0
 22  3  1  6  0  0  0
 22  7  1  0  0  0  0
 22 24  1  0  0  0  0
 23  6  2  0  0  0  0
 24  1  2  0  0  0  0
 24 16  1  0  0  0  0
 26  6  1  0  0  0  0
 27  8  1  0  0  0  0
 27 12  1  0  0  0  0
 28 14  2  0  0  0  0
 29 30  2  0  0  0  0
 31 34  1  0  0  0  0
 31 30  1  0  0  0  0
 32 34  1  0  0  0  0
 32 33  1  0  0  0  0
 34 33  1  0  0  0  0
M  END
>  <MODEL>
1

>  <REMARK>
 VINA RESULT:      -8.0      0.000      0.000
  Name = 
  3 active torsions:
  status: ('A' for Active; 'I' for Inactive)
    1  A    between atoms: C_3  and  C_4
    2  A    between atoms: C_4  and  C_7
    3  A    between atoms: C_7  and  C_33
                            x       y       z     vdW  Elec       q    Type
                         _______ _______ _______ _____ _____    ______ ____

>  <TORSDO>
F 3

$$$$
=
 OpenBabel11062415423D

 34 39  0  0  1  0  0  0  0  0999 V2000
  184.8390  178.5460  142.9700 C   0  0  0  0  0  0  0  0  0  0  0  0
  184.2430  179.0930  140.4900 C   0  0  2  0  0  3  0  0  0  0  0  0
  182.1470  178.1060  141.3520 C   0  0  0  0  0  0  0  0  0  0  0  0
  185.8180  178.2860  144.0680 C   0  0  0  0  0  0  0  0  0  0  0  0
  187.3840  178.5560  140.7330 C   0  0  0  0  0  2  0  0  0  0  0  0
  188.2480  178.4050  148.5110 C   0  0  0  0  0  0  0  0  0  0  0  0
  181.3860  178.5860  143.6510 N   0  0  0  0  0  2  0  0  0  0  0  0
  187.3630  176.8360  142.5980 C   0  0  2  0  0  3  0  0  0  0  0  0
  185.3010  178.6110  141.5210 C   0  0  1  0  0  3  0  0  0  0  0  0
  189.0380  176.7710  140.7040 C   0  0  0  0  0  1  0  0  0  0  0  0
  186.4840  179.3620  141.4450 O   0  0  0  0  0  0  0  0  0  0  0  0
  189.2590  178.5530  142.3740 C   0  0  0  0  0  1  0  0  0  0  0  0
  187.8950  177.3770  144.9780 C   0  0  0  0  0  3  0  0  0  0  0  0
  186.4540  178.7190  146.3870 C   0  0  0  0  0  0  0  0  0  0  0  0
  186.1820  179.3110  147.6220 C   0  0  0  0  0  3  0  0  0  0  0  0
  182.5930  178.3820  144.4140 C   0  0  0  0  0  2  0  0  0  0  0  0
  187.0070  177.5220  143.8980 C   0  0  0  0  0  0  0  0  0  0  0  0
  187.6300  177.9670  146.2120 C   0  0  0  0  0  0  0  0  0  0  0  0
  187.9060  175.5700  142.8500 O   0  0  0  0  0  1  0  0  0  0  0  0
  183.1550  178.1680  140.3890 O   0  0  0  0  0  0  0  0  0  0  0  0
  181.1330  177.3260  141.1730 N   0  0  0  0  0  2  0  0  0  0  0  0
  182.2520  178.9750  142.5660 C   0  0  1  0  0  3  0  0  0  0  0  0
  188.5240  177.8110  147.2750 C   0  0  0  0  0  3  0  0  0  0  0  0
  183.5380  178.6570  143.2710 C   0  0  0  0  0  0  0  0  0  0  0  0
  189.1130  178.2550  149.5420 F   0  0  0  0  0  0  0  0  0  0  0  0
  187.0790  179.1540  148.6840 C   0  0  0  0  0  3  0  0  0  0  0  0
  188.2520  177.6800  141.6360 C   0  0  0  0  0  0  0  0  0  0  0  0
  185.5690  178.8740  145.3220 C   0  0  0  0  0  3  0  0  0  0  0  0
  184.9750  180.4310  138.6820 O   0  0  0  0  0  0  0  0  0  0  0  0
  184.8270  179.3020  139.1250 C   0  0  0  0  0  0  0  0  0  0  0  0
  185.2150  178.1170  138.3050 C   0  0  0  0  0  2  0  0  0  0  0  0
  186.3180  177.6050  136.1550 C   0  0  0  0  0  2  0  0  0  0  0  0
  187.2770  177.2440  137.2680 C   0  0  0  0  0  2  0  0  0  0  0  0
  186.3860  178.4610  137.4030 C   0  0  0  0  0  3  0  0  0  0  0  0
  1 24  2  0  0  0  0
  1  4  1  0  0  0  0
  2 30  1  6  0  0  0
  2  9  1  0  0  0  0
  4 28  1  0  0  0  0
  5 11  1  0  0  0  0
  5 27  1  0  0  0  0
  6 26  1  0  0  0  0
  6 25  1  0  0  0  0
  7 16  1  0  0  0  0
  8 19  1  1  0  0  0
  8 17  1  0  0  0  0
  9 11  1  1  0  0  0
  9  1  1  0  0  0  0
 10 27  1  0  0  0  0
 13 18  2  0  0  0  0
 14 15  1  0  0  0  0
 15 26  2  0  0  0  0
 17  4  2  0  0  0  0
 17 13  1  0  0  0  0
 18 14  1  0  0  0  0
 18 23  1  0  0  0  0
 20  2  1  0  0  0  0
 20  3  1  0  0  0  0
 21  3  2  0  0  0  0
 22  3  1  6  0  0  0
 22 24  1  0  0  0  0
 22  7  1  0  0  0  0
 23  6  2  0  0  0  0
 24 16  1  0  0  0  0
 27 12  1  0  0  0  0
 27  8  1  0  0  0  0
 28 14  2  0  0  0  0
 29 30  2  0  0  0  0
 31 30  1  0  0  0  0
 32 33  1  0  0  0  0
 32 34  1  0  0  0  0
 33 34  1  0  0  0  0
 34 31  1  0  0  0  0
M  END
>  <MODEL>
2

>  <REMARK>
 VINA RESULT:      -7.7      1.946      2.830
  Name = 
  3 active torsions:
  status: ('A' for Active; 'I' for Inactive)
    1  A    between atoms: C_3  and  C_4
    2  A    between atoms: C_4  and  C_7
    3  A    between atoms: C_7  and  C_33
                            x       y       z     vdW  Elec       q    Type
                         _______ _______ _______ _____ _____    ______ ____

>  <TORSDO>
F 3

$$$$
=
 OpenBabel11062415423D

 34 40  0  0  1  0  0  0  0  0999 V2000
  189.2630  177.3730  140.1110 C   0  0  0  0  0  0  0  0  0  0  0  0
  191.5990  177.2330  138.9600 C   0  0  2  0  0  3  0  0  0  0  0  0
  190.0790  176.3440  137.2250 C   0  0  0  0  0  0  0  0  0  0  0  0
  188.3880  177.4710  141.3180 C   0  0  0  0  0  0  0  0  0  0  0  0
  191.9620  177.0060  142.1270 C   0  0  0  0  0  2  0  0  0  0  0  0
  184.7640  178.8840  144.5640 C   0  0  0  0  0  0  0  0  0  0  0  0
  187.8410  177.3310  136.8920 N   0  0  0  0  0  2  0  0  0  0  0  0
  189.7980  175.8150  142.7030 C   0  0  2  0  0  3  0  0  0  0  0  0
  190.7540  177.1050  140.2570 C   0  0  1  0  0  3  0  0  0  0  0  0
  191.9560  175.3980  143.9540 C   0  0  0  0  0  1  0  0  0  0  0  0
  191.2690  177.8970  141.2960 O   0  0  0  0  0  0  0  0  0  0  0  0
  190.8350  177.5540  144.2810 C   0  0  0  0  0  1  0  0  0  0  0  0
  187.7910  176.9760  143.6340 C   0  0  0  0  0  3  0  0  0  0  0  0
  186.4380  178.5200  142.3510 C   0  0  0  0  0  0  0  0  0  0  0  0
  185.3420  179.3830  142.2620 C   0  0  0  0  0  3  0  0  0  0  0  0
  187.3480  177.4140  138.2450 C   0  0  2  0  0  3  0  0  0  0  0  0
  188.6430  176.7780  142.5340 C   0  0  0  0  0  0  0  0  0  0  0  0
  186.6980  177.8360  143.5530 C   0  0  0  0  0  0  0  0  0  0  0  0
  189.3910  174.6960  143.4420 O   0  0  0  0  0  1  0  0  0  0  0  0
  191.2350  176.2350  138.0010 O   0  0  0  0  0  0  0  0  0  0  0  0
  189.8380  175.4710  136.3030 N   0  0  0  0  0  2  0  0  0  0  0  0
  189.1540  177.4960  137.4630 C   0  0  1  0  0  0  0  0  0  0  0  0
  185.8600  178.0200  144.6560 C   0  0  0  0  0  3  0  0  0  0  0  0
  188.7070  177.4610  138.8950 C   0  0  0  0  0  0  0  0  0  0  0  0
  183.9520  179.0630  145.6320 F   0  0  0  0  0  0  0  0  0  0  0  0
  184.5060  179.5640  143.3680 C   0  0  0  0  0  3  0  0  0  0  0  0
  191.1030  176.4520  143.2640 C   0  0  0  0  0  0  0  0  0  0  0  0
  187.2790  178.3360  141.2560 C   0  0  0  0  0  3  0  0  0  0  0  0
  193.7260  178.1360  139.4660 O   0  0  0  0  0  0  0  0  0  0  0  0
  193.0720  177.1330  139.2230 C   0  0  0  0  0  0  0  0  0  0  0  0
  193.7370  175.7980  139.1740 C   0  0  0  0  0  2  0  0  0  0  0  0
  193.8500  173.9910  137.4940 C   0  0  0  0  0  2  0  0  0  0  0  0
  195.2630  174.4490  137.7820 C   0  0  0  0  0  2  0  0  0  0  0  0
  194.1340  175.4570  137.7500 C   0  0  0  0  0  3  0  0  0  0  0  0
  1  4  1  0  0  0  0
  2 30  1  1  0  0  0
  2  9  1  0  0  0  0
  3 22  1  0  0  0  0
  3 20  1  0  0  0  0
  4 17  1  0  0  0  0
  5 27  1  0  0  0  0
  6 23  1  0  0  0  0
  6 25  1  0  0  0  0
  8 27  1  0  0  0  0
  8 19  1  1  0  0  0
  9  1  1  6  0  0  0
  9 11  1  0  0  0  0
 11  5  1  0  0  0  0
 14 18  1  0  0  0  0
 15 14  2  0  0  0  0
 15 26  1  0  0  0  0
 16  7  1  6  0  0  0
 16 24  1  0  0  0  0
 17  8  1  0  0  0  0
 17 13  2  0  0  0  0
 18 13  1  0  0  0  0
 18 23  2  0  0  0  0
 20  2  1  0  0  0  0
 21  3  2  0  0  0  0
 22  7  1  6  0  0  0
 22 16  1  0  0  0  0
 22 24  1  0  0  0  0
 24  1  2  0  0  0  0
 26  6  2  0  0  0  0
 27 10  1  0  0  0  0
 27 12  1  0  0  0  0
 28  4  2  0  0  0  0
 28 14  1  0  0  0  0
 30 29  2  0  0  0  0
 31 30  1  0  0  0  0
 32 34  1  0  0  0  0
 32 33  1  0  0  0  0
 34 33  1  0  0  0  0
 34 31  1  0  0  0  0
M  END
>  <MODEL>
3

>  <REMARK>
 VINA RESULT:      -7.5      2.750      3.955
  Name = 
  3 active torsions:
  status: ('A' for Active; 'I' for Inactive)
    1  A    between atoms: C_3  and  C_4
    2  A    between atoms: C_4  and  C_7
    3  A    between atoms: C_7  and  C_33
                            x       y       z     vdW  Elec       q    Type
                         _______ _______ _______ _____ _____    ______ ____

>  <TORSDO>
F 3

$$$$
=
 OpenBabel11062415423D

 34 40  0  0  1  0  0  0  0  0999 V2000
  187.6960  177.7980  142.2990 C   0  0  0  0  0  0  0  0  0  0  0  0
  186.4240  177.5770  144.5650 C   0  0  2  0  0  3  0  0  0  0  0  0
  185.1830  179.3790  143.4150 C   0  0  0  0  0  0  0  0  0  0  0  0
  188.8960  177.5990  141.4310 C   0  0  0  0  0  0  0  0  0  0  0  0
  189.4660  176.6830  144.9640 C   0  0  0  0  0  2  0  0  0  0  0  0
  191.9010  176.4120  137.5300 C   0  0  0  0  0  0  0  0  0  0  0  0
  184.7840  179.2730  140.9800 N   0  0  0  0  0  2  0  0  0  0  0  0
  190.5720  178.2310  143.2860 C   0  0  2  0  0  3  0  0  0  0  0  0
  187.7740  177.5430  143.7970 C   0  0  1  0  0  3  0  0  0  0  0  0
  191.6800  177.5620  145.4590 C   0  0  0  0  0  1  0  0  0  0  0  0
  188.4760  176.3500  144.0280 O   0  0  0  0  0  0  0  0  0  0  0  0
  191.4550  175.8580  143.7100 C   0  0  0  0  0  1  0  0  0  0  0  0
  191.3000  177.5030  141.0100 C   0  0  0  0  0  3  0  0  0  0  0  0
  189.7490  176.9230  139.2440 C   0  0  0  0  0  0  0  0  0  0  0  0
  189.5110  176.5060  137.9320 C   0  0  0  0  0  3  0  0  0  0  0  0
  186.0910  178.9240  140.4790 C   0  0  2  0  0  3  0  0  0  0  0  0
  190.2330  177.7660  141.8870 C   0  0  0  0  0  0  0  0  0  0  0  0
  191.0700  177.0850  139.7020 C   0  0  0  0  0  0  0  0  0  0  0  0
  191.6450  179.1310  143.2520 O   0  0  0  0  0  1  0  0  0  0  0  0
  185.8440  178.8850  144.5410 O   0  0  0  0  0  0  0  0  0  0  0  0
  184.5890  180.5250  143.4680 N   0  0  0  0  0  2  0  0  0  0  0  0
  185.1540  178.5470  142.1700 C   0  0  1  0  0  0  0  0  0  0  0  0
  192.1420  176.8290  138.8430 C   0  0  0  0  0  3  0  0  0  0  0  0
  186.5670  178.2680  141.7500 C   0  0  0  0  0  0  0  0  0  0  0  0
  192.9390  176.1640  136.6970 F   0  0  0  0  0  0  0  0  0  0  0  0
  190.5870  176.2510  137.0750 C   0  0  0  0  0  3  0  0  0  0  0  0
  190.7920  177.0870  144.3190 C   0  0  0  0  0  0  0  0  0  0  0  0
  188.6840  177.1750  140.1060 C   0  0  0  0  0  3  0  0  0  0  0  0
  186.2530  176.0040  146.3240 O   0  0  0  0  0  0  0  0  0  0  0  0
  186.5650  177.1380  145.9910 C   0  0  0  0  0  0  0  0  0  0  0  0
  187.0780  178.1020  147.0080 C   0  0  0  0  0  2  0  0  0  0  0  0
  188.1690  178.2530  149.2190 C   0  0  0  0  0  2  0  0  0  0  0  0
  189.2530  178.2530  148.1640 C   0  0  0  0  0  2  0  0  0  0  0  0
  188.0150  177.4020  147.9750 C   0  0  0  0  0  3  0  0  0  0  0  0
  2 30  1  1  0  0  0
  3 21  2  0  0  0  0
  3 20  1  0  0  0  0
  4 17  1  0  0  0  0
  4  1  1  0  0  0  0
  6 23  1  0  0  0  0
  8 19  1  6  0  0  0
  8 27  1  0  0  0  0
  9  1  1  6  0  0  0
  9 11  1  0  0  0  0
  9  2  1  0  0  0  0
 11  5  1  0  0  0  0
 12 27  1  0  0  0  0
 13 17  2  0  0  0  0
 14 18  1  0  0  0  0
 14 28  1  0  0  0  0
 15 14  2  0  0  0  0
 16  7  1  1  0  0  0
 16 24  1  0  0  0  0
 16 22  1  0  0  0  0
 17  8  1  0  0  0  0
 18 13  1  0  0  0  0
 20  2  1  0  0  0  0
 22  7  1  6  0  0  0
 22  3  1  0  0  0  0
 23 18  2  0  0  0  0
 24 22  1  0  0  0  0
 24  1  2  0  0  0  0
 25  6  1  0  0  0  0
 26  6  2  0  0  0  0
 26 15  1  0  0  0  0
 27  5  1  0  0  0  0
 27 10  1  0  0  0  0
 28  4  2  0  0  0  0
 30 29  2  0  0  0  0
 30 31  1  0  0  0  0
 31 34  1  0  0  0  0
 33 32  1  0  0  0  0
 34 33  1  0  0  0  0
 34 32  1  0  0  0  0
M  END
>  <MODEL>
4

>  <REMARK>
 VINA RESULT:      -7.4      3.284      7.183
  Name = 
  3 active torsions:
  status: ('A' for Active; 'I' for Inactive)
    1  A    between atoms: C_3  and  C_4
    2  A    between atoms: C_4  and  C_7
    3  A    between atoms: C_7  and  C_33
                            x       y       z     vdW  Elec       q    Type
                         _______ _______ _______ _____ _____    ______ ____

>  <TORSDO>
F 3

$$$$
=
 OpenBabel11062415423D

 34 40  0  0  1  0  0  0  0  0999 V2000
  188.4760  177.4030  139.7290 C   0  0  0  0  0  0  0  0  0  0  0  0
  186.3430  178.6200  140.6110 C   0  0  2  0  0  3  0  0  0  0  0  0
  187.3160  177.6580  142.6700 C   0  0  0  0  0  0  0  0  0  0  0  0
  189.2860  176.7780  138.6420 C   0  0  0  0  0  0  0  0  0  0  0  0
  185.8790  177.7310  137.5760 C   0  0  0  0  0  2  0  0  0  0  0  0
  193.1170  175.5210  135.5750 C   0  0  0  0  0  0  0  0  0  0  0  0
  189.7620  177.6100  143.0000 N   0  0  0  0  0  2  0  0  0  0  0  0
  187.2620  175.6040  137.5560 C   0  0  2  0  0  3  0  0  0  0  0  0
  187.0230  177.7890  139.4880 C   0  0  1  0  0  3  0  0  0  0  0  0
  185.1340  175.8580  136.2130 C   0  0  0  0  0  1  0  0  0  0  0  0
  186.9110  178.4140  138.2360 O   0  0  0  0  0  0  0  0  0  0  0  0
  187.1060  177.1250  135.4940 C   0  0  0  0  0  1  0  0  0  0  0  0
  189.5660  175.4670  136.6000 C   0  0  0  0  0  3  0  0  0  0  0  0
  191.4870  176.5410  137.6080 C   0  0  0  0  0  0  0  0  0  0  0  0
  192.8550  176.8230  137.6040 C   0  0  0  0  0  3  0  0  0  0  0  0
  190.2230  177.1000  141.7310 C   0  0  2  0  0  3  0  0  0  0  0  0
  188.7300  175.9680  137.6120 C   0  0  0  0  0  0  0  0  0  0  0  0
  190.9300  175.7460  136.5890 C   0  0  0  0  0  0  0  0  0  0  0  0
  187.1090  174.2680  137.1650 O   0  0  0  0  0  1  0  0  0  0  0  0
  186.2270  177.8630  141.8210 O   0  0  0  0  0  0  0  0  0  0  0  0
  187.1460  177.0530  143.8000 N   0  0  0  0  0  2  0  0  0  0  0  0
  188.6600  178.1750  142.2620 C   0  0  1  0  0  0  0  0  0  0  0  0
  191.7470  175.2380  135.5760 C   0  0  0  0  0  3  0  0  0  0  0  0
  189.0250  177.5620  140.9420 C   0  0  0  0  0  0  0  0  0  0  0  0
  193.9100  175.0290  134.5940 F   0  0  0  0  0  0  0  0  0  0  0  0
  193.6700  176.3130  136.5880 C   0  0  0  0  0  3  0  0  0  0  0  0
  186.3800  176.5720  136.7140 C   0  0  0  0  0  0  0  0  0  0  0  0
  190.6660  177.0490  138.6130 C   0  0  0  0  0  3  0  0  0  0  0  0
  184.8620  180.0930  139.5000 O   0  0  0  0  0  0  0  0  0  0  0  0
  184.9830  179.1100  140.2170 C   0  0  0  0  0  0  0  0  0  0  0  0
  183.7720  178.3960  140.7190 C   0  0  0  0  0  2  0  0  0  0  0  0
  181.6340  177.3220  140.1070 C   0  0  0  0  0  2  0  0  0  0  0  0
  182.7500  176.5530  139.4360 C   0  0  0  0  0  2  0  0  0  0  0  0
  182.8430  178.0580  139.5680 C   0  0  0  0  0  3  0  0  0  0  0  0
  1 24  2  0  0  0  0
  2 30  1  6  0  0  0
  2 20  1  0  0  0  0
  3 21  2  0  0  0  0
  4  1  1  0  0  0  0
  5 11  1  0  0  0  0
  6 23  2  0  0  0  0
  6 26  1  0  0  0  0
  8 19  1  6  0  0  0
  8 17  1  0  0  0  0
  9 11  1  6  0  0  0
  9  1  1  0  0  0  0
  9  2  1  0  0  0  0
 10 27  1  0  0  0  0
 12 27  1  0  0  0  0
 13 17  1  0  0  0  0
 14 28  2  0  0  0  0
 15 14  1  0  0  0  0
 16 24  1  1  0  0  0
 16 22  1  0  0  0  0
 16  7  1  0  0  0  0
 17  4  2  0  0  0  0
 18 13  2  0  0  0  0
 18 14  1  0  0  0  0
 20  3  1  0  0  0  0
 22 24  1  6  0  0  0
 22  3  1  0  0  0  0
 22  7  1  0  0  0  0
 23 18  1  0  0  0  0
 25  6  1  0  0  0  0
 26 15  2  0  0  0  0
 27  8  1  0  0  0  0
 27  5  1  0  0  0  0
 28  4  1  0  0  0  0
 29 30  2  0  0  0  0
 30 31  1  0  0  0  0
 33 34  1  0  0  0  0
 33 32  1  0  0  0  0
 34 32  1  0  0  0  0
 34 31  1  0  0  0  0
M  END
>  <MODEL>
5

>  <REMARK>
 VINA RESULT:      -7.0      3.835      7.699
  Name = 
  3 active torsions:
  status: ('A' for Active; 'I' for Inactive)
    1  A    between atoms: C_3  and  C_4
    2  A    between atoms: C_4  and  C_7
    3  A    between atoms: C_7  and  C_33
                            x       y       z     vdW  Elec       q    Type
                         _______ _______ _______ _____ _____    ______ ____

>  <TORSDO>
F 3

$$$$
=
 OpenBabel11062415423D

 34 40  0  0  1  0  0  0  0  0999 V2000
  186.2920  177.9400  139.0270 C   0  0  0  0  0  0  0  0  0  0  0  0
  186.4120  176.9880  136.6020 C   0  0  2  0  0  3  0  0  0  0  0  0
  188.5460  178.2170  136.8140 C   0  0  0  0  0  0  0  0  0  0  0  0
  185.5400  178.3420  140.2530 C   0  0  0  0  0  0  0  0  0  0  0  0
  183.3530  177.4020  137.4290 C   0  0  0  0  0  2  0  0  0  0  0  0
  184.0930  178.8990  145.0760 C   0  0  0  0  0  0  0  0  0  0  0  0
  189.8020  178.1950  138.9400 N   0  0  0  0  0  2  0  0  0  0  0  0
  183.6060  179.4260  138.9360 C   0  0  2  0  0  3  0  0  0  0  0  0
  185.5500  177.5930  137.7440 C   0  0  1  0  0  3  0  0  0  0  0  0
  181.5790  179.0670  137.4670 C   0  0  0  0  0  1  0  0  0  0  0  0
  184.4460  176.7820  138.0510 O   0  0  0  0  0  0  0  0  0  0  0  0
  181.8610  177.6040  139.4140 C   0  0  0  0  0  1  0  0  0  0  0  0
  183.6230  179.2940  141.4310 C   0  0  0  0  0  3  0  0  0  0  0  0
  185.4330  178.3000  142.6940 C   0  0  0  0  0  0  0  0  0  0  0  0
  186.0040  177.9530  143.9210 C   0  0  0  0  0  3  0  0  0  0  0  0
  188.7630  178.4710  139.9020 C   0  0  2  0  0  3  0  0  0  0  0  0
  184.2800  179.0030  140.2230 C   0  0  0  0  0  0  0  0  0  0  0  0
  184.1850  178.9490  142.6570 C   0  0  0  0  0  0  0  0  0  0  0  0
  183.0180  180.6890  139.0890 O   0  0  0  0  0  1  0  0  0  0  0  0
  187.3710  177.9330  136.1160 O   0  0  0  0  0  0  0  0  0  0  0  0
  189.4300  179.0030  136.2930 N   0  0  0  0  0  2  0  0  0  0  0  0
  188.7690  177.5750  138.1480 C   0  0  1  0  0  0  0  0  0  0  0  0
  183.5180  179.2470  143.8490 C   0  0  0  0  0  3  0  0  0  0  0  0
  187.6320  177.9500  139.0520 C   0  0  0  0  0  0  0  0  0  0  0  0
  183.4470  179.1870  146.2310 F   0  0  0  0  0  0  0  0  0  0  0  0
  185.3340  178.2530  145.1120 C   0  0  0  0  0  3  0  0  0  0  0  0
  182.6160  178.3810  138.3430 C   0  0  0  0  0  0  0  0  0  0  0  0
  186.0910  178.0020  141.5030 C   0  0  0  0  0  3  0  0  0  0  0  0
  185.1440  177.3030  134.6290 O   0  0  0  0  0  0  0  0  0  0  0  0
  185.5820  176.5090  135.4490 C   0  0  0  0  0  0  0  0  0  0  0  0
  185.2810  175.0530  135.3170 C   0  0  0  0  0  2  0  0  0  0  0  0
  185.9040  172.7690  136.0220 C   0  0  0  0  0  2  0  0  0  0  0  0
  185.3000  173.4770  137.2150 C   0  0  0  0  0  2  0  0  0  0  0  0
  186.1710  174.2440  136.2420 C   0  0  0  0  0  3  0  0  0  0  0  0
  1 24  2  0  0  0  0
  1  4  1  0  0  0  0
  2 30  1  6  0  0  0
  2  9  1  0  0  0  0
  4 28  1  0  0  0  0
  5 11  1  0  0  0  0
  5 27  1  0  0  0  0
  6 26  1  0  0  0  0
  6 25  1  0  0  0  0
  8 19  1  1  0  0  0
  8 17  1  0  0  0  0
  9 11  1  1  0  0  0
  9  1  1  0  0  0  0
 10 27  1  0  0  0  0
 13 18  2  0  0  0  0
 14 15  1  0  0  0  0
 15 26  2  0  0  0  0
 16  7  1  6  0  0  0
 17  4  2  0  0  0  0
 17 13  1  0  0  0  0
 18 14  1  0  0  0  0
 18 23  1  0  0  0  0
 20  2  1  0  0  0  0
 20  3  1  0  0  0  0
 21  3  2  0  0  0  0
 22  3  1  6  0  0  0
 22  7  1  0  0  0  0
 22 24  1  0  0  0  0
 22 16  1  0  0  0  0
 23  6  2  0  0  0  0
 24 16  1  0  0  0  0
 27  8  1  0  0  0  0
 27 12  1  0  0  0  0
 28 14  2  0  0  0  0
 29 30  2  0  0  0  0
 31 30  1  0  0  0  0
 31 34  1  0  0  0  0
 32 34  1  0  0  0  0
 32 33  1  0  0  0  0
 34 33  1  0  0  0  0
M  END
>  <MODEL>
6

>  <REMARK>
 VINA RESULT:      -6.8      2.922      5.368
  Name = 
  3 active torsions:
  status: ('A' for Active; 'I' for Inactive)
    1  A    between atoms: C_3  and  C_4
    2  A    between atoms: C_4  and  C_7
    3  A    between atoms: C_7  and  C_33
                            x       y       z     vdW  Elec       q    Type
                         _______ _______ _______ _____ _____    ______ ____

>  <TORSDO>
F 3

$$$$
=
 OpenBabel11062415423D

 34 40  0  0  1  0  0  0  0  0999 V2000
  185.0870  178.0490  139.2490 C   0  0  0  0  0  0  0  0  0  0  0  0
  186.3000  176.9490  137.2180 C   0  0  2  0  0  3  0  0  0  0  0  0
  188.0150  178.4900  138.1110 C   0  0  0  0  0  0  0  0  0  0  0  0
  183.8570  178.4260  140.0080 C   0  0  0  0  0  0  0  0  0  0  0  0
  183.1490  176.9700  136.6880 C   0  0  0  0  0  2  0  0  0  0  0  0
  180.4920  179.1180  143.7310 C   0  0  0  0  0  0  0  0  0  0  0  0
  188.2700  178.8090  140.5460 N   0  0  0  0  0  2  0  0  0  0  0  0
  182.5430  179.1140  137.8990 C   0  0  2  0  0  3  0  0  0  0  0  0
  184.9850  177.5040  137.8310 C   0  0  1  0  0  3  0  0  0  0  0  0
  181.3570  178.3550  135.7990 C   0  0  0  0  0  1  0  0  0  0  0  0
  183.9430  176.5650  137.7700 O   0  0  0  0  0  0  0  0  0  0  0  0
  180.9560  177.0970  137.8650 C   0  0  0  0  0  1  0  0  0  0  0  0
  181.5380  179.1700  140.1860 C   0  0  0  0  0  3  0  0  0  0  0  0
  182.7540  178.5490  142.1840 C   0  0  0  0  0  0  0  0  0  0  0  0
  182.7970  178.3800  143.5710 C   0  0  0  0  0  3  0  0  0  0  0  0
  186.9040  179.0000  140.9660 C   0  0  2  0  0  3  0  0  0  0  0  0
  182.6630  178.8910  139.3910 C   0  0  0  0  0  0  0  0  0  0  0  0
  181.5740  179.0030  141.5680 C   0  0  0  0  0  0  0  0  0  0  0  0
  181.8180  180.2850  137.6410 O   0  0  0  0  0  1  0  0  0  0  0  0
  187.2710  177.9860  137.0420 O   0  0  0  0  0  0  0  0  0  0  0  0
  188.9490  179.3560  137.8930 N   0  0  0  0  0  2  0  0  0  0  0  0
  187.7290  177.9880  139.4920 C   0  0  1  0  0  0  0  0  0  0  0  0
  180.4460  179.2870  142.3430 C   0  0  0  0  0  3  0  0  0  0  0  0
  186.2880  178.2570  139.8080 C   0  0  0  0  0  0  0  0  0  0  0  0
  179.4000  179.3930  144.4830 F   0  0  0  0  0  0  0  0  0  0  0  0
  181.6660  178.6650  144.3440 C   0  0  0  0  0  3  0  0  0  0  0  0
  182.0020  177.8950  137.0970 C   0  0  0  0  0  0  0  0  0  0  0  0
  183.8730  178.2630  141.4060 C   0  0  0  0  0  3  0  0  0  0  0  0
  185.9050  176.9290  134.8860 O   0  0  0  0  0  0  0  0  0  0  0  0
  186.0760  176.2700  135.9010 C   0  0  0  0  0  0  0  0  0  0  0  0
  186.0530  174.7790  135.8390 C   0  0  0  0  0  2  0  0  0  0  0  0
  186.6440  172.7010  137.0360 C   0  0  0  0  0  2  0  0  0  0  0  0
  185.3300  173.2010  137.5930 C   0  0  0  0  0  2  0  0  0  0  0  0
  186.4050  174.1880  137.1920 C   0  0  0  0  0  3  0  0  0  0  0  0
  1 24  2  0  0  0  0
  1  4  1  0  0  0  0
  2 30  1  6  0  0  0
  2  9  1  0  0  0  0
  4 28  1  0  0  0  0
  5 27  1  0  0  0  0
  5 11  1  0  0  0  0
  6 26  1  0  0  0  0
  6 25  1  0  0  0  0
  7 16  1  0  0  0  0
  8 19  1  1  0  0  0
  8 17  1  0  0  0  0
  9 11  1  1  0  0  0
  9  1  1  0  0  0  0
 10 27  1  0  0  0  0
 13 18  2  0  0  0  0
 14 15  1  0  0  0  0
 15 26  2  0  0  0  0
 16 24  1  6  0  0  0
 17  4  2  0  0  0  0
 17 13  1  0  0  0  0
 18 14  1  0  0  0  0
 18 23  1  0  0  0  0
 20  2  1  0  0  0  0
 20  3  1  0  0  0  0
 21  3  2  0  0  0  0
 22  3  1  6  0  0  0
 22 24  1  0  0  0  0
 22  7  1  0  0  0  0
 22 16  1  0  0  0  0
 23  6  2  0  0  0  0
 27 12  1  0  0  0  0
 27  8  1  0  0  0  0
 28 14  2  0  0  0  0
 29 30  2  0  0  0  0
 31 30  1  0  0  0  0
 31 34  1  0  0  0  0
 32 34  1  0  0  0  0
 32 33  1  0  0  0  0
 34 33  1  0  0  0  0
M  END
>  <MODEL>
7

>  <REMARK>
 VINA RESULT:      -6.6      3.765      6.196
  Name = 
  3 active torsions:
  status: ('A' for Active; 'I' for Inactive)
    1  A    between atoms: C_3  and  C_4
    2  A    between atoms: C_4  and  C_7
    3  A    between atoms: C_7  and  C_33
                            x       y       z     vdW  Elec       q    Type
                         _______ _______ _______ _____ _____    ______ ____

>  <TORSDO>
F 3

$$$$
=
 OpenBabel11062415423D

 34 39  0  0  1  0  0  0  0  0999 V2000
  189.5890  176.7570  138.7770 C   0  0  0  0  0  0  0  0  0  0  0  0
  190.6290  175.2440  136.9240 C   0  0  2  0  0  3  0  0  0  0  0  0
  192.5840  176.5030  137.7640 C   0  0  0  0  0  0  0  0  0  0  0  0
  188.4330  177.4410  139.4310 C   0  0  0  0  0  0  0  0  0  0  0  0
  187.5650  175.8250  136.2240 C   0  0  0  0  0  2  0  0  0  0  0  0
  185.1440  179.1450  142.8850 C   0  0  0  0  0  0  0  0  0  0  0  0
  192.8120  177.0090  140.1700 N   0  0  0  0  0  2  0  0  0  0  0  0
  187.3570  178.1570  137.1990 C   0  0  2  0  0  3  0  0  0  0  0  0
  189.4300  176.1030  137.4120 C   0  0  1  0  0  3  0  0  0  0  0  0
  186.1180  177.4370  135.1150 C   0  0  0  0  0  1  0  0  0  0  0  0
  188.2250  175.3840  137.3800 O   0  0  0  0  0  0  0  0  0  0  0  0
  185.4020  176.4950  137.2630 C   0  0  0  0  0  1  0  0  0  0  0  0
  186.3030  178.6370  139.4130 C   0  0  0  0  0  3  0  0  0  0  0  0
  187.3000  177.9940  141.5230 C   0  0  0  0  0  0  0  0  0  0  0  0
  187.2590  177.9600  142.9190 C   0  0  0  0  0  3  0  0  0  0  0  0
  191.4970  177.5040  140.4970 C   0  0  0  0  0  2  0  0  0  0  0  0
  187.3770  178.0660  138.7090 C   0  0  0  0  0  0  0  0  0  0  0  0
  186.2560  178.6050  140.8040 C   0  0  0  0  0  0  0  0  0  0  0  0
  186.8890  179.4150  136.7960 O   0  0  0  0  0  1  0  0  0  0  0  0
  191.7920  176.0490  136.7070 O   0  0  0  0  0  0  0  0  0  0  0  0
  193.6780  177.1450  137.5200 N   0  0  0  0  0  2  0  0  0  0  0  0
  192.1550  176.2070  139.1680 C   0  0  1  0  0  3  0  0  0  0  0  0
  185.1800  179.1800  141.4880 C   0  0  0  0  0  3  0  0  0  0  0  0
  190.7860  176.7830  139.3800 C   0  0  0  0  0  0  0  0  0  0  0  0
  184.1020  179.7020  143.5490 F   0  0  0  0  0  0  0  0  0  0  0  0
  186.1810  178.5360  143.6000 C   0  0  0  0  0  3  0  0  0  0  0  0
  186.6130  176.9920  136.4830 C   0  0  0  0  0  0  0  0  0  0  0  0
  188.3660  177.4190  140.8360 C   0  0  0  0  0  3  0  0  0  0  0  0
  190.2580  175.0790  134.5940 O   0  0  0  0  0  0  0  0  0  0  0  0
  190.3210  174.4930  135.6640 C   0  0  0  0  0  0  0  0  0  0  0  0
  190.0800  173.0220  135.7280 C   0  0  0  0  0  2  0  0  0  0  0  0
  187.9020  171.8860  135.9910 C   0  0  0  0  0  2  0  0  0  0  0  0
  188.6770  171.1630  134.9110 C   0  0  0  0  0  2  0  0  0  0  0  0
  188.7780  172.6690  135.0340 C   0  0  0  0  0  3  0  0  0  0  0  0
  1 24  2  0  0  0  0
  1  4  1  0  0  0  0
  2 30  1  6  0  0  0
  2  9  1  0  0  0  0
  4 28  1  0  0  0  0
  5 27  1  0  0  0  0
  5 11  1  0  0  0  0
  6 25  1  0  0  0  0
  6 26  1  0  0  0  0
  7 16  1  0  0  0  0
  8 19  1  1  0  0  0
  8 17  1  0  0  0  0
  9 11  1  1  0  0  0
  9  1  1  0  0  0  0
 10 27  1  0  0  0  0
 13 18  2  0  0  0  0
 14 15  1  0  0  0  0
 15 26  2  0  0  0  0
 17 13  1  0  0  0  0
 17  4  2  0  0  0  0
 18 23  1  0  0  0  0
 18 14  1  0  0  0  0
 20  2  1  0  0  0  0
 20  3  1  0  0  0  0
 21  3  2  0  0  0  0
 22  3  1  6  0  0  0
 22 24  1  0  0  0  0
 22  7  1  0  0  0  0
 23  6  2  0  0  0  0
 24 16  1  0  0  0  0
 27  8  1  0  0  0  0
 27 12  1  0  0  0  0
 28 14  2  0  0  0  0
 29 30  2  0  0  0  0
 30 31  1  0  0  0  0
 33 34  1  0  0  0  0
 33 32  1  0  0  0  0
 34 31  1  0  0  0  0
 34 32  1  0  0  0  0
M  END
>  <MODEL>
8

>  <REMARK>
 VINA RESULT:      -6.4      3.505      5.950
  Name = 
  3 active torsions:
  status: ('A' for Active; 'I' for Inactive)
    1  A    between atoms: C_3  and  C_4
    2  A    between atoms: C_4  and  C_7
    3  A    between atoms: C_7  and  C_33
                            x       y       z     vdW  Elec       q    Type
                         _______ _______ _______ _____ _____    ______ ____

>  <TORSDO>
F 3

$$$$
=
 OpenBabel11062415423D

 34 40  0  0  1  0  0  0  0  0999 V2000
  189.9950  176.5780  138.6860 C   0  0  0  0  0  0  0  0  0  0  0  0
  187.9240  178.1630  138.6610 C   0  0  2  0  0  3  0  0  0  0  0  0
  188.4000  177.9210  141.0750 C   0  0  0  0  0  0  0  0  0  0  0  0
  190.8880  175.5590  138.0560 C   0  0  0  0  0  0  0  0  0  0  0  0
  187.8660  176.3010  136.0640 C   0  0  0  0  0  2  0  0  0  0  0  0
  194.9810  173.0580  136.4270 C   0  0  0  0  0  0  0  0  0  0  0  0
  190.7270  177.8300  141.8930 N   0  0  0  0  0  2  0  0  0  0  0  0
  188.9390  174.2160  137.0310 C   0  0  2  0  0  3  0  0  0  0  0  0
  188.6680  176.9490  138.0390 C   0  0  1  0  0  3  0  0  0  0  0  0
  187.1210  174.1230  135.2750 C   0  0  0  0  0  1  0  0  0  0  0  0
  188.8530  177.1020  136.6560 O   0  0  0  0  0  0  0  0  0  0  0  0
  189.3360  174.9260  134.5960 C   0  0  0  0  0  1  0  0  0  0  0  0
  191.3330  173.6000  136.6650 C   0  0  0  0  0  3  0  0  0  0  0  0
  193.1800  174.8310  137.6300 C   0  0  0  0  0  0  0  0  0  0  0  0
  194.5550  175.0020  137.8130 C   0  0  0  0  0  3  0  0  0  0  0  0
  191.3250  176.8800  140.9870 C   0  0  2  0  0  3  0  0  0  0  0  0
  190.4110  174.4790  137.2610 C   0  0  0  0  0  0  0  0  0  0  0  0
  192.7040  173.7680  136.8410 C   0  0  0  0  0  0  0  0  0  0  0  0
  188.6780  172.8400  137.0810 O   0  0  0  0  0  1  0  0  0  0  0  0
  187.5070  177.8880  140.0020 O   0  0  0  0  0  0  0  0  0  0  0  0
  187.9630  177.7620  142.2810 N   0  0  0  0  0  2  0  0  0  0  0  0
  189.8500  178.1720  140.8020 C   0  0  1  0  0  0  0  0  0  0  0  0
  193.6060  172.8840  136.2420 C   0  0  0  0  0  3  0  0  0  0  0  0
  190.3480  177.1140  139.8620 C   0  0  0  0  0  0  0  0  0  0  0  0
  195.8560  172.2030  135.8470 F   0  0  0  0  0  0  0  0  0  0  0  0
  195.4550  174.1160  137.2120 C   0  0  0  0  0  3  0  0  0  0  0  0
  188.3480  174.8840  135.7550 C   0  0  0  0  0  0  0  0  0  0  0  0
  192.2770  175.7110  138.2220 C   0  0  0  0  0  3  0  0  0  0  0  0
  186.8370  179.3900  136.9550 O   0  0  0  0  0  0  0  0  0  0  0  0
  186.7270  178.5740  137.8580 C   0  0  0  0  0  0  0  0  0  0  0  0
  185.3930  177.9870  138.1790 C   0  0  0  0  0  2  0  0  0  0  0  0
  183.7270  178.2930  139.9760 C   0  0  0  0  0  2  0  0  0  0  0  0
  183.0720  178.6690  138.6650 C   0  0  0  0  0  2  0  0  0  0  0  0
  184.5290  179.0010  138.9050 C   0  0  0  0  0  3  0  0  0  0  0  0
  1 24  2  0  0  0  0
  2 30  1  6  0  0  0
  2 20  1  0  0  0  0
  3 21  2  0  0  0  0
  4 28  1  0  0  0  0
  4  1  1  0  0  0  0
  5 11  1  0  0  0  0
  6 26  1  0  0  0  0
  8 19  1  6  0  0  0
  8 17  1  0  0  0  0
  9 11  1  6  0  0  0
  9  2  1  0  0  0  0
  9  1  1  0  0  0  0
 10 27  1  0  0  0  0
 12 27  1  0  0  0  0
 13 18  2  0  0  0  0
 13 17  1  0  0  0  0
 14 15  1  0  0  0  0
 14 28  2  0  0  0  0
 16 24  1  1  0  0  0
 16  7  1  0  0  0  0
 17  4  2  0  0  0  0
 18 14  1  0  0  0  0
 20  3  1  0  0  0  0
 22 24  1  6  0  0  0
 22 16  1  0  0  0  0
 22  3  1  0  0  0  0
 22  7  1  0  0  0  0
 23  6  2  0  0  0  0
 23 18  1  0  0  0  0
 25  6  1  0  0  0  0
 26 15  2  0  0  0  0
 27  5  1  0  0  0  0
 27  8  1  0  0  0  0
 29 30  2  0  0  0  0
 30 31  1  0  0  0  0
 31 34  1  0  0  0  0
 33 34  1  0  0  0  0
 33 32  1  0  0  0  0
 34 32  1  0  0  0  0
M  END
>  <MODEL>
9

>  <REMARK>
 VINA RESULT:      -6.3      4.307      8.136
  Name = 
  3 active torsions:
  status: ('A' for Active; 'I' for Inactive)
    1  A    between atoms: C_3  and  C_4
    2  A    between atoms: C_4  and  C_7
    3  A    between atoms: C_7  and  C_33
                            x       y       z     vdW  Elec       q    Type
                         _______ _______ _______ _____ _____    ______ ____

>  <TORSDO>
F 3

$$$$
