=
 OpenBabel11062412503D

 54 58  0  0  1  0  0  0  0  0999 V2000
  182.2500  178.5610  143.3570 C   0  0  2  0  0  3  0  0  0  0  0  0
  181.2630  179.1690  144.3470 C   0  0  0  0  0  2  0  0  0  0  0  0
  184.7460  178.4190  143.1880 C   0  0  0  0  0  2  0  0  0  0  0  0
  178.9640  179.8970  142.8840 N   0  0  0  0  0  1  0  0  0  0  0  0
  183.5800  179.0010  140.4620 C   0  0  2  0  0  3  0  0  0  0  0  0
  180.0660  178.4170  144.3890 O   0  0  0  0  0  0  0  0  0  0  0  0
  182.5510  177.9660  140.9050 C   0  0  2  0  0  3  0  0  0  0  0  0
  180.6180  180.6460  137.2570 C   0  0  0  0  0  2  0  0  0  0  0  0
  181.9690  181.1810  137.7370 C   0  0  0  0  0  2  0  0  0  0  0  0
  182.5350  178.1530  138.4710 C   0  0  2  0  0  3  0  0  0  0  0  0
  182.3450  180.6450  139.1100 C   0  0  0  0  0  2  0  0  0  0  0  0
  180.3980  179.1620  137.5340 C   0  0  0  0  0  2  0  0  0  0  0  0
  183.2370  179.3940  139.0270 C   0  0  1  0  0  0  0  0  0  0  0  0
  183.5580  179.3400  143.4470 C   0  0  0  0  0  2  0  0  0  0  0  0
  181.6470  178.3350  137.2320 C   0  0  0  0  0  2  0  0  0  0  0  0
  181.8410  177.4710  139.6370 C   0  0  1  0  0  3  0  0  0  0  0  0
  179.4000  178.5250  143.1450 C   0  0  2  0  0  3  0  0  0  0  0  0
  184.9770  178.4290  140.6620 C   0  0  0  0  0  2  0  0  0  0  0  0
  181.6250  178.6170  141.9510 C   0  0  1  0  0  3  0  0  0  0  0  0
  184.3900  179.6790  138.2850 O   0  0  0  0  0  1  0  0  0  0  0  0
  180.2380  177.9740  141.9920 C   0  0  0  0  0  2  0  0  0  0  0  0
  185.5630  178.8970  141.9880 C   0  0  2  0  0  3  0  0  0  0  0  0
  187.7470  178.4960  141.1040 O   0  0  0  0  0  0  0  0  0  0  0  0
  187.4570  177.9420  143.3500 N   0  0  0  0  0  2  0  0  0  0  0  0
  186.9780  178.4370  142.0980 C   0  0  0  0  0  0  0  0  0  0  0  0
  188.7450  177.5460  143.4990 O   0  0  0  0  0  0  0  0  0  0  0  0
  189.0820  177.8910  144.8120 C   0  0  0  0  0  2  0  0  0  0  0  0
  188.2100  177.1230  145.7880 C   0  0  0  0  0  2  0  0  0  0  0  0
  187.9440  177.9330  146.9660 N   0  0  0  0  0  2  0  0  0  0  0  0
  186.5120  178.1780  146.9840 C   0  0  0  0  0  1  0  0  0  0  0  0
  182.0240  175.9650  139.4990 C   0  0  0  0  0  2  0  0  0  0  0  0
  182.7170  173.7610  135.7290 C   0  0  0  0  0  0  0  0  0  0  0  0
  182.5830  173.3290  134.5940 O   0  0  0  0  0  0  0  0  0  0  0  0
  184.3760  176.1880  137.9970 O   0  0  0  0  0  1  0  0  0  0  0  0
  183.2560  175.6300  137.3810 C   0  0  0  0  0  0  0  0  0  0  0  0
  180.8350  173.5470  137.3020 O   0  0  0  0  0  0  0  0  0  0  0  0
  183.3630  175.1170  135.9490 C   0  0  1  0  0  3  0  0  0  0  0  0
  180.8700  174.9700  137.3710 C   0  0  2  0  0  3  0  0  0  0  0  0
  182.0910  175.5610  138.0570 C   0  0  0  0  0  0  0  0  0  0  0  0
  182.1020  173.0230  136.9080 C   0  0  1  0  0  3  0  0  0  0  0  0
  186.8560  176.5080  134.9360 C   0  0  0  0  0  0  0  0  0  0  0  0
  185.4900  176.3810  135.3630 N   0  0  0  0  0  2  0  0  0  0  0  0
  187.5290  175.4970  134.5940 O   0  0  0  0  0  0  0  0  0  0  0  0
  184.7620  175.1470  135.4130 C   0  0  0  0  0  0  0  0  0  0  0  0
  185.2870  174.0700  135.0190 O   0  0  0  0  0  0  0  0  0  0  0  0
  187.2500  178.5880  136.1890 C   0  0  0  0  0  1  0  0  0  0  0  0
  187.4820  177.8560  134.8790 C   0  0  0  0  0  2  0  0  0  0  0  0
  178.9310  176.3100  137.1240 O   0  0  0  0  0  0  0  0  0  0  0  0
  179.5580  175.5370  137.8310 C   0  0  0  0  0  0  0  0  0  0  0  0
  179.0080  175.1440  139.1610 C   0  0  0  0  0  1  0  0  0  0  0  0
  182.0160  171.5100  136.7040 C   0  0  1  0  0  3  0  0  0  0  0  0
  181.4850  171.2250  135.4400 O   0  0  0  0  0  1  0  0  0  0  0  0
  183.4020  170.8900  136.8150 C   0  0  0  0  0  2  0  0  0  0  0  0
  183.5060  169.6940  135.8790 C   0  0  0  0  0  1  0  0  0  0  0  0
  1 14  1  6  0  0  0
  1  2  1  0  0  0  0
  2  6  1  0  0  0  0
  3 14  1  0  0  0  0
  4 17  1  0  0  0  0
  5 18  1  6  0  0  0
  5  7  1  0  0  0  0
  7 19  1  0  0  0  0
  8 12  1  0  0  0  0
  8  9  1  0  0  0  0
  9 11  1  0  0  0  0
 10 13  1  0  0  0  0
 10 16  1  0  0  0  0
 13 11  1  0  0  0  0
 13  5  1  0  0  0  0
 15 12  1  0  0  0  0
 15 10  1  0  0  0  0
 16  7  1  0  0  0  0
 17  6  1  0  0  0  0
 18 22  1  0  0  0  0
 19 21  1  0  0  0  0
 19  1  1  0  0  0  0
 20 13  1  0  0  0  0
 21 17  1  0  0  0  0
 22 25  1  0  0  0  0
 22  3  1  0  0  0  0
 23 25  2  0  0  0  0
 24 26  1  0  0  0  0
 25 24  1  0  0  0  0
 26 27  1  0  0  0  0
 27 28  1  0  0  0  0
 28 29  1  0  0  0  0
 29 30  1  0  0  0  0
 31 16  1  0  0  0  0
 32 37  1  0  0  0  0
 32 40  1  0  0  0  0
 33 32  2  0  0  0  0
 35 34  1  0  0  0  0
 35 39  2  0  0  0  0
 36 38  1  0  0  0  0
 37 35  1  0  0  0  0
 38 49  1  0  0  0  0
 38 39  1  0  0  0  0
 39 31  1  0  0  0  0
 40 36  1  0  0  0  0
 41 42  1  0  0  0  0
 42 44  1  0  0  0  0
 43 41  2  0  0  0  0
 44 37  1  0  0  0  0
 45 44  2  0  0  0  0
 47 41  1  0  0  0  0
 47 46  1  0  0  0  0
 48 49  2  0  0  0  0
 49 50  1  0  0  0  0
 51 53  1  0  0  0  0
 51 40  1  0  0  0  0
 52 51  1  0  0  0  0
 54 53  1  0  0  0  0
M  END
>  <MODEL>
1

>  <REMARK>
 VINA RESULT:      -6.6      0.000      0.000
  Name = 
  12 active torsions:
  status: ('A' for Active; 'I' for Inactive)
    1  A    between atoms: C_3  and  O_31
    2  A    between atoms: C_3  and  C_52
    3  A    between atoms: C_11  and  C_28
    4  A    between atoms: C_11  and  C_34
    5  A    between atoms: N_12  and  C_52
    6  A    between atoms: C_18  and  C_33
    7  A    between atoms: C_23  and  C_40
    8  A    between atoms: C_23  and  C_41
    9  A    between atoms: C_29  and  C_50
   10  A    between atoms: O_31  and  N_38
   11  A    between atoms: C_42  and  C_49
   12  A    between atoms: C_46  and  C_53
                            x       y       z     vdW  Elec       q    Type
                         _______ _______ _______ _____ _____    ______ ____

>  <TORSDO>
F 12

$$$$
=
 OpenBabel11062412503D

 54 58  0  0  1  0  0  0  0  0999 V2000
  182.1420  178.5740  143.4670 C   0  0  2  0  0  3  0  0  0  0  0  0
  181.1540  179.1990  144.4460 C   0  0  0  0  0  2  0  0  0  0  0  0
  184.6330  178.3290  143.3600 C   0  0  0  0  0  2  0  0  0  0  0  0
  178.9310  180.0640  142.9440 N   0  0  0  0  0  1  0  0  0  0  0  0
  183.5690  179.0330  140.6210 C   0  0  2  0  0  3  0  0  0  0  0  0
  179.9260  178.4980  144.4370 O   0  0  0  0  0  0  0  0  0  0  0  0
  182.4850  178.0320  141.0090 C   0  0  2  0  0  3  0  0  0  0  0  0
  180.7700  180.8890  137.3850 C   0  0  0  0  0  2  0  0  0  0  0  0
  182.1290  181.3510  137.9160 C   0  0  0  0  0  2  0  0  0  0  0  0
  182.5450  178.2830  138.5810 C   0  0  2  0  0  3  0  0  0  0  0  0
  182.4430  180.7640  139.2840 C   0  0  0  0  0  2  0  0  0  0  0  0
  180.4790  179.4090  137.6160 C   0  0  0  0  0  2  0  0  0  0  0  0
  183.2830  179.4780  139.1900 C   0  0  1  0  0  0  0  0  0  0  0  0
  183.4780  179.2930  143.6130 C   0  0  0  0  0  2  0  0  0  0  0  0
  181.7000  178.5360  137.3240 C   0  0  0  0  0  2  0  0  0  0  0  0
  181.7900  177.6020  139.7090 C   0  0  1  0  0  3  0  0  0  0  0  0
  179.2990  178.6680  143.1780 C   0  0  2  0  0  3  0  0  0  0  0  0
  184.9350  178.3960  140.8420 C   0  0  0  0  0  2  0  0  0  0  0  0
  181.5590  178.6950  142.0470 C   0  0  1  0  0  3  0  0  0  0  0  0
  184.4670  179.7320  138.4860 O   0  0  0  0  0  1  0  0  0  0  0  0
  180.1450  178.1120  142.0330 C   0  0  0  0  0  2  0  0  0  0  0  0
  185.5020  178.8030  142.1960 C   0  0  2  0  0  3  0  0  0  0  0  0
  187.1830  177.4660  143.2480 O   0  0  0  0  0  0  0  0  0  0  0  0
  187.8920  178.6980  141.4000 N   0  0  0  0  0  2  0  0  0  0  0  0
  186.8940  178.2790  142.3310 C   0  0  0  0  0  0  0  0  0  0  0  0
  189.1590  178.2190  141.4680 O   0  0  0  0  0  0  0  0  0  0  0  0
  189.2150  177.2020  140.5100 C   0  0  0  0  0  2  0  0  0  0  0  0
  189.5770  177.7860  139.1570 C   0  0  0  0  0  2  0  0  0  0  0  0
  188.9540  177.0130  138.0950 N   0  0  0  0  0  2  0  0  0  0  0  0
  188.8420  177.8990  136.9500 C   0  0  0  0  0  1  0  0  0  0  0  0
  181.9120  176.0940  139.5340 C   0  0  0  0  0  2  0  0  0  0  0  0
  182.8320  174.0070  135.7450 C   0  0  0  0  0  0  0  0  0  0  0  0
  182.7600  173.6020  134.5950 O   0  0  0  0  0  0  0  0  0  0  0  0
  184.3200  176.4200  138.1440 O   0  0  0  0  0  1  0  0  0  0  0  0
  183.2450  175.8470  137.4650 C   0  0  0  0  0  0  0  0  0  0  0  0
  180.8900  173.7020  137.2270 O   0  0  0  0  0  0  0  0  0  0  0  0
  183.4290  175.3740  136.0270 C   0  0  1  0  0  3  0  0  0  0  0  0
  180.8820  175.1240  137.3330 C   0  0  2  0  0  3  0  0  0  0  0  0
  182.0530  175.7290  138.0870 C   0  0  0  0  0  0  0  0  0  0  0  0
  182.1870  173.2230  136.8770 C   0  0  1  0  0  3  0  0  0  0  0  0
  187.1580  174.3940  135.4780 C   0  0  0  0  0  0  0  0  0  0  0  0
  185.7950  174.4480  135.9320 N   0  0  0  0  0  2  0  0  0  0  0  0
  187.6090  175.2500  134.6680 O   0  0  0  0  0  0  0  0  0  0  0  0
  184.8490  175.4570  135.5550 C   0  0  0  0  0  0  0  0  0  0  0  0
  185.1900  176.4200  134.8170 O   0  0  0  0  0  0  0  0  0  0  0  0
  187.4550  172.6930  137.2300 C   0  0  0  0  0  1  0  0  0  0  0  0
  188.0550  173.3230  135.9860 C   0  0  0  0  0  2  0  0  0  0  0  0
  178.9310  175.1330  138.6790 O   0  0  0  0  0  0  0  0  0  0  0  0
  179.5340  175.6420  137.7480 C   0  0  0  0  0  0  0  0  0  0  0  0
  178.9310  176.7970  137.0220 C   0  0  0  0  0  1  0  0  0  0  0  0
  182.1520  171.7140  136.6330 C   0  0  1  0  0  3  0  0  0  0  0  0
  181.5200  171.4400  135.4130 O   0  0  0  0  0  1  0  0  0  0  0  0
  183.5700  171.1600  136.5960 C   0  0  0  0  0  2  0  0  0  0  0  0
  183.6050  169.8920  135.7540 C   0  0  0  0  0  1  0  0  0  0  0  0
  1 14  1  6  0  0  0
  1  2  1  0  0  0  0
  3 14  1  0  0  0  0
  4 17  1  0  0  0  0
  5 18  1  6  0  0  0
  5  7  1  0  0  0  0
  6  2  1  0  0  0  0
  7 19  1  0  0  0  0
  8 12  1  0  0  0  0
  8  9  1  0  0  0  0
  9 11  1  0  0  0  0
 10 13  1  0  0  0  0
 10 16  1  0  0  0  0
 13 11  1  0  0  0  0
 13  5  1  0  0  0  0
 15 12  1  0  0  0  0
 15 10  1  0  0  0  0
 16  7  1  0  0  0  0
 17  6  1  0  0  0  0
 18 22  1  0  0  0  0
 19  1  1  0  0  0  0
 20 13  1  0  0  0  0
 21 19  1  0  0  0  0
 21 17  1  0  0  0  0
 22 25  1  0  0  0  0
 22  3  1  0  0  0  0
 24 26  1  0  0  0  0
 24 25  1  0  0  0  0
 25 23  2  0  0  0  0
 27 26  1  0  0  0  0
 28 27  1  0  0  0  0
 29 28  1  0  0  0  0
 30 29  1  0  0  0  0
 31 16  1  0  0  0  0
 32 37  1  0  0  0  0
 32 40  1  0  0  0  0
 33 32  2  0  0  0  0
 35 39  2  0  0  0  0
 35 34  1  0  0  0  0
 36 38  1  0  0  0  0
 37 35  1  0  0  0  0
 38 49  1  0  0  0  0
 38 39  1  0  0  0  0
 39 31  1  0  0  0  0
 40 36  1  0  0  0  0
 41 42  1  0  0  0  0
 41 47  1  0  0  0  0
 43 41  2  0  0  0  0
 44 42  1  0  0  0  0
 44 37  1  0  0  0  0
 45 44  2  0  0  0  0
 47 46  1  0  0  0  0
 49 48  2  0  0  0  0
 50 49  1  0  0  0  0
 51 40  1  0  0  0  0
 52 51  1  0  0  0  0
 53 51  1  0  0  0  0
 54 53  1  0  0  0  0
M  END
>  <MODEL>
2

>  <REMARK>
 VINA RESULT:      -6.6      1.468      2.557
  Name = 
  12 active torsions:
  status: ('A' for Active; 'I' for Inactive)
    1  A    between atoms: C_3  and  O_31
    2  A    between atoms: C_3  and  C_52
    3  A    between atoms: C_11  and  C_28
    4  A    between atoms: C_11  and  C_34
    5  A    between atoms: N_12  and  C_52
    6  A    between atoms: C_18  and  C_33
    7  A    between atoms: C_23  and  C_40
    8  A    between atoms: C_23  and  C_41
    9  A    between atoms: C_29  and  C_50
   10  A    between atoms: O_31  and  N_38
   11  A    between atoms: C_42  and  C_49
   12  A    between atoms: C_46  and  C_53
                            x       y       z     vdW  Elec       q    Type
                         _______ _______ _______ _____ _____    ______ ____

>  <TORSDO>
F 12

$$$$
