=
 OpenBabel11062414053D

 53 60  0  0  1  0  0  0  0  0999 V2000
  182.2680  179.5800  140.1470 O   0  0  0  0  0  1  0  0  0  0  0  0
  187.4390  178.3370  137.0690 C   0  0  1  0  0  3  0  0  0  0  0  0
  183.3390  175.7690  138.7730 C   0  0  0  0  0  2  0  0  0  0  0  0
  187.1460  177.3220  136.0300 C   0  0  1  0  0  3  0  0  0  0  0  0
  184.5180  178.5690  139.9000 C   0  0  1  0  0  0  0  0  0  0  0  0
  187.9220  177.8020  138.4450 C   0  0  2  0  0  3  0  0  0  0  0  0
  185.9810  178.9030  139.6650 C   0  0  0  0  0  2  0  0  0  0  0  0
  182.1910  175.2260  136.5390 C   0  0  0  0  0  0  0  0  0  0  0  0
  188.4010  173.7840  136.9280 C   0  0  0  0  0  3  0  0  0  0  0  0
  182.6920  177.1500  138.8230 C   0  0  0  0  0  2  0  0  0  0  0  0
  186.7730  177.6200  139.4430 C   0  0  0  0  0  2  0  0  0  0  0  0
  183.4480  179.5180  139.3970 C   0  0  0  0  0  0  0  0  0  0  0  0
  188.3980  178.1320  135.9490 N   0  0  0  0  0  0  0  0  0  0  0  0
  187.2090  173.1430  137.2740 C   0  0  0  0  0  3  0  0  0  0  0  0
  185.9440  175.1760  136.7760 C   0  0  0  0  0  0  0  0  0  0  0  0
  183.7430  178.2370  138.6090 C   0  0  1  0  0  3  0  0  0  0  0  0
  184.1850  177.8100  141.0290 O   0  0  0  0  0  1  0  0  0  0  0  0
  183.4820  175.2090  137.3540 C   0  0  1  0  0  3  0  0  0  0  0  0
  187.1720  175.8570  136.4830 C   0  0  0  0  0  0  0  0  0  0  0  0
  182.1820  175.7140  135.2880 C   0  0  0  0  0  3  0  0  0  0  0  0
  189.4940  177.4560  136.3740 O   0  0  0  0  0  1  0  0  0  0  0  0
  185.9960  173.8340  137.1950 C   0  0  0  0  0  3  0  0  0  0  0  0
  184.3710  176.8030  135.6140 C   0  0  0  0  0  2  0  0  0  0  0  0
  184.6400  175.8040  136.6530 N   0  0  0  0  0  0  0  0  0  0  0  0
  183.4260  176.1970  134.5940 C   0  0  0  0  0  2  0  0  0  0  0  0
  183.8930  180.7150  138.8250 O   0  0  0  0  0  1  0  0  0  0  0  0
  188.3760  175.1180  136.5290 C   0  0  0  0  0  3  0  0  0  0  0  0
  180.9180  174.7370  137.1280 C   0  0  0  0  0  0  0  0  0  0  0  0
  179.8750  174.6830  136.4200 O   0  0  0  0  0  0  0  0  0  0  0  0
  180.8680  174.3110  138.4940 N   0  0  0  0  0  2  0  0  0  0  0  0
  179.6150  174.1720  139.2210 C   0  0  0  0  0  2  0  0  0  0  0  0
  179.6170  175.0500  140.4580 C   0  0  0  0  0  2  0  0  0  0  0  0
  179.8620  177.2450  139.5460 O   0  0  0  0  0  0  0  0  0  0  0  0
  180.4860  177.2420  141.7490 O   0  0  0  0  0  1  0  0  0  0  0  0
  179.4570  177.5570  140.8560 C   0  0  2  0  0  3  0  0  0  0  0  0
  178.9310  176.3660  140.1220 C   0  0  2  0  0  3  0  0  0  0  0  0
  189.1010  178.6000  139.0240 C   0  0  0  0  0  2  0  0  0  0  0  0
  189.1960  178.5140  140.5450 C   0  0  0  0  0  2  0  0  0  0  0  0
  189.5960  176.1640  140.6740 O   0  0  0  0  0  0  0  0  0  0  0  0
  191.1950  177.1730  140.0100 N   0  0  0  0  0  0  0  0  0  0  0  0
  190.5630  175.9840  139.7620 O   0  0  0  0  0  0  0  0  0  0  0  0
  190.1420  177.3980  140.9810 C   0  0  1  0  0  0  0  0  0  0  0  0
  191.0860  178.6410  143.0430 C   0  0  0  0  0  3  0  0  0  0  0  0
  190.9530  177.2220  144.8780 C   0  0  0  0  0  0  0  0  0  0  0  0
  191.3220  178.4770  144.4150 C   0  0  0  0  0  3  0  0  0  0  0  0
  190.5420  177.5070  142.4420 C   0  0  0  0  0  0  0  0  0  0  0  0
  190.3430  176.3070  143.6080 S   0  0  0  0  0  0  0  0  0  0  0  0
  189.8520  177.0780  147.0800 C   0  0  0  0  0  1  0  0  0  0  0  0
  191.1030  176.7490  146.2820 C   0  0  0  0  0  2  0  0  0  0  0  0
  192.4920  176.8380  140.5970 C   0  0  0  0  0  2  0  0  0  0  0  0
  193.9130  178.4660  139.6030 O   0  0  0  0  0  1  0  0  0  0  0  0
  193.1500  176.6950  138.2000 C   0  0  0  0  0  1  0  0  0  0  0  0
  193.6020  177.1000  139.5960 C   0  0  2  0  0  3  0  0  0  0  0  0
  2 13  1  6  0  0  0
  2  6  1  0  0  0  0
  3 10  1  0  0  0  0
  4 19  1  1  0  0  0
  4  2  1  0  0  0  0
  5 17  1  1  0  0  0
  6 37  1  1  0  0  0
  6 11  1  0  0  0  0
  7  5  1  0  0  0  0
  8 28  1  0  0  0  0
  8 18  1  0  0  0  0
  9 14  1  0  0  0  0
 11  7  1  0  0  0  0
 12  5  1  0  0  0  0
 12  1  1  0  0  0  0
 13  4  1  0  0  0  0
 13 21  1  0  0  0  0
 15 22  1  0  0  0  0
 16 10  1  1  0  0  0
 16 12  1  0  0  0  0
 16  5  1  0  0  0  0
 18  3  1  1  0  0  0
 19 27  1  0  0  0  0
 19 15  2  0  0  0  0
 20  8  2  0  0  0  0
 22 14  2  0  0  0  0
 23 24  1  0  0  0  0
 24 15  1  0  0  0  0
 24 18  1  0  0  0  0
 25 20  1  0  0  0  0
 25 23  1  0  0  0  0
 26 12  1  0  0  0  0
 27  9  2  0  0  0  0
 28 30  1  0  0  0  0
 29 28  2  0  0  0  0
 30 31  1  0  0  0  0
 31 32  1  0  0  0  0
 33 36  1  0  0  0  0
 33 35  1  0  0  0  0
 35 34  1  1  0  0  0
 36 32  1  1  0  0  0
 36 35  1  0  0  0  0
 37 38  1  0  0  0  0
 39 42  1  0  0  0  0
 40 50  1  0  0  0  0
 40 42  1  0  0  0  0
 41 40  1  0  0  0  0
 41 39  1  0  0  0  0
 42 38  1  6  0  0  0
 42 46  1  0  0  0  0
 43 45  1  0  0  0  0
 44 49  1  0  0  0  0
 45 44  2  0  0  0  0
 46 43  2  0  0  0  0
 46 47  1  0  0  0  0
 47 44  1  0  0  0  0
 49 48  1  0  0  0  0
 53 52  1  6  0  0  0
 53 51  1  0  0  0  0
 53 50  1  0  0  0  0
M  END
>  <MODEL>
1

>  <REMARK>
 VINA RESULT:      -6.2      0.000      0.000
  Name = 
  11 active torsions:
  status: ('A' for Active; 'I' for Inactive)
    1  A    between atoms: C_2  and  C_23
    2  A    between atoms: C_7  and  C_13
    3  A    between atoms: C_7  and  C_49
    4  A    between atoms: C_8  and  C_17
    5  A    between atoms: C_15  and  C_37
    6  A    between atoms: N_24  and  C_35
    7  A    between atoms: N_32  and  C_41
    8  A    between atoms: C_35  and  C_52
    9  A    between atoms: C_36  and  C_40
   10  A    between atoms: C_37  and  C_49
   11  A    between atoms: C_40  and  C_41
                            x       y       z     vdW  Elec       q    Type
                         _______ _______ _______ _____ _____    ______ ____

>  <TORSDO>
F 11

$$$$
=
 OpenBabel11062414053D

 53 60  0  0  1  0  0  0  0  0999 V2000
  181.7990  179.7150  140.0790 O   0  0  0  0  0  1  0  0  0  0  0  0
  187.1600  178.2520  137.4570 C   0  0  1  0  0  3  0  0  0  0  0  0
  182.8020  175.8730  138.7400 C   0  0  0  0  0  2  0  0  0  0  0  0
  186.9130  177.2670  136.3780 C   0  0  1  0  0  3  0  0  0  0  0  0
  184.0100  178.5950  140.0170 C   0  0  1  0  0  0  0  0  0  0  0  0
  187.4900  177.6760  138.8610 C   0  0  2  0  0  3  0  0  0  0  0  0
  185.5030  178.8580  139.9210 C   0  0  0  0  0  2  0  0  0  0  0  0
  181.8350  175.4180  136.4030 C   0  0  0  0  0  0  0  0  0  0  0  0
  187.9060  173.6580  137.3220 C   0  0  0  0  0  3  0  0  0  0  0  0
  182.2210  177.2840  138.7560 C   0  0  0  0  0  2  0  0  0  0  0  0
  186.2480  177.5390  139.7480 C   0  0  0  0  0  2  0  0  0  0  0  0
  183.0380  179.6030  139.4370 C   0  0  0  0  0  0  0  0  0  0  0  0
  188.2060  178.0140  136.4240 N   0  0  0  0  0  0  0  0  0  0  0  0
  186.6570  173.0750  137.5490 C   0  0  0  0  0  3  0  0  0  0  0  0
  185.5440  175.1750  136.9750 C   0  0  0  0  0  0  0  0  0  0  0  0
  183.3400  178.3190  138.6570 C   0  0  1  0  0  3  0  0  0  0  0  0
  183.5390  177.8390  141.0980 O   0  0  0  0  0  1  0  0  0  0  0  0
  183.0450  175.3250  137.3300 C   0  0  1  0  0  3  0  0  0  0  0  0
  186.8260  175.7970  136.8050 C   0  0  0  0  0  0  0  0  0  0  0  0
  181.9630  175.9220  135.1650 C   0  0  0  0  0  3  0  0  0  0  0  0
  189.2240  177.2770  136.9330 O   0  0  0  0  0  1  0  0  0  0  0  0
  185.4920  173.8270  137.3730 C   0  0  0  0  0  3  0  0  0  0  0  0
  184.1650  176.8950  135.7050 C   0  0  0  0  0  2  0  0  0  0  0  0
  184.2890  175.8700  136.7460 N   0  0  0  0  0  0  0  0  0  0  0  0
  183.2870  176.3510  134.5940 C   0  0  0  0  0  2  0  0  0  0  0  0
  183.5920  180.7840  138.9290 O   0  0  0  0  0  1  0  0  0  0  0  0
  187.9820  174.9980  136.9460 C   0  0  0  0  0  3  0  0  0  0  0  0
  180.4920  174.9860  136.8670 C   0  0  0  0  0  0  0  0  0  0  0  0
  179.4880  175.7240  136.6660 O   0  0  0  0  0  0  0  0  0  0  0  0
  180.3240  173.7280  137.5300 N   0  0  0  0  0  2  0  0  0  0  0  0
  179.1390  173.4140  138.3150 C   0  0  0  0  0  2  0  0  0  0  0  0
  178.9310  174.4500  139.4030 C   0  0  0  0  0  2  0  0  0  0  0  0
  179.2630  173.9270  141.7110 O   0  0  0  0  0  0  0  0  0  0  0  0
  178.9320  176.1790  141.4610 O   0  0  0  0  0  1  0  0  0  0  0  0
  179.8950  175.1810  141.6400 C   0  0  2  0  0  3  0  0  0  0  0  0
  179.9410  174.2010  140.5120 C   0  0  2  0  0  3  0  0  0  0  0  0
  188.6490  178.4050  139.5570 C   0  0  0  0  0  2  0  0  0  0  0  0
  188.2730  178.9590  140.9290 C   0  0  0  0  0  2  0  0  0  0  0  0
  188.9300  176.7350  141.4940 O   0  0  0  0  0  0  0  0  0  0  0  0
  189.9510  178.1160  142.5270 N   0  0  0  0  0  0  0  0  0  0  0  0
  190.1870  176.9060  141.9310 O   0  0  0  0  0  0  0  0  0  0  0  0
  188.5940  177.9620  142.0390 C   0  0  1  0  0  0  0  0  0  0  0  0
  187.4170  176.8980  144.0810 C   0  0  0  0  0  3  0  0  0  0  0  0
  185.5090  178.1370  144.5540 C   0  0  0  0  0  0  0  0  0  0  0  0
  186.3020  177.0560  144.9150 C   0  0  0  0  0  3  0  0  0  0  0  0
  187.4820  177.8530  143.0680 C   0  0  0  0  0  0  0  0  0  0  0  0
  186.1680  178.8980  143.2090 S   0  0  0  0  0  0  0  0  0  0  0  0
  183.4160  179.4190  144.3210 C   0  0  0  0  0  1  0  0  0  0  0  0
  184.2500  178.5420  145.2390 C   0  0  0  0  0  2  0  0  0  0  0  0
  190.0990  177.9040  143.9660 C   0  0  0  0  0  2  0  0  0  0  0  0
  191.6940  177.5990  145.7050 O   0  0  0  0  0  1  0  0  0  0  0  0
  192.1290  179.3370  144.1300 C   0  0  0  0  0  1  0  0  0  0  0  0
  191.5670  177.9400  144.3520 C   0  0  2  0  0  3  0  0  0  0  0  0
  2 13  1  6  0  0  0
  2  6  1  0  0  0  0
  3 10  1  0  0  0  0
  4 13  1  0  0  0  0
  4 19  1  1  0  0  0
  4  2  1  0  0  0  0
  5 17  1  1  0  0  0
  6 37  1  1  0  0  0
  6 11  1  0  0  0  0
  7  5  1  0  0  0  0
  8 28  1  0  0  0  0
  8 18  1  0  0  0  0
  9 14  1  0  0  0  0
 11  7  1  0  0  0  0
 12  5  1  0  0  0  0
 12  1  1  0  0  0  0
 13 21  1  0  0  0  0
 15 22  1  0  0  0  0
 16 10  1  1  0  0  0
 16 12  1  0  0  0  0
 16  5  1  0  0  0  0
 18  3  1  1  0  0  0
 19 27  1  0  0  0  0
 19 15  2  0  0  0  0
 20  8  2  0  0  0  0
 22 14  2  0  0  0  0
 23 24  1  0  0  0  0
 24 15  1  0  0  0  0
 24 18  1  0  0  0  0
 25 20  1  0  0  0  0
 25 23  1  0  0  0  0
 26 12  1  0  0  0  0
 27  9  2  0  0  0  0
 28 30  1  0  0  0  0
 29 28  2  0  0  0  0
 30 31  1  0  0  0  0
 31 32  1  0  0  0  0
 35 34  1  6  0  0  0
 35 33  1  0  0  0  0
 36 32  1  6  0  0  0
 36 35  1  0  0  0  0
 36 33  1  0  0  0  0
 37 38  1  0  0  0  0
 39 41  1  0  0  0  0
 39 42  1  0  0  0  0
 40 50  1  0  0  0  0
 41 40  1  0  0  0  0
 42 38  1  6  0  0  0
 42 40  1  0  0  0  0
 42 46  1  0  0  0  0
 43 45  1  0  0  0  0
 44 45  2  0  0  0  0
 44 49  1  0  0  0  0
 46 47  1  0  0  0  0
 46 43  2  0  0  0  0
 47 44  1  0  0  0  0
 48 49  1  0  0  0  0
 50 53  1  0  0  0  0
 53 52  1  1  0  0  0
 53 51  1  0  0  0  0
M  END
>  <MODEL>
2

>  <REMARK>
 VINA RESULT:      -6.1      2.040      2.796
  Name = 
  11 active torsions:
  status: ('A' for Active; 'I' for Inactive)
    1  A    between atoms: C_2  and  C_23
    2  A    between atoms: C_7  and  C_13
    3  A    between atoms: C_7  and  C_49
    4  A    between atoms: C_8  and  C_17
    5  A    between atoms: C_15  and  C_37
    6  A    between atoms: N_24  and  C_35
    7  A    between atoms: N_32  and  C_41
    8  A    between atoms: C_35  and  C_52
    9  A    between atoms: C_36  and  C_40
   10  A    between atoms: C_37  and  C_49
   11  A    between atoms: C_40  and  C_41
                            x       y       z     vdW  Elec       q    Type
                         _______ _______ _______ _____ _____    ______ ____

>  <TORSDO>
F 11

$$$$
=
 OpenBabel11062414053D

 53 60  0  0  1  0  0  0  0  0999 V2000
  181.9370  179.4560  140.3100 O   0  0  0  0  0  1  0  0  0  0  0  0
  187.1930  178.4680  137.2850 C   0  0  1  0  0  3  0  0  0  0  0  0
  183.0960  175.7480  138.7410 C   0  0  0  0  0  2  0  0  0  0  0  0
  186.9400  177.5120  136.1820 C   0  0  1  0  0  3  0  0  0  0  0  0
  184.2080  178.4930  140.0560 C   0  0  1  0  0  0  0  0  0  0  0  0
  187.6540  177.8600  138.6390 C   0  0  2  0  0  3  0  0  0  0  0  0
  185.6700  178.8610  139.8750 C   0  0  0  0  0  2  0  0  0  0  0  0
  182.0070  175.3210  136.4530 C   0  0  0  0  0  0  0  0  0  0  0  0
  188.2280  173.9450  136.9000 C   0  0  0  0  0  3  0  0  0  0  0  0
  182.4280  177.1140  138.8570 C   0  0  0  0  0  2  0  0  0  0  0  0
  186.4860  177.6040  139.5970 C   0  0  0  0  0  2  0  0  0  0  0  0
  183.1340  179.4540  139.5850 C   0  0  0  0  0  0  0  0  0  0  0  0
  188.1810  178.3430  136.1780 N   0  0  0  0  0  0  0  0  0  0  0  0
  187.0380  173.2690  137.1810 C   0  0  0  0  0  3  0  0  0  0  0  0
  185.7540  175.3090  136.7740 C   0  0  0  0  0  0  0  0  0  0  0  0
  183.4670  178.2260  138.7310 C   0  0  1  0  0  3  0  0  0  0  0  0
  183.8600  177.6640  141.1310 O   0  0  0  0  0  1  0  0  0  0  0  0
  183.2800  175.2740  137.2950 C   0  0  1  0  0  3  0  0  0  0  0  0
  186.9780  176.0230  136.5490 C   0  0  0  0  0  0  0  0  0  0  0  0
  182.0180  175.8820  135.2320 C   0  0  0  0  0  3  0  0  0  0  0  0
  189.2770  177.6580  136.5870 O   0  0  0  0  0  1  0  0  0  0  0  0
  185.8170  173.9460  137.1140 C   0  0  0  0  0  3  0  0  0  0  0  0
  184.1820  176.9800  135.6730 C   0  0  0  0  0  2  0  0  0  0  0  0
  184.4430  175.9250  136.6570 N   0  0  0  0  0  0  0  0  0  0  0  0
  183.2700  176.4220  134.5970 C   0  0  0  0  0  2  0  0  0  0  0  0
  183.5740  180.6900  139.0940 O   0  0  0  0  0  1  0  0  0  0  0  0
  188.1910  175.3000  136.5800 C   0  0  0  0  0  3  0  0  0  0  0  0
  180.7290  174.7800  136.9830 C   0  0  0  0  0  0  0  0  0  0  0  0
  179.9560  175.5250  137.6480 O   0  0  0  0  0  0  0  0  0  0  0  0
  180.3580  173.4200  136.7320 N   0  0  0  0  0  2  0  0  0  0  0  0
  179.3310  172.7380  137.5050 C   0  0  0  0  0  2  0  0  0  0  0  0
  179.1000  171.3380  136.9660 C   0  0  0  0  0  2  0  0  0  0  0  0
  179.3960  170.0180  134.9960 O   0  0  0  0  0  0  0  0  0  0  0  0
  181.3630  170.1330  136.1620 O   0  0  0  0  0  1  0  0  0  0  0  0
  180.6510  170.6470  135.0740 C   0  0  2  0  0  3  0  0  0  0  0  0
  179.3880  171.3390  135.4720 C   0  0  2  0  0  3  0  0  0  0  0  0
  188.8070  178.6390  139.2910 C   0  0  0  0  0  2  0  0  0  0  0  0
  188.8850  178.4440  140.8020 C   0  0  0  0  0  2  0  0  0  0  0  0
  189.5630  176.1600  140.9440 O   0  0  0  0  0  0  0  0  0  0  0  0
  190.9760  177.3250  140.1300 N   0  0  0  0  0  0  0  0  0  0  0  0
  190.4690  176.0650  139.9580 O   0  0  0  0  0  0  0  0  0  0  0  0
  189.9850  177.4570  141.1800 C   0  0  1  0  0  0  0  0  0  0  0  0
  190.8370  178.8760  143.1670 C   0  0  0  0  0  3  0  0  0  0  0  0
  191.1660  177.4680  144.9860 C   0  0  0  0  0  0  0  0  0  0  0  0
  191.2250  178.7710  144.5090 C   0  0  0  0  0  3  0  0  0  0  0  0
  190.4850  177.6520  142.6010 C   0  0  0  0  0  0  0  0  0  0  0  0
  190.6440  176.4420  143.7620 S   0  0  0  0  0  0  0  0  0  0  0  0
  191.7670  175.5420  146.4020 C   0  0  0  0  0  1  0  0  0  0  0  0
  191.5360  177.0430  146.3640 C   0  0  0  0  0  2  0  0  0  0  0  0
  192.3460  177.1560  140.6140 C   0  0  0  0  0  2  0  0  0  0  0  0
  194.2380  177.9680  139.4230 O   0  0  0  0  0  1  0  0  0  0  0  0
  192.5110  176.9410  138.1390 C   0  0  0  0  0  1  0  0  0  0  0  0
  193.2900  176.9360  139.4460 C   0  0  2  0  0  3  0  0  0  0  0  0
  2 13  1  6  0  0  0
  2  6  1  0  0  0  0
  3 10  1  0  0  0  0
  4 19  1  1  0  0  0
  4  2  1  0  0  0  0
  5 17  1  1  0  0  0
  6 37  1  1  0  0  0
  6 11  1  0  0  0  0
  7  5  1  0  0  0  0
  8 28  1  0  0  0  0
  8 18  1  0  0  0  0
  9 14  1  0  0  0  0
 11  7  1  0  0  0  0
 12  5  1  0  0  0  0
 12  1  1  0  0  0  0
 13  4  1  0  0  0  0
 13 21  1  0  0  0  0
 15 22  1  0  0  0  0
 16 10  1  1  0  0  0
 16 12  1  0  0  0  0
 16  5  1  0  0  0  0
 18  3  1  1  0  0  0
 19 27  1  0  0  0  0
 19 15  2  0  0  0  0
 20  8  2  0  0  0  0
 22 14  2  0  0  0  0
 23 24  1  0  0  0  0
 24 15  1  0  0  0  0
 24 18  1  0  0  0  0
 25 20  1  0  0  0  0
 25 23  1  0  0  0  0
 26 12  1  0  0  0  0
 27  9  2  0  0  0  0
 28 29  2  0  0  0  0
 30 28  1  0  0  0  0
 30 31  1  0  0  0  0
 32 31  1  0  0  0  0
 33 35  1  0  0  0  0
 33 36  1  0  0  0  0
 35 36  1  0  0  0  0
 35 34  1  1  0  0  0
 36 32  1  1  0  0  0
 37 38  1  0  0  0  0
 39 42  1  0  0  0  0
 40 50  1  0  0  0  0
 40 42  1  0  0  0  0
 41 40  1  0  0  0  0
 41 39  1  0  0  0  0
 42 38  1  6  0  0  0
 42 46  1  0  0  0  0
 43 45  1  0  0  0  0
 44 49  1  0  0  0  0
 45 44  2  0  0  0  0
 46 43  2  0  0  0  0
 46 47  1  0  0  0  0
 47 44  1  0  0  0  0
 49 48  1  0  0  0  0
 51 53  1  0  0  0  0
 53 52  1  6  0  0  0
 53 50  1  0  0  0  0
M  END
>  <MODEL>
3

>  <REMARK>
 VINA RESULT:      -5.8      1.483      2.513
  Name = 
  11 active torsions:
  status: ('A' for Active; 'I' for Inactive)
    1  A    between atoms: C_2  and  C_23
    2  A    between atoms: C_7  and  C_13
    3  A    between atoms: C_7  and  C_49
    4  A    between atoms: C_8  and  C_17
    5  A    between atoms: C_15  and  C_37
    6  A    between atoms: N_24  and  C_35
    7  A    between atoms: N_32  and  C_41
    8  A    between atoms: C_35  and  C_52
    9  A    between atoms: C_36  and  C_40
   10  A    between atoms: C_37  and  C_49
   11  A    between atoms: C_40  and  C_41
                            x       y       z     vdW  Elec       q    Type
                         _______ _______ _______ _____ _____    ______ ____

>  <TORSDO>
F 11

$$$$
=
 OpenBabel11062414053D

 53 60  0  0  1  0  0  0  0  0999 V2000
  181.9120  179.6840  139.9270 O   0  0  0  0  0  1  0  0  0  0  0  0
  187.1590  177.8370  137.3180 C   0  0  1  0  0  3  0  0  0  0  0  0
  182.7080  175.7390  138.7630 C   0  0  0  0  0  2  0  0  0  0  0  0
  186.8510  176.8150  136.2900 C   0  0  1  0  0  3  0  0  0  0  0  0
  184.0650  178.4550  139.8940 C   0  0  1  0  0  0  0  0  0  0  0  0
  187.4800  177.3120  138.7440 C   0  0  2  0  0  3  0  0  0  0  0  0
  185.5680  178.6390  139.7690 C   0  0  0  0  0  2  0  0  0  0  0  0
  181.6890  175.2220  136.4620 C   0  0  0  0  0  0  0  0  0  0  0  0
  187.6790  173.2100  137.3960 C   0  0  0  0  0  3  0  0  0  0  0  0
  182.1980  177.1760  138.7180 C   0  0  0  0  0  2  0  0  0  0  0  0
  186.2450  177.2790  139.6510 C   0  0  0  0  0  2  0  0  0  0  0  0
  183.1350  179.4810  139.2780 C   0  0  0  0  0  0  0  0  0  0  0  0
  188.1780  177.4990  136.2860 N   0  0  0  0  0  0  0  0  0  0  0  0
  186.4060  172.7000  137.6640 C   0  0  0  0  0  3  0  0  0  0  0  0
  185.3890  174.8230  137.0030 C   0  0  0  0  0  0  0  0  0  0  0  0
  183.3640  178.1480  138.5570 C   0  0  1  0  0  3  0  0  0  0  0  0
  183.5720  177.7750  141.0160 O   0  0  0  0  0  1  0  0  0  0  0  0
  182.9050  175.1130  137.3780 C   0  0  1  0  0  3  0  0  0  0  0  0
  186.6970  175.3730  136.7890 C   0  0  0  0  0  0  0  0  0  0  0  0
  181.8250  175.6600  135.1990 C   0  0  0  0  0  3  0  0  0  0  0  0
  189.1660  176.7370  136.8190 O   0  0  0  0  0  1  0  0  0  0  0  0
  185.2770  173.5000  137.4650 C   0  0  0  0  0  3  0  0  0  0  0  0
  184.0780  176.5470  135.6680 C   0  0  0  0  0  2  0  0  0  0  0  0
  184.1660  175.5680  136.7550 N   0  0  0  0  0  0  0  0  0  0  0  0
  183.1600  175.9950  134.5940 C   0  0  0  0  0  2  0  0  0  0  0  0
  183.7390  180.6080  138.7070 O   0  0  0  0  0  1  0  0  0  0  0  0
  187.8150  174.5250  136.9550 C   0  0  0  0  0  3  0  0  0  0  0  0
  180.3330  174.8790  136.9600 C   0  0  0  0  0  0  0  0  0  0  0  0
  179.3510  175.6220  136.6810 O   0  0  0  0  0  0  0  0  0  0  0  0
  180.1260  173.7010  137.7480 N   0  0  0  0  0  2  0  0  0  0  0  0
  178.9310  173.5040  138.5550 C   0  0  0  0  0  2  0  0  0  0  0  0
  179.0150  174.3100  139.8380 C   0  0  0  0  0  2  0  0  0  0  0  0
  179.0260  173.1630  141.9350 O   0  0  0  0  0  0  0  0  0  0  0  0
  179.3160  175.4090  142.2720 O   0  0  0  0  0  1  0  0  0  0  0  0
  179.9680  174.1750  142.1920 C   0  0  2  0  0  3  0  0  0  0  0  0
  179.8400  173.5290  140.8500 C   0  0  2  0  0  3  0  0  0  0  0  0
  188.6830  178.0150  139.3920 C   0  0  0  0  0  2  0  0  0  0  0  0
  189.1730  177.3230  140.6610 C   0  0  0  0  0  2  0  0  0  0  0  0
  188.9680  179.5390  141.5250 O   0  0  0  0  0  0  0  0  0  0  0  0
  187.5690  178.3030  142.2560 N   0  0  0  0  0  0  0  0  0  0  0  0
  187.6670  179.6060  141.8450 O   0  0  0  0  0  0  0  0  0  0  0  0
  188.9690  178.2040  141.8900 C   0  0  1  0  0  0  0  0  0  0  0  0
  190.8560  178.8310  143.5430 C   0  0  0  0  0  3  0  0  0  0  0  0
  191.3460  176.9650  144.8380 C   0  0  0  0  0  0  0  0  0  0  0  0
  191.6360  178.2980  144.5780 C   0  0  0  0  0  3  0  0  0  0  0  0
  189.9680  177.9070  142.9950 C   0  0  0  0  0  0  0  0  0  0  0  0
  190.1390  176.4350  143.7960 S   0  0  0  0  0  0  0  0  0  0  0  0
  191.2950  176.2400  147.1950 C   0  0  0  0  0  1  0  0  0  0  0  0
  192.0230  176.1260  145.8660 C   0  0  0  0  0  2  0  0  0  0  0  0
  187.3270  178.3430  143.6980 C   0  0  0  0  0  2  0  0  0  0  0  0
  184.9960  178.7960  143.8330 O   0  0  0  0  0  1  0  0  0  0  0  0
  185.9030  177.2990  145.4530 C   0  0  0  0  0  1  0  0  0  0  0  0
  185.9510  177.7860  144.0120 C   0  0  2  0  0  3  0  0  0  0  0  0
  2 13  1  6  0  0  0
  2  6  1  0  0  0  0
  4 19  1  1  0  0  0
  4  2  1  0  0  0  0
  5 17  1  1  0  0  0
  6 37  1  1  0  0  0
  6 11  1  0  0  0  0
  7  5  1  0  0  0  0
  8 28  1  0  0  0  0
  8 18  1  0  0  0  0
  9 14  1  0  0  0  0
 10  3  1  0  0  0  0
 11  7  1  0  0  0  0
 12  5  1  0  0  0  0
 12  1  1  0  0  0  0
 13  4  1  0  0  0  0
 13 21  1  0  0  0  0
 15 22  1  0  0  0  0
 16 10  1  1  0  0  0
 16 12  1  0  0  0  0
 16  5  1  0  0  0  0
 18  3  1  1  0  0  0
 19 27  1  0  0  0  0
 19 15  2  0  0  0  0
 20  8  2  0  0  0  0
 22 14  2  0  0  0  0
 23 24  1  0  0  0  0
 24 15  1  0  0  0  0
 24 18  1  0  0  0  0
 25 20  1  0  0  0  0
 25 23  1  0  0  0  0
 26 12  1  0  0  0  0
 27  9  2  0  0  0  0
 28 30  1  0  0  0  0
 29 28  2  0  0  0  0
 30 31  1  0  0  0  0
 31 32  1  0  0  0  0
 33 35  1  0  0  0  0
 35 34  1  6  0  0  0
 36 32  1  6  0  0  0
 36 33  1  0  0  0  0
 36 35  1  0  0  0  0
 37 38  1  0  0  0  0
 39 41  1  0  0  0  0
 39 42  1  0  0  0  0
 40 50  1  0  0  0  0
 41 40  1  0  0  0  0
 42 38  1  6  0  0  0
 42 40  1  0  0  0  0
 42 46  1  0  0  0  0
 43 45  1  0  0  0  0
 44 49  1  0  0  0  0
 45 44  2  0  0  0  0
 46 43  2  0  0  0  0
 46 47  1  0  0  0  0
 47 44  1  0  0  0  0
 49 48  1  0  0  0  0
 50 53  1  0  0  0  0
 51 53  1  0  0  0  0
 53 52  1  1  0  0  0
M  END
>  <MODEL>
4

>  <REMARK>
 VINA RESULT:      -5.4      1.854      2.935
  Name = 
  11 active torsions:
  status: ('A' for Active; 'I' for Inactive)
    1  A    between atoms: C_2  and  C_23
    2  A    between atoms: C_7  and  C_13
    3  A    between atoms: C_7  and  C_49
    4  A    between atoms: C_8  and  C_17
    5  A    between atoms: C_15  and  C_37
    6  A    between atoms: N_24  and  C_35
    7  A    between atoms: N_32  and  C_41
    8  A    between atoms: C_35  and  C_52
    9  A    between atoms: C_36  and  C_40
   10  A    between atoms: C_37  and  C_49
   11  A    between atoms: C_40  and  C_41
                            x       y       z     vdW  Elec       q    Type
                         _______ _______ _______ _____ _____    ______ ____

>  <TORSDO>
F 11

$$$$
=
 OpenBabel11062414053D

 53 60  0  0  1  0  0  0  0  0999 V2000
  181.9780  179.3180  140.1780 O   0  0  0  0  0  1  0  0  0  0  0  0
  187.4920  178.4030  137.6250 C   0  0  1  0  0  3  0  0  0  0  0  0
  183.3150  175.6310  138.7060 C   0  0  0  0  0  2  0  0  0  0  0  0
  187.3480  177.4490  136.5010 C   0  0  1  0  0  3  0  0  0  0  0  0
  184.2740  178.3830  140.1220 C   0  0  1  0  0  0  0  0  0  0  0  0
  187.8390  177.7950  139.0120 C   0  0  2  0  0  3  0  0  0  0  0  0
  185.7420  178.7680  140.0720 C   0  0  0  0  0  2  0  0  0  0  0  0
  182.4360  175.2000  136.3300 C   0  0  0  0  0  0  0  0  0  0  0  0
  188.6100  173.8940  137.3190 C   0  0  0  0  0  3  0  0  0  0  0  0
  182.6220  176.9880  138.7670 C   0  0  0  0  0  2  0  0  0  0  0  0
  186.5940  177.5210  139.8630 C   0  0  0  0  0  2  0  0  0  0  0  0
  183.2350  179.3340  139.5620 C   0  0  0  0  0  0  0  0  0  0  0  0
  188.5740  178.2940  136.6080 N   0  0  0  0  0  0  0  0  0  0  0  0
  187.4080  173.2030  137.4920 C   0  0  0  0  0  3  0  0  0  0  0  0
  186.1400  175.2300  136.9790 C   0  0  0  0  0  0  0  0  0  0  0  0
  183.6550  178.1130  138.7370 C   0  0  1  0  0  3  0  0  0  0  0  0
  183.8430  177.5460  141.1600 O   0  0  0  0  0  1  0  0  0  0  0  0
  183.6300  175.1640  137.2810 C   0  0  1  0  0  3  0  0  0  0  0  0
  187.3710  175.9590  136.8650 C   0  0  0  0  0  0  0  0  0  0  0  0
  182.5480  175.7660  135.1170 C   0  0  0  0  0  3  0  0  0  0  0  0
  189.6380  177.6200  137.1100 O   0  0  0  0  0  1  0  0  0  0  0  0
  186.1890  173.8660  137.3190 C   0  0  0  0  0  3  0  0  0  0  0  0
  184.6520  176.8870  135.7490 C   0  0  0  0  0  2  0  0  0  0  0  0
  184.8380  175.8320  136.7500 N   0  0  0  0  0  0  0  0  0  0  0  0
  183.8440  176.3230  134.5960 C   0  0  0  0  0  2  0  0  0  0  0  0
  183.7010  180.5760  139.1150 O   0  0  0  0  0  1  0  0  0  0  0  0
  188.5850  175.2500  137.0010 C   0  0  0  0  0  3  0  0  0  0  0  0
  181.1230  174.6430  136.7440 C   0  0  0  0  0  0  0  0  0  0  0  0
  180.9180  174.3410  137.9520 O   0  0  0  0  0  0  0  0  0  0  0  0
  180.0790  174.4560  135.7810 N   0  0  0  0  0  2  0  0  0  0  0  0
  178.9310  173.5990  136.0340 C   0  0  0  0  0  2  0  0  0  0  0  0
  178.9500  172.3950  135.1110 C   0  0  0  0  0  2  0  0  0  0  0  0
  179.9310  171.2990  136.9940 O   0  0  0  0  0  0  0  0  0  0  0  0
  181.2730  171.0450  135.1560 O   0  0  0  0  0  1  0  0  0  0  0  0
  180.3130  170.4240  135.9610 C   0  0  2  0  0  3  0  0  0  0  0  0
  178.9970  171.1330  135.9580 C   0  0  2  0  0  3  0  0  0  0  0  0
  188.9210  178.5840  139.7650 C   0  0  0  0  0  2  0  0  0  0  0  0
  188.5550  178.8690  141.2190 C   0  0  0  0  0  2  0  0  0  0  0  0
  188.7750  176.5010  141.4270 O   0  0  0  0  0  0  0  0  0  0  0  0
  190.3390  177.4830  142.2050 N   0  0  0  0  0  0  0  0  0  0  0  0
  190.1050  176.3380  141.4920 O   0  0  0  0  0  0  0  0  0  0  0  0
  188.9060  177.6910  142.1230 C   0  0  1  0  0  0  0  0  0  0  0  0
  188.6710  177.5910  144.6960 C   0  0  0  0  0  3  0  0  0  0  0  0
  186.4230  177.8260  145.2350 C   0  0  0  0  0  0  0  0  0  0  0  0
  187.7140  177.6610  145.7180 C   0  0  0  0  0  3  0  0  0  0  0  0
  188.1170  177.6930  143.4210 C   0  0  0  0  0  0  0  0  0  0  0  0
  186.4490  177.8800  143.5560 S   0  0  0  0  0  0  0  0  0  0  0  0
  185.5070  178.6490  147.3720 C   0  0  0  0  0  1  0  0  0  0  0  0
  185.1980  177.9130  146.0790 C   0  0  0  0  0  2  0  0  0  0  0  0
  190.8090  177.0590  143.5240 C   0  0  0  0  0  2  0  0  0  0  0  0
  191.9120  177.9170  145.4490 O   0  0  0  0  0  1  0  0  0  0  0  0
  191.4190  179.4660  143.7040 C   0  0  0  0  0  1  0  0  0  0  0  0
  191.8330  178.0440  144.0560 C   0  0  2  0  0  3  0  0  0  0  0  0
  2 13  1  6  0  0  0
  2  6  1  0  0  0  0
  3 10  1  0  0  0  0
  4 13  1  0  0  0  0
  4 19  1  1  0  0  0
  4  2  1  0  0  0  0
  5 17  1  1  0  0  0
  6 37  1  1  0  0  0
  6 11  1  0  0  0  0
  7  5  1  0  0  0  0
  8 28  1  0  0  0  0
  8 18  1  0  0  0  0
  9 14  1  0  0  0  0
 11  7  1  0  0  0  0
 12  5  1  0  0  0  0
 12  1  1  0  0  0  0
 13 21  1  0  0  0  0
 15 22  1  0  0  0  0
 16 10  1  1  0  0  0
 16 12  1  0  0  0  0
 16  5  1  0  0  0  0
 18  3  1  1  0  0  0
 19 15  2  0  0  0  0
 19 27  1  0  0  0  0
 20  8  2  0  0  0  0
 22 14  2  0  0  0  0
 23 24  1  0  0  0  0
 24 15  1  0  0  0  0
 24 18  1  0  0  0  0
 25 20  1  0  0  0  0
 25 23  1  0  0  0  0
 26 12  1  0  0  0  0
 27  9  2  0  0  0  0
 28 29  2  0  0  0  0
 30 31  1  0  0  0  0
 30 28  1  0  0  0  0
 32 31  1  0  0  0  0
 35 34  1  6  0  0  0
 35 33  1  0  0  0  0
 36 32  1  6  0  0  0
 36 35  1  0  0  0  0
 36 33  1  0  0  0  0
 37 38  1  0  0  0  0
 39 41  1  0  0  0  0
 39 42  1  0  0  0  0
 40 50  1  0  0  0  0
 41 40  1  0  0  0  0
 42 38  1  6  0  0  0
 42 40  1  0  0  0  0
 42 46  1  0  0  0  0
 43 45  1  0  0  0  0
 44 45  2  0  0  0  0
 44 49  1  0  0  0  0
 46 47  1  0  0  0  0
 46 43  2  0  0  0  0
 47 44  1  0  0  0  0
 49 48  1  0  0  0  0
 50 53  1  0  0  0  0
 53 52  1  1  0  0  0
 53 51  1  0  0  0  0
M  END
>  <MODEL>
5

>  <REMARK>
 VINA RESULT:      -5.2      2.161      3.269
  Name = 
  11 active torsions:
  status: ('A' for Active; 'I' for Inactive)
    1  A    between atoms: C_2  and  C_23
    2  A    between atoms: C_7  and  C_13
    3  A    between atoms: C_7  and  C_49
    4  A    between atoms: C_8  and  C_17
    5  A    between atoms: C_15  and  C_37
    6  A    between atoms: N_24  and  C_35
    7  A    between atoms: N_32  and  C_41
    8  A    between atoms: C_35  and  C_52
    9  A    between atoms: C_36  and  C_40
   10  A    between atoms: C_37  and  C_49
   11  A    between atoms: C_40  and  C_41
                            x       y       z     vdW  Elec       q    Type
                         _______ _______ _______ _____ _____    ______ ____

>  <TORSDO>
F 11

$$$$
=
 OpenBabel11062414053D

 53 60  0  0  1  0  0  0  0  0999 V2000
  183.4680  180.0740  140.6520 O   0  0  0  0  0  1  0  0  0  0  0  0
  186.2740  177.2800  135.9540 C   0  0  1  0  0  3  0  0  0  0  0  0
  183.0500  176.0070  139.7330 C   0  0  0  0  0  2  0  0  0  0  0  0
  185.3490  176.2830  135.3660 C   0  0  1  0  0  3  0  0  0  0  0  0
  185.1130  178.5050  139.6610 C   0  0  1  0  0  0  0  0  0  0  0  0
  187.2360  176.7670  137.0600 C   0  0  2  0  0  3  0  0  0  0  0  0
  186.3300  178.4320  138.7550 C   0  0  0  0  0  2  0  0  0  0  0  0
  180.9140  175.5740  138.3720 C   0  0  0  0  0  0  0  0  0  0  0  0
  186.1990  172.6380  136.3130 C   0  0  0  0  0  3  0  0  0  0  0  0
  182.7690  177.5060  139.7840 C   0  0  0  0  0  2  0  0  0  0  0  0
  186.6740  176.9750  138.4710 C   0  0  0  0  0  2  0  0  0  0  0  0
  184.1280  179.6450  139.4940 C   0  0  0  0  0  0  0  0  0  0  0  0
  186.5430  176.7360  134.5930 N   0  0  0  0  0  0  0  0  0  0  0  0
  185.2120  172.3570  137.2600 C   0  0  0  0  0  3  0  0  0  0  0  0
  184.2610  174.5900  136.9670 C   0  0  0  0  0  0  0  0  0  0  0  0
  183.7790  178.2650  138.9270 C   0  0  1  0  0  3  0  0  0  0  0  0
  185.2110  177.9620  140.9480 O   0  0  0  0  0  1  0  0  0  0  0  0
  182.4070  175.3020  138.5330 C   0  0  1  0  0  3  0  0  0  0  0  0
  185.3120  174.9070  136.0430 C   0  0  0  0  0  0  0  0  0  0  0  0
  180.4120  175.9320  137.1790 C   0  0  0  0  0  3  0  0  0  0  0  0
  187.5640  175.8440  134.6270 O   0  0  0  0  0  1  0  0  0  0  0  0
  184.2530  173.3230  137.5780 C   0  0  0  0  0  3  0  0  0  0  0  0
  182.6590  176.4520  136.3040 C   0  0  0  0  0  2  0  0  0  0  0  0
  183.1910  175.5170  137.2990 N   0  0  0  0  0  0  0  0  0  0  0  0
  181.2530  176.0170  135.9350 C   0  0  0  0  0  2  0  0  0  0  0  0
  184.4670  180.6330  138.5610 O   0  0  0  0  0  1  0  0  0  0  0  0
  186.2380  173.8930  135.7090 C   0  0  0  0  0  3  0  0  0  0  0  0
  179.9970  175.4810  139.5370 C   0  0  0  0  0  0  0  0  0  0  0  0
  179.2010  174.5060  139.6370 O   0  0  0  0  0  0  0  0  0  0  0  0
  180.0190  176.4840  140.5580 N   0  0  0  0  0  2  0  0  0  0  0  0
  178.9310  176.6500  141.5100 C   0  0  0  0  0  2  0  0  0  0  0  0
  178.9330  178.0560  142.0820 C   0  0  0  0  0  2  0  0  0  0  0  0
  178.9430  178.3680  144.4510 O   0  0  0  0  0  0  0  0  0  0  0  0
  179.1320  180.3920  143.3960 O   0  0  0  0  0  1  0  0  0  0  0  0
  179.8360  179.3800  144.0560 C   0  0  2  0  0  3  0  0  0  0  0  0
  179.7660  178.0620  143.3540 C   0  0  2  0  0  3  0  0  0  0  0  0
  188.6730  177.2870  136.9030 C   0  0  0  0  0  2  0  0  0  0  0  0
  189.7280  176.2940  137.3800 C   0  0  0  0  0  2  0  0  0  0  0  0
  190.5380  178.2820  138.4240 O   0  0  0  0  0  0  0  0  0  0  0  0
  189.9570  176.9020  139.7580 N   0  0  0  0  0  0  0  0  0  0  0  0
  189.9090  178.2630  139.6100 O   0  0  0  0  0  0  0  0  0  0  0  0
  190.6140  176.9000  138.4650 C   0  0  1  0  0  0  0  0  0  0  0  0
  193.1440  177.0290  138.9810 C   0  0  0  0  0  3  0  0  0  0  0  0
  194.1700  175.1420  138.0940 C   0  0  0  0  0  0  0  0  0  0  0  0
  194.3420  176.3240  138.8030 C   0  0  0  0  0  3  0  0  0  0  0  0
  192.0460  176.3970  138.4020 C   0  0  0  0  0  0  0  0  0  0  0  0
  192.5520  174.9630  137.6780 S   0  0  0  0  0  0  0  0  0  0  0  0
  195.2960  173.0400  138.7210 C   0  0  0  0  0  1  0  0  0  0  0  0
  195.2600  174.1940  137.7330 C   0  0  0  0  0  2  0  0  0  0  0  0
  190.8510  176.6410  140.8860 C   0  0  0  0  0  2  0  0  0  0  0  0
  189.0280  177.0800  142.3490 O   0  0  0  0  0  1  0  0  0  0  0  0
  190.9590  176.0560  143.3030 C   0  0  0  0  0  1  0  0  0  0  0  0
  190.0540  176.1620  142.0850 C   0  0  2  0  0  3  0  0  0  0  0  0
  2 13  1  6  0  0  0
  2  6  1  0  0  0  0
  3 10  1  0  0  0  0
  4  2  1  0  0  0  0
  4 19  1  1  0  0  0
  5 17  1  1  0  0  0
  6 37  1  1  0  0  0
  6 11  1  0  0  0  0
  7  5  1  0  0  0  0
  8 18  1  0  0  0  0
  8 28  1  0  0  0  0
  9 14  1  0  0  0  0
 11  7  1  0  0  0  0
 12  5  1  0  0  0  0
 12  1  1  0  0  0  0
 13 21  1  0  0  0  0
 13  4  1  0  0  0  0
 14 22  2  0  0  0  0
 15 24  1  0  0  0  0
 15 22  1  0  0  0  0
 16 12  1  0  0  0  0
 16  5  1  0  0  0  0
 16 10  1  1  0  0  0
 18  3  1  1  0  0  0
 19 15  2  0  0  0  0
 20  8  2  0  0  0  0
 23 24  1  0  0  0  0
 24 18  1  0  0  0  0
 25 23  1  0  0  0  0
 25 20  1  0  0  0  0
 26 12  1  0  0  0  0
 27 19  1  0  0  0  0
 27  9  2  0  0  0  0
 28 29  2  0  0  0  0
 28 30  1  0  0  0  0
 30 31  1  0  0  0  0
 31 32  1  0  0  0  0
 35 34  1  6  0  0  0
 35 33  1  0  0  0  0
 36 32  1  6  0  0  0
 36 35  1  0  0  0  0
 36 33  1  0  0  0  0
 37 38  1  0  0  0  0
 39 42  1  0  0  0  0
 39 41  1  0  0  0  0
 40 50  1  0  0  0  0
 41 40  1  0  0  0  0
 42 38  1  6  0  0  0
 42 40  1  0  0  0  0
 44 45  2  0  0  0  0
 45 43  1  0  0  0  0
 46 42  1  0  0  0  0
 46 43  2  0  0  0  0
 47 44  1  0  0  0  0
 47 46  1  0  0  0  0
 49 44  1  0  0  0  0
 49 48  1  0  0  0  0
 50 53  1  0  0  0  0
 53 51  1  0  0  0  0
 53 52  1  1  0  0  0
M  END
>  <MODEL>
6

>  <REMARK>
 VINA RESULT:      -4.3      2.104      3.764
  Name = 
  11 active torsions:
  status: ('A' for Active; 'I' for Inactive)
    1  A    between atoms: C_2  and  C_23
    2  A    between atoms: C_7  and  C_13
    3  A    between atoms: C_7  and  C_49
    4  A    between atoms: C_8  and  C_17
    5  A    between atoms: C_15  and  C_37
    6  A    between atoms: N_24  and  C_35
    7  A    between atoms: N_32  and  C_41
    8  A    between atoms: C_35  and  C_52
    9  A    between atoms: C_36  and  C_40
   10  A    between atoms: C_37  and  C_49
   11  A    between atoms: C_40  and  C_41
                            x       y       z     vdW  Elec       q    Type
                         _______ _______ _______ _____ _____    ______ ____

>  <TORSDO>
F 11

$$$$
=
 OpenBabel11062414053D

 53 60  0  0  1  0  0  0  0  0999 V2000
  179.8120  178.3950  140.2510 O   0  0  0  0  0  1  0  0  0  0  0  0
  185.7440  178.8700  138.7190 C   0  0  1  0  0  3  0  0  0  0  0  0
  181.9670  175.4380  138.2090 C   0  0  0  0  0  2  0  0  0  0  0  0
  185.9460  178.2520  137.3880 C   0  0  1  0  0  3  0  0  0  0  0  0
  182.2090  177.7860  140.4290 C   0  0  1  0  0  0  0  0  0  0  0  0
  185.9560  177.9480  139.9510 C   0  0  2  0  0  3  0  0  0  0  0  0
  183.5810  178.3390  140.7740 C   0  0  0  0  0  2  0  0  0  0  0  0
  181.5730  175.5790  135.6740 C   0  0  0  0  0  0  0  0  0  0  0  0
  187.6310  174.7820  137.5330 C   0  0  0  0  0  3  0  0  0  0  0  0
  181.0580  176.6360  138.4650 C   0  0  0  0  0  2  0  0  0  0  0  0
  184.6510  177.3070  140.4380 C   0  0  0  0  0  2  0  0  0  0  0  0
  181.1330  178.7260  139.9250 C   0  0  0  0  0  0  0  0  0  0  0  0
  186.9810  179.1720  137.9470 N   0  0  0  0  0  0  0  0  0  0  0  0
  186.5490  173.9340  137.2820 C   0  0  0  0  0  3  0  0  0  0  0  0
  185.0640  175.8620  137.0450 C   0  0  0  0  0  0  0  0  0  0  0  0
  181.8800  177.8370  138.9240 C   0  0  1  0  0  3  0  0  0  0  0  0
  181.7600  176.6510  141.1170 O   0  0  0  0  0  1  0  0  0  0  0  0
  182.5840  175.4230  136.8070 C   0  0  1  0  0  3  0  0  0  0  0  0
  186.1570  176.7330  137.3670 C   0  0  0  0  0  0  0  0  0  0  0  0
  181.7860  176.4660  134.6880 C   0  0  0  0  0  3  0  0  0  0  0  0
  188.0450  178.5150  138.4700 O   0  0  0  0  0  1  0  0  0  0  0  0
  185.2820  174.4720  137.0380 C   0  0  0  0  0  3  0  0  0  0  0  0
  183.5420  177.6080  135.9910 C   0  0  0  0  0  2  0  0  0  0  0  0
  183.7340  176.3470  136.7140 N   0  0  0  0  0  0  0  0  0  0  0  0
  183.0390  177.2930  134.5950 C   0  0  0  0  0  2  0  0  0  0  0  0
  181.4530  180.0890  139.9050 O   0  0  0  0  0  1  0  0  0  0  0  0
  187.4340  176.1610  137.5640 C   0  0  0  0  0  3  0  0  0  0  0  0
  180.3210  174.7800  135.6620 C   0  0  0  0  0  0  0  0  0  0  0  0
  179.2500  175.2780  136.1060 O   0  0  0  0  0  0  0  0  0  0  0  0
  180.3170  173.4480  135.1360 N   0  0  0  0  0  2  0  0  0  0  0  0
  179.2480  172.5020  135.4200 C   0  0  0  0  0  2  0  0  0  0  0  0
  179.7930  171.0880  135.4950 C   0  0  0  0  0  2  0  0  0  0  0  0
  181.8910  169.9760  135.2180 O   0  0  0  0  0  0  0  0  0  0  0  0
  182.0460  171.5300  136.8920 O   0  0  0  0  0  1  0  0  0  0  0  0
  182.3290  171.2710  135.5480 C   0  0  2  0  0  3  0  0  0  0  0  0
  181.1040  171.0310  134.7250 C   0  0  2  0  0  3  0  0  0  0  0  0
  186.7530  178.6200  141.0800 C   0  0  0  0  0  2  0  0  0  0  0  0
  186.2200  178.2910  142.4710 C   0  0  0  0  0  2  0  0  0  0  0  0
  187.2370  176.1990  143.0060 O   0  0  0  0  0  0  0  0  0  0  0  0
  188.5870  177.6530  142.7290 N   0  0  0  0  0  0  0  0  0  0  0  0
  188.4540  176.3180  142.4540 O   0  0  0  0  0  0  0  0  0  0  0  0
  187.2610  177.5500  143.3050 C   0  0  1  0  0  0  0  0  0  0  0  0
  186.0540  178.4950  145.3880 C   0  0  0  0  0  3  0  0  0  0  0  0
  187.2890  177.9240  147.2720 C   0  0  0  0  0  0  0  0  0  0  0  0
  186.1550  178.5600  146.7850 C   0  0  0  0  0  3  0  0  0  0  0  0
  187.1160  177.8160  144.7940 C   0  0  0  0  0  0  0  0  0  0  0  0
  188.1740  177.2880  145.9940 S   0  0  0  0  0  0  0  0  0  0  0  0
  189.1490  178.1800  148.8710 C   0  0  0  0  0  1  0  0  0  0  0  0
  187.6750  177.8460  148.7080 C   0  0  0  0  0  2  0  0  0  0  0  0
  189.6630  177.7670  143.7130 C   0  0  0  0  0  2  0  0  0  0  0  0
  191.6430  176.4840  143.4080 O   0  0  0  0  0  1  0  0  0  0  0  0
  191.8840  178.8560  143.4290 C   0  0  0  0  0  1  0  0  0  0  0  0
  191.0130  177.6750  143.0250 C   0  0  2  0  0  3  0  0  0  0  0  0
  2 13  1  1  0  0  0
  2  6  1  0  0  0  0
  3 10  1  0  0  0  0
  4 19  1  1  0  0  0
  4 13  1  0  0  0  0
  4  2  1  0  0  0  0
  5  7  1  0  0  0  0
  5 17  1  1  0  0  0
  6 11  1  0  0  0  0
  6 37  1  1  0  0  0
  8 18  1  0  0  0  0
  9 27  1  0  0  0  0
 11  7  1  0  0  0  0
 12  1  1  0  0  0  0
 12  5  1  0  0  0  0
 13 21  1  0  0  0  0
 14  9  2  0  0  0  0
 15 19  1  0  0  0  0
 16 10  1  1  0  0  0
 16 12  1  0  0  0  0
 16  5  1  0  0  0  0
 18  3  1  1  0  0  0
 19 27  2  0  0  0  0
 20  8  2  0  0  0  0
 22 15  2  0  0  0  0
 22 14  1  0  0  0  0
 23 24  1  0  0  0  0
 24 18  1  0  0  0  0
 24 15  1  0  0  0  0
 25 20  1  0  0  0  0
 25 23  1  0  0  0  0
 26 12  1  0  0  0  0
 28  8  1  0  0  0  0
 28 29  2  0  0  0  0
 30 31  1  0  0  0  0
 30 28  1  0  0  0  0
 31 32  1  0  0  0  0
 33 35  1  0  0  0  0
 35 34  1  1  0  0  0
 36 33  1  0  0  0  0
 36 32  1  1  0  0  0
 36 35  1  0  0  0  0
 37 38  1  0  0  0  0
 39 42  1  0  0  0  0
 40 42  1  0  0  0  0
 40 50  1  0  0  0  0
 41 40  1  0  0  0  0
 41 39  1  0  0  0  0
 42 38  1  6  0  0  0
 42 46  1  0  0  0  0
 43 45  1  0  0  0  0
 44 49  1  0  0  0  0
 45 44  2  0  0  0  0
 46 43  2  0  0  0  0
 46 47  1  0  0  0  0
 47 44  1  0  0  0  0
 49 48  1  0  0  0  0
 53 51  1  0  0  0  0
 53 52  1  1  0  0  0
 53 50  1  0  0  0  0
M  END
>  <MODEL>
7

>  <REMARK>
 VINA RESULT:      -4.3      2.483      3.774
  Name = 
  11 active torsions:
  status: ('A' for Active; 'I' for Inactive)
    1  A    between atoms: C_2  and  C_23
    2  A    between atoms: C_7  and  C_13
    3  A    between atoms: C_7  and  C_49
    4  A    between atoms: C_8  and  C_17
    5  A    between atoms: C_15  and  C_37
    6  A    between atoms: N_24  and  C_35
    7  A    between atoms: N_32  and  C_41
    8  A    between atoms: C_35  and  C_52
    9  A    between atoms: C_36  and  C_40
   10  A    between atoms: C_37  and  C_49
   11  A    between atoms: C_40  and  C_41
                            x       y       z     vdW  Elec       q    Type
                         _______ _______ _______ _____ _____    ______ ____

>  <TORSDO>
F 11

$$$$
=
 OpenBabel11062414053D

 53 60  0  0  1  0  0  0  0  0999 V2000
  182.4560  179.4920  140.2430 O   0  0  0  0  0  1  0  0  0  0  0  0
  188.0350  178.1760  138.0310 C   0  0  1  0  0  3  0  0  0  0  0  0
  183.5280  175.7950  138.5890 C   0  0  0  0  0  2  0  0  0  0  0  0
  187.8860  177.3240  136.8290 C   0  0  1  0  0  3  0  0  0  0  0  0
  184.6420  178.3240  140.2810 C   0  0  1  0  0  0  0  0  0  0  0  0
  188.2080  177.4390  139.3880 C   0  0  2  0  0  3  0  0  0  0  0  0
  186.1420  178.5530  140.3670 C   0  0  0  0  0  2  0  0  0  0  0  0
  182.8020  175.6270  136.1300 C   0  0  0  0  0  0  0  0  0  0  0  0
  188.7140  173.6060  137.4570 C   0  0  0  0  0  3  0  0  0  0  0  0
  182.9730  177.2110  138.7050 C   0  0  0  0  0  2  0  0  0  0  0  0
  186.8780  177.2410  140.1230 C   0  0  0  0  0  2  0  0  0  0  0  0
  183.7530  179.4170  139.7220 C   0  0  0  0  0  0  0  0  0  0  0  0
  189.1790  178.0240  137.0900 N   0  0  0  0  0  0  0  0  0  0  0  0
  187.4390  173.0360  137.4880 C   0  0  0  0  0  3  0  0  0  0  0  0
  186.4270  175.2180  137.0450 C   0  0  0  0  0  0  0  0  0  0  0  0
  184.1130  178.2180  138.8370 C   0  0  1  0  0  3  0  0  0  0  0  0
  184.0480  177.4670  141.2160 O   0  0  0  0  0  1  0  0  0  0  0  0
  183.9070  175.3990  137.1580 C   0  0  1  0  0  3  0  0  0  0  0  0
  187.7300  175.8180  137.0770 C   0  0  0  0  0  0  0  0  0  0  0  0
  183.0670  176.2610  134.9750 C   0  0  0  0  0  3  0  0  0  0  0  0
  190.1260  177.2070  137.6140 O   0  0  0  0  0  1  0  0  0  0  0  0
  186.3110  173.8360  137.2800 C   0  0  0  0  0  3  0  0  0  0  0  0
  185.2160  177.1060  135.8430 C   0  0  0  0  0  2  0  0  0  0  0  0
  185.2140  175.9690  136.7690 N   0  0  0  0  0  0  0  0  0  0  0  0
  184.4500  176.7130  134.5940 C   0  0  0  0  0  2  0  0  0  0  0  0
  184.3760  180.6300  139.4080 O   0  0  0  0  0  1  0  0  0  0  0  0
  188.8510  174.9760  137.2440 C   0  0  0  0  0  3  0  0  0  0  0  0
  181.4110  175.1860  136.4030 C   0  0  0  0  0  0  0  0  0  0  0  0
  180.4390  175.8200  135.9070 O   0  0  0  0  0  0  0  0  0  0  0  0
  181.1630  174.0330  137.2150 N   0  0  0  0  0  2  0  0  0  0  0  0
  179.8620  173.7650  137.8100 C   0  0  0  0  0  2  0  0  0  0  0  0
  179.3950  172.3640  137.4620 C   0  0  0  0  0  2  0  0  0  0  0  0
  178.9340  170.9450  135.5950 O   0  0  0  0  0  0  0  0  0  0  0  0
  181.1690  170.8860  136.0880 O   0  0  0  0  0  1  0  0  0  0  0  0
  180.2030  171.4340  135.2380 C   0  0  2  0  0  3  0  0  0  0  0  0
  179.1990  172.2760  135.9570 C   0  0  2  0  0  3  0  0  0  0  0  0
  189.3000  178.0540  140.2760 C   0  0  0  0  0  2  0  0  0  0  0  0
  189.6640  177.1810  141.4740 C   0  0  0  0  0  2  0  0  0  0  0  0
  189.7430  179.2710  142.6230 O   0  0  0  0  0  0  0  0  0  0  0  0
  188.0650  178.2490  143.0160 N   0  0  0  0  0  0  0  0  0  0  0  0
  188.4440  179.5480  142.8110 O   0  0  0  0  0  0  0  0  0  0  0  0
  189.4600  177.9260  142.7890 C   0  0  1  0  0  0  0  0  0  0  0  0
  191.5160  176.7630  143.8410 C   0  0  0  0  0  3  0  0  0  0  0  0
  191.1240  176.4970  146.1160 C   0  0  0  0  0  0  0  0  0  0  0  0
  192.0120  176.3000  145.0680 C   0  0  0  0  0  3  0  0  0  0  0  0
  190.2380  177.3090  143.9390 C   0  0  0  0  0  0  0  0  0  0  0  0
  189.7250  177.2300  145.5420 S   0  0  0  0  0  0  0  0  0  0  0  0
  192.7650  175.5250  147.6780 C   0  0  0  0  0  1  0  0  0  0  0  0
  191.3630  176.0910  147.5290 C   0  0  0  0  0  2  0  0  0  0  0  0
  187.6470  178.1570  144.4150 C   0  0  0  0  0  2  0  0  0  0  0  0
  185.5250  178.9390  143.6780 O   0  0  0  0  0  1  0  0  0  0  0  0
  185.6760  178.1850  145.9360 C   0  0  0  0  0  1  0  0  0  0  0  0
  186.1420  177.9870  144.5010 C   0  0  2  0  0  3  0  0  0  0  0  0
  2 13  1  6  0  0  0
  2  6  1  0  0  0  0
  3 10  1  0  0  0  0
  4 19  1  1  0  0  0
  4 13  1  0  0  0  0
  4  2  1  0  0  0  0
  5  7  1  0  0  0  0
  5 17  1  1  0  0  0
  6 11  1  0  0  0  0
  6 37  1  1  0  0  0
  8 28  1  0  0  0  0
  8 18  1  0  0  0  0
  9 14  1  0  0  0  0
 11  7  1  0  0  0  0
 12  1  1  0  0  0  0
 12  5  1  0  0  0  0
 13 21  1  0  0  0  0
 15 19  2  0  0  0  0
 15 22  1  0  0  0  0
 16 10  1  1  0  0  0
 16 12  1  0  0  0  0
 16  5  1  0  0  0  0
 18  3  1  1  0  0  0
 19 27  1  0  0  0  0
 20  8  2  0  0  0  0
 22 14  2  0  0  0  0
 23 24  1  0  0  0  0
 24 15  1  0  0  0  0
 24 18  1  0  0  0  0
 25 20  1  0  0  0  0
 25 23  1  0  0  0  0
 26 12  1  0  0  0  0
 27  9  2  0  0  0  0
 28 30  1  0  0  0  0
 29 28  2  0  0  0  0
 30 31  1  0  0  0  0
 32 31  1  0  0  0  0
 33 36  1  0  0  0  0
 35 33  1  0  0  0  0
 35 36  1  0  0  0  0
 35 34  1  1  0  0  0
 36 32  1  1  0  0  0
 37 38  1  0  0  0  0
 39 42  1  0  0  0  0
 39 41  1  0  0  0  0
 40 50  1  0  0  0  0
 41 40  1  0  0  0  0
 42 38  1  6  0  0  0
 42 40  1  0  0  0  0
 42 46  1  0  0  0  0
 43 46  2  0  0  0  0
 43 45  1  0  0  0  0
 44 49  1  0  0  0  0
 45 44  2  0  0  0  0
 46 47  1  0  0  0  0
 47 44  1  0  0  0  0
 49 48  1  0  0  0  0
 50 53  1  0  0  0  0
 51 53  1  0  0  0  0
 53 52  1  1  0  0  0
M  END
>  <MODEL>
8

>  <REMARK>
 VINA RESULT:      -3.9      2.038      3.635
  Name = 
  11 active torsions:
  status: ('A' for Active; 'I' for Inactive)
    1  A    between atoms: C_2  and  C_23
    2  A    between atoms: C_7  and  C_13
    3  A    between atoms: C_7  and  C_49
    4  A    between atoms: C_8  and  C_17
    5  A    between atoms: C_15  and  C_37
    6  A    between atoms: N_24  and  C_35
    7  A    between atoms: N_32  and  C_41
    8  A    between atoms: C_35  and  C_52
    9  A    between atoms: C_36  and  C_40
   10  A    between atoms: C_37  and  C_49
   11  A    between atoms: C_40  and  C_41
                            x       y       z     vdW  Elec       q    Type
                         _______ _______ _______ _____ _____    ______ ____

>  <TORSDO>
F 11

$$$$
=
 OpenBabel11062414053D

 53 60  0  0  1  0  0  0  0  0999 V2000
  189.8000  177.4750  142.8740 O   0  0  0  0  0  1  0  0  0  0  0  0
  185.2820  176.6740  138.7880 C   0  0  1  0  0  3  0  0  0  0  0  0
  190.2640  177.8870  138.7300 C   0  0  0  0  0  2  0  0  0  0  0  0
  185.8360  176.0150  137.5830 C   0  0  1  0  0  3  0  0  0  0  0  0
  188.1730  178.2630  141.1770 C   0  0  1  0  0  0  0  0  0  0  0  0
  185.2520  178.2280  138.7780 C   0  0  2  0  0  3  0  0  0  0  0  0
  186.6890  178.3650  140.8720 C   0  0  0  0  0  2  0  0  0  0  0  0
  191.2330  175.7500  137.6830 C   0  0  0  0  0  0  0  0  0  0  0  0
  186.3160  178.4100  134.5940 C   0  0  0  0  0  3  0  0  0  0  0  0
  190.2700  177.2630  140.1230 C   0  0  0  0  0  2  0  0  0  0  0  0
  186.4900  178.8440  139.4390 C   0  0  0  0  0  2  0  0  0  0  0  0
  188.6700  177.1730  142.1060 C   0  0  0  0  0  0  0  0  0  0  0  0
  184.3610  176.0270  137.8130 N   0  0  0  0  0  0  0  0  0  0  0  0
  187.7010  178.5930  134.6010 C   0  0  0  0  0  3  0  0  0  0  0  0
  187.9160  177.0740  136.5050 C   0  0  0  0  0  0  0  0  0  0  0  0
  188.8410  177.0030  140.5930 C   0  0  1  0  0  3  0  0  0  0  0  0
  188.9400  179.4360  141.1420 O   0  0  0  0  0  1  0  0  0  0  0  0
  190.1870  176.8580  137.5970 C   0  0  1  0  0  3  0  0  0  0  0  0
  186.4890  176.9350  136.5430 C   0  0  0  0  0  0  0  0  0  0  0  0
  190.8730  174.4620  137.5510 C   0  0  0  0  0  3  0  0  0  0  0  0
  183.7170  176.9610  137.0690 O   0  0  0  0  0  1  0  0  0  0  0  0
  188.4890  177.9280  135.5450 C   0  0  0  0  0  3  0  0  0  0  0  0
  188.4920  175.0140  137.8830 C   0  0  0  0  0  2  0  0  0  0  0  0
  188.8060  176.3650  137.4090 N   0  0  0  0  0  0  0  0  0  0  0  0
  189.4630  174.0390  137.2440 C   0  0  0  0  0  2  0  0  0  0  0  0
  187.6910  176.3780  142.7140 O   0  0  0  0  0  1  0  0  0  0  0  0
  185.7260  177.5840  135.5470 C   0  0  0  0  0  3  0  0  0  0  0  0
  192.6580  176.0720  137.9490 C   0  0  0  0  0  0  0  0  0  0  0  0
  193.1650  177.1280  137.4770 O   0  0  0  0  0  0  0  0  0  0  0  0
  193.4620  175.1990  138.7500 N   0  0  0  0  0  2  0  0  0  0  0  0
  194.9160  175.2580  138.7480 C   0  0  0  0  0  2  0  0  0  0  0  0
  195.4660  174.7800  137.4170 C   0  0  0  0  0  2  0  0  0  0  0  0
  197.5560  174.7340  138.5760 O   0  0  0  0  0  0  0  0  0  0  0  0
  197.7540  175.9680  136.6570 O   0  0  0  0  0  1  0  0  0  0  0  0
  198.0030  174.7230  137.2430 C   0  0  2  0  0  3  0  0  0  0  0  0
  196.7570  174.0160  137.6710 C   0  0  2  0  0  3  0  0  0  0  0  0
  183.9330  178.8110  139.3100 C   0  0  0  0  0  2  0  0  0  0  0  0
  183.2830  177.9450  140.3850 C   0  0  0  0  0  2  0  0  0  0  0  0
  181.6230  178.8740  141.8280 O   0  0  0  0  0  0  0  0  0  0  0  0
  181.4840  179.5760  139.9560 N   0  0  0  0  0  0  0  0  0  0  0  0
  181.3460  180.0450  141.2350 O   0  0  0  0  0  0  0  0  0  0  0  0
  181.8130  178.3090  140.5780 C   0  0  1  0  0  0  0  0  0  0  0  0
  179.7060  176.8800  141.0290 C   0  0  0  0  0  3  0  0  0  0  0  0
  179.6570  175.1410  139.4880 C   0  0  0  0  0  0  0  0  0  0  0  0
  179.0190  175.7510  140.5590 C   0  0  0  0  0  3  0  0  0  0  0  0
  180.8820  177.1360  140.3260 C   0  0  0  0  0  0  0  0  0  0  0  0
  181.0670  175.9760  139.1190 S   0  0  0  0  0  0  0  0  0  0  0  0
  179.0440  174.1790  137.3020 C   0  0  0  0  0  1  0  0  0  0  0  0
  179.1770  173.9140  138.7920 C   0  0  0  0  0  2  0  0  0  0  0  0
  180.1530  179.6210  139.3530 C   0  0  0  0  0  2  0  0  0  0  0  0
  180.8630  179.2080  137.1200 O   0  0  0  0  0  1  0  0  0  0  0  0
  181.0480  181.4480  137.9180 C   0  0  0  0  0  1  0  0  0  0  0  0
  180.2380  180.1600  137.9370 C   0  0  2  0  0  3  0  0  0  0  0  0
  2 13  1  6  0  0  0
  3 10  1  0  0  0  0
  4 19  1  6  0  0  0
  4 13  1  0  0  0  0
  4  2  1  0  0  0  0
  5 17  1  6  0  0  0
  5 12  1  0  0  0  0
  6  2  1  0  0  0  0
  6 37  1  1  0  0  0
  6 11  1  0  0  0  0
  7  5  1  0  0  0  0
  8 28  1  0  0  0  0
  9 14  2  0  0  0  0
  9 27  1  0  0  0  0
 11  7  1  0  0  0  0
 12 26  1  0  0  0  0
 12  1  1  0  0  0  0
 14 22  1  0  0  0  0
 15 19  1  0  0  0  0
 15 24  1  0  0  0  0
 16 10  1  1  0  0  0
 16  5  1  0  0  0  0
 16 12  1  0  0  0  0
 18  8  1  0  0  0  0
 18  3  1  1  0  0  0
 20  8  2  0  0  0  0
 21 13  1  0  0  0  0
 22 15  2  0  0  0  0
 24 18  1  0  0  0  0
 24 23  1  0  0  0  0
 25 20  1  0  0  0  0
 25 23  1  0  0  0  0
 27 19  2  0  0  0  0
 28 30  1  0  0  0  0
 29 28  2  0  0  0  0
 31 30  1  0  0  0  0
 32 31  1  0  0  0  0
 35 34  1  6  0  0  0
 35 36  1  0  0  0  0
 35 33  1  0  0  0  0
 36 32  1  6  0  0  0
 36 33  1  0  0  0  0
 37 38  1  0  0  0  0
 40 42  1  0  0  0  0
 40 41  1  0  0  0  0
 41 39  1  0  0  0  0
 42 38  1  6  0  0  0
 42 39  1  0  0  0  0
 44 45  2  0  0  0  0
 45 43  1  0  0  0  0
 46 42  1  0  0  0  0
 46 43  2  0  0  0  0
 47 44  1  0  0  0  0
 47 46  1  0  0  0  0
 48 49  1  0  0  0  0
 49 44  1  0  0  0  0
 50 40  1  0  0  0  0
 51 53  1  0  0  0  0
 53 52  1  1  0  0  0
 53 50  1  0  0  0  0
M  END
>  <MODEL>
9

>  <REMARK>
 VINA RESULT:      -3.8      2.900     10.073
  Name = 
  11 active torsions:
  status: ('A' for Active; 'I' for Inactive)
    1  A    between atoms: C_2  and  C_23
    2  A    between atoms: C_7  and  C_13
    3  A    between atoms: C_7  and  C_49
    4  A    between atoms: C_8  and  C_17
    5  A    between atoms: C_15  and  C_37
    6  A    between atoms: N_24  and  C_35
    7  A    between atoms: N_32  and  C_41
    8  A    between atoms: C_35  and  C_52
    9  A    between atoms: C_36  and  C_40
   10  A    between atoms: C_37  and  C_49
   11  A    between atoms: C_40  and  C_41
                            x       y       z     vdW  Elec       q    Type
                         _______ _______ _______ _____ _____    ______ ____

>  <TORSDO>
F 11

$$$$
