=
 OpenBabel11062416483D

 28 30  0  0  0  0  0  0  0  0999 V2000
  185.8320  178.7560  139.7380 C   0  0  0  0  0  0  0  0  0  0  0  0
  189.7070  177.3430  141.6500 C   0  0  0  0  0  0  0  0  0  0  0  0
  187.8160  178.5000  140.6680 N   0  0  0  0  0  0  0  0  0  0  0  0
  190.0830  177.1760  139.2010 N   0  0  0  0  0  0  0  0  0  0  0  0
  186.6560  178.3320  138.7540 N   0  0  0  0  0  0  0  0  0  0  0  0
  189.0680  177.7780  138.6480 C   0  0  0  0  0  3  0  0  0  0  0  0
  188.9650  178.6380  141.5450 C   0  0  0  0  0  2  0  0  0  0  0  0
  190.2350  176.7500  140.5680 C   0  0  0  0  0  3  0  0  0  0  0  0
  187.8520  178.1830  139.3640 C   0  0  0  0  0  0  0  0  0  0  0  0
  186.5510  178.8760  140.9170 C   0  0  0  0  0  0  0  0  0  0  0  0
  183.4000  178.0980  139.8120 N   0  0  0  0  0  1  0  0  0  0  0  0
  184.4080  179.0590  139.5200 C   0  0  0  0  0  0  0  0  0  0  0  0
  184.0720  180.1860  139.0720 O   0  0  0  0  0  0  0  0  0  0  0  0
  189.4160  175.5540  143.1750 O   0  0  0  0  0  0  0  0  0  0  0  0
  189.9010  176.7030  142.9770 C   0  0  0  0  0  0  0  0  0  0  0  0
  191.5990  178.2180  143.8630 C   0  0  0  0  0  2  0  0  0  0  0  0
  190.6110  177.3570  144.1000 C   0  0  0  0  0  0  0  0  0  0  0  0
  190.3610  176.8800  145.4330 N   0  0  0  0  0  2  0  0  0  0  0  0
  188.6260  178.0000  148.5720 C   0  0  0  0  0  3  0  0  0  0  0  0
  187.3460  178.2580  148.0770 C   0  0  0  0  0  3  0  0  0  0  0  0
  188.0700  177.5960  145.8630 C   0  0  0  0  0  3  0  0  0  0  0  0
  189.6280  177.5380  147.7130 C   0  0  0  0  0  3  0  0  0  0  0  0
  187.0680  178.0570  146.7220 C   0  0  0  0  0  3  0  0  0  0  0  0
  189.3530  177.3240  146.3520 C   0  0  0  0  0  0  0  0  0  0  0  0
  186.0450  179.3270  142.2520 C   0  0  0  0  0  2  0  0  0  0  0  0
  185.4860  178.1740  143.0110 C   0  0  0  0  0  0  0  0  0  0  0  0
  184.1550  178.1780  143.4050 O   0  0  0  0  0  1  0  0  0  0  0  0
  186.2160  177.1860  143.2800 O   0  0  0  0  0  0  0  0  0  0  0  0
  1 10  2  0  0  0  0
  2 15  1  0  0  0  0
  3 10  1  0  0  0  0
  3  7  1  0  0  0  0
  4  8  1  0  0  0  0
  5  9  2  0  0  0  0
  5  1  1  0  0  0  0
  6  4  2  0  0  0  0
  6  9  1  0  0  0  0
  7  2  1  0  0  0  0
  8  2  2  0  0  0  0
  9  3  1  0  0  0  0
 10 25  1  0  0  0  0
 12  1  1  0  0  0  0
 12 11  1  0  0  0  0
 13 12  2  0  0  0  0
 15 14  2  0  0  0  0
 15 17  1  0  0  0  0
 16 17  2  0  0  0  0
 17 18  1  0  0  0  0
 18 24  1  0  0  0  0
 20 19  1  0  0  0  0
 21 24  2  0  0  0  0
 21 23  1  0  0  0  0
 22 19  2  0  0  0  0
 23 20  2  0  0  0  0
 24 22  1  0  0  0  0
 25 26  1  0  0  0  0
 26 28  2  0  0  0  0
 26 27  1  0  0  0  0
M  END
>  <MODEL>
1

>  <REMARK>
 VINA RESULT:      -8.0      0.000      0.000
  Name = 
  7 active torsions:
  status: ('A' for Active; 'I' for Inactive)
    1  A    between atoms: C_2  and  C_25
    2  A    between atoms: C_7  and  C_16
    3  A    between atoms: C_8  and  C_10
    4  A    between atoms: C_10  and  C_22
    5  A    between atoms: N_13  and  C_20
    6  A    between atoms: N_13  and  C_22
    7  A    between atoms: C_25  and  C_28
                            x       y       z     vdW  Elec       q    Type
                         _______ _______ _______ _____ _____    ______ ____

>  <TORSDO>
F 7

$$$$
=
 OpenBabel11062416483D

 28 30  0  0  0  0  0  0  0  0999 V2000
  180.8100  179.5560  140.5900 C   0  0  0  0  0  0  0  0  0  0  0  0
  184.7140  178.4820  142.6560 C   0  0  0  0  0  0  0  0  0  0  0  0
  182.5760  178.6180  141.5220 N   0  0  0  0  0  0  0  0  0  0  0  0
  183.0620  178.7780  144.4860 N   0  0  0  0  0  0  0  0  0  0  0  0
  180.6130  179.6300  141.9260 N   0  0  0  0  0  0  0  0  0  0  0  0
  181.9020  178.8700  143.9000 C   0  0  0  0  0  3  0  0  0  0  0  0
  183.7410  177.7840  141.7590 C   0  0  0  0  0  2  0  0  0  0  0  0
  184.3730  178.8650  143.8950 C   0  0  0  0  0  3  0  0  0  0  0  0
  181.7140  179.0530  142.4560 C   0  0  0  0  0  0  0  0  0  0  0  0
  182.0140  178.9170  140.3400 C   0  0  0  0  0  0  0  0  0  0  0  0
  178.9520  179.1830  138.9270 N   0  0  0  0  0  1  0  0  0  0  0  0
  179.8410  180.0650  139.6050 C   0  0  0  0  0  0  0  0  0  0  0  0
  179.7920  181.2980  139.3590 O   0  0  0  0  0  0  0  0  0  0  0  0
  186.3150  179.6940  141.3990 O   0  0  0  0  0  0  0  0  0  0  0  0
  186.1040  178.7350  142.1910 C   0  0  0  0  0  0  0  0  0  0  0  0
  188.2910  177.7370  141.7610 C   0  0  0  0  0  2  0  0  0  0  0  0
  187.2590  177.8950  142.5860 C   0  0  0  0  0  0  0  0  0  0  0  0
  187.1390  177.0890  143.7710 N   0  0  0  0  0  2  0  0  0  0  0  0
  187.4390  177.9350  147.4190 C   0  0  0  0  0  3  0  0  0  0  0  0
  188.8150  177.7820  147.6040 C   0  0  0  0  0  3  0  0  0  0  0  0
  189.0610  177.1890  145.2690 C   0  0  0  0  0  3  0  0  0  0  0  0
  186.8750  177.7170  146.1590 C   0  0  0  0  0  3  0  0  0  0  0  0
  189.6260  177.4080  146.5290 C   0  0  0  0  0  3  0  0  0  0  0  0
  187.6850  177.3500  145.0710 C   0  0  0  0  0  0  0  0  0  0  0  0
  182.6220  178.6060  139.0070 C   0  0  0  0  0  2  0  0  0  0  0  0
  183.9470  179.2730  138.8740 C   0  0  0  0  0  0  0  0  0  0  0  0
  185.0740  178.5290  138.5520 O   0  0  0  0  0  0  0  0  0  0  0  0
  184.0420  180.5170  139.0350 O   0  0  0  0  0  1  0  0  0  0  0  0
  1  5  1  0  0  0  0
  2  8  2  0  0  0  0
  3  7  1  0  0  0  0
  3  9  1  0  0  0  0
  5  9  2  0  0  0  0
  6  4  2  0  0  0  0
  7  2  1  0  0  0  0
  8  4  1  0  0  0  0
  9  6  1  0  0  0  0
 10  1  2  0  0  0  0
 10  3  1  0  0  0  0
 11 12  1  0  0  0  0
 12  1  1  0  0  0  0
 13 12  2  0  0  0  0
 14 15  2  0  0  0  0
 15 17  1  0  0  0  0
 15  2  1  0  0  0  0
 16 17  2  0  0  0  0
 17 18  1  0  0  0  0
 18 24  1  0  0  0  0
 19 20  1  0  0  0  0
 21 23  1  0  0  0  0
 22 19  2  0  0  0  0
 23 20  2  0  0  0  0
 24 21  2  0  0  0  0
 24 22  1  0  0  0  0
 25 10  1  0  0  0  0
 26 25  1  0  0  0  0
 26 28  1  0  0  0  0
 27 26  2  0  0  0  0
M  END
>  <MODEL>
2

>  <REMARK>
 VINA RESULT:      -7.3      2.685      5.078
  Name = 
  7 active torsions:
  status: ('A' for Active; 'I' for Inactive)
    1  A    between atoms: C_2  and  C_25
    2  A    between atoms: C_7  and  C_16
    3  A    between atoms: C_8  and  C_10
    4  A    between atoms: C_10  and  C_22
    5  A    between atoms: N_13  and  C_20
    6  A    between atoms: N_13  and  C_22
    7  A    between atoms: C_25  and  C_28
                            x       y       z     vdW  Elec       q    Type
                         _______ _______ _______ _____ _____    ______ ____

>  <TORSDO>
F 7

$$$$
=
 OpenBabel11062416483D

 28 30  0  0  0  0  0  0  0  0999 V2000
  184.7130  178.7390  144.7910 C   0  0  0  0  0  0  0  0  0  0  0  0
  189.1300  177.6750  144.9280 C   0  0  0  0  0  0  0  0  0  0  0  0
  186.7110  177.8060  144.8370 N   0  0  0  0  0  0  0  0  0  0  0  0
  188.4310  177.8910  147.3020 N   0  0  0  0  0  0  0  0  0  0  0  0
  185.1130  178.7730  146.0820 N   0  0  0  0  0  0  0  0  0  0  0  0
  187.1320  177.9800  147.2790 C   0  0  0  0  0  3  0  0  0  0  0  0
  187.8660  176.9860  144.5190 C   0  0  0  0  0  2  0  0  0  0  0  0
  189.3570  178.0170  146.2060 C   0  0  0  0  0  3  0  0  0  0  0  0
  186.3360  178.2000  146.0650 C   0  0  0  0  0  0  0  0  0  0  0  0
  185.6910  178.1280  144.0240 C   0  0  0  0  0  0  0  0  0  0  0  0
  182.2510  178.4340  144.3410 N   0  0  0  0  0  1  0  0  0  0  0  0
  183.4110  179.2590  144.3400 C   0  0  0  0  0  0  0  0  0  0  0  0
  183.3170  180.4520  143.9490 O   0  0  0  0  0  0  0  0  0  0  0  0
  190.5930  179.1500  143.7920 O   0  0  0  0  0  0  0  0  0  0  0  0
  190.1800  177.9640  143.9170 C   0  0  0  0  0  0  0  0  0  0  0  0
  191.1370  175.7560  143.5050 C   0  0  0  0  0  2  0  0  0  0  0  0
  190.7500  176.9330  143.0190 C   0  0  0  0  0  0  0  0  0  0  0  0
  191.0780  177.3120  141.6710 N   0  0  0  0  0  2  0  0  0  0  0  0
  189.7150  176.4110  138.2870 C   0  0  0  0  0  3  0  0  0  0  0  0
  188.5080  177.1130  138.3040 C   0  0  0  0  0  3  0  0  0  0  0  0
  189.0180  177.9370  140.5220 C   0  0  0  0  0  3  0  0  0  0  0  0
  190.5750  176.4740  139.3880 C   0  0  0  0  0  3  0  0  0  0  0  0
  188.1590  177.8750  139.4220 C   0  0  0  0  0  3  0  0  0  0  0  0
  190.2360  177.2460  140.5110 C   0  0  0  0  0  0  0  0  0  0  0  0
  185.6630  177.8650  142.5510 C   0  0  0  0  0  2  0  0  0  0  0  0
  185.6230  179.1490  141.7960 C   0  0  0  0  0  0  0  0  0  0  0  0
  184.6870  179.3370  140.7880 O   0  0  0  0  0  0  0  0  0  0  0  0
  186.4280  180.0720  142.0840 O   0  0  0  0  0  1  0  0  0  0  0  0
  1  5  1  0  0  0  0
  2  8  2  0  0  0  0
  3  9  1  0  0  0  0
  6  4  2  0  0  0  0
  7  3  1  0  0  0  0
  7  2  1  0  0  0  0
  8  4  1  0  0  0  0
  9  5  2  0  0  0  0
  9  6  1  0  0  0  0
 10  1  2  0  0  0  0
 10  3  1  0  0  0  0
 12 11  1  0  0  0  0
 12  1  1  0  0  0  0
 13 12  2  0  0  0  0
 14 15  2  0  0  0  0
 15  2  1  0  0  0  0
 17 16  2  0  0  0  0
 17 15  1  0  0  0  0
 18 17  1  0  0  0  0
 19 20  2  0  0  0  0
 19 22  1  0  0  0  0
 20 23  1  0  0  0  0
 22 24  2  0  0  0  0
 23 21  2  0  0  0  0
 24 21  1  0  0  0  0
 24 18  1  0  0  0  0
 25 10  1  0  0  0  0
 26 28  1  0  0  0  0
 26 25  1  0  0  0  0
 27 26  2  0  0  0  0
M  END
>  <MODEL>
3

>  <REMARK>
 VINA RESULT:      -7.3      2.301      5.660
  Name = 
  7 active torsions:
  status: ('A' for Active; 'I' for Inactive)
    1  A    between atoms: C_2  and  C_25
    2  A    between atoms: C_7  and  C_16
    3  A    between atoms: C_8  and  C_10
    4  A    between atoms: C_10  and  C_22
    5  A    between atoms: N_13  and  C_20
    6  A    between atoms: N_13  and  C_22
    7  A    between atoms: C_25  and  C_28
                            x       y       z     vdW  Elec       q    Type
                         _______ _______ _______ _____ _____    ______ ____

>  <TORSDO>
F 7

$$$$
=
 OpenBabel11062416483D

 28 30  0  0  0  0  0  0  0  0999 V2000
  191.0110  176.5660  147.1740 C   0  0  0  0  0  0  0  0  0  0  0  0
  187.5590  177.7500  144.4640 C   0  0  0  0  0  0  0  0  0  0  0  0
  189.4810  177.5520  145.9280 N   0  0  0  0  0  0  0  0  0  0  0  0
  186.5870  177.6150  146.7450 N   0  0  0  0  0  0  0  0  0  0  0  0
  189.8830  176.5970  147.9190 N   0  0  0  0  0  0  0  0  0  0  0  0
  187.6030  177.4910  147.5530 C   0  0  0  0  0  3  0  0  0  0  0  0
  188.8270  178.3880  144.9380 C   0  0  0  0  0  2  0  0  0  0  0  0
  186.5590  177.4670  145.3130 C   0  0  0  0  0  3  0  0  0  0  0  0
  188.9750  177.2000  147.1220 C   0  0  0  0  0  0  0  0  0  0  0  0
  190.7680  177.1700  145.9510 C   0  0  0  0  0  0  0  0  0  0  0  0
  192.9130  176.5010  148.8270 N   0  0  0  0  0  1  0  0  0  0  0  0
  192.2790  175.9940  147.6580 C   0  0  0  0  0  0  0  0  0  0  0  0
  192.8110  175.0400  147.0330 O   0  0  0  0  0  0  0  0  0  0  0  0
  187.8220  176.3580  142.5660 O   0  0  0  0  0  0  0  0  0  0  0  0
  187.3730  177.4460  143.0200 C   0  0  0  0  0  0  0  0  0  0  0  0
  187.1730  178.5120  140.8330 C   0  0  0  0  0  2  0  0  0  0  0  0
  186.7120  178.3730  142.0730 C   0  0  0  0  0  0  0  0  0  0  0  0
  185.7130  179.2720  142.5870 N   0  0  0  0  0  2  0  0  0  0  0  0
  182.1760  178.5230  141.5660 C   0  0  0  0  0  3  0  0  0  0  0  0
  181.5250  178.6450  142.7960 C   0  0  0  0  0  3  0  0  0  0  0  0
  183.6330  179.1850  143.8580 C   0  0  0  0  0  3  0  0  0  0  0  0
  183.5550  178.7350  141.4820 C   0  0  0  0  0  3  0  0  0  0  0  0
  182.2540  178.9750  143.9420 C   0  0  0  0  0  3  0  0  0  0  0  0
  184.2930  179.0770  142.6270 C   0  0  0  0  0  0  0  0  0  0  0  0
  191.7340  177.3700  144.8250 C   0  0  0  0  0  2  0  0  0  0  0  0
  191.4740  176.3860  143.7370 C   0  0  0  0  0  0  0  0  0  0  0  0
  191.6770  175.0310  143.9600 O   0  0  0  0  0  1  0  0  0  0  0  0
  191.0530  176.7810  142.6200 O   0  0  0  0  0  0  0  0  0  0  0  0
  1 12  1  0  0  0  0
  1  5  1  0  0  0  0
  2  7  1  0  0  0  0
  2  8  2  0  0  0  0
  3 10  1  0  0  0  0
  3  9  1  0  0  0  0
  4  6  2  0  0  0  0
  7  3  1  0  0  0  0
  8  4  1  0  0  0  0
  9  6  1  0  0  0  0
  9  5  2  0  0  0  0
 10  1  2  0  0  0  0
 12 11  1  0  0  0  0
 13 12  2  0  0  0  0
 14 15  2  0  0  0  0
 15  2  1  0  0  0  0
 16 17  2  0  0  0  0
 17 18  1  0  0  0  0
 17 15  1  0  0  0  0
 18 24  1  0  0  0  0
 19 20  1  0  0  0  0
 20 23  2  0  0  0  0
 21 23  1  0  0  0  0
 22 19  2  0  0  0  0
 22 24  1  0  0  0  0
 24 21  2  0  0  0  0
 25 10  1  0  0  0  0
 26 27  1  0  0  0  0
 26 25  1  0  0  0  0
 28 26  2  0  0  0  0
M  END
>  <MODEL>
4

>  <REMARK>
 VINA RESULT:      -7.3      2.693      7.589
  Name = 
  7 active torsions:
  status: ('A' for Active; 'I' for Inactive)
    1  A    between atoms: C_2  and  C_25
    2  A    between atoms: C_7  and  C_16
    3  A    between atoms: C_8  and  C_10
    4  A    between atoms: C_10  and  C_22
    5  A    between atoms: N_13  and  C_20
    6  A    between atoms: N_13  and  C_22
    7  A    between atoms: C_25  and  C_28
                            x       y       z     vdW  Elec       q    Type
                         _______ _______ _______ _____ _____    ______ ____

>  <TORSDO>
F 7

$$$$
=
 OpenBabel11062416483D

 28 30  0  0  0  0  0  0  0  0999 V2000
  188.4710  177.6040  146.3910 C   0  0  0  0  0  0  0  0  0  0  0  0
  186.8910  178.3380  142.1920 C   0  0  0  0  0  0  0  0  0  0  0  0
  187.6290  177.5250  144.3540 N   0  0  0  0  0  0  0  0  0  0  0  0
  189.3370  178.0020  141.9250 N   0  0  0  0  0  0  0  0  0  0  0  0
  189.5260  177.6480  145.5460 N   0  0  0  0  0  0  0  0  0  0  0  0
  189.7620  177.5790  143.0820 C   0  0  0  0  0  3  0  0  0  0  0  0
  186.7580  177.2610  143.2220 C   0  0  0  0  0  2  0  0  0  0  0  0
  188.0670  178.5990  141.6010 C   0  0  0  0  0  3  0  0  0  0  0  0
  188.9690  177.6040  144.3170 C   0  0  0  0  0  0  0  0  0  0  0  0
  187.3000  177.5110  145.6560 C   0  0  0  0  0  0  0  0  0  0  0  0
  189.4320  178.5890  148.5030 N   0  0  0  0  0  1  0  0  0  0  0  0
  188.6130  177.6210  147.8560 C   0  0  0  0  0  0  0  0  0  0  0  0
  187.9990  176.7710  148.5520 O   0  0  0  0  0  0  0  0  0  0  0  0
  185.3830  180.1460  142.4490 O   0  0  0  0  0  0  0  0  0  0  0  0
  185.6980  179.1240  141.7800 C   0  0  0  0  0  0  0  0  0  0  0  0
  183.7750  177.9660  140.8190 C   0  0  0  0  0  2  0  0  0  0  0  0
  184.8340  178.7510  140.6360 C   0  0  0  0  0  0  0  0  0  0  0  0
  185.2890  179.0680  139.3090 N   0  0  0  0  0  2  0  0  0  0  0  0
  185.3700  176.6820  136.4070 C   0  0  0  0  0  3  0  0  0  0  0  0
  186.7440  176.4500  136.3070 C   0  0  0  0  0  3  0  0  0  0  0  0
  187.1310  177.9310  138.1840 C   0  0  0  0  0  3  0  0  0  0  0  0
  184.8770  177.5370  137.3970 C   0  0  0  0  0  3  0  0  0  0  0  0
  187.6240  177.0750  137.1940 C   0  0  0  0  0  3  0  0  0  0  0  0
  185.7550  178.1610  138.2990 C   0  0  0  0  0  0  0  0  0  0  0  0
  185.9000  177.4220  146.1780 C   0  0  0  0  0  2  0  0  0  0  0  0
  185.3110  178.7840  146.3150 C   0  0  0  0  0  0  0  0  0  0  0  0
  184.2950  179.1940  145.4620 O   0  0  0  0  0  0  0  0  0  0  0  0
  185.7220  179.5570  147.2190 O   0  0  0  0  0  1  0  0  0  0  0  0
  1 12  1  0  0  0  0
  2  7  1  0  0  0  0
  3 10  1  0  0  0  0
  4  6  2  0  0  0  0
  5  1  1  0  0  0  0
  6  9  1  0  0  0  0
  7  3  1  0  0  0  0
  8  4  1  0  0  0  0
  8  2  2  0  0  0  0
  9  3  1  0  0  0  0
  9  5  2  0  0  0  0
 10 25  1  0  0  0  0
 10  1  2  0  0  0  0
 12 11  1  0  0  0  0
 12 13  2  0  0  0  0
 15  2  1  0  0  0  0
 15 14  2  0  0  0  0
 17 16  2  0  0  0  0
 17 15  1  0  0  0  0
 18 17  1  0  0  0  0
 19 22  1  0  0  0  0
 20 19  2  0  0  0  0
 20 23  1  0  0  0  0
 21 24  1  0  0  0  0
 22 24  2  0  0  0  0
 23 21  2  0  0  0  0
 24 18  1  0  0  0  0
 25 26  1  0  0  0  0
 26 28  1  0  0  0  0
 27 26  2  0  0  0  0
M  END
>  <MODEL>
5

>  <REMARK>
 VINA RESULT:      -7.2      2.374      7.358
  Name = 
  7 active torsions:
  status: ('A' for Active; 'I' for Inactive)
    1  A    between atoms: C_2  and  C_25
    2  A    between atoms: C_7  and  C_16
    3  A    between atoms: C_8  and  C_10
    4  A    between atoms: C_10  and  C_22
    5  A    between atoms: N_13  and  C_20
    6  A    between atoms: N_13  and  C_22
    7  A    between atoms: C_25  and  C_28
                            x       y       z     vdW  Elec       q    Type
                         _______ _______ _______ _____ _____    ______ ____

>  <TORSDO>
F 7

$$$$
=
 OpenBabel11062416483D

 28 30  0  0  0  0  0  0  0  0999 V2000
  189.8020  176.2440  138.4330 C   0  0  0  0  0  0  0  0  0  0  0  0
  187.9440  178.2080  142.0880 C   0  0  0  0  0  0  0  0  0  0  0  0
  189.0090  177.5740  140.0040 N   0  0  0  0  0  0  0  0  0  0  0  0
  190.3060  177.7590  142.7110 N   0  0  0  0  0  0  0  0  0  0  0  0
  190.7230  176.2460  139.4230 N   0  0  0  0  0  0  0  0  0  0  0  0
  190.8980  177.3990  141.6080 C   0  0  0  0  0  3  0  0  0  0  0  0
  188.2920  178.6310  140.6950 C   0  0  0  0  0  2  0  0  0  0  0  0
  188.8940  177.8730  142.9740 C   0  0  0  0  0  3  0  0  0  0  0  0
  190.1990  177.0640  140.3620 C   0  0  0  0  0  0  0  0  0  0  0  0
  188.7510  177.0760  138.7840 C   0  0  0  0  0  0  0  0  0  0  0  0
  189.8510  174.0610  137.1730 N   0  0  0  0  0  1  0  0  0  0  0  0
  189.9650  175.4800  137.1850 C   0  0  0  0  0  0  0  0  0  0  0  0
  190.2050  176.0870  136.1090 O   0  0  0  0  0  0  0  0  0  0  0  0
  185.6170  178.2480  141.6500 O   0  0  0  0  0  0  0  0  0  0  0  0
  186.5240  178.1850  142.5260 C   0  0  0  0  0  0  0  0  0  0  0  0
  185.2820  179.0360  144.4480 C   0  0  0  0  0  2  0  0  0  0  0  0
  186.1120  178.1250  143.9470 C   0  0  0  0  0  0  0  0  0  0  0  0
  186.7950  177.2030  144.8140 N   0  0  0  0  0  2  0  0  0  0  0  0
  187.5140  178.3150  148.3300 C   0  0  0  0  0  3  0  0  0  0  0  0
  188.8630  177.9710  148.4350 C   0  0  0  0  0  3  0  0  0  0  0  0
  188.8290  177.1420  146.1610 C   0  0  0  0  0  3  0  0  0  0  0  0
  186.8220  178.0740  147.1390 C   0  0  0  0  0  3  0  0  0  0  0  0
  189.5200  177.3840  147.3510 C   0  0  0  0  0  3  0  0  0  0  0  0
  187.4780  177.4930  146.0420 C   0  0  0  0  0  0  0  0  0  0  0  0
  187.5240  177.3840  137.9830 C   0  0  0  0  0  2  0  0  0  0  0  0
  187.8140  178.4440  136.9770 C   0  0  0  0  0  0  0  0  0  0  0  0
  188.7330  179.4440  137.2640 O   0  0  0  0  0  1  0  0  0  0  0  0
  187.2380  178.4230  135.8590 O   0  0  0  0  0  0  0  0  0  0  0  0
  1 10  2  0  0  0  0
  1  5  1  0  0  0  0
  2 15  1  0  0  0  0
  2  8  2  0  0  0  0
  3  9  1  0  0  0  0
  3  7  1  0  0  0  0
  4  8  1  0  0  0  0
  5  9  2  0  0  0  0
  6  4  2  0  0  0  0
  7  2  1  0  0  0  0
  9  6  1  0  0  0  0
 10  3  1  0  0  0  0
 11 12  1  0  0  0  0
 12  1  1  0  0  0  0
 13 12  2  0  0  0  0
 14 15  2  0  0  0  0
 15 17  1  0  0  0  0
 17 16  2  0  0  0  0
 17 18  1  0  0  0  0
 18 24  1  0  0  0  0
 19 20  1  0  0  0  0
 21 23  1  0  0  0  0
 22 19  2  0  0  0  0
 23 20  2  0  0  0  0
 24 21  2  0  0  0  0
 24 22  1  0  0  0  0
 25 10  1  0  0  0  0
 26 27  1  0  0  0  0
 26 25  1  0  0  0  0
 28 26  2  0  0  0  0
M  END
>  <MODEL>
6

>  <REMARK>
 VINA RESULT:      -7.2      2.501      4.648
  Name = 
  7 active torsions:
  status: ('A' for Active; 'I' for Inactive)
    1  A    between atoms: C_2  and  C_25
    2  A    between atoms: C_7  and  C_16
    3  A    between atoms: C_8  and  C_10
    4  A    between atoms: C_10  and  C_22
    5  A    between atoms: N_13  and  C_20
    6  A    between atoms: N_13  and  C_22
    7  A    between atoms: C_25  and  C_28
                            x       y       z     vdW  Elec       q    Type
                         _______ _______ _______ _____ _____    ______ ____

>  <TORSDO>
F 7

$$$$
=
 OpenBabel11062416483D

 28 30  0  0  0  0  0  0  0  0999 V2000
  190.9860  177.8430  142.3180 C   0  0  0  0  0  0  0  0  0  0  0  0
  188.9610  177.5480  138.2590 C   0  0  0  0  0  0  0  0  0  0  0  0
  189.8740  177.3020  140.4920 N   0  0  0  0  0  0  0  0  0  0  0  0
  191.2850  176.7530  137.8940 N   0  0  0  0  0  0  0  0  0  0  0  0
  191.9150  177.4620  141.4120 N   0  0  0  0  0  0  0  0  0  0  0  0
  191.8050  176.6280  139.0820 C   0  0  0  0  0  3  0  0  0  0  0  0
  188.8320  176.8600  139.5820 C   0  0  0  0  0  2  0  0  0  0  0  0
  190.0700  177.4260  137.5140 C   0  0  0  0  0  3  0  0  0  0  0  0
  191.1960  177.1470  140.3130 C   0  0  0  0  0  0  0  0  0  0  0  0
  189.7250  177.7290  141.7560 C   0  0  0  0  0  0  0  0  0  0  0  0
  191.6800  177.3200  144.6850 N   0  0  0  0  0  1  0  0  0  0  0  0
  191.3260  178.2700  143.6860 C   0  0  0  0  0  0  0  0  0  0  0  0
  191.3070  179.4940  143.9790 O   0  0  0  0  0  0  0  0  0  0  0  0
  188.0940  179.3990  137.0640 O   0  0  0  0  0  0  0  0  0  0  0  0
  187.8340  178.3590  137.7290 C   0  0  0  0  0  0  0  0  0  0  0  0
  185.8650  176.9510  137.4060 C   0  0  0  0  0  2  0  0  0  0  0  0
  186.4100  178.0270  137.9680 C   0  0  0  0  0  0  0  0  0  0  0  0
  185.5870  179.0030  138.6310 N   0  0  0  0  0  2  0  0  0  0  0  0
  182.7460  178.2730  140.9790 C   0  0  0  0  0  3  0  0  0  0  0  0
  183.3800  178.4550  142.2100 C   0  0  0  0  0  3  0  0  0  0  0  0
  185.4430  179.0030  141.0660 C   0  0  0  0  0  3  0  0  0  0  0  0
  183.4600  178.4570  139.7910 C   0  0  0  0  0  3  0  0  0  0  0  0
  184.7290  178.8190  142.2530 C   0  0  0  0  0  3  0  0  0  0  0  0
  184.8130  178.8330  139.8270 C   0  0  0  0  0  0  0  0  0  0  0  0
  188.4080  178.0290  142.4030 C   0  0  0  0  0  2  0  0  0  0  0  0
  188.1290  177.0490  143.4900 C   0  0  0  0  0  0  0  0  0  0  0  0
  187.9720  177.4850  144.7980 O   0  0  0  0  0  1  0  0  0  0  0  0
  188.0180  175.8250  143.2180 O   0  0  0  0  0  0  0  0  0  0  0  0
  1 12  1  0  0  0  0
  2  7  1  0  0  0  0
  3 10  1  0  0  0  0
  4  6  2  0  0  0  0
  5  1  1  0  0  0  0
  6  9  1  0  0  0  0
  7  3  1  0  0  0  0
  8  4  1  0  0  0  0
  8  2  2  0  0  0  0
  9  3  1  0  0  0  0
  9  5  2  0  0  0  0
 10  1  2  0  0  0  0
 10 25  1  0  0  0  0
 12 13  2  0  0  0  0
 12 11  1  0  0  0  0
 14 15  2  0  0  0  0
 15 17  1  0  0  0  0
 15  2  1  0  0  0  0
 16 17  2  0  0  0  0
 17 18  1  0  0  0  0
 18 24  1  0  0  0  0
 19 20  1  0  0  0  0
 20 23  2  0  0  0  0
 21 23  1  0  0  0  0
 22 24  1  0  0  0  0
 22 19  2  0  0  0  0
 24 21  2  0  0  0  0
 25 26  1  0  0  0  0
 26 27  1  0  0  0  0
 28 26  2  0  0  0  0
M  END
>  <MODEL>
7

>  <REMARK>
 VINA RESULT:      -7.1      2.517      6.201
  Name = 
  7 active torsions:
  status: ('A' for Active; 'I' for Inactive)
    1  A    between atoms: C_2  and  C_25
    2  A    between atoms: C_7  and  C_16
    3  A    between atoms: C_8  and  C_10
    4  A    between atoms: C_10  and  C_22
    5  A    between atoms: N_13  and  C_20
    6  A    between atoms: N_13  and  C_22
    7  A    between atoms: C_25  and  C_28
                            x       y       z     vdW  Elec       q    Type
                         _______ _______ _______ _____ _____    ______ ____

>  <TORSDO>
F 7

$$$$
=
 OpenBabel11062416483D

 28 30  0  0  0  0  0  0  0  0999 V2000
  191.1030  177.0500  142.6290 C   0  0  0  0  0  0  0  0  0  0  0  0
  189.0860  177.7690  146.6380 C   0  0  0  0  0  0  0  0  0  0  0  0
  190.3590  177.7730  144.5750 N   0  0  0  0  0  0  0  0  0  0  0  0
  191.0970  176.4050  147.1490 N   0  0  0  0  0  0  0  0  0  0  0  0
  191.7820  176.3570  143.5710 N   0  0  0  0  0  0  0  0  0  0  0  0
  191.7920  176.3780  146.0480 C   0  0  0  0  0  3  0  0  0  0  0  0
  189.7940  178.6070  145.6210 C   0  0  0  0  0  2  0  0  0  0  0  0
  189.7310  176.8220  147.3360 C   0  0  0  0  0  3  0  0  0  0  0  0
  191.2950  176.8240  144.7410 C   0  0  0  0  0  0  0  0  0  0  0  0
  190.2360  177.9350  143.2480 C   0  0  0  0  0  0  0  0  0  0  0  0
  192.4090  177.5040  140.5210 N   0  0  0  0  0  1  0  0  0  0  0  0
  191.3220  176.8680  141.1840 C   0  0  0  0  0  0  0  0  0  0  0  0
  190.5400  176.1360  140.5220 O   0  0  0  0  0  0  0  0  0  0  0  0
  187.2990  178.3520  148.0790 O   0  0  0  0  0  0  0  0  0  0  0  0
  187.6430  177.9990  146.9170 C   0  0  0  0  0  0  0  0  0  0  0  0
  186.5230  176.6830  145.1930 C   0  0  0  0  0  2  0  0  0  0  0  0
  186.5780  177.8050  145.9070 C   0  0  0  0  0  0  0  0  0  0  0  0
  185.7530  178.9320  145.5640 N   0  0  0  0  0  2  0  0  0  0  0  0
  183.8540  178.9900  142.3230 C   0  0  0  0  0  3  0  0  0  0  0  0
  182.5400  179.0080  142.7980 C   0  0  0  0  0  3  0  0  0  0  0  0
  183.3640  178.9860  145.0750 C   0  0  0  0  0  3  0  0  0  0  0  0
  184.9220  178.9730  143.2240 C   0  0  0  0  0  3  0  0  0  0  0  0
  182.2960  179.0050  144.1730 C   0  0  0  0  0  3  0  0  0  0  0  0
  184.6840  178.9800  144.6090 C   0  0  0  0  0  0  0  0  0  0  0  0
  189.3040  178.9070  142.5930 C   0  0  0  0  0  2  0  0  0  0  0  0
  188.2160  178.1810  141.8800 C   0  0  0  0  0  0  0  0  0  0  0  0
  187.7500  178.6490  140.6590 O   0  0  0  0  0  0  0  0  0  0  0  0
  187.7310  177.1320  142.3760 O   0  0  0  0  0  1  0  0  0  0  0  0
  1 10  2  0  0  0  0
  1  5  1  0  0  0  0
  2 15  1  0  0  0  0
  2  8  2  0  0  0  0
  3  9  1  0  0  0  0
  3  7  1  0  0  0  0
  4  8  1  0  0  0  0
  5  9  2  0  0  0  0
  6  4  2  0  0  0  0
  7  2  1  0  0  0  0
  9  6  1  0  0  0  0
 10  3  1  0  0  0  0
 11 12  1  0  0  0  0
 12  1  1  0  0  0  0
 13 12  2  0  0  0  0
 15 14  2  0  0  0  0
 16 17  2  0  0  0  0
 17 15  1  0  0  0  0
 18 17  1  0  0  0  0
 19 20  2  0  0  0  0
 19 22  1  0  0  0  0
 20 23  1  0  0  0  0
 22 24  2  0  0  0  0
 23 21  2  0  0  0  0
 24 21  1  0  0  0  0
 24 18  1  0  0  0  0
 25 10  1  0  0  0  0
 26 28  1  0  0  0  0
 26 25  1  0  0  0  0
 27 26  2  0  0  0  0
M  END
>  <MODEL>
8

>  <REMARK>
 VINA RESULT:      -7.1      2.753      6.009
  Name = 
  7 active torsions:
  status: ('A' for Active; 'I' for Inactive)
    1  A    between atoms: C_2  and  C_25
    2  A    between atoms: C_7  and  C_16
    3  A    between atoms: C_8  and  C_10
    4  A    between atoms: C_10  and  C_22
    5  A    between atoms: N_13  and  C_20
    6  A    between atoms: N_13  and  C_22
    7  A    between atoms: C_25  and  C_28
                            x       y       z     vdW  Elec       q    Type
                         _______ _______ _______ _____ _____    ______ ____

>  <TORSDO>
F 7

$$$$
=
 OpenBabel11062416483D

 28 30  0  0  0  0  0  0  0  0999 V2000
  188.8270  177.7690  146.2030 C   0  0  0  0  0  0  0  0  0  0  0  0
  186.8450  178.3360  142.1520 C   0  0  0  0  0  0  0  0  0  0  0  0
  187.8050  177.6070  144.2550 N   0  0  0  0  0  0  0  0  0  0  0  0
  189.2660  178.0750  141.6680 N   0  0  0  0  0  0  0  0  0  0  0  0
  189.7980  177.8260  145.2640 N   0  0  0  0  0  0  0  0  0  0  0  0
  189.8100  177.6980  142.7910 C   0  0  0  0  0  3  0  0  0  0  0  0
  186.8450  177.2830  143.2150 C   0  0  0  0  0  2  0  0  0  0  0  0
  187.9510  178.6190  141.4480 C   0  0  0  0  0  3  0  0  0  0  0  0
  189.1330  177.7300  144.0920 C   0  0  0  0  0  0  0  0  0  0  0  0
  187.5980  177.6180  145.5810 C   0  0  0  0  0  0  0  0  0  0  0  0
  188.0990  178.2510  148.5680 N   0  0  0  0  0  1  0  0  0  0  0  0
  189.1010  177.8310  147.6480 C   0  0  0  0  0  0  0  0  0  0  0  0
  190.2370  177.5050  148.0820 O   0  0  0  0  0  0  0  0  0  0  0  0
  185.3270  180.1260  142.4690 O   0  0  0  0  0  0  0  0  0  0  0  0
  185.5910  179.0690  141.8320 C   0  0  0  0  0  0  0  0  0  0  0  0
  184.7240  178.9890  139.5510 C   0  0  0  0  0  2  0  0  0  0  0  0
  184.6140  178.6060  140.8210 C   0  0  0  0  0  0  0  0  0  0  0  0
  183.4330  177.9240  141.2790 N   0  0  0  0  0  2  0  0  0  0  0  0
  179.8610  179.0310  140.9170 C   0  0  0  0  0  3  0  0  0  0  0  0
  179.6250  179.5510  142.1920 C   0  0  0  0  0  3  0  0  0  0  0  0
  181.8940  179.0020  142.8340 C   0  0  0  0  0  3  0  0  0  0  0  0
  181.1140  178.4980  140.6010 C   0  0  0  0  0  3  0  0  0  0  0  0
  180.6420  179.5350  143.1500 C   0  0  0  0  0  3  0  0  0  0  0  0
  182.1440  178.4880  141.5560 C   0  0  0  0  0  0  0  0  0  0  0  0
  186.2550  177.4960  146.2320 C   0  0  0  0  0  2  0  0  0  0  0  0
  185.5100  178.7820  146.1280 C   0  0  0  0  0  0  0  0  0  0  0  0
  184.4660  178.9120  145.2240 O   0  0  0  0  0  0  0  0  0  0  0  0
  185.8170  179.7470  146.8750 O   0  0  0  0  0  1  0  0  0  0  0  0
  1 12  1  0  0  0  0
  2  7  1  0  0  0  0
  3 10  1  0  0  0  0
  4  6  2  0  0  0  0
  5  1  1  0  0  0  0
  6  9  1  0  0  0  0
  7  3  1  0  0  0  0
  8  4  1  0  0  0  0
  8  2  2  0  0  0  0
  9  3  1  0  0  0  0
  9  5  2  0  0  0  0
 10  1  2  0  0  0  0
 10 25  1  0  0  0  0
 12 13  2  0  0  0  0
 12 11  1  0  0  0  0
 15  2  1  0  0  0  0
 15 14  2  0  0  0  0
 16 17  2  0  0  0  0
 17 18  1  0  0  0  0
 17 15  1  0  0  0  0
 18 24  1  0  0  0  0
 19 20  1  0  0  0  0
 20 23  2  0  0  0  0
 21 23  1  0  0  0  0
 22 19  2  0  0  0  0
 22 24  1  0  0  0  0
 24 21  2  0  0  0  0
 26 25  1  0  0  0  0
 26 28  1  0  0  0  0
 27 26  2  0  0  0  0
M  END
>  <MODEL>
9

>  <REMARK>
 VINA RESULT:      -7.1      2.793      6.996
  Name = 
  7 active torsions:
  status: ('A' for Active; 'I' for Inactive)
    1  A    between atoms: C_2  and  C_25
    2  A    between atoms: C_7  and  C_16
    3  A    between atoms: C_8  and  C_10
    4  A    between atoms: C_10  and  C_22
    5  A    between atoms: N_13  and  C_20
    6  A    between atoms: N_13  and  C_22
    7  A    between atoms: C_25  and  C_28
                            x       y       z     vdW  Elec       q    Type
                         _______ _______ _______ _____ _____    ______ ____

>  <TORSDO>
F 7

$$$$
