=
 OpenBabel11062415223D

 48 54  0  0  1  0  0  0  0  0999 V2000
  184.1770  180.2700  138.7410 O   0  0  0  0  0  1  0  0  0  0  0  0
  186.0350  178.7040  138.8620 C   0  0  2  0  0  3  0  0  0  0  0  0
  184.7320  179.2080  139.4650 C   0  0  2  0  0  0  0  0  0  0  0  0
  184.7850  177.8170  138.8410 C   0  0  1  0  0  3  0  0  0  0  0  0
  183.6880  175.7850  135.3360 C   0  0  0  0  0  2  0  0  0  0  0  0
  182.5080  176.4620  136.0540 C   0  0  0  0  0  2  0  0  0  0  0  0
  185.1720  177.3080  136.4050 C   0  0  0  0  0  2  0  0  0  0  0  0
  184.1550  177.8000  137.4490 C   0  0  1  0  0  3  0  0  0  0  0  0
  184.9480  175.9010  136.0760 N   0  0  0  0  0  2  0  0  0  0  0  0
  182.8840  176.9310  137.4610 C   0  0  1  0  0  3  0  0  0  0  0  0
  180.3450  179.2000  138.5230 N   0  0  0  0  0  0  0  0  0  0  0  0
  179.1960  178.0840  140.1830 O   0  0  0  0  0  0  0  0  0  0  0  0
  181.7310  177.6460  138.0920 C   0  0  0  0  0  0  0  0  0  0  0  0
  180.1120  178.1360  139.3160 C   0  0  0  0  0  0  0  0  0  0  0  0
  180.9660  177.1230  139.0810 N   0  0  0  0  0  0  0  0  0  0  0  0
  181.3760  178.9030  137.7540 N   0  0  0  0  0  2  0  0  0  0  0  0
  180.0100  181.2900  139.8070 C   0  0  0  0  0  1  0  0  0  0  0  0
  179.6990  180.5150  138.5340 C   0  0  1  0  0  3  0  0  0  0  0  0
  180.6330  182.8180  135.0200 C   0  0  0  0  0  3  0  0  0  0  0  0
  180.0320  181.2940  137.2980 C   0  0  0  0  0  0  0  0  0  0  0  0
  179.6720  180.8320  136.0200 C   0  0  0  0  0  3  0  0  0  0  0  0
  180.9880  183.2850  136.2890 C   0  0  0  0  0  3  0  0  0  0  0  0
  180.6860  182.5250  137.4250 C   0  0  0  0  0  3  0  0  0  0  0  0
  179.9740  181.5920  134.8850 C   0  0  0  0  0  3  0  0  0  0  0  0
  188.0060  179.1330  140.1140 O   0  0  0  0  0  0  0  0  0  0  0  0
  188.3500  178.0010  139.3480 C   0  0  2  0  0  3  0  0  0  0  0  0
  186.9960  178.1790  139.9150 C   0  0  2  0  0  3  0  0  0  0  0  0
  189.1230  177.0050  140.2030 C   0  0  0  0  0  2  0  0  0  0  0  0
  191.0260  177.0360  143.1680 N   0  0  0  0  0  2  0  0  0  0  0  0
  189.9950  177.7000  141.1420 N   0  0  0  0  0  0  0  0  0  0  0  0
  191.3570  177.3160  140.8220 C   0  0  0  0  0  2  0  0  0  0  0  0
  192.0480  177.0420  142.1360 C   0  0  0  0  0  2  0  0  0  0  0  0
  189.7550  177.1290  142.4590 C   0  0  2  0  0  3  0  0  0  0  0  0
  188.7790  178.0010  143.2350 C   0  0  0  0  0  2  0  0  0  0  0  0
  187.5560  177.2260  143.5980 C   0  0  0  0  0  3  0  0  0  0  0  0
  187.1900  176.9220  144.8480 C   0  0  0  0  0  3  0  0  0  0  0  0
  187.8630  177.3120  146.1060 C   0  0  0  0  0  0  0  0  0  0  0  0
  187.1320  178.0570  147.0390 C   0  0  0  0  0  3  0  0  0  0  0  0
  189.2050  177.0050  146.3790 C   0  0  0  0  0  3  0  0  0  0  0  0
  189.0610  178.1620  148.4990 C   0  0  0  0  0  3  0  0  0  0  0  0
  189.8010  177.4240  147.5710 C   0  0  0  0  0  3  0  0  0  0  0  0
  187.7260  178.4780  148.2320 C   0  0  0  0  0  3  0  0  0  0  0  0
  184.7230  179.3110  140.8660 O   0  0  0  0  0  0  0  0  0  0  0  0
  183.4960  178.7940  141.2940 C   0  0  0  0  0  2  0  0  0  0  0  0
  183.5540  178.5070  142.7820 C   0  0  2  0  0  3  0  0  0  0  0  0
  182.3260  178.8110  143.3710 O   0  0  0  0  0  1  0  0  0  0  0  0
  184.6450  179.3470  143.4160 C   0  0  0  0  0  2  0  0  0  0  0  0
  184.4590  179.3850  144.9230 C   0  0  0  0  0  1  0  0  0  0  0  0
  2  3  1  0  0  0  0
  2 27  1  1  0  0  0
  3  1  1  6  0  0  0
  3 43  1  0  0  0  0
  4  8  1  6  0  0  0
  4  2  1  0  0  0  0
  4  3  1  0  0  0  0
  5  6  1  0  0  0  0
  5  9  1  0  0  0  0
  6 10  1  0  0  0  0
  8  7  1  6  0  0  0
  8 10  1  0  0  0  0
  9  7  1  0  0  0  0
 10 13  1  6  0  0  0
 11 18  1  0  0  0  0
 11 14  1  0  0  0  0
 13 15  2  0  0  0  0
 14 12  2  0  0  0  0
 15 14  1  0  0  0  0
 16 13  1  0  0  0  0
 16 11  1  0  0  0  0
 18 17  1  1  0  0  0
 19 22  1  0  0  0  0
 20 23  1  0  0  0  0
 20 18  1  0  0  0  0
 21 20  2  0  0  0  0
 22 23  2  0  0  0  0
 24 19  2  0  0  0  0
 24 21  1  0  0  0  0
 26 27  1  0  0  0  0
 26 25  1  0  0  0  0
 26 28  1  1  0  0  0
 27 25  1  1  0  0  0
 28 30  1  0  0  0  0
 30 33  1  0  0  0  0
 31 30  1  0  0  0  0
 31 32  1  0  0  0  0
 32 29  1  0  0  0  0
 33 29  1  0  0  0  0
 33 34  1  1  0  0  0
 34 35  1  0  0  0  0
 35 36  2  0  0  0  0
 36 37  1  0  0  0  0
 37 39  2  0  0  0  0
 37 38  1  0  0  0  0
 38 42  2  0  0  0  0
 39 41  1  0  0  0  0
 41 40  2  0  0  0  0
 42 40  1  0  0  0  0
 43 44  1  0  0  0  0
 44 45  1  0  0  0  0
 45 46  1  1  0  0  0
 45 47  1  0  0  0  0
 47 48  1  0  0  0  0
M  END
>  <MODEL>
1

>  <REMARK>
 VINA RESULT:      -8.1      0.000      0.000
  Name = 
  14 active torsions:
  status: ('A' for Active; 'I' for Inactive)
    1  A    between atoms: C_1  and  C_4
    2  A    between atoms: C_2  and  C_48
    3  A    between atoms: O_3  and  C_11
    4  A    between atoms: O_3  and  C_30
    5  A    between atoms: C_4  and  C_11
    6  A    between atoms: C_5  and  C_25
    7  A    between atoms: N_7  and  C_32
    8  A    between atoms: N_9  and  C_46
    9  A    between atoms: C_20  and  C_46
   10  A    between atoms: C_22  and  C_42
   11  A    between atoms: C_24  and  C_48
   12  A    between atoms: C_26  and  C_41
   13  A    between atoms: C_29  and  C_44
   14  A    between atoms: C_32  and  C_34
                            x       y       z     vdW  Elec       q    Type
                         _______ _______ _______ _____ _____    ______ ____

>  <TORSDO>
F 14

$$$$
=
 OpenBabel11062415223D

 48 54  0  0  1  0  0  0  0  0999 V2000
  188.5890  176.7300  141.3150 O   0  0  0  0  0  1  0  0  0  0  0  0
  188.4790  177.0430  138.9040 C   0  0  2  0  0  3  0  0  0  0  0  0
  188.5660  177.6780  140.2840 C   0  0  2  0  0  0  0  0  0  0  0  0
  189.7520  177.7820  139.3300 C   0  0  1  0  0  3  0  0  0  0  0  0
  193.7110  176.4250  139.0130 C   0  0  0  0  0  2  0  0  0  0  0  0
  193.2800  176.7470  140.4550 C   0  0  0  0  0  2  0  0  0  0  0  0
  191.4230  176.1270  138.4290 C   0  0  0  0  0  2  0  0  0  0  0  0
  190.8580  176.7940  139.6960 C   0  0  1  0  0  3  0  0  0  0  0  0
  192.6810  176.7540  138.0240 N   0  0  0  0  0  2  0  0  0  0  0  0
  191.9560  177.5110  140.5020 C   0  0  1  0  0  3  0  0  0  0  0  0
  190.9800  177.3060  143.9270 N   0  0  0  0  0  0  0  0  0  0  0  0
  190.5960  179.4850  144.5750 O   0  0  0  0  0  0  0  0  0  0  0  0
  191.5410  177.7370  141.9220 C   0  0  0  0  0  0  0  0  0  0  0  0
  190.9280  178.6330  143.7060 C   0  0  0  0  0  0  0  0  0  0  0  0
  191.2750  178.9580  142.4460 N   0  0  0  0  0  0  0  0  0  0  0  0
  191.3550  176.7300  142.7990 N   0  0  0  0  0  2  0  0  0  0  0  0
  191.6810  176.5930  146.1920 C   0  0  0  0  0  1  0  0  0  0  0  0
  190.5940  176.5560  145.1260 C   0  0  1  0  0  3  0  0  0  0  0  0
  186.7730  177.9140  146.5660 C   0  0  0  0  0  3  0  0  0  0  0  0
  189.2670  177.0150  145.6500 C   0  0  0  0  0  0  0  0  0  0  0  0
  189.1120  177.4390  146.9810 C   0  0  0  0  0  3  0  0  0  0  0  0
  186.9240  177.4990  145.2400 C   0  0  0  0  0  3  0  0  0  0  0  0
  188.1690  177.0520  144.7820 C   0  0  0  0  0  3  0  0  0  0  0  0
  187.8670  177.8860  147.4360 C   0  0  0  0  0  3  0  0  0  0  0  0
  186.3390  177.7130  138.1250 O   0  0  0  0  0  0  0  0  0  0  0  0
  186.9030  177.0700  137.0050 C   0  0  2  0  0  3  0  0  0  0  0  0
  187.7130  177.9070  137.9160 C   0  0  2  0  0  3  0  0  0  0  0  0
  186.5990  177.8600  135.7390 C   0  0  0  0  0  2  0  0  0  0  0  0
  184.4080  175.1760  135.1000 N   0  0  0  0  0  2  0  0  0  0  0  0
  185.8160  177.0570  134.8070 N   0  0  0  0  0  0  0  0  0  0  0  0
  184.4520  177.5490  134.8630 C   0  0  0  0  0  2  0  0  0  0  0  0
  183.5560  176.3350  134.8960 C   0  0  0  0  0  2  0  0  0  0  0  0
  185.7400  175.7100  135.3550 C   0  0  2  0  0  3  0  0  0  0  0  0
  186.7960  174.8260  134.7100 C   0  0  0  0  0  2  0  0  0  0  0  0
  187.6690  174.2050  135.7510 C   0  0  0  0  0  3  0  0  0  0  0  0
  187.3240  173.1570  136.5080 C   0  0  0  0  0  3  0  0  0  0  0  0
  186.0680  172.3780  136.4510 C   0  0  0  0  0  0  0  0  0  0  0  0
  185.9580  171.3810  135.4750 C   0  0  0  0  0  3  0  0  0  0  0  0
  184.9800  172.6240  137.3020 C   0  0  0  0  0  3  0  0  0  0  0  0
  183.7060  170.8800  136.2120 C   0  0  0  0  0  3  0  0  0  0  0  0
  183.8050  171.8770  137.1860 C   0  0  0  0  0  3  0  0  0  0  0  0
  184.7830  170.6330  135.3550 C   0  0  0  0  0  3  0  0  0  0  0  0
  187.7580  178.8120  140.4720 O   0  0  0  0  0  0  0  0  0  0  0  0
  187.1580  178.6680  141.7260 C   0  0  0  0  0  2  0  0  0  0  0  0
  185.6510  178.7620  141.5850 C   0  0  2  0  0  3  0  0  0  0  0  0
  185.3270  179.5810  140.5040 O   0  0  0  0  0  1  0  0  0  0  0  0
  185.0600  179.3380  142.8560 C   0  0  0  0  0  2  0  0  0  0  0  0
  183.7540  178.6360  143.1860 C   0  0  0  0  0  1  0  0  0  0  0  0
  2 27  1  6  0  0  0
  2  4  1  0  0  0  0
  2  3  1  0  0  0  0
  3 43  1  0  0  0  0
  3  1  1  1  0  0  0
  4  8  1  1  0  0  0
  4  3  1  0  0  0  0
  5  6  1  0  0  0  0
  6 10  1  0  0  0  0
  8  7  1  6  0  0  0
  8 10  1  0  0  0  0
  9  7  1  0  0  0  0
  9  5  1  0  0  0  0
 10 13  1  1  0  0  0
 11 18  1  0  0  0  0
 13 15  2  0  0  0  0
 13 16  1  0  0  0  0
 14 11  1  0  0  0  0
 14 12  2  0  0  0  0
 15 14  1  0  0  0  0
 16 11  1  0  0  0  0
 18 20  1  0  0  0  0
 18 17  1  1  0  0  0
 19 24  1  0  0  0  0
 20 21  1  0  0  0  0
 21 24  2  0  0  0  0
 22 19  2  0  0  0  0
 23 22  1  0  0  0  0
 23 20  2  0  0  0  0
 26 28  1  6  0  0  0
 26 27  1  0  0  0  0
 26 25  1  0  0  0  0
 27 25  1  1  0  0  0
 29 33  1  0  0  0  0
 30 31  1  0  0  0  0
 30 33  1  0  0  0  0
 30 28  1  0  0  0  0
 31 32  1  0  0  0  0
 32 29  1  0  0  0  0
 33 34  1  6  0  0  0
 34 35  1  0  0  0  0
 35 36  2  0  0  0  0
 37 36  1  0  0  0  0
 37 39  1  0  0  0  0
 38 37  2  0  0  0  0
 40 41  1  0  0  0  0
 41 39  2  0  0  0  0
 42 38  1  0  0  0  0
 42 40  2  0  0  0  0
 43 44  1  0  0  0  0
 45 46  1  6  0  0  0
 45 44  1  0  0  0  0
 45 47  1  0  0  0  0
 47 48  1  0  0  0  0
M  END
>  <MODEL>
2

>  <REMARK>
 VINA RESULT:      -7.4      3.564      9.924
  Name = 
  14 active torsions:
  status: ('A' for Active; 'I' for Inactive)
    1  A    between atoms: C_1  and  C_4
    2  A    between atoms: C_2  and  C_48
    3  A    between atoms: O_3  and  C_11
    4  A    between atoms: O_3  and  C_30
    5  A    between atoms: C_4  and  C_11
    6  A    between atoms: C_5  and  C_25
    7  A    between atoms: N_7  and  C_32
    8  A    between atoms: N_9  and  C_46
    9  A    between atoms: C_20  and  C_46
   10  A    between atoms: C_22  and  C_42
   11  A    between atoms: C_24  and  C_48
   12  A    between atoms: C_26  and  C_41
   13  A    between atoms: C_29  and  C_44
   14  A    between atoms: C_32  and  C_34
                            x       y       z     vdW  Elec       q    Type
                         _______ _______ _______ _____ _____    ______ ____

>  <TORSDO>
F 14

$$$$
=
 OpenBabel11062415223D

 48 54  0  0  1  0  0  0  0  0999 V2000
  184.1010  177.1750  135.3080 O   0  0  0  0  0  1  0  0  0  0  0  0
  186.1400  177.3340  136.6270 C   0  0  2  0  0  3  0  0  0  0  0  0
  184.6200  177.4080  136.5880 C   0  0  2  0  0  0  0  0  0  0  0  0
  185.3000  176.2700  137.3430 C   0  0  1  0  0  3  0  0  0  0  0  0
  186.3490  172.2330  136.8730 C   0  0  0  0  0  2  0  0  0  0  0  0
  184.8320  172.4870  136.8420 C   0  0  0  0  0  2  0  0  0  0  0  0
  186.7090  174.4990  136.2370 C   0  0  0  0  0  2  0  0  0  0  0  0
  185.2760  174.9690  136.5430 C   0  0  1  0  0  3  0  0  0  0  0  0
  187.1230  173.4440  137.1620 N   0  0  0  0  0  2  0  0  0  0  0  0
  184.4750  173.9000  137.3080 C   0  0  1  0  0  3  0  0  0  0  0  0
  181.0080  174.6080  137.7560 N   0  0  0  0  0  0  0  0  0  0  0  0
  180.0300  174.1360  135.7210 O   0  0  0  0  0  0  0  0  0  0  0  0
  183.0010  174.1240  137.1920 C   0  0  0  0  0  0  0  0  0  0  0  0
  181.0430  174.2070  136.4710 C   0  0  0  0  0  0  0  0  0  0  0  0
  182.2860  173.8870  136.0660 N   0  0  0  0  0  0  0  0  0  0  0  0
  182.2410  174.5470  138.2240 N   0  0  0  0  0  2  0  0  0  0  0  0
  179.7350  174.0450  139.8030 C   0  0  0  0  0  1  0  0  0  0  0  0
  179.8470  174.9500  138.5830 C   0  0  1  0  0  3  0  0  0  0  0  0
  179.8030  179.1080  139.6920 C   0  0  0  0  0  3  0  0  0  0  0  0
  179.8500  176.4030  138.9490 C   0  0  0  0  0  0  0  0  0  0  0  0
  179.7840  177.4070  137.9680 C   0  0  0  0  0  3  0  0  0  0  0  0
  179.8630  178.1130  140.6730 C   0  0  0  0  0  3  0  0  0  0  0  0
  179.8830  176.7630  140.3010 C   0  0  0  0  0  3  0  0  0  0  0  0
  179.7630  178.7550  138.3400 C   0  0  0  0  0  3  0  0  0  0  0  0
  187.3840  179.3230  136.9930 O   0  0  0  0  0  0  0  0  0  0  0  0
  188.2110  178.3200  137.5380 C   0  0  2  0  0  3  0  0  0  0  0  0
  186.7380  178.2710  137.6620 C   0  0  2  0  0  3  0  0  0  0  0  0
  188.8090  178.7910  138.8560 C   0  0  0  0  0  2  0  0  0  0  0  0
  190.6520  175.9180  139.7290 N   0  0  0  0  0  2  0  0  0  0  0  0
  190.0850  178.1320  139.1080 N   0  0  0  0  0  0  0  0  0  0  0  0
  190.4470  177.4280  137.8930 C   0  0  0  0  0  2  0  0  0  0  0  0
  190.9510  176.0690  138.3150 C   0  0  0  0  0  2  0  0  0  0  0  0
  189.8420  177.0770  140.0820 C   0  0  2  0  0  3  0  0  0  0  0  0
  190.1980  177.5660  141.4780 C   0  0  0  0  0  2  0  0  0  0  0  0
  190.7450  176.4480  142.3030 C   0  0  0  0  0  3  0  0  0  0  0  0
  190.3140  176.1230  143.5270 C   0  0  0  0  0  3  0  0  0  0  0  0
  189.2100  176.7450  144.2890 C   0  0  0  0  0  0  0  0  0  0  0  0
  189.4870  177.2250  145.5750 C   0  0  0  0  0  3  0  0  0  0  0  0
  187.8990  176.8360  143.7950 C   0  0  0  0  0  3  0  0  0  0  0  0
  187.1750  177.8880  145.8490 C   0  0  0  0  0  3  0  0  0  0  0  0
  186.8860  177.4070  144.5690 C   0  0  0  0  0  3  0  0  0  0  0  0
  188.4750  177.7960  146.3520 C   0  0  0  0  0  3  0  0  0  0  0  0
  184.0530  178.4570  137.3300 O   0  0  0  0  0  0  0  0  0  0  0  0
  183.7740  177.9410  138.5980 C   0  0  0  0  0  2  0  0  0  0  0  0
  183.4030  179.0700  139.5390 C   0  0  2  0  0  3  0  0  0  0  0  0
  184.2730  180.1450  139.3550 O   0  0  0  0  0  1  0  0  0  0  0  0
  183.4930  178.5830  140.9720 C   0  0  0  0  0  2  0  0  0  0  0  0
  184.9260  178.6830  141.4660 C   0  0  0  0  0  1  0  0  0  0  0  0
  2  4  1  0  0  0  0
  2 27  1  1  0  0  0
  3  1  1  6  0  0  0
  3  2  1  0  0  0  0
  3 43  1  0  0  0  0
  3  4  1  0  0  0  0
  4  8  1  6  0  0  0
  5  9  1  0  0  0  0
  6  5  1  0  0  0  0
  6 10  1  0  0  0  0
  7  9  1  0  0  0  0
  8  7  1  1  0  0  0
  8 10  1  0  0  0  0
 10 13  1  6  0  0  0
 11 16  1  0  0  0  0
 11 18  1  0  0  0  0
 12 14  2  0  0  0  0
 13 16  1  0  0  0  0
 14 11  1  0  0  0  0
 15 14  1  0  0  0  0
 15 13  2  0  0  0  0
 18 20  1  0  0  0  0
 18 17  1  1  0  0  0
 19 22  1  0  0  0  0
 20 23  1  0  0  0  0
 21 24  1  0  0  0  0
 21 20  2  0  0  0  0
 23 22  2  0  0  0  0
 24 19  2  0  0  0  0
 25 26  1  0  0  0  0
 26 27  1  0  0  0  0
 26 28  1  1  0  0  0
 27 25  1  6  0  0  0
 28 30  1  0  0  0  0
 29 33  1  0  0  0  0
 30 33  1  0  0  0  0
 31 32  1  0  0  0  0
 31 30  1  0  0  0  0
 32 29  1  0  0  0  0
 33 34  1  1  0  0  0
 34 35  1  0  0  0  0
 35 36  2  0  0  0  0
 36 37  1  0  0  0  0
 37 38  1  0  0  0  0
 38 42  2  0  0  0  0
 39 37  2  0  0  0  0
 39 41  1  0  0  0  0
 40 42  1  0  0  0  0
 41 40  2  0  0  0  0
 43 44  1  0  0  0  0
 44 45  1  0  0  0  0
 45 46  1  1  0  0  0
 45 47  1  0  0  0  0
 47 48  1  0  0  0  0
M  END
>  <MODEL>
3

>  <REMARK>
 VINA RESULT:      -7.3      2.633      4.020
  Name = 
  14 active torsions:
  status: ('A' for Active; 'I' for Inactive)
    1  A    between atoms: C_1  and  C_4
    2  A    between atoms: C_2  and  C_48
    3  A    between atoms: O_3  and  C_11
    4  A    between atoms: O_3  and  C_30
    5  A    between atoms: C_4  and  C_11
    6  A    between atoms: C_5  and  C_25
    7  A    between atoms: N_7  and  C_32
    8  A    between atoms: N_9  and  C_46
    9  A    between atoms: C_20  and  C_46
   10  A    between atoms: C_22  and  C_42
   11  A    between atoms: C_24  and  C_48
   12  A    between atoms: C_26  and  C_41
   13  A    between atoms: C_29  and  C_44
   14  A    between atoms: C_32  and  C_34
                            x       y       z     vdW  Elec       q    Type
                         _______ _______ _______ _____ _____    ______ ____

>  <TORSDO>
F 14

$$$$
=
 OpenBabel11062415223D

 48 54  0  0  1  0  0  0  0  0999 V2000
  187.1070  179.5600  141.2150 O   0  0  0  0  0  1  0  0  0  0  0  0
  184.6860  179.3750  141.0480 C   0  0  2  0  0  3  0  0  0  0  0  0
  186.0430  178.7010  140.9100 C   0  0  2  0  0  0  0  0  0  0  0  0
  185.0910  178.2590  142.0170 C   0  0  1  0  0  3  0  0  0  0  0  0
  184.5330  178.6280  146.1600 C   0  0  0  0  0  2  0  0  0  0  0  0
  185.9270  178.1110  145.7670 C   0  0  0  0  0  2  0  0  0  0  0  0
  184.3210  179.6060  144.0010 C   0  0  0  0  0  2  0  0  0  0  0  0
  185.4960  178.8360  143.3720 C   0  0  1  0  0  3  0  0  0  0  0  0
  183.6410  178.7930  145.0090 N   0  0  0  0  0  2  0  0  0  0  0  0
  185.9970  177.7080  144.2930 C   0  0  1  0  0  3  0  0  0  0  0  0
  189.5110  177.1920  143.9660 N   0  0  0  0  0  0  0  0  0  0  0  0
  189.7380  175.6610  142.2560 O   0  0  0  0  0  0  0  0  0  0  0  0
  187.3870  177.2820  143.9390 C   0  0  0  0  0  0  0  0  0  0  0  0
  189.0240  176.3740  143.0140 C   0  0  0  0  0  0  0  0  0  0  0  0
  187.6790  176.3960  142.9560 N   0  0  0  0  0  0  0  0  0  0  0  0
  188.4820  177.7800  144.5480 N   0  0  0  0  0  2  0  0  0  0  0  0
  191.1770  179.0090  144.1890 C   0  0  0  0  0  1  0  0  0  0  0  0
  190.9060  177.5130  144.2780 C   0  0  1  0  0  3  0  0  0  0  0  0
  192.0980  175.9330  148.1000 C   0  0  0  0  0  3  0  0  0  0  0  0
  191.3140  176.9380  145.6010 C   0  0  0  0  0  0  0  0  0  0  0  0
  192.0550  175.7470  145.6850 C   0  0  0  0  0  3  0  0  0  0  0  0
  191.3650  177.1210  148.0210 C   0  0  0  0  0  3  0  0  0  0  0  0
  190.9770  177.6240  146.7730 C   0  0  0  0  0  3  0  0  0  0  0  0
  192.4440  175.2470  146.9320 C   0  0  0  0  0  3  0  0  0  0  0  0
  183.4010  179.8160  139.1010 O   0  0  0  0  0  0  0  0  0  0  0  0
  182.4230  179.6290  140.0980 C   0  0  2  0  0  3  0  0  0  0  0  0
  183.6660  178.8290  140.0640 C   0  0  2  0  0  3  0  0  0  0  0  0
  181.2730  178.7910  139.5540 C   0  0  0  0  0  2  0  0  0  0  0  0
  179.5790  177.7680  142.4700 N   0  0  0  0  0  2  0  0  0  0  0  0
  180.1180  178.8640  140.4410 N   0  0  0  0  0  0  0  0  0  0  0  0
  180.4660  179.7690  141.5200 C   0  0  0  0  0  2  0  0  0  0  0  0
  179.9800  179.1260  142.7960 C   0  0  0  0  0  2  0  0  0  0  0  0
  179.9830  177.5650  141.0840 C   0  0  2  0  0  3  0  0  0  0  0  0
  178.9470  176.7260  140.3490 C   0  0  0  0  0  2  0  0  0  0  0  0
  179.1710  175.2730  140.6060 C   0  0  0  0  0  3  0  0  0  0  0  0
  180.0410  174.5060  139.9400 C   0  0  0  0  0  3  0  0  0  0  0  0
  180.9760  174.9220  138.8730 C   0  0  0  0  0  0  0  0  0  0  0  0
  180.5680  174.7620  137.5430 C   0  0  0  0  0  3  0  0  0  0  0  0
  182.2580  175.4270  139.1380 C   0  0  0  0  0  3  0  0  0  0  0  0
  182.6950  175.6200  136.7660 C   0  0  0  0  0  3  0  0  0  0  0  0
  183.1130  175.7780  138.0900 C   0  0  0  0  0  3  0  0  0  0  0  0
  181.4220  175.1110  136.4930 C   0  0  0  0  0  3  0  0  0  0  0  0
  186.1890  177.8740  139.7830 O   0  0  0  0  0  0  0  0  0  0  0  0
  187.4290  178.1860  139.2200 C   0  0  0  0  0  2  0  0  0  0  0  0
  187.3780  177.9680  137.7200 C   0  0  2  0  0  3  0  0  0  0  0  0
  186.1080  178.2860  137.2380 O   0  0  0  0  0  1  0  0  0  0  0  0
  187.6910  176.5170  137.4100 C   0  0  0  0  0  2  0  0  0  0  0  0
  187.4420  176.2360  135.9380 C   0  0  0  0  0  1  0  0  0  0  0  0
  2 27  1  6  0  0  0
  2  4  1  0  0  0  0
  3  2  1  0  0  0  0
  3  1  1  1  0  0  0
  3  4  1  0  0  0  0
  4  8  1  1  0  0  0
  6  5  1  0  0  0  0
  7  9  1  0  0  0  0
  8  7  1  1  0  0  0
  8 10  1  0  0  0  0
  9  5  1  0  0  0  0
 10 13  1  6  0  0  0
 10  6  1  0  0  0  0
 11 18  1  0  0  0  0
 11 16  1  0  0  0  0
 12 14  2  0  0  0  0
 13 16  1  0  0  0  0
 14 11  1  0  0  0  0
 15 14  1  0  0  0  0
 15 13  2  0  0  0  0
 18 17  1  1  0  0  0
 18 20  1  0  0  0  0
 20 21  2  0  0  0  0
 20 23  1  0  0  0  0
 21 24  1  0  0  0  0
 22 19  1  0  0  0  0
 23 22  2  0  0  0  0
 24 19  2  0  0  0  0
 25 26  1  0  0  0  0
 26 28  1  6  0  0  0
 27 25  1  6  0  0  0
 27 26  1  0  0  0  0
 28 30  1  0  0  0  0
 29 32  1  0  0  0  0
 30 33  1  0  0  0  0
 30 31  1  0  0  0  0
 31 32  1  0  0  0  0
 33 34  1  6  0  0  0
 33 29  1  0  0  0  0
 34 35  1  0  0  0  0
 36 35  2  0  0  0  0
 37 39  1  0  0  0  0
 37 36  1  0  0  0  0
 38 37  2  0  0  0  0
 40 41  1  0  0  0  0
 41 39  2  0  0  0  0
 42 40  2  0  0  0  0
 42 38  1  0  0  0  0
 43  3  1  0  0  0  0
 44 43  1  0  0  0  0
 45 46  1  1  0  0  0
 45 44  1  0  0  0  0
 47 45  1  0  0  0  0
 48 47  1  0  0  0  0
M  END
>  <MODEL>
4

>  <REMARK>
 VINA RESULT:      -7.3      2.845     10.432
  Name = 
  14 active torsions:
  status: ('A' for Active; 'I' for Inactive)
    1  A    between atoms: C_1  and  C_4
    2  A    between atoms: C_2  and  C_48
    3  A    between atoms: O_3  and  C_11
    4  A    between atoms: O_3  and  C_30
    5  A    between atoms: C_4  and  C_11
    6  A    between atoms: C_5  and  C_25
    7  A    between atoms: N_7  and  C_32
    8  A    between atoms: N_9  and  C_46
    9  A    between atoms: C_20  and  C_46
   10  A    between atoms: C_22  and  C_42
   11  A    between atoms: C_24  and  C_48
   12  A    between atoms: C_26  and  C_41
   13  A    between atoms: C_29  and  C_44
   14  A    between atoms: C_32  and  C_34
                            x       y       z     vdW  Elec       q    Type
                         _______ _______ _______ _____ _____    ______ ____

>  <TORSDO>
F 14

$$$$
=
 OpenBabel11062415223D

 48 54  0  0  1  0  0  0  0  0999 V2000
  185.1010  177.5770  136.1190 O   0  0  0  0  0  1  0  0  0  0  0  0
  187.0540  177.6460  137.5690 C   0  0  2  0  0  3  0  0  0  0  0  0
  185.5930  177.2580  137.3910 C   0  0  2  0  0  0  0  0  0  0  0  0
  186.6510  176.1680  137.5370 C   0  0  1  0  0  3  0  0  0  0  0  0
  189.2210  173.9190  135.0970 C   0  0  0  0  0  2  0  0  0  0  0  0
  187.7980  173.3420  135.1960 C   0  0  0  0  0  2  0  0  0  0  0  0
  188.3610  176.0570  135.6920 C   0  0  0  0  0  2  0  0  0  0  0  0
  187.0010  175.5380  136.1910 C   0  0  1  0  0  3  0  0  0  0  0  0
  189.4230  175.0870  135.9600 N   0  0  0  0  0  2  0  0  0  0  0  0
  186.9850  174.0040  136.3100 C   0  0  1  0  0  3  0  0  0  0  0  0
  183.4800  173.3900  136.0640 N   0  0  0  0  0  0  0  0  0  0  0  0
  183.1760  171.2740  136.9310 O   0  0  0  0  0  0  0  0  0  0  0  0
  185.5890  173.4640  136.3200 C   0  0  0  0  0  0  0  0  0  0  0  0
  183.9210  172.2440  136.6180 C   0  0  0  0  0  0  0  0  0  0  0  0
  185.2540  172.2430  136.8010 N   0  0  0  0  0  0  0  0  0  0  0  0
  184.5270  174.1720  135.8840 N   0  0  0  0  0  2  0  0  0  0  0  0
  181.3660  172.8080  134.9150 C   0  0  0  0  0  1  0  0  0  0  0  0
  182.1020  173.8110  135.7920 C   0  0  1  0  0  3  0  0  0  0  0  0
  180.0490  174.6650  139.4770 C   0  0  0  0  0  3  0  0  0  0  0  0
  181.3640  174.1060  137.0630 C   0  0  0  0  0  0  0  0  0  0  0  0
  180.2420  173.3520  137.4500 C   0  0  0  0  0  3  0  0  0  0  0  0
  181.1680  175.4130  139.0990 C   0  0  0  0  0  3  0  0  0  0  0  0
  181.8250  175.1320  137.8950 C   0  0  0  0  0  3  0  0  0  0  0  0
  179.5870  173.6340  138.6540 C   0  0  0  0  0  3  0  0  0  0  0  0
  188.5110  178.8680  138.9910 O   0  0  0  0  0  0  0  0  0  0  0  0
  188.7100  177.5340  139.3960 C   0  0  2  0  0  3  0  0  0  0  0  0
  187.3780  178.0390  139.0010 C   0  0  2  0  0  3  0  0  0  0  0  0
  188.7840  177.4510  140.9150 C   0  0  0  0  0  2  0  0  0  0  0  0
  191.7790  177.0820  142.7330 N   0  0  0  0  0  2  0  0  0  0  0  0
  190.0480  177.9930  141.3990 N   0  0  0  0  0  0  0  0  0  0  0  0
  191.0840  177.5300  140.4960 C   0  0  0  0  0  2  0  0  0  0  0  0
  192.2440  177.0920  141.3570 C   0  0  0  0  0  2  0  0  0  0  0  0
  190.3450  177.3340  142.6630 C   0  0  2  0  0  3  0  0  0  0  0  0
  189.9050  178.2140  143.8240 C   0  0  0  0  0  2  0  0  0  0  0  0
  189.8810  177.4320  145.0960 C   0  0  0  0  0  3  0  0  0  0  0  0
  188.8050  177.2760  145.8740 C   0  0  0  0  0  3  0  0  0  0  0  0
  187.4360  177.7840  145.6340 C   0  0  0  0  0  0  0  0  0  0  0  0
  186.7240  178.2960  146.7260 C   0  0  0  0  0  3  0  0  0  0  0  0
  186.8160  177.7370  144.3760 C   0  0  0  0  0  3  0  0  0  0  0  0
  184.8100  178.7190  145.3050 C   0  0  0  0  0  3  0  0  0  0  0  0
  185.5100  178.2040  144.2110 C   0  0  0  0  0  3  0  0  0  0  0  0
  185.4170  178.7630  146.5630 C   0  0  0  0  0  3  0  0  0  0  0  0
  184.7630  177.5350  138.4900 O   0  0  0  0  0  0  0  0  0  0  0  0
  183.6880  178.2810  137.9960 C   0  0  0  0  0  2  0  0  0  0  0  0
  183.3550  179.3990  138.9650 C   0  0  2  0  0  3  0  0  0  0  0  0
  184.5120  179.8130  139.6260 O   0  0  0  0  0  1  0  0  0  0  0  0
  182.3410  178.9050  139.9770 C   0  0  0  0  0  2  0  0  0  0  0  0
  183.0460  178.4770  141.2530 C   0  0  0  0  0  1  0  0  0  0  0  0
  2 27  1  1  0  0  0
  3  1  1  6  0  0  0
  3  4  1  0  0  0  0
  3  2  1  0  0  0  0
  3 43  1  0  0  0  0
  4  8  1  6  0  0  0
  4  2  1  0  0  0  0
  5  6  1  0  0  0  0
  5  9  1  0  0  0  0
  6 10  1  0  0  0  0
  7  9  1  0  0  0  0
  8  7  1  1  0  0  0
  8 10  1  0  0  0  0
 10 13  1  6  0  0  0
 11 14  1  0  0  0  0
 13 15  2  0  0  0  0
 14 15  1  0  0  0  0
 14 12  2  0  0  0  0
 16 11  1  0  0  0  0
 16 13  1  0  0  0  0
 18 17  1  1  0  0  0
 18 11  1  0  0  0  0
 18 20  1  0  0  0  0
 20 21  2  0  0  0  0
 20 23  1  0  0  0  0
 21 24  1  0  0  0  0
 22 19  1  0  0  0  0
 23 22  2  0  0  0  0
 24 19  2  0  0  0  0
 25 26  1  0  0  0  0
 26 28  1  1  0  0  0
 27 25  1  6  0  0  0
 27 26  1  0  0  0  0
 28 30  1  0  0  0  0
 30 33  1  0  0  0  0
 31 32  1  0  0  0  0
 31 30  1  0  0  0  0
 32 29  1  0  0  0  0
 33 29  1  0  0  0  0
 33 34  1  1  0  0  0
 34 35  1  0  0  0  0
 35 36  2  0  0  0  0
 37 36  1  0  0  0  0
 37 38  1  0  0  0  0
 39 37  2  0  0  0  0
 40 42  1  0  0  0  0
 41 39  1  0  0  0  0
 41 40  2  0  0  0  0
 42 38  2  0  0  0  0
 44 43  1  0  0  0  0
 44 45  1  0  0  0  0
 45 46  1  1  0  0  0
 45 47  1  0  0  0  0
 47 48  1  0  0  0  0
M  END
>  <MODEL>
5

>  <REMARK>
 VINA RESULT:      -7.3      2.951      5.051
  Name = 
  14 active torsions:
  status: ('A' for Active; 'I' for Inactive)
    1  A    between atoms: C_1  and  C_4
    2  A    between atoms: C_2  and  C_48
    3  A    between atoms: O_3  and  C_11
    4  A    between atoms: O_3  and  C_30
    5  A    between atoms: C_4  and  C_11
    6  A    between atoms: C_5  and  C_25
    7  A    between atoms: N_7  and  C_32
    8  A    between atoms: N_9  and  C_46
    9  A    between atoms: C_20  and  C_46
   10  A    between atoms: C_22  and  C_42
   11  A    between atoms: C_24  and  C_48
   12  A    between atoms: C_26  and  C_41
   13  A    between atoms: C_29  and  C_44
   14  A    between atoms: C_32  and  C_34
                            x       y       z     vdW  Elec       q    Type
                         _______ _______ _______ _____ _____    ______ ____

>  <TORSDO>
F 14

$$$$
=
 OpenBabel11062415223D

 48 54  0  0  1  0  0  0  0  0999 V2000
  189.2140  177.2190  135.3670 O   0  0  0  0  0  1  0  0  0  0  0  0
  187.2870  177.2780  136.8510 C   0  0  2  0  0  3  0  0  0  0  0  0
  188.2520  176.4420  136.0240 C   0  0  2  0  0  0  0  0  0  0  0  0
  188.2780  176.3390  137.5460 C   0  0  1  0  0  3  0  0  0  0  0  0
  190.3930  177.8130  140.8590 C   0  0  0  0  0  2  0  0  0  0  0  0
  191.2380  176.9250  139.9290 C   0  0  0  0  0  2  0  0  0  0  0  0
  188.9220  178.2600  139.0420 C   0  0  0  0  0  2  0  0  0  0  0  0
  189.4440  177.1240  138.1440 C   0  0  1  0  0  3  0  0  0  0  0  0
  188.9860  177.8840  140.4540 N   0  0  0  0  0  2  0  0  0  0  0  0
  190.3780  176.1720  138.9130 C   0  0  1  0  0  3  0  0  0  0  0  0
  192.8480  174.9160  136.6680 N   0  0  0  0  0  0  0  0  0  0  0  0
  192.1620  172.7750  136.1530 O   0  0  0  0  0  0  0  0  0  0  0  0
  191.2460  175.3820  137.9860 C   0  0  0  0  0  0  0  0  0  0  0  0
  192.0060  173.8690  136.7630 C   0  0  0  0  0  0  0  0  0  0  0  0
  190.9720  174.1160  137.5880 N   0  0  0  0  0  0  0  0  0  0  0  0
  192.3680  175.8820  137.4290 N   0  0  0  0  0  2  0  0  0  0  0  0
  194.2450  176.5260  135.4080 C   0  0  0  0  0  1  0  0  0  0  0  0
  194.0280  175.0740  135.8130 C   0  0  1  0  0  3  0  0  0  0  0  0
  197.5190  173.2890  137.5890 C   0  0  0  0  0  3  0  0  0  0  0  0
  195.2450  174.4720  136.4490 C   0  0  0  0  0  0  0  0  0  0  0  0
  195.3820  174.4010  137.8460 C   0  0  0  0  0  3  0  0  0  0  0  0
  197.3840  173.3520  136.1990 C   0  0  0  0  0  3  0  0  0  0  0  0
  196.2480  173.9410  135.6300 C   0  0  0  0  0  3  0  0  0  0  0  0
  196.5170  173.8120  138.4120 C   0  0  0  0  0  3  0  0  0  0  0  0
  185.0450  177.4030  136.0780 O   0  0  0  0  0  0  0  0  0  0  0  0
  184.9220  177.6330  137.4620 C   0  0  2  0  0  3  0  0  0  0  0  0
  185.8980  176.6660  136.9150 C   0  0  2  0  0  3  0  0  0  0  0  0
  183.7220  176.8750  138.0150 C   0  0  0  0  0  2  0  0  0  0  0  0
  183.3510  179.8480  139.8680 N   0  0  0  0  0  2  0  0  0  0  0  0
  182.9360  177.7280  138.8980 N   0  0  0  0  0  0  0  0  0  0  0  0
  182.2800  178.7150  138.0630 C   0  0  0  0  0  2  0  0  0  0  0  0
  182.4200  180.0420  138.7690 C   0  0  0  0  0  2  0  0  0  0  0  0
  183.8740  178.4980  139.7030 C   0  0  2  0  0  3  0  0  0  0  0  0
  184.0620  177.8340  141.0600 C   0  0  0  0  0  2  0  0  0  0  0  0
  183.3780  178.6210  142.1290 C   0  0  0  0  0  3  0  0  0  0  0  0
  183.8510  178.7960  143.3670 C   0  0  0  0  0  3  0  0  0  0  0  0
  185.1340  178.3090  143.9200 C   0  0  0  0  0  0  0  0  0  0  0  0
  185.2780  178.2720  145.3120 C   0  0  0  0  0  3  0  0  0  0  0  0
  186.2150  177.9250  143.1110 C   0  0  0  0  0  3  0  0  0  0  0  0
  187.5470  177.4610  145.0770 C   0  0  0  0  0  3  0  0  0  0  0  0
  187.4160  177.5000  143.6860 C   0  0  0  0  0  3  0  0  0  0  0  0
  186.4780  177.8490  145.8890 C   0  0  0  0  0  3  0  0  0  0  0  0
  187.6620  175.3960  135.2940 O   0  0  0  0  0  0  0  0  0  0  0  0
  188.3130  174.2230  135.6860 C   0  0  0  0  0  2  0  0  0  0  0  0
  187.3120  173.0870  135.7660 C   0  0  2  0  0  3  0  0  0  0  0  0
  186.1130  173.4670  135.1610 O   0  0  0  0  0  1  0  0  0  0  0  0
  187.0590  172.7380  137.2200 C   0  0  0  0  0  2  0  0  0  0  0  0
  185.6130  173.0300  137.5800 C   0  0  0  0  0  1  0  0  0  0  0  0
  2 27  1  6  0  0  0
  2  4  1  0  0  0  0
  3  1  1  6  0  0  0
  3  2  1  0  0  0  0
  3  4  1  0  0  0  0
  4  8  1  1  0  0  0
  6  5  1  0  0  0  0
  7  9  1  0  0  0  0
  8 10  1  0  0  0  0
  8  7  1  1  0  0  0
  9  5  1  0  0  0  0
 10 13  1  6  0  0  0
 10  6  1  0  0  0  0
 11 14  1  0  0  0  0
 11 16  1  0  0  0  0
 12 14  2  0  0  0  0
 14 15  1  0  0  0  0
 15 13  2  0  0  0  0
 16 13  1  0  0  0  0
 18 17  1  1  0  0  0
 18 20  1  0  0  0  0
 18 11  1  0  0  0  0
 19 24  1  0  0  0  0
 20 21  1  0  0  0  0
 21 24  2  0  0  0  0
 22 19  2  0  0  0  0
 23 22  1  0  0  0  0
 23 20  2  0  0  0  0
 25 26  1  0  0  0  0
 26 28  1  1  0  0  0
 27 25  1  6  0  0  0
 27 26  1  0  0  0  0
 28 30  1  0  0  0  0
 30 33  1  0  0  0  0
 31 32  1  0  0  0  0
 31 30  1  0  0  0  0
 32 29  1  0  0  0  0
 33 29  1  0  0  0  0
 33 34  1  1  0  0  0
 34 35  1  0  0  0  0
 35 36  2  0  0  0  0
 36 37  1  0  0  0  0
 37 38  1  0  0  0  0
 38 42  2  0  0  0  0
 39 41  1  0  0  0  0
 39 37  2  0  0  0  0
 40 42  1  0  0  0  0
 41 40  2  0  0  0  0
 43 44  1  0  0  0  0
 43  3  1  0  0  0  0
 44 45  1  0  0  0  0
 45 46  1  1  0  0  0
 45 47  1  0  0  0  0
 47 48  1  0  0  0  0
M  END
>  <MODEL>
6

>  <REMARK>
 VINA RESULT:      -7.3      4.297     10.130
  Name = 
  14 active torsions:
  status: ('A' for Active; 'I' for Inactive)
    1  A    between atoms: C_1  and  C_4
    2  A    between atoms: C_2  and  C_48
    3  A    between atoms: O_3  and  C_11
    4  A    between atoms: O_3  and  C_30
    5  A    between atoms: C_4  and  C_11
    6  A    between atoms: C_5  and  C_25
    7  A    between atoms: N_7  and  C_32
    8  A    between atoms: N_9  and  C_46
    9  A    between atoms: C_20  and  C_46
   10  A    between atoms: C_22  and  C_42
   11  A    between atoms: C_24  and  C_48
   12  A    between atoms: C_26  and  C_41
   13  A    between atoms: C_29  and  C_44
   14  A    between atoms: C_32  and  C_34
                            x       y       z     vdW  Elec       q    Type
                         _______ _______ _______ _____ _____    ______ ____

>  <TORSDO>
F 14

$$$$
=
 OpenBabel11062415223D

 48 54  0  0  1  0  0  0  0  0999 V2000
  189.3820  178.2220  136.4700 O   0  0  0  0  0  1  0  0  0  0  0  0
  187.3480  177.6730  137.6880 C   0  0  2  0  0  3  0  0  0  0  0  0
  188.5010  177.1910  136.8210 C   0  0  2  0  0  0  0  0  0  0  0  0
  188.4110  176.7390  138.2750 C   0  0  1  0  0  3  0  0  0  0  0  0
  190.0630  177.5690  142.0440 C   0  0  0  0  0  2  0  0  0  0  0  0
  191.1000  177.1300  140.9960 C   0  0  0  0  0  2  0  0  0  0  0  0
  188.6170  178.2500  140.2800 C   0  0  0  0  0  2  0  0  0  0  0  0
  189.3810  177.5120  139.1670 C   0  0  1  0  0  3  0  0  0  0  0  0
  188.6870  177.5130  141.5410 N   0  0  0  0  0  2  0  0  0  0  0  0
  190.4420  176.5550  139.7400 C   0  0  1  0  0  3  0  0  0  0  0  0
  192.6830  175.0340  137.4190 N   0  0  0  0  0  0  0  0  0  0  0  0
  194.0170  176.7540  136.6550 O   0  0  0  0  0  0  0  0  0  0  0  0
  191.4830  176.2100  138.7230 C   0  0  0  0  0  0  0  0  0  0  0  0
  193.0740  176.3220  137.3750 C   0  0  0  0  0  0  0  0  0  0  0  0
  192.3430  177.1090  138.1860 N   0  0  0  0  0  0  0  0  0  0  0  0
  191.6850  174.9520  138.2790 N   0  0  0  0  0  2  0  0  0  0  0  0
  192.9630  173.8380  135.2700 C   0  0  0  0  0  1  0  0  0  0  0  0
  193.2780  173.8680  136.7600 C   0  0  1  0  0  3  0  0  0  0  0  0
  197.4950  173.6730  137.5970 C   0  0  0  0  0  3  0  0  0  0  0  0
  194.7490  173.7810  137.0330 C   0  0  0  0  0  0  0  0  0  0  0  0
  195.6850  173.7110  135.9870 C   0  0  0  0  0  3  0  0  0  0  0  0
  196.5670  173.7480  138.6400 C   0  0  0  0  0  3  0  0  0  0  0  0
  195.1970  173.8050  138.3580 C   0  0  0  0  0  3  0  0  0  0  0  0
  197.0540  173.6560  136.2710 C   0  0  0  0  0  3  0  0  0  0  0  0
  185.2840  177.5760  136.5180 O   0  0  0  0  0  0  0  0  0  0  0  0
  184.8860  177.6590  137.8670 C   0  0  2  0  0  3  0  0  0  0  0  0
  186.0730  176.8820  137.4490 C   0  0  2  0  0  3  0  0  0  0  0  0
  183.7310  176.7030  138.1320 C   0  0  0  0  0  2  0  0  0  0  0  0
  182.1350  179.6610  139.1900 N   0  0  0  0  0  2  0  0  0  0  0  0
  182.6640  177.3760  138.8640 N   0  0  0  0  0  0  0  0  0  0  0  0
  181.6360  177.7180  137.8990 C   0  0  0  0  0  2  0  0  0  0  0  0
  181.1990  179.1280  138.2140 C   0  0  0  0  0  2  0  0  0  0  0  0
  183.1870  178.6590  139.3090 C   0  0  2  0  0  3  0  0  0  0  0  0
  183.6590  178.5570  140.7520 C   0  0  0  0  0  2  0  0  0  0  0  0
  185.0800  178.9980  140.8730 C   0  0  0  0  0  3  0  0  0  0  0  0
  185.7290  179.1700  142.0300 C   0  0  0  0  0  3  0  0  0  0  0  0
  185.2170  178.9220  143.3960 C   0  0  0  0  0  0  0  0  0  0  0  0
  186.0550  178.2570  144.3000 C   0  0  0  0  0  3  0  0  0  0  0  0
  183.9250  179.2870  143.8040 C   0  0  0  0  0  3  0  0  0  0  0  0
  184.3280  178.3440  145.9950 C   0  0  0  0  0  3  0  0  0  0  0  0
  183.4830  179.0030  145.0980 C   0  0  0  0  0  3  0  0  0  0  0  0
  185.6140  177.9700  145.5940 C   0  0  0  0  0  3  0  0  0  0  0  0
  188.1500  176.2760  135.8140 O   0  0  0  0  0  0  0  0  0  0  0  0
  189.0340  175.2000  135.9310 C   0  0  0  0  0  2  0  0  0  0  0  0
  188.3570  173.9290  135.4560 C   0  0  2  0  0  3  0  0  0  0  0  0
  187.1320  174.2370  134.8640 O   0  0  0  0  0  1  0  0  0  0  0  0
  188.1330  173.0040  136.6360 C   0  0  0  0  0  2  0  0  0  0  0  0
  186.7450  173.2260  137.2130 C   0  0  0  0  0  1  0  0  0  0  0  0
  2 27  1  6  0  0  0
  2  4  1  0  0  0  0
  3  1  1  6  0  0  0
  3  2  1  0  0  0  0
  3  4  1  0  0  0  0
  4  8  1  1  0  0  0
  6  5  1  0  0  0  0
  7  9  1  0  0  0  0
  8 10  1  0  0  0  0
  8  7  1  1  0  0  0
  9  5  1  0  0  0  0
 10 13  1  6  0  0  0
 10  6  1  0  0  0  0
 11 16  1  0  0  0  0
 12 14  2  0  0  0  0
 14 11  1  0  0  0  0
 14 15  1  0  0  0  0
 15 13  2  0  0  0  0
 16 13  1  0  0  0  0
 18 17  1  6  0  0  0
 18 20  1  0  0  0  0
 18 11  1  0  0  0  0
 19 22  1  0  0  0  0
 20 23  1  0  0  0  0
 21 24  1  0  0  0  0
 21 20  2  0  0  0  0
 23 22  2  0  0  0  0
 24 19  2  0  0  0  0
 25 26  1  0  0  0  0
 26 28  1  6  0  0  0
 27 25  1  6  0  0  0
 27 26  1  0  0  0  0
 28 30  1  0  0  0  0
 29 33  1  0  0  0  0
 30 33  1  0  0  0  0
 31 32  1  0  0  0  0
 31 30  1  0  0  0  0
 32 29  1  0  0  0  0
 33 34  1  1  0  0  0
 34 35  1  0  0  0  0
 35 36  2  0  0  0  0
 36 37  1  0  0  0  0
 37 39  2  0  0  0  0
 37 38  1  0  0  0  0
 38 42  2  0  0  0  0
 39 41  1  0  0  0  0
 41 40  2  0  0  0  0
 42 40  1  0  0  0  0
 43 44  1  0  0  0  0
 43  3  1  0  0  0  0
 45 46  1  1  0  0  0
 45 44  1  0  0  0  0
 45 47  1  0  0  0  0
 47 48  1  0  0  0  0
M  END
>  <MODEL>
7

>  <REMARK>
 VINA RESULT:      -7.2      3.987     10.275
  Name = 
  14 active torsions:
  status: ('A' for Active; 'I' for Inactive)
    1  A    between atoms: C_1  and  C_4
    2  A    between atoms: C_2  and  C_48
    3  A    between atoms: O_3  and  C_11
    4  A    between atoms: O_3  and  C_30
    5  A    between atoms: C_4  and  C_11
    6  A    between atoms: C_5  and  C_25
    7  A    between atoms: N_7  and  C_32
    8  A    between atoms: N_9  and  C_46
    9  A    between atoms: C_20  and  C_46
   10  A    between atoms: C_22  and  C_42
   11  A    between atoms: C_24  and  C_48
   12  A    between atoms: C_26  and  C_41
   13  A    between atoms: C_29  and  C_44
   14  A    between atoms: C_32  and  C_34
                            x       y       z     vdW  Elec       q    Type
                         _______ _______ _______ _____ _____    ______ ____

>  <TORSDO>
F 14

$$$$
=
 OpenBabel11062415223D

 48 54  0  0  1  0  0  0  0  0999 V2000
  184.0840  180.0730  139.0400 O   0  0  0  0  0  1  0  0  0  0  0  0
  186.0340  178.8810  139.8750 C   0  0  2  0  0  3  0  0  0  0  0  0
  184.5200  178.9420  139.7420 C   0  0  2  0  0  0  0  0  0  0  0  0
  185.2990  177.8540  139.0080 C   0  0  1  0  0  3  0  0  0  0  0  0
  186.7930  176.9410  135.1930 C   0  0  0  0  0  2  0  0  0  0  0  0
  185.2630  177.0900  135.2400 C   0  0  0  0  0  2  0  0  0  0  0  0
  186.9510  178.2790  137.1550 C   0  0  0  0  0  2  0  0  0  0  0  0
  185.4600  178.1800  137.5240 C   0  0  1  0  0  3  0  0  0  0  0  0
  187.4160  177.0490  136.5160 N   0  0  0  0  0  2  0  0  0  0  0  0
  184.7310  177.1250  136.6740 C   0  0  1  0  0  3  0  0  0  0  0  0
  181.3580  178.1530  136.1400 N   0  0  0  0  0  0  0  0  0  0  0  0
  180.1150  176.9640  137.6760 O   0  0  0  0  0  0  0  0  0  0  0  0
  183.2510  177.3440  136.6700 C   0  0  0  0  0  0  0  0  0  0  0  0
  181.2180  177.2650  137.1420 C   0  0  0  0  0  0  0  0  0  0  0  0
  182.3930  176.7230  137.5150 N   0  0  0  0  0  0  0  0  0  0  0  0
  182.6420  178.2190  135.8440 N   0  0  0  0  0  2  0  0  0  0  0  0
  178.9310  178.5130  135.8040 C   0  0  0  0  0  1  0  0  0  0  0  0
  180.3430  179.0120  135.5230 C   0  0  1  0  0  3  0  0  0  0  0  0
  180.8270  183.1180  136.7180 C   0  0  0  0  0  3  0  0  0  0  0  0
  180.5290  180.4450  135.9190 C   0  0  0  0  0  0  0  0  0  0  0  0
  180.5900  181.4690  134.9590 C   0  0  0  0  0  3  0  0  0  0  0  0
  180.7610  182.1030  137.6770 C   0  0  0  0  0  3  0  0  0  0  0  0
  180.6110  180.7700  137.2780 C   0  0  0  0  0  3  0  0  0  0  0  0
  180.7390  182.8010  135.3590 C   0  0  0  0  0  3  0  0  0  0  0  0
  186.5990  179.1970  142.1600 O   0  0  0  0  0  0  0  0  0  0  0  0
  187.7970  178.7190  141.5950 C   0  0  2  0  0  3  0  0  0  0  0  0
  186.4750  178.2130  141.1660 C   0  0  2  0  0  3  0  0  0  0  0  0
  188.4460  177.7010  142.5230 C   0  0  0  0  0  2  0  0  0  0  0  0
  191.6570  176.8260  143.6790 N   0  0  0  0  0  2  0  0  0  0  0  0
  189.8400  178.0450  142.7720 N   0  0  0  0  0  0  0  0  0  0  0  0
  190.6110  177.5330  141.6550 C   0  0  0  0  0  2  0  0  0  0  0  0
  191.8450  176.8890  142.2390 C   0  0  0  0  0  2  0  0  0  0  0  0
  190.2840  177.2560  143.9120 C   0  0  2  0  0  3  0  0  0  0  0  0
  190.1990  178.0870  145.1840 C   0  0  0  0  0  2  0  0  0  0  0  0
  189.9210  177.2160  146.3640 C   0  0  0  0  0  3  0  0  0  0  0  0
  188.7200  177.0640  146.9330 C   0  0  0  0  0  3  0  0  0  0  0  0
  187.4380  177.6660  146.5060 C   0  0  0  0  0  0  0  0  0  0  0  0
  186.8430  178.6120  147.3510 C   0  0  0  0  0  3  0  0  0  0  0  0
  186.7810  177.3010  145.3220 C   0  0  0  0  0  3  0  0  0  0  0  0
  184.9730  178.8280  145.8270 C   0  0  0  0  0  3  0  0  0  0  0  0
  185.5560  177.8800  144.9810 C   0  0  0  0  0  3  0  0  0  0  0  0
  185.6170  179.1920  147.0130 C   0  0  0  0  0  3  0  0  0  0  0  0
  183.8030  178.5870  140.8960 O   0  0  0  0  0  0  0  0  0  0  0  0
  182.5550  178.1300  140.4630 C   0  0  0  0  0  2  0  0  0  0  0  0
  181.4760  178.6180  141.4100 C   0  0  2  0  0  3  0  0  0  0  0  0
  180.8880  179.7760  140.9010 O   0  0  0  0  0  1  0  0  0  0  0  0
  182.0880  178.9130  142.7650 C   0  0  0  0  0  2  0  0  0  0  0  0
  180.9990  178.9840  143.8220 C   0  0  0  0  0  1  0  0  0  0  0  0
  2 27  1  1  0  0  0
  3  1  1  6  0  0  0
  3  2  1  0  0  0  0
  3 43  1  0  0  0  0
  4  8  1  6  0  0  0
  4  3  1  0  0  0  0
  4  2  1  0  0  0  0
  5  6  1  0  0  0  0
  5  9  1  0  0  0  0
  6 10  1  0  0  0  0
  8  7  1  6  0  0  0
  9  7  1  0  0  0  0
 10 13  1  6  0  0  0
 10  8  1  0  0  0  0
 11 14  1  0  0  0  0
 13 15  2  0  0  0  0
 14 15  1  0  0  0  0
 14 12  2  0  0  0  0
 16 11  1  0  0  0  0
 16 13  1  0  0  0  0
 18 17  1  1  0  0  0
 18 20  1  0  0  0  0
 18 11  1  0  0  0  0
 19 22  1  0  0  0  0
 20 23  1  0  0  0  0
 21 24  1  0  0  0  0
 21 20  2  0  0  0  0
 23 22  2  0  0  0  0
 24 19  2  0  0  0  0
 26 25  1  0  0  0  0
 26 28  1  1  0  0  0
 27 26  1  0  0  0  0
 27 25  1  1  0  0  0
 28 30  1  0  0  0  0
 29 33  1  0  0  0  0
 30 33  1  0  0  0  0
 31 32  1  0  0  0  0
 31 30  1  0  0  0  0
 32 29  1  0  0  0  0
 33 34  1  1  0  0  0
 34 35  1  0  0  0  0
 35 36  2  0  0  0  0
 37 36  1  0  0  0  0
 37 38  1  0  0  0  0
 39 37  2  0  0  0  0
 40 42  1  0  0  0  0
 41 39  1  0  0  0  0
 41 40  2  0  0  0  0
 42 38  2  0  0  0  0
 44 43  1  0  0  0  0
 44 45  1  0  0  0  0
 45 46  1  6  0  0  0
 45 47  1  0  0  0  0
 47 48  1  0  0  0  0
M  END
>  <MODEL>
8

>  <REMARK>
 VINA RESULT:      -7.2      1.550      2.445
  Name = 
  14 active torsions:
  status: ('A' for Active; 'I' for Inactive)
    1  A    between atoms: C_1  and  C_4
    2  A    between atoms: C_2  and  C_48
    3  A    between atoms: O_3  and  C_11
    4  A    between atoms: O_3  and  C_30
    5  A    between atoms: C_4  and  C_11
    6  A    between atoms: C_5  and  C_25
    7  A    between atoms: N_7  and  C_32
    8  A    between atoms: N_9  and  C_46
    9  A    between atoms: C_20  and  C_46
   10  A    between atoms: C_22  and  C_42
   11  A    between atoms: C_24  and  C_48
   12  A    between atoms: C_26  and  C_41
   13  A    between atoms: C_29  and  C_44
   14  A    between atoms: C_32  and  C_34
                            x       y       z     vdW  Elec       q    Type
                         _______ _______ _______ _____ _____    ______ ____

>  <TORSDO>
F 14

$$$$
=
 OpenBabel11062415223D

 48 54  0  0  1  0  0  0  0  0999 V2000
  187.0880  176.7760  142.3160 O   0  0  0  0  0  1  0  0  0  0  0  0
  185.3390  177.9710  141.1190 C   0  0  2  0  0  3  0  0  0  0  0  0
  186.4990  178.0280  142.1020 C   0  0  2  0  0  0  0  0  0  0  0  0
  186.6320  178.7010  140.7390 C   0  0  1  0  0  3  0  0  0  0  0  0
  189.0050  178.3420  137.2960 C   0  0  0  0  0  2  0  0  0  0  0  0
  189.7090  177.8820  138.5850 C   0  0  0  0  0  2  0  0  0  0  0  0
  186.9040  177.9620  138.3470 C   0  0  0  0  0  2  0  0  0  0  0  0
  187.4670  177.8600  139.7750 C   0  0  1  0  0  3  0  0  0  0  0  0
  187.6770  178.9100  137.5450 N   0  0  0  0  0  2  0  0  0  0  0  0
  188.9410  178.2990  139.8400 C   0  0  1  0  0  3  0  0  0  0  0  0
  190.6240  177.7550  142.9380 N   0  0  0  0  0  0  0  0  0  0  0  0
  190.9550  175.4760  143.0510 O   0  0  0  0  0  0  0  0  0  0  0  0
  189.6230  177.7690  141.0620 C   0  0  0  0  0  0  0  0  0  0  0  0
  190.5200  176.5010  142.4580 C   0  0  0  0  0  0  0  0  0  0  0  0
  189.8920  176.4570  141.2690 N   0  0  0  0  0  0  0  0  0  0  0  0
  190.0700  178.5650  142.0540 N   0  0  0  0  0  2  0  0  0  0  0  0
  191.3080  179.7450  144.2420 C   0  0  0  0  0  1  0  0  0  0  0  0
  191.3110  178.2250  144.1440 C   0  0  1  0  0  3  0  0  0  0  0  0
  189.6850  176.4210  147.6970 C   0  0  0  0  0  3  0  0  0  0  0  0
  190.7570  177.5740  145.3740 C   0  0  0  0  0  0  0  0  0  0  0  0
  191.5540  176.7530  146.1920 C   0  0  0  0  0  3  0  0  0  0  0  0
  188.8900  177.2410  146.8900 C   0  0  0  0  0  3  0  0  0  0  0  0
  189.4260  177.8180  145.7330 C   0  0  0  0  0  3  0  0  0  0  0  0
  191.0170  176.1790  147.3480 C   0  0  0  0  0  3  0  0  0  0  0  0
  183.2490  178.3740  142.1710 O   0  0  0  0  0  0  0  0  0  0  0  0
  182.9770  178.6190  140.8100 C   0  0  2  0  0  3  0  0  0  0  0  0
  184.2650  178.9990  141.4310 C   0  0  2  0  0  3  0  0  0  0  0  0
  182.1060  179.8590  140.6640 C   0  0  0  0  0  2  0  0  0  0  0  0
  180.4160  177.8170  138.3430 N   0  0  0  0  0  2  0  0  0  0  0  0
  180.9330  179.5710  139.8480 N   0  0  0  0  0  0  0  0  0  0  0  0
  180.1340  178.6060  140.5770 C   0  0  0  0  0  2  0  0  0  0  0  0
  179.6830  177.5720  139.5730 C   0  0  0  0  0  2  0  0  0  0  0  0
  181.3930  178.8490  138.6700 C   0  0  2  0  0  3  0  0  0  0  0  0
  181.5570  179.8100  137.5010 C   0  0  0  0  0  2  0  0  0  0  0  0
  180.3370  179.8060  136.6410 C   0  0  0  0  0  3  0  0  0  0  0  0
  179.7170  180.9020  136.1920 C   0  0  0  0  0  3  0  0  0  0  0  0
  180.1140  182.3120  136.4000 C   0  0  0  0  0  0  0  0  0  0  0  0
  179.7450  182.9280  137.6020 C   0  0  0  0  0  3  0  0  0  0  0  0
  180.8040  183.0590  135.4340 C   0  0  0  0  0  3  0  0  0  0  0  0
  180.7610  185.0020  136.8760 C   0  0  0  0  0  3  0  0  0  0  0  0
  181.1290  184.3980  135.6710 C   0  0  0  0  0  3  0  0  0  0  0  0
  180.0680  184.2670  137.8410 C   0  0  0  0  0  3  0  0  0  0  0  0
  186.2880  178.8390  143.2300 O   0  0  0  0  0  0  0  0  0  0  0  0
  186.0990  177.9740  144.3110 C   0  0  0  0  0  2  0  0  0  0  0  0
  184.9000  178.4260  145.1230 C   0  0  2  0  0  3  0  0  0  0  0  0
  184.6260  179.7670  144.8570 O   0  0  0  0  0  1  0  0  0  0  0  0
  185.1960  178.2500  146.6000 C   0  0  0  0  0  2  0  0  0  0  0  0
  186.0610  179.3960  147.0950 C   0  0  0  0  0  1  0  0  0  0  0  0
  2 27  1  1  0  0  0
  2  3  1  0  0  0  0
  3  1  1  1  0  0  0
  3 43  1  0  0  0  0
  4  8  1  6  0  0  0
  4  2  1  0  0  0  0
  4  3  1  0  0  0  0
  5  9  1  0  0  0  0
  5  6  1  0  0  0  0
  6 10  1  0  0  0  0
  8  7  1  6  0  0  0
  8 10  1  0  0  0  0
  9  7  1  0  0  0  0
 10 13  1  1  0  0  0
 11 18  1  0  0  0  0
 13 15  2  0  0  0  0
 13 16  1  0  0  0  0
 14 11  1  0  0  0  0
 14 12  2  0  0  0  0
 15 14  1  0  0  0  0
 16 11  1  0  0  0  0
 18 17  1  1  0  0  0
 18 20  1  0  0  0  0
 20 23  2  0  0  0  0
 20 21  1  0  0  0  0
 21 24  2  0  0  0  0
 22 19  2  0  0  0  0
 23 22  1  0  0  0  0
 24 19  1  0  0  0  0
 26 28  1  1  0  0  0
 26 27  1  0  0  0  0
 26 25  1  0  0  0  0
 27 25  1  1  0  0  0
 29 33  1  0  0  0  0
 29 32  1  0  0  0  0
 30 31  1  0  0  0  0
 30 28  1  0  0  0  0
 32 31  1  0  0  0  0
 33 34  1  6  0  0  0
 33 30  1  0  0  0  0
 35 34  1  0  0  0  0
 36 37  1  0  0  0  0
 36 35  2  0  0  0  0
 37 38  1  0  0  0  0
 38 42  2  0  0  0  0
 39 41  1  0  0  0  0
 39 37  2  0  0  0  0
 40 42  1  0  0  0  0
 41 40  2  0  0  0  0
 43 44  1  0  0  0  0
 44 45  1  0  0  0  0
 45 46  1  1  0  0  0
 45 47  1  0  0  0  0
 47 48  1  0  0  0  0
M  END
>  <MODEL>
9

>  <REMARK>
 VINA RESULT:      -7.0      2.123     10.266
  Name = 
  14 active torsions:
  status: ('A' for Active; 'I' for Inactive)
    1  A    between atoms: C_1  and  C_4
    2  A    between atoms: C_2  and  C_48
    3  A    between atoms: O_3  and  C_11
    4  A    between atoms: O_3  and  C_30
    5  A    between atoms: C_4  and  C_11
    6  A    between atoms: C_5  and  C_25
    7  A    between atoms: N_7  and  C_32
    8  A    between atoms: N_9  and  C_46
    9  A    between atoms: C_20  and  C_46
   10  A    between atoms: C_22  and  C_42
   11  A    between atoms: C_24  and  C_48
   12  A    between atoms: C_26  and  C_41
   13  A    between atoms: C_29  and  C_44
   14  A    between atoms: C_32  and  C_34
                            x       y       z     vdW  Elec       q    Type
                         _______ _______ _______ _____ _____    ______ ____

>  <TORSDO>
F 14

$$$$
