=
 OpenBabel11062415333D

 35 38  0  0  1  0  0  0  0  0999 V2000
  190.1720  177.2930  140.5770 C   0  0  0  0  0  0  0  0  0  0  0  0
  190.4200  177.5910  139.1310 C   0  0  2  0  0  3  0  0  0  0  0  0
  186.9830  178.5780  141.2400 C   0  0  0  0  0  2  0  0  0  0  0  0
  188.8290  177.4040  141.0100 N   0  0  0  0  0  0  0  0  0  0  0  0
  187.6930  177.8120  140.1780 C   0  0  2  0  0  3  0  0  0  0  0  0
  191.1010  176.9990  141.3740 O   0  0  0  0  0  0  0  0  0  0  0  0
  189.3830  178.5910  138.6290 C   0  0  0  0  0  3  0  0  0  0  0  0
  188.1150  178.1040  142.0900 C   0  0  2  0  0  3  0  0  0  0  0  0
  188.1800  178.6790  139.1150 N   0  0  0  0  0  0  0  0  0  0  0  0
  192.7810  176.0960  138.4380 O   0  0  0  0  0  1  0  0  0  0  0  0
  191.5430  175.6310  138.0100 C   0  0  0  0  0  0  0  0  0  0  0  0
  187.7810  174.2260  136.7370 N   0  0  0  0  0  2  0  0  0  0  0  0
  189.0620  174.7080  137.1600 C   0  0  0  0  0  0  0  0  0  0  0  0
  190.3680  176.3280  138.3230 C   0  0  1  0  0  3  0  0  0  0  0  0
  191.4570  174.4560  137.2550 C   0  0  0  0  0  0  0  0  0  0  0  0
  190.2120  173.9890  136.8310 C   0  0  0  0  0  2  0  0  0  0  0  0
  189.1690  175.8520  137.8900 N   0  0  0  0  0  0  0  0  0  0  0  0
  192.5780  173.7630  136.9370 F   0  0  0  0  0  0  0  0  0  0  0  0
  186.4980  174.8730  137.0170 C   0  0  2  0  0  3  0  0  0  0  0  0
  185.6650  172.8820  138.0720 O   0  0  0  0  0  0  0  0  0  0  0  0
  185.4250  173.8730  137.3280 C   0  0  0  0  0  0  0  0  0  0  0  0
  184.1700  174.0340  136.7390 O   0  0  0  0  0  0  0  0  0  0  0  0
  183.0560  174.5260  137.4700 C   0  0  0  0  0  1  0  0  0  0  0  0
  186.0950  175.8290  135.8990 C   0  0  0  0  0  2  0  0  0  0  0  0
  186.1350  177.2670  136.3810 C   0  0  0  0  0  1  0  0  0  0  0  0
  187.6130  177.1070  143.1320 C   0  0  0  0  0  2  0  0  0  0  0  0
  186.9040  178.4220  144.9750 O   0  0  0  0  0  0  0  0  0  0  0  0
  187.7840  177.6460  144.5160 C   0  0  0  0  0  0  0  0  0  0  0  0
  188.7930  177.1210  146.7370 C   0  0  0  0  0  3  0  0  0  0  0  0
  191.2860  176.6570  145.5640 C   0  0  0  0  0  3  0  0  0  0  0  0
  190.1970  177.0270  144.7690 C   0  0  0  0  0  3  0  0  0  0  0  0
  189.8830  176.7540  147.5330 C   0  0  0  0  0  3  0  0  0  0  0  0
  191.1290  176.5220  146.9450 C   0  0  0  0  0  0  0  0  0  0  0  0
  192.4920  176.0590  147.9400 Cl  0  0  0  0  0  0  0  0  0  0  0  0
  188.9420  177.2630  145.3490 C   0  0  0  0  0  0  0  0  0  0  0  0
  1  4  1  0  0  0  0
  1  6  2  0  0  0  0
  2  7  1  6  0  0  0
  2  1  1  0  0  0  0
  3  8  1  0  0  0  0
  4  8  1  0  0  0  0
  5  4  1  0  0  0  0
  5  3  1  1  0  0  0
  7  9  2  0  0  0  0
  8 26  1  1  0  0  0
  9  5  1  0  0  0  0
 11 14  1  0  0  0  0
 11 10  1  0  0  0  0
 12 19  1  0  0  0  0
 12 13  1  0  0  0  0
 13 17  2  0  0  0  0
 14 17  1  1  0  0  0
 14  2  1  0  0  0  0
 15 11  2  0  0  0  0
 16 13  1  0  0  0  0
 16 15  1  0  0  0  0
 18 15  1  0  0  0  0
 19 24  1  6  0  0  0
 19 21  1  0  0  0  0
 21 20  2  0  0  0  0
 22 21  1  0  0  0  0
 22 23  1  0  0  0  0
 24 25  1  0  0  0  0
 26 28  1  0  0  0  0
 28 27  2  0  0  0  0
 28 35  1  0  0  0  0
 29 32  1  0  0  0  0
 30 33  1  0  0  0  0
 31 35  1  0  0  0  0
 31 30  2  0  0  0  0
 33 32  2  0  0  0  0
 33 34  1  0  0  0  0
 35 29  2  0  0  0  0
M  END
>  <MODEL>
1

>  <REMARK>
 VINA RESULT:      -8.3      0.000      0.000
  Name = 
  8 active torsions:
  status: ('A' for Active; 'I' for Inactive)
    1  A    between atoms: O_1  and  C_19
    2  A    between atoms: C_9  and  C_18
    3  A    between atoms: N_11  and  C_12
    4  A    between atoms: C_12  and  C_19
    5  A    between atoms: C_12  and  C_30
    6  A    between atoms: C_16  and  C_27
    7  A    between atoms: C_16  and  C_34
    8  A    between atoms: C_27  and  C_32
                            x       y       z     vdW  Elec       q    Type
                         _______ _______ _______ _____ _____    ______ ____

>  <TORSDO>
F 8

$$$$
=
 OpenBabel11062415333D

 35 38  0  0  1  0  0  0  0  0999 V2000
  189.4940  176.4920  138.8000 C   0  0  0  0  0  0  0  0  0  0  0  0
  188.9770  177.3430  137.6820 C   0  0  2  0  0  3  0  0  0  0  0  0
  189.4110  178.5530  141.6300 C   0  0  0  0  0  2  0  0  0  0  0  0
  189.2470  176.9730  140.1080 N   0  0  0  0  0  0  0  0  0  0  0  0
  188.5690  178.2280  140.4450 C   0  0  2  0  0  3  0  0  0  0  0  0
  190.1430  175.4340  138.5960 O   0  0  0  0  0  0  0  0  0  0  0  0
  188.9440  178.8040  138.1230 C   0  0  0  0  0  3  0  0  0  0  0  0
  190.0520  177.2420  141.3110 C   0  0  2  0  0  3  0  0  0  0  0  0
  188.7710  179.1740  139.3580 N   0  0  0  0  0  0  0  0  0  0  0  0
  188.5520  175.0710  135.9650 O   0  0  0  0  0  1  0  0  0  0  0  0
  187.4480  175.7740  136.4340 C   0  0  0  0  0  0  0  0  0  0  0  0
  184.1120  177.9030  137.8790 N   0  0  0  0  0  2  0  0  0  0  0  0
  185.2450  177.1840  137.3780 C   0  0  0  0  0  0  0  0  0  0  0  0
  187.6080  176.8870  137.2710 C   0  0  0  0  0  0  0  0  0  0  0  0
  186.1570  175.3760  136.0710 C   0  0  0  0  0  0  0  0  0  0  0  0
  185.0500  176.0800  136.5470 C   0  0  0  0  0  3  0  0  0  0  0  0
  186.5100  177.5580  137.7140 N   0  0  0  0  0  0  0  0  0  0  0  0
  185.9730  174.3030  135.2610 F   0  0  0  0  0  0  0  0  0  0  0  0
  184.1700  179.0690  138.7610 C   0  0  2  0  0  3  0  0  0  0  0  0
  183.8360  177.7120  140.7140 O   0  0  0  0  0  0  0  0  0  0  0  0
  184.4450  178.6810  140.1820 C   0  0  0  0  0  0  0  0  0  0  0  0
  185.3510  179.4440  140.9210 O   0  0  0  0  0  0  0  0  0  0  0  0
  185.4840  179.2950  142.3270 C   0  0  0  0  0  1  0  0  0  0  0  0
  182.9240  179.9380  138.6260 C   0  0  0  0  0  2  0  0  0  0  0  0
  181.7680  179.1360  138.0560 C   0  0  0  0  0  1  0  0  0  0  0  0
  189.7400  176.2210  142.4020 C   0  0  0  0  0  2  0  0  0  0  0  0
  191.8460  176.3180  143.4910 O   0  0  0  0  0  0  0  0  0  0  0  0
  190.5970  176.4440  143.6060 C   0  0  0  0  0  0  0  0  0  0  0  0
  190.7850  176.7830  146.0710 C   0  0  0  0  0  3  0  0  0  0  0  0
  188.1280  177.6360  146.2180 C   0  0  0  0  0  3  0  0  0  0  0  0
  188.6760  177.2630  144.9870 C   0  0  0  0  0  3  0  0  0  0  0  0
  190.2370  177.1540  147.3030 C   0  0  0  0  0  3  0  0  0  0  0  0
  188.9090  177.5810  147.3750 C   0  0  0  0  0  0  0  0  0  0  0  0
  188.2230  178.0480  148.9170 Cl  0  0  0  0  0  0  0  0  0  0  0  0
  190.0080  176.8320  144.9040 C   0  0  0  0  0  0  0  0  0  0  0  0
  1  4  1  0  0  0  0
  2 14  1  1  0  0  0
  2  7  1  0  0  0  0
  2  1  1  0  0  0  0
  4  5  1  0  0  0  0
  4  8  1  0  0  0  0
  5  3  1  1  0  0  0
  6  1  2  0  0  0  0
  7  9  2  0  0  0  0
  8  3  1  0  0  0  0
  8 26  1  1  0  0  0
  9  5  1  0  0  0  0
 10 11  1  0  0  0  0
 11 14  2  0  0  0  0
 12 19  1  0  0  0  0
 13 17  2  0  0  0  0
 13 12  1  0  0  0  0
 14 17  1  0  0  0  0
 15 11  1  0  0  0  0
 15 16  2  0  0  0  0
 16 13  1  0  0  0  0
 18 15  1  0  0  0  0
 19 24  1  1  0  0  0
 19 21  1  0  0  0  0
 21 20  2  0  0  0  0
 21 22  1  0  0  0  0
 22 23  1  0  0  0  0
 25 24  1  0  0  0  0
 26 28  1  0  0  0  0
 27 28  2  0  0  0  0
 28 35  1  0  0  0  0
 29 32  1  0  0  0  0
 30 33  1  0  0  0  0
 31 30  2  0  0  0  0
 32 33  2  0  0  0  0
 33 34  1  0  0  0  0
 35 31  1  0  0  0  0
 35 29  2  0  0  0  0
M  END
>  <MODEL>
2

>  <REMARK>
 VINA RESULT:      -8.0      2.781      4.152
  Name = 
  8 active torsions:
  status: ('A' for Active; 'I' for Inactive)
    1  A    between atoms: O_1  and  C_19
    2  A    between atoms: C_9  and  C_18
    3  A    between atoms: N_11  and  C_12
    4  A    between atoms: C_12  and  C_19
    5  A    between atoms: C_12  and  C_30
    6  A    between atoms: C_16  and  C_27
    7  A    between atoms: C_16  and  C_34
    8  A    between atoms: C_27  and  C_32
                            x       y       z     vdW  Elec       q    Type
                         _______ _______ _______ _____ _____    ______ ____

>  <TORSDO>
F 8

$$$$
=
 OpenBabel11062415333D

 35 38  0  0  1  0  0  0  0  0999 V2000
  190.3910  177.0540  139.0300 C   0  0  0  0  0  0  0  0  0  0  0  0
  190.1850  177.4280  137.5950 C   0  0  2  0  0  3  0  0  0  0  0  0
  187.7000  178.4980  140.7450 C   0  0  0  0  0  2  0  0  0  0  0  0
  189.2720  177.2240  139.8800 N   0  0  0  0  0  0  0  0  0  0  0  0
  187.9660  177.7570  139.4800 C   0  0  2  0  0  3  0  0  0  0  0  0
  191.4990  176.6510  139.4690 O   0  0  0  0  0  0  0  0  0  0  0  0
  189.1270  178.5240  137.4980 C   0  0  0  0  0  3  0  0  0  0  0  0
  189.0030  177.8980  141.1610 C   0  0  2  0  0  3  0  0  0  0  0  0
  188.1550  178.6580  138.3520 N   0  0  0  0  0  0  0  0  0  0  0  0
  192.0520  175.8870  136.0360 O   0  0  0  0  0  1  0  0  0  0  0  0
  190.7150  175.5040  136.0540 C   0  0  0  0  0  0  0  0  0  0  0  0
  186.6660  174.3450  136.1360 N   0  0  0  0  0  2  0  0  0  0  0  0
  188.0410  174.7440  136.0980 C   0  0  0  0  0  0  0  0  0  0  0  0
  189.7720  176.2260  136.7980 C   0  0  1  0  0  3  0  0  0  0  0  0
  190.2950  174.3870  135.3230 C   0  0  0  0  0  0  0  0  0  0  0  0
  188.9540  174.0020  135.3470 C   0  0  0  0  0  2  0  0  0  0  0  0
  188.4700  175.8310  136.7970 N   0  0  0  0  0  0  0  0  0  0  0  0
  191.1870  173.6710  134.5940 F   0  0  0  0  0  0  0  0  0  0  0  0
  185.6070  175.0240  136.8840 C   0  0  2  0  0  3  0  0  0  0  0  0
  183.6270  174.4610  138.1220 O   0  0  0  0  0  0  0  0  0  0  0  0
  184.6240  174.0530  137.4650 C   0  0  0  0  0  0  0  0  0  0  0  0
  184.8600  172.6860  137.3060 O   0  0  0  0  0  0  0  0  0  0  0  0
  183.8190  171.7800  136.9720 C   0  0  0  0  0  1  0  0  0  0  0  0
  184.9310  176.1050  136.0470 C   0  0  0  0  0  2  0  0  0  0  0  0
  185.1760  177.4790  136.6440 C   0  0  0  0  0  1  0  0  0  0  0  0
  188.7820  176.8700  142.2680 C   0  0  0  0  0  2  0  0  0  0  0  0
  191.0070  177.0380  143.0770 O   0  0  0  0  0  0  0  0  0  0  0  0
  189.7810  177.0440  143.3670 C   0  0  0  0  0  0  0  0  0  0  0  0
  190.2710  177.0880  145.8130 C   0  0  0  0  0  3  0  0  0  0  0  0
  187.6350  177.8130  146.3910 C   0  0  0  0  0  3  0  0  0  0  0  0
  188.0310  177.6130  145.0650 C   0  0  0  0  0  3  0  0  0  0  0  0
  189.8740  177.2850  147.1400 C   0  0  0  0  0  3  0  0  0  0  0  0
  188.5560  177.6470  147.4280 C   0  0  0  0  0  0  0  0  0  0  0  0
  188.0600  177.8970  149.0880 Cl  0  0  0  0  0  0  0  0  0  0  0  0
  189.3520  177.2490  144.7660 C   0  0  0  0  0  0  0  0  0  0  0  0
  1  6  2  0  0  0  0
  1  4  1  0  0  0  0
  2  7  1  1  0  0  0
  2  1  1  0  0  0  0
  3  8  1  0  0  0  0
  4  8  1  0  0  0  0
  5  4  1  0  0  0  0
  5  3  1  1  0  0  0
  7  9  2  0  0  0  0
  8 26  1  1  0  0  0
  9  5  1  0  0  0  0
 10 11  1  0  0  0  0
 12 19  1  0  0  0  0
 13 12  1  0  0  0  0
 13 17  2  0  0  0  0
 14 11  1  1  0  0  0
 14  2  1  0  0  0  0
 15 16  1  0  0  0  0
 15 11  2  0  0  0  0
 16 13  1  0  0  0  0
 17 14  1  0  0  0  0
 18 15  1  0  0  0  0
 19 24  1  6  0  0  0
 19 21  1  0  0  0  0
 21 20  2  0  0  0  0
 22 21  1  0  0  0  0
 23 22  1  0  0  0  0
 24 25  1  0  0  0  0
 26 28  1  0  0  0  0
 27 28  2  0  0  0  0
 28 35  1  0  0  0  0
 29 32  1  0  0  0  0
 30 33  1  0  0  0  0
 31 30  2  0  0  0  0
 32 33  2  0  0  0  0
 33 34  1  0  0  0  0
 35 31  1  0  0  0  0
 35 29  2  0  0  0  0
M  END
>  <MODEL>
3

>  <REMARK>
 VINA RESULT:      -7.8      1.725      2.134
  Name = 
  8 active torsions:
  status: ('A' for Active; 'I' for Inactive)
    1  A    between atoms: O_1  and  C_19
    2  A    between atoms: C_9  and  C_18
    3  A    between atoms: N_11  and  C_12
    4  A    between atoms: C_12  and  C_19
    5  A    between atoms: C_12  and  C_30
    6  A    between atoms: C_16  and  C_27
    7  A    between atoms: C_16  and  C_34
    8  A    between atoms: C_27  and  C_32
                            x       y       z     vdW  Elec       q    Type
                         _______ _______ _______ _____ _____    ______ ____

>  <TORSDO>
F 8

$$$$
=
 OpenBabel11062415333D

 35 38  0  0  1  0  0  0  0  0999 V2000
  185.2510  178.9260  140.7960 C   0  0  0  0  0  0  0  0  0  0  0  0
  184.3920  179.2120  139.6030 C   0  0  2  0  0  3  0  0  0  0  0  0
  183.0530  178.9180  143.5220 C   0  0  0  0  0  2  0  0  0  0  0  0
  184.5650  178.5350  141.9710 N   0  0  0  0  0  0  0  0  0  0  0  0
  183.1110  178.4250  142.1170 C   0  0  2  0  0  3  0  0  0  0  0  0
  186.5020  179.0590  140.7740 O   0  0  0  0  0  0  0  0  0  0  0  0
  183.0230  179.7050  140.0640 C   0  0  0  0  0  3  0  0  0  0  0  0
  184.5380  178.9670  143.3780 C   0  0  2  0  0  3  0  0  0  0  0  0
  182.4770  179.3490  141.1900 N   0  0  0  0  0  0  0  0  0  0  0  0
  186.3950  178.4060  137.6980 O   0  0  0  0  0  1  0  0  0  0  0  0
  185.2530  177.6270  137.8410 C   0  0  0  0  0  0  0  0  0  0  0  0
  181.7940  175.2660  138.3030 N   0  0  0  0  0  2  0  0  0  0  0  0
  182.9660  176.0730  138.1370 C   0  0  0  0  0  0  0  0  0  0  0  0
  184.2520  177.9820  138.7560 C   0  0  2  0  0  3  0  0  0  0  0  0
  185.0890  176.4730  137.0680 C   0  0  0  0  0  0  0  0  0  0  0  0
  183.9440  175.6890  137.2180 C   0  0  0  0  0  2  0  0  0  0  0  0
  183.1430  177.2030  138.8750 N   0  0  0  0  0  0  0  0  0  0  0  0
  186.0410  176.1060  136.1750 F   0  0  0  0  0  0  0  0  0  0  0  0
  180.6980  175.5440  139.2310 C   0  0  2  0  0  3  0  0  0  0  0  0
  179.9950  173.2780  138.8580 O   0  0  0  0  0  0  0  0  0  0  0  0
  179.9470  174.3000  139.5970 C   0  0  0  0  0  0  0  0  0  0  0  0
  179.1540  174.3100  140.7460 O   0  0  0  0  0  0  0  0  0  0  0  0
  179.4120  173.4460  141.8430 C   0  0  0  0  0  1  0  0  0  0  0  0
  179.7810  176.6430  138.7050 C   0  0  0  0  0  2  0  0  0  0  0  0
  179.5620  177.7110  139.7610 C   0  0  0  0  0  1  0  0  0  0  0  0
  185.1910  177.9150  144.2720 C   0  0  0  0  0  2  0  0  0  0  0  0
  185.3190  179.5270  146.0090 O   0  0  0  0  0  0  0  0  0  0  0  0
  185.8790  178.5540  145.4360 C   0  0  0  0  0  0  0  0  0  0  0  0
  188.1740  177.6650  145.0260 C   0  0  0  0  0  3  0  0  0  0  0  0
  188.6570  177.4740  147.7720 C   0  0  0  0  0  3  0  0  0  0  0  0
  187.4250  177.9480  147.3100 C   0  0  0  0  0  3  0  0  0  0  0  0
  189.4050  177.1880  145.4880 C   0  0  0  0  0  3  0  0  0  0  0  0
  189.6450  177.0940  146.8610 C   0  0  0  0  0  0  0  0  0  0  0  0
  191.1870  176.5010  147.4400 Cl  0  0  0  0  0  0  0  0  0  0  0  0
  187.1740  178.0460  145.9330 C   0  0  0  0  0  0  0  0  0  0  0  0
  1  4  1  0  0  0  0
  2  7  1  1  0  0  0
  2  1  1  0  0  0  0
  4  5  1  0  0  0  0
  4  8  1  0  0  0  0
  5  3  1  1  0  0  0
  6  1  2  0  0  0  0
  7  9  2  0  0  0  0
  8  3  1  0  0  0  0
  8 26  1  1  0  0  0
  9  5  1  0  0  0  0
 10 11  1  0  0  0  0
 12 19  1  0  0  0  0
 13 12  1  0  0  0  0
 13 17  2  0  0  0  0
 14 11  1  6  0  0  0
 14 17  1  0  0  0  0
 14  2  1  0  0  0  0
 15 16  1  0  0  0  0
 15 11  2  0  0  0  0
 16 13  1  0  0  0  0
 18 15  1  0  0  0  0
 19 24  1  6  0  0  0
 19 21  1  0  0  0  0
 20 21  2  0  0  0  0
 21 22  1  0  0  0  0
 22 23  1  0  0  0  0
 24 25  1  0  0  0  0
 26 28  1  0  0  0  0
 28 35  1  0  0  0  0
 28 27  2  0  0  0  0
 29 32  2  0  0  0  0
 29 35  1  0  0  0  0
 31 30  1  0  0  0  0
 32 33  1  0  0  0  0
 33 34  1  0  0  0  0
 33 30  2  0  0  0  0
 35 31  2  0  0  0  0
M  END
>  <MODEL>
4

>  <REMARK>
 VINA RESULT:      -7.6      4.094      5.310
  Name = 
  8 active torsions:
  status: ('A' for Active; 'I' for Inactive)
    1  A    between atoms: O_1  and  C_19
    2  A    between atoms: C_9  and  C_18
    3  A    between atoms: N_11  and  C_12
    4  A    between atoms: C_12  and  C_19
    5  A    between atoms: C_12  and  C_30
    6  A    between atoms: C_16  and  C_27
    7  A    between atoms: C_16  and  C_34
    8  A    between atoms: C_27  and  C_32
                            x       y       z     vdW  Elec       q    Type
                         _______ _______ _______ _____ _____    ______ ____

>  <TORSDO>
F 8

$$$$
=
 OpenBabel11062415333D

 35 38  0  0  1  0  0  0  0  0999 V2000
  187.6800  176.7490  137.6080 C   0  0  0  0  0  0  0  0  0  0  0  0
  187.9910  178.1220  138.1180 C   0  0  2  0  0  3  0  0  0  0  0  0
  190.7930  175.1920  137.2230 C   0  0  0  0  0  2  0  0  0  0  0  0
  188.7330  175.8060  137.6900 N   0  0  0  0  0  0  0  0  0  0  0  0
  190.0840  176.0730  138.1920 C   0  0  2  0  0  3  0  0  0  0  0  0
  186.5670  176.4540  137.1010 O   0  0  0  0  0  0  0  0  0  0  0  0
  189.4810  178.4060  137.9500 C   0  0  0  0  0  3  0  0  0  0  0  0
  189.4070  174.8830  136.7620 C   0  0  2  0  0  3  0  0  0  0  0  0
  190.3930  177.4790  137.9760 N   0  0  0  0  0  0  0  0  0  0  0  0
  185.3420  178.9060  138.9300 O   0  0  0  0  0  1  0  0  0  0  0  0
  186.2890  178.6280  139.9090 C   0  0  0  0  0  0  0  0  0  0  0  0
  189.1670  177.7660  142.8630 N   0  0  0  0  0  2  0  0  0  0  0  0
  188.1900  178.0700  141.8600 C   0  0  0  0  0  0  0  0  0  0  0  0
  187.5910  178.2450  139.5590 C   0  0  0  0  0  0  0  0  0  0  0  0
  185.9510  178.7320  141.2620 C   0  0  0  0  0  0  0  0  0  0  0  0
  186.9020  178.4480  142.2430 C   0  0  0  0  0  3  0  0  0  0  0  0
  188.5000  177.9810  140.5370 N   0  0  0  0  0  0  0  0  0  0  0  0
  184.6990  179.1020  141.6290 F   0  0  0  0  0  0  0  0  0  0  0  0
  190.5460  177.3510  142.6040 C   0  0  2  0  0  3  0  0  0  0  0  0
  190.1880  175.0000  142.9400 O   0  0  0  0  0  0  0  0  0  0  0  0
  190.8580  176.0270  143.2340 C   0  0  0  0  0  0  0  0  0  0  0  0
  191.8730  175.9640  144.1900 O   0  0  0  0  0  0  0  0  0  0  0  0
  191.6280  176.2280  145.5630 C   0  0  0  0  0  1  0  0  0  0  0  0
  191.5430  178.4340  143.0030 C   0  0  0  0  0  2  0  0  0  0  0  0
  190.9090  179.4190  143.9690 C   0  0  0  0  0  1  0  0  0  0  0  0
  189.0490  173.4370  137.0940 C   0  0  0  0  0  2  0  0  0  0  0  0
  188.6990  172.5900  134.9050 O   0  0  0  0  0  0  0  0  0  0  0  0
  188.1860  172.8400  136.0290 C   0  0  0  0  0  0  0  0  0  0  0  0
  186.0570  171.7110  135.3830 C   0  0  0  0  0  3  0  0  0  0  0  0
  184.7730  172.6940  137.6620 C   0  0  0  0  0  3  0  0  0  0  0  0
  186.1150  173.0080  137.4250 C   0  0  0  0  0  3  0  0  0  0  0  0
  184.7140  171.3990  135.6190 C   0  0  0  0  0  3  0  0  0  0  0  0
  184.0730  171.8900  136.7580 C   0  0  0  0  0  0  0  0  0  0  0  0
  182.3930  171.4960  137.0560 Cl  0  0  0  0  0  0  0  0  0  0  0  0
  186.7670  172.5200  136.2830 C   0  0  0  0  0  0  0  0  0  0  0  0
  1  4  1  0  0  0  0
  1  2  1  0  0  0  0
  2 14  1  1  0  0  0
  4  5  1  0  0  0  0
  5  3  1  6  0  0  0
  6  1  2  0  0  0  0
  7  9  2  0  0  0  0
  7  2  1  0  0  0  0
  8 26  1  1  0  0  0
  8  3  1  0  0  0  0
  8  4  1  0  0  0  0
  9  5  1  0  0  0  0
 10 11  1  0  0  0  0
 11 15  1  0  0  0  0
 13 16  1  0  0  0  0
 13 12  1  0  0  0  0
 14 11  2  0  0  0  0
 14 17  1  0  0  0  0
 15 18  1  0  0  0  0
 15 16  2  0  0  0  0
 17 13  2  0  0  0  0
 19 12  1  0  0  0  0
 19 24  1  1  0  0  0
 19 21  1  0  0  0  0
 20 21  2  0  0  0  0
 21 22  1  0  0  0  0
 22 23  1  0  0  0  0
 24 25  1  0  0  0  0
 27 28  2  0  0  0  0
 28 35  1  0  0  0  0
 28 26  1  0  0  0  0
 29 32  2  0  0  0  0
 29 35  1  0  0  0  0
 31 30  1  0  0  0  0
 32 33  1  0  0  0  0
 33 34  1  0  0  0  0
 33 30  2  0  0  0  0
 35 31  2  0  0  0  0
M  END
>  <MODEL>
5

>  <REMARK>
 VINA RESULT:      -7.3      3.879      8.646
  Name = 
  8 active torsions:
  status: ('A' for Active; 'I' for Inactive)
    1  A    between atoms: O_1  and  C_19
    2  A    between atoms: C_9  and  C_18
    3  A    between atoms: N_11  and  C_12
    4  A    between atoms: C_12  and  C_19
    5  A    between atoms: C_12  and  C_30
    6  A    between atoms: C_16  and  C_27
    7  A    between atoms: C_16  and  C_34
    8  A    between atoms: C_27  and  C_32
                            x       y       z     vdW  Elec       q    Type
                         _______ _______ _______ _____ _____    ______ ____

>  <TORSDO>
F 8

$$$$
=
 OpenBabel11062415333D

 35 38  0  0  1  0  0  0  0  0999 V2000
  187.9500  178.2490  139.8940 C   0  0  0  0  0  0  0  0  0  0  0  0
  188.4450  178.3050  138.4820 C   0  0  2  0  0  3  0  0  0  0  0  0
  184.5520  179.0760  139.7030 C   0  0  0  0  0  2  0  0  0  0  0  0
  186.5440  178.2100  140.0550 N   0  0  0  0  0  0  0  0  0  0  0  0
  185.5570  178.2540  138.9720 C   0  0  2  0  0  3  0  0  0  0  0  0
  188.7280  178.2740  140.8820 O   0  0  0  0  0  0  0  0  0  0  0  0
  187.4090  179.0010  137.6030 C   0  0  0  0  0  3  0  0  0  0  0  0
  185.5410  178.9710  140.8180 C   0  0  2  0  0  3  0  0  0  0  0  0
  186.1310  178.9730  137.8450 N   0  0  0  0  0  0  0  0  0  0  0  0
  191.0470  177.0830  138.6560 O   0  0  0  0  0  1  0  0  0  0  0  0
  190.0050  176.3650  138.0790 C   0  0  0  0  0  0  0  0  0  0  0  0
  186.8330  174.1950  136.3530 N   0  0  0  0  0  2  0  0  0  0  0  0
  187.9150  174.9360  136.9300 C   0  0  0  0  0  0  0  0  0  0  0  0
  188.7230  176.9210  137.9730 C   0  0  2  0  0  3  0  0  0  0  0  0
  190.2290  175.0720  137.5950 C   0  0  0  0  0  0  0  0  0  0  0  0
  189.1800  174.3510  137.0210 C   0  0  0  0  0  2  0  0  0  0  0  0
  187.7210  176.1970  137.4020 N   0  0  0  0  0  0  0  0  0  0  0  0
  191.4590  174.5100  137.6840 F   0  0  0  0  0  0  0  0  0  0  0  0
  185.4610  174.6800  136.2020 C   0  0  2  0  0  3  0  0  0  0  0  0
  184.5500  172.4600  136.2970 O   0  0  0  0  0  0  0  0  0  0  0  0
  184.4570  173.6650  136.6590 C   0  0  0  0  0  0  0  0  0  0  0  0
  183.3890  174.0890  137.4510 O   0  0  0  0  0  0  0  0  0  0  0  0
  183.3890  175.3560  138.0930 C   0  0  0  0  0  1  0  0  0  0  0  0
  185.1900  175.1670  134.7820 C   0  0  0  0  0  2  0  0  0  0  0  0
  185.4470  176.6590  134.6680 C   0  0  0  0  0  1  0  0  0  0  0  0
  184.9730  178.1190  141.9500 C   0  0  0  0  0  2  0  0  0  0  0  0
  184.4280  179.7950  143.5390 O   0  0  0  0  0  0  0  0  0  0  0  0
  185.1490  178.7970  143.2710 C   0  0  0  0  0  0  0  0  0  0  0  0
  185.8990  178.4990  145.6320 C   0  0  0  0  0  3  0  0  0  0  0  0
  188.1970  177.1470  144.7970 C   0  0  0  0  0  3  0  0  0  0  0  0
  187.2820  177.6200  143.8520 C   0  0  0  0  0  3  0  0  0  0  0  0
  186.8160  178.0280  146.5770 C   0  0  0  0  0  3  0  0  0  0  0  0
  187.9640  177.3520  146.1590 C   0  0  0  0  0  0  0  0  0  0  0  0
  189.1100  176.7590  147.3420 Cl  0  0  0  0  0  0  0  0  0  0  0  0
  186.1260  178.3010  144.2620 C   0  0  0  0  0  0  0  0  0  0  0  0
  1  4  1  0  0  0  0
  1  6  2  0  0  0  0
  2  7  1  6  0  0  0
  2  1  1  0  0  0  0
  3  8  1  0  0  0  0
  4  8  1  0  0  0  0
  5  3  1  1  0  0  0
  5  4  1  0  0  0  0
  7  9  2  0  0  0  0
  8 26  1  1  0  0  0
  9  5  1  0  0  0  0
 11 10  1  0  0  0  0
 12 13  1  0  0  0  0
 13 16  1  0  0  0  0
 13 17  2  0  0  0  0
 14 17  1  6  0  0  0
 14 11  1  0  0  0  0
 14  2  1  0  0  0  0
 15 18  1  0  0  0  0
 15 11  2  0  0  0  0
 16 15  1  0  0  0  0
 19 24  1  6  0  0  0
 19 12  1  0  0  0  0
 19 21  1  0  0  0  0
 20 21  2  0  0  0  0
 21 22  1  0  0  0  0
 22 23  1  0  0  0  0
 25 24  1  0  0  0  0
 26 28  1  0  0  0  0
 28 27  2  0  0  0  0
 28 35  1  0  0  0  0
 29 32  1  0  0  0  0
 30 33  1  0  0  0  0
 31 35  1  0  0  0  0
 31 30  2  0  0  0  0
 33 32  2  0  0  0  0
 33 34  1  0  0  0  0
 35 29  2  0  0  0  0
M  END
>  <MODEL>
6

>  <REMARK>
 VINA RESULT:      -7.3      1.879      2.413
  Name = 
  8 active torsions:
  status: ('A' for Active; 'I' for Inactive)
    1  A    between atoms: O_1  and  C_19
    2  A    between atoms: C_9  and  C_18
    3  A    between atoms: N_11  and  C_12
    4  A    between atoms: C_12  and  C_19
    5  A    between atoms: C_12  and  C_30
    6  A    between atoms: C_16  and  C_27
    7  A    between atoms: C_16  and  C_34
    8  A    between atoms: C_27  and  C_32
                            x       y       z     vdW  Elec       q    Type
                         _______ _______ _______ _____ _____    ______ ____

>  <TORSDO>
F 8

$$$$
=
 OpenBabel11062415333D

 35 38  0  0  1  0  0  0  0  0999 V2000
  185.2960  178.9850  140.5980 C   0  0  0  0  0  0  0  0  0  0  0  0
  184.6040  179.2510  139.2970 C   0  0  2  0  0  3  0  0  0  0  0  0
  182.7340  178.8500  142.9820 C   0  0  0  0  0  2  0  0  0  0  0  0
  184.4670  178.5510  141.6610 N   0  0  0  0  0  0  0  0  0  0  0  0
  183.0130  178.3780  141.5970 C   0  0  2  0  0  3  0  0  0  0  0  0
  186.5300  179.1710  140.7560 O   0  0  0  0  0  0  0  0  0  0  0  0
  183.1630  179.6800  139.5610 C   0  0  0  0  0  3  0  0  0  0  0  0
  184.2210  178.9630  143.0530 C   0  0  2  0  0  3  0  0  0  0  0  0
  182.4780  179.2870  140.5940 N   0  0  0  0  0  0  0  0  0  0  0  0
  186.9590  178.4420  137.8520 O   0  0  0  0  0  1  0  0  0  0  0  0
  185.8080  177.6700  137.7450 C   0  0  0  0  0  0  0  0  0  0  0  0
  182.3170  175.3310  137.4480 N   0  0  0  0  0  2  0  0  0  0  0  0
  183.5020  176.1310  137.5390 C   0  0  0  0  0  0  0  0  0  0  0  0
  184.6390  178.0270  138.4300 C   0  0  2  0  0  3  0  0  0  0  0  0
  185.8050  176.5220  136.9450 C   0  0  0  0  0  0  0  0  0  0  0  0
  184.6500  175.7450  136.8440 C   0  0  0  0  0  2  0  0  0  0  0  0
  183.5250  177.2550  138.3060 N   0  0  0  0  0  0  0  0  0  0  0  0
  186.9230  176.1530  136.2710 F   0  0  0  0  0  0  0  0  0  0  0  0
  181.0510  175.6110  138.1260 C   0  0  2  0  0  3  0  0  0  0  0  0
  180.3190  177.1620  136.4450 O   0  0  0  0  0  0  0  0  0  0  0  0
  180.4510  176.9070  137.6740 C   0  0  0  0  0  0  0  0  0  0  0  0
  180.0850  177.8480  138.6380 O   0  0  0  0  0  0  0  0  0  0  0  0
  179.5140  179.0990  138.2860 C   0  0  0  0  0  1  0  0  0  0  0  0
  181.1980  175.5360  139.6420 C   0  0  0  0  0  2  0  0  0  0  0  0
  180.0500  174.7540  140.2550 C   0  0  0  0  0  1  0  0  0  0  0  0
  184.7850  177.9280  144.0230 C   0  0  0  0  0  2  0  0  0  0  0  0
  184.8240  179.5410  145.7630 O   0  0  0  0  0  0  0  0  0  0  0  0
  185.4290  178.5910  145.1980 C   0  0  0  0  0  0  0  0  0  0  0  0
  186.9940  178.1600  147.0930 C   0  0  0  0  0  3  0  0  0  0  0  0
  188.9560  177.2200  145.3390 C   0  0  0  0  0  3  0  0  0  0  0  0
  187.7250  177.6590  144.8420 C   0  0  0  0  0  3  0  0  0  0  0  0
  188.2260  177.7240  147.5910 C   0  0  0  0  0  3  0  0  0  0  0  0
  189.2060  177.2530  146.7130 C   0  0  0  0  0  0  0  0  0  0  0  0
  190.7470  176.7040  147.3360 Cl  0  0  0  0  0  0  0  0  0  0  0  0
  186.7350  178.1330  145.7150 C   0  0  0  0  0  0  0  0  0  0  0  0
  1  6  2  0  0  0  0
  1  4  1  0  0  0  0
  2  7  1  1  0  0  0
  2  1  1  0  0  0  0
  3  8  1  0  0  0  0
  4  8  1  0  0  0  0
  5  4  1  0  0  0  0
  5  3  1  1  0  0  0
  7  9  2  0  0  0  0
  8 26  1  1  0  0  0
  9  5  1  0  0  0  0
 11 10  1  0  0  0  0
 12 13  1  0  0  0  0
 12 19  1  0  0  0  0
 13 17  2  0  0  0  0
 14 11  1  6  0  0  0
 14  2  1  0  0  0  0
 15 11  2  0  0  0  0
 16 15  1  0  0  0  0
 16 13  1  0  0  0  0
 17 14  1  0  0  0  0
 18 15  1  0  0  0  0
 19 24  1  1  0  0  0
 20 21  2  0  0  0  0
 21 19  1  0  0  0  0
 21 22  1  0  0  0  0
 23 22  1  0  0  0  0
 24 25  1  0  0  0  0
 26 28  1  0  0  0  0
 28 35  1  0  0  0  0
 28 27  2  0  0  0  0
 29 32  1  0  0  0  0
 30 33  1  0  0  0  0
 31 30  2  0  0  0  0
 31 35  1  0  0  0  0
 33 34  1  0  0  0  0
 33 32  2  0  0  0  0
 35 29  2  0  0  0  0
M  END
>  <MODEL>
7

>  <REMARK>
 VINA RESULT:      -7.1      3.854      5.085
  Name = 
  8 active torsions:
  status: ('A' for Active; 'I' for Inactive)
    1  A    between atoms: O_1  and  C_19
    2  A    between atoms: C_9  and  C_18
    3  A    between atoms: N_11  and  C_12
    4  A    between atoms: C_12  and  C_19
    5  A    between atoms: C_12  and  C_30
    6  A    between atoms: C_16  and  C_27
    7  A    between atoms: C_16  and  C_34
    8  A    between atoms: C_27  and  C_32
                            x       y       z     vdW  Elec       q    Type
                         _______ _______ _______ _____ _____    ______ ____

>  <TORSDO>
F 8

$$$$
=
 OpenBabel11062415333D

 35 38  0  0  1  0  0  0  0  0999 V2000
  188.0630  176.3790  143.0660 C   0  0  0  0  0  0  0  0  0  0  0  0
  186.8270  176.8490  143.7670 C   0  0  2  0  0  3  0  0  0  0  0  0
  188.5410  178.6460  140.4400 C   0  0  0  0  0  2  0  0  0  0  0  0
  188.6630  177.3080  142.1820 N   0  0  0  0  0  0  0  0  0  0  0  0
  188.1600  178.6510  141.8810 C   0  0  2  0  0  3  0  0  0  0  0  0
  188.5250  175.2180  143.2180 O   0  0  0  0  0  0  0  0  0  0  0  0
  186.1040  177.8760  142.8990 C   0  0  0  0  0  3  0  0  0  0  0  0
  189.1040  177.3050  140.7770 C   0  0  2  0  0  3  0  0  0  0  0  0
  186.7160  178.6590  142.0600 N   0  0  0  0  0  0  0  0  0  0  0  0
  185.0000  178.5010  145.2580 O   0  0  0  0  0  1  0  0  0  0  0  0
  186.2560  178.2390  145.7920 C   0  0  0  0  0  0  0  0  0  0  0  0
  190.0610  177.4180  147.4050 N   0  0  0  0  0  2  0  0  0  0  0  0
  188.7710  177.7070  146.8540 C   0  0  0  0  0  0  0  0  0  0  0  0
  187.1780  177.4410  145.1010 C   0  0  0  0  0  0  0  0  0  0  0  0
  186.6170  178.7740  147.0340 C   0  0  0  0  0  0  0  0  0  0  0  0
  187.8770  178.5050  147.5700 C   0  0  0  0  0  3  0  0  0  0  0  0
  188.4020  177.2010  145.6450 N   0  0  0  0  0  0  0  0  0  0  0  0
  185.7450  179.5500  147.7240 F   0  0  0  0  0  0  0  0  0  0  0  0
  191.0890  176.5940  146.7700 C   0  0  2  0  0  3  0  0  0  0  0  0
  192.9240  175.2530  147.5440 O   0  0  0  0  0  0  0  0  0  0  0  0
  192.2150  176.2830  147.7090 C   0  0  0  0  0  0  0  0  0  0  0  0
  192.4310  177.1290  148.7970 O   0  0  0  0  0  0  0  0  0  0  0  0
  193.4970  176.9170  149.7110 C   0  0  0  0  0  1  0  0  0  0  0  0
  191.5760  177.2120  145.4630 C   0  0  0  0  0  2  0  0  0  0  0  0
  191.6540  176.1620  144.3690 C   0  0  0  0  0  1  0  0  0  0  0  0
  190.6280  177.3350  140.6960 C   0  0  0  0  0  2  0  0  0  0  0  0
  192.3310  176.7520  139.1490 O   0  0  0  0  0  0  0  0  0  0  0  0
  191.1000  176.9520  139.3300 C   0  0  0  0  0  0  0  0  0  0  0  0
  189.8050  177.8770  137.4080 C   0  0  0  0  0  3  0  0  0  0  0  0
  188.6960  175.3690  136.8690 C   0  0  0  0  0  3  0  0  0  0  0  0
  189.5890  175.5250  137.9340 C   0  0  0  0  0  3  0  0  0  0  0  0
  188.9100  177.7220  136.3450 C   0  0  0  0  0  3  0  0  0  0  0  0
  188.3570  176.4680  136.0760 C   0  0  0  0  0  0  0  0  0  0  0  0
  187.2390  176.2730  134.7420 Cl  0  0  0  0  0  0  0  0  0  0  0  0
  190.1500  176.7810  138.2120 C   0  0  0  0  0  0  0  0  0  0  0  0
  1  6  2  0  0  0  0
  1  2  1  0  0  0  0
  2 14  1  1  0  0  0
  3  8  1  0  0  0  0
  4  1  1  0  0  0  0
  5  3  1  6  0  0  0
  5  9  1  0  0  0  0
  5  4  1  0  0  0  0
  7  2  1  0  0  0  0
  8 26  1  1  0  0  0
  8  4  1  0  0  0  0
  9  7  2  0  0  0  0
 10 11  1  0  0  0  0
 11 15  1  0  0  0  0
 13 12  1  0  0  0  0
 13 16  1  0  0  0  0
 14 17  1  0  0  0  0
 14 11  2  0  0  0  0
 15 16  2  0  0  0  0
 15 18  1  0  0  0  0
 17 13  2  0  0  0  0
 19 24  1  6  0  0  0
 19 12  1  0  0  0  0
 19 21  1  0  0  0  0
 20 21  2  0  0  0  0
 21 22  1  0  0  0  0
 22 23  1  0  0  0  0
 25 24  1  0  0  0  0
 27 28  2  0  0  0  0
 28 26  1  0  0  0  0
 29 35  1  0  0  0  0
 30 31  1  0  0  0  0
 31 35  2  0  0  0  0
 32 29  2  0  0  0  0
 33 32  1  0  0  0  0
 33 30  2  0  0  0  0
 34 33  1  0  0  0  0
 35 28  1  0  0  0  0
M  END
>  <MODEL>
8

>  <REMARK>
 VINA RESULT:      -7.0      4.398      9.456
  Name = 
  8 active torsions:
  status: ('A' for Active; 'I' for Inactive)
    1  A    between atoms: O_1  and  C_19
    2  A    between atoms: C_9  and  C_18
    3  A    between atoms: N_11  and  C_12
    4  A    between atoms: C_12  and  C_19
    5  A    between atoms: C_12  and  C_30
    6  A    between atoms: C_16  and  C_27
    7  A    between atoms: C_16  and  C_34
    8  A    between atoms: C_27  and  C_32
                            x       y       z     vdW  Elec       q    Type
                         _______ _______ _______ _____ _____    ______ ____

>  <TORSDO>
F 8

$$$$
=
 OpenBabel11062415333D

 35 38  0  0  1  0  0  0  0  0999 V2000
  183.2650  179.7740  139.3930 C   0  0  0  0  0  0  0  0  0  0  0  0
  182.0580  180.2120  138.6230 C   0  0  2  0  0  3  0  0  0  0  0  0
  182.0260  178.6290  142.4610 C   0  0  0  0  0  2  0  0  0  0  0  0
  183.0160  178.9620  140.5250 N   0  0  0  0  0  0  0  0  0  0  0  0
  181.6940  178.5540  141.0110 C   0  0  2  0  0  3  0  0  0  0  0  0
  184.4300  180.1330  139.0810 O   0  0  0  0  0  0  0  0  0  0  0  0
  180.8580  180.3040  139.5620 C   0  0  0  0  0  3  0  0  0  0  0  0
  183.3830  178.9840  141.9500 C   0  0  2  0  0  3  0  0  0  0  0  0
  180.7210  179.5640  140.6230 N   0  0  0  0  0  0  0  0  0  0  0  0
  180.0370  180.7030  136.6330 O   0  0  0  0  0  1  0  0  0  0  0  0
  180.7850  179.5340  136.5550 C   0  0  0  0  0  0  0  0  0  0  0  0
  183.0740  176.0050  136.3250 N   0  0  0  0  0  2  0  0  0  0  0  0
  182.2880  177.1990  136.4080 C   0  0  0  0  0  0  0  0  0  0  0  0
  181.7780  179.2540  137.5040 C   0  0  1  0  0  3  0  0  0  0  0  0
  180.5510  178.6180  135.5240 C   0  0  0  0  0  0  0  0  0  0  0  0
  181.3070  177.4470  135.4460 C   0  0  0  0  0  2  0  0  0  0  0  0
  182.4950  178.1010  137.4060 N   0  0  0  0  0  0  0  0  0  0  0  0
  179.5960  178.8630  134.5940 F   0  0  0  0  0  0  0  0  0  0  0  0
  184.1360  175.6240  137.2570 C   0  0  2  0  0  3  0  0  0  0  0  0
  186.2980  175.2060  136.2980 O   0  0  0  0  0  0  0  0  0  0  0  0
  185.4870  176.0500  136.7690 C   0  0  0  0  0  0  0  0  0  0  0  0
  185.8500  177.3930  136.8900 O   0  0  0  0  0  0  0  0  0  0  0  0
  186.7020  177.8480  137.9310 C   0  0  0  0  0  1  0  0  0  0  0  0
  184.0820  174.1370  137.5920 C   0  0  0  0  0  2  0  0  0  0  0  0
  182.7610  173.5340  137.1500 C   0  0  0  0  0  1  0  0  0  0  0  0
  184.3750  177.8660  142.2620 C   0  0  0  0  0  2  0  0  0  0  0  0
  186.3850  179.0640  141.8680 O   0  0  0  0  0  0  0  0  0  0  0  0
  185.6910  178.4240  142.7020 C   0  0  0  0  0  0  0  0  0  0  0  0
  185.3400  178.6310  145.1640 C   0  0  0  0  0  3  0  0  0  0  0  0
  187.8740  177.5710  145.6760 C   0  0  0  0  0  3  0  0  0  0  0  0
  187.4360  177.7290  144.3580 C   0  0  0  0  0  3  0  0  0  0  0  0
  185.7800  178.4760  146.4830 C   0  0  0  0  0  3  0  0  0  0  0  0
  187.0470  177.9450  146.7370 C   0  0  0  0  0  0  0  0  0  0  0  0
  187.5970  177.7470  148.3880 Cl  0  0  0  0  0  0  0  0  0  0  0  0
  186.1650  178.2610  144.0920 C   0  0  0  0  0  0  0  0  0  0  0  0
  1  4  1  0  0  0  0
  2  1  1  0  0  0  0
  2  7  1  1  0  0  0
  4  5  1  0  0  0  0
  4  8  1  0  0  0  0
  5  3  1  1  0  0  0
  6  1  2  0  0  0  0
  7  9  2  0  0  0  0
  8 26  1  6  0  0  0
  8  3  1  0  0  0  0
  9  5  1  0  0  0  0
 11 10  1  0  0  0  0
 12 13  1  0  0  0  0
 12 19  1  0  0  0  0
 13 17  2  0  0  0  0
 14 11  1  6  0  0  0
 14  2  1  0  0  0  0
 15 11  2  0  0  0  0
 16 15  1  0  0  0  0
 16 13  1  0  0  0  0
 17 14  1  0  0  0  0
 18 15  1  0  0  0  0
 19 24  1  6  0  0  0
 20 21  2  0  0  0  0
 21 22  1  0  0  0  0
 21 19  1  0  0  0  0
 22 23  1  0  0  0  0
 25 24  1  0  0  0  0
 26 28  1  0  0  0  0
 27 28  2  0  0  0  0
 28 35  1  0  0  0  0
 29 32  1  0  0  0  0
 30 33  1  0  0  0  0
 31 30  2  0  0  0  0
 32 33  2  0  0  0  0
 33 34  1  0  0  0  0
 35 31  1  0  0  0  0
 35 29  2  0  0  0  0
M  END
>  <MODEL>
9

>  <REMARK>
 VINA RESULT:      -7.0      4.845      6.872
  Name = 
  8 active torsions:
  status: ('A' for Active; 'I' for Inactive)
    1  A    between atoms: O_1  and  C_19
    2  A    between atoms: C_9  and  C_18
    3  A    between atoms: N_11  and  C_12
    4  A    between atoms: C_12  and  C_19
    5  A    between atoms: C_12  and  C_30
    6  A    between atoms: C_16  and  C_27
    7  A    between atoms: C_16  and  C_34
    8  A    between atoms: C_27  and  C_32
                            x       y       z     vdW  Elec       q    Type
                         _______ _______ _______ _____ _____    ______ ____

>  <TORSDO>
F 8

$$$$
