=
 OpenBabel11062414503D

 33 36  0  0  1  0  0  0  0  0999 V2000
  191.0410  177.0410  142.7790 N   0  0  0  0  0  2  0  0  0  0  0  0
  188.5880  178.1560  140.1920 C   0  0  0  0  0  3  0  0  0  0  0  0
  190.4290  177.3030  141.5130 C   0  0  0  0  0  0  0  0  0  0  0  0
  190.5460  177.2610  139.0770 C   0  0  0  0  0  0  0  0  0  0  0  0
  189.1590  177.8790  141.4360 C   0  0  0  0  0  3  0  0  0  0  0  0
  191.1140  176.9950  140.3380 C   0  0  0  0  0  3  0  0  0  0  0  0
  189.2790  177.8590  139.0070 C   0  0  0  0  0  0  0  0  0  0  0  0
  188.4330  179.5140  137.5040 O   0  0  0  0  0  1  0  0  0  0  0  0
  188.6500  178.1440  137.6750 C   0  0  2  0  0  3  0  0  0  0  0  0
  187.4500  176.0000  137.2160 C   0  0  0  0  0  3  0  0  0  0  0  0
  187.3820  177.3710  137.4790 C   0  0  0  0  0  0  0  0  0  0  0  0
  186.1310  177.9960  137.5680 C   0  0  0  0  0  3  0  0  0  0  0  0
  186.2770  175.2560  137.0440 C   0  0  0  0  0  3  0  0  0  0  0  0
  184.9600  177.2530  137.3940 C   0  0  0  0  0  3  0  0  0  0  0  0
  185.0330  175.8820  137.1340 C   0  0  0  0  0  3  0  0  0  0  0  0
  192.5330  176.3970  137.8710 C   0  0  0  0  0  1  0  0  0  0  0  0
  191.2260  176.9490  137.8920 O   0  0  0  0  0  0  0  0  0  0  0  0
  190.2920  176.6260  143.8900 N   0  0  0  0  0  2  0  0  0  0  0  0
  190.2210  178.7500  144.8440 O   0  0  0  0  0  0  0  0  0  0  0  0
  189.7500  177.5800  144.7970 C   0  0  0  0  0  0  0  0  0  0  0  0
  188.6120  177.1940  145.6820 C   0  0  0  0  0  2  0  0  0  0  0  0
  187.0170  177.5000  143.7820 N   0  0  0  0  0  0  0  0  0  0  0  0
  184.9640  178.0990  142.5850 C   0  0  0  0  0  3  0  0  0  0  0  0
  187.3180  177.6600  145.0980 C   0  0  0  0  0  0  0  0  0  0  0  0
  184.1150  178.9960  145.1460 C   0  0  0  0  0  3  0  0  0  0  0  0
  183.2600  179.1000  144.0320 C   0  0  0  0  0  3  0  0  0  0  0  0
  183.6790  178.6610  142.7510 C   0  0  0  0  0  0  0  0  0  0  0  0
  186.3360  178.2450  145.8410 N   0  0  0  0  0  2  0  0  0  0  0  0
  185.7780  178.0070  143.7100 C   0  0  0  0  0  0  0  0  0  0  0  0
  185.3750  178.4500  144.9330 C   0  0  0  0  0  0  0  0  0  0  0  0
  182.7800  178.7890  141.5920 C   0  0  0  0  0  0  0  0  0  0  0  0
  181.5410  178.9750  141.7620 O   0  0  0  0  0  1  0  0  0  0  0  0
  183.2840  178.7020  140.2990 O   0  0  0  0  0  0  0  0  0  0  0  0
  1 18  1  0  0  0  0
  2  5  1  0  0  0  0
  3  1  1  0  0  0  0
  4  6  2  0  0  0  0
  5  3  2  0  0  0  0
  6  3  1  0  0  0  0
  7  4  1  0  0  0  0
  7  2  2  0  0  0  0
  9  8  1  1  0  0  0
  9  7  1  0  0  0  0
 10 11  1  0  0  0  0
 11 12  2  0  0  0  0
 11  9  1  0  0  0  0
 13 15  1  0  0  0  0
 13 10  2  0  0  0  0
 14 12  1  0  0  0  0
 15 14  2  0  0  0  0
 16 17  1  0  0  0  0
 17  4  1  0  0  0  0
 18 20  1  0  0  0  0
 20 19  2  0  0  0  0
 20 21  1  0  0  0  0
 22 24  2  0  0  0  0
 23 27  2  0  0  0  0
 23 29  1  0  0  0  0
 24 21  1  0  0  0  0
 24 28  1  0  0  0  0
 26 25  2  0  0  0  0
 27 26  1  0  0  0  0
 29 22  1  0  0  0  0
 29 30  2  0  0  0  0
 30 25  1  0  0  0  0
 30 28  1  0  0  0  0
 31 32  1  0  0  0  0
 31 27  1  0  0  0  0
 33 31  2  0  0  0  0
M  END
>  <MODEL>
1

>  <REMARK>
 VINA RESULT:      -8.6      0.000      0.000
  Name = 
  8 active torsions:
  status: ('A' for Active; 'I' for Inactive)
    1  A    between atoms: N_2  and  N_8
    2  A    between atoms: C_5  and  C_27
    3  A    between atoms: N_8  and  C_11
    4  A    between atoms: C_9  and  C_19
    5  A    between atoms: C_12  and  O_22
    6  A    between atoms: C_16  and  C_29
    7  A    between atoms: C_17  and  C_19
    8  A    between atoms: C_28  and  C_29
                            x       y       z     vdW  Elec       q    Type
                         _______ _______ _______ _____ _____    ______ ____

>  <TORSDO>
F 8

$$$$
=
 OpenBabel11062414503D

 33 36  0  0  1  0  0  0  0  0999 V2000
  188.1070  177.7450  139.1590 N   0  0  0  0  0  2  0  0  0  0  0  0
  189.2320  176.8360  142.6030 C   0  0  0  0  0  3  0  0  0  0  0  0
  188.9460  177.4880  140.2890 C   0  0  0  0  0  0  0  0  0  0  0  0
  191.1810  177.3290  141.2500 C   0  0  0  0  0  0  0  0  0  0  0  0
  188.3980  177.1120  141.5180 C   0  0  0  0  0  3  0  0  0  0  0  0
  190.3290  177.5970  140.1620 C   0  0  0  0  0  3  0  0  0  0  0  0
  190.6250  176.9320  142.4750 C   0  0  0  0  0  0  0  0  0  0  0  0
  191.9640  175.3260  143.6360 O   0  0  0  0  0  1  0  0  0  0  0  0
  191.5130  176.6500  143.6520 C   0  0  2  0  0  3  0  0  0  0  0  0
  191.3500  176.4370  146.1370 C   0  0  0  0  0  3  0  0  0  0  0  0
  190.8380  176.9710  144.9500 C   0  0  0  0  0  0  0  0  0  0  0  0
  189.7140  177.8040  144.9970 C   0  0  0  0  0  3  0  0  0  0  0  0
  190.7440  176.7340  147.3630 C   0  0  0  0  0  3  0  0  0  0  0  0
  189.1070  178.1000  146.2220 C   0  0  0  0  0  3  0  0  0  0  0  0
  189.6240  177.5660  147.4050 C   0  0  0  0  0  3  0  0  0  0  0  0
  193.2710  177.1830  139.9230 C   0  0  0  0  0  1  0  0  0  0  0  0
  192.5740  177.4420  141.1310 O   0  0  0  0  0  0  0  0  0  0  0  0
  187.0190  178.6270  139.2320 N   0  0  0  0  0  2  0  0  0  0  0  0
  185.6450  177.3050  137.8950 O   0  0  0  0  0  0  0  0  0  0  0  0
  185.7430  178.2490  138.7270 C   0  0  0  0  0  0  0  0  0  0  0  0
  184.5210  178.9650  139.1960 C   0  0  0  0  0  2  0  0  0  0  0  0
  185.4920  178.7500  141.4900 N   0  0  0  0  0  0  0  0  0  0  0  0
  185.5940  178.6500  143.9370 C   0  0  0  0  0  3  0  0  0  0  0  0
  184.4040  178.8730  140.6830 C   0  0  0  0  0  0  0  0  0  0  0  0
  182.7700  178.9140  143.7450 C   0  0  0  0  0  3  0  0  0  0  0  0
  183.3970  178.8240  145.0030 C   0  0  0  0  0  3  0  0  0  0  0  0
  184.8040  178.6870  145.1060 C   0  0  0  0  0  0  0  0  0  0  0  0
  183.2110  178.9400  141.3400 N   0  0  0  0  0  2  0  0  0  0  0  0
  184.9400  178.7490  142.7120 C   0  0  0  0  0  0  0  0  0  0  0  0
  183.5860  178.8600  142.6210 C   0  0  0  0  0  0  0  0  0  0  0  0
  185.4440  178.5790  146.4270 C   0  0  0  0  0  0  0  0  0  0  0  0
  185.8350  177.4560  146.8570 O   0  0  0  0  0  0  0  0  0  0  0  0
  185.6210  179.7090  147.2160 O   0  0  0  0  0  1  0  0  0  0  0  0
  1 18  1  0  0  0  0
  1  3  1  0  0  0  0
  3  5  1  0  0  0  0
  4  7  2  0  0  0  0
  5  2  2  0  0  0  0
  6  3  2  0  0  0  0
  6  4  1  0  0  0  0
  7  2  1  0  0  0  0
  7  9  1  0  0  0  0
  9  8  1  1  0  0  0
  9 11  1  0  0  0  0
 10 13  1  0  0  0  0
 11 12  1  0  0  0  0
 11 10  2  0  0  0  0
 12 14  2  0  0  0  0
 13 15  2  0  0  0  0
 14 15  1  0  0  0  0
 16 17  1  0  0  0  0
 17  4  1  0  0  0  0
 19 20  2  0  0  0  0
 20 21  1  0  0  0  0
 20 18  1  0  0  0  0
 21 24  1  0  0  0  0
 22 29  1  0  0  0  0
 23 27  1  0  0  0  0
 24 28  1  0  0  0  0
 24 22  2  0  0  0  0
 25 26  1  0  0  0  0
 26 27  2  0  0  0  0
 27 31  1  0  0  0  0
 28 30  1  0  0  0  0
 29 23  2  0  0  0  0
 30 29  1  0  0  0  0
 30 25  2  0  0  0  0
 31 32  2  0  0  0  0
 31 33  1  0  0  0  0
M  END
>  <MODEL>
2

>  <REMARK>
 VINA RESULT:      -8.4      2.694      6.083
  Name = 
  8 active torsions:
  status: ('A' for Active; 'I' for Inactive)
    1  A    between atoms: N_2  and  N_8
    2  A    between atoms: C_5  and  C_27
    3  A    between atoms: N_8  and  C_11
    4  A    between atoms: C_9  and  C_19
    5  A    between atoms: C_12  and  O_22
    6  A    between atoms: C_16  and  C_29
    7  A    between atoms: C_17  and  C_19
    8  A    between atoms: C_28  and  C_29
                            x       y       z     vdW  Elec       q    Type
                         _______ _______ _______ _____ _____    ______ ____

>  <TORSDO>
F 8

$$$$
=
 OpenBabel11062414503D

 33 36  0  0  1  0  0  0  0  0999 V2000
  183.2040  179.0200  141.8900 N   0  0  0  0  0  2  0  0  0  0  0  0
  183.0230  176.9340  138.7950 C   0  0  0  0  0  3  0  0  0  0  0  0
  183.5450  178.4150  140.6390 C   0  0  0  0  0  0  0  0  0  0  0  0
  185.0910  178.1990  138.7660 C   0  0  0  0  0  0  0  0  0  0  0  0
  182.6890  177.4930  140.0310 C   0  0  0  0  0  3  0  0  0  0  0  0
  184.7380  178.7600  140.0080 C   0  0  0  0  0  3  0  0  0  0  0  0
  184.2170  177.2890  138.1510 C   0  0  0  0  0  0  0  0  0  0  0  0
  183.4640  176.6060  135.9870 O   0  0  0  0  0  1  0  0  0  0  0  0
  184.5760  176.6700  136.8320 C   0  0  2  0  0  3  0  0  0  0  0  0
  186.5450  175.1380  136.6640 C   0  0  0  0  0  3  0  0  0  0  0  0
  185.1990  175.3180  137.0000 C   0  0  0  0  0  0  0  0  0  0  0  0
  184.4620  174.2370  137.5000 C   0  0  0  0  0  3  0  0  0  0  0  0
  187.1510  173.8880  136.8260 C   0  0  0  0  0  3  0  0  0  0  0  0
  185.0680  172.9870  137.6600 C   0  0  0  0  0  3  0  0  0  0  0  0
  186.4130  172.8140  137.3250 C   0  0  0  0  0  3  0  0  0  0  0  0
  187.5640  178.1210  138.6010 C   0  0  0  0  0  1  0  0  0  0  0  0
  186.2930  178.5360  138.1280 O   0  0  0  0  0  0  0  0  0  0  0  0
  183.5450  178.4280  143.1140 N   0  0  0  0  0  2  0  0  0  0  0  0
  184.7910  180.2570  143.8400 O   0  0  0  0  0  0  0  0  0  0  0  0
  184.1910  179.1860  144.1320 C   0  0  0  0  0  0  0  0  0  0  0  0
  184.1430  178.7150  145.5470 C   0  0  0  0  0  2  0  0  0  0  0  0
  186.4720  177.8750  145.2040 N   0  0  0  0  0  0  0  0  0  0  0  0
  188.8020  177.3080  145.7080 C   0  0  0  0  0  3  0  0  0  0  0  0
  185.5160  178.3790  146.0300 C   0  0  0  0  0  0  0  0  0  0  0  0
  188.1220  178.2120  148.3170 C   0  0  0  0  0  3  0  0  0  0  0  0
  189.4250  177.7580  148.0340 C   0  0  0  0  0  3  0  0  0  0  0  0
  189.7690  177.3010  146.7370 C   0  0  0  0  0  0  0  0  0  0  0  0
  185.9220  178.5830  147.3150 N   0  0  0  0  0  2  0  0  0  0  0  0
  187.5280  177.7700  146.0240 C   0  0  0  0  0  0  0  0  0  0  0  0
  187.1990  178.1890  147.2770 C   0  0  0  0  0  0  0  0  0  0  0  0
  191.1310  176.8150  146.4590 C   0  0  0  0  0  0  0  0  0  0  0  0
  191.5040  176.6060  145.2690 O   0  0  0  0  0  0  0  0  0  0  0  0
  192.0180  176.5750  147.5020 O   0  0  0  0  0  1  0  0  0  0  0  0
  1 18  1  0  0  0  0
  2  5  1  0  0  0  0
  3  1  1  0  0  0  0
  4  6  2  0  0  0  0
  5  3  2  0  0  0  0
  6  3  1  0  0  0  0
  7  4  1  0  0  0  0
  7  2  2  0  0  0  0
  9  8  1  6  0  0  0
  9 11  1  0  0  0  0
  9  7  1  0  0  0  0
 10 13  2  0  0  0  0
 10 11  1  0  0  0  0
 11 12  2  0  0  0  0
 12 14  1  0  0  0  0
 13 15  1  0  0  0  0
 15 14  2  0  0  0  0
 17 16  1  0  0  0  0
 17  4  1  0  0  0  0
 18 20  1  0  0  0  0
 19 20  2  0  0  0  0
 20 21  1  0  0  0  0
 21 24  1  0  0  0  0
 22 29  1  0  0  0  0
 22 24  2  0  0  0  0
 23 29  2  0  0  0  0
 23 27  1  0  0  0  0
 24 28  1  0  0  0  0
 26 25  1  0  0  0  0
 27 26  2  0  0  0  0
 29 30  1  0  0  0  0
 30 28  1  0  0  0  0
 30 25  2  0  0  0  0
 31 27  1  0  0  0  0
 31 33  1  0  0  0  0
 32 31  2  0  0  0  0
M  END
>  <MODEL>
3

>  <REMARK>
 VINA RESULT:      -8.3      2.667      5.879
  Name = 
  8 active torsions:
  status: ('A' for Active; 'I' for Inactive)
    1  A    between atoms: N_2  and  N_8
    2  A    between atoms: C_5  and  C_27
    3  A    between atoms: N_8  and  C_11
    4  A    between atoms: C_9  and  C_19
    5  A    between atoms: C_12  and  O_22
    6  A    between atoms: C_16  and  C_29
    7  A    between atoms: C_17  and  C_19
    8  A    between atoms: C_28  and  C_29
                            x       y       z     vdW  Elec       q    Type
                         _______ _______ _______ _____ _____    ______ ____

>  <TORSDO>
F 8

$$$$
=
 OpenBabel11062414503D

 33 36  0  0  1  0  0  0  0  0999 V2000
  187.0550  178.6660  139.1910 N   0  0  0  0  0  0  0  0  0  0  0  0
  190.3080  177.3320  137.9290 C   0  0  0  0  0  3  0  0  0  0  0  0
  188.3630  178.0860  139.1570 C   0  0  0  0  0  0  0  0  0  0  0  0
  190.2940  177.1940  140.3490 C   0  0  0  0  0  0  0  0  0  0  0  0
  189.0200  177.8710  137.9430 C   0  0  0  0  0  3  0  0  0  0  0  0
  188.9980  177.7460  140.3500 C   0  0  0  0  0  3  0  0  0  0  0  0
  190.9570  177.0000  139.1270 C   0  0  0  0  0  0  0  0  0  0  0  0
  193.3040  177.3700  139.3930 O   0  0  0  0  0  1  0  0  0  0  0  0
  192.3340  176.4050  139.1010 C   0  0  2  0  0  3  0  0  0  0  0  0
  192.0470  174.4860  137.5260 C   0  0  0  0  0  3  0  0  0  0  0  0
  192.6260  175.7290  137.7970 C   0  0  0  0  0  0  0  0  0  0  0  0
  193.4580  176.3260  136.8400 C   0  0  0  0  0  3  0  0  0  0  0  0
  192.2950  173.8430  136.3080 C   0  0  0  0  0  3  0  0  0  0  0  0
  193.7070  175.6830  135.6250 C   0  0  0  0  0  3  0  0  0  0  0  0
  193.1230  174.4420  135.3580 C   0  0  0  0  0  3  0  0  0  0  0  0
  190.3350  176.0300  142.5380 C   0  0  0  0  0  1  0  0  0  0  0  0
  190.9380  176.8440  141.5440 O   0  0  0  0  0  0  0  0  0  0  0  0
  186.2520  178.6100  140.3390 N   0  0  0  0  0  0  0  0  0  0  0  0
  184.5520  179.9070  139.4150 O   0  0  0  0  0  0  0  0  0  0  0  0
  184.9150  179.1000  140.3140 C   0  0  0  0  0  0  0  0  0  0  0  0
  183.9410  178.6430  141.3490 C   0  0  0  0  0  2  0  0  0  0  0  0
  185.8380  177.8640  142.7790 N   0  0  0  0  0  0  0  0  0  0  0  0
  187.2070  177.5130  144.7820 C   0  0  0  0  0  3  0  0  0  0  0  0
  184.6260  178.4700  142.6660 C   0  0  0  0  0  0  0  0  0  0  0  0
  185.0710  178.8640  146.0860 C   0  0  0  0  0  3  0  0  0  0  0  0
  186.1930  178.4260  146.8160 C   0  0  0  0  0  3  0  0  0  0  0  0
  187.2580  177.7470  146.1730 C   0  0  0  0  0  0  0  0  0  0  0  0
  184.1080  178.9340  143.8390 N   0  0  0  0  0  2  0  0  0  0  0  0
  186.0860  177.9660  144.0930 C   0  0  0  0  0  0  0  0  0  0  0  0
  185.0560  178.6000  144.7210 C   0  0  0  0  0  0  0  0  0  0  0  0
  188.4180  177.2820  146.9520 C   0  0  0  0  0  0  0  0  0  0  0  0
  188.3370  177.1590  148.2080 O   0  0  0  0  0  1  0  0  0  0  0  0
  189.6160  176.9790  146.3140 O   0  0  0  0  0  0  0  0  0  0  0  0
  1 18  2  0  0  0  0
  2  5  2  0  0  0  0
  2  7  1  0  0  0  0
  3  1  1  0  0  0  0
  3  6  2  0  0  0  0
  4  6  1  0  0  0  0
  4 17  1  0  0  0  0
  5  3  1  0  0  0  0
  7  4  2  0  0  0  0
  9  7  1  0  0  0  0
  9  8  1  6  0  0  0
 10 11  1  0  0  0  0
 11  9  1  0  0  0  0
 12 11  2  0  0  0  0
 13 10  2  0  0  0  0
 14 12  1  0  0  0  0
 15 14  2  0  0  0  0
 15 13  1  0  0  0  0
 17 16  1  0  0  0  0
 19 20  2  0  0  0  0
 20 18  1  0  0  0  0
 20 21  1  0  0  0  0
 21 24  1  0  0  0  0
 22 29  1  0  0  0  0
 23 27  1  0  0  0  0
 24 22  2  0  0  0  0
 24 28  1  0  0  0  0
 25 26  1  0  0  0  0
 27 26  2  0  0  0  0
 27 31  1  0  0  0  0
 28 30  1  0  0  0  0
 29 30  1  0  0  0  0
 29 23  2  0  0  0  0
 30 25  2  0  0  0  0
 31 32  1  0  0  0  0
 33 31  2  0  0  0  0
M  END
>  <MODEL>
4

>  <REMARK>
 VINA RESULT:      -8.2      2.457      5.404
  Name = 
  8 active torsions:
  status: ('A' for Active; 'I' for Inactive)
    1  A    between atoms: N_2  and  N_8
    2  A    between atoms: C_5  and  C_27
    3  A    between atoms: N_8  and  C_11
    4  A    between atoms: C_9  and  C_19
    5  A    between atoms: C_12  and  O_22
    6  A    between atoms: C_16  and  C_29
    7  A    between atoms: C_17  and  C_19
    8  A    between atoms: C_28  and  C_29
                            x       y       z     vdW  Elec       q    Type
                         _______ _______ _______ _____ _____    ______ ____

>  <TORSDO>
F 8

$$$$
=
 OpenBabel11062414503D

 33 36  0  0  1  0  0  0  0  0999 V2000
  184.2150  178.9750  141.6490 N   0  0  0  0  0  2  0  0  0  0  0  0
  185.7130  178.9820  145.0720 C   0  0  0  0  0  3  0  0  0  0  0  0
  185.0220  178.6270  142.7780 C   0  0  0  0  0  0  0  0  0  0  0  0
  186.6800  177.1590  143.7990 C   0  0  0  0  0  0  0  0  0  0  0  0
  184.9410  179.3530  143.9690 C   0  0  0  0  0  3  0  0  0  0  0  0
  185.8890  177.5390  142.6980 C   0  0  0  0  0  3  0  0  0  0  0  0
  186.5780  177.8800  144.9990 C   0  0  0  0  0  0  0  0  0  0  0  0
  187.0940  178.2750  147.2990 O   0  0  0  0  0  1  0  0  0  0  0  0
  187.4180  177.4990  146.1830 C   0  0  2  0  0  3  0  0  0  0  0  0
  189.7660  176.7090  146.5200 C   0  0  0  0  0  3  0  0  0  0  0  0
  188.8830  177.5830  145.8790 C   0  0  0  0  0  0  0  0  0  0  0  0
  189.3800  178.5120  144.9560 C   0  0  0  0  0  3  0  0  0  0  0  0
  191.1360  176.7600  146.2400 C   0  0  0  0  0  3  0  0  0  0  0  0
  190.7490  178.5650  144.6790 C   0  0  0  0  0  3  0  0  0  0  0  0
  191.6270  177.6870  145.3200 C   0  0  0  0  0  3  0  0  0  0  0  0
  188.6770  176.0370  142.8520 C   0  0  0  0  0  1  0  0  0  0  0  0
  187.5590  176.0700  143.7240 O   0  0  0  0  0  0  0  0  0  0  0  0
  184.3220  178.2970  140.4270 N   0  0  0  0  0  2  0  0  0  0  0  0
  184.4740  180.2500  139.1670 O   0  0  0  0  0  0  0  0  0  0  0  0
  184.6420  179.0010  139.2320 C   0  0  0  0  0  0  0  0  0  0  0  0
  185.1920  178.2560  138.0610 C   0  0  0  0  0  2  0  0  0  0  0  0
  187.3590  178.4480  139.2930 N   0  0  0  0  0  0  0  0  0  0  0  0
  189.6670  177.9660  139.9610 C   0  0  0  0  0  3  0  0  0  0  0  0
  186.6150  177.8740  138.3110 C   0  0  0  0  0  0  0  0  0  0  0  0
  189.5260  176.0320  137.8810 C   0  0  0  0  0  3  0  0  0  0  0  0
  190.7000  176.1770  138.6460 C   0  0  0  0  0  3  0  0  0  0  0  0
  190.7790  177.1420  139.6800 C   0  0  0  0  0  0  0  0  0  0  0  0
  187.2580  176.9020  137.6010 N   0  0  0  0  0  2  0  0  0  0  0  0
  188.5230  177.7900  139.1890 C   0  0  0  0  0  0  0  0  0  0  0  0
  188.4620  176.8740  138.1830 C   0  0  0  0  0  0  0  0  0  0  0  0
  192.0180  177.2920  140.4620 C   0  0  0  0  0  0  0  0  0  0  0  0
  191.9870  177.2300  141.7250 O   0  0  0  0  0  1  0  0  0  0  0  0
  193.2310  177.5100  139.8210 O   0  0  0  0  0  0  0  0  0  0  0  0
  1  3  1  0  0  0  0
  3  5  1  0  0  0  0
  4  7  2  0  0  0  0
  5  2  2  0  0  0  0
  6  3  2  0  0  0  0
  6  4  1  0  0  0  0
  7  2  1  0  0  0  0
  7  9  1  0  0  0  0
  9  8  1  1  0  0  0
 11  9  1  0  0  0  0
 11 10  2  0  0  0  0
 12 11  1  0  0  0  0
 13 10  1  0  0  0  0
 14 12  2  0  0  0  0
 14 15  1  0  0  0  0
 15 13  2  0  0  0  0
 16 17  1  0  0  0  0
 17  4  1  0  0  0  0
 18  1  1  0  0  0  0
 19 20  2  0  0  0  0
 20 18  1  0  0  0  0
 21 24  1  0  0  0  0
 21 20  1  0  0  0  0
 24 22  2  0  0  0  0
 25 30  2  0  0  0  0
 25 26  1  0  0  0  0
 26 27  2  0  0  0  0
 27 23  1  0  0  0  0
 27 31  1  0  0  0  0
 28 30  1  0  0  0  0
 28 24  1  0  0  0  0
 29 22  1  0  0  0  0
 29 23  2  0  0  0  0
 30 29  1  0  0  0  0
 31 32  1  0  0  0  0
 33 31  2  0  0  0  0
M  END
>  <MODEL>
5

>  <REMARK>
 VINA RESULT:      -8.2      2.556      7.996
  Name = 
  8 active torsions:
  status: ('A' for Active; 'I' for Inactive)
    1  A    between atoms: N_2  and  N_8
    2  A    between atoms: C_5  and  C_27
    3  A    between atoms: N_8  and  C_11
    4  A    between atoms: C_9  and  C_19
    5  A    between atoms: C_12  and  O_22
    6  A    between atoms: C_16  and  C_29
    7  A    between atoms: C_17  and  C_19
    8  A    between atoms: C_28  and  C_29
                            x       y       z     vdW  Elec       q    Type
                         _______ _______ _______ _____ _____    ______ ____

>  <TORSDO>
F 8

$$$$
=
 OpenBabel11062414503D

 33 36  0  0  1  0  0  0  0  0999 V2000
  191.8670  177.1100  141.7260 N   0  0  0  0  0  2  0  0  0  0  0  0
  189.0760  177.6600  144.1470 C   0  0  0  0  0  3  0  0  0  0  0  0
  191.1390  177.2400  142.9500 C   0  0  0  0  0  0  0  0  0  0  0  0
  191.0900  177.1230  145.3850 C   0  0  0  0  0  0  0  0  0  0  0  0
  189.7800  177.5660  142.9440 C   0  0  0  0  0  3  0  0  0  0  0  0
  191.7860  177.0240  144.1650 C   0  0  0  0  0  3  0  0  0  0  0  0
  189.7210  177.4300  145.3710 C   0  0  0  0  0  0  0  0  0  0  0  0
  189.0340  176.3660  147.3990 O   0  0  0  0  0  1  0  0  0  0  0  0
  188.9600  177.5510  146.6600 C   0  0  2  0  0  3  0  0  0  0  0  0
  186.8640  177.4810  145.3000 C   0  0  0  0  0  3  0  0  0  0  0  0
  187.5350  177.9530  146.4320 C   0  0  0  0  0  0  0  0  0  0  0  0
  186.8610  178.7810  147.3390 C   0  0  0  0  0  3  0  0  0  0  0  0
  185.5290  177.8320  145.0740 C   0  0  0  0  0  3  0  0  0  0  0  0
  185.5270  179.1330  147.1120 C   0  0  0  0  0  3  0  0  0  0  0  0
  184.8610  178.6570  145.9800 C   0  0  0  0  0  3  0  0  0  0  0  0
  192.3050  175.6690  146.9830 C   0  0  0  0  0  1  0  0  0  0  0  0
  191.7350  176.9130  146.6120 O   0  0  0  0  0  0  0  0  0  0  0  0
  191.4690  177.7710  140.5550 N   0  0  0  0  0  2  0  0  0  0  0  0
  190.4530  175.8860  139.6390 O   0  0  0  0  0  0  0  0  0  0  0  0
  190.5910  177.1400  139.6280 C   0  0  0  0  0  0  0  0  0  0  0  0
  189.8240  177.9710  138.6540 C   0  0  0  0  0  2  0  0  0  0  0  0
  187.3560  178.2270  138.3540 N   0  0  0  0  0  0  0  0  0  0  0  0
  184.9960  178.5510  138.9340 C   0  0  0  0  0  3  0  0  0  0  0  0
  188.4450  178.2320  139.1670 C   0  0  0  0  0  0  0  0  0  0  0  0
  186.0140  178.8090  141.5770 C   0  0  0  0  0  3  0  0  0  0  0  0
  184.6310  178.9050  141.3300 C   0  0  0  0  0  3  0  0  0  0  0  0
  184.1170  178.7830  140.0150 C   0  0  0  0  0  0  0  0  0  0  0  0
  188.1740  178.4580  140.4840 N   0  0  0  0  0  2  0  0  0  0  0  0
  186.3550  178.4550  139.2180 C   0  0  0  0  0  0  0  0  0  0  0  0
  186.8430  178.5940  140.4820 C   0  0  0  0  0  0  0  0  0  0  0  0
  182.6700  178.8990  139.7690 C   0  0  0  0  0  0  0  0  0  0  0  0
  182.2260  178.9570  138.5870 O   0  0  0  0  0  0  0  0  0  0  0  0
  181.7790  178.9530  140.8350 O   0  0  0  0  0  1  0  0  0  0  0  0
  1  3  1  0  0  0  0
  2  7  1  0  0  0  0
  3  6  2  0  0  0  0
  4 17  1  0  0  0  0
  5  3  1  0  0  0  0
  5  2  2  0  0  0  0
  6  4  1  0  0  0  0
  7  4  2  0  0  0  0
  7  9  1  0  0  0  0
  9  8  1  6  0  0  0
 10 11  1  0  0  0  0
 11  9  1  0  0  0  0
 11 12  2  0  0  0  0
 13 10  2  0  0  0  0
 13 15  1  0  0  0  0
 14 12  1  0  0  0  0
 15 14  2  0  0  0  0
 17 16  1  0  0  0  0
 18  1  1  0  0  0  0
 20 19  2  0  0  0  0
 20 18  1  0  0  0  0
 21 24  1  0  0  0  0
 21 20  1  0  0  0  0
 22 24  2  0  0  0  0
 22 29  1  0  0  0  0
 23 29  2  0  0  0  0
 23 27  1  0  0  0  0
 24 28  1  0  0  0  0
 26 25  1  0  0  0  0
 27 26  2  0  0  0  0
 29 30  1  0  0  0  0
 30 28  1  0  0  0  0
 30 25  2  0  0  0  0
 31 27  1  0  0  0  0
 31 33  1  0  0  0  0
 32 31  2  0  0  0  0
M  END
>  <MODEL>
6

>  <REMARK>
 VINA RESULT:      -8.1      2.327      6.283
  Name = 
  8 active torsions:
  status: ('A' for Active; 'I' for Inactive)
    1  A    between atoms: N_2  and  N_8
    2  A    between atoms: C_5  and  C_27
    3  A    between atoms: N_8  and  C_11
    4  A    between atoms: C_9  and  C_19
    5  A    between atoms: C_12  and  O_22
    6  A    between atoms: C_16  and  C_29
    7  A    between atoms: C_17  and  C_19
    8  A    between atoms: C_28  and  C_29
                            x       y       z     vdW  Elec       q    Type
                         _______ _______ _______ _____ _____    ______ ____

>  <TORSDO>
F 8

$$$$
=
 OpenBabel11062414503D

 33 36  0  0  1  0  0  0  0  0999 V2000
  184.0310  178.9970  145.5220 N   0  0  0  0  0  0  0  0  0  0  0  0
  181.3140  178.9910  142.9570 C   0  0  0  0  0  3  0  0  0  0  0  0
  183.3480  178.8990  144.2680 C   0  0  0  0  0  0  0  0  0  0  0  0
  183.4320  178.5780  141.8530 C   0  0  0  0  0  0  0  0  0  0  0  0
  181.9620  179.0590  144.1930 C   0  0  0  0  0  3  0  0  0  0  0  0
  184.0740  178.6580  143.1030 C   0  0  0  0  0  3  0  0  0  0  0  0
  182.0430  178.7610  141.7810 C   0  0  0  0  0  0  0  0  0  0  0  0
  180.3310  179.6370  140.3610 O   0  0  0  0  0  1  0  0  0  0  0  0
  181.3360  178.6710  140.4600 C   0  0  2  0  0  3  0  0  0  0  0  0
  179.5930  176.9180  140.8320 C   0  0  0  0  0  3  0  0  0  0  0  0
  180.7870  177.2990  140.2120 C   0  0  0  0  0  0  0  0  0  0  0  0
  181.4420  176.3980  139.3630 C   0  0  0  0  0  3  0  0  0  0  0  0
  179.0550  175.6470  140.6040 C   0  0  0  0  0  3  0  0  0  0  0  0
  180.9050  175.1270  139.1370 C   0  0  0  0  0  3  0  0  0  0  0  0
  179.7100  174.7520  139.7570 C   0  0  0  0  0  3  0  0  0  0  0  0
  185.3600  179.0020  140.3530 C   0  0  0  0  0  1  0  0  0  0  0  0
  184.1550  178.3290  140.6770 O   0  0  0  0  0  0  0  0  0  0  0  0
  185.2860  178.4070  145.7270 N   0  0  0  0  0  0  0  0  0  0  0  0
  185.8240  179.7860  147.5260 O   0  0  0  0  0  0  0  0  0  0  0  0
  186.0590  178.7280  146.8790 C   0  0  0  0  0  0  0  0  0  0  0  0
  187.1390  177.8010  147.3260 C   0  0  0  0  0  2  0  0  0  0  0  0
  187.8190  177.4890  144.9410 N   0  0  0  0  0  0  0  0  0  0  0  0
  189.2740  177.2750  142.9800 C   0  0  0  0  0  3  0  0  0  0  0  0
  188.1610  177.6360  146.2480 C   0  0  0  0  0  0  0  0  0  0  0  0
  191.3570  177.5100  144.9010 C   0  0  0  0  0  3  0  0  0  0  0  0
  191.6580  177.3680  143.5320 C   0  0  0  0  0  3  0  0  0  0  0  0
  190.6250  177.2450  142.5700 C   0  0  0  0  0  0  0  0  0  0  0  0
  189.5030  177.6560  146.4890 N   0  0  0  0  0  2  0  0  0  0  0  0
  189.0160  177.4230  144.3400 C   0  0  0  0  0  0  0  0  0  0  0  0
  190.0140  177.5200  145.2600 C   0  0  0  0  0  0  0  0  0  0  0  0
  190.9540  177.0830  141.1440 C   0  0  0  0  0  0  0  0  0  0  0  0
  190.2080  176.3930  140.3910 O   0  0  0  0  0  0  0  0  0  0  0  0
  192.0900  177.6810  140.6130 O   0  0  0  0  0  1  0  0  0  0  0  0
  1 18  2  0  0  0  0
  2  5  1  0  0  0  0
  3  1  1  0  0  0  0
  4  6  2  0  0  0  0
  5  3  2  0  0  0  0
  6  3  1  0  0  0  0
  7  4  1  0  0  0  0
  7  2  2  0  0  0  0
  9  8  1  1  0  0  0
  9  7  1  0  0  0  0
 11  9  1  0  0  0  0
 11 10  2  0  0  0  0
 12 11  1  0  0  0  0
 13 10  1  0  0  0  0
 14 12  2  0  0  0  0
 14 15  1  0  0  0  0
 15 13  2  0  0  0  0
 16 17  1  0  0  0  0
 17  4  1  0  0  0  0
 18 20  1  0  0  0  0
 20 21  1  0  0  0  0
 20 19  2  0  0  0  0
 22 24  2  0  0  0  0
 23 29  1  0  0  0  0
 24 28  1  0  0  0  0
 24 21  1  0  0  0  0
 25 30  1  0  0  0  0
 26 25  2  0  0  0  0
 27 23  2  0  0  0  0
 27 26  1  0  0  0  0
 29 22  1  0  0  0  0
 29 30  2  0  0  0  0
 30 28  1  0  0  0  0
 31 27  1  0  0  0  0
 32 31  2  0  0  0  0
 33 31  1  0  0  0  0
M  END
>  <MODEL>
7

>  <REMARK>
 VINA RESULT:      -8.1      2.791      6.799
  Name = 
  8 active torsions:
  status: ('A' for Active; 'I' for Inactive)
    1  A    between atoms: N_2  and  N_8
    2  A    between atoms: C_5  and  C_27
    3  A    between atoms: N_8  and  C_11
    4  A    between atoms: C_9  and  C_19
    5  A    between atoms: C_12  and  O_22
    6  A    between atoms: C_16  and  C_29
    7  A    between atoms: C_17  and  C_19
    8  A    between atoms: C_28  and  C_29
                            x       y       z     vdW  Elec       q    Type
                         _______ _______ _______ _____ _____    ______ ____

>  <TORSDO>
F 8

$$$$
=
 OpenBabel11062414503D

 33 36  0  0  1  0  0  0  0  0999 V2000
  184.3950  178.8590  141.3510 N   0  0  0  0  0  2  0  0  0  0  0  0
  185.6720  178.2290  137.8980 C   0  0  0  0  0  3  0  0  0  0  0  0
  185.2810  178.5980  140.2580 C   0  0  0  0  0  0  0  0  0  0  0  0
  187.5500  178.2670  139.4300 C   0  0  0  0  0  0  0  0  0  0  0  0
  184.7910  178.4540  138.9580 C   0  0  0  0  0  3  0  0  0  0  0  0
  186.6520  178.5020  140.4890 C   0  0  0  0  0  3  0  0  0  0  0  0
  187.0540  178.1440  138.1230 C   0  0  0  0  0  0  0  0  0  0  0  0
  187.4510  178.3380  135.7740 O   0  0  0  0  0  1  0  0  0  0  0  0
  187.9920  177.8840  136.9810 C   0  0  2  0  0  3  0  0  0  0  0  0
  189.7200  176.0910  136.7690 C   0  0  0  0  0  3  0  0  0  0  0  0
  188.3710  176.4380  136.8880 C   0  0  0  0  0  0  0  0  0  0  0  0
  187.4000  175.4290  136.9300 C   0  0  0  0  0  3  0  0  0  0  0  0
  190.0990  174.7460  136.6940 C   0  0  0  0  0  3  0  0  0  0  0  0
  187.7780  174.0850  136.8540 C   0  0  0  0  0  3  0  0  0  0  0  0
  189.1290  173.7440  136.7380 C   0  0  0  0  0  3  0  0  0  0  0  0
  189.4980  177.2420  140.5710 C   0  0  0  0  0  1  0  0  0  0  0  0
  188.9300  178.1630  139.6550 O   0  0  0  0  0  0  0  0  0  0  0  0
  184.5850  178.2770  142.6120 N   0  0  0  0  0  2  0  0  0  0  0  0
  184.9280  180.3150  143.6870 O   0  0  0  0  0  0  0  0  0  0  0  0
  184.6600  179.0850  143.7820 C   0  0  0  0  0  0  0  0  0  0  0  0
  184.4080  178.4740  145.1200 C   0  0  0  0  0  2  0  0  0  0  0  0
  186.7620  177.6380  145.1880 N   0  0  0  0  0  0  0  0  0  0  0  0
  188.9990  177.1520  146.0650 C   0  0  0  0  0  3  0  0  0  0  0  0
  185.7000  178.2040  145.8200 C   0  0  0  0  0  0  0  0  0  0  0  0
  187.9580  178.2890  148.4540 C   0  0  0  0  0  3  0  0  0  0  0  0
  189.2870  177.8270  148.4010 C   0  0  0  0  0  3  0  0  0  0  0  0
  189.8110  177.2540  147.2150 C   0  0  0  0  0  0  0  0  0  0  0  0
  185.9210  178.5340  147.1240 N   0  0  0  0  0  2  0  0  0  0  0  0
  187.6930  177.6240  146.1530 C   0  0  0  0  0  0  0  0  0  0  0  0
  187.1910  178.1550  147.3030 C   0  0  0  0  0  0  0  0  0  0  0  0
  191.1980  176.7630  147.1780 C   0  0  0  0  0  0  0  0  0  0  0  0
  191.9920  177.0190  148.1290 O   0  0  0  0  0  1  0  0  0  0  0  0
  191.6510  176.0170  146.0960 O   0  0  0  0  0  0  0  0  0  0  0  0
  1 18  1  0  0  0  0
  2  7  2  0  0  0  0
  2  5  1  0  0  0  0
  3  6  1  0  0  0  0
  3  1  1  0  0  0  0
  4 17  1  0  0  0  0
  4  6  2  0  0  0  0
  5  3  2  0  0  0  0
  7  4  1  0  0  0  0
  9  8  1  6  0  0  0
  9  7  1  0  0  0  0
 10 11  1  0  0  0  0
 11 12  2  0  0  0  0
 11  9  1  0  0  0  0
 13 15  1  0  0  0  0
 13 10  2  0  0  0  0
 14 12  1  0  0  0  0
 15 14  2  0  0  0  0
 17 16  1  0  0  0  0
 18 20  1  0  0  0  0
 19 20  2  0  0  0  0
 20 21  1  0  0  0  0
 21 24  1  0  0  0  0
 22 24  2  0  0  0  0
 22 29  1  0  0  0  0
 23 29  2  0  0  0  0
 23 27  1  0  0  0  0
 24 28  1  0  0  0  0
 26 25  1  0  0  0  0
 27 26  2  0  0  0  0
 28 30  1  0  0  0  0
 29 30  1  0  0  0  0
 30 25  2  0  0  0  0
 31 27  1  0  0  0  0
 31 32  1  0  0  0  0
 33 31  2  0  0  0  0
M  END
>  <MODEL>
8

>  <REMARK>
 VINA RESULT:      -8.1      2.260      5.358
  Name = 
  8 active torsions:
  status: ('A' for Active; 'I' for Inactive)
    1  A    between atoms: N_2  and  N_8
    2  A    between atoms: C_5  and  C_27
    3  A    between atoms: N_8  and  C_11
    4  A    between atoms: C_9  and  C_19
    5  A    between atoms: C_12  and  O_22
    6  A    between atoms: C_16  and  C_29
    7  A    between atoms: C_17  and  C_19
    8  A    between atoms: C_28  and  C_29
                            x       y       z     vdW  Elec       q    Type
                         _______ _______ _______ _____ _____    ______ ____

>  <TORSDO>
F 8

$$$$
=
 OpenBabel11062414503D

 33 36  0  0  1  0  0  0  0  0999 V2000
  184.9560  178.3680  138.1210 N   0  0  0  0  0  2  0  0  0  0  0  0
  185.3650  179.0240  141.7760 C   0  0  0  0  0  3  0  0  0  0  0  0
  184.6680  178.5050  139.5160 C   0  0  0  0  0  0  0  0  0  0  0  0
  183.0520  178.4410  141.3410 C   0  0  0  0  0  0  0  0  0  0  0  0
  185.6680  178.8650  140.4220 C   0  0  0  0  0  3  0  0  0  0  0  0
  183.3700  178.2920  139.9770 C   0  0  0  0  0  3  0  0  0  0  0  0
  184.0570  178.8230  142.2420 C   0  0  0  0  0  0  0  0  0  0  0  0
  183.3270  180.2810  143.9900 O   0  0  0  0  0  1  0  0  0  0  0  0
  183.7440  178.9780  143.7020 C   0  0  2  0  0  3  0  0  0  0  0  0
  184.9330  179.0010  145.9000 C   0  0  0  0  0  3  0  0  0  0  0  0
  184.9010  178.5820  144.5670 C   0  0  0  0  0  0  0  0  0  0  0  0
  185.9430  177.7900  144.0670 C   0  0  0  0  0  3  0  0  0  0  0  0
  185.9980  178.6310  146.7300 C   0  0  0  0  0  3  0  0  0  0  0  0
  187.0070  177.4220  144.8960 C   0  0  0  0  0  3  0  0  0  0  0  0
  187.0330  177.8420  146.2280 C   0  0  0  0  0  3  0  0  0  0  0  0
  180.7300  179.2060  141.7530 C   0  0  0  0  0  1  0  0  0  0  0  0
  181.7510  178.2220  141.8140 O   0  0  0  0  0  0  0  0  0  0  0  0
  185.9900  177.5420  137.6570 N   0  0  0  0  0  2  0  0  0  0  0  0
  187.3080  179.3200  136.9310 O   0  0  0  0  0  0  0  0  0  0  0  0
  187.2330  178.1000  137.2420 C   0  0  0  0  0  0  0  0  0  0  0  0
  188.4490  177.2360  137.1890 C   0  0  0  0  0  2  0  0  0  0  0  0
  188.6040  177.3260  139.6820 N   0  0  0  0  0  0  0  0  0  0  0  0
  189.6110  177.4080  141.9150 C   0  0  0  0  0  3  0  0  0  0  0  0
  189.2150  177.3390  138.4670 C   0  0  0  0  0  0  0  0  0  0  0  0
  192.0520  177.4940  140.4610 C   0  0  0  0  0  3  0  0  0  0  0  0
  192.0570  177.5050  141.8690 C   0  0  0  0  0  3  0  0  0  0  0  0
  190.8440  177.4670  142.6000 C   0  0  0  0  0  0  0  0  0  0  0  0
  190.5760  177.4180  138.5130 N   0  0  0  0  0  2  0  0  0  0  0  0
  189.6460  177.3930  140.5240 C   0  0  0  0  0  0  0  0  0  0  0  0
  190.8150  177.4500  139.8290 C   0  0  0  0  0  0  0  0  0  0  0  0
  190.8640  177.4930  144.0720 C   0  0  0  0  0  0  0  0  0  0  0  0
  191.4280  176.5650  144.7200 O   0  0  0  0  0  0  0  0  0  0  0  0
  190.2570  178.5350  144.7650 O   0  0  0  0  0  1  0  0  0  0  0  0
  1  3  1  0  0  0  0
  2  7  1  0  0  0  0
  3  6  2  0  0  0  0
  3  5  1  0  0  0  0
  4 17  1  0  0  0  0
  4  7  2  0  0  0  0
  5  2  2  0  0  0  0
  6  4  1  0  0  0  0
  7  9  1  0  0  0  0
  9  8  1  6  0  0  0
  9 11  1  0  0  0  0
 10 13  1  0  0  0  0
 11 10  2  0  0  0  0
 12 11  1  0  0  0  0
 12 14  2  0  0  0  0
 14 15  1  0  0  0  0
 15 13  2  0  0  0  0
 16 17  1  0  0  0  0
 18  1  1  0  0  0  0
 19 20  2  0  0  0  0
 20 18  1  0  0  0  0
 21 20  1  0  0  0  0
 21 24  1  0  0  0  0
 22 29  1  0  0  0  0
 23 27  1  0  0  0  0
 24 28  1  0  0  0  0
 24 22  2  0  0  0  0
 25 26  1  0  0  0  0
 26 27  2  0  0  0  0
 27 31  1  0  0  0  0
 28 30  1  0  0  0  0
 29 23  2  0  0  0  0
 30 25  2  0  0  0  0
 30 29  1  0  0  0  0
 31 32  2  0  0  0  0
 31 33  1  0  0  0  0
M  END
>  <MODEL>
9

>  <REMARK>
 VINA RESULT:      -8.1      2.344      8.023
  Name = 
  8 active torsions:
  status: ('A' for Active; 'I' for Inactive)
    1  A    between atoms: N_2  and  N_8
    2  A    between atoms: C_5  and  C_27
    3  A    between atoms: N_8  and  C_11
    4  A    between atoms: C_9  and  C_19
    5  A    between atoms: C_12  and  O_22
    6  A    between atoms: C_16  and  C_29
    7  A    between atoms: C_17  and  C_19
    8  A    between atoms: C_28  and  C_29
                            x       y       z     vdW  Elec       q    Type
                         _______ _______ _______ _____ _____    ______ ____

>  <TORSDO>
F 8

$$$$
