=
 OpenBabel11062413343D

 28 29  0  0  1  0  0  0  0  0999 V2000
  184.8560  178.4480  144.8210 C   0  0  0  0  0  0  0  0  0  0  0  0
  186.0640  177.9480  144.4410 N   0  0  0  0  0  0  0  0  0  0  0  0
  184.6530  178.8080  146.1170 N   0  0  0  0  0  0  0  0  0  0  0  0
  187.0730  177.7990  145.3390 C   0  0  0  0  0  0  0  0  0  0  0  0
  185.6400  178.6790  147.0430 C   0  0  0  0  0  3  0  0  0  0  0  0
  186.8820  178.1690  146.6690 C   0  0  0  0  0  3  0  0  0  0  0  0
  182.7210  178.8690  141.9270 N   0  0  0  0  0  0  0  0  0  0  0  0
  181.8630  178.7630  142.9640 C   0  0  0  0  0  0  0  0  0  0  0  0
  183.9430  178.7630  142.4790 C   0  0  0  0  0  2  0  0  0  0  0  0
  182.4700  178.6010  144.1550 N   0  0  0  0  0  0  0  0  0  0  0  0
  183.7770  178.6000  143.8380 C   0  0  0  0  0  0  0  0  0  0  0  0
  180.3760  178.8430  142.8200 C   0  0  2  0  0  3  0  0  0  0  0  0
  179.8900  180.2780  142.9410 C   0  0  0  0  0  1  0  0  0  0  0  0
  179.7140  177.9910  143.7800 N   0  0  0  0  0  0  0  0  0  0  0  0
  179.0160  178.4480  144.6340 O   0  0  0  0  0  0  0  0  0  0  0  0
  188.3910  177.2710  144.8930 C   0  0  0  0  0  2  0  0  0  0  0  0
  189.2360  178.4020  144.3290 C   0  0  0  0  0  2  0  0  0  0  0  0
  190.5660  177.8680  143.8190 C   0  0  2  0  0  3  0  0  0  0  0  0
  191.7150  177.5300  141.2130 O   0  0  0  0  0  0  0  0  0  0  0  0
  190.3620  177.1560  142.1560 P   0  0  0  0  0  0  0  0  0  0  0  0
  190.2140  175.6540  142.2480 O   0  0  0  0  0  1  0  0  0  0  0  0
  188.9810  177.8100  141.4320 O   0  0  0  0  0  1  0  0  0  0  0  0
  191.1760  176.8500  144.7800 C   0  0  0  0  0  2  0  0  0  0  0  0
  191.8090  177.4870  145.8530 O   0  0  0  0  0  0  0  0  0  0  0  0
  192.2800  175.1040  146.8580 O   0  0  0  0  0  0  0  0  0  0  0  0
  189.9950  176.2030  147.5180 O   0  0  0  0  0  1  0  0  0  0  0  0
  192.3940  177.1140  148.5210 O   0  0  0  0  0  1  0  0  0  0  0  0
  191.6360  176.4350  147.1710 P   0  0  0  0  0  0  0  0  0  0  0  0
  1  3  1  0  0  0  0
  2  1  2  0  0  0  0
  2  4  1  0  0  0  0
  3  5  2  0  0  0  0
  4  6  2  0  0  0  0
  6  5  1  0  0  0  0
  7  9  1  0  0  0  0
  7  8  2  0  0  0  0
  8 10  1  0  0  0  0
  9 11  1  0  0  0  0
 11 10  2  0  0  0  0
 11  1  1  0  0  0  0
 12 13  1  1  0  0  0
 12  8  1  0  0  0  0
 12 14  1  0  0  0  0
 14 15  2  0  0  0  0
 16  4  1  0  0  0  0
 17 16  1  0  0  0  0
 18 17  1  1  0  0  0
 18 23  1  0  0  0  0
 19 20  2  0  0  0  0
 20 21  1  0  0  0  0
 20 18  1  0  0  0  0
 22 20  1  0  0  0  0
 23 24  1  0  0  0  0
 24 28  1  0  0  0  0
 25 28  2  0  0  0  0
 28 26  1  0  0  0  0
 28 27  1  0  0  0  0
M  END
>  <MODEL>
1

>  <REMARK>
 VINA RESULT:      -7.6      0.000      0.000
  Name = 
  10 active torsions:
  status: ('A' for Active; 'I' for Inactive)
    1  A    between atoms: O_1  and  C_5
    2  A    between atoms: O_1  and  P_23
    3  A    between atoms: N_2  and  C_6
    4  A    between atoms: C_3  and  C_17
    5  A    between atoms: C_5  and  C_19
    6  A    between atoms: C_6  and  C_10
    7  A    between atoms: P_16  and  C_19
    8  A    between atoms: C_18  and  C_19
    9  A    between atoms: C_18  and  C_22
   10  A    between atoms: C_20  and  C_22
                            x       y       z     vdW  Elec       q    Type
                         _______ _______ _______ _____ _____    ______ ____

>  <TORSDO>
F 10

$$$$
=
 OpenBabel11062413343D

 28 29  0  0  1  0  0  0  0  0999 V2000
  184.8540  178.4620  144.8760 C   0  0  0  0  0  0  0  0  0  0  0  0
  186.0520  177.9780  144.4500 N   0  0  0  0  0  0  0  0  0  0  0  0
  184.6820  178.7780  146.1880 N   0  0  0  0  0  0  0  0  0  0  0  0
  187.0840  177.8000  145.3170 C   0  0  0  0  0  0  0  0  0  0  0  0
  185.6910  178.6190  147.0840 C   0  0  0  0  0  3  0  0  0  0  0  0
  186.9250  178.1250  146.6640 C   0  0  0  0  0  3  0  0  0  0  0  0
  182.6370  178.8490  142.0380 N   0  0  0  0  0  0  0  0  0  0  0  0
  181.8280  178.9530  143.1140 C   0  0  0  0  0  0  0  0  0  0  0  0
  183.8650  178.6500  142.5510 C   0  0  0  0  0  2  0  0  0  0  0  0
  182.4710  178.8380  144.2900 N   0  0  0  0  0  0  0  0  0  0  0  0
  183.7510  178.6460  143.9250 C   0  0  0  0  0  0  0  0  0  0  0  0
  180.3550  179.1990  143.0200 C   0  0  2  0  0  3  0  0  0  0  0  0
  179.7360  178.4000  141.8850 C   0  0  0  0  0  1  0  0  0  0  0  0
  180.0710  180.6080  142.8730 N   0  0  0  0  0  0  0  0  0  0  0  0
  179.6840  181.0560  141.8350 O   0  0  0  0  0  0  0  0  0  0  0  0
  188.3910  177.2900  144.8220 C   0  0  0  0  0  2  0  0  0  0  0  0
  188.6610  177.8300  143.4270 C   0  0  0  0  0  2  0  0  0  0  0  0
  189.5300  176.8600  142.6410 C   0  0  2  0  0  3  0  0  0  0  0  0
  191.8570  175.8100  143.9490 O   0  0  0  0  0  1  0  0  0  0  0  0
  191.2870  177.1200  143.0450 P   0  0  0  0  0  0  0  0  0  0  0  0
  192.0990  177.2460  141.7760 O   0  0  0  0  0  0  0  0  0  0  0  0
  191.4480  178.5370  143.9540 O   0  0  0  0  0  1  0  0  0  0  0  0
  189.2910  176.9740  141.1370 C   0  0  0  0  0  2  0  0  0  0  0  0
  188.9990  178.2930  140.7720 O   0  0  0  0  0  0  0  0  0  0  0  0
  189.0590  179.2250  138.3150 O   0  0  0  0  0  0  0  0  0  0  0  0
  186.7120  178.4780  139.2080 O   0  0  0  0  0  1  0  0  0  0  0  0
  188.6800  176.6550  138.5780 O   0  0  0  0  0  1  0  0  0  0  0  0
  188.3820  178.2000  139.1960 P   0  0  0  0  0  0  0  0  0  0  0  0
  1  3  1  0  0  0  0
  2  1  2  0  0  0  0
  2  4  1  0  0  0  0
  3  5  2  0  0  0  0
  4  6  2  0  0  0  0
  6  5  1  0  0  0  0
  7  9  1  0  0  0  0
  7  8  2  0  0  0  0
  8 10  1  0  0  0  0
  9 11  1  0  0  0  0
 11 10  2  0  0  0  0
 11  1  1  0  0  0  0
 12 13  1  6  0  0  0
 12  8  1  0  0  0  0
 14 12  1  0  0  0  0
 15 14  2  0  0  0  0
 16  4  1  0  0  0  0
 17 16  1  0  0  0  0
 18 23  1  6  0  0  0
 18 20  1  0  0  0  0
 18 17  1  0  0  0  0
 20 19  1  0  0  0  0
 20 22  1  0  0  0  0
 21 20  2  0  0  0  0
 24 23  1  0  0  0  0
 25 28  2  0  0  0  0
 27 28  1  0  0  0  0
 28 26  1  0  0  0  0
 28 24  1  0  0  0  0
M  END
>  <MODEL>
2

>  <REMARK>
 VINA RESULT:      -7.6      2.037      4.188
  Name = 
  10 active torsions:
  status: ('A' for Active; 'I' for Inactive)
    1  A    between atoms: O_1  and  C_5
    2  A    between atoms: O_1  and  P_23
    3  A    between atoms: N_2  and  C_6
    4  A    between atoms: C_3  and  C_17
    5  A    between atoms: C_5  and  C_19
    6  A    between atoms: C_6  and  C_10
    7  A    between atoms: P_16  and  C_19
    8  A    between atoms: C_18  and  C_19
    9  A    between atoms: C_18  and  C_22
   10  A    between atoms: C_20  and  C_22
                            x       y       z     vdW  Elec       q    Type
                         _______ _______ _______ _____ _____    ______ ____

>  <TORSDO>
F 10

$$$$
=
 OpenBabel11062413343D

 28 29  0  0  1  0  0  0  0  0999 V2000
  185.1740  178.4330  144.8120 C   0  0  0  0  0  0  0  0  0  0  0  0
  186.4080  177.9340  144.5280 N   0  0  0  0  0  0  0  0  0  0  0  0
  184.8660  178.7830  146.0910 N   0  0  0  0  0  0  0  0  0  0  0  0
  187.3410  177.7750  145.5040 C   0  0  0  0  0  0  0  0  0  0  0  0
  185.7740  178.6440  147.0930 C   0  0  0  0  0  3  0  0  0  0  0  0
  187.0420  178.1340  146.8180 C   0  0  0  0  0  3  0  0  0  0  0  0
  182.2690  178.9540  142.7130 N   0  0  0  0  0  0  0  0  0  0  0  0
  183.2700  178.6990  141.8440 C   0  0  0  0  0  0  0  0  0  0  0  0
  182.8440  178.8920  143.9280 C   0  0  0  0  0  2  0  0  0  0  0  0
  184.4580  178.4700  142.4370 N   0  0  0  0  0  0  0  0  0  0  0  0
  184.1790  178.5960  143.7460 C   0  0  0  0  0  0  0  0  0  0  0  0
  183.0860  178.6480  140.3600 C   0  0  2  0  0  3  0  0  0  0  0  0
  182.8040  177.2300  139.8920 C   0  0  0  0  0  1  0  0  0  0  0  0
  184.2300  179.2000  139.6740 N   0  0  0  0  0  0  0  0  0  0  0  0
  184.1670  180.2550  139.1160 O   0  0  0  0  0  0  0  0  0  0  0  0
  188.6900  177.2480  145.1640 C   0  0  0  0  0  2  0  0  0  0  0  0
  189.5390  178.3550  144.5630 C   0  0  0  0  0  2  0  0  0  0  0  0
  190.8020  177.7770  143.9390 C   0  0  2  0  0  3  0  0  0  0  0  0
  191.6640  177.3320  141.2400 O   0  0  0  0  0  0  0  0  0  0  0  0
  190.4150  177.0090  142.3340 P   0  0  0  0  0  0  0  0  0  0  0  0
  190.2640  175.5130  142.4970 O   0  0  0  0  0  1  0  0  0  0  0  0
  188.9710  177.6540  141.7370 O   0  0  0  0  0  1  0  0  0  0  0  0
  191.4920  176.7840  144.8710 C   0  0  0  0  0  2  0  0  0  0  0  0
  191.9340  177.4130  146.0400 O   0  0  0  0  0  0  0  0  0  0  0  0
  192.6010  176.6920  148.4780 O   0  0  0  0  0  1  0  0  0  0  0  0
  192.5200  174.7780  146.6910 O   0  0  0  0  0  0  0  0  0  0  0  0
  190.2300  175.9680  147.6560 O   0  0  0  0  0  1  0  0  0  0  0  0
  191.8510  176.2290  147.2500 P   0  0  0  0  0  0  0  0  0  0  0  0
  1  3  1  0  0  0  0
  2  1  2  0  0  0  0
  2  4  1  0  0  0  0
  3  5  2  0  0  0  0
  4  6  2  0  0  0  0
  6  5  1  0  0  0  0
  7  9  1  0  0  0  0
  8 10  1  0  0  0  0
  8  7  2  0  0  0  0
 10 11  2  0  0  0  0
 11  9  1  0  0  0  0
 11  1  1  0  0  0  0
 12 13  1  6  0  0  0
 12  8  1  0  0  0  0
 14 12  1  0  0  0  0
 15 14  2  0  0  0  0
 16  4  1  0  0  0  0
 17 16  1  0  0  0  0
 18 17  1  1  0  0  0
 18 23  1  0  0  0  0
 19 20  2  0  0  0  0
 20 21  1  0  0  0  0
 20 18  1  0  0  0  0
 22 20  1  0  0  0  0
 23 24  1  0  0  0  0
 24 28  1  0  0  0  0
 26 28  2  0  0  0  0
 28 27  1  0  0  0  0
 28 25  1  0  0  0  0
M  END
>  <MODEL>
3

>  <REMARK>
 VINA RESULT:      -7.6      1.849      2.510
  Name = 
  10 active torsions:
  status: ('A' for Active; 'I' for Inactive)
    1  A    between atoms: O_1  and  C_5
    2  A    between atoms: O_1  and  P_23
    3  A    between atoms: N_2  and  C_6
    4  A    between atoms: C_3  and  C_17
    5  A    between atoms: C_5  and  C_19
    6  A    between atoms: C_6  and  C_10
    7  A    between atoms: P_16  and  C_19
    8  A    between atoms: C_18  and  C_19
    9  A    between atoms: C_18  and  C_22
   10  A    between atoms: C_20  and  C_22
                            x       y       z     vdW  Elec       q    Type
                         _______ _______ _______ _____ _____    ______ ____

>  <TORSDO>
F 10

$$$$
=
 OpenBabel11062413343D

 28 29  0  0  1  0  0  0  0  0999 V2000
  184.7660  178.4540  144.4140 C   0  0  0  0  0  0  0  0  0  0  0  0
  185.9920  177.9310  144.1330 N   0  0  0  0  0  0  0  0  0  0  0  0
  184.4620  178.8070  145.6920 N   0  0  0  0  0  0  0  0  0  0  0  0
  186.9190  177.7530  145.1110 C   0  0  0  0  0  0  0  0  0  0  0  0
  185.3640  178.6490  146.6960 C   0  0  0  0  0  3  0  0  0  0  0  0
  186.6230  178.1160  146.4240 C   0  0  0  0  0  3  0  0  0  0  0  0
  181.8860  179.0660  142.3060 N   0  0  0  0  0  0  0  0  0  0  0  0
  182.8680  178.7280  141.4440 C   0  0  0  0  0  0  0  0  0  0  0  0
  182.4620  179.0120  143.5210 C   0  0  0  0  0  2  0  0  0  0  0  0
  184.0430  178.4530  142.0400 N   0  0  0  0  0  0  0  0  0  0  0  0
  183.7780  178.6370  143.3450 C   0  0  0  0  0  0  0  0  0  0  0  0
  182.6750  178.6390  139.9630 C   0  0  2  0  0  3  0  0  0  0  0  0
  183.4600  177.4770  139.3760 C   0  0  0  0  0  1  0  0  0  0  0  0
  183.0290  179.8800  139.3160 N   0  0  0  0  0  0  0  0  0  0  0  0
  184.1700  180.1650  139.1070 O   0  0  0  0  0  0  0  0  0  0  0  0
  188.2590  177.2020  144.7730 C   0  0  0  0  0  2  0  0  0  0  0  0
  188.7770  177.8500  143.5000 C   0  0  0  0  0  2  0  0  0  0  0  0
  189.6040  176.8560  142.6970 C   0  0  2  0  0  3  0  0  0  0  0  0
  191.8690  175.5870  143.9160 O   0  0  0  0  0  1  0  0  0  0  0  0
  191.3650  177.0020  143.1380 P   0  0  0  0  0  0  0  0  0  0  0  0
  192.1970  177.2150  141.8940 O   0  0  0  0  0  0  0  0  0  0  0  0
  191.5740  178.3160  144.1820 O   0  0  0  0  0  1  0  0  0  0  0  0
  189.4000  177.0310  141.1930 C   0  0  0  0  0  2  0  0  0  0  0  0
  188.7690  178.2470  140.9090 O   0  0  0  0  0  0  0  0  0  0  0  0
  186.8170  178.3730  139.1540 O   0  0  0  0  0  1  0  0  0  0  0  0
  188.7050  176.6270  138.6550 O   0  0  0  0  0  1  0  0  0  0  0  0
  189.1240  179.3380  138.4020 O   0  0  0  0  0  0  0  0  0  0  0  0
  188.3060  178.1470  139.2820 P   0  0  0  0  0  0  0  0  0  0  0  0
  1  3  1  0  0  0  0
  2  1  2  0  0  0  0
  2  4  1  0  0  0  0
  3  5  2  0  0  0  0
  4  6  2  0  0  0  0
  6  5  1  0  0  0  0
  7  9  1  0  0  0  0
  8 10  1  0  0  0  0
  8  7  2  0  0  0  0
 10 11  2  0  0  0  0
 11  9  1  0  0  0  0
 11  1  1  0  0  0  0
 12 13  1  6  0  0  0
 12  8  1  0  0  0  0
 14 12  1  0  0  0  0
 15 14  2  0  0  0  0
 16  4  1  0  0  0  0
 17 16  1  0  0  0  0
 18 23  1  6  0  0  0
 18 20  1  0  0  0  0
 18 17  1  0  0  0  0
 20 19  1  0  0  0  0
 20 22  1  0  0  0  0
 21 20  2  0  0  0  0
 24 23  1  0  0  0  0
 25 28  1  0  0  0  0
 26 28  1  0  0  0  0
 27 28  2  0  0  0  0
 28 24  1  0  0  0  0
M  END
>  <MODEL>
4

>  <REMARK>
 VINA RESULT:      -7.5      2.509      4.707
  Name = 
  10 active torsions:
  status: ('A' for Active; 'I' for Inactive)
    1  A    between atoms: O_1  and  C_5
    2  A    between atoms: O_1  and  P_23
    3  A    between atoms: N_2  and  C_6
    4  A    between atoms: C_3  and  C_17
    5  A    between atoms: C_5  and  C_19
    6  A    between atoms: C_6  and  C_10
    7  A    between atoms: P_16  and  C_19
    8  A    between atoms: C_18  and  C_19
    9  A    between atoms: C_18  and  C_22
   10  A    between atoms: C_20  and  C_22
                            x       y       z     vdW  Elec       q    Type
                         _______ _______ _______ _____ _____    ______ ____

>  <TORSDO>
F 10

$$$$
=
 OpenBabel11062413343D

 28 29  0  0  1  0  0  0  0  0999 V2000
  186.7850  178.0600  145.7180 C   0  0  0  0  0  0  0  0  0  0  0  0
  186.7910  178.0320  144.3570 N   0  0  0  0  0  0  0  0  0  0  0  0
  185.6390  178.3760  146.3800 N   0  0  0  0  0  0  0  0  0  0  0  0
  185.6700  178.3200  143.6450 C   0  0  0  0  0  0  0  0  0  0  0  0
  184.4960  178.6640  145.7040 C   0  0  0  0  0  3  0  0  0  0  0  0
  184.4870  178.6400  144.3100 C   0  0  0  0  0  3  0  0  0  0  0  0
  189.4090  177.4570  148.1390 N   0  0  0  0  0  0  0  0  0  0  0  0
  189.9830  177.1860  146.9470 C   0  0  0  0  0  0  0  0  0  0  0  0
  188.1470  177.8130  147.8400 C   0  0  0  0  0  3  0  0  0  0  0  0
  189.1580  177.3560  145.8970 N   0  0  0  0  0  2  0  0  0  0  0  0
  188.0060  177.7480  146.4700 C   0  0  0  0  0  0  0  0  0  0  0  0
  191.4090  176.7620  146.7930 C   0  0  2  0  0  3  0  0  0  0  0  0
  191.7220  176.4050  145.3490 C   0  0  0  0  0  1  0  0  0  0  0  0
  191.7240  175.6630  147.6750 N   0  0  0  0  0  0  0  0  0  0  0  0
  192.7330  175.6500  148.3130 O   0  0  0  0  0  0  0  0  0  0  0  0
  185.6970  178.2610  142.1590 C   0  0  0  0  0  2  0  0  0  0  0  0
  187.0140  178.8180  141.6450 C   0  0  0  0  0  2  0  0  0  0  0  0
  187.7880  177.7450  140.8920 C   0  0  2  0  0  3  0  0  0  0  0  0
  189.7940  178.5170  142.7900 O   0  0  0  0  0  1  0  0  0  0  0  0
  189.2390  177.2200  141.8580 P   0  0  0  0  0  0  0  0  0  0  0  0
  188.8700  176.0690  142.7660 O   0  0  0  0  0  1  0  0  0  0  0  0
  190.4650  176.7270  140.8030 O   0  0  0  0  0  0  0  0  0  0  0  0
  188.1980  178.2150  139.4980 C   0  0  0  0  0  2  0  0  0  0  0  0
  187.9080  177.2430  138.5330 O   0  0  0  0  0  0  0  0  0  0  0  0
  186.5020  177.0390  136.3220 O   0  0  0  0  0  0  0  0  0  0  0  0
  187.4710  179.4130  136.8570 O   0  0  0  0  0  1  0  0  0  0  0  0
  185.3860  178.3320  138.2980 O   0  0  0  0  0  1  0  0  0  0  0  0
  186.8150  177.9770  137.4660 P   0  0  0  0  0  0  0  0  0  0  0  0
  1  3  1  0  0  0  0
  1 11  1  0  0  0  0
  2  1  2  0  0  0  0
  4  6  2  0  0  0  0
  4  2  1  0  0  0  0
  5  3  2  0  0  0  0
  6  5  1  0  0  0  0
  8  7  2  0  0  0  0
  9  7  1  0  0  0  0
 10 11  1  0  0  0  0
 10  8  1  0  0  0  0
 11  9  2  0  0  0  0
 12 13  1  6  0  0  0
 12  8  1  0  0  0  0
 12 14  1  0  0  0  0
 14 15  2  0  0  0  0
 16  4  1  0  0  0  0
 17 16  1  0  0  0  0
 18 23  1  6  0  0  0
 18 17  1  0  0  0  0
 18 20  1  0  0  0  0
 20 21  1  0  0  0  0
 20 19  1  0  0  0  0
 22 20  2  0  0  0  0
 24 23  1  0  0  0  0
 25 28  2  0  0  0  0
 26 28  1  0  0  0  0
 28 27  1  0  0  0  0
 28 24  1  0  0  0  0
M  END
>  <MODEL>
5

>  <REMARK>
 VINA RESULT:      -7.4      3.319      7.825
  Name = 
  10 active torsions:
  status: ('A' for Active; 'I' for Inactive)
    1  A    between atoms: O_1  and  C_5
    2  A    between atoms: O_1  and  P_23
    3  A    between atoms: N_2  and  C_6
    4  A    between atoms: C_3  and  C_17
    5  A    between atoms: C_5  and  C_19
    6  A    between atoms: C_6  and  C_10
    7  A    between atoms: P_16  and  C_19
    8  A    between atoms: C_18  and  C_19
    9  A    between atoms: C_18  and  C_22
   10  A    between atoms: C_20  and  C_22
                            x       y       z     vdW  Elec       q    Type
                         _______ _______ _______ _____ _____    ______ ____

>  <TORSDO>
F 10

$$$$
=
 OpenBabel11062413343D

 28 29  0  0  1  0  0  0  0  0999 V2000
  184.6300  178.4300  143.6460 C   0  0  0  0  0  0  0  0  0  0  0  0
  185.8130  177.8450  143.9800 N   0  0  0  0  0  0  0  0  0  0  0  0
  183.8490  178.9740  144.6180 N   0  0  0  0  0  0  0  0  0  0  0  0
  186.2270  177.7920  145.2740 C   0  0  0  0  0  0  0  0  0  0  0  0
  184.2310  178.9460  145.9220 C   0  0  0  0  0  3  0  0  0  0  0  0
  185.4400  178.3510  146.2800 C   0  0  0  0  0  3  0  0  0  0  0  0
  182.9130  178.4930  140.4580 N   0  0  0  0  0  0  0  0  0  0  0  0
  184.2210  178.5780  140.1370 C   0  0  0  0  0  0  0  0  0  0  0  0
  182.8920  178.4300  141.8020 C   0  0  0  0  0  2  0  0  0  0  0  0
  185.0430  178.5670  141.2030 N   0  0  0  0  0  0  0  0  0  0  0  0
  184.1980  178.4760  142.2440 C   0  0  0  0  0  0  0  0  0  0  0  0
  184.7250  178.6530  138.7300 C   0  0  2  0  0  3  0  0  0  0  0  0
  184.1600  177.5230  137.8850 C   0  0  0  0  0  1  0  0  0  0  0  0
  186.1690  178.6530  138.6940 N   0  0  0  0  0  0  0  0  0  0  0  0
  186.7630  178.9450  137.7000 O   0  0  0  0  0  0  0  0  0  0  0  0
  187.5350  177.1680  145.6100 C   0  0  0  0  0  2  0  0  0  0  0  0
  188.6540  177.8870  144.8760 C   0  0  0  0  0  2  0  0  0  0  0  0
  189.4440  176.9080  144.0200 C   0  0  2  0  0  3  0  0  0  0  0  0
  191.8700  175.3780  144.0220 O   0  0  0  0  0  0  0  0  0  0  0  0
  191.1610  176.7930  144.6170 P   0  0  0  0  0  0  0  0  0  0  0  0
  191.9560  177.9900  144.1470 O   0  0  0  0  0  1  0  0  0  0  0  0
  191.1640  176.7490  146.3070 O   0  0  0  0  0  1  0  0  0  0  0  0
  189.4020  177.2850  142.5410 C   0  0  0  0  0  2  0  0  0  0  0  0
  189.9010  176.2500  141.7430 O   0  0  0  0  0  0  0  0  0  0  0  0
  191.8430  177.6970  140.7220 O   0  0  0  0  0  1  0  0  0  0  0  0
  189.4460  178.1400  139.7600 O   0  0  0  0  0  1  0  0  0  0  0  0
  190.8440  175.8360  139.1860 O   0  0  0  0  0  0  0  0  0  0  0  0
  190.5450  177.0060  140.3700 P   0  0  0  0  0  0  0  0  0  0  0  0
  1  2  2  0  0  0  0
  1  3  1  0  0  0  0
  2  4  1  0  0  0  0
  3  5  2  0  0  0  0
  4 16  1  0  0  0  0
  4  6  2  0  0  0  0
  5  6  1  0  0  0  0
  7  9  1  0  0  0  0
  8  7  2  0  0  0  0
  8 10  1  0  0  0  0
  9 11  1  0  0  0  0
 10 11  2  0  0  0  0
 11  1  1  0  0  0  0
 12 13  1  6  0  0  0
 12  8  1  0  0  0  0
 14 12  1  0  0  0  0
 15 14  2  0  0  0  0
 17 16  1  0  0  0  0
 18 23  1  6  0  0  0
 18 20  1  0  0  0  0
 18 17  1  0  0  0  0
 19 20  2  0  0  0  0
 20 22  1  0  0  0  0
 21 20  1  0  0  0  0
 24 23  1  0  0  0  0
 26 28  1  0  0  0  0
 27 28  2  0  0  0  0
 28 25  1  0  0  0  0
 28 24  1  0  0  0  0
M  END
>  <MODEL>
6

>  <REMARK>
 VINA RESULT:      -7.3      2.681      4.832
  Name = 
  10 active torsions:
  status: ('A' for Active; 'I' for Inactive)
    1  A    between atoms: O_1  and  C_5
    2  A    between atoms: O_1  and  P_23
    3  A    between atoms: N_2  and  C_6
    4  A    between atoms: C_3  and  C_17
    5  A    between atoms: C_5  and  C_19
    6  A    between atoms: C_6  and  C_10
    7  A    between atoms: P_16  and  C_19
    8  A    between atoms: C_18  and  C_19
    9  A    between atoms: C_18  and  C_22
   10  A    between atoms: C_20  and  C_22
                            x       y       z     vdW  Elec       q    Type
                         _______ _______ _______ _____ _____    ______ ____

>  <TORSDO>
F 10

$$$$
=
 OpenBabel11062413343D

 28 29  0  0  1  0  0  0  0  0999 V2000
  186.9030  178.0190  145.4980 C   0  0  0  0  0  0  0  0  0  0  0  0
  186.1250  178.1590  144.3900 N   0  0  0  0  0  0  0  0  0  0  0  0
  186.3730  178.2590  146.7280 N   0  0  0  0  0  0  0  0  0  0  0  0
  184.8240  178.5390  144.4910 C   0  0  0  0  0  0  0  0  0  0  0  0
  185.0750  178.6350  146.8700 C   0  0  0  0  0  3  0  0  0  0  0  0
  184.2660  178.7820  145.7450 C   0  0  0  0  0  3  0  0  0  0  0  0
  190.4020  177.1640  145.8690 N   0  0  0  0  0  0  0  0  0  0  0  0
  190.1350  176.9300  144.5660 C   0  0  0  0  0  0  0  0  0  0  0  0
  189.2380  177.5950  146.3860 C   0  0  0  0  0  3  0  0  0  0  0  0
  188.8620  177.1950  144.2170 N   0  0  0  0  0  2  0  0  0  0  0  0
  188.3060  177.6100  145.3690 C   0  0  0  0  0  0  0  0  0  0  0  0
  191.1570  176.4470  143.5850 C   0  0  2  0  0  3  0  0  0  0  0  0
  191.9250  177.6080  142.9770 C   0  0  0  0  0  1  0  0  0  0  0  0
  190.5480  175.6360  142.5570 N   0  0  0  0  0  0  0  0  0  0  0  0
  190.3110  176.0830  141.4750 O   0  0  0  0  0  0  0  0  0  0  0  0
  183.9880  178.6620  143.2660 C   0  0  0  0  0  2  0  0  0  0  0  0
  184.8320  178.3760  142.0350 C   0  0  0  0  0  2  0  0  0  0  0  0
  183.9410  178.1290  140.8260 C   0  0  2  0  0  3  0  0  0  0  0  0
  186.4150  178.7100  139.4950 O   0  0  0  0  0  1  0  0  0  0  0  0
  184.7340  178.7740  139.3190 P   0  0  0  0  0  0  0  0  0  0  0  0
  184.3230  177.9480  138.1210 O   0  0  0  0  0  0  0  0  0  0  0  0
  184.2600  180.3790  139.0790 O   0  0  0  0  0  1  0  0  0  0  0  0
  182.5500  178.7300  141.0130 C   0  0  0  0  0  2  0  0  0  0  0  0
  181.5640  177.7390  140.9750 O   0  0  0  0  0  0  0  0  0  0  0  0
  179.8250  179.6990  141.1810 O   0  0  0  0  0  0  0  0  0  0  0  0
  180.6370  178.6360  143.4340 O   0  0  0  0  0  1  0  0  0  0  0  0
  178.9460  177.2990  141.7180 O   0  0  0  0  0  1  0  0  0  0  0  0
  180.2380  178.3870  141.8080 P   0  0  0  0  0  0  0  0  0  0  0  0
  1  3  1  0  0  0  0
  2  4  1  0  0  0  0
  2  1  2  0  0  0  0
  3  5  2  0  0  0  0
  4  6  2  0  0  0  0
  6  5  1  0  0  0  0
  7  9  1  0  0  0  0
  8  7  2  0  0  0  0
 10  8  1  0  0  0  0
 10 11  1  0  0  0  0
 11  1  1  0  0  0  0
 11  9  2  0  0  0  0
 12 13  1  6  0  0  0
 12  8  1  0  0  0  0
 14 12  1  0  0  0  0
 15 14  2  0  0  0  0
 16  4  1  0  0  0  0
 17 16  1  0  0  0  0
 18 23  1  1  0  0  0
 18 17  1  0  0  0  0
 20 19  1  0  0  0  0
 20 18  1  0  0  0  0
 21 20  2  0  0  0  0
 22 20  1  0  0  0  0
 24 23  1  0  0  0  0
 24 28  1  0  0  0  0
 25 28  2  0  0  0  0
 27 28  1  0  0  0  0
 28 26  1  0  0  0  0
M  END
>  <MODEL>
7

>  <REMARK>
 VINA RESULT:      -7.2      3.923      8.505
  Name = 
  10 active torsions:
  status: ('A' for Active; 'I' for Inactive)
    1  A    between atoms: O_1  and  C_5
    2  A    between atoms: O_1  and  P_23
    3  A    between atoms: N_2  and  C_6
    4  A    between atoms: C_3  and  C_17
    5  A    between atoms: C_5  and  C_19
    6  A    between atoms: C_6  and  C_10
    7  A    between atoms: P_16  and  C_19
    8  A    between atoms: C_18  and  C_19
    9  A    between atoms: C_18  and  C_22
   10  A    between atoms: C_20  and  C_22
                            x       y       z     vdW  Elec       q    Type
                         _______ _______ _______ _____ _____    ______ ____

>  <TORSDO>
F 10

$$$$
=
 OpenBabel11062413343D

 28 29  0  0  1  0  0  0  0  0999 V2000
  184.9150  178.6090  143.5710 C   0  0  0  0  0  0  0  0  0  0  0  0
  186.0530  177.9930  143.9940 N   0  0  0  0  0  0  0  0  0  0  0  0
  184.0130  179.0590  144.4850 N   0  0  0  0  0  0  0  0  0  0  0  0
  186.3030  177.8160  145.3180 C   0  0  0  0  0  0  0  0  0  0  0  0
  184.2300  178.9060  145.8180 C   0  0  0  0  0  3  0  0  0  0  0  0
  185.3910  178.2770  146.2660 C   0  0  0  0  0  3  0  0  0  0  0  0
  184.9780  179.2190  140.0020 N   0  0  0  0  0  0  0  0  0  0  0  0
  183.6970  178.8820  140.2630 C   0  0  0  0  0  0  0  0  0  0  0  0
  185.5980  179.1600  141.1950 C   0  0  0  0  0  2  0  0  0  0  0  0
  183.4600  178.6140  141.5610 N   0  0  0  0  0  0  0  0  0  0  0  0
  184.6620  178.7890  142.1370 C   0  0  0  0  0  0  0  0  0  0  0  0
  182.6260  178.8310  139.2200 C   0  0  2  0  0  3  0  0  0  0  0  0
  183.1710  178.3160  137.8980 C   0  0  0  0  0  1  0  0  0  0  0  0
  182.0010  180.1230  139.0520 N   0  0  0  0  0  0  0  0  0  0  0  0
  182.6360  181.0780  138.7170 O   0  0  0  0  0  0  0  0  0  0  0  0
  187.5650  177.1600  145.7550 C   0  0  0  0  0  2  0  0  0  0  0  0
  188.7570  177.8750  145.1420 C   0  0  0  0  0  2  0  0  0  0  0  0
  189.5460  176.9260  144.2510 C   0  0  2  0  0  3  0  0  0  0  0  0
  191.4370  176.9920  146.4060 O   0  0  0  0  0  1  0  0  0  0  0  0
  191.3050  176.9370  144.7210 P   0  0  0  0  0  0  0  0  0  0  0  0
  191.9890  175.6920  144.2040 O   0  0  0  0  0  1  0  0  0  0  0  0
  192.0530  178.3020  144.0590 O   0  0  0  0  0  0  0  0  0  0  0  0
  189.3720  177.2610  142.7710 C   0  0  0  0  0  2  0  0  0  0  0  0
  189.8710  176.2350  141.9610 O   0  0  0  0  0  0  0  0  0  0  0  0
  190.5480  175.9980  139.4320 O   0  0  0  0  0  0  0  0  0  0  0  0
  191.9500  177.7000  140.8460 O   0  0  0  0  0  1  0  0  0  0  0  0
  189.3440  178.2130  140.1140 O   0  0  0  0  0  1  0  0  0  0  0  0
  190.4360  177.0000  140.5580 P   0  0  0  0  0  0  0  0  0  0  0  0
  1  2  2  0  0  0  0
  1  3  1  0  0  0  0
  2  4  1  0  0  0  0
  3  5  2  0  0  0  0
  4 16  1  0  0  0  0
  4  6  2  0  0  0  0
  5  6  1  0  0  0  0
  7  8  2  0  0  0  0
  7  9  1  0  0  0  0
  8 10  1  0  0  0  0
  9 11  1  0  0  0  0
 10 11  2  0  0  0  0
 11  1  1  0  0  0  0
 12 13  1  6  0  0  0
 12  8  1  0  0  0  0
 14 12  1  0  0  0  0
 15 14  2  0  0  0  0
 17 16  1  0  0  0  0
 18 23  1  6  0  0  0
 18 20  1  0  0  0  0
 18 17  1  0  0  0  0
 20 19  1  0  0  0  0
 21 20  1  0  0  0  0
 22 20  2  0  0  0  0
 24 23  1  0  0  0  0
 25 28  2  0  0  0  0
 27 28  1  0  0  0  0
 28 26  1  0  0  0  0
 28 24  1  0  0  0  0
M  END
>  <MODEL>
8

>  <REMARK>
 VINA RESULT:      -7.2      2.471      4.307
  Name = 
  10 active torsions:
  status: ('A' for Active; 'I' for Inactive)
    1  A    between atoms: O_1  and  C_5
    2  A    between atoms: O_1  and  P_23
    3  A    between atoms: N_2  and  C_6
    4  A    between atoms: C_3  and  C_17
    5  A    between atoms: C_5  and  C_19
    6  A    between atoms: C_6  and  C_10
    7  A    between atoms: P_16  and  C_19
    8  A    between atoms: C_18  and  C_19
    9  A    between atoms: C_18  and  C_22
   10  A    between atoms: C_20  and  C_22
                            x       y       z     vdW  Elec       q    Type
                         _______ _______ _______ _____ _____    ______ ____

>  <TORSDO>
F 10

$$$$
=
 OpenBabel11062413343D

 28 29  0  0  1  0  0  0  0  0999 V2000
  185.0510  178.6630  142.4610 C   0  0  0  0  0  0  0  0  0  0  0  0
  185.7320  178.1720  143.5320 N   0  0  0  0  0  0  0  0  0  0  0  0
  183.8130  179.1980  142.6370 N   0  0  0  0  0  0  0  0  0  0  0  0
  185.1940  178.2050  144.7800 C   0  0  0  0  0  0  0  0  0  0  0  0
  183.2430  179.2540  143.8690 C   0  0  0  0  0  3  0  0  0  0  0  0
  183.9280  178.7570  144.9760 C   0  0  0  0  0  3  0  0  0  0  0  0
  185.8820  178.7480  138.9370 N   0  0  0  0  0  0  0  0  0  0  0  0
  187.0270  178.3680  139.5430 C   0  0  0  0  0  0  0  0  0  0  0  0
  185.0000  178.9100  139.9400 C   0  0  0  0  0  2  0  0  0  0  0  0
  186.9260  178.2710  140.8820 N   0  0  0  0  0  0  0  0  0  0  0  0
  185.6490  178.6160  141.1210 C   0  0  0  0  0  0  0  0  0  0  0  0
  188.2910  178.0550  138.8050 C   0  0  2  0  0  3  0  0  0  0  0  0
  189.1910  177.1420  139.6200 C   0  0  0  0  0  1  0  0  0  0  0  0
  188.9860  179.2640  138.4290 N   0  0  0  0  0  0  0  0  0  0  0  0
  188.8030  179.7790  137.3670 O   0  0  0  0  0  0  0  0  0  0  0  0
  185.9680  177.6830  145.9380 C   0  0  0  0  0  2  0  0  0  0  0  0
  187.2560  178.4730  146.0950 C   0  0  0  0  0  2  0  0  0  0  0  0
  188.4630  177.5680  145.8900 C   0  0  2  0  0  3  0  0  0  0  0  0
  189.3350  178.5230  148.4500 O   0  0  0  0  0  1  0  0  0  0  0  0
  189.2030  177.1330  147.4960 P   0  0  0  0  0  0  0  0  0  0  0  0
  188.3420  176.1150  148.2070 O   0  0  0  0  0  1  0  0  0  0  0  0
  190.7440  176.4830  147.2440 O   0  0  0  0  0  0  0  0  0  0  0  0
  189.4980  178.2030  144.9630 C   0  0  0  0  0  2  0  0  0  0  0  0
  189.6360  177.4650  143.7830 O   0  0  0  0  0  0  0  0  0  0  0  0
  192.0440  178.3890  144.2920 O   0  0  0  0  0  1  0  0  0  0  0  0
  191.6710  177.4010  141.8940 O   0  0  0  0  0  0  0  0  0  0  0  0
  191.8010  175.7940  144.1290 O   0  0  0  0  0  1  0  0  0  0  0  0
  191.3070  177.3020  143.5440 P   0  0  0  0  0  0  0  0  0  0  0  0
  1  3  1  0  0  0  0
  1  2  2  0  0  0  0
  2  4  1  0  0  0  0
  3  5  2  0  0  0  0
  4  6  2  0  0  0  0
  4 16  1  0  0  0  0
  5  6  1  0  0  0  0
  7  8  2  0  0  0  0
  7  9  1  0  0  0  0
  8 10  1  0  0  0  0
  9 11  1  0  0  0  0
 10 11  2  0  0  0  0
 11  1  1  0  0  0  0
 12  8  1  0  0  0  0
 12 13  1  1  0  0  0
 14 12  1  0  0  0  0
 15 14  2  0  0  0  0
 16 17  1  0  0  0  0
 18 23  1  6  0  0  0
 18 17  1  0  0  0  0
 18 20  1  0  0  0  0
 20 21  1  0  0  0  0
 20 19  1  0  0  0  0
 22 20  2  0  0  0  0
 24 23  1  0  0  0  0
 26 28  2  0  0  0  0
 28 24  1  0  0  0  0
 28 27  1  0  0  0  0
 28 25  1  0  0  0  0
M  END
>  <MODEL>
9

>  <REMARK>
 VINA RESULT:      -7.2      2.838      5.681
  Name = 
  10 active torsions:
  status: ('A' for Active; 'I' for Inactive)
    1  A    between atoms: O_1  and  C_5
    2  A    between atoms: O_1  and  P_23
    3  A    between atoms: N_2  and  C_6
    4  A    between atoms: C_3  and  C_17
    5  A    between atoms: C_5  and  C_19
    6  A    between atoms: C_6  and  C_10
    7  A    between atoms: P_16  and  C_19
    8  A    between atoms: C_18  and  C_19
    9  A    between atoms: C_18  and  C_22
   10  A    between atoms: C_20  and  C_22
                            x       y       z     vdW  Elec       q    Type
                         _______ _______ _______ _____ _____    ______ ____

>  <TORSDO>
F 10

$$$$
