=
 OpenBabel11062415393D

 34 36  0  0  1  0  0  0  0  0999 V2000
  188.1150  178.1340  138.0720 C   0  0  0  0  0  3  0  0  0  0  0  0
  187.5820  178.4080  140.3700 C   0  0  0  0  0  0  0  0  0  0  0  0
  189.5970  177.2160  139.7450 C   0  0  0  0  0  0  0  0  0  0  0  0
  187.3010  178.6040  139.0530 N   0  0  0  0  0  0  0  0  0  0  0  0
  188.7380  177.7030  140.7460 C   0  0  0  0  0  0  0  0  0  0  0  0
  189.2740  177.4310  138.3990 C   0  0  0  0  0  3  0  0  0  0  0  0
  186.6910  178.9170  141.3580 N   0  0  0  0  0  1  0  0  0  0  0  0
  189.0300  177.4860  142.1310 N   0  0  0  0  0  0  0  0  0  0  0  0
  190.2830  175.6850  143.2300 C   0  0  0  0  0  2  0  0  0  0  0  0
  188.9300  176.1460  142.6970 C   0  0  0  0  0  2  0  0  0  0  0  0
  190.7800  176.6060  144.2450 N   0  0  0  0  0  0  0  0  0  0  0  0
  190.7760  179.7270  144.4200 F   0  0  0  0  0  0  0  0  0  0  0  0
  191.5230  177.6440  143.5350 C   0  0  0  0  0  2  0  0  0  0  0  0
  190.6750  178.9020  143.3170 C   0  0  1  0  0  3  0  0  0  0  0  0
  189.1960  178.6220  143.0300 C   0  0  0  0  0  2  0  0  0  0  0  0
  191.8580  176.1240  146.4160 C   0  0  0  0  0  0  0  0  0  0  0  0
  191.7070  175.8890  145.0150 N   0  0  0  0  0  2  0  0  0  0  0  0
  192.8240  175.3880  147.1550 N   0  0  0  0  0  1  0  0  0  0  0  0
  191.1370  176.9740  147.0010 O   0  0  0  0  0  0  0  0  0  0  0  0
  193.0020  177.4900  139.3590 C   0  0  0  0  0  0  0  0  0  0  0  0
  193.8230  178.3910  139.4060 O   0  0  0  0  0  0  0  0  0  0  0  0
  190.8370  176.4400  140.1150 C   0  0  1  0  0  3  0  0  0  0  0  0
  193.0070  176.5440  138.1970 C   0  0  2  0  0  3  0  0  0  0  0  0
  191.1430  175.3920  139.2160 O   0  0  0  0  0  0  0  0  0  0  0  0
  192.0460  177.3060  140.5030 C   0  0  0  0  0  2  0  0  0  0  0  0
  191.6140  175.9480  138.0110 C   0  0  0  0  0  2  0  0  0  0  0  0
  194.9860  175.1310  137.4850 C   0  0  0  0  0  0  0  0  0  0  0  0
  195.0840  175.7570  136.3960 O   0  0  0  0  0  0  0  0  0  0  0  0
  193.9790  175.4860  138.4370 N   0  0  0  0  0  2  0  0  0  0  0  0
  195.9480  174.0240  137.7790 C   0  0  2  0  0  3  0  0  0  0  0  0
  195.2130  172.7650  138.2250 C   0  0  0  0  0  2  0  0  0  0  0  0
  194.8240  171.9230  137.0230 C   0  0  0  0  0  1  0  0  0  0  0  0
  197.9860  175.2560  138.1760 O   0  0  0  0  0  1  0  0  0  0  0  0
  197.0120  174.4610  138.7860 C   0  0  0  0  0  2  0  0  0  0  0  0
  1  6  2  0  0  0  0
  1  4  1  0  0  0  0
  2  5  1  0  0  0  0
  2  7  1  0  0  0  0
  3  5  2  0  0  0  0
  4  2  2  0  0  0  0
  5  8  1  0  0  0  0
  6  3  1  0  0  0  0
  8 10  1  0  0  0  0
  8 15  1  0  0  0  0
  9 11  1  0  0  0  0
 10  9  1  0  0  0  0
 11 17  1  0  0  0  0
 13 11  1  0  0  0  0
 14 13  1  0  0  0  0
 14 12  1  1  0  0  0
 15 14  1  0  0  0  0
 16 19  2  0  0  0  0
 16 18  1  0  0  0  0
 17 16  1  0  0  0  0
 20 21  2  0  0  0  0
 20 25  1  0  0  0  0
 22  3  1  6  0  0  0
 22 25  1  0  0  0  0
 23 29  1  1  0  0  0
 23 20  1  0  0  0  0
 24 22  1  0  0  0  0
 26 23  1  0  0  0  0
 26 24  1  0  0  0  0
 27 30  1  0  0  0  0
 27 29  1  0  0  0  0
 28 27  2  0  0  0  0
 30 31  1  1  0  0  0
 30 34  1  0  0  0  0
 32 31  1  0  0  0  0
 33 34  1  0  0  0  0
M  END
>  <MODEL>
1

>  <REMARK>
 VINA RESULT:      -7.3      0.000      0.000
  Name = 
  7 active torsions:
  status: ('A' for Active; 'I' for Inactive)
    1  A    between atoms: C_2  and  C_17
    2  A    between atoms: N_6  and  C_25
    3  A    between atoms: C_10  and  C_13
    4  A    between atoms: N_11  and  N_16
    5  A    between atoms: N_14  and  C_18
    6  A    between atoms: C_15  and  C_17
    7  A    between atoms: C_17  and  C_30
                            x       y       z     vdW  Elec       q    Type
                         _______ _______ _______ _____ _____    ______ ____

>  <TORSDO>
F 7

$$$$
=
 OpenBabel11062415393D

 34 36  0  0  1  0  0  0  0  0999 V2000
  189.1510  178.7240  137.6600 C   0  0  0  0  0  3  0  0  0  0  0  0
  188.7570  178.5440  139.9950 C   0  0  0  0  0  0  0  0  0  0  0  0
  190.4970  177.2030  138.9710 C   0  0  0  0  0  0  0  0  0  0  0  0
  188.4720  179.0850  138.7800 N   0  0  0  0  0  0  0  0  0  0  0  0
  189.7770  177.5840  140.1170 C   0  0  0  0  0  0  0  0  0  0  0  0
  190.1720  177.7780  137.7350 C   0  0  0  0  0  3  0  0  0  0  0  0
  188.0090  178.9540  141.1360 N   0  0  0  0  0  1  0  0  0  0  0  0
  190.0720  177.0050  141.3920 N   0  0  0  0  0  0  0  0  0  0  0  0
  191.1580  177.9740  143.3680 C   0  0  0  0  0  2  0  0  0  0  0  0
  191.3560  177.2640  142.0320 C   0  0  0  0  0  2  0  0  0  0  0  0
  190.3220  177.1780  144.2580 N   0  0  0  0  0  0  0  0  0  0  0  0
  187.7330  175.5000  143.7540 F   0  0  0  0  0  0  0  0  0  0  0  0
  188.9390  177.5450  143.9690 C   0  0  0  0  0  2  0  0  0  0  0  0
  188.2710  176.5410  143.0220 C   0  0  1  0  0  3  0  0  0  0  0  0
  189.2020  175.9740  141.9460 C   0  0  0  0  0  2  0  0  0  0  0  0
  191.4430  176.8640  146.4380 C   0  0  0  0  0  0  0  0  0  0  0  0
  190.5990  177.6130  145.5620 N   0  0  0  0  0  2  0  0  0  0  0  0
  191.6820  177.3320  147.7590 N   0  0  0  0  0  1  0  0  0  0  0  0
  191.9800  175.7940  146.0470 O   0  0  0  0  0  0  0  0  0  0  0  0
  193.2980  176.2610  137.2150 C   0  0  0  0  0  0  0  0  0  0  0  0
  194.2020  176.8320  136.6280 O   0  0  0  0  0  0  0  0  0  0  0  0
  191.5860  176.1640  139.0640 C   0  0  1  0  0  3  0  0  0  0  0  0
  192.5700  175.1390  136.5380 C   0  0  2  0  0  3  0  0  0  0  0  0
  191.2200  174.9060  138.5300 O   0  0  0  0  0  0  0  0  0  0  0  0
  192.9780  176.6480  138.6300 C   0  0  0  0  0  2  0  0  0  0  0  0
  191.1670  175.0060  137.1260 C   0  0  0  0  0  2  0  0  0  0  0  0
  194.2540  173.4130  135.7600 C   0  0  0  0  0  0  0  0  0  0  0  0
  194.4990  174.0740  134.7160 O   0  0  0  0  0  0  0  0  0  0  0  0
  193.3110  173.8990  136.7200 N   0  0  0  0  0  2  0  0  0  0  0  0
  194.9750  172.1240  135.9940 C   0  0  2  0  0  3  0  0  0  0  0  0
  194.0020  171.0130  136.3720 C   0  0  0  0  0  2  0  0  0  0  0  0
  193.2470  170.5290  135.1470 C   0  0  0  0  0  1  0  0  0  0  0  0
  195.6180  172.0860  138.3210 O   0  0  0  0  0  1  0  0  0  0  0  0
  196.0940  172.2870  137.0220 C   0  0  0  0  0  2  0  0  0  0  0  0
  1  6  2  0  0  0  0
  1  4  1  0  0  0  0
  2  5  1  0  0  0  0
  2  7  1  0  0  0  0
  3  5  2  0  0  0  0
  4  2  2  0  0  0  0
  5  8  1  0  0  0  0
  6  3  1  0  0  0  0
  8 15  1  0  0  0  0
  8 10  1  0  0  0  0
  9 11  1  0  0  0  0
 10  9  1  0  0  0  0
 11 17  1  0  0  0  0
 13 11  1  0  0  0  0
 14 12  1  1  0  0  0
 14 13  1  0  0  0  0
 15 14  1  0  0  0  0
 16 18  1  0  0  0  0
 17 16  1  0  0  0  0
 19 16  2  0  0  0  0
 20 25  1  0  0  0  0
 21 20  2  0  0  0  0
 22  3  1  6  0  0  0
 23 29  1  1  0  0  0
 23 26  1  0  0  0  0
 23 20  1  0  0  0  0
 24 22  1  0  0  0  0
 25 22  1  0  0  0  0
 26 24  1  0  0  0  0
 27 30  1  0  0  0  0
 27 29  1  0  0  0  0
 28 27  2  0  0  0  0
 30 31  1  1  0  0  0
 30 34  1  0  0  0  0
 32 31  1  0  0  0  0
 34 33  1  0  0  0  0
M  END
>  <MODEL>
2

>  <REMARK>
 VINA RESULT:      -7.2      1.892      2.374
  Name = 
  7 active torsions:
  status: ('A' for Active; 'I' for Inactive)
    1  A    between atoms: C_2  and  C_17
    2  A    between atoms: N_6  and  C_25
    3  A    between atoms: C_10  and  C_13
    4  A    between atoms: N_11  and  N_16
    5  A    between atoms: N_14  and  C_18
    6  A    between atoms: C_15  and  C_17
    7  A    between atoms: C_17  and  C_30
                            x       y       z     vdW  Elec       q    Type
                         _______ _______ _______ _____ _____    ______ ____

>  <TORSDO>
F 7

$$$$
=
 OpenBabel11062415393D

 34 36  0  0  1  0  0  0  0  0999 V2000
  180.9640  180.6910  137.9440 C   0  0  0  0  0  3  0  0  0  0  0  0
  181.4600  179.1920  136.1700 C   0  0  0  0  0  0  0  0  0  0  0  0
  182.1890  178.6620  138.4190 C   0  0  0  0  0  0  0  0  0  0  0  0
  180.9030  180.3440  136.6320 N   0  0  0  0  0  0  0  0  0  0  0  0
  182.1210  178.3250  137.0560 C   0  0  0  0  0  0  0  0  0  0  0  0
  181.6080  179.8590  138.8590 C   0  0  0  0  0  3  0  0  0  0  0  0
  181.3710  178.8800  134.7830 N   0  0  0  0  0  1  0  0  0  0  0  0
  182.7170  177.1170  136.5700 N   0  0  0  0  0  0  0  0  0  0  0  0
  185.0240  176.2970  136.7470 C   0  0  0  0  0  2  0  0  0  0  0  0
  184.0390  177.1510  135.9550 C   0  0  0  0  0  2  0  0  0  0  0  0
  184.5610  174.9180  136.8310 N   0  0  0  0  0  0  0  0  0  0  0  0
  181.7300  173.6850  137.3170 F   0  0  0  0  0  0  0  0  0  0  0  0
  183.6980  174.8390  138.0060 C   0  0  0  0  0  2  0  0  0  0  0  0
  182.2160  174.9400  137.6300 C   0  0  1  0  0  3  0  0  0  0  0  0
  181.9230  175.8980  136.4710 C   0  0  0  0  0  2  0  0  0  0  0  0
  185.8830  172.8590  136.4790 C   0  0  0  0  0  0  0  0  0  0  0  0
  185.6920  174.1330  137.0980 N   0  0  0  0  0  2  0  0  0  0  0  0
  187.0350  172.0880  136.7930 N   0  0  0  0  0  1  0  0  0  0  0  0
  185.0400  172.4180  135.6540 O   0  0  0  0  0  0  0  0  0  0  0  0
  182.8280  178.5300  141.7940 C   0  0  0  0  0  0  0  0  0  0  0  0
  182.2080  178.7700  142.8180 O   0  0  0  0  0  0  0  0  0  0  0  0
  182.9060  177.7610  139.3930 C   0  0  1  0  0  3  0  0  0  0  0  0
  184.2060  179.0920  141.6170 C   0  0  2  0  0  3  0  0  0  0  0  0
  184.3000  177.9940  139.4650 O   0  0  0  0  0  0  0  0  0  0  0  0
  182.2240  177.6210  140.7630 C   0  0  0  0  0  2  0  0  0  0  0  0
  184.5230  179.2160  140.1290 C   0  0  0  0  0  2  0  0  0  0  0  0
  185.5690  178.3820  143.6320 C   0  0  0  0  0  0  0  0  0  0  0  0
  185.0570  179.2910  144.3390 O   0  0  0  0  0  0  0  0  0  0  0  0
  185.1730  178.2180  142.2670 N   0  0  0  0  0  2  0  0  0  0  0  0
  186.5800  177.4630  144.2410 C   0  0  2  0  0  3  0  0  0  0  0  0
  186.9260  177.8960  145.6610 C   0  0  0  0  0  2  0  0  0  0  0  0
  188.3900  177.6270  145.9560 C   0  0  0  0  0  1  0  0  0  0  0  0
  188.0250  176.0030  142.9730 O   0  0  0  0  0  1  0  0  0  0  0  0
  187.8200  177.3320  143.3570 C   0  0  0  0  0  2  0  0  0  0  0  0
  1  6  1  0  0  0  0
  2  4  1  0  0  0  0
  2  5  2  0  0  0  0
  3  6  2  0  0  0  0
  4  1  2  0  0  0  0
  5  3  1  0  0  0  0
  7  2  1  0  0  0  0
  8  5  1  0  0  0  0
  9 11  1  0  0  0  0
 10  8  1  0  0  0  0
 10  9  1  0  0  0  0
 11 17  1  0  0  0  0
 11 13  1  0  0  0  0
 14 12  1  6  0  0  0
 14 13  1  0  0  0  0
 15  8  1  0  0  0  0
 15 14  1  0  0  0  0
 16 18  1  0  0  0  0
 16 17  1  0  0  0  0
 19 16  2  0  0  0  0
 20 21  2  0  0  0  0
 22  3  1  1  0  0  0
 22 24  1  0  0  0  0
 22 25  1  0  0  0  0
 23 20  1  0  0  0  0
 23 29  1  1  0  0  0
 24 26  1  0  0  0  0
 25 20  1  0  0  0  0
 26 23  1  0  0  0  0
 27 30  1  0  0  0  0
 27 28  2  0  0  0  0
 29 27  1  0  0  0  0
 30 34  1  6  0  0  0
 30 31  1  0  0  0  0
 31 32  1  0  0  0  0
 33 34  1  0  0  0  0
M  END
>  <MODEL>
3

>  <REMARK>
 VINA RESULT:      -6.9      6.774     10.188
  Name = 
  7 active torsions:
  status: ('A' for Active; 'I' for Inactive)
    1  A    between atoms: C_2  and  C_17
    2  A    between atoms: N_6  and  C_25
    3  A    between atoms: C_10  and  C_13
    4  A    between atoms: N_11  and  N_16
    5  A    between atoms: N_14  and  C_18
    6  A    between atoms: C_15  and  C_17
    7  A    between atoms: C_17  and  C_30
                            x       y       z     vdW  Elec       q    Type
                         _______ _______ _______ _____ _____    ______ ____

>  <TORSDO>
F 7

$$$$
=
 OpenBabel11062415393D

 34 36  0  0  1  0  0  0  0  0999 V2000
  193.2490  177.1200  139.7230 C   0  0  0  0  0  3  0  0  0  0  0  0
  191.5840  176.5660  138.1220 C   0  0  0  0  0  0  0  0  0  0  0  0
  190.9180  177.3990  140.2980 C   0  0  0  0  0  0  0  0  0  0  0  0
  192.8890  176.6710  138.4920 N   0  0  0  0  0  0  0  0  0  0  0  0
  190.5660  176.9250  139.0220 C   0  0  0  0  0  0  0  0  0  0  0  0
  192.2720  177.4890  140.6470 C   0  0  0  0  0  3  0  0  0  0  0  0
  191.2640  176.0840  136.8210 N   0  0  0  0  0  1  0  0  0  0  0  0
  189.1920  176.8050  138.6390 N   0  0  0  0  0  0  0  0  0  0  0  0
  187.8100  178.2340  137.2000 C   0  0  0  0  0  2  0  0  0  0  0  0
  188.3360  177.9860  138.6100 C   0  0  0  0  0  2  0  0  0  0  0  0
  187.0630  177.0800  136.7160 N   0  0  0  0  0  0  0  0  0  0  0  0
  187.5850  174.0060  136.9380 F   0  0  0  0  0  0  0  0  0  0  0  0
  188.0350  176.1880  136.0910 C   0  0  0  0  0  2  0  0  0  0  0  0
  188.4680  175.0640  137.0390 C   0  0  1  0  0  3  0  0  0  0  0  0
  188.5820  175.4870  138.5070 C   0  0  0  0  0  2  0  0  0  0  0  0
  184.8340  177.2000  135.6540 C   0  0  0  0  0  0  0  0  0  0  0  0
  186.2190  177.5480  135.6990 N   0  0  0  0  0  2  0  0  0  0  0  0
  184.0190  177.6810  134.5940 N   0  0  0  0  0  1  0  0  0  0  0  0
  184.3300  176.4750  136.5510 O   0  0  0  0  0  0  0  0  0  0  0  0
  190.7030  178.3110  143.6050 C   0  0  0  0  0  0  0  0  0  0  0  0
  191.3470  179.0120  144.3690 O   0  0  0  0  0  0  0  0  0  0  0  0
  189.8490  177.7770  141.2930 C   0  0  1  0  0  3  0  0  0  0  0  0
  190.3140  176.9260  144.0250 C   0  0  2  0  0  3  0  0  0  0  0  0
  189.2090  176.6660  141.8910 O   0  0  0  0  0  0  0  0  0  0  0  0
  190.2550  178.8760  142.2880 C   0  0  0  0  0  2  0  0  0  0  0  0
  190.1040  176.0540  142.7890 C   0  0  0  0  0  2  0  0  0  0  0  0
  189.0960  177.1190  146.2390 C   0  0  0  0  0  0  0  0  0  0  0  0
  190.1840  177.2260  146.8650 O   0  0  0  0  0  0  0  0  0  0  0  0
  189.0910  176.9830  144.8140 N   0  0  0  0  0  2  0  0  0  0  0  0
  187.8080  177.1560  146.9980 C   0  0  2  0  0  3  0  0  0  0  0  0
  186.6130  177.1240  146.0530 C   0  0  0  0  0  2  0  0  0  0  0  0
  185.9500  178.4870  145.9890 C   0  0  0  0  0  1  0  0  0  0  0  0
  188.1590  177.9770  149.2420 O   0  0  0  0  0  1  0  0  0  0  0  0
  187.7580  178.3480  147.9550 C   0  0  0  0  0  2  0  0  0  0  0  0
  1  6  1  0  0  0  0
  2  4  1  0  0  0  0
  2  5  2  0  0  0  0
  3  6  2  0  0  0  0
  4  1  2  0  0  0  0
  5  3  1  0  0  0  0
  7  2  1  0  0  0  0
  8  5  1  0  0  0  0
  9 10  1  0  0  0  0
 10  8  1  0  0  0  0
 11  9  1  0  0  0  0
 13 11  1  0  0  0  0
 13 14  1  0  0  0  0
 14 12  1  1  0  0  0
 14 15  1  0  0  0  0
 15  8  1  0  0  0  0
 16 17  1  0  0  0  0
 16 19  2  0  0  0  0
 17 11  1  0  0  0  0
 18 16  1  0  0  0  0
 20 23  1  0  0  0  0
 20 21  2  0  0  0  0
 22  3  1  1  0  0  0
 22 24  1  0  0  0  0
 22 25  1  0  0  0  0
 23 29  1  6  0  0  0
 24 26  1  0  0  0  0
 25 20  1  0  0  0  0
 26 23  1  0  0  0  0
 27 28  2  0  0  0  0
 27 30  1  0  0  0  0
 29 27  1  0  0  0  0
 30 31  1  6  0  0  0
 30 34  1  0  0  0  0
 32 31  1  0  0  0  0
 34 33  1  0  0  0  0
M  END
>  <MODEL>
4

>  <REMARK>
 VINA RESULT:      -6.6      3.869      8.828
  Name = 
  7 active torsions:
  status: ('A' for Active; 'I' for Inactive)
    1  A    between atoms: C_2  and  C_17
    2  A    between atoms: N_6  and  C_25
    3  A    between atoms: C_10  and  C_13
    4  A    between atoms: N_11  and  N_16
    5  A    between atoms: N_14  and  C_18
    6  A    between atoms: C_15  and  C_17
    7  A    between atoms: C_17  and  C_30
                            x       y       z     vdW  Elec       q    Type
                         _______ _______ _______ _____ _____    ______ ____

>  <TORSDO>
F 7

$$$$
=
 OpenBabel11062415393D

 34 36  0  0  1  0  0  0  0  0999 V2000
  193.5720  176.7540  140.1480 C   0  0  0  0  0  3  0  0  0  0  0  0
  192.5540  176.3890  138.0340 C   0  0  0  0  0  0  0  0  0  0  0  0
  191.1980  177.1300  139.9010 C   0  0  0  0  0  0  0  0  0  0  0  0
  193.6510  176.3990  138.8390 N   0  0  0  0  0  0  0  0  0  0  0  0
  191.2980  176.7510  138.5510 C   0  0  0  0  0  0  0  0  0  0  0  0
  192.3470  177.1230  140.7020 C   0  0  0  0  0  3  0  0  0  0  0  0
  192.6920  176.0020  136.6710 N   0  0  0  0  0  1  0  0  0  0  0  0
  190.1410  176.7310  137.7090 N   0  0  0  0  0  0  0  0  0  0  0  0
  188.0030  175.5540  137.9670 C   0  0  0  0  0  2  0  0  0  0  0  0
  189.4400  175.4770  137.4600 C   0  0  0  0  0  2  0  0  0  0  0  0
  187.2850  176.6480  137.3260 N   0  0  0  0  0  0  0  0  0  0  0  0
  188.1300  179.5720  136.6130 F   0  0  0  0  0  0  0  0  0  0  0  0
  187.5320  177.8380  138.1350 C   0  0  0  0  0  2  0  0  0  0  0  0
  188.6540  178.7010  137.5490 C   0  0  1  0  0  3  0  0  0  0  0  0
  189.7960  177.9030  136.9120 C   0  0  0  0  0  2  0  0  0  0  0  0
  184.9930  176.6860  136.4040 C   0  0  0  0  0  0  0  0  0  0  0  0
  185.9190  176.3490  137.4370 N   0  0  0  0  0  2  0  0  0  0  0  0
  183.6130  176.3820  136.5670 N   0  0  0  0  0  1  0  0  0  0  0  0
  185.3900  177.2450  135.3480 O   0  0  0  0  0  0  0  0  0  0  0  0
  189.9650  178.4040  142.8460 C   0  0  0  0  0  0  0  0  0  0  0  0
  190.3080  179.2570  143.6480 O   0  0  0  0  0  0  0  0  0  0  0  0
  189.8620  177.5070  140.4910 C   0  0  1  0  0  3  0  0  0  0  0  0
  189.5650  177.0460  143.3370 C   0  0  2  0  0  3  0  0  0  0  0  0
  189.1520  176.4140  141.0410 O   0  0  0  0  0  0  0  0  0  0  0  0
  189.8840  178.7550  141.3880 C   0  0  0  0  0  2  0  0  0  0  0  0
  189.7840  176.0140  142.2330 C   0  0  0  0  0  2  0  0  0  0  0  0
  187.7340  177.4930  145.0310 C   0  0  0  0  0  0  0  0  0  0  0  0
  188.5730  177.9020  145.8790 O   0  0  0  0  0  0  0  0  0  0  0  0
  188.1640  177.0670  143.7350 N   0  0  0  0  0  2  0  0  0  0  0  0
  186.2820  177.4770  145.3900 C   0  0  2  0  0  3  0  0  0  0  0  0
  185.4200  177.8780  144.1980 C   0  0  0  0  0  2  0  0  0  0  0  0
  185.2980  179.3890  144.1160 C   0  0  0  0  0  1  0  0  0  0  0  0
  184.6470  178.2950  146.9670 O   0  0  0  0  0  1  0  0  0  0  0  0
  186.0020  178.3360  146.6230 C   0  0  0  0  0  2  0  0  0  0  0  0
  1  6  1  0  0  0  0
  2  5  2  0  0  0  0
  2  4  1  0  0  0  0
  3  6  2  0  0  0  0
  4  1  2  0  0  0  0
  5  3  1  0  0  0  0
  7  2  1  0  0  0  0
  8  5  1  0  0  0  0
 10  8  1  0  0  0  0
 10  9  1  0  0  0  0
 11 17  1  0  0  0  0
 11  9  1  0  0  0  0
 11 13  1  0  0  0  0
 14 12  1  6  0  0  0
 14 13  1  0  0  0  0
 15 14  1  0  0  0  0
 15  8  1  0  0  0  0
 16 18  1  0  0  0  0
 16 17  1  0  0  0  0
 19 16  2  0  0  0  0
 20 23  1  0  0  0  0
 20 21  2  0  0  0  0
 22  3  1  1  0  0  0
 22 24  1  0  0  0  0
 22 25  1  0  0  0  0
 23 29  1  6  0  0  0
 24 26  1  0  0  0  0
 25 20  1  0  0  0  0
 26 23  1  0  0  0  0
 27 30  1  0  0  0  0
 27 28  2  0  0  0  0
 29 27  1  0  0  0  0
 30 31  1  6  0  0  0
 30 34  1  0  0  0  0
 32 31  1  0  0  0  0
 34 33  1  0  0  0  0
M  END
>  <MODEL>
5

>  <REMARK>
 VINA RESULT:      -6.4      3.708      8.704
  Name = 
  7 active torsions:
  status: ('A' for Active; 'I' for Inactive)
    1  A    between atoms: C_2  and  C_17
    2  A    between atoms: N_6  and  C_25
    3  A    between atoms: C_10  and  C_13
    4  A    between atoms: N_11  and  N_16
    5  A    between atoms: N_14  and  C_18
    6  A    between atoms: C_15  and  C_17
    7  A    between atoms: C_17  and  C_30
                            x       y       z     vdW  Elec       q    Type
                         _______ _______ _______ _____ _____    ______ ____

>  <TORSDO>
F 7

$$$$
=
 OpenBabel11062415393D

 34 36  0  0  1  0  0  0  0  0999 V2000
  180.4390  180.7030  139.9840 C   0  0  0  0  0  3  0  0  0  0  0  0
  180.0170  178.7130  138.7590 C   0  0  0  0  0  0  0  0  0  0  0  0
  181.4130  178.6240  140.7380 C   0  0  0  0  0  0  0  0  0  0  0  0
  179.8550  180.0510  138.9460 N   0  0  0  0  0  0  0  0  0  0  0  0
  180.8070  177.9680  139.6520 C   0  0  0  0  0  0  0  0  0  0  0  0
  181.2280  180.0040  140.8960 C   0  0  0  0  0  3  0  0  0  0  0  0
  179.3860  178.0800  137.6510 N   0  0  0  0  0  1  0  0  0  0  0  0
  180.9880  176.5630  139.4530 N   0  0  0  0  0  0  0  0  0  0  0  0
  179.3390  174.7630  139.2060 C   0  0  0  0  0  2  0  0  0  0  0  0
  180.1560  175.6090  140.1770 C   0  0  0  0  0  2  0  0  0  0  0  0
  180.2100  174.0460  138.2830 N   0  0  0  0  0  0  0  0  0  0  0  0
  182.7940  174.9080  136.7480 F   0  0  0  0  0  0  0  0  0  0  0  0
  180.4450  174.9410  137.1530 C   0  0  0  0  0  2  0  0  0  0  0  0
  181.7810  175.6810  137.2820 C   0  0  1  0  0  3  0  0  0  0  0  0
  182.1480  176.0720  138.7180 C   0  0  0  0  0  2  0  0  0  0  0  0
  180.1070  171.8210  137.2120 C   0  0  0  0  0  0  0  0  0  0  0  0
  179.4710  172.9570  137.7990 N   0  0  0  0  0  2  0  0  0  0  0  0
  179.3180  170.7480  136.7160 N   0  0  0  0  0  1  0  0  0  0  0  0
  181.3630  171.7620  137.1350 O   0  0  0  0  0  0  0  0  0  0  0  0
  183.7780  179.2910  143.1430 C   0  0  0  0  0  0  0  0  0  0  0  0
  183.9330  180.1290  144.0160 O   0  0  0  0  0  0  0  0  0  0  0  0
  182.2810  177.8580  141.7050 C   0  0  1  0  0  3  0  0  0  0  0  0
  184.9060  178.9810  142.2060 C   0  0  2  0  0  3  0  0  0  0  0  0
  183.4730  177.3590  141.1290 O   0  0  0  0  0  0  0  0  0  0  0  0
  182.4810  178.5370  143.0690 C   0  0  0  0  0  2  0  0  0  0  0  0
  184.3500  178.4360  140.8930 C   0  0  0  0  0  2  0  0  0  0  0  0
  187.1660  177.8590  142.4440 C   0  0  0  0  0  0  0  0  0  0  0  0
  187.6680  178.6120  141.5670 O   0  0  0  0  0  0  0  0  0  0  0  0
  185.7930  178.0040  142.8210 N   0  0  0  0  0  2  0  0  0  0  0  0
  188.0260  176.8260  143.0990 C   0  0  2  0  0  3  0  0  0  0  0  0
  187.7550  176.7600  144.5980 C   0  0  0  0  0  2  0  0  0  0  0  0
  188.3710  177.9550  145.3020 C   0  0  0  0  0  1  0  0  0  0  0  0
  190.1030  175.8790  142.3130 O   0  0  0  0  0  1  0  0  0  0  0  0
  189.5050  177.0510  142.7870 C   0  0  0  0  0  2  0  0  0  0  0  0
  1  6  1  0  0  0  0
  2  4  1  0  0  0  0
  2  5  2  0  0  0  0
  3  6  2  0  0  0  0
  4  1  2  0  0  0  0
  5  3  1  0  0  0  0
  7  2  1  0  0  0  0
  8  5  1  0  0  0  0
  8 10  1  0  0  0  0
  9 10  1  0  0  0  0
 11  9  1  0  0  0  0
 13 14  1  0  0  0  0
 13 11  1  0  0  0  0
 14 12  1  1  0  0  0
 14 15  1  0  0  0  0
 15  8  1  0  0  0  0
 16 17  1  0  0  0  0
 17 11  1  0  0  0  0
 18 16  1  0  0  0  0
 19 16  2  0  0  0  0
 20 21  2  0  0  0  0
 22  3  1  6  0  0  0
 22 25  1  0  0  0  0
 23 29  1  1  0  0  0
 23 20  1  0  0  0  0
 24 22  1  0  0  0  0
 25 20  1  0  0  0  0
 26 24  1  0  0  0  0
 26 23  1  0  0  0  0
 27 29  1  0  0  0  0
 27 30  1  0  0  0  0
 28 27  2  0  0  0  0
 30 34  1  1  0  0  0
 30 31  1  0  0  0  0
 31 32  1  0  0  0  0
 33 34  1  0  0  0  0
M  END
>  <MODEL>
6

>  <REMARK>
 VINA RESULT:      -6.2      7.014     10.614
  Name = 
  7 active torsions:
  status: ('A' for Active; 'I' for Inactive)
    1  A    between atoms: C_2  and  C_17
    2  A    between atoms: N_6  and  C_25
    3  A    between atoms: C_10  and  C_13
    4  A    between atoms: N_11  and  N_16
    5  A    between atoms: N_14  and  C_18
    6  A    between atoms: C_15  and  C_17
    7  A    between atoms: C_17  and  C_30
                            x       y       z     vdW  Elec       q    Type
                         _______ _______ _______ _____ _____    ______ ____

>  <TORSDO>
F 7

$$$$
=
 OpenBabel11062415393D

 34 36  0  0  1  0  0  0  0  0999 V2000
  189.1020  178.0000  146.9780 C   0  0  0  0  0  3  0  0  0  0  0  0
  186.7820  178.4630  146.7680 C   0  0  0  0  0  0  0  0  0  0  0  0
  187.9770  177.4770  144.9040 C   0  0  0  0  0  0  0  0  0  0  0  0
  187.9330  178.4650  147.4920 N   0  0  0  0  0  0  0  0  0  0  0  0
  186.7790  177.9710  145.4510 C   0  0  0  0  0  0  0  0  0  0  0  0
  189.1450  177.5000  145.6780 C   0  0  0  0  0  3  0  0  0  0  0  0
  185.5860  178.9680  147.3540 N   0  0  0  0  0  1  0  0  0  0  0  0
  185.5720  177.9770  144.6830 N   0  0  0  0  0  0  0  0  0  0  0  0
  183.3920  179.0030  145.1500 C   0  0  0  0  0  2  0  0  0  0  0  0
  184.2860  177.7820  145.3410 C   0  0  0  0  0  2  0  0  0  0  0  0
  183.1780  179.2700  143.7330 N   0  0  0  0  0  0  0  0  0  0  0  0
  185.1040  179.1870  141.2730 F   0  0  0  0  0  0  0  0  0  0  0  0
  184.2770  180.1280  143.3000 C   0  0  0  0  0  2  0  0  0  0  0  0
  185.3900  179.3250  142.6170 C   0  0  1  0  0  3  0  0  0  0  0  0
  185.6320  177.9400  143.2260 C   0  0  0  0  0  2  0  0  0  0  0  0
  180.9390  179.6640  142.7620 C   0  0  0  0  0  0  0  0  0  0  0  0
  182.0020  180.0300  143.6430 N   0  0  0  0  0  2  0  0  0  0  0  0
  179.7740  180.4740  142.6880 N   0  0  0  0  0  1  0  0  0  0  0  0
  181.0260  178.6260  142.0530 O   0  0  0  0  0  0  0  0  0  0  0  0
  190.1570  175.7980  142.8440 C   0  0  0  0  0  0  0  0  0  0  0  0
  190.9490  174.8780  142.9630 O   0  0  0  0  0  0  0  0  0  0  0  0
  188.0120  176.9580  143.4880 C   0  0  1  0  0  3  0  0  0  0  0  0
  190.5920  177.0650  142.1710 C   0  0  2  0  0  3  0  0  0  0  0  0
  188.3670  177.9370  142.5310 O   0  0  0  0  0  0  0  0  0  0  0  0
  188.7420  175.6170  143.3120 C   0  0  0  0  0  2  0  0  0  0  0  0
  189.7370  178.2300  142.6650 C   0  0  0  0  0  2  0  0  0  0  0  0
  191.5460  177.1350  139.8240 C   0  0  0  0  0  0  0  0  0  0  0  0
  192.6880  177.4380  140.2620 O   0  0  0  0  0  0  0  0  0  0  0  0
  190.4580  176.9190  140.7280 N   0  0  0  0  0  2  0  0  0  0  0  0
  191.3440  176.9870  138.3500 C   0  0  2  0  0  3  0  0  0  0  0  0
  189.8610  176.9460  138.0010 C   0  0  0  0  0  2  0  0  0  0  0  0
  189.4300  178.2520  137.3600 C   0  0  0  0  0  1  0  0  0  0  0  0
  191.3630  174.6020  137.9690 O   0  0  0  0  0  1  0  0  0  0  0  0
  192.1020  175.7770  137.8010 C   0  0  0  0  0  2  0  0  0  0  0  0
  1  4  1  0  0  0  0
  2  7  1  0  0  0  0
  2  4  2  0  0  0  0
  3  5  2  0  0  0  0
  3  6  1  0  0  0  0
  5  2  1  0  0  0  0
  6  1  2  0  0  0  0
  8 10  1  0  0  0  0
  8  5  1  0  0  0  0
  9 10  1  0  0  0  0
 11  9  1  0  0  0  0
 13 11  1  0  0  0  0
 14 12  1  6  0  0  0
 14 15  1  0  0  0  0
 14 13  1  0  0  0  0
 15  8  1  0  0  0  0
 16 17  1  0  0  0  0
 17 11  1  0  0  0  0
 18 16  1  0  0  0  0
 19 16  2  0  0  0  0
 20 21  2  0  0  0  0
 20 25  1  0  0  0  0
 22  3  1  1  0  0  0
 23 29  1  6  0  0  0
 23 26  1  0  0  0  0
 23 20  1  0  0  0  0
 24 26  1  0  0  0  0
 24 22  1  0  0  0  0
 25 22  1  0  0  0  0
 27 28  2  0  0  0  0
 27 29  1  0  0  0  0
 30 34  1  1  0  0  0
 30 27  1  0  0  0  0
 31 30  1  0  0  0  0
 32 31  1  0  0  0  0
 34 33  1  0  0  0  0
M  END
>  <MODEL>
7

>  <REMARK>
 VINA RESULT:      -6.1      4.263      7.112
  Name = 
  7 active torsions:
  status: ('A' for Active; 'I' for Inactive)
    1  A    between atoms: C_2  and  C_17
    2  A    between atoms: N_6  and  C_25
    3  A    between atoms: C_10  and  C_13
    4  A    between atoms: N_11  and  N_16
    5  A    between atoms: N_14  and  C_18
    6  A    between atoms: C_15  and  C_17
    7  A    between atoms: C_17  and  C_30
                            x       y       z     vdW  Elec       q    Type
                         _______ _______ _______ _____ _____    ______ ____

>  <TORSDO>
F 7

$$$$
=
 OpenBabel11062415393D

 34 36  0  0  1  0  0  0  0  0999 V2000
  193.1650  177.0110  138.4880 C   0  0  0  0  0  3  0  0  0  0  0  0
  192.1890  177.4160  140.6150 C   0  0  0  0  0  0  0  0  0  0  0  0
  190.8870  176.3140  138.8930 C   0  0  0  0  0  0  0  0  0  0  0  0
  193.2410  177.4930  139.7560 N   0  0  0  0  0  0  0  0  0  0  0  0
  190.9830  176.8260  140.1990 C   0  0  0  0  0  0  0  0  0  0  0  0
  191.9890  176.4160  138.0340 C   0  0  0  0  0  3  0  0  0  0  0  0
  192.3210  177.9420  141.9310 N   0  0  0  0  0  1  0  0  0  0  0  0
  189.8700  176.7520  141.0970 N   0  0  0  0  0  0  0  0  0  0  0  0
  189.8050  176.4220  143.5280 C   0  0  0  0  0  2  0  0  0  0  0  0
  189.8530  175.7520  142.1580 C   0  0  0  0  0  2  0  0  0  0  0  0
  188.6300  177.2760  143.6450 N   0  0  0  0  0  0  0  0  0  0  0  0
  187.2740  179.2570  141.6420 F   0  0  0  0  0  0  0  0  0  0  0  0
  189.0140  178.5860  143.1260 C   0  0  0  0  0  2  0  0  0  0  0  0
  188.5680  178.7750  141.6720 C   0  0  1  0  0  3  0  0  0  0  0  0
  188.6540  177.5060  140.8170 C   0  0  0  0  0  2  0  0  0  0  0  0
  187.0770  177.7170  145.5170 C   0  0  0  0  0  0  0  0  0  0  0  0
  188.3850  177.4330  145.0170 N   0  0  0  0  0  2  0  0  0  0  0  0
  186.8770  177.8870  146.9140 N   0  0  0  0  0  1  0  0  0  0  0  0
  186.1000  177.8130  144.7280 O   0  0  0  0  0  0  0  0  0  0  0  0
  189.5700  175.1060  135.9570 C   0  0  0  0  0  0  0  0  0  0  0  0
  189.9800  174.4530  135.0110 O   0  0  0  0  0  0  0  0  0  0  0  0
  189.6010  175.6900  138.4100 C   0  0  1  0  0  3  0  0  0  0  0  0
  188.8080  176.3720  135.7070 C   0  0  2  0  0  3  0  0  0  0  0  0
  188.5920  176.6320  138.1000 O   0  0  0  0  0  0  0  0  0  0  0  0
  189.7770  174.5900  137.3520 C   0  0  0  0  0  2  0  0  0  0  0  0
  188.9430  177.3000  136.9110 C   0  0  0  0  0  2  0  0  0  0  0  0
  186.4570  177.0330  135.0310 C   0  0  0  0  0  0  0  0  0  0  0  0
  186.8200  178.2190  134.8050 O   0  0  0  0  0  0  0  0  0  0  0  0
  187.4060  176.0570  135.4690 N   0  0  0  0  0  2  0  0  0  0  0  0
  185.0260  176.6550  134.8190 C   0  0  2  0  0  3  0  0  0  0  0  0
  184.1470  177.1820  135.9480 C   0  0  0  0  0  2  0  0  0  0  0  0
  184.7620  176.8540  137.2960 C   0  0  0  0  0  1  0  0  0  0  0  0
  183.5220  174.7780  134.6020 O   0  0  0  0  0  1  0  0  0  0  0  0
  184.8700  175.1470  134.6200 C   0  0  0  0  0  2  0  0  0  0  0  0
  1  4  1  0  0  0  0
  2  7  1  0  0  0  0
  3  5  2  0  0  0  0
  4  2  2  0  0  0  0
  5  2  1  0  0  0  0
  5  8  1  0  0  0  0
  6  1  2  0  0  0  0
  6  3  1  0  0  0  0
  8 10  1  0  0  0  0
  9 11  1  0  0  0  0
 10  9  1  0  0  0  0
 11 17  1  0  0  0  0
 13 11  1  0  0  0  0
 14 12  1  1  0  0  0
 14 13  1  0  0  0  0
 15  8  1  0  0  0  0
 15 14  1  0  0  0  0
 16 18  1  0  0  0  0
 17 16  1  0  0  0  0
 19 16  2  0  0  0  0
 20 25  1  0  0  0  0
 21 20  2  0  0  0  0
 22  3  1  6  0  0  0
 23 29  1  1  0  0  0
 23 20  1  0  0  0  0
 23 26  1  0  0  0  0
 24 22  1  0  0  0  0
 25 22  1  0  0  0  0
 26 24  1  0  0  0  0
 27 29  1  0  0  0  0
 28 27  2  0  0  0  0
 30 34  1  1  0  0  0
 30 27  1  0  0  0  0
 30 31  1  0  0  0  0
 31 32  1  0  0  0  0
 33 34  1  0  0  0  0
M  END
>  <MODEL>
8

>  <REMARK>
 VINA RESULT:      -5.6      3.540      6.546
  Name = 
  7 active torsions:
  status: ('A' for Active; 'I' for Inactive)
    1  A    between atoms: C_2  and  C_17
    2  A    between atoms: N_6  and  C_25
    3  A    between atoms: C_10  and  C_13
    4  A    between atoms: N_11  and  N_16
    5  A    between atoms: N_14  and  C_18
    6  A    between atoms: C_15  and  C_17
    7  A    between atoms: C_17  and  C_30
                            x       y       z     vdW  Elec       q    Type
                         _______ _______ _______ _____ _____    ______ ____

>  <TORSDO>
F 7

$$$$
=
 OpenBabel11062415393D

 34 36  0  0  1  0  0  0  0  0999 V2000
  185.7130  175.9660  134.5970 C   0  0  0  0  0  3  0  0  0  0  0  0
  183.5850  176.1260  135.6380 C   0  0  0  0  0  0  0  0  0  0  0  0
  185.4860  177.2600  136.6250 C   0  0  0  0  0  0  0  0  0  0  0  0
  184.3890  175.6670  134.6410 N   0  0  0  0  0  0  0  0  0  0  0  0
  184.1190  176.9320  136.6580 C   0  0  0  0  0  0  0  0  0  0  0  0
  186.2850  176.7640  135.5860 C   0  0  0  0  0  3  0  0  0  0  0  0
  182.2040  175.7770  135.6400 N   0  0  0  0  0  1  0  0  0  0  0  0
  183.2780  177.4080  137.7140 N   0  0  0  0  0  0  0  0  0  0  0  0
  183.4300  177.0810  140.1420 C   0  0  0  0  0  2  0  0  0  0  0  0
  182.9180  176.5240  138.8170 C   0  0  0  0  0  2  0  0  0  0  0  0
  182.8870  178.4110  140.3880 N   0  0  0  0  0  0  0  0  0  0  0  0
  182.4380  180.8690  138.5090 F   0  0  0  0  0  0  0  0  0  0  0  0
  183.7990  179.3560  139.7500 C   0  0  0  0  0  2  0  0  0  0  0  0
  183.2930  179.7920  138.3710 C   0  0  1  0  0  3  0  0  0  0  0  0
  182.5880  178.6860  137.5800 C   0  0  0  0  0  2  0  0  0  0  0  0
  181.8020  178.7400  142.5840 C   0  0  0  0  0  0  0  0  0  0  0  0
  182.9710  178.6270  141.7710 N   0  0  0  0  0  2  0  0  0  0  0  0
  181.9330  178.9780  143.9790 N   0  0  0  0  0  1  0  0  0  0  0  0
  180.6570  178.6250  142.0730 O   0  0  0  0  0  0  0  0  0  0  0  0
  188.5410  178.6320  137.4000 C   0  0  0  0  0  0  0  0  0  0  0  0
  189.4450  179.1710  136.7830 O   0  0  0  0  0  0  0  0  0  0  0  0
  186.0940  178.1080  137.7140 C   0  0  1  0  0  3  0  0  0  0  0  0
  188.8590  177.5310  138.3650 C   0  0  2  0  0  3  0  0  0  0  0  0
  186.4960  177.3720  138.8530 O   0  0  0  0  0  0  0  0  0  0  0  0
  187.1340  179.1300  137.2280 C   0  0  0  0  0  2  0  0  0  0  0  0
  187.6430  176.6220  138.5280 C   0  0  0  0  0  2  0  0  0  0  0  0
  189.9580  177.3740  140.6430 C   0  0  0  0  0  0  0  0  0  0  0  0
  190.3300  176.1910  140.4190 O   0  0  0  0  0  0  0  0  0  0  0  0
  189.2330  178.1060  139.6510 N   0  0  0  0  0  2  0  0  0  0  0  0
  190.3000  178.0120  141.9520 C   0  0  2  0  0  3  0  0  0  0  0  0
  191.6110  177.4620  142.5030 C   0  0  0  0  0  2  0  0  0  0  0  0
  191.6700  177.6380  144.0090 C   0  0  0  0  0  1  0  0  0  0  0  0
  188.3780  176.7490  142.6880 O   0  0  0  0  0  1  0  0  0  0  0  0
  189.1520  177.8830  142.9540 C   0  0  0  0  0  2  0  0  0  0  0  0
  1  4  2  0  0  0  0
  1  6  1  0  0  0  0
  2  7  1  0  0  0  0
  2  5  2  0  0  0  0
  3  5  1  0  0  0  0
  4  2  1  0  0  0  0
  5  8  1  0  0  0  0
  6  3  2  0  0  0  0
  8 10  1  0  0  0  0
  9 11  1  0  0  0  0
 10  9  1  0  0  0  0
 11 17  1  0  0  0  0
 13 11  1  0  0  0  0
 14 12  1  1  0  0  0
 14 13  1  0  0  0  0
 15  8  1  0  0  0  0
 15 14  1  0  0  0  0
 16 18  1  0  0  0  0
 17 16  1  0  0  0  0
 19 16  2  0  0  0  0
 20 23  1  0  0  0  0
 21 20  2  0  0  0  0
 22  3  1  6  0  0  0
 22 24  1  0  0  0  0
 23 26  1  0  0  0  0
 23 29  1  1  0  0  0
 25 20  1  0  0  0  0
 25 22  1  0  0  0  0
 26 24  1  0  0  0  0
 27 30  1  0  0  0  0
 28 27  2  0  0  0  0
 29 27  1  0  0  0  0
 30 31  1  1  0  0  0
 30 34  1  0  0  0  0
 31 32  1  0  0  0  0
 33 34  1  0  0  0  0
M  END
>  <MODEL>
9

>  <REMARK>
 VINA RESULT:      -5.5      4.817      7.725
  Name = 
  7 active torsions:
  status: ('A' for Active; 'I' for Inactive)
    1  A    between atoms: C_2  and  C_17
    2  A    between atoms: N_6  and  C_25
    3  A    between atoms: C_10  and  C_13
    4  A    between atoms: N_11  and  N_16
    5  A    between atoms: N_14  and  C_18
    6  A    between atoms: C_15  and  C_17
    7  A    between atoms: C_17  and  C_30
                            x       y       z     vdW  Elec       q    Type
                         _______ _______ _______ _____ _____    ______ ____

>  <TORSDO>
F 7

$$$$
