=
 OpenBabel11062416463D

 28 31  0  0  1  0  0  0  0  0999 V2000
  189.5470  175.8300  138.3040 C   0  0  0  0  0  3  0  0  0  0  0  0
  189.6850  175.9120  143.2340 C   0  0  0  0  0  3  0  0  0  0  0  0
  189.3370  175.5880  137.0130 C   0  0  0  0  0  0  0  0  0  0  0  0
  190.8990  175.9410  138.9250 C   0  0  1  0  0  3  0  0  0  0  0  0
  191.9600  176.1320  137.8630 C   0  0  0  0  0  0  0  0  0  0  0  0
  191.7430  175.8260  136.6160 N   0  0  0  0  0  0  0  0  0  0  0  0
  193.4310  177.0190  139.6510 C   0  0  0  0  0  2  0  0  0  0  0  0
  187.9720  175.7390  136.4630 C   0  0  0  0  0  0  0  0  0  0  0  0
  187.4870  177.8180  137.8020 C   0  0  0  0  0  0  0  0  0  0  0  0
  193.2030  176.7150  138.2450 N   0  0  0  0  0  2  0  0  0  0  0  0
  190.0010  176.9810  141.0760 C   0  0  0  0  0  0  0  0  0  0  0  0
  188.1800  178.4980  140.1260 C   0  0  0  0  0  2  0  0  0  0  0  0
  187.4520  177.6500  139.1320 C   0  0  0  0  0  3  0  0  0  0  0  0
  187.6090  175.0140  135.5000 O   0  0  0  0  0  0  0  0  0  0  0  0
  187.0520  176.7190  136.9880 N   0  0  0  0  0  2  0  0  0  0  0  0
  190.4990  175.2090  136.1430 C   0  0  0  0  0  2  0  0  0  0  0  0
  192.2380  177.7880  140.2230 C   0  0  0  0  0  2  0  0  0  0  0  0
  190.4530  176.1270  142.0910 C   0  0  0  0  0  3  0  0  0  0  0  0
  190.8660  177.1790  139.8560 C   0  0  1  0  0  3  0  0  0  0  0  0
  188.4510  176.5450  143.3730 C   0  0  0  0  0  3  0  0  0  0  0  0
  187.9680  177.3980  142.3690 C   0  0  0  0  0  0  0  0  0  0  0  0
  188.7420  177.6240  141.2140 C   0  0  0  0  0  0  0  0  0  0  0  0
  188.1830  178.9490  137.1470 C   0  0  0  0  0  0  0  0  0  0  0  0
  189.4400  178.9410  137.0640 O   0  0  0  0  0  1  0  0  0  0  0  0
  187.4820  180.0130  136.5940 O   0  0  0  0  0  0  0  0  0  0  0  0
  186.7230  178.0290  142.5020 O   0  0  0  0  0  0  0  0  0  0  0  0
  184.5910  178.2720  143.4660 N   0  0  0  0  0  1  0  0  0  0  0  0
  186.0080  178.1010  143.7290 C   0  0  0  0  0  2  0  0  0  0  0  0
  2 20  1  0  0  0  0
  3  1  2  0  0  0  0
  4  1  1  6  0  0  0
  4 19  1  0  0  0  0
  5 10  1  0  0  0  0
  5  4  1  0  0  0  0
  6  5  2  0  0  0  0
  7 17  1  0  0  0  0
  8 15  1  0  0  0  0
  8  3  1  0  0  0  0
  9 13  2  0  0  0  0
 10  7  1  0  0  0  0
 11 22  2  0  0  0  0
 11 18  1  0  0  0  0
 12 22  1  0  0  0  0
 13 12  1  0  0  0  0
 14  8  2  0  0  0  0
 15  9  1  0  0  0  0
 16  6  1  0  0  0  0
 16  3  1  0  0  0  0
 18  2  2  0  0  0  0
 19 17  1  1  0  0  0
 19 11  1  0  0  0  0
 21 26  1  0  0  0  0
 21 20  2  0  0  0  0
 22 21  1  0  0  0  0
 23  9  1  0  0  0  0
 24 23  1  0  0  0  0
 25 23  2  0  0  0  0
 26 28  1  0  0  0  0
 27 28  1  0  0  0  0
M  END
>  <MODEL>
1

>  <REMARK>
 VINA RESULT:      -6.8      0.000      0.000
  Name = 
  3 active torsions:
  status: ('A' for Active; 'I' for Inactive)
    1  A    between atoms: CA_10  and  C_13
    2  A    between atoms: O_17  and  C_25
    3  A    between atoms: O_17  and  C_27
                            x       y       z     vdW  Elec       q    Type
                         _______ _______ _______ _____ _____    ______ ____

>  <TORSDO>
F 3

$$$$
=
 OpenBabel11062416463D

 28 31  0  0  1  0  0  0  0  0999 V2000
  189.2570  174.8680  137.5810 C   0  0  0  0  0  3  0  0  0  0  0  0
  190.1640  176.8780  141.9930 C   0  0  0  0  0  3  0  0  0  0  0  0
  188.8240  174.1730  136.5330 C   0  0  0  0  0  0  0  0  0  0  0  0
  190.6930  174.9880  137.9690 C   0  0  1  0  0  3  0  0  0  0  0  0
  191.5920  174.5600  136.8300 C   0  0  0  0  0  0  0  0  0  0  0  0
  191.1510  173.8250  135.8500 N   0  0  0  0  0  0  0  0  0  0  0  0
  193.4140  175.8230  137.9410 C   0  0  0  0  0  2  0  0  0  0  0  0
  187.4170  174.3210  136.1000 C   0  0  0  0  0  0  0  0  0  0  0  0
  187.3870  176.8090  136.4930 C   0  0  0  0  0  0  0  0  0  0  0  0
  192.9380  175.0280  136.8170 N   0  0  0  0  0  2  0  0  0  0  0  0
  190.2640  176.9320  139.5670 C   0  0  0  0  0  0  0  0  0  0  0  0
  188.5040  178.2300  138.2470 C   0  0  0  0  0  2  0  0  0  0  0  0
  187.5390  177.1920  137.7690 C   0  0  0  0  0  3  0  0  0  0  0  0
  186.8290  173.3450  135.5650 O   0  0  0  0  0  0  0  0  0  0  0  0
  186.7080  175.5680  136.2540 N   0  0  0  0  0  2  0  0  0  0  0  0
  189.7870  173.2900  135.7950 C   0  0  0  0  0  2  0  0  0  0  0  0
  192.4200  176.9450  138.2510 C   0  0  0  0  0  2  0  0  0  0  0  0
  190.7660  176.4890  140.7980 C   0  0  0  0  0  3  0  0  0  0  0  0
  190.9470  176.4800  138.3000 C   0  0  1  0  0  3  0  0  0  0  0  0
  189.0480  177.7120  141.9710 C   0  0  0  0  0  3  0  0  0  0  0  0
  188.5170  178.1640  140.7540 C   0  0  0  0  0  0  0  0  0  0  0  0
  189.1230  177.7790  139.5430 C   0  0  0  0  0  0  0  0  0  0  0  0
  188.1000  177.4530  135.3650 C   0  0  0  0  0  0  0  0  0  0  0  0
  187.4720  178.2260  134.5940 O   0  0  0  0  0  0  0  0  0  0  0  0
  189.4560  177.2460  135.1480 O   0  0  0  0  0  1  0  0  0  0  0  0
  187.3880  178.9960  140.7280 O   0  0  0  0  0  0  0  0  0  0  0  0
  185.0730  179.3340  140.9750 N   0  0  0  0  0  1  0  0  0  0  0  0
  186.2830  178.8450  141.6110 C   0  0  0  0  0  2  0  0  0  0  0  0
  3  1  2  0  0  0  0
  4  1  1  6  0  0  0
  4 19  1  0  0  0  0
  5  4  1  0  0  0  0
  6  5  2  0  0  0  0
  7 17  1  0  0  0  0
  8 15  1  0  0  0  0
  8  3  1  0  0  0  0
  9 13  2  0  0  0  0
 10  5  1  0  0  0  0
 10  7  1  0  0  0  0
 11 18  1  0  0  0  0
 12 22  1  0  0  0  0
 13 12  1  0  0  0  0
 14  8  2  0  0  0  0
 15  9  1  0  0  0  0
 16  6  1  0  0  0  0
 16  3  1  0  0  0  0
 18  2  2  0  0  0  0
 19 17  1  1  0  0  0
 19 11  1  0  0  0  0
 20  2  1  0  0  0  0
 21 20  2  0  0  0  0
 22 11  2  0  0  0  0
 22 21  1  0  0  0  0
 23  9  1  0  0  0  0
 24 23  2  0  0  0  0
 25 23  1  0  0  0  0
 26 21  1  0  0  0  0
 26 28  1  0  0  0  0
 27 28  1  0  0  0  0
M  END
>  <MODEL>
2

>  <REMARK>
 VINA RESULT:      -6.0      1.624      2.034
  Name = 
  3 active torsions:
  status: ('A' for Active; 'I' for Inactive)
    1  A    between atoms: CA_10  and  C_13
    2  A    between atoms: O_17  and  C_25
    3  A    between atoms: O_17  and  C_27
                            x       y       z     vdW  Elec       q    Type
                         _______ _______ _______ _____ _____    ______ ____

>  <TORSDO>
F 3

$$$$
=
 OpenBabel11062416463D

 28 31  0  0  1  0  0  0  0  0999 V2000
  183.8170  177.9250  137.0270 C   0  0  0  0  0  3  0  0  0  0  0  0
  180.4120  180.6610  134.7340 C   0  0  0  0  0  3  0  0  0  0  0  0
  184.9170  177.3600  137.5160 C   0  0  0  0  0  0  0  0  0  0  0  0
  182.7340  177.1780  136.3220 C   0  0  1  0  0  3  0  0  0  0  0  0
  182.8580  175.6920  136.5770 C   0  0  0  0  0  0  0  0  0  0  0  0
  183.9710  175.1600  136.9970 N   0  0  0  0  0  0  0  0  0  0  0  0
  180.4800  175.4910  135.9040 C   0  0  0  0  0  2  0  0  0  0  0  0
  185.8010  178.1470  138.4030 C   0  0  0  0  0  0  0  0  0  0  0  0
  183.8810  179.2320  139.6220 C   0  0  0  0  0  0  0  0  0  0  0  0
  181.7030  174.8760  136.4030 N   0  0  0  0  0  2  0  0  0  0  0  0
  181.0760  179.1120  136.4830 C   0  0  0  0  0  0  0  0  0  0  0  0
  181.6150  179.9840  138.8220 C   0  0  0  0  0  2  0  0  0  0  0  0
  183.1090  180.0360  138.8780 C   0  0  0  0  0  3  0  0  0  0  0  0
  187.0380  177.9150  138.4070 O   0  0  0  0  0  0  0  0  0  0  0  0
  185.2740  179.1600  139.2850 N   0  0  0  0  0  2  0  0  0  0  0  0
  185.2080  175.9250  137.1860 C   0  0  0  0  0  2  0  0  0  0  0  0
  180.1700  176.7630  136.6970 C   0  0  0  0  0  2  0  0  0  0  0  0
  180.7060  179.3650  135.1560 C   0  0  0  0  0  3  0  0  0  0  0  0
  181.3880  177.6930  136.8910 C   0  0  1  0  0  3  0  0  0  0  0  0
  180.4910  181.7200  135.6360 C   0  0  0  0  0  3  0  0  0  0  0  0
  180.8670  181.4990  136.9690 C   0  0  0  0  0  0  0  0  0  0  0  0
  181.1600  180.1920  137.4020 C   0  0  0  0  0  0  0  0  0  0  0  0
  183.3340  178.2400  140.5760 C   0  0  0  0  0  0  0  0  0  0  0  0
  183.2540  178.5320  141.7990 O   0  0  0  0  0  1  0  0  0  0  0  0
  182.8790  176.9970  140.1530 O   0  0  0  0  0  0  0  0  0  0  0  0
  180.9550  182.5640  137.8770 O   0  0  0  0  0  0  0  0  0  0  0  0
  182.0200  184.5980  137.3590 N   0  0  0  0  0  1  0  0  0  0  0  0
  180.7430  183.9230  137.5120 C   0  0  0  0  0  2  0  0  0  0  0  0
  1  3  2  0  0  0  0
  2 18  2  0  0  0  0
  2 20  1  0  0  0  0
  3  8  1  0  0  0  0
  4  5  1  0  0  0  0
  4 19  1  0  0  0  0
  4  1  1  1  0  0  0
  5  6  2  0  0  0  0
  6 16  1  0  0  0  0
  7 10  1  0  0  0  0
  7 17  1  0  0  0  0
  8 14  2  0  0  0  0
  8 15  1  0  0  0  0
  9 23  1  0  0  0  0
 10  5  1  0  0  0  0
 11 19  1  0  0  0  0
 11 22  2  0  0  0  0
 12 13  1  0  0  0  0
 13  9  2  0  0  0  0
 15  9  1  0  0  0  0
 16  3  1  0  0  0  0
 18 11  1  0  0  0  0
 19 17  1  6  0  0  0
 20 21  2  0  0  0  0
 21 22  1  0  0  0  0
 21 26  1  0  0  0  0
 22 12  1  0  0  0  0
 23 24  1  0  0  0  0
 25 23  2  0  0  0  0
 27 28  1  0  0  0  0
 28 26  1  0  0  0  0
M  END
>  <MODEL>
3

>  <REMARK>
 VINA RESULT:      -5.7      5.937      8.849
  Name = 
  3 active torsions:
  status: ('A' for Active; 'I' for Inactive)
    1  A    between atoms: CA_10  and  C_13
    2  A    between atoms: O_17  and  C_25
    3  A    between atoms: O_17  and  C_27
                            x       y       z     vdW  Elec       q    Type
                         _______ _______ _______ _____ _____    ______ ____

>  <TORSDO>
F 3

$$$$
=
 OpenBabel11062416463D

 28 31  0  0  1  0  0  0  0  0999 V2000
  182.0570  176.0810  139.5190 C   0  0  0  0  0  3  0  0  0  0  0  0
  183.9700  178.5430  143.3410 C   0  0  0  0  0  3  0  0  0  0  0  0
  181.4780  175.2230  138.6840 C   0  0  0  0  0  0  0  0  0  0  0  0
  183.4230  176.6480  139.3220 C   0  0  1  0  0  3  0  0  0  0  0  0
  183.8890  176.4370  137.8990 C   0  0  0  0  0  0  0  0  0  0  0  0
  183.3410  175.5430  137.1250 N   0  0  0  0  0  0  0  0  0  0  0  0
  185.5320  178.2530  138.2850 C   0  0  0  0  0  2  0  0  0  0  0  0
  180.0400  174.9170  138.8450 C   0  0  0  0  0  0  0  0  0  0  0  0
  179.4240  177.3030  139.3710 C   0  0  0  0  0  0  0  0  0  0  0  0
  184.9160  177.2830  137.3890 N   0  0  0  0  0  2  0  0  0  0  0  0
  183.0930  178.4720  141.0770 C   0  0  0  0  0  0  0  0  0  0  0  0
  180.6580  179.0990  140.6320 C   0  0  0  0  0  2  0  0  0  0  0  0
  179.9400  177.7930  140.5060 C   0  0  0  0  0  3  0  0  0  0  0  0
  179.6100  173.7790  138.5230 O   0  0  0  0  0  0  0  0  0  0  0  0
  179.1100  175.9030  139.3400 N   0  0  0  0  0  2  0  0  0  0  0  0
  182.2920  174.6230  137.5750 C   0  0  0  0  0  2  0  0  0  0  0  0
  184.4520  179.0440  139.0270 C   0  0  0  0  0  2  0  0  0  0  0  0
  184.1430  178.2770  141.9840 C   0  0  0  0  0  3  0  0  0  0  0  0
  183.3280  178.1650  139.6190 C   0  0  1  0  0  3  0  0  0  0  0  0
  182.7400  179.0030  143.8090 C   0  0  0  0  0  3  0  0  0  0  0  0
  181.6670  179.1980  142.9260 C   0  0  0  0  0  0  0  0  0  0  0  0
  181.8370  178.9360  141.5530 C   0  0  0  0  0  0  0  0  0  0  0  0
  179.4120  178.0570  138.0950 C   0  0  0  0  0  0  0  0  0  0  0  0
  179.7060  177.4680  137.0220 O   0  0  0  0  0  0  0  0  0  0  0  0
  179.0550  179.3990  138.0470 O   0  0  0  0  0  1  0  0  0  0  0  0
  180.4260  179.6530  143.3940 O   0  0  0  0  0  0  0  0  0  0  0  0
  179.6800  177.5200  144.0540 N   0  0  0  0  0  1  0  0  0  0  0  0
  179.6390  178.9430  144.3430 C   0  0  0  0  0  2  0  0  0  0  0  0
  2 20  1  0  0  0  0
  3  8  1  0  0  0  0
  3  1  2  0  0  0  0
  4  1  1  6  0  0  0
  4 19  1  0  0  0  0
  5  4  1  0  0  0  0
  6 16  1  0  0  0  0
  6  5  2  0  0  0  0
  7 17  1  0  0  0  0
  8 15  1  0  0  0  0
  9 13  2  0  0  0  0
 10  5  1  0  0  0  0
 10  7  1  0  0  0  0
 11 22  2  0  0  0  0
 11 18  1  0  0  0  0
 12 22  1  0  0  0  0
 13 12  1  0  0  0  0
 14  8  2  0  0  0  0
 15  9  1  0  0  0  0
 16  3  1  0  0  0  0
 18  2  2  0  0  0  0
 19 17  1  1  0  0  0
 19 11  1  0  0  0  0
 21 26  1  0  0  0  0
 21 20  2  0  0  0  0
 22 21  1  0  0  0  0
 23  9  1  0  0  0  0
 24 23  2  0  0  0  0
 25 23  1  0  0  0  0
 26 28  1  0  0  0  0
 27 28  1  0  0  0  0
M  END
>  <MODEL>
4

>  <REMARK>
 VINA RESULT:      -5.7      5.841      7.706
  Name = 
  3 active torsions:
  status: ('A' for Active; 'I' for Inactive)
    1  A    between atoms: CA_10  and  C_13
    2  A    between atoms: O_17  and  C_25
    3  A    between atoms: O_17  and  C_27
                            x       y       z     vdW  Elec       q    Type
                         _______ _______ _______ _____ _____    ______ ____

>  <TORSDO>
F 3

$$$$
=
 OpenBabel11062416463D

 28 31  0  0  1  0  0  0  0  0999 V2000
  186.3290  175.0090  137.2160 C   0  0  0  0  0  3  0  0  0  0  0  0
  189.0260  177.7340  140.3210 C   0  0  0  0  0  3  0  0  0  0  0  0
  185.5440  174.1230  136.6100 C   0  0  0  0  0  0  0  0  0  0  0  0
  187.7120  175.3480  136.7680 C   0  0  1  0  0  3  0  0  0  0  0  0
  187.9480  174.8630  135.3550 C   0  0  0  0  0  0  0  0  0  0  0  0
  187.1990  173.9460  134.8110 N   0  0  0  0  0  0  0  0  0  0  0  0
  189.8290  176.4740  135.2350 C   0  0  0  0  0  2  0  0  0  0  0  0
  184.1160  174.0440  136.9880 C   0  0  0  0  0  0  0  0  0  0  0  0
  183.8610  176.5440  137.1770 C   0  0  0  0  0  0  0  0  0  0  0  0
  188.9860  175.4740  134.5940 N   0  0  0  0  0  2  0  0  0  0  0  0
  187.8410  177.4430  138.2200 C   0  0  0  0  0  0  0  0  0  0  0  0
  185.4580  178.3240  137.9670 C   0  0  0  0  0  2  0  0  0  0  0  0
  184.5830  177.1240  138.1460 C   0  0  0  0  0  3  0  0  0  0  0  0
  183.5170  172.9400  136.9140 O   0  0  0  0  0  0  0  0  0  0  0  0
  183.3850  175.2120  137.4170 N   0  0  0  0  0  2  0  0  0  0  0  0
  186.1220  173.2570  135.5290 C   0  0  0  0  0  2  0  0  0  0  0  0
  188.9620  177.5080  135.9570 C   0  0  0  0  0  2  0  0  0  0  0  0
  188.9770  177.2450  139.0170 C   0  0  0  0  0  3  0  0  0  0  0  0
  187.8350  176.8910  136.8150 C   0  0  1  0  0  3  0  0  0  0  0  0
  187.9340  178.4220  140.8470 C   0  0  0  0  0  3  0  0  0  0  0  0
  186.7790  178.6270  140.0760 C   0  0  0  0  0  0  0  0  0  0  0  0
  186.7270  178.1410  138.7560 C   0  0  0  0  0  0  0  0  0  0  0  0
  183.7600  177.0920  135.8040 C   0  0  0  0  0  0  0  0  0  0  0  0
  182.7040  177.6770  135.4450 O   0  0  0  0  0  1  0  0  0  0  0  0
  184.8160  177.0010  134.9050 O   0  0  0  0  0  0  0  0  0  0  0  0
  185.6760  179.3130  140.6050 O   0  0  0  0  0  0  0  0  0  0  0  0
  184.0750  178.0190  141.7450 N   0  0  0  0  0  1  0  0  0  0  0  0
  185.1130  179.0260  141.8800 C   0  0  0  0  0  2  0  0  0  0  0  0
  2 20  1  0  0  0  0
  3  8  1  0  0  0  0
  3  1  2  0  0  0  0
  4 19  1  0  0  0  0
  4  1  1  6  0  0  0
  5  4  1  0  0  0  0
  6  5  2  0  0  0  0
  6 16  1  0  0  0  0
  7 17  1  0  0  0  0
  8 15  1  0  0  0  0
  9 15  1  0  0  0  0
  9 13  2  0  0  0  0
 10  7  1  0  0  0  0
 10  5  1  0  0  0  0
 11 22  2  0  0  0  0
 11 18  1  0  0  0  0
 12 13  1  0  0  0  0
 12 22  1  0  0  0  0
 14  8  2  0  0  0  0
 16  3  1  0  0  0  0
 18  2  2  0  0  0  0
 19 17  1  1  0  0  0
 19 11  1  0  0  0  0
 21 26  1  0  0  0  0
 21 20  2  0  0  0  0
 22 21  1  0  0  0  0
 23  9  1  0  0  0  0
 24 23  1  0  0  0  0
 25 23  2  0  0  0  0
 26 28  1  0  0  0  0
 27 28  1  0  0  0  0
M  END
>  <MODEL>
5

>  <REMARK>
 VINA RESULT:      -5.4      2.868      4.228
  Name = 
  3 active torsions:
  status: ('A' for Active; 'I' for Inactive)
    1  A    between atoms: CA_10  and  C_13
    2  A    between atoms: O_17  and  C_25
    3  A    between atoms: O_17  and  C_27
                            x       y       z     vdW  Elec       q    Type
                         _______ _______ _______ _____ _____    ______ ____

>  <TORSDO>
F 3

$$$$
=
 OpenBabel11062416463D

 28 31  0  0  1  0  0  0  0  0999 V2000
  180.8030  178.6910  139.3480 C   0  0  0  0  0  3  0  0  0  0  0  0
  180.4540  175.0140  136.0790 C   0  0  0  0  0  3  0  0  0  0  0  0
  180.7500  179.5080  140.3960 C   0  0  0  0  0  0  0  0  0  0  0  0
  180.3860  179.0730  137.9670 C   0  0  1  0  0  3  0  0  0  0  0  0
  180.2740  180.5760  137.8400 C   0  0  0  0  0  0  0  0  0  0  0  0
  180.1600  181.3450  138.8850 N   0  0  0  0  0  0  0  0  0  0  0  0
  180.4490  180.2690  135.3860 C   0  0  0  0  0  2  0  0  0  0  0  0
  181.4130  179.1100  141.6570 C   0  0  0  0  0  0  0  0  0  0  0  0
  183.4200  178.1360  140.4860 C   0  0  0  0  0  0  0  0  0  0  0  0
  180.3520  181.1530  136.5390 N   0  0  0  0  0  2  0  0  0  0  0  0
  181.5060  177.0450  136.8960 C   0  0  0  0  0  0  0  0  0  0  0  0
  183.6340  176.9020  138.3020 C   0  0  0  0  0  2  0  0  0  0  0  0
  183.1730  177.0680  139.7150 C   0  0  0  0  0  3  0  0  0  0  0  0
  180.9370  179.4990  142.7560 O   0  0  0  0  0  0  0  0  0  0  0  0
  182.6090  178.3040  141.6580 N   0  0  0  0  0  2  0  0  0  0  0  0
  180.0560  180.8310  140.2550 C   0  0  0  0  0  2  0  0  0  0  0  0
  181.5410  179.2220  135.6150 C   0  0  0  0  0  2  0  0  0  0  0  0
  180.4730  176.4020  136.2010 C   0  0  0  0  0  3  0  0  0  0  0  0
  181.4820  178.5500  137.0050 C   0  0  1  0  0  3  0  0  0  0  0  0
  181.4660  174.2510  136.6560 C   0  0  0  0  0  3  0  0  0  0  0  0
  182.5090  174.8650  137.3670 C   0  0  0  0  0  0  0  0  0  0  0  0
  182.5370  176.2670  137.4890 C   0  0  0  0  0  0  0  0  0  0  0  0
  184.2820  179.2620  140.0580 C   0  0  0  0  0  0  0  0  0  0  0  0
  185.4310  179.3900  140.5570 O   0  0  0  0  0  1  0  0  0  0  0  0
  183.8660  180.1720  139.0940 O   0  0  0  0  0  0  0  0  0  0  0  0
  183.5250  174.0990  137.9560 O   0  0  0  0  0  0  0  0  0  0  0  0
  185.6070  173.0030  137.9680 N   0  0  0  0  0  1  0  0  0  0  0  0
  184.3870  173.2410  137.2180 C   0  0  0  0  0  2  0  0  0  0  0  0
  1  3  2  0  0  0  0
  2 18  2  0  0  0  0
  2 20  1  0  0  0  0
  3  8  1  0  0  0  0
  4  1  1  1  0  0  0
  5  4  1  0  0  0  0
  5  6  2  0  0  0  0
  6 16  1  0  0  0  0
  7 17  1  0  0  0  0
  7 10  1  0  0  0  0
  8 15  1  0  0  0  0
  8 14  2  0  0  0  0
  9 15  1  0  0  0  0
 10  5  1  0  0  0  0
 11 19  1  0  0  0  0
 11 22  2  0  0  0  0
 12 13  1  0  0  0  0
 13  9  2  0  0  0  0
 16  3  1  0  0  0  0
 18 11  1  0  0  0  0
 19 17  1  6  0  0  0
 19  4  1  0  0  0  0
 20 21  2  0  0  0  0
 21 22  1  0  0  0  0
 21 26  1  0  0  0  0
 22 12  1  0  0  0  0
 23  9  1  0  0  0  0
 23 24  1  0  0  0  0
 25 23  2  0  0  0  0
 28 26  1  0  0  0  0
 28 27  1  0  0  0  0
M  END
>  <MODEL>
6

>  <REMARK>
 VINA RESULT:      -5.2      5.919      9.535
  Name = 
  3 active torsions:
  status: ('A' for Active; 'I' for Inactive)
    1  A    between atoms: CA_10  and  C_13
    2  A    between atoms: O_17  and  C_25
    3  A    between atoms: O_17  and  C_27
                            x       y       z     vdW  Elec       q    Type
                         _______ _______ _______ _____ _____    ______ ____

>  <TORSDO>
F 3

$$$$
=
 OpenBabel11062416463D

 28 31  0  0  1  0  0  0  0  0999 V2000
  188.8310  177.3520  137.1250 C   0  0  0  0  0  3  0  0  0  0  0  0
  193.5900  176.4300  138.0390 C   0  0  0  0  0  3  0  0  0  0  0  0
  187.6470  177.7160  136.6420 C   0  0  0  0  0  0  0  0  0  0  0  0
  189.3210  177.7030  138.4900 C   0  0  1  0  0  3  0  0  0  0  0  0
  188.1790  178.1720  139.3640 C   0  0  0  0  0  0  0  0  0  0  0  0
  187.0520  178.5830  138.8550 N   0  0  0  0  0  0  0  0  0  0  0  0
  189.6150  177.6680  141.3210 C   0  0  0  0  0  2  0  0  0  0  0  0
  187.1650  177.1130  135.3800 C   0  0  0  0  0  0  0  0  0  0  0  0
  188.0170  174.8150  135.9650 C   0  0  0  0  0  0  0  0  0  0  0  0
  188.3350  178.1030  140.7780 N   0  0  0  0  0  2  0  0  0  0  0  0
  191.2270  176.0070  138.4150 C   0  0  0  0  0  0  0  0  0  0  0  0
  190.0710  174.0720  137.2170 C   0  0  0  0  0  2  0  0  0  0  0  0
  189.3480  174.7050  136.0710 C   0  0  0  0  0  3  0  0  0  0  0  0
  186.4200  177.7830  134.6180 O   0  0  0  0  0  0  0  0  0  0  0  0
  187.5070  175.7600  135.0130 N   0  0  0  0  0  2  0  0  0  0  0  0
  186.8150  178.6990  137.4130 C   0  0  0  0  0  2  0  0  0  0  0  0
  190.0700  176.3810  140.6300 C   0  0  0  0  0  2  0  0  0  0  0  0
  192.3810  176.7690  138.6440 C   0  0  0  0  0  3  0  0  0  0  0  0
  189.9420  176.4170  139.0910 C   0  0  1  0  0  3  0  0  0  0  0  0
  193.6570  175.3260  137.1910 C   0  0  0  0  0  3  0  0  0  0  0  0
  192.5160  174.5500  136.9350 C   0  0  0  0  0  0  0  0  0  0  0  0
  191.2940  174.8840  137.5480 C   0  0  0  0  0  0  0  0  0  0  0  0
  187.0750  174.2190  136.9410 C   0  0  0  0  0  0  0  0  0  0  0  0
  186.2820  174.9660  137.5740 O   0  0  0  0  0  1  0  0  0  0  0  0
  187.0230  172.8480  137.1590 O   0  0  0  0  0  0  0  0  0  0  0  0
  192.5790  173.4430  136.0760 O   0  0  0  0  0  0  0  0  0  0  0  0
  193.1650  171.1910  135.7270 N   0  0  0  0  0  1  0  0  0  0  0  0
  193.6550  172.5120  136.0750 C   0  0  0  0  0  2  0  0  0  0  0  0
  2 18  1  0  0  0  0
  3  1  2  0  0  0  0
  3 16  1  0  0  0  0
  4  1  1  6  0  0  0
  4 19  1  0  0  0  0
  4  5  1  0  0  0  0
  5 10  1  0  0  0  0
  6  5  2  0  0  0  0
  8  3  1  0  0  0  0
  9 13  2  0  0  0  0
  9 23  1  0  0  0  0
 10  7  1  0  0  0  0
 11 18  2  0  0  0  0
 11 19  1  0  0  0  0
 12 22  1  0  0  0  0
 13 12  1  0  0  0  0
 14  8  2  0  0  0  0
 15  8  1  0  0  0  0
 15  9  1  0  0  0  0
 16  6  1  0  0  0  0
 17  7  1  0  0  0  0
 19 17  1  1  0  0  0
 20  2  2  0  0  0  0
 21 20  1  0  0  0  0
 21 22  2  0  0  0  0
 22 11  1  0  0  0  0
 23 25  2  0  0  0  0
 23 24  1  0  0  0  0
 26 21  1  0  0  0  0
 27 28  1  0  0  0  0
 28 26  1  0  0  0  0
M  END
>  <MODEL>
7

>  <REMARK>
 VINA RESULT:      -5.1      2.703      5.958
  Name = 
  3 active torsions:
  status: ('A' for Active; 'I' for Inactive)
    1  A    between atoms: CA_10  and  C_13
    2  A    between atoms: O_17  and  C_25
    3  A    between atoms: O_17  and  C_27
                            x       y       z     vdW  Elec       q    Type
                         _______ _______ _______ _____ _____    ______ ____

>  <TORSDO>
F 3

$$$$
=
 OpenBabel11062416463D

 28 31  0  0  1  0  0  0  0  0999 V2000
  181.8500  176.1550  139.4710 C   0  0  0  0  0  3  0  0  0  0  0  0
  185.4300  173.3600  137.5460 C   0  0  0  0  0  3  0  0  0  0  0  0
  181.0560  176.9200  140.2140 C   0  0  0  0  0  0  0  0  0  0  0  0
  181.4180  174.8810  138.8230 C   0  0  1  0  0  3  0  0  0  0  0  0
  179.9090  174.7830  138.7930 C   0  0  0  0  0  0  0  0  0  0  0  0
  179.1600  175.5030  139.5800 N   0  0  0  0  0  0  0  0  0  0  0  0
  180.1650  173.1010  136.9900 C   0  0  0  0  0  2  0  0  0  0  0  0
  181.5130  178.2730  140.6020 C   0  0  0  0  0  0  0  0  0  0  0  0
  182.5470  178.7450  138.3530 C   0  0  0  0  0  0  0  0  0  0  0  0
  179.3050  173.9170  137.8360 N   0  0  0  0  0  2  0  0  0  0  0  0
  183.4680  174.7710  137.3060 C   0  0  0  0  0  0  0  0  0  0  0  0
  183.7380  177.2420  136.7210 C   0  0  0  0  0  2  0  0  0  0  0  0
  183.5850  177.9650  138.0220 C   0  0  0  0  0  3  0  0  0  0  0  0
  181.1290  178.7660  141.6940 O   0  0  0  0  0  0  0  0  0  0  0  0
  182.3710  179.0530  139.7430 N   0  0  0  0  0  2  0  0  0  0  0  0
  179.7010  176.4050  140.6020 C   0  0  0  0  0  2  0  0  0  0  0  0
  181.2650  173.9650  136.3690 C   0  0  0  0  0  2  0  0  0  0  0  0
  184.0480  173.5280  137.5940 C   0  0  0  0  0  3  0  0  0  0  0  0
  181.9660  174.9050  137.3750 C   0  0  1  0  0  3  0  0  0  0  0  0
  186.2510  174.4370  137.2160 C   0  0  0  0  0  3  0  0  0  0  0  0
  185.7000  175.6960  136.9330 C   0  0  0  0  0  0  0  0  0  0  0  0
  184.3040  175.8700  136.9740 C   0  0  0  0  0  0  0  0  0  0  0  0
  181.4500  179.0760  137.4130 C   0  0  0  0  0  0  0  0  0  0  0  0
  181.3510  180.2480  136.9610 O   0  0  0  0  0  0  0  0  0  0  0  0
  180.5380  178.1160  136.9920 O   0  0  0  0  0  1  0  0  0  0  0  0
  186.5240  176.7830  136.6090 O   0  0  0  0  0  0  0  0  0  0  0  0
  187.1460  178.6270  137.9320 N   0  0  0  0  0  1  0  0  0  0  0  0
  187.5210  177.2980  137.4830 C   0  0  0  0  0  2  0  0  0  0  0  0
  1  3  2  0  0  0  0
  2 18  1  0  0  0  0
  3 16  1  0  0  0  0
  3  8  1  0  0  0  0
  4  1  1  6  0  0  0
  5  4  1  0  0  0  0
  5  6  2  0  0  0  0
  6 16  1  0  0  0  0
  7 10  1  0  0  0  0
  8 14  2  0  0  0  0
  9 15  1  0  0  0  0
 10  5  1  0  0  0  0
 11 19  1  0  0  0  0
 11 18  2  0  0  0  0
 12 22  1  0  0  0  0
 12 13  1  0  0  0  0
 13  9  2  0  0  0  0
 15  8  1  0  0  0  0
 17  7  1  0  0  0  0
 19 17  1  6  0  0  0
 19  4  1  0  0  0  0
 20  2  2  0  0  0  0
 21 22  2  0  0  0  0
 21 20  1  0  0  0  0
 22 11  1  0  0  0  0
 23  9  1  0  0  0  0
 24 23  2  0  0  0  0
 25 23  1  0  0  0  0
 26 21  1  0  0  0  0
 26 28  1  0  0  0  0
 28 27  1  0  0  0  0
M  END
>  <MODEL>
8

>  <REMARK>
 VINA RESULT:      -4.9      5.563      8.838
  Name = 
  3 active torsions:
  status: ('A' for Active; 'I' for Inactive)
    1  A    between atoms: CA_10  and  C_13
    2  A    between atoms: O_17  and  C_25
    3  A    between atoms: O_17  and  C_27
                            x       y       z     vdW  Elec       q    Type
                         _______ _______ _______ _____ _____    ______ ____

>  <TORSDO>
F 3

$$$$
=
 OpenBabel11062416463D

 28 31  0  0  1  0  0  0  0  0999 V2000
  182.7570  176.7310  138.8650 C   0  0  0  0  0  3  0  0  0  0  0  0
  187.1790  175.2870  137.2250 C   0  0  0  0  0  3  0  0  0  0  0  0
  181.6500  177.0040  139.5500 C   0  0  0  0  0  0  0  0  0  0  0  0
  182.7750  176.0260  137.5500 C   0  0  1  0  0  3  0  0  0  0  0  0
  181.3960  176.0160  136.9310 C   0  0  0  0  0  0  0  0  0  0  0  0
  180.3240  176.2250  137.6420 N   0  0  0  0  0  0  0  0  0  0  0  0
  182.4970  175.5650  134.7560 C   0  0  0  0  0  2  0  0  0  0  0  0
  181.7250  177.9150  140.7130 C   0  0  0  0  0  0  0  0  0  0  0  0
  183.3370  179.4880  139.5820 C   0  0  0  0  0  0  0  0  0  0  0  0
  181.2870  175.8260  135.5230 N   0  0  0  0  0  2  0  0  0  0  0  0
  185.1940  176.6760  137.0560 C   0  0  0  0  0  0  0  0  0  0  0  0
  185.2240  179.0600  137.9710 C   0  0  0  0  0  2  0  0  0  0  0  0
  184.5400  178.9720  139.2980 C   0  0  0  0  0  3  0  0  0  0  0  0
  180.9320  177.7550  141.6770 O   0  0  0  0  0  0  0  0  0  0  0  0
  182.6720  179.0030  140.7570 N   0  0  0  0  0  2  0  0  0  0  0  0
  180.3470  176.4120  139.0960 C   0  0  0  0  0  2  0  0  0  0  0  0
  183.5790  176.5860  135.1150 C   0  0  0  0  0  2  0  0  0  0  0  0
  185.8480  175.4540  136.8490 C   0  0  0  0  0  3  0  0  0  0  0  0
  183.7510  176.8070  136.6340 C   0  0  1  0  0  3  0  0  0  0  0  0
  187.8710  176.3400  137.8200 C   0  0  0  0  0  3  0  0  0  0  0  0
  187.2400  177.5720  138.0490 C   0  0  0  0  0  0  0  0  0  0  0  0
  185.8970  177.7490  137.6650 C   0  0  0  0  0  0  0  0  0  0  0  0
  182.5640  180.3140  138.6250 C   0  0  0  0  0  0  0  0  0  0  0  0
  182.5810  181.5690  138.7320 O   0  0  0  0  0  1  0  0  0  0  0  0
  181.8370  179.7400  137.5900 O   0  0  0  0  0  0  0  0  0  0  0  0
  187.9320  178.6310  138.6550 O   0  0  0  0  0  0  0  0  0  0  0  0
  188.1910  178.2760  140.9660 N   0  0  0  0  0  1  0  0  0  0  0  0
  188.8800  178.4510  139.7000 C   0  0  0  0  0  2  0  0  0  0  0  0
  1  3  2  0  0  0  0
  2 20  1  0  0  0  0
  3  8  1  0  0  0  0
  4  1  1  1  0  0  0
  5  4  1  0  0  0  0
  5  6  2  0  0  0  0
  6 16  1  0  0  0  0
  7 17  1  0  0  0  0
  7 10  1  0  0  0  0
  8 15  1  0  0  0  0
  8 14  2  0  0  0  0
  9 15  1  0  0  0  0
 10  5  1  0  0  0  0
 11 22  2  0  0  0  0
 12 13  1  0  0  0  0
 13  9  2  0  0  0  0
 16  3  1  0  0  0  0
 18 11  1  0  0  0  0
 18  2  2  0  0  0  0
 19 17  1  6  0  0  0
 19 11  1  0  0  0  0
 19  4  1  0  0  0  0
 20 21  2  0  0  0  0
 21 26  1  0  0  0  0
 22 12  1  0  0  0  0
 22 21  1  0  0  0  0
 23 24  1  0  0  0  0
 23  9  1  0  0  0  0
 25 23  2  0  0  0  0
 26 28  1  0  0  0  0
 28 27  1  0  0  0  0
M  END
>  <MODEL>
9

>  <REMARK>
 VINA RESULT:      -4.8      4.543      7.619
  Name = 
  3 active torsions:
  status: ('A' for Active; 'I' for Inactive)
    1  A    between atoms: CA_10  and  C_13
    2  A    between atoms: O_17  and  C_25
    3  A    between atoms: O_17  and  C_27
                            x       y       z     vdW  Elec       q    Type
                         _______ _______ _______ _____ _____    ______ ____

>  <TORSDO>
F 3

$$$$
