=
 OpenBabel11062417493D

 58 61  0  0  1  0  0  0  0  0999 V2000
  189.7400  177.6610  145.5700 C   0  0  0  0  0  3  0  0  0  0  0  0
  190.9410  177.8860  144.8340 N   0  0  0  0  0  0  0  0  0  0  0  0
  189.7250  177.2990  142.6790 C   0  0  2  0  0  3  0  0  0  0  0  0
  190.9750  177.7140  143.4170 C   0  0  0  0  0  0  0  0  0  0  0  0
  192.0260  178.0040  142.7860 O   0  0  0  0  0  0  0  0  0  0  0  0
  188.6800  177.1020  144.9920 C   0  0  0  0  0  2  0  0  0  0  0  0
  188.6970  176.5820  143.5780 C   0  0  1  0  0  3  0  0  0  0  0  0
  187.3030  176.7180  142.9550 C   0  0  0  0  0  2  0  0  0  0  0  0
  186.4870  177.9480  143.3990 C   0  0  1  0  0  3  0  0  0  0  0  0
  185.7750  180.3760  142.9690 C   0  0  0  0  0  1  0  0  0  0  0  0
  186.4360  179.1240  142.4170 C   0  0  2  0  0  3  0  0  0  0  0  0
  186.8720  178.8270  140.0640 O   0  0  0  0  0  1  0  0  0  0  0  0
  185.8860  178.7310  141.0490 C   0  0  0  0  0  2  0  0  0  0  0  0
  185.1120  177.6200  143.9710 C   0  0  0  0  0  2  0  0  0  0  0  0
  184.8390  178.4320  145.2000 C   0  0  0  0  0  0  0  0  0  0  0  0
  183.6580  178.9110  145.4450 N   0  0  0  0  0  0  0  0  0  0  0  0
  185.5960  179.7030  147.0410 O   0  0  0  0  0  1  0  0  0  0  0  0
  185.9450  178.6720  146.1670 C   0  0  0  0  0  2  0  0  0  0  0  0
  182.5960  178.6830  144.5980 O   0  0  0  0  0  0  0  0  0  0  0  0
  182.6520  179.2640  142.9620 S   0  0  0  0  0  0  0  0  0  0  0  0
  180.8370  179.2780  142.8410 C   0  0  0  0  0  2  0  0  0  0  0  0
  180.3850  178.5810  141.5640 C   0  0  2  0  0  0  0  0  0  0  0  0
  180.1020  179.4630  140.3540 C   0  0  2  0  0  3  0  0  0  0  0  0
  179.4490  177.3870  141.6860 C   0  0  0  0  0  1  0  0  0  0  0  0
  181.3740  178.6230  140.4050 C   0  0  2  0  0  3  0  0  0  0  0  0
  182.2870  177.0700  138.6540 C   0  0  0  0  0  0  0  0  0  0  0  0
  181.2330  177.4720  139.5260 N   0  0  0  0  0  2  0  0  0  0  0  0
  182.1160  176.0780  137.8960 O   0  0  0  0  0  0  0  0  0  0  0  0
  184.5650  177.4090  137.7860 C   0  0  0  0  0  1  0  0  0  0  0  0
  183.4940  177.7720  138.6450 O   0  0  0  0  0  0  0  0  0  0  0  0
  180.4330  180.8020  140.6000 O   0  0  0  0  0  0  0  0  0  0  0  0
  182.0960  181.6010  138.5340 O   0  0  0  0  0  0  0  0  0  0  0  0
  180.8730  181.8930  138.4770 C   0  0  0  0  0  0  0  0  0  0  0  0
  179.9840  181.4810  139.5150 N   0  0  0  0  0  2  0  0  0  0  0  0
  180.3500  182.6620  137.3190 C   0  0  0  0  0  1  0  0  0  0  0  0
  190.0340  176.4740  141.4230 C   0  0  0  0  0  2  0  0  0  0  0  0
  190.1070  175.9120  138.0550 C   0  0  2  0  0  3  0  0  0  0  0  0
  190.8930  177.9240  139.7170 C   0  0  0  0  0  2  0  0  0  0  0  0
  191.5150  175.7150  138.5950 C   0  0  0  0  0  2  0  0  0  0  0  0
  192.0260  176.9890  139.2650 C   0  0  0  0  0  2  0  0  0  0  0  0
  189.1600  176.2500  139.2190 C   0  0  0  0  0  2  0  0  0  0  0  0
  189.7040  177.2060  140.2010 N   0  0  0  0  0  0  0  0  0  0  0  0
  189.6980  174.7960  135.9040 C   0  0  1  0  0  3  0  0  0  0  0  0
  189.6600  174.6900  137.3860 N   0  0  2  0  0  0  0  0  0  0  0  0
  188.4450  175.0190  136.6200 C   0  0  2  0  0  3  0  0  0  0  0  0
  190.2050  176.0210  135.4540 O   0  0  0  0  0  1  0  0  0  0  0  0
  187.5520  173.8110  136.5470 C   0  0  0  0  0  0  0  0  0  0  0  0
  188.0280  172.7190  136.0730 N   0  0  0  0  0  2  0  0  0  0  0  0
  186.2050  172.8330  138.2710 O   0  0  0  0  0  1  0  0  0  0  0  0
  186.2150  173.7720  137.2370 C   0  0  2  0  0  3  0  0  0  0  0  0
  185.0620  173.5190  136.2670 C   0  0  0  0  0  2  0  0  0  0  0  0
  184.7790  172.1550  136.1700 O   0  0  0  0  0  0  0  0  0  0  0  0
  183.6810  171.9550  137.0120 C   0  0  0  0  0  2  0  0  0  0  0  0
  182.3990  171.9520  136.1960 C   0  0  1  0  0  3  0  0  0  0  0  0
  182.1150  170.5350  135.7430 C   0  0  0  0  0  1  0  0  0  0  0  0
  181.2270  172.4490  137.0350 C   0  0  0  0  0  2  0  0  0  0  0  0
  180.0270  171.5170  136.9330 C   0  0  0  0  0  2  0  0  0  0  0  0
  178.9640  172.1160  136.0330 C   0  0  0  0  0  1  0  0  0  0  0  0
  2  1  2  0  0  0  0
  3 36  1  6  0  0  0
  3  4  1  0  0  0  0
  3  7  1  0  0  0  0
  4  2  1  0  0  0  0
  5  4  2  0  0  0  0
  6  1  1  0  0  0  0
  7  8  1  6  0  0  0
  7  6  1  0  0  0  0
  9  8  1  6  0  0  0
  9 14  1  0  0  0  0
 11 10  1  1  0  0  0
 11  9  1  0  0  0  0
 12 13  1  0  0  0  0
 13 11  1  0  0  0  0
 14 15  1  0  0  0  0
 15 16  2  0  0  0  0
 15 18  1  0  0  0  0
 18 17  1  0  0  0  0
 19 16  1  0  0  0  0
 20 19  1  0  0  0  0
 21 20  1  0  0  0  0
 22 24  1  1  0  0  0
 22 21  1  0  0  0  0
 23 25  1  0  0  0  0
 23 31  1  1  0  0  0
 23 22  1  0  0  0  0
 25 27  1  6  0  0  0
 25 22  1  0  0  0  0
 26 27  1  0  0  0  0
 28 26  2  0  0  0  0
 29 30  1  0  0  0  0
 30 26  1  0  0  0  0
 33 32  2  0  0  0  0
 33 34  1  0  0  0  0
 34 31  1  0  0  0  0
 35 33  1  0  0  0  0
 37 39  1  1  0  0  0
 37 41  1  0  0  0  0
 38 42  1  0  0  0  0
 39 40  1  0  0  0  0
 40 38  1  0  0  0  0
 41 42  1  0  0  0  0
 42 36  1  0  0  0  0
 43 46  1  1  0  0  0
 43 45  1  0  0  0  0
 43 44  1  0  0  0  0
 44 37  1  1  0  0  0
 45 47  1  6  0  0  0
 45 44  1  0  0  0  0
 47 50  1  0  0  0  0
 48 47  2  0  0  0  0
 50 49  1  1  0  0  0
 51 50  1  0  0  0  0
 52 51  1  0  0  0  0
 52 53  1  0  0  0  0
 54 55  1  1  0  0  0
 54 53  1  0  0  0  0
 54 56  1  0  0  0  0
 57 56  1  0  0  0  0
 58 57  1  0  0  0  0
M  END
>  <MODEL>
1

>  <REMARK>
 VINA RESULT:      -4.9      0.000      0.000
  Name = 
  26 active torsions:
  status: ('A' for Active; 'I' for Inactive)
    1  A    between atoms: C_3  and  O_31
    2  A    between atoms: C_5  and  C_50
    3  A    between atoms: C_6  and  C_30
    4  A    between atoms: C_6  and  CA_38
    5  A    between atoms: N_8  and  C_37
    6  A    between atoms: C_9  and  C_48
    7  A    between atoms: C_10  and  C_41
    8  A    between atoms: C_10  and  C_48
    9  A    between atoms: C_11  and  C_27
   10  A    between atoms: O_12  and  C_18
   11  A    between atoms: O_12  and  C_41
   12  A    between atoms: O_13  and  C_14
   13  A    between atoms: O_13  and  N_49
   14  A    between atoms: C_16  and  N_17
   15  A    between atoms: C_18  and  C_30
   16  A    between atoms: C_27  and  S_46
   17  A    between atoms: C_33  and  C_42
   18  A    between atoms: C_35  and  C_39
   19  A    between atoms: C_35  and  C_44
   20  A    between atoms: C_39  and  C_55
   21  A    between atoms: C_42  and  N_54
   22  A    between atoms: S_46  and  O_53
   23  A    between atoms: N_47  and  O_53
   24  A    between atoms: C_50  and  C_55
   25  A    between atoms: C_55  and  C_57
   26  A    between atoms: C_56  and  C_57
                            x       y       z     vdW  Elec       q    Type
                         _______ _______ _______ _____ _____    ______ ____

>  <TORSDO>
F 26

$$$$
=
 OpenBabel11062417493D

 58 61  0  0  1  0  0  0  0  0999 V2000
  190.0220  177.5430  145.5890 C   0  0  0  0  0  3  0  0  0  0  0  0
  191.2460  177.7430  144.8840 N   0  0  0  0  0  0  0  0  0  0  0  0
  190.0770  177.1680  142.7010 C   0  0  2  0  0  3  0  0  0  0  0  0
  191.3140  177.5640  143.4700 C   0  0  0  0  0  0  0  0  0  0  0  0
  192.3860  177.8330  142.8650 O   0  0  0  0  0  0  0  0  0  0  0  0
  188.9680  177.0000  144.9870 C   0  0  0  0  0  2  0  0  0  0  0  0
  189.0130  176.4730  143.5750 C   0  0  1  0  0  3  0  0  0  0  0  0
  187.6390  176.6310  142.9150 C   0  0  0  0  0  2  0  0  0  0  0  0
  186.8330  177.8770  143.3330 C   0  0  1  0  0  3  0  0  0  0  0  0
  185.3280  179.3620  141.8760 C   0  0  0  0  0  1  0  0  0  0  0  0
  186.7430  179.0080  142.3010 C   0  0  2  0  0  3  0  0  0  0  0  0
  186.9450  178.5740  139.9380 O   0  0  0  0  0  1  0  0  0  0  0  0
  187.6730  178.8000  141.1100 C   0  0  0  0  0  2  0  0  0  0  0  0
  185.4800  177.5710  143.9650 C   0  0  0  0  0  2  0  0  0  0  0  0
  185.2650  178.4040  145.1920 C   0  0  0  0  0  0  0  0  0  0  0  0
  184.0820  178.8150  145.5310 N   0  0  0  0  0  0  0  0  0  0  0  0
  186.1180  179.8190  146.8790 O   0  0  0  0  0  1  0  0  0  0  0  0
  186.4360  178.7440  146.0470 C   0  0  0  0  0  2  0  0  0  0  0  0
  182.9660  178.4930  144.7910 O   0  0  0  0  0  0  0  0  0  0  0  0
  182.8010  179.0880  143.1670 S   0  0  0  0  0  0  0  0  0  0  0  0
  181.2200  179.8960  143.5590 C   0  0  0  0  0  2  0  0  0  0  0  0
  180.0610  179.1250  142.9370 C   0  0  2  0  0  0  0  0  0  0  0  0
  179.5570  179.6020  141.5810 C   0  0  2  0  0  3  0  0  0  0  0  0
  178.9620  178.6110  143.8560 C   0  0  0  0  0  1  0  0  0  0  0  0
  180.3970  178.3330  141.6790 C   0  0  2  0  0  3  0  0  0  0  0  0
  179.7080  176.2600  140.4380 C   0  0  0  0  0  0  0  0  0  0  0  0
  179.5390  177.1680  141.5240 N   0  0  0  0  0  2  0  0  0  0  0  0
  178.9320  175.2730  140.3310 O   0  0  0  0  0  0  0  0  0  0  0  0
  181.4120  175.3840  138.8910 C   0  0  0  0  0  1  0  0  0  0  0  0
  180.7280  176.4660  139.5050 O   0  0  0  0  0  0  0  0  0  0  0  0
  180.3530  180.6330  141.0660 O   0  0  0  0  0  0  0  0  0  0  0  0
  181.6000  181.6280  138.8010 O   0  0  0  0  0  0  0  0  0  0  0  0
  180.3430  181.6300  138.8530 C   0  0  0  0  0  0  0  0  0  0  0  0
  179.6660  181.1080  139.9970 N   0  0  0  0  0  2  0  0  0  0  0  0
  179.5570  182.1700  137.7130 C   0  0  0  0  0  1  0  0  0  0  0  0
  190.4040  176.3320  141.4560 C   0  0  0  0  0  2  0  0  0  0  0  0
  190.7120  175.8210  138.0940 C   0  0  2  0  0  3  0  0  0  0  0  0
  191.2470  177.8650  139.8150 C   0  0  0  0  0  2  0  0  0  0  0  0
  192.0980  175.7230  138.7130 C   0  0  0  0  0  2  0  0  0  0  0  0
  192.4720  177.0220  139.4220 C   0  0  0  0  0  2  0  0  0  0  0  0
  189.6770  176.0720  139.2030 C   0  0  0  0  0  2  0  0  0  0  0  0
  190.0900  177.0530  140.2230 N   0  0  0  0  0  0  0  0  0  0  0  0
  190.7000  174.6440  135.9360 C   0  0  1  0  0  3  0  0  0  0  0  0
  190.3970  174.5780  137.3900 N   0  0  2  0  0  0  0  0  0  0  0  0
  189.3370  174.8750  136.4100 C   0  0  2  0  0  3  0  0  0  0  0  0
  191.2720  175.8620  135.5500 O   0  0  0  0  0  1  0  0  0  0  0  0
  188.4780  173.6560  136.2120 C   0  0  0  0  0  0  0  0  0  0  0  0
  188.6140  172.9720  135.1370 N   0  0  0  0  0  2  0  0  0  0  0  0
  187.9330  171.7210  137.5160 O   0  0  0  0  0  1  0  0  0  0  0  0
  187.6550  173.0770  137.3320 C   0  0  2  0  0  3  0  0  0  0  0  0
  186.1570  173.2990  137.1360 C   0  0  0  0  0  2  0  0  0  0  0  0
  185.9180  174.3920  136.3000 O   0  0  0  0  0  0  0  0  0  0  0  0
  185.3740  175.3710  137.1360 C   0  0  0  0  0  2  0  0  0  0  0  0
  184.8240  176.5150  136.2990 C   0  0  1  0  0  3  0  0  0  0  0  0
  184.1280  177.4980  137.2180 C   0  0  0  0  0  1  0  0  0  0  0  0
  185.9510  177.2340  135.5660 C   0  0  0  0  0  2  0  0  0  0  0  0
  187.0760  177.6300  136.5140 C   0  0  0  0  0  2  0  0  0  0  0  0
  187.3070  179.1280  136.4680 C   0  0  0  0  0  1  0  0  0  0  0  0
  2  1  2  0  0  0  0
  3 36  1  6  0  0  0
  3  4  1  0  0  0  0
  3  7  1  0  0  0  0
  4  2  1  0  0  0  0
  5  4  2  0  0  0  0
  6  1  1  0  0  0  0
  7  8  1  6  0  0  0
  7  6  1  0  0  0  0
  9  8  1  6  0  0  0
  9 14  1  0  0  0  0
 11 10  1  6  0  0  0
 11  9  1  0  0  0  0
 12 13  1  0  0  0  0
 13 11  1  0  0  0  0
 14 15  1  0  0  0  0
 15 16  2  0  0  0  0
 15 18  1  0  0  0  0
 18 17  1  0  0  0  0
 19 16  1  0  0  0  0
 20 21  1  0  0  0  0
 20 19  1  0  0  0  0
 22 21  1  0  0  0  0
 22 24  1  1  0  0  0
 23 31  1  6  0  0  0
 23 25  1  0  0  0  0
 23 22  1  0  0  0  0
 25 27  1  1  0  0  0
 25 22  1  0  0  0  0
 26 27  1  0  0  0  0
 28 26  2  0  0  0  0
 29 30  1  0  0  0  0
 30 26  1  0  0  0  0
 32 33  2  0  0  0  0
 33 34  1  0  0  0  0
 34 31  1  0  0  0  0
 35 33  1  0  0  0  0
 37 39  1  1  0  0  0
 37 41  1  0  0  0  0
 38 42  1  0  0  0  0
 39 40  1  0  0  0  0
 40 38  1  0  0  0  0
 41 42  1  0  0  0  0
 42 36  1  0  0  0  0
 43 46  1  1  0  0  0
 43 45  1  0  0  0  0
 43 44  1  0  0  0  0
 44 37  1  1  0  0  0
 45 47  1  6  0  0  0
 45 44  1  0  0  0  0
 47 50  1  0  0  0  0
 48 47  2  0  0  0  0
 50 49  1  6  0  0  0
 51 50  1  0  0  0  0
 52 51  1  0  0  0  0
 52 53  1  0  0  0  0
 54 53  1  0  0  0  0
 54 55  1  1  0  0  0
 56 54  1  0  0  0  0
 56 57  1  0  0  0  0
 58 57  1  0  0  0  0
M  END
>  <MODEL>
2

>  <REMARK>
 VINA RESULT:      -4.9      1.715      2.809
  Name = 
  26 active torsions:
  status: ('A' for Active; 'I' for Inactive)
    1  A    between atoms: C_3  and  O_31
    2  A    between atoms: C_5  and  C_50
    3  A    between atoms: C_6  and  C_30
    4  A    between atoms: C_6  and  CA_38
    5  A    between atoms: N_8  and  C_37
    6  A    between atoms: C_9  and  C_48
    7  A    between atoms: C_10  and  C_41
    8  A    between atoms: C_10  and  C_48
    9  A    between atoms: C_11  and  C_27
   10  A    between atoms: O_12  and  C_18
   11  A    between atoms: O_12  and  C_41
   12  A    between atoms: O_13  and  C_14
   13  A    between atoms: O_13  and  N_49
   14  A    between atoms: C_16  and  N_17
   15  A    between atoms: C_18  and  C_30
   16  A    between atoms: C_27  and  S_46
   17  A    between atoms: C_33  and  C_42
   18  A    between atoms: C_35  and  C_39
   19  A    between atoms: C_35  and  C_44
   20  A    between atoms: C_39  and  C_55
   21  A    between atoms: C_42  and  N_54
   22  A    between atoms: S_46  and  O_53
   23  A    between atoms: N_47  and  O_53
   24  A    between atoms: C_50  and  C_55
   25  A    between atoms: C_55  and  C_57
   26  A    between atoms: C_56  and  C_57
                            x       y       z     vdW  Elec       q    Type
                         _______ _______ _______ _____ _____    ______ ____

>  <TORSDO>
F 26

$$$$
=
 OpenBabel11062417493D

 58 61  0  0  1  0  0  0  0  0999 V2000
  185.0040  178.3320  146.5720 C   0  0  0  0  0  3  0  0  0  0  0  0
  186.2120  178.6230  147.2730 N   0  0  0  0  0  2  0  0  0  0  0  0
  187.5590  177.9380  145.2290 C   0  0  2  0  0  3  0  0  0  0  0  0
  187.4830  178.4380  146.6510 C   0  0  0  0  0  0  0  0  0  0  0  0
  188.5260  178.7870  147.2650 O   0  0  0  0  0  0  0  0  0  0  0  0
  185.0300  177.7010  145.4010 C   0  0  0  0  0  3  0  0  0  0  0  0
  186.2990  177.1670  144.7860 C   0  0  1  0  0  3  0  0  0  0  0  0
  186.1950  177.2090  143.2580 C   0  0  0  0  0  2  0  0  0  0  0  0
  185.2320  178.2640  142.6780 C   0  0  1  0  0  3  0  0  0  0  0  0
  185.4600  179.1100  140.2650 C   0  0  0  0  0  1  0  0  0  0  0  0
  185.8450  179.2960  141.7240 C   0  0  2  0  0  3  0  0  0  0  0  0
  187.9810  179.7410  140.6970 O   0  0  0  0  0  1  0  0  0  0  0  0
  187.3510  179.4570  141.9110 C   0  0  0  0  0  2  0  0  0  0  0  0
  183.9220  177.6970  142.1430 C   0  0  0  0  0  2  0  0  0  0  0  0
  182.7980  178.6660  142.3500 C   0  0  0  0  0  0  0  0  0  0  0  0
  181.9500  178.9280  141.4040 N   0  0  0  0  0  0  0  0  0  0  0  0
  181.6340  178.6930  144.4040 O   0  0  0  0  0  1  0  0  0  0  0  0
  182.6470  179.3230  143.6770 C   0  0  0  0  0  2  0  0  0  0  0  0
  182.0280  178.3170  140.1720 O   0  0  0  0  0  0  0  0  0  0  0  0
  182.0120  179.2770  138.7250 S   0  0  0  0  0  0  0  0  0  0  0  0
  181.1590  177.9690  137.7940 C   0  0  0  0  0  2  0  0  0  0  0  0
  182.0390  176.7280  137.6960 C   0  0  2  0  0  0  0  0  0  0  0  0
  181.5350  175.4630  138.3800 C   0  0  2  0  0  3  0  0  0  0  0  0
  183.5490  176.9070  137.7700 C   0  0  0  0  0  1  0  0  0  0  0  0
  181.4750  175.5850  136.8610 C   0  0  2  0  0  3  0  0  0  0  0  0
  182.3200  173.3990  135.9550 C   0  0  0  0  0  0  0  0  0  0  0  0
  182.5270  174.7750  136.2650 N   0  0  0  0  0  2  0  0  0  0  0  0
  183.2640  172.7290  135.4570 O   0  0  0  0  0  0  0  0  0  0  0  0
  180.8880  171.4010  136.1000 C   0  0  0  0  0  1  0  0  0  0  0  0
  181.0790  172.8050  136.2010 O   0  0  0  0  0  0  0  0  0  0  0  0
  180.2450  175.6340  138.8990 O   0  0  0  0  0  0  0  0  0  0  0  0
  178.9490  175.8340  141.3390 O   0  0  0  0  0  0  0  0  0  0  0  0
  179.3950  174.7140  140.9780 C   0  0  0  0  0  0  0  0  0  0  0  0
  180.0520  174.5700  139.7180 N   0  0  0  0  0  2  0  0  0  0  0  0
  179.2290  173.5320  141.8630 C   0  0  0  0  0  1  0  0  0  0  0  0
  188.8300  177.1200  144.9640 C   0  0  0  0  0  2  0  0  0  0  0  0
  191.0370  176.8580  142.3720 C   0  0  2  0  0  3  0  0  0  0  0  0
  191.1750  177.6250  144.9830 C   0  0  0  0  0  2  0  0  0  0  0  0
  191.2820  175.6910  143.3170 C   0  0  0  0  0  2  0  0  0  0  0  0
  191.6520  176.1880  144.7130 C   0  0  0  0  0  2  0  0  0  0  0  0
  189.8670  177.7020  142.9000 C   0  0  0  0  0  2  0  0  0  0  0  0
  189.8810  177.9360  144.3560 N   0  0  0  0  0  0  0  0  0  0  0  0
  191.7370  176.7400  140.0180 C   0  0  1  0  0  3  0  0  0  0  0  0
  190.7240  176.3520  141.0350 N   0  0  2  0  0  0  0  0  0  0  0  0
  190.5060  177.5150  140.1570 C   0  0  2  0  0  3  0  0  0  0  0  0
  192.8070  177.4630  140.5580 O   0  0  0  0  0  1  0  0  0  0  0  0
  189.5130  177.1580  139.0840 C   0  0  0  0  0  0  0  0  0  0  0  0
  188.2900  176.9680  139.4140 N   0  0  0  0  0  2  0  0  0  0  0  0
  188.7050  177.4120  136.8430 O   0  0  0  0  0  1  0  0  0  0  0  0
  189.8550  177.2650  137.6220 C   0  0  2  0  0  3  0  0  0  0  0  0
  190.6960  176.0900  137.1280 C   0  0  0  0  0  2  0  0  0  0  0  0
  189.9180  174.9380  136.9950 O   0  0  0  0  0  0  0  0  0  0  0  0
  190.3280  174.3650  135.7880 C   0  0  0  0  0  2  0  0  0  0  0  0
  191.8270  174.1130  135.8200 C   0  0  1  0  0  3  0  0  0  0  0  0
  192.0700  172.6210  135.7440 C   0  0  0  0  0  1  0  0  0  0  0  0
  192.5100  174.7880  134.6360 C   0  0  0  0  0  2  0  0  0  0  0  0
  193.2920  176.0230  135.0670 C   0  0  0  0  0  2  0  0  0  0  0  0
  194.7300  175.9330  134.5940 C   0  0  0  0  0  1  0  0  0  0  0  0
  1  2  1  0  0  0  0
  3 36  1  1  0  0  0
  3  4  1  0  0  0  0
  4  5  2  0  0  0  0
  4  2  1  0  0  0  0
  6  1  2  0  0  0  0
  7  8  1  6  0  0  0
  7  3  1  0  0  0  0
  7  6  1  0  0  0  0
  9 14  1  6  0  0  0
  9  8  1  0  0  0  0
 11 10  1  6  0  0  0
 11 13  1  0  0  0  0
 11  9  1  0  0  0  0
 12 13  1  0  0  0  0
 14 15  1  0  0  0  0
 15 18  1  0  0  0  0
 16 15  2  0  0  0  0
 18 17  1  0  0  0  0
 19 16  1  0  0  0  0
 20 19  1  0  0  0  0
 21 20  1  0  0  0  0
 22 24  1  6  0  0  0
 22 21  1  0  0  0  0
 22 23  1  0  0  0  0
 23 31  1  1  0  0  0
 25 27  1  6  0  0  0
 25 22  1  0  0  0  0
 25 23  1  0  0  0  0
 26 30  1  0  0  0  0
 26 27  1  0  0  0  0
 28 26  2  0  0  0  0
 29 30  1  0  0  0  0
 31 34  1  0  0  0  0
 33 32  2  0  0  0  0
 33 35  1  0  0  0  0
 34 33  1  0  0  0  0
 37 41  1  1  0  0  0
 37 39  1  0  0  0  0
 39 40  1  0  0  0  0
 40 38  1  0  0  0  0
 41 42  1  0  0  0  0
 42 36  1  0  0  0  0
 42 38  1  0  0  0  0
 43 45  1  0  0  0  0
 43 46  1  1  0  0  0
 43 44  1  0  0  0  0
 44 37  1  1  0  0  0
 45 47  1  6  0  0  0
 45 44  1  0  0  0  0
 47 48  2  0  0  0  0
 50 49  1  6  0  0  0
 50 47  1  0  0  0  0
 51 50  1  0  0  0  0
 52 51  1  0  0  0  0
 53 54  1  0  0  0  0
 53 52  1  0  0  0  0
 54 55  1  6  0  0  0
 56 57  1  0  0  0  0
 56 54  1  0  0  0  0
 58 57  1  0  0  0  0
M  END
>  <MODEL>
3

>  <REMARK>
 VINA RESULT:      -4.8      2.355      6.052
  Name = 
  26 active torsions:
  status: ('A' for Active; 'I' for Inactive)
    1  A    between atoms: C_3  and  O_31
    2  A    between atoms: C_5  and  C_50
    3  A    between atoms: C_6  and  C_30
    4  A    between atoms: C_6  and  CA_38
    5  A    between atoms: N_8  and  C_37
    6  A    between atoms: C_9  and  C_48
    7  A    between atoms: C_10  and  C_41
    8  A    between atoms: C_10  and  C_48
    9  A    between atoms: C_11  and  C_27
   10  A    between atoms: O_12  and  C_18
   11  A    between atoms: O_12  and  C_41
   12  A    between atoms: O_13  and  C_14
   13  A    between atoms: O_13  and  N_49
   14  A    between atoms: C_16  and  N_17
   15  A    between atoms: C_18  and  C_30
   16  A    between atoms: C_27  and  S_46
   17  A    between atoms: C_33  and  C_42
   18  A    between atoms: C_35  and  C_39
   19  A    between atoms: C_35  and  C_44
   20  A    between atoms: C_39  and  C_55
   21  A    between atoms: C_42  and  N_54
   22  A    between atoms: S_46  and  O_53
   23  A    between atoms: N_47  and  O_53
   24  A    between atoms: C_50  and  C_55
   25  A    between atoms: C_55  and  C_57
   26  A    between atoms: C_56  and  C_57
                            x       y       z     vdW  Elec       q    Type
                         _______ _______ _______ _____ _____    ______ ____

>  <TORSDO>
F 26

$$$$
=
 OpenBabel11062417493D

 58 61  0  0  1  0  0  0  0  0999 V2000
  179.5730  173.9150  139.8420 C   0  0  0  0  0  3  0  0  0  0  0  0
  179.2800  173.4240  138.5350 N   0  0  0  0  0  0  0  0  0  0  0  0
  179.9680  175.6630  137.5450 C   0  0  2  0  0  3  0  0  0  0  0  0
  179.4560  174.2510  137.3860 C   0  0  0  0  0  0  0  0  0  0  0  0
  179.2720  173.7610  136.2400 O   0  0  0  0  0  0  0  0  0  0  0  0
  179.8290  175.2050  140.0460 C   0  0  0  0  0  2  0  0  0  0  0  0
  179.7320  176.2410  138.9550 C   0  0  1  0  0  3  0  0  0  0  0  0
  180.7400  177.3660  139.2130 C   0  0  0  0  0  2  0  0  0  0  0  0
  180.3840  178.3380  140.3540 C   0  0  1  0  0  3  0  0  0  0  0  0
  179.1530  179.8040  138.6440 C   0  0  0  0  0  1  0  0  0  0  0  0
  179.2380  179.3200  140.0820 C   0  0  2  0  0  3  0  0  0  0  0  0
  179.2920  181.7040  140.4410 O   0  0  0  0  0  1  0  0  0  0  0  0
  179.1900  180.4680  141.0860 C   0  0  0  0  0  2  0  0  0  0  0  0
  180.2630  177.6840  141.7260 C   0  0  0  0  0  2  0  0  0  0  0  0
  180.9650  178.5010  142.7690 C   0  0  0  0  0  0  0  0  0  0  0  0
  182.1120  179.0570  142.5310 N   0  0  0  0  0  0  0  0  0  0  0  0
  178.9480  178.4270  143.9940 O   0  0  0  0  0  1  0  0  0  0  0  0
  180.3150  178.6910  144.0950 C   0  0  0  0  0  2  0  0  0  0  0  0
  182.7330  178.9400  141.3070 O   0  0  0  0  0  0  0  0  0  0  0  0
  183.9090  177.6880  141.0480 S   0  0  0  0  0  0  0  0  0  0  0  0
  184.6670  177.9790  142.6750 C   0  0  0  0  0  2  0  0  0  0  0  0
  186.1740  178.1580  142.5340 C   0  0  2  0  0  0  0  0  0  0  0  0
  186.9610  178.4490  143.8060 C   0  0  2  0  0  3  0  0  0  0  0  0
  186.7020  178.8830  141.3040 C   0  0  0  0  0  1  0  0  0  0  0  0
  187.0290  177.0660  143.1660 C   0  0  2  0  0  3  0  0  0  0  0  0
  189.5150  176.7050  143.2060 C   0  0  0  0  0  0  0  0  0  0  0  0
  188.3030  176.9070  142.4820 N   0  0  0  0  0  2  0  0  0  0  0  0
  190.5990  176.5910  142.5740 O   0  0  0  0  0  0  0  0  0  0  0  0
  190.5780  177.0990  145.3910 C   0  0  0  0  0  1  0  0  0  0  0  0
  189.4940  176.6340  144.6010 O   0  0  0  0  0  0  0  0  0  0  0  0
  186.1480  178.3820  144.9450 O   0  0  0  0  0  0  0  0  0  0  0  0
  185.5960  179.1840  147.5380 O   0  0  0  0  0  0  0  0  0  0  0  0
  186.6950  178.6180  147.2980 C   0  0  0  0  0  0  0  0  0  0  0  0
  187.0050  178.1750  145.9770 N   0  0  0  0  0  2  0  0  0  0  0  0
  187.6710  178.4020  148.3970 C   0  0  0  0  0  1  0  0  0  0  0  0
  179.4300  176.6060  136.4610 C   0  0  0  0  0  2  0  0  0  0  0  0
  182.7620  177.0030  135.8330 C   0  0  2  0  0  3  0  0  0  0  0  0
  180.4490  178.0330  134.8250 C   0  0  0  0  0  2  0  0  0  0  0  0
  182.2790  178.2270  136.5960 C   0  0  0  0  0  2  0  0  0  0  0  0
  181.1690  178.9450  135.8320 C   0  0  0  0  0  2  0  0  0  0  0  0
  181.5940  176.0200  135.6580 C   0  0  0  0  0  2  0  0  0  0  0  0
  180.3090  176.6450  135.2930 N   0  0  0  0  0  0  0  0  0  0  0  0
  185.1830  176.5910  135.9530 C   0  0  1  0  0  3  0  0  0  0  0  0
  183.8500  176.3600  136.5700 N   0  0  2  0  0  0  0  0  0  0  0  0
  184.4570  175.3520  135.6820 C   0  0  2  0  0  3  0  0  0  0  0  0
  185.1280  177.4200  134.8250 O   0  0  0  0  0  1  0  0  0  0  0  0
  184.9960  174.2150  136.5050 C   0  0  0  0  0  0  0  0  0  0  0  0
  184.5690  174.0640  137.7050 N   0  0  0  0  0  2  0  0  0  0  0  0
  186.5700  172.4430  136.8570 O   0  0  0  0  0  1  0  0  0  0  0  0
  185.8170  173.1120  135.8910 C   0  0  2  0  0  3  0  0  0  0  0  0
  186.7110  173.6090  134.7570 C   0  0  0  0  0  2  0  0  0  0  0  0
  188.0370  173.7250  135.1780 O   0  0  0  0  0  0  0  0  0  0  0  0
  188.3330  175.0860  135.0640 C   0  0  0  0  0  2  0  0  0  0  0  0
  189.7350  175.3540  135.5850 C   0  0  1  0  0  3  0  0  0  0  0  0
  189.8360  176.8130  135.9790 C   0  0  0  0  0  1  0  0  0  0  0  0
  190.0270  174.4890  136.8070 C   0  0  0  0  0  2  0  0  0  0  0  0
  191.3770  173.7920  136.6930 C   0  0  0  0  0  2  0  0  0  0  0  0
  191.7390  173.5720  135.2370 C   0  0  0  0  0  1  0  0  0  0  0  0
  1  6  1  0  0  0  0
  2  1  2  0  0  0  0
  3 36  1  6  0  0  0
  3  7  1  0  0  0  0
  4  3  1  0  0  0  0
  4  2  1  0  0  0  0
  5  4  2  0  0  0  0
  7  8  1  1  0  0  0
  7  6  1  0  0  0  0
  9  8  1  6  0  0  0
  9 14  1  0  0  0  0
 11 10  1  6  0  0  0
 11  9  1  0  0  0  0
 11 13  1  0  0  0  0
 12 13  1  0  0  0  0
 14 15  1  0  0  0  0
 15 18  1  0  0  0  0
 16 15  2  0  0  0  0
 17 18  1  0  0  0  0
 19 16  1  0  0  0  0
 20 19  1  0  0  0  0
 20 21  1  0  0  0  0
 22 24  1  6  0  0  0
 22 21  1  0  0  0  0
 22 25  1  0  0  0  0
 22 23  1  0  0  0  0
 23 31  1  1  0  0  0
 25 27  1  6  0  0  0
 25 23  1  0  0  0  0
 26 30  1  0  0  0  0
 27 26  1  0  0  0  0
 28 26  2  0  0  0  0
 30 29  1  0  0  0  0
 31 34  1  0  0  0  0
 33 32  2  0  0  0  0
 33 35  1  0  0  0  0
 34 33  1  0  0  0  0
 37 41  1  1  0  0  0
 37 39  1  0  0  0  0
 38 42  1  0  0  0  0
 38 40  1  0  0  0  0
 40 39  1  0  0  0  0
 42 41  1  0  0  0  0
 42 36  1  0  0  0  0
 43 46  1  6  0  0  0
 43 44  1  0  0  0  0
 44 37  1  6  0  0  0
 45 43  1  0  0  0  0
 45 47  1  1  0  0  0
 45 44  1  0  0  0  0
 47 48  2  0  0  0  0
 50 47  1  0  0  0  0
 50 49  1  1  0  0  0
 51 52  1  0  0  0  0
 51 50  1  0  0  0  0
 53 52  1  0  0  0  0
 53 54  1  0  0  0  0
 54 55  1  1  0  0  0
 54 56  1  0  0  0  0
 57 56  1  0  0  0  0
 58 57  1  0  0  0  0
M  END
>  <MODEL>
4

>  <REMARK>
 VINA RESULT:      -4.4      2.579      8.554
  Name = 
  26 active torsions:
  status: ('A' for Active; 'I' for Inactive)
    1  A    between atoms: C_3  and  O_31
    2  A    between atoms: C_5  and  C_50
    3  A    between atoms: C_6  and  C_30
    4  A    between atoms: C_6  and  CA_38
    5  A    between atoms: N_8  and  C_37
    6  A    between atoms: C_9  and  C_48
    7  A    between atoms: C_10  and  C_41
    8  A    between atoms: C_10  and  C_48
    9  A    between atoms: C_11  and  C_27
   10  A    between atoms: O_12  and  C_18
   11  A    between atoms: O_12  and  C_41
   12  A    between atoms: O_13  and  C_14
   13  A    between atoms: O_13  and  N_49
   14  A    between atoms: C_16  and  N_17
   15  A    between atoms: C_18  and  C_30
   16  A    between atoms: C_27  and  S_46
   17  A    between atoms: C_33  and  C_42
   18  A    between atoms: C_35  and  C_39
   19  A    between atoms: C_35  and  C_44
   20  A    between atoms: C_39  and  C_55
   21  A    between atoms: C_42  and  N_54
   22  A    between atoms: S_46  and  O_53
   23  A    between atoms: N_47  and  O_53
   24  A    between atoms: C_50  and  C_55
   25  A    between atoms: C_55  and  C_57
   26  A    between atoms: C_56  and  C_57
                            x       y       z     vdW  Elec       q    Type
                         _______ _______ _______ _____ _____    ______ ____

>  <TORSDO>
F 26

$$$$
=
 OpenBabel11062417493D

 58 61  0  0  1  0  0  0  0  0999 V2000
  192.8810  176.8870  141.8930 C   0  0  0  0  0  3  0  0  0  0  0  0
  193.0500  177.1280  140.4980 N   0  0  0  0  0  0  0  0  0  0  0  0
  190.5360  176.9460  140.1660 C   0  0  2  0  0  3  0  0  0  0  0  0
  191.9260  177.1600  139.6190 C   0  0  0  0  0  0  0  0  0  0  0  0
  192.0990  177.4610  138.4080 O   0  0  0  0  0  0  0  0  0  0  0  0
  191.7080  176.4930  142.3810 C   0  0  0  0  0  2  0  0  0  0  0  0
  190.5210  176.1820  141.5060 C   0  0  1  0  0  3  0  0  0  0  0  0
  189.2220  176.5060  142.2540 C   0  0  0  0  0  2  0  0  0  0  0  0
  189.3880  177.2410  143.5990 C   0  0  1  0  0  3  0  0  0  0  0  0
  188.7800  179.4070  142.3620 C   0  0  0  0  0  1  0  0  0  0  0  0
  189.5120  178.7680  143.5310 C   0  0  2  0  0  3  0  0  0  0  0  0
  191.0510  180.3310  144.5300 O   0  0  0  0  0  1  0  0  0  0  0  0
  190.9540  179.2520  143.6480 C   0  0  0  0  0  2  0  0  0  0  0  0
  188.4170  176.7940  144.6870 C   0  0  0  0  0  2  0  0  0  0  0  0
  188.9170  177.1920  146.0420 C   0  0  0  0  0  0  0  0  0  0  0  0
  188.1110  177.6430  146.9530 N   0  0  0  0  0  0  0  0  0  0  0  0
  190.5400  176.8300  147.7190 O   0  0  0  0  0  1  0  0  0  0  0  0
  190.3660  177.0430  146.3490 C   0  0  0  0  0  2  0  0  0  0  0  0
  186.7580  177.7620  146.7260 O   0  0  0  0  0  0  0  0  0  0  0  0
  186.0920  179.2900  146.2360 S   0  0  0  0  0  0  0  0  0  0  0  0
  184.6090  178.4920  145.5500 C   0  0  0  0  0  2  0  0  0  0  0  0
  184.7290  178.3610  144.0360 C   0  0  2  0  0  0  0  0  0  0  0  0
  183.4650  178.5880  143.2170 C   0  0  2  0  0  3  0  0  0  0  0  0
  185.6380  177.2760  143.4770 C   0  0  0  0  0  1  0  0  0  0  0  0
  184.5550  179.6530  143.2470 C   0  0  2  0  0  3  0  0  0  0  0  0
  184.6640  179.2730  140.7660 C   0  0  0  0  0  0  0  0  0  0  0  0
  185.2950  179.6290  141.9940 N   0  0  0  0  0  2  0  0  0  0  0  0
  185.3470  179.2470  139.7060 O   0  0  0  0  0  0  0  0  0  0  0  0
  182.7120  178.2670  139.6520 C   0  0  0  0  0  1  0  0  0  0  0  0
  183.3030  178.9580  140.7430 O   0  0  0  0  0  0  0  0  0  0  0  0
  182.3960  179.0100  144.0190 O   0  0  0  0  0  0  0  0  0  0  0  0
  179.9960  177.6400  143.8380 O   0  0  0  0  0  0  0  0  0  0  0  0
  180.1990  178.6140  143.0670 C   0  0  0  0  0  0  0  0  0  0  0  0
  181.4170  179.3560  143.1460 N   0  0  0  0  0  2  0  0  0  0  0  0
  179.1610  179.0020  142.0770 C   0  0  0  0  0  1  0  0  0  0  0  0
  189.5990  176.2890  139.1430 C   0  0  0  0  0  2  0  0  0  0  0  0
  187.3820  176.8430  136.6060 C   0  0  2  0  0  3  0  0  0  0  0  0
  188.7740  178.3990  138.3570 C   0  0  0  0  0  2  0  0  0  0  0  0
  188.7720  177.1990  136.1010 C   0  0  0  0  0  2  0  0  0  0  0  0
  189.3960  178.3030  136.9540 C   0  0  0  0  0  2  0  0  0  0  0  0
  187.4830  176.3270  138.0500 C   0  0  0  0  0  2  0  0  0  0  0  0
  188.3980  177.0930  138.9170 N   0  0  0  0  0  0  0  0  0  0  0  0
  185.5280  176.2480  135.1060 C   0  0  1  0  0  3  0  0  0  0  0  0
  186.7960  175.8130  135.7480 N   0  0  2  0  0  0  0  0  0  0  0  0
  185.4910  175.4410  136.3240 C   0  0  2  0  0  3  0  0  0  0  0  0
  185.1840  177.5710  135.4120 O   0  0  0  0  0  1  0  0  0  0  0  0
  185.1950  174.0000  136.0130 C   0  0  0  0  0  0  0  0  0  0  0  0
  185.6720  173.4890  134.9390 N   0  0  0  0  0  2  0  0  0  0  0  0
  185.4890  172.7680  138.0470 O   0  0  0  0  0  1  0  0  0  0  0  0
  184.5800  173.0800  137.0340 C   0  0  2  0  0  3  0  0  0  0  0  0
  184.0090  171.8080  136.4100 C   0  0  0  0  0  2  0  0  0  0  0  0
  182.6660  171.9770  136.0700 O   0  0  0  0  0  0  0  0  0  0  0  0
  182.1030  172.6570  137.1530 C   0  0  0  0  0  2  0  0  0  0  0  0
  180.7530  173.2320  136.7550 C   0  0  1  0  0  3  0  0  0  0  0  0
  180.1200  173.8720  137.9730 C   0  0  0  0  0  1  0  0  0  0  0  0
  180.9200  174.2900  135.6690 C   0  0  0  0  0  2  0  0  0  0  0  0
  181.7520  175.4690  136.1570 C   0  0  0  0  0  2  0  0  0  0  0  0
  181.7970  176.5590  135.1030 C   0  0  0  0  0  1  0  0  0  0  0  0
  1  6  1  0  0  0  0
  2  1  2  0  0  0  0
  3 36  1  6  0  0  0
  3  7  1  0  0  0  0
  4  3  1  0  0  0  0
  4  2  1  0  0  0  0
  5  4  2  0  0  0  0
  7  8  1  1  0  0  0
  7  6  1  0  0  0  0
  9  8  1  6  0  0  0
  9 14  1  0  0  0  0
 11 10  1  6  0  0  0
 11  9  1  0  0  0  0
 11 13  1  0  0  0  0
 13 12  1  0  0  0  0
 14 15  1  0  0  0  0
 15 18  1  0  0  0  0
 15 16  2  0  0  0  0
 18 17  1  0  0  0  0
 19 16  1  0  0  0  0
 20 19  1  0  0  0  0
 21 20  1  0  0  0  0
 22 24  1  6  0  0  0
 22 21  1  0  0  0  0
 23 25  1  0  0  0  0
 23 31  1  1  0  0  0
 23 22  1  0  0  0  0
 25 27  1  6  0  0  0
 25 22  1  0  0  0  0
 26 27  1  0  0  0  0
 28 26  2  0  0  0  0
 29 30  1  0  0  0  0
 30 26  1  0  0  0  0
 33 34  1  0  0  0  0
 33 32  2  0  0  0  0
 34 31  1  0  0  0  0
 35 33  1  0  0  0  0
 37 39  1  6  0  0  0
 37 41  1  0  0  0  0
 38 42  1  0  0  0  0
 39 40  1  0  0  0  0
 40 38  1  0  0  0  0
 41 42  1  0  0  0  0
 42 36  1  0  0  0  0
 43 46  1  1  0  0  0
 43 44  1  0  0  0  0
 43 45  1  0  0  0  0
 44 45  1  0  0  0  0
 44 37  1  1  0  0  0
 45 47  1  6  0  0  0
 47 50  1  0  0  0  0
 48 47  2  0  0  0  0
 50 49  1  1  0  0  0
 51 50  1  0  0  0  0
 52 51  1  0  0  0  0
 52 53  1  0  0  0  0
 54 53  1  0  0  0  0
 54 55  1  1  0  0  0
 56 57  1  0  0  0  0
 56 54  1  0  0  0  0
 58 57  1  0  0  0  0
M  END
>  <MODEL>
5

>  <REMARK>
 VINA RESULT:      -3.8      2.362      4.101
  Name = 
  26 active torsions:
  status: ('A' for Active; 'I' for Inactive)
    1  A    between atoms: C_3  and  O_31
    2  A    between atoms: C_5  and  C_50
    3  A    between atoms: C_6  and  C_30
    4  A    between atoms: C_6  and  CA_38
    5  A    between atoms: N_8  and  C_37
    6  A    between atoms: C_9  and  C_48
    7  A    between atoms: C_10  and  C_41
    8  A    between atoms: C_10  and  C_48
    9  A    between atoms: C_11  and  C_27
   10  A    between atoms: O_12  and  C_18
   11  A    between atoms: O_12  and  C_41
   12  A    between atoms: O_13  and  C_14
   13  A    between atoms: O_13  and  N_49
   14  A    between atoms: C_16  and  N_17
   15  A    between atoms: C_18  and  C_30
   16  A    between atoms: C_27  and  S_46
   17  A    between atoms: C_33  and  C_42
   18  A    between atoms: C_35  and  C_39
   19  A    between atoms: C_35  and  C_44
   20  A    between atoms: C_39  and  C_55
   21  A    between atoms: C_42  and  N_54
   22  A    between atoms: S_46  and  O_53
   23  A    between atoms: N_47  and  O_53
   24  A    between atoms: C_50  and  C_55
   25  A    between atoms: C_55  and  C_57
   26  A    between atoms: C_56  and  C_57
                            x       y       z     vdW  Elec       q    Type
                         _______ _______ _______ _____ _____    ______ ____

>  <TORSDO>
F 26

$$$$
=
 OpenBabel11062417493D

 58 61  0  0  1  0  0  0  0  0999 V2000
  188.7760  179.7510  137.1460 C   0  0  0  0  0  3  0  0  0  0  0  0
  187.6110  179.2360  136.5030 N   0  0  0  0  0  0  0  0  0  0  0  0
  187.5790  177.2850  138.1330 C   0  0  2  0  0  3  0  0  0  0  0  0
  186.9990  178.0290  136.9550 C   0  0  0  0  0  0  0  0  0  0  0  0
  185.9220  177.6480  136.4230 O   0  0  0  0  0  0  0  0  0  0  0  0
  189.4340  179.0280  138.0480 C   0  0  0  0  0  2  0  0  0  0  0  0
  189.0680  177.6040  138.3810 C   0  0  1  0  0  3  0  0  0  0  0  0
  189.4090  177.3060  139.8450 C   0  0  0  0  0  2  0  0  0  0  0  0
  190.8470  176.8210  140.1140 C   0  0  1  0  0  3  0  0  0  0  0  0
  191.5690  175.3350  138.1500 C   0  0  0  0  0  1  0  0  0  0  0  0
  191.7510  176.6510  138.8870 C   0  0  2  0  0  3  0  0  0  0  0  0
  194.0610  176.1740  138.3880 O   0  0  0  0  0  1  0  0  0  0  0  0
  193.2170  176.9530  139.1840 C   0  0  0  0  0  2  0  0  0  0  0  0
  191.5570  177.5480  141.2510 C   0  0  0  0  0  2  0  0  0  0  0  0
  191.5100  176.7400  142.5120 C   0  0  0  0  0  0  0  0  0  0  0  0
  191.7050  177.2870  143.6720 N   0  0  0  0  0  0  0  0  0  0  0  0
  190.0300  175.0010  143.1150 O   0  0  0  0  0  1  0  0  0  0  0  0
  191.2100  175.2840  142.4250 C   0  0  0  0  0  2  0  0  0  0  0  0
  191.9480  178.6360  143.8030 O   0  0  0  0  0  0  0  0  0  0  0  0
  190.6280  179.7640  143.7450 S   0  0  0  0  0  0  0  0  0  0  0  0
  189.8730  179.0500  145.2380 C   0  0  0  0  0  2  0  0  0  0  0  0
  188.7270  178.1200  144.8600 C   0  0  2  0  0  0  0  0  0  0  0  0
  188.4730  176.9250  145.7700 C   0  0  2  0  0  3  0  0  0  0  0  0
  188.4890  177.8310  143.3850 C   0  0  0  0  0  1  0  0  0  0  0  0
  187.5340  178.1260  145.8090 C   0  0  2  0  0  3  0  0  0  0  0  0
  185.0850  178.5060  145.3950 C   0  0  0  0  0  0  0  0  0  0  0  0
  186.2920  177.7960  145.1250 N   0  0  0  0  0  2  0  0  0  0  0  0
  184.0280  178.1760  144.7940 O   0  0  0  0  0  0  0  0  0  0  0  0
  186.0010  179.6100  147.3960 C   0  0  0  0  0  1  0  0  0  0  0  0
  185.0810  179.5570  146.3150 O   0  0  0  0  0  0  0  0  0  0  0  0
  189.2940  176.9550  146.9060 O   0  0  0  0  0  0  0  0  0  0  0  0
  191.7320  177.0440  148.2180 O   0  0  0  0  0  0  0  0  0  0  0  0
  191.5600  176.1870  147.3110 C   0  0  0  0  0  0  0  0  0  0  0  0
  190.3100  176.1000  146.6270 N   0  0  0  0  0  2  0  0  0  0  0  0
  192.6610  175.2540  146.9580 C   0  0  0  0  0  1  0  0  0  0  0  0
  187.3440  175.7720  138.0440 C   0  0  0  0  0  2  0  0  0  0  0  0
  186.0720  173.0390  136.4390 C   0  0  2  0  0  3  0  0  0  0  0  0
  188.2860  174.6050  136.1720 C   0  0  0  0  0  2  0  0  0  0  0  0
  187.2300  172.5760  137.3090 C   0  0  0  0  0  2  0  0  0  0  0  0
  188.5260  173.2790  136.9130 C   0  0  0  0  0  2  0  0  0  0  0  0
  185.8680  174.5510  136.6280 C   0  0  0  0  0  2  0  0  0  0  0  0
  187.1120  175.3420  136.6650 N   0  0  0  0  0  0  0  0  0  0  0  0
  184.3420  171.4410  135.7330 C   0  0  1  0  0  3  0  0  0  0  0  0
  184.8550  172.3210  136.8170 N   0  0  2  0  0  0  0  0  0  0  0  0
  183.7730  172.7730  135.9230 C   0  0  2  0  0  3  0  0  0  0  0  0
  185.1590  171.4410  134.5950 O   0  0  0  0  0  1  0  0  0  0  0  0
  182.4580  172.7050  136.6490 C   0  0  0  0  0  0  0  0  0  0  0  0
  181.7060  171.6830  136.4700 N   0  0  0  0  0  2  0  0  0  0  0  0
  180.7350  173.7380  137.9560 O   0  0  0  0  0  1  0  0  0  0  0  0
  182.1150  173.6630  137.7590 C   0  0  2  0  0  3  0  0  0  0  0  0
  182.7050  175.0540  137.5360 C   0  0  0  0  0  2  0  0  0  0  0  0
  182.7780  175.7660  138.7350 O   0  0  0  0  0  0  0  0  0  0  0  0
  183.4080  176.9680  138.4010 C   0  0  0  0  0  2  0  0  0  0  0  0
  183.3490  177.9250  139.5810 C   0  0  1  0  0  3  0  0  0  0  0  0
  184.5450  178.8510  139.5150 C   0  0  0  0  0  1  0  0  0  0  0  0
  182.0730  178.7580  139.5320 C   0  0  0  0  0  2  0  0  0  0  0  0
  182.2180  179.9550  138.6010 C   0  0  0  0  0  2  0  0  0  0  0  0
  181.2510  179.8440  137.4380 C   0  0  0  0  0  1  0  0  0  0  0  0
  1  6  1  0  0  0  0
  2  4  1  0  0  0  0
  2  1  2  0  0  0  0
  3 36  1  6  0  0  0
  3  7  1  0  0  0  0
  4  3  1  0  0  0  0
  5  4  2  0  0  0  0
  6  7  1  0  0  0  0
  7  8  1  1  0  0  0
  9  8  1  6  0  0  0
  9 14  1  0  0  0  0
 11 10  1  1  0  0  0
 11 13  1  0  0  0  0
 11  9  1  0  0  0  0
 12 13  1  0  0  0  0
 14 15  1  0  0  0  0
 15 16  2  0  0  0  0
 16 19  1  0  0  0  0
 18 15  1  0  0  0  0
 18 17  1  0  0  0  0
 20 19  1  0  0  0  0
 20 21  1  0  0  0  0
 22 24  1  6  0  0  0
 22 21  1  0  0  0  0
 22 23  1  0  0  0  0
 22 25  1  0  0  0  0
 23 25  1  0  0  0  0
 23 31  1  1  0  0  0
 25 27  1  6  0  0  0
 26 30  1  0  0  0  0
 27 26  1  0  0  0  0
 28 26  2  0  0  0  0
 30 29  1  0  0  0  0
 33 32  2  0  0  0  0
 34 31  1  0  0  0  0
 34 33  1  0  0  0  0
 35 33  1  0  0  0  0
 37 41  1  1  0  0  0
 37 39  1  0  0  0  0
 38 42  1  0  0  0  0
 38 40  1  0  0  0  0
 40 39  1  0  0  0  0
 41 42  1  0  0  0  0
 42 36  1  0  0  0  0
 43 46  1  6  0  0  0
 43 45  1  0  0  0  0
 43 44  1  0  0  0  0
 44 37  1  6  0  0  0
 45 47  1  1  0  0  0
 45 44  1  0  0  0  0
 47 50  1  0  0  0  0
 48 47  2  0  0  0  0
 50 49  1  6  0  0  0
 51 50  1  0  0  0  0
 51 52  1  0  0  0  0
 53 52  1  0  0  0  0
 53 54  1  0  0  0  0
 54 55  1  6  0  0  0
 56 54  1  0  0  0  0
 57 56  1  0  0  0  0
 58 57  1  0  0  0  0
M  END
>  <MODEL>
6

>  <REMARK>
 VINA RESULT:      -3.7      2.939      8.066
  Name = 
  26 active torsions:
  status: ('A' for Active; 'I' for Inactive)
    1  A    between atoms: C_3  and  O_31
    2  A    between atoms: C_5  and  C_50
    3  A    between atoms: C_6  and  C_30
    4  A    between atoms: C_6  and  CA_38
    5  A    between atoms: N_8  and  C_37
    6  A    between atoms: C_9  and  C_48
    7  A    between atoms: C_10  and  C_41
    8  A    between atoms: C_10  and  C_48
    9  A    between atoms: C_11  and  C_27
   10  A    between atoms: O_12  and  C_18
   11  A    between atoms: O_12  and  C_41
   12  A    between atoms: O_13  and  C_14
   13  A    between atoms: O_13  and  N_49
   14  A    between atoms: C_16  and  N_17
   15  A    between atoms: C_18  and  C_30
   16  A    between atoms: C_27  and  S_46
   17  A    between atoms: C_33  and  C_42
   18  A    between atoms: C_35  and  C_39
   19  A    between atoms: C_35  and  C_44
   20  A    between atoms: C_39  and  C_55
   21  A    between atoms: C_42  and  N_54
   22  A    between atoms: S_46  and  O_53
   23  A    between atoms: N_47  and  O_53
   24  A    between atoms: C_50  and  C_55
   25  A    between atoms: C_55  and  C_57
   26  A    between atoms: C_56  and  C_57
                            x       y       z     vdW  Elec       q    Type
                         _______ _______ _______ _____ _____    ______ ____

>  <TORSDO>
F 26

$$$$
=
 OpenBabel11062417493D

 58 61  0  0  1  0  0  0  0  0999 V2000
  188.5900  179.5420  136.8510 C   0  0  0  0  0  3  0  0  0  0  0  0
  187.4800  179.0090  136.1310 N   0  0  0  0  0  0  0  0  0  0  0  0
  187.3920  177.0380  137.7360 C   0  0  2  0  0  3  0  0  0  0  0  0
  186.8690  177.7820  136.5300 C   0  0  0  0  0  0  0  0  0  0  0  0
  185.8370  177.3820  135.9280 O   0  0  0  0  0  0  0  0  0  0  0  0
  189.2070  178.8230  137.7860 C   0  0  0  0  0  2  0  0  0  0  0  0
  188.8540  177.3880  138.0800 C   0  0  1  0  0  3  0  0  0  0  0  0
  189.1090  177.0810  139.5600 C   0  0  0  0  0  2  0  0  0  0  0  0
  190.5460  176.6530  139.9190 C   0  0  1  0  0  3  0  0  0  0  0  0
  191.2530  175.0630  138.0320 C   0  0  0  0  0  1  0  0  0  0  0  0
  191.4920  176.3850  138.7420 C   0  0  2  0  0  3  0  0  0  0  0  0
  193.6730  177.1180  138.0200 O   0  0  0  0  0  1  0  0  0  0  0  0
  192.9600  176.5940  139.1020 C   0  0  0  0  0  2  0  0  0  0  0  0
  191.2060  177.5020  141.0000 C   0  0  0  0  0  2  0  0  0  0  0  0
  191.2350  176.7690  142.3070 C   0  0  0  0  0  0  0  0  0  0  0  0
  191.5760  177.3660  143.4080 N   0  0  0  0  0  0  0  0  0  0  0  0
  189.6250  175.1890  143.0050 O   0  0  0  0  0  1  0  0  0  0  0  0
  190.8440  175.3330  142.3390 C   0  0  0  0  0  2  0  0  0  0  0  0
  191.9090  178.7020  143.4330 O   0  0  0  0  0  0  0  0  0  0  0  0
  190.7990  179.8600  144.0990 S   0  0  0  0  0  0  0  0  0  0  0  0
  189.5350  178.5810  144.3710 C   0  0  0  0  0  2  0  0  0  0  0  0
  189.5430  178.1290  145.8270 C   0  0  2  0  0  0  0  0  0  0  0  0
  188.3410  177.3280  146.3120 C   0  0  2  0  0  3  0  0  0  0  0  0
  190.1130  179.0760  146.8730 C   0  0  0  0  0  1  0  0  0  0  0  0
  189.6690  176.6270  146.0490 C   0  0  2  0  0  3  0  0  0  0  0  0
  191.6580  175.8370  147.3670 C   0  0  0  0  0  0  0  0  0  0  0  0
  190.3160  176.3160  147.3160 N   0  0  0  0  0  2  0  0  0  0  0  0
  192.1730  175.5630  148.4830 O   0  0  0  0  0  0  0  0  0  0  0  0
  192.3910  174.4540  145.4660 C   0  0  0  0  0  1  0  0  0  0  0  0
  192.3900  175.6780  146.1870 O   0  0  0  0  0  0  0  0  0  0  0  0
  187.4580  177.0330  145.2650 O   0  0  0  0  0  0  0  0  0  0  0  0
  185.9680  178.5250  143.4690 O   0  0  0  0  0  0  0  0  0  0  0  0
  185.5620  178.4200  144.6560 C   0  0  0  0  0  0  0  0  0  0  0  0
  186.2940  177.6430  145.6030 N   0  0  0  0  0  2  0  0  0  0  0  0
  184.3070  179.0990  145.0710 C   0  0  0  0  0  1  0  0  0  0  0  0
  187.1980  175.5200  137.6150 C   0  0  0  0  0  2  0  0  0  0  0  0
  185.4110  172.9410  136.2690 C   0  0  2  0  0  3  0  0  0  0  0  0
  187.6530  174.3300  135.5840 C   0  0  0  0  0  2  0  0  0  0  0  0
  186.6740  172.3640  136.8890 C   0  0  0  0  0  2  0  0  0  0  0  0
  187.9220  172.9700  136.2500 C   0  0  0  0  0  2  0  0  0  0  0  0
  185.3760  174.4590  136.5070 C   0  0  0  0  0  2  0  0  0  0  0  0
  186.6660  175.1460  136.3060 N   0  0  0  0  0  0  0  0  0  0  0  0
  183.7650  171.1210  136.1200 C   0  0  1  0  0  3  0  0  0  0  0  0
  184.2350  172.3140  136.8730 N   0  0  2  0  0  0  0  0  0  0  0  0
  183.1270  172.4180  135.9060 C   0  0  2  0  0  3  0  0  0  0  0  0
  184.5760  170.8120  135.0210 O   0  0  0  0  0  1  0  0  0  0  0  0
  181.8200  172.5110  136.6440 C   0  0  0  0  0  0  0  0  0  0  0  0
  181.6160  171.7300  137.6400 N   0  0  0  0  0  2  0  0  0  0  0  0
  181.2840  174.4640  135.3640 O   0  0  0  0  0  1  0  0  0  0  0  0
  180.8610  173.6480  136.4150 C   0  0  2  0  0  3  0  0  0  0  0  0
  180.6190  174.4750  137.6770 C   0  0  0  0  0  2  0  0  0  0  0  0
  181.7180  175.2890  137.9600 O   0  0  0  0  0  0  0  0  0  0  0  0
  181.2750  176.1510  138.9670 C   0  0  0  0  0  2  0  0  0  0  0  0
  182.4530  176.5940  139.8200 C   0  0  1  0  0  3  0  0  0  0  0  0
  183.6670  176.7510  138.9280 C   0  0  0  0  0  1  0  0  0  0  0  0
  182.1570  177.9300  140.4930 C   0  0  0  0  0  2  0  0  0  0  0  0
  181.5270  178.9210  139.5220 C   0  0  0  0  0  2  0  0  0  0  0  0
  182.3870  180.1630  139.3990 C   0  0  0  0  0  1  0  0  0  0  0  0
  1  6  1  0  0  0  0
  2  4  1  0  0  0  0
  2  1  2  0  0  0  0
  3 36  1  6  0  0  0
  3  7  1  0  0  0  0
  4  3  1  0  0  0  0
  5  4  2  0  0  0  0
  6  7  1  0  0  0  0
  7  8  1  1  0  0  0
  9  8  1  6  0  0  0
  9 14  1  0  0  0  0
 11 10  1  1  0  0  0
 11 13  1  0  0  0  0
 11  9  1  0  0  0  0
 12 13  1  0  0  0  0
 14 15  1  0  0  0  0
 15 18  1  0  0  0  0
 15 16  2  0  0  0  0
 16 19  1  0  0  0  0
 18 17  1  0  0  0  0
 19 20  1  0  0  0  0
 20 21  1  0  0  0  0
 21 22  1  0  0  0  0
 22 25  1  0  0  0  0
 22 23  1  0  0  0  0
 22 24  1  1  0  0  0
 23 31  1  6  0  0  0
 25 23  1  0  0  0  0
 25 27  1  1  0  0  0
 26 28  2  0  0  0  0
 27 26  1  0  0  0  0
 29 30  1  0  0  0  0
 30 26  1  0  0  0  0
 31 34  1  0  0  0  0
 32 33  2  0  0  0  0
 33 35  1  0  0  0  0
 33 34  1  0  0  0  0
 37 41  1  1  0  0  0
 37 39  1  0  0  0  0
 38 40  1  0  0  0  0
 38 42  1  0  0  0  0
 40 39  1  0  0  0  0
 42 41  1  0  0  0  0
 42 36  1  0  0  0  0
 43 46  1  6  0  0  0
 43 44  1  0  0  0  0
 44 37  1  6  0  0  0
 45 43  1  0  0  0  0
 45 47  1  1  0  0  0
 45 44  1  0  0  0  0
 47 48  2  0  0  0  0
 50 49  1  6  0  0  0
 50 47  1  0  0  0  0
 50 51  1  0  0  0  0
 51 52  1  0  0  0  0
 52 53  1  0  0  0  0
 53 54  1  0  0  0  0
 54 55  1  6  0  0  0
 54 56  1  0  0  0  0
 57 56  1  0  0  0  0
 58 57  1  0  0  0  0
M  END
>  <MODEL>
7

>  <REMARK>
 VINA RESULT:      -3.5      3.026      8.062
  Name = 
  26 active torsions:
  status: ('A' for Active; 'I' for Inactive)
    1  A    between atoms: C_3  and  O_31
    2  A    between atoms: C_5  and  C_50
    3  A    between atoms: C_6  and  C_30
    4  A    between atoms: C_6  and  CA_38
    5  A    between atoms: N_8  and  C_37
    6  A    between atoms: C_9  and  C_48
    7  A    between atoms: C_10  and  C_41
    8  A    between atoms: C_10  and  C_48
    9  A    between atoms: C_11  and  C_27
   10  A    between atoms: O_12  and  C_18
   11  A    between atoms: O_12  and  C_41
   12  A    between atoms: O_13  and  C_14
   13  A    between atoms: O_13  and  N_49
   14  A    between atoms: C_16  and  N_17
   15  A    between atoms: C_18  and  C_30
   16  A    between atoms: C_27  and  S_46
   17  A    between atoms: C_33  and  C_42
   18  A    between atoms: C_35  and  C_39
   19  A    between atoms: C_35  and  C_44
   20  A    between atoms: C_39  and  C_55
   21  A    between atoms: C_42  and  N_54
   22  A    between atoms: S_46  and  O_53
   23  A    between atoms: N_47  and  O_53
   24  A    between atoms: C_50  and  C_55
   25  A    between atoms: C_55  and  C_57
   26  A    between atoms: C_56  and  C_57
                            x       y       z     vdW  Elec       q    Type
                         _______ _______ _______ _____ _____    ______ ____

>  <TORSDO>
F 26

$$$$
=
 OpenBabel11062417493D

 58 61  0  0  1  0  0  0  0  0999 V2000
  184.8250  178.3090  146.9930 C   0  0  0  0  0  3  0  0  0  0  0  0
  186.0800  178.4400  147.6570 N   0  0  0  0  0  2  0  0  0  0  0  0
  187.2820  177.8970  145.4830 C   0  0  2  0  0  3  0  0  0  0  0  0
  187.3060  178.2410  146.9530 C   0  0  0  0  0  0  0  0  0  0  0  0
  188.3980  178.4490  147.5460 O   0  0  0  0  0  0  0  0  0  0  0  0
  184.7530  177.8110  145.7610 C   0  0  0  0  0  3  0  0  0  0  0  0
  185.9510  177.2660  145.0270 C   0  0  1  0  0  3  0  0  0  0  0  0
  185.7820  177.4840  143.5200 C   0  0  0  0  0  2  0  0  0  0  0  0
  184.6560  178.4500  143.1020 C   0  0  1  0  0  3  0  0  0  0  0  0
  186.3690  179.9520  141.9210 C   0  0  0  0  0  1  0  0  0  0  0  0
  185.0830  179.8730  142.7260 C   0  0  2  0  0  3  0  0  0  0  0  0
  183.8920  180.7300  144.6390 O   0  0  0  0  0  1  0  0  0  0  0  0
  185.0840  180.8270  143.9170 C   0  0  0  0  0  2  0  0  0  0  0  0
  183.6620  177.8680  142.1030 C   0  0  0  0  0  2  0  0  0  0  0  0
  182.3960  178.6680  142.0840 C   0  0  0  0  0  0  0  0  0  0  0  0
  181.8420  179.0290  140.9680 N   0  0  0  0  0  0  0  0  0  0  0  0
  181.2660  177.8880  144.0050 O   0  0  0  0  0  1  0  0  0  0  0  0
  181.7540  179.0350  143.3770 C   0  0  0  0  0  2  0  0  0  0  0  0
  182.3790  178.6810  139.7490 O   0  0  0  0  0  0  0  0  0  0  0  0
  181.7360  179.3700  138.2890 S   0  0  0  0  0  0  0  0  0  0  0  0
  182.0860  177.8550  137.3470 C   0  0  0  0  0  2  0  0  0  0  0  0
  183.3960  177.2310  137.8130 C   0  0  2  0  0  0  0  0  0  0  0  0
  183.3210  175.8450  138.4410 C   0  0  2  0  0  3  0  0  0  0  0  0
  184.4410  178.1380  138.4460 C   0  0  0  0  0  1  0  0  0  0  0  0
  183.8610  176.0120  137.0250 C   0  0  2  0  0  3  0  0  0  0  0  0
  185.9400  174.6150  136.8260 C   0  0  0  0  0  0  0  0  0  0  0  0
  185.3100  175.8760  137.0370 N   0  0  0  0  0  2  0  0  0  0  0  0
  187.1970  174.5390  136.8630 O   0  0  0  0  0  0  0  0  0  0  0  0
  185.5820  172.4720  135.6680 C   0  0  0  0  0  1  0  0  0  0  0  0
  185.1660  173.4780  136.5790 O   0  0  0  0  0  0  0  0  0  0  0  0
  182.0260  175.3140  138.3720 O   0  0  0  0  0  0  0  0  0  0  0  0
  179.3220  175.7830  138.7470 O   0  0  0  0  0  0  0  0  0  0  0  0
  180.0870  175.8080  139.7460 C   0  0  0  0  0  0  0  0  0  0  0  0
  181.4830  175.5520  139.5930 N   0  0  0  0  0  2  0  0  0  0  0  0
  179.5320  176.0950  141.0940 C   0  0  0  0  0  1  0  0  0  0  0  0
  188.4780  177.0310  145.0660 C   0  0  0  0  0  2  0  0  0  0  0  0
  190.9020  177.0950  142.6620 C   0  0  2  0  0  3  0  0  0  0  0  0
  190.8420  177.2850  145.3800 C   0  0  0  0  0  2  0  0  0  0  0  0
  190.9580  175.7390  143.3490 C   0  0  0  0  0  2  0  0  0  0  0  0
  191.2260  175.8950  144.8440 C   0  0  0  0  0  2  0  0  0  0  0  0
  189.7570  177.9230  143.2660 C   0  0  0  0  0  2  0  0  0  0  0  0
  189.6460  177.8460  144.7340 N   0  0  0  0  0  0  0  0  0  0  0  0
  191.6030  177.7280  140.3930 C   0  0  1  0  0  3  0  0  0  0  0  0
  190.6830  176.9110  141.2270 N   0  0  2  0  0  0  0  0  0  0  0  0
  190.2510  178.2070  140.6720 C   0  0  2  0  0  3  0  0  0  0  0  0
  192.5240  178.4620  141.1500 O   0  0  0  0  0  1  0  0  0  0  0  0
  189.3380  177.9730  139.5000 C   0  0  0  0  0  0  0  0  0  0  0  0
  188.0730  178.0960  139.6690 N   0  0  0  0  0  2  0  0  0  0  0  0
  189.1550  178.6690  137.2140 O   0  0  0  0  0  1  0  0  0  0  0  0
  189.8670  177.8530  138.0960 C   0  0  2  0  0  3  0  0  0  0  0  0
  189.8860  176.4090  137.5980 C   0  0  0  0  0  2  0  0  0  0  0  0
  191.0380  176.1510  136.8520 O   0  0  0  0  0  0  0  0  0  0  0  0
  191.4960  174.9140  137.3160 C   0  0  0  0  0  2  0  0  0  0  0  0
  192.7290  174.4950  136.5310 C   0  0  1  0  0  3  0  0  0  0  0  0
  193.6800  175.6710  136.4570 C   0  0  0  0  0  1  0  0  0  0  0  0
  193.4330  173.3310  137.2200 C   0  0  0  0  0  2  0  0  0  0  0  0
  193.3370  172.0510  136.3990 C   0  0  0  0  0  2  0  0  0  0  0  0
  194.6610  171.3130  136.4080 C   0  0  0  0  0  1  0  0  0  0  0  0
  1  2  1  0  0  0  0
  3 36  1  1  0  0  0
  3  4  1  0  0  0  0
  4  5  2  0  0  0  0
  4  2  1  0  0  0  0
  6  1  2  0  0  0  0
  7  8  1  6  0  0  0
  7  3  1  0  0  0  0
  7  6  1  0  0  0  0
  9 14  1  6  0  0  0
  9  8  1  0  0  0  0
 11 10  1  1  0  0  0
 11  9  1  0  0  0  0
 11 13  1  0  0  0  0
 13 12  1  0  0  0  0
 15 14  1  0  0  0  0
 15 18  1  0  0  0  0
 16 15  2  0  0  0  0
 18 17  1  0  0  0  0
 19 16  1  0  0  0  0
 20 19  1  0  0  0  0
 21 22  1  0  0  0  0
 21 20  1  0  0  0  0
 22 23  1  0  0  0  0
 22 24  1  1  0  0  0
 23 31  1  6  0  0  0
 25 27  1  1  0  0  0
 25 22  1  0  0  0  0
 25 23  1  0  0  0  0
 26 28  2  0  0  0  0
 26 27  1  0  0  0  0
 29 30  1  0  0  0  0
 30 26  1  0  0  0  0
 31 34  1  0  0  0  0
 32 33  2  0  0  0  0
 33 35  1  0  0  0  0
 34 33  1  0  0  0  0
 37 41  1  1  0  0  0
 37 39  1  0  0  0  0
 39 40  1  0  0  0  0
 40 38  1  0  0  0  0
 41 42  1  0  0  0  0
 42 36  1  0  0  0  0
 42 38  1  0  0  0  0
 43 45  1  0  0  0  0
 43 46  1  1  0  0  0
 43 44  1  0  0  0  0
 44 37  1  1  0  0  0
 45 47  1  6  0  0  0
 45 44  1  0  0  0  0
 47 48  2  0  0  0  0
 50 49  1  6  0  0  0
 50 47  1  0  0  0  0
 51 50  1  0  0  0  0
 52 53  1  0  0  0  0
 52 51  1  0  0  0  0
 54 55  1  1  0  0  0
 54 56  1  0  0  0  0
 54 53  1  0  0  0  0
 57 58  1  0  0  0  0
 57 56  1  0  0  0  0
M  END
>  <MODEL>
8

>  <REMARK>
 VINA RESULT:      -3.3      2.526      6.308
  Name = 
  26 active torsions:
  status: ('A' for Active; 'I' for Inactive)
    1  A    between atoms: C_3  and  O_31
    2  A    between atoms: C_5  and  C_50
    3  A    between atoms: C_6  and  C_30
    4  A    between atoms: C_6  and  CA_38
    5  A    between atoms: N_8  and  C_37
    6  A    between atoms: C_9  and  C_48
    7  A    between atoms: C_10  and  C_41
    8  A    between atoms: C_10  and  C_48
    9  A    between atoms: C_11  and  C_27
   10  A    between atoms: O_12  and  C_18
   11  A    between atoms: O_12  and  C_41
   12  A    between atoms: O_13  and  C_14
   13  A    between atoms: O_13  and  N_49
   14  A    between atoms: C_16  and  N_17
   15  A    between atoms: C_18  and  C_30
   16  A    between atoms: C_27  and  S_46
   17  A    between atoms: C_33  and  C_42
   18  A    between atoms: C_35  and  C_39
   19  A    between atoms: C_35  and  C_44
   20  A    between atoms: C_39  and  C_55
   21  A    between atoms: C_42  and  N_54
   22  A    between atoms: S_46  and  O_53
   23  A    between atoms: N_47  and  O_53
   24  A    between atoms: C_50  and  C_55
   25  A    between atoms: C_55  and  C_57
   26  A    between atoms: C_56  and  C_57
                            x       y       z     vdW  Elec       q    Type
                         _______ _______ _______ _____ _____    ______ ____

>  <TORSDO>
F 26

$$$$
=
 OpenBabel11062417493D

 58 61  0  0  1  0  0  0  0  0999 V2000
  190.7630  177.9120  139.0460 C   0  0  0  0  0  3  0  0  0  0  0  0
  190.8700  177.1020  140.2150 N   0  0  0  0  0  2  0  0  0  0  0  0
  188.3350  177.0280  140.3900 C   0  0  2  0  0  3  0  0  0  0  0  0
  189.7040  176.6530  140.9040 C   0  0  0  0  0  0  0  0  0  0  0  0
  189.8300  175.8680  141.8810 O   0  0  0  0  0  0  0  0  0  0  0  0
  189.5940  178.4310  138.6790 C   0  0  0  0  0  3  0  0  0  0  0  0
  188.3420  178.2910  139.5050 C   0  0  1  0  0  3  0  0  0  0  0  0
  187.1130  178.2700  138.5890 C   0  0  0  0  0  2  0  0  0  0  0  0
  187.1970  177.3250  137.3740 C   0  0  1  0  0  3  0  0  0  0  0  0
  187.3590  178.2320  134.9780 C   0  0  0  0  0  1  0  0  0  0  0  0
  188.1030  177.7760  136.2220 C   0  0  2  0  0  3  0  0  0  0  0  0
  189.6650  176.9250  134.5940 O   0  0  0  0  0  1  0  0  0  0  0  0
  189.2040  176.7680  135.9040 C   0  0  0  0  0  2  0  0  0  0  0  0
  187.4100  175.8580  137.7280 C   0  0  0  0  0  2  0  0  0  0  0  0
  186.5200  174.9770  136.9040 C   0  0  0  0  0  0  0  0  0  0  0  0
  185.2850  175.2980  136.6680 N   0  0  0  0  0  0  0  0  0  0  0  0
  186.3180  172.6290  136.7550 O   0  0  0  0  0  1  0  0  0  0  0  0
  187.0780  173.7220  136.3310 C   0  0  0  0  0  2  0  0  0  0  0  0
  184.7370  176.4670  137.1460 O   0  0  0  0  0  0  0  0  0  0  0  0
  183.3270  176.4140  138.1600 S   0  0  0  0  0  0  0  0  0  0  0  0
  182.5800  177.8300  137.2990 C   0  0  0  0  0  2  0  0  0  0  0  0
  182.3890  178.9960  138.2610 C   0  0  2  0  0  0  0  0  0  0  0  0
  181.4170  180.0920  137.8410 C   0  0  2  0  0  3  0  0  0  0  0  0
  183.6030  179.5090  139.0230 C   0  0  0  0  0  1  0  0  0  0  0  0
  181.0170  179.0890  138.9180 C   0  0  2  0  0  3  0  0  0  0  0  0
  180.8960  178.9780  141.4250 C   0  0  0  0  0  0  0  0  0  0  0  0
  181.0810  179.7260  140.2250 N   0  0  0  0  0  2  0  0  0  0  0  0
  180.9410  179.5720  142.5360 O   0  0  0  0  0  0  0  0  0  0  0  0
  179.3580  177.0560  141.3600 C   0  0  0  0  0  1  0  0  0  0  0  0
  180.6700  177.6010  141.3650 O   0  0  0  0  0  0  0  0  0  0  0  0
  180.7530  179.7670  136.6510 O   0  0  0  0  0  0  0  0  0  0  0  0
  179.7160  182.2200  137.4130 O   0  0  0  0  0  0  0  0  0  0  0  0
  180.2880  182.1230  136.2970 C   0  0  0  0  0  0  0  0  0  0  0  0
  180.8510  180.8790  135.8790 N   0  0  0  0  0  2  0  0  0  0  0  0
  180.3870  183.3120  135.4110 C   0  0  0  0  0  1  0  0  0  0  0  0
  187.2990  177.1450  141.5160 C   0  0  0  0  0  2  0  0  0  0  0  0
  186.2870  178.4070  144.5230 C   0  0  2  0  0  3  0  0  0  0  0  0
  186.3730  179.3130  141.9550 C   0  0  0  0  0  2  0  0  0  0  0  0
  185.0450  178.0390  143.7260 C   0  0  0  0  0  2  0  0  0  0  0  0
  184.9930  178.8110  142.4090 C   0  0  0  0  0  2  0  0  0  0  0  0
  187.5390  178.0410  143.7100 C   0  0  0  0  0  2  0  0  0  0  0  0
  187.4660  178.3830  142.2770 N   0  0  0  0  0  0  0  0  0  0  0  0
  185.3460  178.2590  146.7900 C   0  0  1  0  0  3  0  0  0  0  0  0
  186.2880  177.6820  145.7940 N   0  0  2  0  0  0  0  0  0  0  0  0
  186.7640  178.6100  146.8360 C   0  0  2  0  0  3  0  0  0  0  0  0
  184.6140  179.3420  146.2880 O   0  0  0  0  0  1  0  0  0  0  0  0
  187.4810  177.8370  147.9090 C   0  0  0  0  0  0  0  0  0  0  0  0
  187.0080  176.7040  148.2760 N   0  0  0  0  0  2  0  0  0  0  0  0
  189.2040  179.5030  147.9310 O   0  0  0  0  0  1  0  0  0  0  0  0
  188.8580  178.2270  148.3790 C   0  0  2  0  0  3  0  0  0  0  0  0
  189.9230  177.2070  147.9820 C   0  0  0  0  0  2  0  0  0  0  0  0
  189.9590  177.0340  146.5970 O   0  0  0  0  0  0  0  0  0  0  0  0
  190.9190  176.0400  146.3840 C   0  0  0  0  0  2  0  0  0  0  0  0
  191.6920  176.3350  145.1090 C   0  0  1  0  0  3  0  0  0  0  0  0
  192.0520  175.0230  144.4450 C   0  0  0  0  0  1  0  0  0  0  0  0
  190.8450  177.1610  144.1470 C   0  0  0  0  0  2  0  0  0  0  0  0
  190.8400  178.6370  144.5270 C   0  0  0  0  0  2  0  0  0  0  0  0
  192.0510  179.3390  143.9430 C   0  0  0  0  0  1  0  0  0  0  0  0
  1  2  1  0  0  0  0
  2  4  1  0  0  0  0
  3  4  1  0  0  0  0
  3 36  1  1  0  0  0
  4  5  2  0  0  0  0
  6  1  2  0  0  0  0
  6  7  1  0  0  0  0
  7  8  1  6  0  0  0
  7  3  1  0  0  0  0
  9 14  1  1  0  0  0
  9  8  1  0  0  0  0
 11 10  1  6  0  0  0
 11  9  1  0  0  0  0
 12 13  1  0  0  0  0
 13 11  1  0  0  0  0
 15 14  1  0  0  0  0
 16 15  2  0  0  0  0
 16 19  1  0  0  0  0
 18 17  1  0  0  0  0
 18 15  1  0  0  0  0
 19 20  1  0  0  0  0
 21 20  1  0  0  0  0
 21 22  1  0  0  0  0
 22 25  1  0  0  0  0
 22 24  1  1  0  0  0
 23 31  1  6  0  0  0
 23 22  1  0  0  0  0
 23 25  1  0  0  0  0
 25 27  1  1  0  0  0
 26 28  2  0  0  0  0
 27 26  1  0  0  0  0
 29 30  1  0  0  0  0
 30 26  1  0  0  0  0
 33 32  2  0  0  0  0
 34 33  1  0  0  0  0
 34 31  1  0  0  0  0
 35 33  1  0  0  0  0
 36 42  1  0  0  0  0
 37 41  1  6  0  0  0
 38 42  1  0  0  0  0
 38 40  1  0  0  0  0
 39 37  1  0  0  0  0
 40 39  1  0  0  0  0
 42 41  1  0  0  0  0
 43 46  1  6  0  0  0
 43 45  1  0  0  0  0
 44 37  1  6  0  0  0
 44 43  1  0  0  0  0
 44 45  1  0  0  0  0
 45 47  1  1  0  0  0
 47 48  2  0  0  0  0
 47 50  1  0  0  0  0
 50 49  1  6  0  0  0
 51 50  1  0  0  0  0
 52 51  1  0  0  0  0
 53 52  1  0  0  0  0
 54 55  1  6  0  0  0
 54 53  1  0  0  0  0
 56 57  1  0  0  0  0
 56 54  1  0  0  0  0
 58 57  1  0  0  0  0
M  END
>  <MODEL>
9

>  <REMARK>
 VINA RESULT:      -3.0      2.773      8.513
  Name = 
  26 active torsions:
  status: ('A' for Active; 'I' for Inactive)
    1  A    between atoms: C_3  and  O_31
    2  A    between atoms: C_5  and  C_50
    3  A    between atoms: C_6  and  C_30
    4  A    between atoms: C_6  and  CA_38
    5  A    between atoms: N_8  and  C_37
    6  A    between atoms: C_9  and  C_48
    7  A    between atoms: C_10  and  C_41
    8  A    between atoms: C_10  and  C_48
    9  A    between atoms: C_11  and  C_27
   10  A    between atoms: O_12  and  C_18
   11  A    between atoms: O_12  and  C_41
   12  A    between atoms: O_13  and  C_14
   13  A    between atoms: O_13  and  N_49
   14  A    between atoms: C_16  and  N_17
   15  A    between atoms: C_18  and  C_30
   16  A    between atoms: C_27  and  S_46
   17  A    between atoms: C_33  and  C_42
   18  A    between atoms: C_35  and  C_39
   19  A    between atoms: C_35  and  C_44
   20  A    between atoms: C_39  and  C_55
   21  A    between atoms: C_42  and  N_54
   22  A    between atoms: S_46  and  O_53
   23  A    between atoms: N_47  and  O_53
   24  A    between atoms: C_50  and  C_55
   25  A    between atoms: C_55  and  C_57
   26  A    between atoms: C_56  and  C_57
                            x       y       z     vdW  Elec       q    Type
                         _______ _______ _______ _____ _____    ______ ____

>  <TORSDO>
F 26

$$$$
