=
 OpenBabel11062412093D

 54 60  0  0  1  0  0  0  0  0999 V2000
  182.7420  179.3750  139.7380 C   0  0  2  0  0  3  0  0  0  0  0  0
  187.6280  178.0340  141.6090 C   0  0  2  0  0  3  0  0  0  0  0  0
  182.7450  178.2980  140.7480 N   0  0  2  0  0  0  0  0  0  0  0  0
  190.2730  175.9460  139.1290 C   0  0  0  0  0  2  0  0  0  0  0  0
  186.0240  178.8860  137.8890 N   0  0  0  0  0  2  0  0  0  0  0  0
  183.7840  178.1690  137.3150 C   0  0  0  0  0  3  0  0  0  0  0  0
  181.4210  177.9380  136.0870 Cl  0  0  0  0  0  0  0  0  0  0  0  0
  181.4560  177.6340  140.7940 C   0  0  0  0  0  2  0  0  0  0  0  0
  188.0050  178.3050  136.8170 O   0  0  0  0  0  0  0  0  0  0  0  0
  187.3910  175.4810  136.7440 C   0  0  1  0  0  3  0  0  0  0  0  0
  181.9250  179.0360  138.5650 N   0  0  0  0  0  2  0  0  0  0  0  0
  182.8450  178.9370  142.0650 C   0  0  1  0  0  3  0  0  0  0  0  0
  186.5630  178.3770  142.4710 O   0  0  0  0  0  0  0  0  0  0  0  0
  189.6870  175.7450  137.7350 C   0  0  2  0  0  3  0  0  0  0  0  0
  189.8180  178.1960  139.6410 C   0  0  0  0  0  2  0  0  0  0  0  0
  186.5310  176.5420  137.2580 N   0  0  0  0  0  2  0  0  0  0  0  0
  181.9630  178.3160  142.9670 O   0  0  0  0  0  0  0  0  0  0  0  0
  184.1750  179.6850  139.2770 C   0  0  0  0  0  2  0  0  0  0  0  0
  184.7260  178.5270  138.4330 C   0  0  2  0  0  3  0  0  0  0  0  0
  188.4360  176.8650  142.1700 C   0  0  0  0  0  2  0  0  0  0  0  0
  185.2600  178.3630  141.9780 C   0  0  0  0  0  3  0  0  0  0  0  0
  188.6900  179.1610  140.0100 C   0  0  0  0  0  2  0  0  0  0  0  0
  180.9220  177.8090  142.1850 C   0  0  1  0  0  3  0  0  0  0  0  0
  189.6710  176.5580  141.3160 C   0  0  0  0  0  2  0  0  0  0  0  0
  189.4090  176.8200  139.9080 N   0  0  2  0  0  0  0  0  0  0  0  0
  184.2490  178.9340  142.6330 C   0  0  0  0  0  0  0  0  0  0  0  0
  182.4720  178.3770  137.4160 C   0  0  0  0  0  0  0  0  0  0  0  0
  186.9040  177.9240  137.2960 C   0  0  0  0  0  0  0  0  0  0  0  0
  188.4460  179.1470  141.3900 O   0  0  0  0  0  0  0  0  0  0  0  0
  188.3500  175.0130  137.8300 C   0  0  0  0  0  2  0  0  0  0  0  0
  191.5330  173.0280  135.7930 C   0  0  0  0  0  3  0  0  0  0  0  0
  190.5570  173.6720  136.5590 C   0  0  0  0  0  3  0  0  0  0  0  0
  193.5930  173.1130  134.5940 F   0  0  0  0  0  0  0  0  0  0  0  0
  192.6440  173.7380  135.3330 C   0  0  0  0  0  0  0  0  0  0  0  0
  192.7750  175.0970  135.6280 C   0  0  0  0  0  3  0  0  0  0  0  0
  190.6790  175.0350  136.8560 C   0  0  0  0  0  0  0  0  0  0  0  0
  191.7970  175.7410  136.3890 C   0  0  0  0  0  3  0  0  0  0  0  0
  184.5130  179.6280  143.9030 C   0  0  0  0  0  3  0  0  0  0  0  0
  184.5050  179.0060  144.9990 O   0  0  0  0  0  0  0  0  0  0  0  0
  186.5370  174.3100  136.2630 C   0  0  0  0  0  2  0  0  0  0  0  0
  185.3620  174.0530  137.1980 C   0  0  2  0  0  3  0  0  0  0  0  0
  185.4000  172.6120  137.6670 C   0  0  0  0  0  2  0  0  0  0  0  0
  184.4280  173.0300  136.5800 C   0  0  1  0  0  3  0  0  0  0  0  0
  182.7260  174.6970  137.3370 C   0  0  0  0  0  2  0  0  0  0  0  0
  180.3430  174.2460  136.9620 N   0  0  0  0  0  2  0  0  0  0  0  0
  180.6030  172.8060  136.8710 C   0  0  0  0  0  2  0  0  0  0  0  0
  181.9910  172.5550  136.2810 C   0  0  0  0  0  2  0  0  0  0  0  0
  183.0440  173.2140  137.1720 C   0  0  0  0  0  3  0  0  0  0  0  0
  181.3080  174.8390  137.8890 C   0  0  0  0  0  2  0  0  0  0  0  0
  179.7490  178.7810  142.1680 C   0  0  0  0  0  2  0  0  0  0  0  0
  179.3790  179.1890  140.7480 C   0  0  0  0  0  2  0  0  0  0  0  0
  179.3750  180.6740  140.5900 C   0  0  0  0  0  0  0  0  0  0  0  0
  179.4270  181.4130  141.6060 O   0  0  0  0  0  1  0  0  0  0  0  0
  179.3570  181.2440  139.3190 O   0  0  0  0  0  0  0  0  0  0  0  0
  1 18  1  6  0  0  0
  1  3  1  0  0  0  0
  2 20  1  1  0  0  0
  2 13  1  0  0  0  0
  3  8  1  1  0  0  0
  3 12  1  0  0  0  0
  5 19  1  0  0  0  0
  6 27  2  0  0  0  0
  7 27  1  0  0  0  0
  8 23  1  0  0  0  0
  9 28  2  0  0  0  0
 10 40  1  1  0  0  0
 10 16  1  0  0  0  0
 10 30  1  0  0  0  0
 11  1  1  0  0  0  0
 12 26  1  1  0  0  0
 12 17  1  0  0  0  0
 14 36  1  6  0  0  0
 14 30  1  0  0  0  0
 14  4  1  0  0  0  0
 15 25  1  0  0  0  0
 15 22  1  0  0  0  0
 16 28  1  0  0  0  0
 19  6  1  6  0  0  0
 19 18  1  0  0  0  0
 21 13  1  0  0  0  0
 21 26  2  0  0  0  0
 22 29  1  0  0  0  0
 23 50  1  6  0  0  0
 23 17  1  0  0  0  0
 24 20  1  0  0  0  0
 25  4  1  6  0  0  0
 25 24  1  0  0  0  0
 26 38  1  0  0  0  0
 27 11  1  0  0  0  0
 28  5  1  0  0  0  0
 29  2  1  0  0  0  0
 31 32  1  0  0  0  0
 32 36  2  0  0  0  0
 33 34  1  0  0  0  0
 34 35  1  0  0  0  0
 34 31  2  0  0  0  0
 35 37  2  0  0  0  0
 37 36  1  0  0  0  0
 38 39  2  0  0  0  0
 41 40  1  6  0  0  0
 41 42  1  0  0  0  0
 43 48  1  1  0  0  0
 43 41  1  0  0  0  0
 43 42  1  0  0  0  0
 44 49  1  0  0  0  0
 45 49  1  0  0  0  0
 46 45  1  0  0  0  0
 47 46  1  0  0  0  0
 47 48  1  0  0  0  0
 48 44  1  0  0  0  0
 51 50  1  0  0  0  0
 52 51  1  0  0  0  0
 52 53  1  0  0  0  0
 54 52  2  0  0  0  0
M  END
>  <MODEL>
1

>  <REMARK>
 VINA RESULT:      -6.3      0.000      0.000
  Name = 
  8 active torsions:
  status: ('A' for Active; 'I' for Inactive)
    1  A    between atoms: C_14  and  C_32
    2  A    between atoms: C_17  and  C_24
    3  A    between atoms: C_18  and  C_46
    4  A    between atoms: C_22  and  C_45
    5  A    between atoms: C_24  and  C_26
    6  A    between atoms: C_27  and  C_48
    7  A    between atoms: C_32  and  C_39
    8  A    between atoms: C_39  and  C_40
                            x       y       z     vdW  Elec       q    Type
                         _______ _______ _______ _____ _____    ______ ____

>  <TORSDO>
F 8

$$$$
=
 OpenBabel11062412093D

 54 60  0  0  1  0  0  0  0  0999 V2000
  183.5030  178.3670  138.3520 C   0  0  2  0  0  3  0  0  0  0  0  0
  182.9760  178.8780  143.7030 C   0  0  2  0  0  3  0  0  0  0  0  0
  182.7640  177.2720  139.0090 N   0  0  2  0  0  0  0  0  0  0  0  0
  186.3200  178.3200  146.1560 C   0  0  0  0  0  2  0  0  0  0  0  0
  186.0350  179.4450  140.9720 N   0  0  0  0  0  2  0  0  0  0  0  0
  186.2840  177.9660  139.0710 C   0  0  0  0  0  3  0  0  0  0  0  0
  187.0330  176.9560  136.7120 Cl  0  0  0  0  0  0  0  0  0  0  0  0
  182.6000  176.1490  138.1060 C   0  0  0  0  0  2  0  0  0  0  0  0
  187.5810  179.8300  142.6660 O   0  0  0  0  0  0  0  0  0  0  0  0
  188.1200  177.0250  143.1080 C   0  0  1  0  0  3  0  0  0  0  0  0
  184.5330  177.8690  137.4300 N   0  0  0  0  0  2  0  0  0  0  0  0
  181.3900  177.7410  139.2210 C   0  0  1  0  0  3  0  0  0  0  0  0
  181.8660  178.6660  142.8570 O   0  0  0  0  0  0  0  0  0  0  0  0
  187.5780  178.0650  145.3320 C   0  0  2  0  0  3  0  0  0  0  0  0
  185.2660  180.1270  145.0800 C   0  0  0  0  0  2  0  0  0  0  0  0
  187.2320  177.5880  142.0960 N   0  0  0  0  0  2  0  0  0  0  0  0
  180.4790  176.7190  138.8950 O   0  0  0  0  0  0  0  0  0  0  0  0
  184.1670  179.2740  139.4010 C   0  0  0  0  0  2  0  0  0  0  0  0
  185.3290  178.5380  140.0830 C   0  0  2  0  0  3  0  0  0  0  0  0
  182.8480  178.0720  144.9950 C   0  0  0  0  0  2  0  0  0  0  0  0
  182.0790  178.1910  141.5650 C   0  0  0  0  0  3  0  0  0  0  0  0
  184.4840  180.5130  143.8240 C   0  0  0  0  0  2  0  0  0  0  0  0
  181.1250  175.9340  137.9370 C   0  0  1  0  0  3  0  0  0  0  0  0
  183.9770  178.3840  145.9810 C   0  0  0  0  0  2  0  0  0  0  0  0
  185.2170  178.6810  145.2790 N   0  0  2  0  0  0  0  0  0  0  0  0
  181.1290  178.2320  140.6300 C   0  0  0  0  0  0  0  0  0  0  0  0
  185.8810  177.6200  137.8490 C   0  0  0  0  0  0  0  0  0  0  0  0
  186.9810  178.9890  141.9450 C   0  0  0  0  0  0  0  0  0  0  0  0
  183.1170  180.2430  143.9780 O   0  0  0  0  0  0  0  0  0  0  0  0
  187.3720  176.8560  144.4240 C   0  0  0  0  0  2  0  0  0  0  0  0
  191.0390  177.1830  146.6770 C   0  0  0  0  0  3  0  0  0  0  0  0
  189.9740  177.3680  145.7900 C   0  0  0  0  0  3  0  0  0  0  0  0
  191.9280  177.3460  148.8840 F   0  0  0  0  0  0  0  0  0  0  0  0
  190.8980  177.5300  148.0230 C   0  0  0  0  0  0  0  0  0  0  0  0
  189.6950  178.0740  148.4810 C   0  0  0  0  0  3  0  0  0  0  0  0
  188.7670  177.9170  146.2400 C   0  0  0  0  0  0  0  0  0  0  0  0
  188.6340  178.2640  147.5930 C   0  0  0  0  0  3  0  0  0  0  0  0
  179.8210  178.8210  140.9560 C   0  0  0  0  0  3  0  0  0  0  0  0
  178.9310  178.1490  141.5420 O   0  0  0  0  0  0  0  0  0  0  0  0
  188.6550  175.6750  142.6350 C   0  0  0  0  0  2  0  0  0  0  0  0
  190.1050  175.7760  142.1790 C   0  0  2  0  0  3  0  0  0  0  0  0
  190.6080  177.1860  142.4160 C   0  0  0  0  0  2  0  0  0  0  0  0
  190.2110  176.7470  141.0190 C   0  0  1  0  0  3  0  0  0  0  0  0
  191.0990  176.2240  138.7420 C   0  0  0  0  0  2  0  0  0  0  0  0
  193.3140  177.0570  138.0880 N   0  0  0  0  0  2  0  0  0  0  0  0
  193.7110  177.1800  139.4940 C   0  0  0  0  0  2  0  0  0  0  0  0
  192.4970  177.5170  140.3600 C   0  0  0  0  0  2  0  0  0  0  0  0
  191.4520  176.4110  140.2150 C   0  0  0  0  0  3  0  0  0  0  0  0
  192.3810  175.9360  137.9610 C   0  0  0  0  0  2  0  0  0  0  0  0
  180.7020  176.3520  136.5340 C   0  0  0  0  0  2  0  0  0  0  0  0
  181.1220  175.3250  135.4920 C   0  0  0  0  0  2  0  0  0  0  0  0
  180.6430  173.9570  135.8490 C   0  0  0  0  0  0  0  0  0  0  0  0
  179.4140  173.6910  135.8060 O   0  0  0  0  0  0  0  0  0  0  0  0
  181.5560  172.9600  136.1870 O   0  0  0  0  0  1  0  0  0  0  0  0
  1  3  1  0  0  0  0
  1 18  1  1  0  0  0
  2 29  1  0  0  0  0
  2 20  1  1  0  0  0
  3  8  1  6  0  0  0
  3 12  1  0  0  0  0
  5 28  1  0  0  0  0
  7 27  1  0  0  0  0
 10 40  1  6  0  0  0
 10 30  1  0  0  0  0
 11 27  1  0  0  0  0
 11  1  1  0  0  0  0
 12 17  1  1  0  0  0
 12 26  1  0  0  0  0
 13  2  1  0  0  0  0
 14  4  1  0  0  0  0
 14 36  1  1  0  0  0
 16 10  1  0  0  0  0
 18 19  1  0  0  0  0
 19  6  1  6  0  0  0
 19  5  1  0  0  0  0
 20 24  1  0  0  0  0
 21 13  1  0  0  0  0
 22 29  1  0  0  0  0
 22 15  1  0  0  0  0
 23 50  1  6  0  0  0
 23  8  1  0  0  0  0
 23 17  1  0  0  0  0
 25 15  1  1  0  0  0
 25 24  1  0  0  0  0
 25  4  1  0  0  0  0
 26 38  1  0  0  0  0
 26 21  2  0  0  0  0
 27  6  2  0  0  0  0
 28 16  1  0  0  0  0
 28  9  2  0  0  0  0
 30 14  1  0  0  0  0
 31 34  1  0  0  0  0
 32 36  1  0  0  0  0
 32 31  2  0  0  0  0
 34 35  2  0  0  0  0
 34 33  1  0  0  0  0
 36 37  2  0  0  0  0
 37 35  1  0  0  0  0
 38 39  2  0  0  0  0
 41 42  1  0  0  0  0
 41 40  1  1  0  0  0
 43 48  1  6  0  0  0
 43 41  1  0  0  0  0
 43 42  1  0  0  0  0
 44 48  1  0  0  0  0
 45 46  1  0  0  0  0
 46 47  1  0  0  0  0
 48 47  1  0  0  0  0
 49 45  1  0  0  0  0
 49 44  1  0  0  0  0
 51 52  1  0  0  0  0
 51 50  1  0  0  0  0
 52 54  1  0  0  0  0
 53 52  2  0  0  0  0
M  END
>  <MODEL>
2

>  <REMARK>
 VINA RESULT:      -3.9      3.849      7.852
  Name = 
  8 active torsions:
  status: ('A' for Active; 'I' for Inactive)
    1  A    between atoms: C_14  and  C_32
    2  A    between atoms: C_17  and  C_24
    3  A    between atoms: C_18  and  C_46
    4  A    between atoms: C_22  and  C_45
    5  A    between atoms: C_24  and  C_26
    6  A    between atoms: C_27  and  C_48
    7  A    between atoms: C_32  and  C_39
    8  A    between atoms: C_39  and  C_40
                            x       y       z     vdW  Elec       q    Type
                         _______ _______ _______ _____ _____    ______ ____

>  <TORSDO>
F 8

$$$$
