=
 OpenBabel11062415013D

 31 33  0  0  1  0  0  0  0  0999 V2000
  181.8490  177.1520  139.4830 C   0  0  0  0  0  2  0  0  0  0  0  0
  182.1130  180.7940  138.8840 C   0  0  0  0  0  1  0  0  0  0  0  0
  182.5800  178.6710  141.4000 C   0  0  0  0  0  0  0  0  0  0  0  0
  183.9080  178.6670  141.6770 C   0  0  0  0  0  0  0  0  0  0  0  0
  181.5160  177.2940  138.0680 N   0  0  0  0  0  0  0  0  0  0  0  0
  184.9270  178.6080  140.5880 C   0  0  0  0  0  2  0  0  0  0  0  0
  182.0060  178.5540  140.0030 C   0  0  1  0  0  3  0  0  0  0  0  0
  184.0890  179.2550  138.6570 C   0  0  0  0  0  2  0  0  0  0  0  0
  181.9420  178.6400  137.6440 C   0  0  0  0  0  2  0  0  0  0  0  0
  184.7770  179.7300  139.7730 O   0  0  0  0  0  0  0  0  0  0  0  0
  182.5680  179.3480  138.8330 C   0  0  2  0  0  0  0  0  0  0  0  0
  180.3490  179.5770  142.0120 C   0  0  0  0  0  1  0  0  0  0  0  0
  181.5640  178.8080  142.4980 C   0  0  0  0  0  2  0  0  0  0  0  0
  182.1840  176.2320  137.2970 C   0  0  2  0  0  3  0  0  0  0  0  0
  181.2150  175.2050  136.7080 C   0  0  0  0  0  2  0  0  0  0  0  0
  181.2400  173.9220  137.5200 C   0  0  0  0  0  2  0  0  0  0  0  0
  179.7950  174.1180  139.4700 N   0  0  0  0  0  1  0  0  0  0  0  0
  179.8660  173.6400  138.0990 C   0  0  0  0  0  2  0  0  0  0  0  0
  183.2580  175.5450  138.1370 C   0  0  0  0  0  2  0  0  0  0  0  0
  185.0970  176.4270  136.7000 C   0  0  0  0  0  3  0  0  0  0  0  0
  185.3350  174.2490  137.1900 C   0  0  0  0  0  0  0  0  0  0  0  0
  186.3340  175.8850  136.0480 C   0  0  0  0  0  3  0  0  0  0  0  0
  185.0410  172.9090  137.7700 C   0  0  0  0  0  1  0  0  0  0  0  0
  186.3560  174.4790  136.4410 N   0  0  0  0  0  0  0  0  0  0  0  0
  184.5380  175.4400  137.3770 C   0  0  2  0  0  3  0  0  0  0  0  0
  184.4280  178.7550  143.0810 C   0  0  0  0  0  2  0  0  0  0  0  0
  185.9020  178.3830  143.1300 C   0  0  0  0  0  2  0  0  0  0  0  0
  186.2430  177.7400  144.4630 C   0  0  0  0  0  2  0  0  0  0  0  0
  188.5520  177.3790  145.3360 O   0  0  0  0  0  1  0  0  0  0  0  0
  187.8020  176.2070  143.5140 O   0  0  0  0  0  0  0  0  0  0  0  0
  187.5740  177.0710  144.4000 C   0  0  0  0  0  0  0  0  0  0  0  0
  3  4  2  0  0  0  0
  3 13  1  0  0  0  0
  4 26  1  0  0  0  0
  5  1  1  0  0  0  0
  6  4  1  0  0  0  0
  7  1  1  6  0  0  0
  7  3  1  0  0  0  0
  8 11  1  0  0  0  0
  8 10  1  0  0  0  0
  9  5  1  0  0  0  0
  9 11  1  0  0  0  0
 10  6  1  0  0  0  0
 11  2  1  1  0  0  0
 11  7  1  0  0  0  0
 12 13  1  0  0  0  0
 14 15  1  1  0  0  0
 14  5  1  0  0  0  0
 14 19  1  0  0  0  0
 15 16  1  0  0  0  0
 16 18  1  0  0  0  0
 18 17  1  0  0  0  0
 20 25  1  0  0  0  0
 21 25  1  0  0  0  0
 21 23  1  0  0  0  0
 22 24  1  0  0  0  0
 22 20  2  0  0  0  0
 24 21  2  0  0  0  0
 25 19  1  6  0  0  0
 26 27  1  0  0  0  0
 27 28  1  0  0  0  0
 30 31  2  0  0  0  0
 31 28  1  0  0  0  0
 31 29  1  0  0  0  0
M  END
>  <MODEL>
1

>  <REMARK>
 VINA RESULT:      -5.6      0.000      0.000
  Name = 
  11 active torsions:
  status: ('A' for Active; 'I' for Inactive)
    1  A    between atoms: C_7  and  C_10
    2  A    between atoms: C_7  and  C_31
    3  A    between atoms: C_8  and  C_18
    4  A    between atoms: C_8  and  C_19
    5  A    between atoms: C_9  and  C_13
    6  A    between atoms: C_10  and  C_26
    7  A    between atoms: C_12  and  C_26
    8  A    between atoms: C_15  and  N_16
    9  A    between atoms: C_15  and  C_19
   10  A    between atoms: C_15  and  C_22
   11  A    between atoms: C_22  and  C_29
                            x       y       z     vdW  Elec       q    Type
                         _______ _______ _______ _____ _____    ______ ____

>  <TORSDO>
F 11

$$$$
=
 OpenBabel11062415013D

 31 33  0  0  1  0  0  0  0  0999 V2000
  185.0580  178.0020  139.0430 C   0  0  0  0  0  2  0  0  0  0  0  0
  181.7200  178.8980  137.7190 C   0  0  0  0  0  1  0  0  0  0  0  0
  184.1770  176.7810  136.9810 C   0  0  0  0  0  0  0  0  0  0  0  0
  183.7030  175.5290  137.2010 C   0  0  0  0  0  0  0  0  0  0  0  0
  184.5750  179.0140  139.9780 N   0  0  0  0  0  0  0  0  0  0  0  0
  182.9170  175.2000  138.4260 C   0  0  0  0  0  2  0  0  0  0  0  0
  184.0190  177.9280  137.9580 C   0  0  1  0  0  3  0  0  0  0  0  0
  182.0510  177.0060  139.3430 C   0  0  0  0  0  2  0  0  0  0  0  0
  183.1270  179.1710  139.7570 C   0  0  0  0  0  2  0  0  0  0  0  0
  181.7620  175.9820  138.4400 O   0  0  0  0  0  0  0  0  0  0  0  0
  182.6980  178.2160  138.6560 C   0  0  2  0  0  0  0  0  0  0  0  0
  186.4010  177.0020  135.8980 C   0  0  0  0  0  1  0  0  0  0  0  0
  184.9000  177.1200  135.7090 C   0  0  0  0  0  2  0  0  0  0  0  0
  184.8850  178.5970  141.3560 C   0  0  2  0  0  3  0  0  0  0  0  0
  183.7100  178.7640  142.3220 C   0  0  0  0  0  2  0  0  0  0  0  0
  184.1650  179.4360  143.6050 C   0  0  0  0  0  2  0  0  0  0  0  0
  184.1680  178.8710  145.9730 N   0  0  0  0  0  1  0  0  0  0  0  0
  183.3420  178.9410  144.7790 C   0  0  0  0  0  2  0  0  0  0  0  0
  186.1230  179.3230  141.8780 C   0  0  0  0  0  2  0  0  0  0  0  0
  188.1750  178.3600  140.8380 C   0  0  0  0  0  3  0  0  0  0  0  0
  187.6950  177.4510  142.8340 C   0  0  0  0  0  0  0  0  0  0  0  0
  189.1880  177.3080  141.1810 C   0  0  0  0  0  3  0  0  0  0  0  0
  186.9770  177.1920  144.1120 C   0  0  0  0  0  1  0  0  0  0  0  0
  188.7510  176.8060  142.4810 N   0  0  0  0  0  0  0  0  0  0  0  0
  187.3170  178.4290  141.8390 C   0  0  2  0  0  3  0  0  0  0  0  0
  183.9100  174.4170  136.2160 C   0  0  0  0  0  2  0  0  0  0  0  0
  184.3370  173.1430  136.9300 C   0  0  0  0  0  2  0  0  0  0  0  0
  185.7510  173.2840  137.4660 C   0  0  0  0  0  2  0  0  0  0  0  0
  188.0680  172.5350  136.9220 O   0  0  0  0  0  1  0  0  0  0  0  0
  186.2880  171.8000  135.6780 O   0  0  0  0  0  0  0  0  0  0  0  0
  186.7110  172.5060  136.6310 C   0  0  0  0  0  0  0  0  0  0  0  0
  1  5  1  0  0  0  0
  3  4  2  0  0  0  0
  3  7  1  0  0  0  0
  4  6  1  0  0  0  0
  5 14  1  0  0  0  0
  6 10  1  0  0  0  0
  7 11  1  0  0  0  0
  7  1  1  1  0  0  0
  9  5  1  0  0  0  0
 10  8  1  0  0  0  0
 11  2  1  6  0  0  0
 11  8  1  0  0  0  0
 11  9  1  0  0  0  0
 13 12  1  0  0  0  0
 13  3  1  0  0  0  0
 14 19  1  1  0  0  0
 14 15  1  0  0  0  0
 15 16  1  0  0  0  0
 16 18  1  0  0  0  0
 18 17  1  0  0  0  0
 20 22  2  0  0  0  0
 20 25  1  0  0  0  0
 21 23  1  0  0  0  0
 22 24  1  0  0  0  0
 24 21  2  0  0  0  0
 25 19  1  6  0  0  0
 25 21  1  0  0  0  0
 26 27  1  0  0  0  0
 26  4  1  0  0  0  0
 27 28  1  0  0  0  0
 30 31  2  0  0  0  0
 31 29  1  0  0  0  0
 31 28  1  0  0  0  0
M  END
>  <MODEL>
2

>  <REMARK>
 VINA RESULT:      -5.4      3.406      6.684
  Name = 
  11 active torsions:
  status: ('A' for Active; 'I' for Inactive)
    1  A    between atoms: C_7  and  C_10
    2  A    between atoms: C_7  and  C_31
    3  A    between atoms: C_8  and  C_18
    4  A    between atoms: C_8  and  C_19
    5  A    between atoms: C_9  and  C_13
    6  A    between atoms: C_10  and  C_26
    7  A    between atoms: C_12  and  C_26
    8  A    between atoms: C_15  and  N_16
    9  A    between atoms: C_15  and  C_19
   10  A    between atoms: C_15  and  C_22
   11  A    between atoms: C_22  and  C_29
                            x       y       z     vdW  Elec       q    Type
                         _______ _______ _______ _____ _____    ______ ____

>  <TORSDO>
F 11

$$$$
=
 OpenBabel11062415013D

 31 33  0  0  1  0  0  0  0  0999 V2000
  185.1380  178.0100  139.2320 C   0  0  0  0  0  2  0  0  0  0  0  0
  181.8940  178.9090  137.6940 C   0  0  0  0  0  1  0  0  0  0  0  0
  184.4250  176.8410  137.0770 C   0  0  0  0  0  0  0  0  0  0  0  0
  183.9520  175.5780  137.2240 C   0  0  0  0  0  0  0  0  0  0  0  0
  184.5750  178.9880  140.1590 N   0  0  0  0  0  0  0  0  0  0  0  0
  183.0830  175.2050  138.3780 C   0  0  0  0  0  2  0  0  0  0  0  0
  184.1810  177.9570  138.0730 C   0  0  1  0  0  3  0  0  0  0  0  0
  182.1290  176.9730  139.2820 C   0  0  0  0  0  2  0  0  0  0  0  0
  183.1440  179.1360  139.8360 C   0  0  0  0  0  2  0  0  0  0  0  0
  181.9200  175.9740  138.3310 O   0  0  0  0  0  0  0  0  0  0  0  0
  182.8090  178.2090  138.6800 C   0  0  2  0  0  0  0  0  0  0  0  0
  186.7160  177.2320  136.2000 C   0  0  0  0  0  1  0  0  0  0  0  0
  185.2350  177.2260  135.8720 C   0  0  0  0  0  2  0  0  0  0  0  0
  184.7880  178.5330  141.5430 C   0  0  2  0  0  3  0  0  0  0  0  0
  183.5940  178.7970  142.4630 C   0  0  0  0  0  2  0  0  0  0  0  0
  184.0420  179.5020  143.7300 C   0  0  0  0  0  2  0  0  0  0  0  0
  184.3200  178.8730  146.0650 N   0  0  0  0  0  1  0  0  0  0  0  0
  183.3950  178.8640  144.9440 C   0  0  0  0  0  2  0  0  0  0  0  0
  186.0640  179.1400  142.1240 C   0  0  0  0  0  2  0  0  0  0  0  0
  187.0890  177.3160  143.4820 C   0  0  0  0  0  3  0  0  0  0  0  0
  188.2320  177.7560  141.6000 C   0  0  0  0  0  0  0  0  0  0  0  0
  188.2930  176.4260  143.3920 C   0  0  0  0  0  2  0  0  0  0  0  0
  188.5990  178.4010  140.3090 C   0  0  0  0  0  1  0  0  0  0  0  0
  188.9340  176.8230  142.1410 N   0  0  0  0  0  0  0  0  0  0  0  0
  187.0750  178.0790  142.4040 C   0  0  0  0  0  0  0  0  0  0  0  0
  184.2450  174.4990  136.2250 C   0  0  0  0  0  2  0  0  0  0  0  0
  184.8040  173.2660  136.9190 C   0  0  0  0  0  2  0  0  0  0  0  0
  184.6280  172.0380  136.0420 C   0  0  0  0  0  2  0  0  0  0  0  0
  182.4490  171.7390  137.2210 O   0  0  0  0  0  1  0  0  0  0  0  0
  183.5760  169.9270  136.3840 O   0  0  0  0  0  0  0  0  0  0  0  0
  183.5320  171.1710  136.5640 C   0  0  0  0  0  0  0  0  0  0  0  0
  1  5  1  0  0  0  0
  3  4  2  0  0  0  0
  3  7  1  0  0  0  0
  4  6  1  0  0  0  0
  5 14  1  0  0  0  0
  7 11  1  0  0  0  0
  7  1  1  1  0  0  0
  9  5  1  0  0  0  0
 10  6  1  0  0  0  0
 10  8  1  0  0  0  0
 11  2  1  6  0  0  0
 11  8  1  0  0  0  0
 11  9  1  0  0  0  0
 13 12  1  0  0  0  0
 13  3  1  0  0  0  0
 14 19  1  1  0  0  0
 14 15  1  0  0  0  0
 15 16  1  0  0  0  0
 16 18  1  0  0  0  0
 18 17  1  0  0  0  0
 19 25  1  0  0  0  0
 21 24  2  0  0  0  0
 21 25  1  0  0  0  0
 22 20  1  0  0  0  0
 23 21  1  0  0  0  0
 24 22  1  0  0  0  0
 25 20  2  0  0  0  0
 26 27  1  0  0  0  0
 26  4  1  0  0  0  0
 28 31  1  0  0  0  0
 28 27  1  0  0  0  0
 30 31  2  0  0  0  0
 31 29  1  0  0  0  0
M  END
>  <MODEL>
3

>  <REMARK>
 VINA RESULT:      -5.4      3.615      7.052
  Name = 
  11 active torsions:
  status: ('A' for Active; 'I' for Inactive)
    1  A    between atoms: C_7  and  C_10
    2  A    between atoms: C_7  and  C_31
    3  A    between atoms: C_8  and  C_18
    4  A    between atoms: C_8  and  C_19
    5  A    between atoms: C_9  and  C_13
    6  A    between atoms: C_10  and  C_26
    7  A    between atoms: C_12  and  C_26
    8  A    between atoms: C_15  and  N_16
    9  A    between atoms: C_15  and  C_19
   10  A    between atoms: C_15  and  C_22
   11  A    between atoms: C_22  and  C_29
                            x       y       z     vdW  Elec       q    Type
                         _______ _______ _______ _____ _____    ______ ____

>  <TORSDO>
F 11

$$$$
=
 OpenBabel11062415013D

 31 33  0  0  1  0  0  0  0  0999 V2000
  189.1500  177.4010  140.0750 C   0  0  0  0  0  2  0  0  0  0  0  0
  191.3280  178.6080  142.8130 C   0  0  0  0  0  1  0  0  0  0  0  0
  188.1030  177.9510  142.3380 C   0  0  0  0  0  0  0  0  0  0  0  0
  187.7950  176.8840  143.1170 C   0  0  0  0  0  0  0  0  0  0  0  0
  190.4880  177.3700  139.4920 N   0  0  0  0  0  0  0  0  0  0  0  0
  188.6900  175.6920  143.1880 C   0  0  0  0  0  2  0  0  0  0  0  0
  189.3190  178.0180  141.4360 C   0  0  1  0  0  3  0  0  0  0  0  0
  190.7400  176.1770  142.5460 C   0  0  0  0  0  2  0  0  0  0  0  0
  191.4580  177.4800  140.5960 C   0  0  0  0  0  2  0  0  0  0  0  0
  189.9320  176.0930  143.6790 O   0  0  0  0  0  0  0  0  0  0  0  0
  190.6950  177.5710  141.9060 C   0  0  2  0  0  0  0  0  0  0  0  0
  186.0670  179.0040  141.3790 C   0  0  0  0  0  1  0  0  0  0  0  0
  187.2350  179.1780  142.3320 C   0  0  0  0  0  2  0  0  0  0  0  0
  190.6600  176.1250  138.7230 C   0  0  2  0  0  3  0  0  0  0  0  0
  192.1240  175.7180  138.5410 C   0  0  0  0  0  2  0  0  0  0  0  0
  192.7170  176.3950  137.3180 C   0  0  0  0  0  2  0  0  0  0  0  0
  194.7980  176.5080  136.0600 N   0  0  0  0  0  1  0  0  0  0  0  0
  193.9340  175.6310  136.8330 C   0  0  0  0  0  2  0  0  0  0  0  0
  189.9510  176.2180  137.3740 C   0  0  0  0  0  2  0  0  0  0  0  0
  189.3630  173.8220  137.0020 C   0  0  0  0  0  3  0  0  0  0  0  0
  187.5620  175.1580  137.1280 C   0  0  0  0  0  0  0  0  0  0  0  0
  188.1100  173.0160  136.8200 C   0  0  0  0  0  3  0  0  0  0  0  0
  186.7540  176.4000  137.2750 C   0  0  0  0  0  1  0  0  0  0  0  0
  187.0380  174.0020  136.9160 N   0  0  0  0  0  0  0  0  0  0  0  0
  189.0040  175.0790  137.1950 C   0  0  2  0  0  3  0  0  0  0  0  0
  186.5630  176.8520  143.9710 C   0  0  0  0  0  2  0  0  0  0  0  0
  186.9170  177.1020  145.4290 C   0  0  0  0  0  2  0  0  0  0  0  0
  186.6280  178.5450  145.8050 C   0  0  0  0  0  2  0  0  0  0  0  0
  184.4130  178.3580  146.9400 O   0  0  0  0  0  1  0  0  0  0  0  0
  184.5970  179.4210  144.9170 O   0  0  0  0  0  0  0  0  0  0  0  0
  185.1580  178.7930  145.8510 C   0  0  0  0  0  0  0  0  0  0  0  0
  3  4  2  0  0  0  0
  4  6  1  0  0  0  0
  4 26  1  0  0  0  0
  5  1  1  0  0  0  0
  5  9  1  0  0  0  0
  6 10  1  0  0  0  0
  7  1  1  6  0  0  0
  7 11  1  0  0  0  0
  7  3  1  0  0  0  0
  8 10  1  0  0  0  0
  9 11  1  0  0  0  0
 11  8  1  0  0  0  0
 11  2  1  1  0  0  0
 12 13  1  0  0  0  0
 13  3  1  0  0  0  0
 14 19  1  6  0  0  0
 14  5  1  0  0  0  0
 15 14  1  0  0  0  0
 16 15  1  0  0  0  0
 17 18  1  0  0  0  0
 18 16  1  0  0  0  0
 20 25  1  0  0  0  0
 21 25  1  0  0  0  0
 21 23  1  0  0  0  0
 22 24  1  0  0  0  0
 22 20  2  0  0  0  0
 24 21  2  0  0  0  0
 25 19  1  6  0  0  0
 26 27  1  0  0  0  0
 27 28  1  0  0  0  0
 28 31  1  0  0  0  0
 30 31  2  0  0  0  0
 31 29  1  0  0  0  0
M  END
>  <MODEL>
4

>  <REMARK>
 VINA RESULT:      -5.4      4.169      7.463
  Name = 
  11 active torsions:
  status: ('A' for Active; 'I' for Inactive)
    1  A    between atoms: C_7  and  C_10
    2  A    between atoms: C_7  and  C_31
    3  A    between atoms: C_8  and  C_18
    4  A    between atoms: C_8  and  C_19
    5  A    between atoms: C_9  and  C_13
    6  A    between atoms: C_10  and  C_26
    7  A    between atoms: C_12  and  C_26
    8  A    between atoms: C_15  and  N_16
    9  A    between atoms: C_15  and  C_19
   10  A    between atoms: C_15  and  C_22
   11  A    between atoms: C_22  and  C_29
                            x       y       z     vdW  Elec       q    Type
                         _______ _______ _______ _____ _____    ______ ____

>  <TORSDO>
F 11

$$$$
=
 OpenBabel11062415013D

 31 33  0  0  1  0  0  0  0  0999 V2000
  189.7350  176.4580  139.4810 C   0  0  0  0  0  2  0  0  0  0  0  0
  189.3130  178.5510  136.4570 C   0  0  0  0  0  1  0  0  0  0  0  0
  189.6180  175.3230  137.1970 C   0  0  0  0  0  0  0  0  0  0  0  0
  188.4340  174.7320  136.8970 C   0  0  0  0  0  0  0  0  0  0  0  0
  189.6270  177.8150  140.0110 N   0  0  0  0  0  0  0  0  0  0  0  0
  187.1350  175.3590  137.2780 C   0  0  0  0  0  2  0  0  0  0  0  0
  189.7450  176.6110  137.9850 C   0  0  1  0  0  3  0  0  0  0  0  0
  187.3550  177.5180  137.6520 C   0  0  0  0  0  2  0  0  0  0  0  0
  189.0980  178.6730  138.9360 C   0  0  0  0  0  2  0  0  0  0  0  0
  187.0360  176.6010  136.6520 O   0  0  0  0  0  0  0  0  0  0  0  0
  188.8600  177.8160  137.7040 C   0  0  2  0  0  0  0  0  0  0  0  0
  191.7460  175.7450  135.9870 C   0  0  0  0  0  1  0  0  0  0  0  0
  190.9170  174.7220  136.7420 C   0  0  0  0  0  2  0  0  0  0  0  0
  188.7560  177.8110  141.1980 C   0  0  2  0  0  3  0  0  0  0  0  0
  187.3430  178.3280  140.9200 C   0  0  0  0  0  2  0  0  0  0  0  0
  186.5410  178.4090  142.2070 C   0  0  0  0  0  2  0  0  0  0  0  0
  185.1120  179.4990  140.5650 N   0  0  0  0  0  1  0  0  0  0  0  0
  185.2470  179.1630  141.9730 C   0  0  0  0  0  2  0  0  0  0  0  0
  189.4000  178.5840  142.3470 C   0  0  0  0  0  2  0  0  0  0  0  0
  191.2200  176.9760  142.9110 C   0  0  0  0  0  3  0  0  0  0  0  0
  189.7900  177.3120  144.6090 C   0  0  0  0  0  0  0  0  0  0  0  0
  191.6200  176.1430  144.0940 C   0  0  0  0  0  2  0  0  0  0  0  0
  188.6280  177.8510  145.3680 C   0  0  0  0  0  1  0  0  0  0  0  0
  190.6120  176.4530  145.1030 N   0  0  0  0  0  0  0  0  0  0  0  0
  190.1460  177.6630  143.2530 C   0  0  0  0  0  0  0  0  0  0  0  0
  188.3600  173.4390  136.1400 C   0  0  0  0  0  2  0  0  0  0  0  0
  187.4980  172.4320  136.8850 C   0  0  0  0  0  2  0  0  0  0  0  0
  186.2960  172.0380  136.0440 C   0  0  0  0  0  2  0  0  0  0  0  0
  183.8410  171.6920  136.3250 O   0  0  0  0  0  0  0  0  0  0  0  0
  185.0530  172.7760  137.9400 O   0  0  0  0  0  1  0  0  0  0  0  0
  185.0340  172.2010  136.8210 C   0  0  0  0  0  0  0  0  0  0  0  0
  1  5  1  0  0  0  0
  3  7  1  0  0  0  0
  4  3  2  0  0  0  0
  4  6  1  0  0  0  0
  5 14  1  0  0  0  0
  7  1  1  1  0  0  0
  8 11  1  0  0  0  0
  9  5  1  0  0  0  0
 10  6  1  0  0  0  0
 10  8  1  0  0  0  0
 11  2  1  6  0  0  0
 11  7  1  0  0  0  0
 11  9  1  0  0  0  0
 12 13  1  0  0  0  0
 13  3  1  0  0  0  0
 14 15  1  6  0  0  0
 14 19  1  0  0  0  0
 15 16  1  0  0  0  0
 17 18  1  0  0  0  0
 18 16  1  0  0  0  0
 19 25  1  0  0  0  0
 20 25  2  0  0  0  0
 20 22  1  0  0  0  0
 21 24  2  0  0  0  0
 21 23  1  0  0  0  0
 22 24  1  0  0  0  0
 25 21  1  0  0  0  0
 26 27  1  0  0  0  0
 26  4  1  0  0  0  0
 28 31  1  0  0  0  0
 28 27  1  0  0  0  0
 29 31  2  0  0  0  0
 31 30  1  0  0  0  0
M  END
>  <MODEL>
5

>  <REMARK>
 VINA RESULT:      -5.3      4.327      8.681
  Name = 
  11 active torsions:
  status: ('A' for Active; 'I' for Inactive)
    1  A    between atoms: C_7  and  C_10
    2  A    between atoms: C_7  and  C_31
    3  A    between atoms: C_8  and  C_18
    4  A    between atoms: C_8  and  C_19
    5  A    between atoms: C_9  and  C_13
    6  A    between atoms: C_10  and  C_26
    7  A    between atoms: C_12  and  C_26
    8  A    between atoms: C_15  and  N_16
    9  A    between atoms: C_15  and  C_19
   10  A    between atoms: C_15  and  C_22
   11  A    between atoms: C_22  and  C_29
                            x       y       z     vdW  Elec       q    Type
                         _______ _______ _______ _____ _____    ______ ____

>  <TORSDO>
F 11

$$$$
=
 OpenBabel11062415013D

 31 33  0  0  1  0  0  0  0  0999 V2000
  183.8970  179.4430  139.6820 C   0  0  0  0  0  2  0  0  0  0  0  0
  180.6310  177.9440  140.5670 C   0  0  0  0  0  1  0  0  0  0  0  0
  182.3340  178.6890  137.8090 C   0  0  0  0  0  0  0  0  0  0  0  0
  182.6590  177.5150  137.2120 C   0  0  0  0  0  0  0  0  0  0  0  0
  183.9140  179.4140  141.1420 N   0  0  0  0  0  0  0  0  0  0  0  0
  183.1850  176.3630  138.0010 C   0  0  0  0  0  2  0  0  0  0  0  0
  182.5260  178.9690  139.2860 C   0  0  1  0  0  3  0  0  0  0  0  0
  182.6730  176.5400  140.1360 C   0  0  0  0  0  2  0  0  0  0  0  0
  182.8330  178.5140  141.5830 C   0  0  0  0  0  2  0  0  0  0  0  0
  182.2240  175.9850  138.9380 O   0  0  0  0  0  0  0  0  0  0  0  0
  182.1330  177.9590  140.3540 C   0  0  2  0  0  0  0  0  0  0  0  0
  180.2490  179.9470  137.3120 C   0  0  0  0  0  1  0  0  0  0  0  0
  181.7330  179.8170  137.0190 C   0  0  0  0  0  2  0  0  0  0  0  0
  185.2360  178.9650  141.6100 C   0  0  2  0  0  3  0  0  0  0  0  0
  186.2020  178.6240  140.4730 C   0  0  0  0  0  2  0  0  0  0  0  0
  187.6340  178.6050  140.9780 C   0  0  0  0  0  2  0  0  0  0  0  0
  188.7770  178.8710  138.8460 N   0  0  0  0  0  1  0  0  0  0  0  0
  188.5440  177.9580  139.9520 C   0  0  0  0  0  2  0  0  0  0  0  0
  185.1000  177.7910  142.5760 C   0  0  0  0  0  2  0  0  0  0  0  0
  184.8350  179.0300  144.7250 C   0  0  0  0  0  3  0  0  0  0  0  0
  186.7100  177.7960  144.6490 C   0  0  0  0  0  0  0  0  0  0  0  0
  185.6100  179.1920  146.0000 C   0  0  0  0  0  2  0  0  0  0  0  0
  187.7510  176.8720  144.1220 C   0  0  0  0  0  1  0  0  0  0  0  0
  186.7880  178.3520  145.8070 N   0  0  0  0  0  0  0  0  0  0  0  0
  185.5050  178.1900  143.9560 C   0  0  0  0  0  0  0  0  0  0  0  0
  182.4780  177.2960  135.7400 C   0  0  0  0  0  2  0  0  0  0  0  0
  183.5890  176.4150  135.1900 C   0  0  0  0  0  2  0  0  0  0  0  0
  184.7260  177.2670  134.6540 C   0  0  0  0  0  2  0  0  0  0  0  0
  186.9490  176.1990  135.0270 O   0  0  0  0  0  0  0  0  0  0  0  0
  186.1200  177.7130  136.5350 O   0  0  0  0  0  1  0  0  0  0  0  0
  185.9610  177.0700  135.4660 C   0  0  0  0  0  0  0  0  0  0  0  0
  1  5  1  0  0  0  0
  3  7  1  0  0  0  0
  4  3  2  0  0  0  0
  4  6  1  0  0  0  0
  5  9  1  0  0  0  0
  5 14  1  0  0  0  0
  6 10  1  0  0  0  0
  7  1  1  6  0  0  0
  7 11  1  0  0  0  0
  8 11  1  0  0  0  0
 10  8  1  0  0  0  0
 11  2  1  1  0  0  0
 11  9  1  0  0  0  0
 13 12  1  0  0  0  0
 13  3  1  0  0  0  0
 14 15  1  6  0  0  0
 14 19  1  0  0  0  0
 15 16  1  0  0  0  0
 17 18  1  0  0  0  0
 18 16  1  0  0  0  0
 19 25  1  0  0  0  0
 20 22  1  0  0  0  0
 21 24  2  0  0  0  0
 23 21  1  0  0  0  0
 24 22  1  0  0  0  0
 25 21  1  0  0  0  0
 25 20  2  0  0  0  0
 26  4  1  0  0  0  0
 27 26  1  0  0  0  0
 28 27  1  0  0  0  0
 28 31  1  0  0  0  0
 29 31  2  0  0  0  0
 31 30  1  0  0  0  0
M  END
>  <MODEL>
6

>  <REMARK>
 VINA RESULT:      -5.3      3.313      7.044
  Name = 
  11 active torsions:
  status: ('A' for Active; 'I' for Inactive)
    1  A    between atoms: C_7  and  C_10
    2  A    between atoms: C_7  and  C_31
    3  A    between atoms: C_8  and  C_18
    4  A    between atoms: C_8  and  C_19
    5  A    between atoms: C_9  and  C_13
    6  A    between atoms: C_10  and  C_26
    7  A    between atoms: C_12  and  C_26
    8  A    between atoms: C_15  and  N_16
    9  A    between atoms: C_15  and  C_19
   10  A    between atoms: C_15  and  C_22
   11  A    between atoms: C_22  and  C_29
                            x       y       z     vdW  Elec       q    Type
                         _______ _______ _______ _____ _____    ______ ____

>  <TORSDO>
F 11

$$$$
=
 OpenBabel11062415013D

 31 33  0  0  1  0  0  0  0  0999 V2000
  182.5800  176.7400  139.7850 C   0  0  0  0  0  2  0  0  0  0  0  0
  182.3580  180.2850  138.7450 C   0  0  0  0  0  1  0  0  0  0  0  0
  182.9010  178.5670  141.5400 C   0  0  0  0  0  0  0  0  0  0  0  0
  184.1850  178.8040  141.9110 C   0  0  0  0  0  0  0  0  0  0  0  0
  182.3610  176.6650  138.3430 N   0  0  0  0  0  0  0  0  0  0  0  0
  185.2960  178.7810  140.9160 C   0  0  0  0  0  2  0  0  0  0  0  0
  182.4810  178.2000  140.1310 C   0  0  1  0  0  3  0  0  0  0  0  0
  184.5520  179.0610  138.8620 C   0  0  0  0  0  2  0  0  0  0  0  0
  182.6200  178.0030  137.7830 C   0  0  0  0  0  2  0  0  0  0  0  0
  185.0580  179.7630  139.9550 O   0  0  0  0  0  0  0  0  0  0  0  0
  183.0240  178.9330  138.9140 C   0  0  2  0  0  0  0  0  0  0  0  0
  180.4380  178.7210  141.8280 C   0  0  0  0  0  1  0  0  0  0  0  0
  181.7800  178.6670  142.5350 C   0  0  0  0  0  2  0  0  0  0  0  0
  183.2450  175.6390  137.7650 C   0  0  2  0  0  3  0  0  0  0  0  0
  184.6550  176.1500  137.4610 C   0  0  0  0  0  2  0  0  0  0  0  0
  185.0370  175.8400  136.0240 C   0  0  0  0  0  2  0  0  0  0  0  0
  187.1770  175.5870  137.1550 N   0  0  0  0  0  1  0  0  0  0  0  0
  186.5460  175.8370  135.8700 C   0  0  0  0  0  2  0  0  0  0  0  0
  182.6140  175.0170  136.5210 C   0  0  0  0  0  2  0  0  0  0  0  0
  180.7320  173.5460  137.2410 C   0  0  0  0  0  3  0  0  0  0  0  0
  182.6350  172.4150  136.8620 C   0  0  0  0  0  0  0  0  0  0  0  0
  180.5240  172.0850  137.5100 C   0  0  0  0  0  2  0  0  0  0  0  0
  184.0560  172.1560  136.5050 C   0  0  0  0  0  1  0  0  0  0  0  0
  181.8260  171.4850  137.2350 N   0  0  0  0  0  0  0  0  0  0  0  0
  181.9830  173.7050  136.8480 C   0  0  0  0  0  0  0  0  0  0  0  0
  184.5550  179.1340  143.3260 C   0  0  0  0  0  2  0  0  0  0  0  0
  185.6080  178.1650  143.8420 C   0  0  0  0  0  2  0  0  0  0  0  0
  185.8360  178.3730  145.3300 C   0  0  0  0  0  2  0  0  0  0  0  0
  188.2150  177.8310  144.8070 O   0  0  0  0  0  0  0  0  0  0  0  0
  187.3850  177.5030  146.9190 O   0  0  0  0  0  1  0  0  0  0  0  0
  187.1800  177.8690  145.7330 C   0  0  0  0  0  0  0  0  0  0  0  0
  3  4  2  0  0  0  0
  3 13  1  0  0  0  0
  4 26  1  0  0  0  0
  5  1  1  0  0  0  0
  6  4  1  0  0  0  0
  7  1  1  6  0  0  0
  7  3  1  0  0  0  0
  8 11  1  0  0  0  0
  8 10  1  0  0  0  0
  9  5  1  0  0  0  0
  9 11  1  0  0  0  0
 10  6  1  0  0  0  0
 11  2  1  6  0  0  0
 11  7  1  0  0  0  0
 12 13  1  0  0  0  0
 14 19  1  6  0  0  0
 14  5  1  0  0  0  0
 15 14  1  0  0  0  0
 16 15  1  0  0  0  0
 18 16  1  0  0  0  0
 18 17  1  0  0  0  0
 19 25  1  0  0  0  0
 20 22  1  0  0  0  0
 21 24  2  0  0  0  0
 23 21  1  0  0  0  0
 24 22  1  0  0  0  0
 25 21  1  0  0  0  0
 25 20  2  0  0  0  0
 26 27  1  0  0  0  0
 27 28  1  0  0  0  0
 28 31  1  0  0  0  0
 29 31  2  0  0  0  0
 31 30  1  0  0  0  0
M  END
>  <MODEL>
7

>  <REMARK>
 VINA RESULT:      -5.2      1.264      3.170
  Name = 
  11 active torsions:
  status: ('A' for Active; 'I' for Inactive)
    1  A    between atoms: C_7  and  C_10
    2  A    between atoms: C_7  and  C_31
    3  A    between atoms: C_8  and  C_18
    4  A    between atoms: C_8  and  C_19
    5  A    between atoms: C_9  and  C_13
    6  A    between atoms: C_10  and  C_26
    7  A    between atoms: C_12  and  C_26
    8  A    between atoms: C_15  and  N_16
    9  A    between atoms: C_15  and  C_19
   10  A    between atoms: C_15  and  C_22
   11  A    between atoms: C_22  and  C_29
                            x       y       z     vdW  Elec       q    Type
                         _______ _______ _______ _____ _____    ______ ____

>  <TORSDO>
F 11

$$$$
=
 OpenBabel11062415013D

 31 33  0  0  1  0  0  0  0  0999 V2000
  182.0220  178.0240  140.5450 C   0  0  0  0  0  2  0  0  0  0  0  0
  184.9610  178.0870  138.2960 C   0  0  0  0  0  1  0  0  0  0  0  0
  181.7210  178.8200  138.1380 C   0  0  0  0  0  0  0  0  0  0  0  0
  181.6230  180.1630  137.9730 C   0  0  0  0  0  0  0  0  0  0  0  0
  183.1220  177.5890  141.4020 N   0  0  0  0  0  0  0  0  0  0  0  0
  182.4570  181.1060  138.7740 C   0  0  0  0  0  2  0  0  0  0  0  0
  182.6120  178.1560  139.1690 C   0  0  1  0  0  3  0  0  0  0  0  0
  184.2360  180.1090  139.6060 C   0  0  0  0  0  2  0  0  0  0  0  0
  184.3820  177.9250  140.7140 C   0  0  0  0  0  2  0  0  0  0  0  0
  183.8020  180.8510  138.5080 O   0  0  0  0  0  0  0  0  0  0  0  0
  184.0490  178.6010  139.3950 C   0  0  2  0  0  0  0  0  0  0  0  0
  181.8120  177.2840  136.1870 C   0  0  0  0  0  1  0  0  0  0  0  0
  180.9330  177.8770  137.2730 C   0  0  0  0  0  2  0  0  0  0  0  0
  183.0130  178.2470  142.7140 C   0  0  2  0  0  3  0  0  0  0  0  0
  181.7620  179.1170  142.8590 C   0  0  0  0  0  2  0  0  0  0  0  0
  180.9350  178.6670  144.0500 C   0  0  0  0  0  2  0  0  0  0  0  0
  179.0370  178.2680  142.5800 N   0  0  0  0  0  1  0  0  0  0  0  0
  179.4640  178.9340  143.7990 C   0  0  0  0  0  2  0  0  0  0  0  0
  184.2730  179.0530  143.0240 C   0  0  0  0  0  2  0  0  0  0  0  0
  184.3490  178.8990  145.5120 C   0  0  0  0  0  3  0  0  0  0  0  0
  186.1170  177.9350  144.5190 C   0  0  0  0  0  0  0  0  0  0  0  0
  185.2800  178.3410  146.5480 C   0  0  0  0  0  2  0  0  0  0  0  0
  187.0260  177.4690  143.4360 C   0  0  0  0  0  1  0  0  0  0  0  0
  186.3710  177.7610  145.7690 N   0  0  0  0  0  0  0  0  0  0  0  0
  184.8660  178.6310  144.3260 C   0  0  0  0  0  0  0  0  0  0  0  0
  180.7030  180.7740  136.9580 C   0  0  0  0  0  2  0  0  0  0  0  0
  180.3450  182.1990  137.3510 C   0  0  0  0  0  2  0  0  0  0  0  0
  180.7540  183.1690  136.2570 C   0  0  0  0  0  2  0  0  0  0  0  0
  180.2600  185.5630  136.7590 O   0  0  0  0  0  0  0  0  0  0  0  0
  182.2420  184.6220  137.4240 O   0  0  0  0  0  1  0  0  0  0  0  0
  181.1360  184.4890  136.8380 C   0  0  0  0  0  0  0  0  0  0  0  0
  1  5  1  0  0  0  0
  3  7  1  0  0  0  0
  4  3  2  0  0  0  0
  4  6  1  0  0  0  0
  5 14  1  0  0  0  0
  7 11  1  0  0  0  0
  7  1  1  1  0  0  0
  9  5  1  0  0  0  0
 10  6  1  0  0  0  0
 10  8  1  0  0  0  0
 11  2  1  6  0  0  0
 11  8  1  0  0  0  0
 11  9  1  0  0  0  0
 12 13  1  0  0  0  0
 13  3  1  0  0  0  0
 14 15  1  6  0  0  0
 14 19  1  0  0  0  0
 15 16  1  0  0  0  0
 17 18  1  0  0  0  0
 18 16  1  0  0  0  0
 19 25  1  0  0  0  0
 20 22  1  0  0  0  0
 21 24  2  0  0  0  0
 23 21  1  0  0  0  0
 24 22  1  0  0  0  0
 25 21  1  0  0  0  0
 25 20  2  0  0  0  0
 26 27  1  0  0  0  0
 26  4  1  0  0  0  0
 28 31  1  0  0  0  0
 28 27  1  0  0  0  0
 29 31  2  0  0  0  0
 31 30  1  0  0  0  0
M  END
>  <MODEL>
8

>  <REMARK>
 VINA RESULT:      -5.2      3.438      7.403
  Name = 
  11 active torsions:
  status: ('A' for Active; 'I' for Inactive)
    1  A    between atoms: C_7  and  C_10
    2  A    between atoms: C_7  and  C_31
    3  A    between atoms: C_8  and  C_18
    4  A    between atoms: C_8  and  C_19
    5  A    between atoms: C_9  and  C_13
    6  A    between atoms: C_10  and  C_26
    7  A    between atoms: C_12  and  C_26
    8  A    between atoms: C_15  and  N_16
    9  A    between atoms: C_15  and  C_19
   10  A    between atoms: C_15  and  C_22
   11  A    between atoms: C_22  and  C_29
                            x       y       z     vdW  Elec       q    Type
                         _______ _______ _______ _____ _____    ______ ____

>  <TORSDO>
F 11

$$$$
=
 OpenBabel11062415013D

 31 33  0  0  1  0  0  0  0  0999 V2000
  190.1590  177.0750  140.2470 C   0  0  0  0  0  2  0  0  0  0  0  0
  189.1950  178.9730  137.2190 C   0  0  0  0  0  1  0  0  0  0  0  0
  191.1990  176.4380  138.0040 C   0  0  0  0  0  0  0  0  0  0  0  0
  190.6870  175.3280  137.4150 C   0  0  0  0  0  0  0  0  0  0  0  0
  189.1640  178.0250  140.7360 N   0  0  0  0  0  0  0  0  0  0  0  0
  189.2260  175.0300  137.4600 C   0  0  0  0  0  2  0  0  0  0  0  0
  190.3760  177.4290  138.8010 C   0  0  1  0  0  3  0  0  0  0  0  0
  188.0420  176.8390  137.8820 C   0  0  0  0  0  2  0  0  0  0  0  0
  188.4580  178.5740  139.5650 C   0  0  0  0  0  2  0  0  0  0  0  0
  188.5370  176.0680  136.8310 O   0  0  0  0  0  0  0  0  0  0  0  0
  189.0270  177.9340  138.3110 C   0  0  2  0  0  0  0  0  0  0  0  0
  193.2520  177.0720  139.2510 C   0  0  0  0  0  1  0  0  0  0  0  0
  192.6600  176.7690  137.8870 C   0  0  0  0  0  2  0  0  0  0  0  0
  188.2490  177.3430  141.6670 C   0  0  2  0  0  3  0  0  0  0  0  0
  187.3980  178.3040  142.5000 C   0  0  0  0  0  2  0  0  0  0  0  0
  185.9840  177.7720  142.6470 C   0  0  0  0  0  2  0  0  0  0  0  0
  185.4410  179.4550  140.9750 N   0  0  0  0  0  1  0  0  0  0  0  0
  184.9800  178.8160  142.1950 C   0  0  0  0  0  2  0  0  0  0  0  0
  189.0140  176.3750  142.5680 C   0  0  0  0  0  2  0  0  0  0  0  0
  188.5690  177.0950  144.9140 C   0  0  0  0  0  3  0  0  0  0  0  0
  190.5870  177.7380  144.1660 C   0  0  0  0  0  0  0  0  0  0  0  0
  189.2900  177.8690  145.9780 C   0  0  0  0  0  2  0  0  0  0  0  0
  191.7410  177.9130  143.2430 C   0  0  0  0  0  1  0  0  0  0  0  0
  190.5630  178.2240  145.3580 N   0  0  0  0  0  0  0  0  0  0  0  0
  189.3670  177.0240  143.8640 C   0  0  0  0  0  0  0  0  0  0  0  0
  191.5480  174.3600  136.6600 C   0  0  0  0  0  2  0  0  0  0  0  0
  192.5600  173.7070  137.5900 C   0  0  0  0  0  2  0  0  0  0  0  0
  193.9020  173.5620  136.8950 C   0  0  0  0  0  2  0  0  0  0  0  0
  195.3130  172.7760  138.7980 O   0  0  0  0  0  1  0  0  0  0  0  0
  195.7170  174.8060  137.8120 O   0  0  0  0  0  0  0  0  0  0  0  0
  195.0210  173.7600  137.8620 C   0  0  0  0  0  0  0  0  0  0  0  0
  1  5  1  0  0  0  0
  3  7  1  0  0  0  0
  4  6  1  0  0  0  0
  4  3  2  0  0  0  0
  5 14  1  0  0  0  0
  7  1  1  1  0  0  0
  8 11  1  0  0  0  0
  9  5  1  0  0  0  0
 10  6  1  0  0  0  0
 10  8  1  0  0  0  0
 11  2  1  6  0  0  0
 11  7  1  0  0  0  0
 11  9  1  0  0  0  0
 13  3  1  0  0  0  0
 13 12  1  0  0  0  0
 14 15  1  1  0  0  0
 14 19  1  0  0  0  0
 15 16  1  0  0  0  0
 17 18  1  0  0  0  0
 18 16  1  0  0  0  0
 19 25  1  0  0  0  0
 20 22  1  0  0  0  0
 21 24  2  0  0  0  0
 23 21  1  0  0  0  0
 24 22  1  0  0  0  0
 25 21  1  0  0  0  0
 25 20  2  0  0  0  0
 26  4  1  0  0  0  0
 26 27  1  0  0  0  0
 28 27  1  0  0  0  0
 28 31  1  0  0  0  0
 30 31  2  0  0  0  0
 31 29  1  0  0  0  0
M  END
>  <MODEL>
9

>  <REMARK>
 VINA RESULT:      -5.1      5.543      9.076
  Name = 
  11 active torsions:
  status: ('A' for Active; 'I' for Inactive)
    1  A    between atoms: C_7  and  C_10
    2  A    between atoms: C_7  and  C_31
    3  A    between atoms: C_8  and  C_18
    4  A    between atoms: C_8  and  C_19
    5  A    between atoms: C_9  and  C_13
    6  A    between atoms: C_10  and  C_26
    7  A    between atoms: C_12  and  C_26
    8  A    between atoms: C_15  and  N_16
    9  A    between atoms: C_15  and  C_19
   10  A    between atoms: C_15  and  C_22
   11  A    between atoms: C_22  and  C_29
                            x       y       z     vdW  Elec       q    Type
                         _______ _______ _______ _____ _____    ______ ____

>  <TORSDO>
F 11

$$$$
