=
 OpenBabel11062415373D

 35 39  0  0  1  0  0  0  0  0999 V2000
  187.4400  176.9600  144.7850 C   0  0  1  0  0  3  0  0  0  0  0  0
  187.9500  177.0420  142.4720 C   0  0  2  0  0  3  0  0  0  0  0  0
  190.8380  176.2900  141.7940 O   0  0  0  0  0  1  0  0  0  0  0  0
  188.6580  178.3830  142.3180 C   0  0  1  0  0  3  0  0  0  0  0  0
  190.0300  178.2560  142.6190 O   0  0  0  0  0  0  0  0  0  0  0  0
  190.2750  176.9000  142.9180 C   0  0  1  0  0  0  0  0  0  0  0  0
  186.7740  177.0910  143.4190 C   0  0  2  0  0  3  0  0  0  0  0  0
  188.6390  176.2390  144.6120 O   0  0  0  0  0  0  0  0  0  0  0  0
  188.9430  176.2180  143.2260 C   0  0  1  0  0  3  0  0  0  0  0  0
  185.3700  178.2800  141.8760 C   0  0  0  0  0  2  0  0  0  0  0  0
  183.6150  179.0270  143.8940 C   0  0  0  0  0  2  0  0  0  0  0  0
  182.9700  178.4380  142.6250 C   0  0  2  0  0  3  0  0  0  0  0  0
  183.9670  177.6790  141.7430 C   0  0  0  0  0  2  0  0  0  0  0  0
  185.9000  178.2690  143.2590 N   0  0  1  0  0  0  0  0  0  0  0  0
  184.8370  178.2020  144.2820 C   0  0  0  0  0  2  0  0  0  0  0  0
  180.5300  179.0850  140.1400 C   0  0  0  0  0  2  0  0  0  0  0  0
  179.8290  179.1440  141.4680 C   0  0  0  0  0  2  0  0  0  0  0  0
  182.2000  179.4150  141.8370 N   0  0  1  0  0  0  0  0  0  0  0  0
  181.9850  178.8840  140.4900 C   0  0  2  0  0  3  0  0  0  0  0  0
  180.8800  179.6550  142.4280 C   0  0  0  0  0  2  0  0  0  0  0  0
  182.8530  179.6220  139.4840 C   0  0  0  0  0  2  0  0  0  0  0  0
  182.0040  180.5350  138.6200 C   0  0  0  0  0  1  0  0  0  0  0  0
  191.2500  176.7930  144.0580 C   0  0  0  0  0  0  0  0  0  0  0  0
  191.8700  175.7160  144.2600 O   0  0  0  0  0  0  0  0  0  0  0  0
  191.4580  177.8710  144.9110 O   0  0  0  0  0  1  0  0  0  0  0  0
  188.4520  179.0060  140.9360 C   0  0  0  0  0  2  0  0  0  0  0  0
  189.8140  178.1260  139.1820 O   0  0  0  0  0  1  0  0  0  0  0  0
  188.5690  177.9950  139.7980 C   0  0  2  0  0  3  0  0  0  0  0  0
  187.9120  178.9460  137.6900 O   0  0  0  0  0  1  0  0  0  0  0  0
  187.4600  178.1820  138.7690 C   0  0  0  0  0  2  0  0  0  0  0  0
  187.7550  178.3100  145.4350 C   0  0  0  0  0  2  0  0  0  0  0  0
  188.7200  178.4300  147.8010 C   0  0  0  0  0  2  0  0  0  0  0  0
  188.0150  177.0790  147.7120 C   0  0  0  0  0  2  0  0  0  0  0  0
  187.5020  178.2620  146.9310 C   0  0  0  0  0  0  0  0  0  0  0  0
  186.3550  178.8680  147.4450 O   0  0  0  0  0  1  0  0  0  0  0  0
  1 31  1  6  0  0  0
  2  9  1  0  0  0  0
  2  7  1  0  0  0  0
  3  6  1  0  0  0  0
  4  2  1  0  0  0  0
  4  5  1  0  0  0  0
  5  6  1  0  0  0  0
  6  9  1  0  0  0  0
  6 23  1  0  0  0  0
  7  1  1  0  0  0  0
  8  1  1  0  0  0  0
  9  8  1  0  0  0  0
 10 14  1  0  0  0  0
 11 15  1  0  0  0  0
 12 11  1  0  0  0  0
 13 10  1  0  0  0  0
 13 12  1  0  0  0  0
 14  7  1  0  0  0  0
 14 15  1  0  0  0  0
 16 19  1  0  0  0  0
 16 17  1  0  0  0  0
 17 20  1  0  0  0  0
 18 20  1  0  0  0  0
 18 12  1  0  0  0  0
 19 18  1  0  0  0  0
 21 19  1  0  0  0  0
 22 21  1  0  0  0  0
 23 24  2  0  0  0  0
 23 25  1  0  0  0  0
 26  4  1  0  0  0  0
 27 28  1  0  0  0  0
 28 26  1  0  0  0  0
 29 30  1  0  0  0  0
 30 28  1  0  0  0  0
 31 34  1  0  0  0  0
 33 32  1  0  0  0  0
 34 35  1  0  0  0  0
 34 33  1  0  0  0  0
 34 32  1  0  0  0  0
M  END
>  <MODEL>
1

>  <REMARK>
 VINA RESULT:      -6.7      0.000      0.000
  Name = 
  9 active torsions:
  status: ('A' for Active; 'I' for Inactive)
    1  A    between atoms: C_2  and  C_16
    2  A    between atoms: C_2  and  C_17
    3  A    between atoms: C_4  and  C_19
    4  A    between atoms: C_5  and  C_25
    5  A    between atoms: C_10  and  C_27
    6  A    between atoms: C_13  and  N_15
    7  A    between atoms: C_16  and  C_29
    8  A    between atoms: C_19  and  C_23
    9  A    between atoms: N_24  and  C_26
                            x       y       z     vdW  Elec       q    Type
                         _______ _______ _______ _____ _____    ______ ____

>  <TORSDO>
F 9

$$$$
=
 OpenBabel11062415373D

 35 39  0  0  1  0  0  0  0  0999 V2000
  188.7750  178.3780  141.3130 C   0  0  1  0  0  3  0  0  0  0  0  0
  187.9760  178.4740  143.5430 C   0  0  2  0  0  3  0  0  0  0  0  0
  190.1520  178.1630  145.6720 O   0  0  0  0  0  1  0  0  0  0  0  0
  187.8940  177.0070  143.9480 C   0  0  1  0  0  3  0  0  0  0  0  0
  189.1460  176.5510  144.4120 O   0  0  0  0  0  0  0  0  0  0  0  0
  190.0340  177.6450  144.3790 C   0  0  1  0  0  0  0  0  0  0  0  0
  187.5300  178.7290  142.1220 C   0  0  2  0  0  3  0  0  0  0  0  0
  189.8990  178.6050  142.1340 O   0  0  0  0  0  0  0  0  0  0  0  0
  189.4470  178.7260  143.4740 C   0  0  1  0  0  3  0  0  0  0  0  0
  185.3160  178.1160  142.8230 C   0  0  0  0  0  2  0  0  0  0  0  0
  184.3300  178.3340  140.2370 C   0  0  0  0  0  2  0  0  0  0  0  0
  183.5050  179.0370  141.3330 C   0  0  2  0  0  3  0  0  0  0  0  0
  184.2880  179.2350  142.6360 C   0  0  0  0  0  2  0  0  0  0  0  0
  186.3020  178.0150  141.7220 N   0  0  1  0  0  0  0  0  0  0  0  0
  185.8140  178.6020  140.4570 C   0  0  0  0  0  2  0  0  0  0  0  0
  180.0150  179.3920  141.8240 C   0  0  0  0  0  2  0  0  0  0  0  0
  180.2240  179.0770  140.3700 C   0  0  0  0  0  2  0  0  0  0  0  0
  182.1960  178.4110  141.5910 N   0  0  1  0  0  0  0  0  0  0  0  0
  181.3950  179.3010  142.4310 C   0  0  2  0  0  3  0  0  0  0  0  0
  181.4540  178.1980  140.3440 C   0  0  0  0  0  2  0  0  0  0  0  0
  181.2900  178.7470  143.8430 C   0  0  0  0  0  2  0  0  0  0  0  0
  179.8430  178.4550  144.1920 C   0  0  0  0  0  1  0  0  0  0  0  0
  191.3930  177.1900  143.9220 C   0  0  0  0  0  0  0  0  0  0  0  0
  192.3130  178.0300  143.7410 O   0  0  0  0  0  1  0  0  0  0  0  0
  191.6380  175.8440  143.6730 O   0  0  0  0  0  0  0  0  0  0  0  0
  186.7930  176.7360  144.9740 C   0  0  0  0  0  2  0  0  0  0  0  0
  187.4220  177.1730  147.2360 O   0  0  0  0  0  1  0  0  0  0  0  0
  186.7890  177.7360  146.1280 C   0  0  2  0  0  3  0  0  0  0  0  0
  185.3710  179.4130  147.1060 O   0  0  0  0  0  1  0  0  0  0  0  0
  185.3710  178.1550  146.4990 C   0  0  0  0  0  2  0  0  0  0  0  0
  188.7910  176.9260  140.8290 C   0  0  0  0  0  2  0  0  0  0  0  0
  189.4350  178.1150  138.6570 C   0  0  0  0  0  2  0  0  0  0  0  0
  188.4760  176.9990  138.2480 C   0  0  0  0  0  2  0  0  0  0  0  0
  189.3870  176.8260  139.4360 C   0  0  0  0  0  0  0  0  0  0  0  0
  190.4930  176.0010  139.2280 O   0  0  0  0  0  1  0  0  0  0  0  0
  1 31  1  1  0  0  0
  1  7  1  0  0  0  0
  1  8  1  0  0  0  0
  2  4  1  0  0  0  0
  4  5  1  0  0  0  0
  4 26  1  0  0  0  0
  6  5  1  0  0  0  0
  6  3  1  0  0  0  0
  7  2  1  0  0  0  0
  8  9  1  0  0  0  0
  9  2  1  0  0  0  0
  9  6  1  0  0  0  0
 11 15  1  0  0  0  0
 11 12  1  0  0  0  0
 12 18  1  0  0  0  0
 12 13  1  0  0  0  0
 13 10  1  0  0  0  0
 14  7  1  0  0  0  0
 14 10  1  0  0  0  0
 15 14  1  0  0  0  0
 16 19  1  0  0  0  0
 17 16  1  0  0  0  0
 18 19  1  0  0  0  0
 19 21  1  0  0  0  0
 20 17  1  0  0  0  0
 20 18  1  0  0  0  0
 21 22  1  0  0  0  0
 23  6  1  0  0  0  0
 24 23  1  0  0  0  0
 25 23  2  0  0  0  0
 26 28  1  0  0  0  0
 28 30  1  0  0  0  0
 28 27  1  0  0  0  0
 30 29  1  0  0  0  0
 32 34  1  0  0  0  0
 33 32  1  0  0  0  0
 33 34  1  0  0  0  0
 34 31  1  0  0  0  0
 35 34  1  0  0  0  0
M  END
>  <MODEL>
2

>  <REMARK>
 VINA RESULT:      -5.9      1.599      4.954
  Name = 
  9 active torsions:
  status: ('A' for Active; 'I' for Inactive)
    1  A    between atoms: C_2  and  C_16
    2  A    between atoms: C_2  and  C_17
    3  A    between atoms: C_4  and  C_19
    4  A    between atoms: C_5  and  C_25
    5  A    between atoms: C_10  and  C_27
    6  A    between atoms: C_13  and  N_15
    7  A    between atoms: C_16  and  C_29
    8  A    between atoms: C_19  and  C_23
    9  A    between atoms: N_24  and  C_26
                            x       y       z     vdW  Elec       q    Type
                         _______ _______ _______ _____ _____    ______ ____

>  <TORSDO>
F 9

$$$$
=
 OpenBabel11062415373D

 35 39  0  0  1  0  0  0  0  0999 V2000
  184.0740  179.0680  140.0550 C   0  0  1  0  0  3  0  0  0  0  0  0
  183.5160  178.1070  137.9610 C   0  0  2  0  0  3  0  0  0  0  0  0
  180.5120  177.7320  137.5120 O   0  0  0  0  0  1  0  0  0  0  0  0
  183.2670  176.6430  138.3040 C   0  0  1  0  0  3  0  0  0  0  0  0
  181.9420  176.4560  138.7470 O   0  0  0  0  0  0  0  0  0  0  0  0
  181.2900  177.7040  138.6730 C   0  0  1  0  0  0  0  0  0  0  0  0
  184.6860  178.7060  138.7060 C   0  0  2  0  0  3  0  0  0  0  0  0
  182.7010  179.3150  139.8520 O   0  0  0  0  0  0  0  0  0  0  0  0
  182.3460  178.8030  138.5780 C   0  0  1  0  0  3  0  0  0  0  0  0
  186.4310  177.6930  137.4030 C   0  0  0  0  0  2  0  0  0  0  0  0
  188.2710  177.9790  139.4640 C   0  0  0  0  0  2  0  0  0  0  0  0
  188.7420  178.4440  138.0720 C   0  0  2  0  0  3  0  0  0  0  0  0
  187.5860  178.6490  137.0870 C   0  0  0  0  0  2  0  0  0  0  0  0
  185.8830  177.8460  138.7710 N   0  0  1  0  0  0  0  0  0  0  0  0
  186.8440  178.4570  139.7110 C   0  0  0  0  0  2  0  0  0  0  0  0
  190.1360  175.2230  137.5960 C   0  0  0  0  0  2  0  0  0  0  0  0
  189.2730  175.5080  136.4000 C   0  0  0  0  0  2  0  0  0  0  0  0
  189.7960  177.5990  137.4850 N   0  0  1  0  0  0  0  0  0  0  0  0
  190.0970  176.4990  138.4020 C   0  0  2  0  0  3  0  0  0  0  0  0
  189.3600  177.0070  136.2170 C   0  0  0  0  0  2  0  0  0  0  0  0
  191.4450  176.7170  139.0700 C   0  0  0  0  0  2  0  0  0  0  0  0
  192.5720  176.4100  138.1020 C   0  0  0  0  0  1  0  0  0  0  0  0
  180.3820  177.8810  139.8590 C   0  0  0  0  0  0  0  0  0  0  0  0
  180.4930  177.1220  140.8580 O   0  0  0  0  0  1  0  0  0  0  0  0
  179.4000  178.8650  139.8540 O   0  0  0  0  0  0  0  0  0  0  0  0
  183.6010  175.6990  137.1470 C   0  0  0  0  0  2  0  0  0  0  0  0
  185.5130  174.2720  137.2360 O   0  0  0  0  0  1  0  0  0  0  0  0
  184.1720  174.3610  137.6080 C   0  0  2  0  0  3  0  0  0  0  0  0
  184.1010  171.9960  137.1860 O   0  0  0  0  0  1  0  0  0  0  0  0
  183.3930  173.1890  137.0230 C   0  0  0  0  0  2  0  0  0  0  0  0
  184.2360  177.9660  141.1060 C   0  0  0  0  0  2  0  0  0  0  0  0
  185.1300  179.5680  142.8890 C   0  0  0  0  0  2  0  0  0  0  0  0
  185.1570  178.1820  143.5290 C   0  0  0  0  0  2  0  0  0  0  0  0
  184.1050  178.5320  142.5080 C   0  0  0  0  0  0  0  0  0  0  0  0
  182.8320  178.7840  143.0220 O   0  0  0  0  0  1  0  0  0  0  0  0
  1 31  1  1  0  0  0
  2  4  1  0  0  0  0
  2  9  1  0  0  0  0
  2  7  1  0  0  0  0
  3  6  1  0  0  0  0
  4  5  1  0  0  0  0
  6  5  1  0  0  0  0
  6 23  1  0  0  0  0
  7 14  1  0  0  0  0
  7  1  1  0  0  0  0
  8  1  1  0  0  0  0
  9  6  1  0  0  0  0
  9  8  1  0  0  0  0
 10 14  1  0  0  0  0
 11 15  1  0  0  0  0
 12 11  1  0  0  0  0
 13 10  1  0  0  0  0
 13 12  1  0  0  0  0
 14 15  1  0  0  0  0
 16 19  1  0  0  0  0
 17 16  1  0  0  0  0
 18 12  1  0  0  0  0
 18 19  1  0  0  0  0
 19 21  1  0  0  0  0
 20 17  1  0  0  0  0
 20 18  1  0  0  0  0
 22 21  1  0  0  0  0
 23 24  1  0  0  0  0
 25 23  2  0  0  0  0
 26 28  1  0  0  0  0
 26  4  1  0  0  0  0
 27 28  1  0  0  0  0
 30 29  1  0  0  0  0
 30 28  1  0  0  0  0
 31 34  1  0  0  0  0
 32 33  1  0  0  0  0
 34 32  1  0  0  0  0
 34 35  1  0  0  0  0
 34 33  1  0  0  0  0
M  END
>  <MODEL>
3

>  <REMARK>
 VINA RESULT:      -5.6      4.428      8.235
  Name = 
  9 active torsions:
  status: ('A' for Active; 'I' for Inactive)
    1  A    between atoms: C_2  and  C_16
    2  A    between atoms: C_2  and  C_17
    3  A    between atoms: C_4  and  C_19
    4  A    between atoms: C_5  and  C_25
    5  A    between atoms: C_10  and  C_27
    6  A    between atoms: C_13  and  N_15
    7  A    between atoms: C_16  and  C_29
    8  A    between atoms: C_19  and  C_23
    9  A    between atoms: N_24  and  C_26
                            x       y       z     vdW  Elec       q    Type
                         _______ _______ _______ _____ _____    ______ ____

>  <TORSDO>
F 9

$$$$
=
 OpenBabel11062415373D

 35 39  0  0  1  0  0  0  0  0999 V2000
  189.8100  175.5000  136.1720 C   0  0  1  0  0  3  0  0  0  0  0  0
  190.3200  177.1040  137.8410 C   0  0  2  0  0  3  0  0  0  0  0  0
  193.2970  177.3050  138.5210 O   0  0  0  0  0  1  0  0  0  0  0  0
  190.4730  176.2600  139.1010 C   0  0  1  0  0  3  0  0  0  0  0  0
  191.7810  175.7410  139.1940 O   0  0  0  0  0  0  0  0  0  0  0  0
  192.5110  176.2320  138.0930 C   0  0  1  0  0  0  0  0  0  0  0  0
  189.1850  176.6520  136.9520 C   0  0  2  0  0  3  0  0  0  0  0  0
  191.1970  175.7380  136.0900 O   0  0  0  0  0  0  0  0  0  0  0  0
  191.5280  176.7390  137.0400 C   0  0  1  0  0  3  0  0  0  0  0  0
  187.4790  177.5240  138.4010 C   0  0  0  0  0  2  0  0  0  0  0  0
  185.5170  175.9860  137.1790 C   0  0  0  0  0  2  0  0  0  0  0  0
  185.1780  177.4760  137.3780 C   0  0  2  0  0  3  0  0  0  0  0  0
  186.4120  178.3380  137.6630 C   0  0  0  0  0  2  0  0  0  0  0  0
  187.9360  176.3220  137.6640 N   0  0  1  0  0  0  0  0  0  0  0  0
  186.9490  175.8460  136.6740 C   0  0  0  0  0  2  0  0  0  0  0  0
  182.9560  179.7440  138.9480 C   0  0  0  0  0  2  0  0  0  0  0  0
  182.1890  179.0730  137.8430 C   0  0  0  0  0  2  0  0  0  0  0  0
  184.1180  177.7210  138.3710 N   0  0  1  0  0  0  0  0  0  0  0  0
  184.2990  179.0530  138.9480 C   0  0  2  0  0  3  0  0  0  0  0  0
  182.7900  177.6880  137.7510 C   0  0  0  0  0  2  0  0  0  0  0  0
  184.8130  178.9490  140.3750 C   0  0  0  0  0  2  0  0  0  0  0  0
  183.8380  178.1680  141.2350 C   0  0  0  0  0  1  0  0  0  0  0  0
  193.4200  175.1590  137.5590 C   0  0  0  0  0  0  0  0  0  0  0  0
  193.0870  173.9480  137.6480 O   0  0  0  0  0  1  0  0  0  0  0  0
  194.6420  175.4910  136.9870 O   0  0  0  0  0  0  0  0  0  0  0  0
  190.0880  177.0190  140.3720 C   0  0  0  0  0  2  0  0  0  0  0  0
  190.1830  175.7060  142.3650 O   0  0  0  0  0  1  0  0  0  0  0  0
  190.9120  176.6080  141.5900 C   0  0  2  0  0  3  0  0  0  0  0  0
  190.2440  178.2100  143.2540 O   0  0  0  0  0  1  0  0  0  0  0  0
  191.3040  177.8160  142.4330 C   0  0  0  0  0  2  0  0  0  0  0  0
  189.5710  174.1330  136.8190 C   0  0  0  0  0  2  0  0  0  0  0  0
  188.6180  173.1990  134.6370 C   0  0  0  0  0  2  0  0  0  0  0  0
  188.3990  172.1080  135.6830 C   0  0  0  0  0  2  0  0  0  0  0  0
  189.5880  173.0300  135.7770 C   0  0  0  0  0  0  0  0  0  0  0  0
  190.8100  172.4720  135.3980 O   0  0  0  0  0  1  0  0  0  0  0  0
  1 31  1  1  0  0  0
  1  7  1  0  0  0  0
  2  4  1  0  0  0  0
  4  5  1  0  0  0  0
  4 26  1  0  0  0  0
  6  3  1  0  0  0  0
  6  5  1  0  0  0  0
  7 14  1  0  0  0  0
  7  2  1  0  0  0  0
  8  1  1  0  0  0  0
  8  9  1  0  0  0  0
  9  2  1  0  0  0  0
  9  6  1  0  0  0  0
 11 12  1  0  0  0  0
 12 13  1  0  0  0  0
 12 18  1  0  0  0  0
 13 10  1  0  0  0  0
 14 10  1  0  0  0  0
 15 11  1  0  0  0  0
 15 14  1  0  0  0  0
 17 16  1  0  0  0  0
 18 19  1  0  0  0  0
 19 16  1  0  0  0  0
 19 21  1  0  0  0  0
 20 17  1  0  0  0  0
 20 18  1  0  0  0  0
 21 22  1  0  0  0  0
 23 24  1  0  0  0  0
 23  6  1  0  0  0  0
 25 23  2  0  0  0  0
 26 28  1  0  0  0  0
 28 27  1  0  0  0  0
 28 30  1  0  0  0  0
 30 29  1  0  0  0  0
 32 33  1  0  0  0  0
 32 34  1  0  0  0  0
 33 34  1  0  0  0  0
 34 31  1  0  0  0  0
 35 34  1  0  0  0  0
M  END
>  <MODEL>
4

>  <REMARK>
 VINA RESULT:      -5.6      3.920      7.194
  Name = 
  9 active torsions:
  status: ('A' for Active; 'I' for Inactive)
    1  A    between atoms: C_2  and  C_16
    2  A    between atoms: C_2  and  C_17
    3  A    between atoms: C_4  and  C_19
    4  A    between atoms: C_5  and  C_25
    5  A    between atoms: C_10  and  C_27
    6  A    between atoms: C_13  and  N_15
    7  A    between atoms: C_16  and  C_29
    8  A    between atoms: C_19  and  C_23
    9  A    between atoms: N_24  and  C_26
                            x       y       z     vdW  Elec       q    Type
                         _______ _______ _______ _____ _____    ______ ____

>  <TORSDO>
F 9

$$$$
=
 OpenBabel11062415373D

 35 39  0  0  1  0  0  0  0  0999 V2000
  189.0730  178.1170  140.3930 C   0  0  1  0  0  3  0  0  0  0  0  0
  187.8720  178.4880  142.4020 C   0  0  2  0  0  3  0  0  0  0  0  0
  189.5700  178.2720  144.9390 O   0  0  0  0  0  1  0  0  0  0  0  0
  187.6020  177.0770  142.9130 C   0  0  1  0  0  3  0  0  0  0  0  0
  188.7030  176.6000  143.6550 O   0  0  0  0  0  0  0  0  0  0  0  0
  189.6620  177.6320  143.7000 C   0  0  1  0  0  0  0  0  0  0  0  0
  187.7270  178.6200  140.9040 C   0  0  2  0  0  3  0  0  0  0  0  0
  190.0320  178.3610  141.3960 O   0  0  0  0  0  0  0  0  0  0  0  0
  189.3440  178.6460  142.6030 C   0  0  1  0  0  3  0  0  0  0  0  0
  185.3360  178.4270  141.0380 C   0  0  0  0  0  2  0  0  0  0  0  0
  185.1160  178.0270  138.2990 C   0  0  0  0  0  2  0  0  0  0  0  0
  184.1600  179.0730  138.9060 C   0  0  2  0  0  3  0  0  0  0  0  0
  184.5940  179.5440  140.2980 C   0  0  0  0  0  2  0  0  0  0  0  0
  186.5470  177.9410  140.3350 N   0  0  1  0  0  0  0  0  0  0  0  0
  186.5140  178.2070  138.8830 C   0  0  0  0  0  2  0  0  0  0  0  0
  180.7630  179.8850  139.4980 C   0  0  0  0  0  2  0  0  0  0  0  0
  181.0210  180.1140  138.0350 C   0  0  0  0  0  2  0  0  0  0  0  0
  182.7450  178.6630  138.9010 N   0  0  1  0  0  0  0  0  0  0  0  0
  182.0550  179.3040  140.0210 C   0  0  2  0  0  3  0  0  0  0  0  0
  182.0720  179.0900  137.6700 C   0  0  0  0  0  2  0  0  0  0  0  0
  181.7480  178.2860  141.1080 C   0  0  0  0  0  2  0  0  0  0  0  0
  181.3750  178.9870  142.4000 C   0  0  0  0  0  1  0  0  0  0  0  0
  191.0440  177.0540  143.5640 C   0  0  0  0  0  0  0  0  0  0  0  0
  192.0550  177.7910  143.7110 O   0  0  0  0  0  1  0  0  0  0  0  0
  191.2190  175.7110  143.2510 O   0  0  0  0  0  0  0  0  0  0  0  0
  186.3070  176.9780  143.7220 C   0  0  0  0  0  2  0  0  0  0  0  0
  186.4010  177.6070  146.0230 O   0  0  0  0  0  1  0  0  0  0  0  0
  186.1490  178.1010  144.7430 C   0  0  2  0  0  3  0  0  0  0  0  0
  184.2610  178.9320  145.9780 O   0  0  0  0  0  1  0  0  0  0  0  0
  184.7540  178.7130  144.6890 C   0  0  0  0  0  2  0  0  0  0  0  0
  189.0690  176.6240  140.0530 C   0  0  0  0  0  2  0  0  0  0  0  0
  189.9530  177.4890  137.8130 C   0  0  0  0  0  2  0  0  0  0  0  0
  189.1570  176.2290  137.4830 C   0  0  0  0  0  2  0  0  0  0  0  0
  189.8820  176.3530  138.8000 C   0  0  0  0  0  0  0  0  0  0  0  0
  191.0660  175.6210  138.9030 O   0  0  0  0  0  1  0  0  0  0  0  0
  1 31  1  1  0  0  0
  1  7  1  0  0  0  0
  1  8  1  0  0  0  0
  2  9  1  0  0  0  0
  2  4  1  0  0  0  0
  4  5  1  0  0  0  0
  4 26  1  0  0  0  0
  5  6  1  0  0  0  0
  6  3  1  0  0  0  0
  7  2  1  0  0  0  0
  8  9  1  0  0  0  0
  9  6  1  0  0  0  0
 11 15  1  0  0  0  0
 11 12  1  0  0  0  0
 12 13  1  0  0  0  0
 13 10  1  0  0  0  0
 14  7  1  0  0  0  0
 14 10  1  0  0  0  0
 15 14  1  0  0  0  0
 16 19  1  0  0  0  0
 17 16  1  0  0  0  0
 18 12  1  0  0  0  0
 18 19  1  0  0  0  0
 19 21  1  0  0  0  0
 20 17  1  0  0  0  0
 20 18  1  0  0  0  0
 21 22  1  0  0  0  0
 23  6  1  0  0  0  0
 23 24  1  0  0  0  0
 25 23  2  0  0  0  0
 26 28  1  0  0  0  0
 28 27  1  0  0  0  0
 30 28  1  0  0  0  0
 30 29  1  0  0  0  0
 32 34  1  0  0  0  0
 33 32  1  0  0  0  0
 33 34  1  0  0  0  0
 34 35  1  0  0  0  0
 34 31  1  0  0  0  0
M  END
>  <MODEL>
5

>  <REMARK>
 VINA RESULT:      -5.5      1.853      5.128
  Name = 
  9 active torsions:
  status: ('A' for Active; 'I' for Inactive)
    1  A    between atoms: C_2  and  C_16
    2  A    between atoms: C_2  and  C_17
    3  A    between atoms: C_4  and  C_19
    4  A    between atoms: C_5  and  C_25
    5  A    between atoms: C_10  and  C_27
    6  A    between atoms: C_13  and  N_15
    7  A    between atoms: C_16  and  C_29
    8  A    between atoms: C_19  and  C_23
    9  A    between atoms: N_24  and  C_26
                            x       y       z     vdW  Elec       q    Type
                         _______ _______ _______ _____ _____    ______ ____

>  <TORSDO>
F 9

$$$$
=
 OpenBabel11062415373D

 35 39  0  0  1  0  0  0  0  0999 V2000
  181.5920  179.4300  140.5260 C   0  0  1  0  0  3  0  0  0  0  0  0
  183.1310  178.8290  138.8260 C   0  0  2  0  0  3  0  0  0  0  0  0
  181.9330  178.7740  136.0100 O   0  0  0  0  0  1  0  0  0  0  0  0
  182.8210  177.3560  138.5800 C   0  0  1  0  0  3  0  0  0  0  0  0
  181.7540  177.2200  137.6680 O   0  0  0  0  0  0  0  0  0  0  0  0
  181.3730  178.5160  137.2640 C   0  0  1  0  0  0  0  0  0  0  0  0
  183.0830  179.2150  140.2860 C   0  0  2  0  0  3  0  0  0  0  0  0
  181.0110  179.8180  139.3020 O   0  0  0  0  0  0  0  0  0  0  0  0
  181.9330  179.5250  138.2650 C   0  0  1  0  0  3  0  0  0  0  0  0
  185.1260  178.0380  140.7450 C   0  0  0  0  0  2  0  0  0  0  0  0
  184.7170  178.1960  143.4870 C   0  0  0  0  0  2  0  0  0  0  0  0
  186.1200  178.5990  142.9910 C   0  0  2  0  0  3  0  0  0  0  0  0
  186.1630  178.8870  141.4860 C   0  0  0  0  0  2  0  0  0  0  0  0
  183.7330  178.2570  141.2000 N   0  0  1  0  0  0  0  0  0  0  0  0
  183.6550  178.7980  142.5720 C   0  0  0  0  0  2  0  0  0  0  0  0
  189.0260  177.9310  144.9020 C   0  0  0  0  0  2  0  0  0  0  0  0
  187.8560  177.4110  145.6880 C   0  0  0  0  0  2  0  0  0  0  0  0
  187.1840  177.6590  143.3820 N   0  0  1  0  0  0  0  0  0  0  0  0
  188.4260  178.4020  143.5990 C   0  0  2  0  0  3  0  0  0  0  0  0
  186.8570  176.9770  144.6380 C   0  0  0  0  0  2  0  0  0  0  0  0
  189.4070  178.1410  142.4670 C   0  0  0  0  0  2  0  0  0  0  0  0
  189.2410  176.7290  141.9380 C   0  0  0  0  0  1  0  0  0  0  0  0
  179.8760  178.5970  137.1440 C   0  0  0  0  0  0  0  0  0  0  0  0
  179.1540  177.6850  137.6260 O   0  0  0  0  0  1  0  0  0  0  0  0
  179.2800  179.6640  136.4820 O   0  0  0  0  0  0  0  0  0  0  0  0
  184.0460  176.5630  138.1200 C   0  0  0  0  0  2  0  0  0  0  0  0
  184.6280  176.6720  135.8070 O   0  0  0  0  0  1  0  0  0  0  0  0
  184.8550  177.2790  137.0420 C   0  0  2  0  0  3  0  0  0  0  0  0
  186.7830  178.5390  137.7280 O   0  0  0  0  0  1  0  0  0  0  0  0
  186.3460  177.2650  137.3600 C   0  0  0  0  0  2  0  0  0  0  0  0
  180.8780  178.1800  141.0470 C   0  0  0  0  0  2  0  0  0  0  0  0
  178.9320  179.5150  142.0340 C   0  0  0  0  0  2  0  0  0  0  0  0
  180.1510  179.8800  142.8770 C   0  0  0  0  0  2  0  0  0  0  0  0
  180.0290  178.5090  142.2620 C   0  0  0  0  0  0  0  0  0  0  0  0
  179.6810  177.4850  143.1440 O   0  0  0  0  0  1  0  0  0  0  0  0
  1 31  1  6  0  0  0
  2  7  1  0  0  0  0
  3  6  1  0  0  0  0
  4  2  1  0  0  0  0
  5  4  1  0  0  0  0
  6  5  1  0  0  0  0
  6  9  1  0  0  0  0
  7  1  1  0  0  0  0
  7 14  1  0  0  0  0
  8  1  1  0  0  0  0
  9  2  1  0  0  0  0
  9  8  1  0  0  0  0
 10 14  1  0  0  0  0
 10 13  1  0  0  0  0
 12 18  1  0  0  0  0
 12 11  1  0  0  0  0
 13 12  1  0  0  0  0
 14 15  1  0  0  0  0
 15 11  1  0  0  0  0
 16 17  1  0  0  0  0
 18 19  1  0  0  0  0
 18 20  1  0  0  0  0
 19 16  1  0  0  0  0
 20 17  1  0  0  0  0
 21 19  1  0  0  0  0
 22 21  1  0  0  0  0
 23  6  1  0  0  0  0
 23 24  1  0  0  0  0
 25 23  2  0  0  0  0
 26  4  1  0  0  0  0
 27 28  1  0  0  0  0
 28 30  1  0  0  0  0
 28 26  1  0  0  0  0
 30 29  1  0  0  0  0
 31 34  1  0  0  0  0
 32 34  1  0  0  0  0
 32 33  1  0  0  0  0
 34 33  1  0  0  0  0
 34 35  1  0  0  0  0
M  END
>  <MODEL>
6

>  <REMARK>
 VINA RESULT:      -5.5      3.579      8.121
  Name = 
  9 active torsions:
  status: ('A' for Active; 'I' for Inactive)
    1  A    between atoms: C_2  and  C_16
    2  A    between atoms: C_2  and  C_17
    3  A    between atoms: C_4  and  C_19
    4  A    between atoms: C_5  and  C_25
    5  A    between atoms: C_10  and  C_27
    6  A    between atoms: C_13  and  N_15
    7  A    between atoms: C_16  and  C_29
    8  A    between atoms: C_19  and  C_23
    9  A    between atoms: N_24  and  C_26
                            x       y       z     vdW  Elec       q    Type
                         _______ _______ _______ _____ _____    ______ ____

>  <TORSDO>
F 9

$$$$
=
 OpenBabel11062415373D

 35 39  0  0  1  0  0  0  0  0999 V2000
  188.7780  177.7920  137.7850 C   0  0  1  0  0  3  0  0  0  0  0  0
  189.7140  178.0420  139.9490 C   0  0  2  0  0  3  0  0  0  0  0  0
  192.7220  177.4910  140.0880 O   0  0  0  0  0  1  0  0  0  0  0  0
  189.8080  176.6070  140.4560 C   0  0  1  0  0  3  0  0  0  0  0  0
  190.9990  176.0000  140.0060 O   0  0  0  0  0  0  0  0  0  0  0  0
  191.7160  176.9660  139.2710 C   0  0  1  0  0  0  0  0  0  0  0  0
  188.4460  178.3220  139.1770 C   0  0  2  0  0  3  0  0  0  0  0  0
  190.1740  177.8860  137.6120 O   0  0  0  0  0  0  0  0  0  0  0  0
  190.7630  178.0950  138.8860 C   0  0  1  0  0  3  0  0  0  0  0  0
  187.4060  177.6960  141.2490 C   0  0  0  0  0  2  0  0  0  0  0  0
  184.9020  178.4840  140.3450 C   0  0  0  0  0  2  0  0  0  0  0  0
  185.3030  178.9910  141.7440 C   0  0  2  0  0  3  0  0  0  0  0  0
  186.8080  178.8810  142.0120 C   0  0  0  0  0  2  0  0  0  0  0  0
  187.2190  177.7690  139.7810 N   0  0  1  0  0  0  0  0  0  0  0  0
  186.0810  178.6240  139.3880 C   0  0  0  0  0  2  0  0  0  0  0  0
  183.4370  179.4230  144.7240 C   0  0  0  0  0  2  0  0  0  0  0  0
  182.4510  179.3810  143.5910 C   0  0  0  0  0  2  0  0  0  0  0  0
  184.5230  178.3950  142.8420 N   0  0  1  0  0  0  0  0  0  0  0  0
  184.7710  179.1480  144.0720 C   0  0  2  0  0  3  0  0  0  0  0  0
  183.0840  178.4620  142.5700 C   0  0  0  0  0  2  0  0  0  0  0  0
  185.6420  178.3410  145.0230 C   0  0  0  0  0  2  0  0  0  0  0  0
  185.2010  178.5590  146.4580 C   0  0  0  0  0  1  0  0  0  0  0  0
  192.3610  176.3250  138.0730 C   0  0  0  0  0  0  0  0  0  0  0  0
  191.8260  175.3230  137.5280 O   0  0  0  0  0  0  0  0  0  0  0  0
  193.5620  176.8150  137.5730 O   0  0  0  0  0  1  0  0  0  0  0  0
  189.6770  176.5070  141.9770 C   0  0  0  0  0  2  0  0  0  0  0  0
  191.6110  176.4110  143.3750 O   0  0  0  0  0  1  0  0  0  0  0  0
  190.7490  177.2940  142.7250 C   0  0  2  0  0  3  0  0  0  0  0  0
  189.2540  177.5800  144.5860 O   0  0  0  0  0  1  0  0  0  0  0  0
  190.1340  178.2550  143.7360 C   0  0  0  0  0  2  0  0  0  0  0  0
  188.3410  176.3410  137.5720 C   0  0  0  0  0  2  0  0  0  0  0  0
  186.6600  177.4160  135.9710 C   0  0  0  0  0  2  0  0  0  0  0  0
  185.9940  176.1350  136.4690 C   0  0  0  0  0  2  0  0  0  0  0  0
  187.4930  176.2100  136.3200 C   0  0  0  0  0  0  0  0  0  0  0  0
  188.0170  175.5480  135.2100 O   0  0  0  0  0  1  0  0  0  0  0  0
  1 31  1  1  0  0  0
  1  7  1  0  0  0  0
  2  4  1  0  0  0  0
  4 26  1  0  0  0  0
  5  4  1  0  0  0  0
  6  5  1  0  0  0  0
  6  3  1  0  0  0  0
  7 14  1  0  0  0  0
  7  2  1  0  0  0  0
  8  1  1  0  0  0  0
  8  9  1  0  0  0  0
  9  6  1  0  0  0  0
  9  2  1  0  0  0  0
 10 13  1  0  0  0  0
 11 12  1  0  0  0  0
 12 13  1  0  0  0  0
 12 18  1  0  0  0  0
 14 10  1  0  0  0  0
 15 14  1  0  0  0  0
 15 11  1  0  0  0  0
 17 16  1  0  0  0  0
 18 19  1  0  0  0  0
 19 16  1  0  0  0  0
 19 21  1  0  0  0  0
 20 18  1  0  0  0  0
 20 17  1  0  0  0  0
 21 22  1  0  0  0  0
 23  6  1  0  0  0  0
 24 23  2  0  0  0  0
 25 23  1  0  0  0  0
 26 28  1  0  0  0  0
 28 27  1  0  0  0  0
 28 30  1  0  0  0  0
 30 29  1  0  0  0  0
 32 34  1  0  0  0  0
 32 33  1  0  0  0  0
 34 33  1  0  0  0  0
 34 31  1  0  0  0  0
 35 34  1  0  0  0  0
M  END
>  <MODEL>
7

>  <REMARK>
 VINA RESULT:      -5.4      2.332      6.254
  Name = 
  9 active torsions:
  status: ('A' for Active; 'I' for Inactive)
    1  A    between atoms: C_2  and  C_16
    2  A    between atoms: C_2  and  C_17
    3  A    between atoms: C_4  and  C_19
    4  A    between atoms: C_5  and  C_25
    5  A    between atoms: C_10  and  C_27
    6  A    between atoms: C_13  and  N_15
    7  A    between atoms: C_16  and  C_29
    8  A    between atoms: C_19  and  C_23
    9  A    between atoms: N_24  and  C_26
                            x       y       z     vdW  Elec       q    Type
                         _______ _______ _______ _____ _____    ______ ____

>  <TORSDO>
F 9

$$$$
=
 OpenBabel11062415373D

 35 39  0  0  1  0  0  0  0  0999 V2000
  189.4540  178.2320  140.9020 C   0  0  1  0  0  3  0  0  0  0  0  0
  188.0820  178.4320  142.8240 C   0  0  2  0  0  3  0  0  0  0  0  0
  189.5930  178.1970  145.4760 O   0  0  0  0  0  1  0  0  0  0  0  0
  187.8650  176.9850  143.2510 C   0  0  1  0  0  3  0  0  0  0  0  0
  188.9340  176.5400  144.0560 O   0  0  0  0  0  0  0  0  0  0  0  0
  189.8200  177.6240  144.2210 C   0  0  1  0  0  0  0  0  0  0  0  0
  188.0440  178.6280  141.3270 C   0  0  2  0  0  3  0  0  0  0  0  0
  190.3170  178.4850  141.9870 O   0  0  0  0  0  0  0  0  0  0  0  0
  189.5220  178.6690  143.1480 C   0  0  1  0  0  3  0  0  0  0  0  0
  185.6690  178.2710  141.2740 C   0  0  0  0  0  2  0  0  0  0  0  0
  185.6690  178.0170  138.5090 C   0  0  0  0  0  2  0  0  0  0  0  0
  184.6030  178.9610  139.0980 C   0  0  2  0  0  3  0  0  0  0  0  0
  184.9050  179.3780  140.5410 C   0  0  0  0  0  2  0  0  0  0  0  0
  186.9560  177.9070  140.6370 N   0  0  1  0  0  0  0  0  0  0  0  0
  187.0070  178.2530  139.2020 C   0  0  0  0  0  2  0  0  0  0  0  0
  181.5980  178.8010  137.2290 C   0  0  0  0  0  2  0  0  0  0  0  0
  182.4000  177.5810  136.8750 C   0  0  0  0  0  2  0  0  0  0  0  0
  183.2240  178.4610  138.9660 N   0  0  1  0  0  0  0  0  0  0  0  0
  182.4030  179.4800  138.3110 C   0  0  2  0  0  3  0  0  0  0  0  0
  183.1720  177.2550  138.1340 C   0  0  0  0  0  2  0  0  0  0  0  0
  181.4600  180.1270  139.3130 C   0  0  0  0  0  2  0  0  0  0  0  0
  180.8320  181.3740  138.7200 C   0  0  0  0  0  1  0  0  0  0  0  0
  191.2420  177.1380  144.1700 C   0  0  0  0  0  0  0  0  0  0  0  0
  192.1730  177.8580  144.6190 O   0  0  0  0  0  1  0  0  0  0  0  0
  191.5450  175.9040  143.6050 O   0  0  0  0  0  0  0  0  0  0  0  0
  186.5210  176.7690  143.9490 C   0  0  0  0  0  2  0  0  0  0  0  0
  186.3400  177.4860  146.2190 O   0  0  0  0  0  1  0  0  0  0  0  0
  186.1500  177.9020  144.9020 C   0  0  2  0  0  3  0  0  0  0  0  0
  184.2310  179.0020  145.8420 O   0  0  0  0  0  1  0  0  0  0  0  0
  184.7070  178.3500  144.7020 C   0  0  0  0  0  2  0  0  0  0  0  0
  189.5720  176.7600  140.4980 C   0  0  0  0  0  2  0  0  0  0  0  0
  190.1300  177.1350  138.0300 C   0  0  0  0  0  2  0  0  0  0  0  0
  190.2300  175.6280  138.2510 C   0  0  0  0  0  2  0  0  0  0  0  0
  190.5660  176.5880  139.3640 C   0  0  0  0  0  0  0  0  0  0  0  0
  191.9270  176.7520  139.6230 O   0  0  0  0  0  1  0  0  0  0  0  0
  1 31  1  1  0  0  0
  1  7  1  0  0  0  0
  1  8  1  0  0  0  0
  2  9  1  0  0  0  0
  2  4  1  0  0  0  0
  4 26  1  0  0  0  0
  4  5  1  0  0  0  0
  5  6  1  0  0  0  0
  6  3  1  0  0  0  0
  7  2  1  0  0  0  0
  8  9  1  0  0  0  0
  9  6  1  0  0  0  0
 11 12  1  0  0  0  0
 11 15  1  0  0  0  0
 12 13  1  0  0  0  0
 13 10  1  0  0  0  0
 14 10  1  0  0  0  0
 14  7  1  0  0  0  0
 15 14  1  0  0  0  0
 16 19  1  0  0  0  0
 17 16  1  0  0  0  0
 17 20  1  0  0  0  0
 18 12  1  0  0  0  0
 19 18  1  0  0  0  0
 19 21  1  0  0  0  0
 20 18  1  0  0  0  0
 22 21  1  0  0  0  0
 23  6  1  0  0  0  0
 23 24  1  0  0  0  0
 25 23  2  0  0  0  0
 26 28  1  0  0  0  0
 28 27  1  0  0  0  0
 30 28  1  0  0  0  0
 30 29  1  0  0  0  0
 32 33  1  0  0  0  0
 32 34  1  0  0  0  0
 33 34  1  0  0  0  0
 34 35  1  0  0  0  0
 34 31  1  0  0  0  0
M  END
>  <MODEL>
8

>  <REMARK>
 VINA RESULT:      -5.4      2.041      5.080
  Name = 
  9 active torsions:
  status: ('A' for Active; 'I' for Inactive)
    1  A    between atoms: C_2  and  C_16
    2  A    between atoms: C_2  and  C_17
    3  A    between atoms: C_4  and  C_19
    4  A    between atoms: C_5  and  C_25
    5  A    between atoms: C_10  and  C_27
    6  A    between atoms: C_13  and  N_15
    7  A    between atoms: C_16  and  C_29
    8  A    between atoms: C_19  and  C_23
    9  A    between atoms: N_24  and  C_26
                            x       y       z     vdW  Elec       q    Type
                         _______ _______ _______ _____ _____    ______ ____

>  <TORSDO>
F 9

$$$$
=
 OpenBabel11062415373D

 35 39  0  0  1  0  0  0  0  0999 V2000
  186.3400  177.4670  144.0490 C   0  0  1  0  0  3  0  0  0  0  0  0
  188.6770  177.0970  143.9220 C   0  0  2  0  0  3  0  0  0  0  0  0
  190.0200  176.6030  146.6280 O   0  0  0  0  0  1  0  0  0  0  0  0
  189.2660  178.4520  144.2990 C   0  0  1  0  0  3  0  0  0  0  0  0
  189.3590  178.5780  145.7010 O   0  0  0  0  0  0  0  0  0  0  0  0
  188.9080  177.3690  146.2670 C   0  0  1  0  0  0  0  0  0  0  0  0
  187.4540  177.2000  143.0420 C   0  0  2  0  0  3  0  0  0  0  0  0
  186.7230  176.8910  145.2770 O   0  0  0  0  0  0  0  0  0  0  0  0
  188.1110  176.6020  145.2130 C   0  0  1  0  0  3  0  0  0  0  0  0
  188.6530  177.7690  141.0400 C   0  0  0  0  0  2  0  0  0  0  0  0
  186.3730  178.8190  139.8540 C   0  0  0  0  0  2  0  0  0  0  0  0
  187.1940  177.8440  138.9880 C   0  0  2  0  0  3  0  0  0  0  0  0
  188.1760  176.9980  139.8060 C   0  0  0  0  0  2  0  0  0  0  0  0
  187.5600  178.1860  141.9490 N   0  0  1  0  0  0  0  0  0  0  0  0
  186.2500  178.2710  141.2720 C   0  0  0  0  0  2  0  0  0  0  0  0
  188.4510  177.6040  135.6850 C   0  0  0  0  0  2  0  0  0  0  0  0
  187.0680  178.1840  135.5870 C   0  0  0  0  0  2  0  0  0  0  0  0
  187.8680  178.4830  137.8450 N   0  0  1  0  0  0  0  0  0  0  0  0
  188.7090  177.4950  137.1690 C   0  0  2  0  0  3  0  0  0  0  0  0
  186.8980  178.9780  136.8630 C   0  0  0  0  0  2  0  0  0  0  0  0
  190.1790  177.7680  137.4480 C   0  0  0  0  0  2  0  0  0  0  0  0
  190.9860  176.4890  137.3340 C   0  0  0  0  0  1  0  0  0  0  0  0
  188.1010  177.6500  147.5040 C   0  0  0  0  0  0  0  0  0  0  0  0
  187.5310  178.7640  147.6470 O   0  0  0  0  0  0  0  0  0  0  0  0
  187.9970  176.6950  148.5100 O   0  0  0  0  0  1  0  0  0  0  0  0
  190.6170  178.7170  143.6310 C   0  0  0  0  0  2  0  0  0  0  0  0
  191.9050  176.7540  144.0640 O   0  0  0  0  0  1  0  0  0  0  0  0
  191.2570  177.4590  143.0500 C   0  0  2  0  0  3  0  0  0  0  0  0
  191.8470  177.2200  140.7320 O   0  0  0  0  0  1  0  0  0  0  0  0
  192.2460  177.7970  141.9400 C   0  0  0  0  0  2  0  0  0  0  0  0
  186.0600  178.9580  144.2580 C   0  0  0  0  0  2  0  0  0  0  0  0
  183.5460  178.5560  144.0040 C   0  0  0  0  0  2  0  0  0  0  0  0
  183.7190  180.0720  144.0460 C   0  0  0  0  0  2  0  0  0  0  0  0
  184.6610  179.1740  144.8070 C   0  0  0  0  0  0  0  0  0  0  0  0
  184.4570  179.1220  146.1860 O   0  0  0  0  0  1  0  0  0  0  0  0
  1 31  1  1  0  0  0
  1  8  1  0  0  0  0
  2  4  1  0  0  0  0
  2  9  1  0  0  0  0
  4  5  1  0  0  0  0
  5  6  1  0  0  0  0
  6  3  1  0  0  0  0
  6 23  1  0  0  0  0
  7  2  1  0  0  0  0
  7  1  1  0  0  0  0
  9  8  1  0  0  0  0
  9  6  1  0  0  0  0
 10 14  1  0  0  0  0
 11 15  1  0  0  0  0
 12 13  1  0  0  0  0
 12 11  1  0  0  0  0
 13 10  1  0  0  0  0
 14  7  1  0  0  0  0
 15 14  1  0  0  0  0
 16 19  1  0  0  0  0
 17 16  1  0  0  0  0
 17 20  1  0  0  0  0
 18 12  1  0  0  0  0
 19 21  1  0  0  0  0
 19 18  1  0  0  0  0
 20 18  1  0  0  0  0
 22 21  1  0  0  0  0
 23 24  2  0  0  0  0
 23 25  1  0  0  0  0
 26  4  1  0  0  0  0
 28 26  1  0  0  0  0
 28 27  1  0  0  0  0
 29 30  1  0  0  0  0
 30 28  1  0  0  0  0
 31 34  1  0  0  0  0
 32 33  1  0  0  0  0
 32 34  1  0  0  0  0
 33 34  1  0  0  0  0
 34 35  1  0  0  0  0
M  END
>  <MODEL>
9

>  <REMARK>
 VINA RESULT:      -5.4      2.532      5.327
  Name = 
  9 active torsions:
  status: ('A' for Active; 'I' for Inactive)
    1  A    between atoms: C_2  and  C_16
    2  A    between atoms: C_2  and  C_17
    3  A    between atoms: C_4  and  C_19
    4  A    between atoms: C_5  and  C_25
    5  A    between atoms: C_10  and  C_27
    6  A    between atoms: C_13  and  N_15
    7  A    between atoms: C_16  and  C_29
    8  A    between atoms: C_19  and  C_23
    9  A    between atoms: N_24  and  C_26
                            x       y       z     vdW  Elec       q    Type
                         _______ _______ _______ _____ _____    ______ ____

>  <TORSDO>
F 9

$$$$
