=
 OpenBabel11062415383D

 34 38  0  0  1  0  0  0  0  0999 V2000
  185.0010  178.6980  144.1380 C   0  0  0  0  0  3  0  0  0  0  0  0
  189.1890  175.6740  143.0600 O   0  0  0  0  0  0  0  0  0  0  0  0
  184.8100  178.7380  146.4490 F   0  0  0  0  0  0  0  0  0  0  0  0
  185.7950  178.5530  142.8720 C   0  0  1  0  0  3  0  0  0  0  0  0
  186.9180  178.1130  145.4660 N   0  0  0  0  0  0  0  0  0  0  0  0
  189.7510  176.3670  143.9490 C   0  0  0  0  0  0  0  0  0  0  0  0
  187.6640  177.7520  144.4660 C   0  0  0  0  0  0  0  0  0  0  0  0
  188.9940  177.2880  144.7470 N   0  0  0  0  0  2  0  0  0  0  0  0
  187.1220  177.7770  143.0430 C   0  0  2  0  0  3  0  0  0  0  0  0
  185.5570  178.5400  145.3360 C   0  0  0  0  0  0  0  0  0  0  0  0
  183.2660  178.8240  140.1830 C   0  0  1  0  0  3  0  0  0  0  0  0
  183.6230  178.6750  141.6550 C   0  0  1  0  0  3  0  0  0  0  0  0
  184.9280  177.9080  141.8010 C   0  0  1  0  0  3  0  0  0  0  0  0
  184.7200  178.8540  140.6310 C   0  0  1  0  0  3  0  0  0  0  0  0
  184.3360  175.1030  136.9110 C   0  0  0  0  0  2  0  0  0  0  0  0
  182.2810  173.8470  137.2290 C   0  0  0  0  0  3  0  0  0  0  0  0
  182.3000  175.0440  138.0460 N   0  0  0  0  0  0  0  0  0  0  0  0
  181.8740  176.8760  140.0630 O   0  0  0  0  0  0  0  0  0  0  0  0
  183.6760  176.9290  138.5650 N   0  0  0  0  0  2  0  0  0  0  0  0
  183.5900  173.8620  136.4400 C   0  0  0  0  0  3  0  0  0  0  0  0
  182.8760  177.4970  139.6080 C   0  0  0  0  0  0  0  0  0  0  0  0
  183.3930  175.7040  137.8790 C   0  0  0  0  0  0  0  0  0  0  0  0
  191.7010  176.4440  145.3480 N   0  0  0  0  0  2  0  0  0  0  0  0
  191.1870  176.1950  144.1880 C   0  0  0  0  0  3  0  0  0  0  0  0
  188.1660  178.3230  142.0630 C   0  0  0  0  0  2  0  0  0  0  0  0
  188.2220  177.5060  140.7710 C   0  0  0  0  0  2  0  0  0  0  0  0
  191.2770  177.0130  138.5210 C   0  0  0  0  0  2  0  0  0  0  0  0
  187.5250  178.8210  138.4000 O   0  0  0  0  0  1  0  0  0  0  0  0
  190.5310  177.0410  139.8560 C   0  0  2  0  0  3  0  0  0  0  0  0
  189.3230  177.9960  139.8230 C   0  0  1  0  0  3  0  0  0  0  0  0
  191.4890  177.4600  140.9570 C   0  0  0  0  0  1  0  0  0  0  0  0
  190.3610  176.5780  137.3650 C   0  0  0  0  0  2  0  0  0  0  0  0
  188.8270  178.3120  138.3930 C   0  0  1  0  0  3  0  0  0  0  0  0
  188.9170  177.0830  137.4930 C   0  0  0  0  0  2  0  0  0  0  0  0
  1 10  2  0  0  0  0
  2  6  2  0  0  0  0
  4  9  1  0  0  0  0
  4  1  1  1  0  0  0
  6 24  1  0  0  0  0
  6  8  1  0  0  0  0
  7  8  1  0  0  0  0
  7  5  2  0  0  0  0
  9 25  1  6  0  0  0
  9  7  1  0  0  0  0
 10  5  1  0  0  0  0
 10  3  1  0  0  0  0
 11 14  1  0  0  0  0
 11 12  1  0  0  0  0
 12 13  1  0  0  0  0
 13  4  1  0  0  0  0
 14 12  1  0  0  0  0
 14 13  1  0  0  0  0
 15 22  1  0  0  0  0
 16 17  1  0  0  0  0
 19 21  1  0  0  0  0
 20 15  1  0  0  0  0
 20 16  2  0  0  0  0
 21 18  2  0  0  0  0
 21 11  1  0  0  0  0
 22 17  2  0  0  0  0
 22 19  1  0  0  0  0
 24 23  2  0  0  0  0
 26 25  1  0  0  0  0
 27 29  1  0  0  0  0
 29 31  1  0  0  0  0
 30 29  1  0  0  0  0
 30 26  1  0  0  0  0
 32 34  1  0  0  0  0
 32 27  1  0  0  0  0
 33 28  1  0  0  0  0
 33 30  1  0  0  0  0
 34 33  1  0  0  0  0
M  END
>  <MODEL>
1

>  <REMARK>
 VINA RESULT:      -8.3      0.000      0.000
  Name = 
  6 active torsions:
  status: ('A' for Active; 'I' for Inactive)
    1  A    between atoms: C_8  and  C_27
    2  A    between atoms: C_9  and  C_13
    3  A    between atoms: C_9  and  C_14
    4  A    between atoms: C_13  and  C_29
    5  A    between atoms: C_17  and  C_30
    6  A    between atoms: C_20  and  C_23
                            x       y       z     vdW  Elec       q    Type
                         _______ _______ _______ _____ _____    ______ ____

>  <TORSDO>
F 6

$$$$
=
 OpenBabel11062415383D

 34 38  0  0  1  0  0  0  0  0999 V2000
  183.6300  178.8940  143.2800 C   0  0  0  0  0  3  0  0  0  0  0  0
  188.0970  176.0990  143.5650 O   0  0  0  0  0  0  0  0  0  0  0  0
  182.8910  179.1560  145.4630 F   0  0  0  0  0  0  0  0  0  0  0  0
  184.7100  178.6810  142.2590 C   0  0  1  0  0  3  0  0  0  0  0  0
  185.2010  178.5940  145.0760 N   0  0  0  0  0  0  0  0  0  0  0  0
  188.3960  176.9210  144.4730 C   0  0  0  0  0  0  0  0  0  0  0  0
  186.1810  178.1890  144.3250 C   0  0  0  0  0  0  0  0  0  0  0  0
  187.4270  177.8580  144.9600 N   0  0  0  0  0  2  0  0  0  0  0  0
  185.9940  178.0280  142.8230 C   0  0  2  0  0  3  0  0  0  0  0  0
  183.8920  178.9010  144.5850 C   0  0  0  0  0  0  0  0  0  0  0  0
  183.2470  178.4940  138.8640 C   0  0  1  0  0  3  0  0  0  0  0  0
  183.0840  178.6600  140.3690 C   0  0  1  0  0  3  0  0  0  0  0  0
  184.1560  177.8660  141.0990 C   0  0  1  0  0  3  0  0  0  0  0  0
  184.4680  178.5340  139.7720 C   0  0  1  0  0  3  0  0  0  0  0  0
  184.8670  173.8890  137.4990 C   0  0  0  0  0  2  0  0  0  0  0  0
  182.6880  172.9790  136.9290 C   0  0  0  0  0  3  0  0  0  0  0  0
  182.5870  174.3580  137.3670 N   0  0  0  0  0  0  0  0  0  0  0  0
  181.6770  176.7360  138.4270 O   0  0  0  0  0  0  0  0  0  0  0  0
  183.9350  176.1760  138.1370 N   0  0  0  0  0  2  0  0  0  0  0  0
  184.1770  172.6390  136.9700 C   0  0  0  0  0  3  0  0  0  0  0  0
  182.8870  177.0980  138.4560 C   0  0  0  0  0  0  0  0  0  0  0  0
  183.7430  174.8350  137.6740 C   0  0  0  0  0  0  0  0  0  0  0  0
  189.9570  177.3220  146.2530 N   0  0  0  0  0  2  0  0  0  0  0  0
  189.7400  176.8820  145.0570 C   0  0  0  0  0  3  0  0  0  0  0  0
  187.2140  178.5480  142.0550 C   0  0  0  0  0  2  0  0  0  0  0  0
  187.6570  177.5770  140.9590 C   0  0  0  0  0  2  0  0  0  0  0  0
  191.1310  177.0240  139.4560 C   0  0  0  0  0  2  0  0  0  0  0  0
  187.5020  178.8050  138.4480 O   0  0  0  0  0  1  0  0  0  0  0  0
  190.1090  177.0930  140.5910 C   0  0  2  0  0  3  0  0  0  0  0  0
  188.9400  178.0400  140.2600 C   0  0  1  0  0  3  0  0  0  0  0  0
  190.8030  177.5560  141.8610 C   0  0  0  0  0  1  0  0  0  0  0  0
  190.4910  176.5430  138.1420 C   0  0  0  0  0  2  0  0  0  0  0  0
  188.7720  178.3040  138.7460 C   0  0  1  0  0  3  0  0  0  0  0  0
  189.0560  177.0440  137.9310 C   0  0  0  0  0  2  0  0  0  0  0  0
  1 10  2  0  0  0  0
  2  6  2  0  0  0  0
  4  9  1  0  0  0  0
  4  1  1  1  0  0  0
  6  8  1  0  0  0  0
  6 24  1  0  0  0  0
  7  8  1  0  0  0  0
  7  5  2  0  0  0  0
  9 25  1  6  0  0  0
  9  7  1  0  0  0  0
 10  5  1  0  0  0  0
 10  3  1  0  0  0  0
 11 14  1  0  0  0  0
 11 12  1  0  0  0  0
 12 13  1  0  0  0  0
 13  4  1  0  0  0  0
 14 12  1  0  0  0  0
 14 13  1  0  0  0  0
 15 22  1  0  0  0  0
 16 20  2  0  0  0  0
 16 17  1  0  0  0  0
 17 22  2  0  0  0  0
 18 21  2  0  0  0  0
 19 21  1  0  0  0  0
 20 15  1  0  0  0  0
 21 11  1  0  0  0  0
 22 19  1  0  0  0  0
 24 23  2  0  0  0  0
 26 25  1  0  0  0  0
 27 29  1  0  0  0  0
 28 33  1  0  0  0  0
 29 31  1  0  0  0  0
 30 29  1  0  0  0  0
 30 26  1  0  0  0  0
 32 27  1  0  0  0  0
 33 30  1  0  0  0  0
 34 32  1  0  0  0  0
 34 33  1  0  0  0  0
M  END
>  <MODEL>
2

>  <REMARK>
 VINA RESULT:      -8.2      1.144      1.306
  Name = 
  6 active torsions:
  status: ('A' for Active; 'I' for Inactive)
    1  A    between atoms: C_8  and  C_27
    2  A    between atoms: C_9  and  C_13
    3  A    between atoms: C_9  and  C_14
    4  A    between atoms: C_13  and  C_29
    5  A    between atoms: C_17  and  C_30
    6  A    between atoms: C_20  and  C_23
                            x       y       z     vdW  Elec       q    Type
                         _______ _______ _______ _____ _____    ______ ____

>  <TORSDO>
F 6

$$$$
=
 OpenBabel11062415383D

 34 38  0  0  1  0  0  0  0  0999 V2000
  184.9630  178.6720  144.3540 C   0  0  0  0  0  3  0  0  0  0  0  0
  188.9960  175.5960  142.8990 O   0  0  0  0  0  0  0  0  0  0  0  0
  184.9060  178.6100  146.6720 F   0  0  0  0  0  0  0  0  0  0  0  0
  185.6790  178.5670  143.0390 C   0  0  1  0  0  3  0  0  0  0  0  0
  186.9350  177.9780  145.5410 N   0  0  0  0  0  0  0  0  0  0  0  0
  189.6270  176.2330  143.7840 C   0  0  0  0  0  0  0  0  0  0  0  0
  187.6130  177.6450  144.4830 C   0  0  0  0  0  0  0  0  0  0  0  0
  188.9430  177.1340  144.6650 N   0  0  0  0  0  2  0  0  0  0  0  0
  186.9910  177.7500  143.0980 C   0  0  2  0  0  3  0  0  0  0  0  0
  185.5820  178.4450  145.5090 C   0  0  0  0  0  0  0  0  0  0  0  0
  183.2290  179.0480  140.3070 C   0  0  1  0  0  3  0  0  0  0  0  0
  183.5520  178.9290  141.7900 C   0  0  1  0  0  3  0  0  0  0  0  0
  184.7340  177.9940  141.9930 C   0  0  1  0  0  3  0  0  0  0  0  0
  184.6700  178.8950  140.7720 C   0  0  1  0  0  3  0  0  0  0  0  0
  179.1580  176.0580  139.8720 C   0  0  0  0  0  2  0  0  0  0  0  0
  180.3120  174.1440  138.9230 C   0  0  0  0  0  3  0  0  0  0  0  0
  181.2310  175.2310  139.1980 N   0  0  0  0  0  0  0  0  0  0  0  0
  183.3710  176.9690  139.1200 O   0  0  0  0  0  0  0  0  0  0  0  0
  181.2810  177.4600  140.0630 N   0  0  0  0  0  2  0  0  0  0  0  0
  178.9400  174.6340  139.3810 C   0  0  0  0  0  3  0  0  0  0  0  0
  182.6560  177.7600  139.7990 C   0  0  0  0  0  0  0  0  0  0  0  0
  180.6140  176.2470  139.6960 C   0  0  0  0  0  0  0  0  0  0  0  0
  191.6860  176.3540  145.0150 N   0  0  0  0  0  2  0  0  0  0  0  0
  191.0690  176.0130  143.9310 C   0  0  0  0  0  3  0  0  0  0  0  0
  187.9930  178.3130  142.0840 C   0  0  0  0  0  2  0  0  0  0  0  0
  187.9900  177.5230  140.7740 C   0  0  0  0  0  2  0  0  0  0  0  0
  191.0220  177.0750  138.4860 C   0  0  0  0  0  2  0  0  0  0  0  0
  187.2040  178.7390  138.3780 O   0  0  0  0  0  1  0  0  0  0  0  0
  190.2980  177.1150  139.8320 C   0  0  2  0  0  3  0  0  0  0  0  0
  189.0550  178.0240  139.7930 C   0  0  1  0  0  3  0  0  0  0  0  0
  191.2580  177.6030  140.9030 C   0  0  0  0  0  1  0  0  0  0  0  0
  190.1040  176.5710  137.3590 C   0  0  0  0  0  2  0  0  0  0  0  0
  188.5240  178.2790  138.3630 C   0  0  1  0  0  3  0  0  0  0  0  0
  188.6440  177.0270  137.4980 C   0  0  0  0  0  2  0  0  0  0  0  0
  1 10  2  0  0  0  0
  2  6  2  0  0  0  0
  4  9  1  0  0  0  0
  4  1  1  1  0  0  0
  6 24  1  0  0  0  0
  6  8  1  0  0  0  0
  7  8  1  0  0  0  0
  7  5  2  0  0  0  0
  9 25  1  6  0  0  0
  9  7  1  0  0  0  0
 10  5  1  0  0  0  0
 10  3  1  0  0  0  0
 11 14  1  0  0  0  0
 11 12  1  0  0  0  0
 12 13  1  0  0  0  0
 13  4  1  0  0  0  0
 14 12  1  0  0  0  0
 14 13  1  0  0  0  0
 16 17  1  0  0  0  0
 16 20  2  0  0  0  0
 17 22  2  0  0  0  0
 18 21  2  0  0  0  0
 20 15  1  0  0  0  0
 21 19  1  0  0  0  0
 21 11  1  0  0  0  0
 22 15  1  0  0  0  0
 22 19  1  0  0  0  0
 24 23  2  0  0  0  0
 26 25  1  0  0  0  0
 27 29  1  0  0  0  0
 29 31  1  0  0  0  0
 30 29  1  0  0  0  0
 30 26  1  0  0  0  0
 32 34  1  0  0  0  0
 32 27  1  0  0  0  0
 33 28  1  0  0  0  0
 33 30  1  0  0  0  0
 34 33  1  0  0  0  0
M  END
>  <MODEL>
3

>  <REMARK>
 VINA RESULT:      -8.0      1.395      1.725
  Name = 
  6 active torsions:
  status: ('A' for Active; 'I' for Inactive)
    1  A    between atoms: C_8  and  C_27
    2  A    between atoms: C_9  and  C_13
    3  A    between atoms: C_9  and  C_14
    4  A    between atoms: C_13  and  C_29
    5  A    between atoms: C_17  and  C_30
    6  A    between atoms: C_20  and  C_23
                            x       y       z     vdW  Elec       q    Type
                         _______ _______ _______ _____ _____    ______ ____

>  <TORSDO>
F 6

$$$$
=
 OpenBabel11062415383D

 34 38  0  0  1  0  0  0  0  0999 V2000
  182.7630  176.5570  137.7130 C   0  0  0  0  0  3  0  0  0  0  0  0
  187.1220  179.4480  137.0150 O   0  0  0  0  0  0  0  0  0  0  0  0
  183.0930  174.5920  136.5260 F   0  0  0  0  0  0  0  0  0  0  0  0
  183.2640  177.7560  138.4640 C   0  0  1  0  0  3  0  0  0  0  0  0
  185.0070  175.9250  137.1260 N   0  0  0  0  0  0  0  0  0  0  0  0
  187.7180  178.3740  137.2950 C   0  0  0  0  0  0  0  0  0  0  0  0
  185.5660  177.0170  137.5530 C   0  0  0  0  0  0  0  0  0  0  0  0
  186.9910  177.1440  137.4210 N   0  0  0  0  0  2  0  0  0  0  0  0
  184.7240  178.1450  138.1320 C   0  0  2  0  0  3  0  0  0  0  0  0
  183.5950  175.6900  137.1420 C   0  0  0  0  0  0  0  0  0  0  0  0
  180.5930  180.0320  139.6410 C   0  0  1  0  0  3  0  0  0  0  0  0
  181.0290  178.7260  138.9930 C   0  0  1  0  0  3  0  0  0  0  0  0
  182.3260  178.9310  138.2260 C   0  0  1  0  0  3  0  0  0  0  0  0
  182.0700  179.6880  139.5170 C   0  0  1  0  0  3  0  0  0  0  0  0
  181.5530  184.3090  137.0930 C   0  0  0  0  0  2  0  0  0  0  0  0
  179.4220  184.4330  135.9340 C   0  0  0  0  0  3  0  0  0  0  0  0
  179.4830  183.2750  136.8050 N   0  0  0  0  0  0  0  0  0  0  0  0
  179.0980  180.7840  137.9230 O   0  0  0  0  0  0  0  0  0  0  0  0
  180.9460  182.1660  138.3370 N   0  0  0  0  0  2  0  0  0  0  0  0
  180.7540  185.1600  136.1170 C   0  0  0  0  0  3  0  0  0  0  0  0
  180.1470  181.0050  138.5920 C   0  0  0  0  0  0  0  0  0  0  0  0
  180.6160  183.2100  137.4140 C   0  0  0  0  0  0  0  0  0  0  0  0
  189.7410  177.7810  138.4440 N   0  0  0  0  0  2  0  0  0  0  0  0
  189.1760  178.3860  137.4520 C   0  0  0  0  0  3  0  0  0  0  0  0
  185.3890  178.7500  139.3740 C   0  0  0  0  0  2  0  0  0  0  0  0
  185.1100  177.9270  140.6330 C   0  0  0  0  0  2  0  0  0  0  0  0
  185.3690  178.3280  144.4280 C   0  0  0  0  0  2  0  0  0  0  0  0
  187.8160  178.5010  141.0610 O   0  0  0  0  0  1  0  0  0  0  0  0
  184.6310  178.2620  143.0900 C   0  0  2  0  0  3  0  0  0  0  0  0
  185.5380  178.6580  141.9100 C   0  0  1  0  0  3  0  0  0  0  0  0
  183.4210  179.1780  143.1400 C   0  0  0  0  0  1  0  0  0  0  0  0
  186.6000  177.4050  144.4470 C   0  0  0  0  0  2  0  0  0  0  0  0
  187.0470  178.5420  142.2260 C   0  0  1  0  0  3  0  0  0  0  0  0
  187.3350  177.3240  143.1010 C   0  0  0  0  0  2  0  0  0  0  0  0
  2  6  2  0  0  0  0
  3 10  1  0  0  0  0
  4  1  1  6  0  0  0
  5 10  1  0  0  0  0
  5  7  2  0  0  0  0
  6  8  1  0  0  0  0
  6 24  1  0  0  0  0
  7  9  1  0  0  0  0
  8  7  1  0  0  0  0
  9  4  1  0  0  0  0
  9 25  1  1  0  0  0
 10  1  2  0  0  0  0
 12 14  1  0  0  0  0
 12 11  1  0  0  0  0
 13  4  1  0  0  0  0
 13 12  1  0  0  0  0
 13 14  1  0  0  0  0
 14 11  1  0  0  0  0
 15 22  1  0  0  0  0
 16 20  2  0  0  0  0
 16 17  1  0  0  0  0
 17 22  2  0  0  0  0
 18 21  2  0  0  0  0
 19 21  1  0  0  0  0
 20 15  1  0  0  0  0
 21 11  1  0  0  0  0
 22 19  1  0  0  0  0
 24 23  2  0  0  0  0
 25 26  1  0  0  0  0
 26 30  1  0  0  0  0
 27 32  1  0  0  0  0
 28 33  1  0  0  0  0
 29 31  1  0  0  0  0
 29 27  1  0  0  0  0
 30 33  1  0  0  0  0
 30 29  1  0  0  0  0
 33 34  1  0  0  0  0
 34 32  1  0  0  0  0
M  END
>  <MODEL>
4

>  <REMARK>
 VINA RESULT:      -7.4      4.122      7.061
  Name = 
  6 active torsions:
  status: ('A' for Active; 'I' for Inactive)
    1  A    between atoms: C_8  and  C_27
    2  A    between atoms: C_9  and  C_13
    3  A    between atoms: C_9  and  C_14
    4  A    between atoms: C_13  and  C_29
    5  A    between atoms: C_17  and  C_30
    6  A    between atoms: C_20  and  C_23
                            x       y       z     vdW  Elec       q    Type
                         _______ _______ _______ _____ _____    ______ ____

>  <TORSDO>
F 6

$$$$
=
 OpenBabel11062415383D

 34 38  0  0  1  0  0  0  0  0999 V2000
  186.9190  177.9980  137.1640 C   0  0  0  0  0  3  0  0  0  0  0  0
  183.0560  176.3780  140.3710 O   0  0  0  0  0  0  0  0  0  0  0  0
  186.3390  177.2780  135.0370 F   0  0  0  0  0  0  0  0  0  0  0  0
  186.5780  178.4200  138.5640 C   0  0  1  0  0  3  0  0  0  0  0  0
  184.6250  177.4320  136.7210 N   0  0  0  0  0  0  0  0  0  0  0  0
  182.3000  176.8600  139.4860 C   0  0  0  0  0  0  0  0  0  0  0  0
  184.2210  177.5600  137.9490 C   0  0  0  0  0  0  0  0  0  0  0  0
  182.8340  177.3120  138.2340 N   0  0  0  0  0  2  0  0  0  0  0  0
  185.2020  177.9150  139.0570 C   0  0  2  0  0  3  0  0  0  0  0  0
  185.9860  177.5920  136.3070 C   0  0  0  0  0  0  0  0  0  0  0  0
  190.1630  177.8270  139.2700 C   0  0  1  0  0  3  0  0  0  0  0  0
  188.8250  177.3510  138.7220 C   0  0  1  0  0  3  0  0  0  0  0  0
  187.6850  177.9780  139.5090 C   0  0  1  0  0  3  0  0  0  0  0  0
  188.9610  178.7600  139.2510 C   0  0  1  0  0  3  0  0  0  0  0  0
  190.5660  178.6170  144.2620 C   0  0  0  0  0  2  0  0  0  0  0  0
  191.3050  176.3780  144.8440 C   0  0  0  0  0  3  0  0  0  0  0  0
  191.0990  176.5110  143.4150 N   0  0  0  0  0  0  0  0  0  0  0  0
  190.5560  175.9910  140.7620 O   0  0  0  0  0  0  0  0  0  0  0  0
  190.4230  178.1050  141.7660 N   0  0  0  0  0  2  0  0  0  0  0  0
  190.9960  177.7520  145.4380 C   0  0  0  0  0  3  0  0  0  0  0  0
  190.4040  177.2390  140.6270 C   0  0  0  0  0  0  0  0  0  0  0  0
  190.7020  177.6980  143.1110 C   0  0  0  0  0  0  0  0  0  0  0  0
  180.3890  177.4200  140.8290 N   0  0  0  0  0  2  0  0  0  0  0  0
  180.8560  176.9170  139.7320 C   0  0  0  0  0  3  0  0  0  0  0  0
  184.5970  178.9390  140.0240 C   0  0  0  0  0  2  0  0  0  0  0  0
  185.5040  179.1980  141.2280 C   0  0  0  0  0  2  0  0  0  0  0  0
  185.9930  177.8780  144.7860 C   0  0  0  0  0  2  0  0  0  0  0  0
  182.9020  179.0560  142.2520 O   0  0  0  0  0  1  0  0  0  0  0  0
  186.4110  178.1490  143.3400 C   0  0  2  0  0  3  0  0  0  0  0  0
  185.1990  178.2540  142.3970 C   0  0  1  0  0  3  0  0  0  0  0  0
  187.3350  177.0390  142.8700 C   0  0  0  0  0  1  0  0  0  0  0  0
  185.0660  178.9800  145.3270 C   0  0  0  0  0  2  0  0  0  0  0  0
  183.8740  178.5680  143.1300 C   0  0  1  0  0  3  0  0  0  0  0  0
  184.0980  179.5470  144.2790 C   0  0  0  0  0  2  0  0  0  0  0  0
  3 10  1  0  0  0  0
  4  1  1  6  0  0  0
  4  9  1  0  0  0  0
  4 13  1  0  0  0  0
  5  7  2  0  0  0  0
  6 24  1  0  0  0  0
  6  2  2  0  0  0  0
  7  8  1  0  0  0  0
  7  9  1  0  0  0  0
  8  6  1  0  0  0  0
  9 25  1  1  0  0  0
 10  5  1  0  0  0  0
 10  1  2  0  0  0  0
 11 21  1  0  0  0  0
 12 14  1  0  0  0  0
 12 11  1  0  0  0  0
 12 13  1  0  0  0  0
 14 11  1  0  0  0  0
 14 13  1  0  0  0  0
 15 20  1  0  0  0  0
 16 20  2  0  0  0  0
 17 16  1  0  0  0  0
 19 22  1  0  0  0  0
 21 18  2  0  0  0  0
 21 19  1  0  0  0  0
 22 17  2  0  0  0  0
 22 15  1  0  0  0  0
 24 23  2  0  0  0  0
 25 26  1  0  0  0  0
 26 30  1  0  0  0  0
 27 32  1  0  0  0  0
 28 33  1  0  0  0  0
 29 27  1  0  0  0  0
 30 33  1  0  0  0  0
 30 29  1  0  0  0  0
 31 29  1  0  0  0  0
 33 34  1  0  0  0  0
 34 32  1  0  0  0  0
M  END
>  <MODEL>
5

>  <REMARK>
 VINA RESULT:      -7.3      2.887      8.146
  Name = 
  6 active torsions:
  status: ('A' for Active; 'I' for Inactive)
    1  A    between atoms: C_8  and  C_27
    2  A    between atoms: C_9  and  C_13
    3  A    between atoms: C_9  and  C_14
    4  A    between atoms: C_13  and  C_29
    5  A    between atoms: C_17  and  C_30
    6  A    between atoms: C_20  and  C_23
                            x       y       z     vdW  Elec       q    Type
                         _______ _______ _______ _____ _____    ______ ____

>  <TORSDO>
F 6

$$$$
=
 OpenBabel11062415383D

 34 38  0  0  1  0  0  0  0  0999 V2000
  192.3400  176.3500  137.9960 C   0  0  0  0  0  3  0  0  0  0  0  0
  188.6520  172.6370  137.3210 O   0  0  0  0  0  0  0  0  0  0  0  0
  194.2360  175.5840  136.9020 F   0  0  0  0  0  0  0  0  0  0  0  0
  190.8530  176.4100  138.1940 C   0  0  1  0  0  3  0  0  0  0  0  0
  192.0980  174.6430  136.3200 N   0  0  0  0  0  0  0  0  0  0  0  0
  189.0170  172.6820  136.1160 C   0  0  0  0  0  0  0  0  0  0  0  0
  190.8320  174.4370  136.5270 C   0  0  0  0  0  0  0  0  0  0  0  0
  190.1690  173.4440  135.7280 N   0  0  0  0  0  2  0  0  0  0  0  0
  190.0890  175.1950  137.6190 C   0  0  2  0  0  3  0  0  0  0  0  0
  192.8930  175.5580  137.0810 C   0  0  0  0  0  0  0  0  0  0  0  0
  188.7840  177.8510  140.9040 C   0  0  1  0  0  3  0  0  0  0  0  0
  189.9420  177.9600  139.9210 C   0  0  1  0  0  3  0  0  0  0  0  0
  190.5470  176.5870  139.6740 C   0  0  1  0  0  3  0  0  0  0  0  0
  189.0540  176.7360  139.9030 C   0  0  1  0  0  3  0  0  0  0  0  0
  187.8200  177.5520  145.8720 C   0  0  0  0  0  2  0  0  0  0  0  0
  190.0950  177.0690  146.5730 C   0  0  0  0  0  3  0  0  0  0  0  0
  190.0100  177.2380  145.1360 N   0  0  0  0  0  0  0  0  0  0  0  0
  190.4660  177.0640  142.4210 O   0  0  0  0  0  0  0  0  0  0  0  0
  188.4330  177.7000  143.4000 N   0  0  0  0  0  2  0  0  0  0  0  0
  188.6800  177.2990  147.1020 C   0  0  0  0  0  3  0  0  0  0  0  0
  189.2970  177.5220  142.2730 C   0  0  0  0  0  0  0  0  0  0  0  0
  188.8020  177.4890  144.7670 C   0  0  0  0  0  0  0  0  0  0  0  0
  187.1640  171.3220  135.4200 N   0  0  0  0  0  2  0  0  0  0  0  0
  188.2720  171.9130  135.1140 C   0  0  0  0  0  3  0  0  0  0  0  0
  188.7040  175.6400  137.1380 C   0  0  0  0  0  2  0  0  0  0  0  0
  188.7850  176.8210  136.1680 C   0  0  0  0  0  2  0  0  0  0  0  0
  184.9790  177.0230  136.4990 C   0  0  0  0  0  2  0  0  0  0  0  0
  188.3340  179.4130  137.1240 O   0  0  0  0  0  1  0  0  0  0  0  0
  186.2950  176.4340  135.9890 C   0  0  2  0  0  3  0  0  0  0  0  0
  187.4210  177.4840  135.9480 C   0  0  1  0  0  3  0  0  0  0  0  0
  186.0800  175.8560  134.6000 C   0  0  0  0  0  1  0  0  0  0  0  0
  185.1290  177.6110  137.9130 C   0  0  0  0  0  2  0  0  0  0  0  0
  187.1590  178.7030  136.8620 C   0  0  1  0  0  3  0  0  0  0  0  0
  186.4860  178.2810  138.1660 C   0  0  0  0  0  2  0  0  0  0  0  0
  3 10  1  0  0  0  0
  4  1  1  1  0  0  0
  4 13  1  0  0  0  0
  5  7  2  0  0  0  0
  5 10  1  0  0  0  0
  6  2  2  0  0  0  0
  7  9  1  0  0  0  0
  8  6  1  0  0  0  0
  8  7  1  0  0  0  0
  9 25  1  6  0  0  0
  9  4  1  0  0  0  0
 10  1  2  0  0  0  0
 11 21  1  0  0  0  0
 12 11  1  0  0  0  0
 13 14  1  0  0  0  0
 13 12  1  0  0  0  0
 14 12  1  0  0  0  0
 14 11  1  0  0  0  0
 15 20  1  0  0  0  0
 16 20  2  0  0  0  0
 17 16  1  0  0  0  0
 19 22  1  0  0  0  0
 21 18  2  0  0  0  0
 21 19  1  0  0  0  0
 22 17  2  0  0  0  0
 22 15  1  0  0  0  0
 24 23  2  0  0  0  0
 24  6  1  0  0  0  0
 26 25  1  0  0  0  0
 27 32  1  0  0  0  0
 29 27  1  0  0  0  0
 30 29  1  0  0  0  0
 30 26  1  0  0  0  0
 30 33  1  0  0  0  0
 31 29  1  0  0  0  0
 32 34  1  0  0  0  0
 33 28  1  0  0  0  0
 33 34  1  0  0  0  0
M  END
>  <MODEL>
6

>  <REMARK>
 VINA RESULT:      -7.1      4.064      8.353
  Name = 
  6 active torsions:
  status: ('A' for Active; 'I' for Inactive)
    1  A    between atoms: C_8  and  C_27
    2  A    between atoms: C_9  and  C_13
    3  A    between atoms: C_9  and  C_14
    4  A    between atoms: C_13  and  C_29
    5  A    between atoms: C_17  and  C_30
    6  A    between atoms: C_20  and  C_23
                            x       y       z     vdW  Elec       q    Type
                         _______ _______ _______ _____ _____    ______ ____

>  <TORSDO>
F 6

$$$$
=
 OpenBabel11062415383D

 34 38  0  0  1  0  0  0  0  0999 V2000
  186.0110  178.6720  139.2870 C   0  0  0  0  0  3  0  0  0  0  0  0
  181.9280  175.3490  139.6510 O   0  0  0  0  0  0  0  0  0  0  0  0
  186.9170  178.3550  137.1760 F   0  0  0  0  0  0  0  0  0  0  0  0
  184.8700  178.6370  140.2630 C   0  0  1  0  0  3  0  0  0  0  0  0
  184.6590  177.6310  137.5930 N   0  0  0  0  0  0  0  0  0  0  0  0
  181.6260  175.8070  138.5170 C   0  0  0  0  0  0  0  0  0  0  0  0
  183.6630  177.3470  138.3790 C   0  0  0  0  0  0  0  0  0  0  0  0
  182.5270  176.6730  137.8130 N   0  0  0  0  0  2  0  0  0  0  0  0
  183.7260  177.6770  139.8630 C   0  0  2  0  0  3  0  0  0  0  0  0
  185.8740  178.2470  138.0340 C   0  0  0  0  0  0  0  0  0  0  0  0
  184.6080  178.8390  143.9500 C   0  0  1  0  0  3  0  0  0  0  0  0
  185.0750  179.4190  142.6220 C   0  0  1  0  0  3  0  0  0  0  0  0
  185.4000  178.2970  141.6480 C   0  0  1  0  0  3  0  0  0  0  0  0
  184.2610  178.1450  142.6400 C   0  0  1  0  0  3  0  0  0  0  0  0
  187.4920  178.5970  148.1120 C   0  0  0  0  0  2  0  0  0  0  0  0
  189.1110  177.0080  147.2430 C   0  0  0  0  0  3  0  0  0  0  0  0
  188.0990  177.3270  146.2540 N   0  0  0  0  0  0  0  0  0  0  0  0
  186.3500  177.2000  144.1260 O   0  0  0  0  0  0  0  0  0  0  0  0
  186.1330  178.6530  145.9530 N   0  0  0  0  0  2  0  0  0  0  0  0
  188.7670  177.8480  148.4730 C   0  0  0  0  0  3  0  0  0  0  0  0
  185.7530  178.1800  144.6560 C   0  0  0  0  0  0  0  0  0  0  0  0
  187.2400  178.1650  146.7200 C   0  0  0  0  0  0  0  0  0  0  0  0
  180.0400  175.8130  136.7130 N   0  0  0  0  0  2  0  0  0  0  0  0
  180.3550  175.4110  137.9010 C   0  0  0  0  0  3  0  0  0  0  0  0
  182.3880  178.2370  140.3620 C   0  0  0  0  0  2  0  0  0  0  0  0
  182.1630  179.6790  139.9030 C   0  0  0  0  0  2  0  0  0  0  0  0
  178.9310  181.7240  139.8650 C   0  0  0  0  0  2  0  0  0  0  0  0
  181.4730  179.7870  137.1920 O   0  0  0  0  0  1  0  0  0  0  0  0
  180.0230  180.8740  140.5150 C   0  0  2  0  0  3  0  0  0  0  0  0
  180.7070  179.9380  139.5010 C   0  0  1  0  0  3  0  0  0  0  0  0
  179.4170  180.0560  141.6420 C   0  0  0  0  0  1  0  0  0  0  0  0
  179.4870  182.5910  138.7220 C   0  0  0  0  0  2  0  0  0  0  0  0
  180.5310  180.3870  138.0320 C   0  0  1  0  0  3  0  0  0  0  0  0
  180.5950  181.9080  137.9080 C   0  0  0  0  0  2  0  0  0  0  0  0
  3 10  1  0  0  0  0
  4  1  1  6  0  0  0
  4 13  1  0  0  0  0
  5 10  1  0  0  0  0
  5  7  2  0  0  0  0
  6  2  2  0  0  0  0
  7  9  1  0  0  0  0
  8  7  1  0  0  0  0
  8  6  1  0  0  0  0
  9  4  1  0  0  0  0
  9 25  1  6  0  0  0
 10  1  2  0  0  0  0
 11 21  1  0  0  0  0
 12 14  1  0  0  0  0
 12 11  1  0  0  0  0
 13 12  1  0  0  0  0
 13 14  1  0  0  0  0
 14 11  1  0  0  0  0
 15 20  1  0  0  0  0
 16 20  2  0  0  0  0
 17 22  2  0  0  0  0
 17 16  1  0  0  0  0
 18 21  2  0  0  0  0
 19 22  1  0  0  0  0
 21 19  1  0  0  0  0
 22 15  1  0  0  0  0
 23 24  2  0  0  0  0
 24  6  1  0  0  0  0
 26 25  1  0  0  0  0
 27 29  1  0  0  0  0
 28 33  1  0  0  0  0
 29 31  1  0  0  0  0
 30 26  1  0  0  0  0
 30 29  1  0  0  0  0
 32 27  1  0  0  0  0
 33 30  1  0  0  0  0
 34 33  1  0  0  0  0
 34 32  1  0  0  0  0
M  END
>  <MODEL>
7

>  <REMARK>
 VINA RESULT:      -7.0      3.405      9.021
  Name = 
  6 active torsions:
  status: ('A' for Active; 'I' for Inactive)
    1  A    between atoms: C_8  and  C_27
    2  A    between atoms: C_9  and  C_13
    3  A    between atoms: C_9  and  C_14
    4  A    between atoms: C_13  and  C_29
    5  A    between atoms: C_17  and  C_30
    6  A    between atoms: C_20  and  C_23
                            x       y       z     vdW  Elec       q    Type
                         _______ _______ _______ _____ _____    ______ ____

>  <TORSDO>
F 6

$$$$
=
 OpenBabel11062415383D

 34 38  0  0  1  0  0  0  0  0999 V2000
  188.3700  178.1750  136.5890 C   0  0  0  0  0  3  0  0  0  0  0  0
  185.8240  173.6140  137.3350 O   0  0  0  0  0  0  0  0  0  0  0  0
  189.6060  177.9150  134.6430 F   0  0  0  0  0  0  0  0  0  0  0  0
  187.2050  177.8460  137.4770 C   0  0  1  0  0  3  0  0  0  0  0  0
  187.7500  176.4360  135.0490 N   0  0  0  0  0  0  0  0  0  0  0  0
  185.5280  173.7330  136.1160 C   0  0  0  0  0  0  0  0  0  0  0  0
  186.8380  175.9080  135.8090 C   0  0  0  0  0  0  0  0  0  0  0  0
  186.1250  174.7630  135.3150 N   0  0  0  0  0  2  0  0  0  0  0  0
  186.5700  176.4640  137.2010 C   0  0  2  0  0  3  0  0  0  0  0  0
  188.5730  177.5400  135.4370 C   0  0  0  0  0  0  0  0  0  0  0  0
  189.8330  177.7300  140.0820 C   0  0  1  0  0  3  0  0  0  0  0  0
  188.7990  177.0290  139.2120 C   0  0  1  0  0  3  0  0  0  0  0  0
  187.6320  177.9630  138.9340 C   0  0  1  0  0  3  0  0  0  0  0  0
  189.0430  178.5110  139.0410 C   0  0  1  0  0  3  0  0  0  0  0  0
  190.4120  176.8920  145.0480 C   0  0  0  0  0  2  0  0  0  0  0  0
  188.2620  177.7860  145.7390 C   0  0  0  0  0  3  0  0  0  0  0  0
  188.4270  177.8610  144.3000 N   0  0  0  0  0  0  0  0  0  0  0  0
  188.2580  178.6220  141.6550 O   0  0  0  0  0  0  0  0  0  0  0  0
  189.9950  177.3420  142.5720 N   0  0  0  0  0  2  0  0  0  0  0  0
  189.5330  177.1250  146.2690 C   0  0  0  0  0  3  0  0  0  0  0  0
  189.2950  177.9250  141.4670 C   0  0  0  0  0  0  0  0  0  0  0  0
  189.5700  177.3910  143.9380 C   0  0  0  0  0  0  0  0  0  0  0  0
  184.5580  171.5470  135.9010 N   0  0  0  0  0  2  0  0  0  0  0  0
  184.5950  172.7790  135.5100 C   0  0  0  0  0  3  0  0  0  0  0  0
  185.0660  176.5220  137.4930 C   0  0  0  0  0  2  0  0  0  0  0  0
  184.5140  177.9440  137.3770 C   0  0  0  0  0  2  0  0  0  0  0  0
  182.5910  177.2130  140.6020 C   0  0  0  0  0  2  0  0  0  0  0  0
  184.5540  180.3850  138.7460 O   0  0  0  0  0  1  0  0  0  0  0  0
  183.0320  176.9450  139.1620 C   0  0  2  0  0  3  0  0  0  0  0  0
  183.4440  178.2380  138.4340 C   0  0  1  0  0  3  0  0  0  0  0  0
  181.8990  176.2690  138.4090 C   0  0  0  0  0  1  0  0  0  0  0  0
  183.7050  177.8840  141.4240 C   0  0  0  0  0  2  0  0  0  0  0  0
  183.8080  179.3950  139.3920 C   0  0  1  0  0  3  0  0  0  0  0  0
  184.5530  178.8800  140.6210 C   0  0  0  0  0  2  0  0  0  0  0  0
  3 10  1  0  0  0  0
  4  1  1  6  0  0  0
  4 13  1  0  0  0  0
  5 10  1  0  0  0  0
  5  7  2  0  0  0  0
  6  2  2  0  0  0  0
  7  9  1  0  0  0  0
  8  7  1  0  0  0  0
  8  6  1  0  0  0  0
  9  4  1  0  0  0  0
  9 25  1  6  0  0  0
 10  1  2  0  0  0  0
 11 21  1  0  0  0  0
 12 11  1  0  0  0  0
 13 14  1  0  0  0  0
 13 12  1  0  0  0  0
 14 12  1  0  0  0  0
 14 11  1  0  0  0  0
 15 20  1  0  0  0  0
 16 20  2  0  0  0  0
 17 16  1  0  0  0  0
 19 22  1  0  0  0  0
 21 18  2  0  0  0  0
 21 19  1  0  0  0  0
 22 17  2  0  0  0  0
 22 15  1  0  0  0  0
 24 23  2  0  0  0  0
 24  6  1  0  0  0  0
 26 25  1  0  0  0  0
 26 30  1  0  0  0  0
 27 32  1  0  0  0  0
 28 33  1  0  0  0  0
 29 27  1  0  0  0  0
 30 29  1  0  0  0  0
 30 33  1  0  0  0  0
 31 29  1  0  0  0  0
 33 34  1  0  0  0  0
 34 32  1  0  0  0  0
M  END
>  <MODEL>
8

>  <REMARK>
 VINA RESULT:      -7.0      3.264      8.394
  Name = 
  6 active torsions:
  status: ('A' for Active; 'I' for Inactive)
    1  A    between atoms: C_8  and  C_27
    2  A    between atoms: C_9  and  C_13
    3  A    between atoms: C_9  and  C_14
    4  A    between atoms: C_13  and  C_29
    5  A    between atoms: C_17  and  C_30
    6  A    between atoms: C_20  and  C_23
                            x       y       z     vdW  Elec       q    Type
                         _______ _______ _______ _____ _____    ______ ____

>  <TORSDO>
F 6

$$$$
=
 OpenBabel11062415383D

 34 38  0  0  1  0  0  0  0  0999 V2000
  187.7180  178.4320  136.8290 C   0  0  0  0  0  3  0  0  0  0  0  0
  183.7570  175.4440  138.6220 O   0  0  0  0  0  0  0  0  0  0  0  0
  187.9880  177.8760  134.5940 F   0  0  0  0  0  0  0  0  0  0  0  0
  186.8940  178.5590  138.0770 C   0  0  1  0  0  3  0  0  0  0  0  0
  185.9050  177.3490  135.6810 N   0  0  0  0  0  0  0  0  0  0  0  0
  183.1720  175.8240  137.5740 C   0  0  0  0  0  0  0  0  0  0  0  0
  185.1560  177.2010  136.7320 C   0  0  0  0  0  0  0  0  0  0  0  0
  183.8790  176.5630  136.5680 N   0  0  0  0  0  2  0  0  0  0  0  0
  185.6430  177.6510  138.1030 C   0  0  2  0  0  3  0  0  0  0  0  0
  187.2200  177.9140  135.7100 C   0  0  0  0  0  0  0  0  0  0  0  0
  189.9120  177.0600  139.6070 C   0  0  1  0  0  3  0  0  0  0  0  0
  188.4610  176.9510  139.1610 C   0  0  1  0  0  3  0  0  0  0  0  0
  187.7730  178.3010  139.2920 C   0  0  1  0  0  3  0  0  0  0  0  0
  189.2360  178.2220  138.8940 C   0  0  1  0  0  3  0  0  0  0  0  0
  187.5500  176.7560  144.0820 C   0  0  0  0  0  2  0  0  0  0  0  0
  189.2740  177.8610  145.3880 C   0  0  0  0  0  3  0  0  0  0  0  0
  189.6380  177.7880  143.9870 N   0  0  0  0  0  0  0  0  0  0  0  0
  191.0610  177.6480  141.6280 O   0  0  0  0  0  0  0  0  0  0  0  0
  188.8260  176.9890  141.8850 N   0  0  0  0  0  2  0  0  0  0  0  0
  187.8900  177.2210  145.4910 C   0  0  0  0  0  3  0  0  0  0  0  0
  189.9830  177.2660  141.0890 C   0  0  0  0  0  0  0  0  0  0  0  0
  188.7240  177.1970  143.2980 C   0  0  0  0  0  0  0  0  0  0  0  0
  181.3650  174.2440  137.4930 N   0  0  0  0  0  2  0  0  0  0  0  0
  181.7640  175.4680  137.3710 C   0  0  0  0  0  3  0  0  0  0  0  0
  184.5220  178.3420  138.8880 C   0  0  0  0  0  2  0  0  0  0  0  0
  184.4830  177.8900  140.3490 C   0  0  0  0  0  2  0  0  0  0  0  0
  182.1280  179.0990  143.1110 C   0  0  0  0  0  2  0  0  0  0  0  0
  186.1510  179.3510  142.0570 O   0  0  0  0  0  1  0  0  0  0  0  0
  182.4690  178.5420  141.7280 C   0  0  2  0  0  3  0  0  0  0  0  0
  183.8790  178.9570  141.2690 C   0  0  1  0  0  3  0  0  0  0  0  0
  181.4370  179.0270  140.7240 C   0  0  0  0  0  1  0  0  0  0  0  0
  183.1310  178.6280  144.1780 C   0  0  0  0  0  2  0  0  0  0  0  0
  184.8060  179.3810  142.4320 C   0  0  1  0  0  3  0  0  0  0  0  0
  184.5740  178.5140  143.6670 C   0  0  0  0  0  2  0  0  0  0  0  0
  3 10  1  0  0  0  0
  4  1  1  6  0  0  0
  4  9  1  0  0  0  0
  4 13  1  0  0  0  0
  5 10  1  0  0  0  0
  5  7  2  0  0  0  0
  6  2  2  0  0  0  0
  7  9  1  0  0  0  0
  8  7  1  0  0  0  0
  8  6  1  0  0  0  0
  9 25  1  6  0  0  0
 10  1  2  0  0  0  0
 11 21  1  0  0  0  0
 12 13  1  0  0  0  0
 12 11  1  0  0  0  0
 14 12  1  0  0  0  0
 14 13  1  0  0  0  0
 14 11  1  0  0  0  0
 15 20  1  0  0  0  0
 16 20  2  0  0  0  0
 17 16  1  0  0  0  0
 19 22  1  0  0  0  0
 21 18  2  0  0  0  0
 21 19  1  0  0  0  0
 22 17  2  0  0  0  0
 22 15  1  0  0  0  0
 24 23  2  0  0  0  0
 24  6  1  0  0  0  0
 25 26  1  0  0  0  0
 26 30  1  0  0  0  0
 27 32  1  0  0  0  0
 28 33  1  0  0  0  0
 29 27  1  0  0  0  0
 30 29  1  0  0  0  0
 30 33  1  0  0  0  0
 31 29  1  0  0  0  0
 33 34  1  0  0  0  0
 34 32  1  0  0  0  0
M  END
>  <MODEL>
9

>  <REMARK>
 VINA RESULT:      -6.7      2.867      8.374
  Name = 
  6 active torsions:
  status: ('A' for Active; 'I' for Inactive)
    1  A    between atoms: C_8  and  C_27
    2  A    between atoms: C_9  and  C_13
    3  A    between atoms: C_9  and  C_14
    4  A    between atoms: C_13  and  C_29
    5  A    between atoms: C_17  and  C_30
    6  A    between atoms: C_20  and  C_23
                            x       y       z     vdW  Elec       q    Type
                         _______ _______ _______ _____ _____    ______ ____

>  <TORSDO>
F 6

$$$$
