=
 OpenBabel11062412553D

 50 55  0  0  1  0  0  0  0  0999 V2000
  181.8860  177.9550  141.1050 C   0  0  0  0  0  2  0  0  0  0  0  0
  184.0410  180.2260  139.0620 F   0  0  0  0  0  0  0  0  0  0  0  0
  183.9510  177.9150  138.5670 C   0  0  0  0  0  3  0  0  0  0  0  0
  183.2890  179.0790  139.2480 C   0  0  1  0  0  3  0  0  0  0  0  0
  183.5910  176.6170  138.6420 C   0  0  0  0  0  0  0  0  0  0  0  0
  183.0410  178.8160  140.7060 C   0  0  0  0  0  0  0  0  0  0  0  0
  181.3980  177.0920  139.9460 C   0  0  0  0  0  2  0  0  0  0  0  0
  182.4820  176.0940  139.5400 C   0  0  0  0  0  2  0  0  0  0  0  0
  184.8350  179.3730  142.5240 C   0  0  0  0  0  3  0  0  0  0  0  0
  183.9490  179.0970  141.6040 C   0  0  0  0  0  0  0  0  0  0  0  0
  187.8020  175.3640  136.5470 C   0  0  2  0  0  0  0  0  0  0  0  0
  186.3270  175.0310  136.3900 C   0  0  1  0  0  0  0  0  0  0  0  0
  185.2280  176.0540  136.7210 C   0  0  0  0  0  2  0  0  0  0  0  0
  185.0900  173.2800  137.4700 C   0  0  0  0  0  3  0  0  0  0  0  0
  187.1430  175.2730  135.1390 C   0  0  1  0  0  0  0  0  0  0  0  0
  186.9550  176.5510  134.5950 O   0  0  0  0  0  1  0  0  0  0  0  0
  186.0030  173.6260  136.6150 N   0  0  0  0  0  0  0  0  0  0  0  0
  184.3860  175.6050  137.8950 C   0  0  0  0  0  0  0  0  0  0  0  0
  184.3080  174.2980  138.2000 C   0  0  0  0  0  3  0  0  0  0  0  0
  188.6120  174.9620  135.3250 C   0  0  0  0  0  2  0  0  0  0  0  0
  188.9010  177.5170  136.1690 O   0  0  0  0  0  1  0  0  0  0  0  0
  188.0680  176.8110  137.0470 C   0  0  2  0  0  3  0  0  0  0  0  0
  188.6920  176.8020  138.4540 C   0  0  1  0  0  3  0  0  0  0  0  0
  190.6080  175.4190  137.6950 C   0  0  0  0  0  3  0  0  0  0  0  0
  191.0500  177.1490  139.4360 C   0  0  0  0  0  2  0  0  0  0  0  0
  193.3710  177.5730  139.8110 O   0  0  0  0  0  0  0  0  0  0  0  0
  190.1410  176.3920  138.4960 C   0  0  0  0  0  0  0  0  0  0  0  0
  192.0300  175.0450  137.6720 C   0  0  0  0  0  3  0  0  0  0  0  0
  192.9410  175.7190  138.3890 C   0  0  0  0  0  0  0  0  0  0  0  0
  192.5110  176.8530  139.2310 C   0  0  0  0  0  0  0  0  0  0  0  0
  194.2980  175.3770  138.3500 O   0  0  0  0  0  0  0  0  0  0  0  0
  194.7650  174.1070  137.9070 C   0  0  0  0  0  1  0  0  0  0  0  0
  187.7900  178.0890  140.2730 O   0  0  0  0  0  1  0  0  0  0  0  0
  188.4740  178.0770  139.2130 C   0  0  0  0  0  0  0  0  0  0  0  0
  189.0440  179.2540  138.7470 O   0  0  0  0  0  0  0  0  0  0  0  0
  185.9500  178.1900  144.4530 C   0  0  0  0  0  0  0  0  0  0  0  0
  185.6820  178.3420  143.1440 C   0  0  0  0  0  3  0  0  0  0  0  0
  183.9060  178.5170  145.8400 O   0  0  0  0  0  0  0  0  0  0  0  0
  185.7710  179.7940  146.1920 O   0  0  0  0  0  1  0  0  0  0  0  0
  185.2040  178.8940  145.5160 C   0  0  0  0  0  0  0  0  0  0  0  0
  186.9500  176.9900  146.2680 O   0  0  0  0  0  1  0  0  0  0  0  0
  186.9500  177.1560  144.8780 C   0  0  2  0  0  3  0  0  0  0  0  0
  188.9310  176.2940  143.6230 C   0  0  2  0  0  3  0  0  0  0  0  0
  190.3780  176.3040  144.0070 C   0  0  0  0  0  2  0  0  0  0  0  0
  189.2140  177.8250  145.4080 O   0  0  0  0  0  0  0  0  0  0  0  0
  188.8080  176.4880  142.2490 O   0  0  0  0  0  1  0  0  0  0  0  0
  190.4980  177.4680  144.9680 C   0  0  1  0  0  3  0  0  0  0  0  0
  188.3500  177.4780  144.3580 C   0  0  2  0  0  3  0  0  0  0  0  0
  190.5670  176.5300  147.1640 O   0  0  0  0  0  1  0  0  0  0  0  0
  191.3590  177.0880  146.1610 C   0  0  0  0  0  2  0  0  0  0  0  0
  3  5  2  0  0  0  0
  3  4  1  0  0  0  0
  4  2  1  1  0  0  0
  4  6  1  0  0  0  0
  5  8  1  0  0  0  0
  6  1  1  0  0  0  0
  6 10  2  0  0  0  0
  7  1  1  0  0  0  0
  8  7  1  0  0  0  0
  9 37  1  0  0  0  0
 10  9  2  0  0  0  0
 11 22  1  1  0  0  0
 12 11  1  0  0  0  0
 12 17  1  0  0  0  0
 12 13  1  1  0  0  0
 13 18  1  0  0  0  0
 14 19  1  0  0  0  0
 15 16  1  6  0  0  0
 15 20  1  0  0  0  0
 15 12  1  0  0  0  0
 15 11  1  0  0  0  0
 17 14  2  0  0  0  0
 18 19  2  0  0  0  0
 18  5  1  0  0  0  0
 20 11  1  0  0  0  0
 22 21  1  6  0  0  0
 22 23  1  0  0  0  0
 23 27  1  0  0  0  0
 23 34  1  6  0  0  0
 24 27  2  0  0  0  0
 27 25  1  0  0  0  0
 28 24  1  0  0  0  0
 28 29  2  0  0  0  0
 29 30  1  0  0  0  0
 30 25  1  0  0  0  0
 30 26  2  0  0  0  0
 31 29  1  0  0  0  0
 32 31  1  0  0  0  0
 34 33  1  0  0  0  0
 35 34  2  0  0  0  0
 36 42  1  0  0  0  0
 36 40  1  0  0  0  0
 37 36  2  0  0  0  0
 40 38  2  0  0  0  0
 40 39  1  0  0  0  0
 42 41  1  1  0  0  0
 43 46  1  6  0  0  0
 43 44  1  0  0  0  0
 43 48  1  0  0  0  0
 44 47  1  0  0  0  0
 47 45  1  0  0  0  0
 47 50  1  1  0  0  0
 48 42  1  1  0  0  0
 48 45  1  0  0  0  0
 50 49  1  0  0  0  0
M  END
>  <MODEL>
1

>  <REMARK>
 VINA RESULT:      -8.8      0.000      0.000
  Name = 
  11 active torsions:
  status: ('A' for Active; 'I' for Inactive)
    1  A    between atoms: C_5  and  C_30
    2  A    between atoms: C_6  and  C_23
    3  A    between atoms: C_13  and  C_42
    4  A    between atoms: C_15  and  C_20
    5  A    between atoms: C_15  and  C_46
    6  A    between atoms: C_20  and  C_33
    7  A    between atoms: C_22  and  C_44
    8  A    between atoms: C_23  and  C_30
    9  A    between atoms: C_23  and  C_36
   10  A    between atoms: O_35  and  C_40
   11  A    between atoms: C_41  and  C_50
                            x       y       z     vdW  Elec       q    Type
                         _______ _______ _______ _____ _____    ______ ____

>  <TORSDO>
F 11

$$$$
=
 OpenBabel11062412553D

 50 55  0  0  1  0  0  0  0  0999 V2000
  182.5690  177.5020  134.6280 C   0  0  0  0  0  2  0  0  0  0  0  0
  181.3140  174.9660  137.0720 F   0  0  0  0  0  0  0  0  0  0  0  0
  180.7780  177.2520  137.3550 C   0  0  0  0  0  3  0  0  0  0  0  0
  181.2450  176.1800  136.4120 C   0  0  1  0  0  3  0  0  0  0  0  0
  180.7180  178.5780  137.1160 C   0  0  0  0  0  0  0  0  0  0  0  0
  182.5540  176.5280  135.7630 C   0  0  0  0  0  0  0  0  0  0  0  0
  181.3030  178.3510  134.5960 C   0  0  0  0  0  2  0  0  0  0  0  0
  181.2280  179.2340  135.8420 C   0  0  0  0  0  2  0  0  0  0  0  0
  184.8400  175.9010  136.8640 C   0  0  0  0  0  3  0  0  0  0  0  0
  183.6900  176.2100  136.3270 C   0  0  0  0  0  0  0  0  0  0  0  0
  180.8110  179.8840  141.8030 C   0  0  2  0  0  0  0  0  0  0  0  0
  179.8370  179.9520  140.6370 C   0  0  1  0  0  0  0  0  0  0  0  0
  179.8340  178.8910  139.5250 C   0  0  0  0  0  2  0  0  0  0  0  0
  179.5910  181.7130  139.0250 C   0  0  0  0  0  3  0  0  0  0  0  0
  179.3050  179.5360  141.9920 C   0  0  1  0  0  0  0  0  0  0  0  0
  179.1270  178.1520  142.1130 O   0  0  0  0  0  1  0  0  0  0  0  0
  179.4600  181.3080  140.2510 N   0  0  0  0  0  0  0  0  0  0  0  0
  180.2320  179.4830  138.1910 C   0  0  0  0  0  0  0  0  0  0  0  0
  180.0710  180.8000  137.9700 C   0  0  0  0  0  3  0  0  0  0  0  0
  180.1170  180.0920  143.1400 C   0  0  0  0  0  2  0  0  0  0  0  0
  181.6400  177.8630  142.9050 O   0  0  0  0  0  1  0  0  0  0  0  0
  181.7610  178.6550  141.7550 C   0  0  2  0  0  3  0  0  0  0  0  0
  183.2250  179.0970  141.5860 C   0  0  1  0  0  3  0  0  0  0  0  0
  185.3120  178.0540  142.4340 C   0  0  0  0  0  3  0  0  0  0  0  0
  183.7240  178.9920  144.1130 C   0  0  0  0  0  2  0  0  0  0  0  0
  184.6430  179.1870  146.3100 O   0  0  0  0  0  0  0  0  0  0  0  0
  184.1450  178.6660  142.7000 C   0  0  0  0  0  0  0  0  0  0  0  0
  186.2550  177.6820  143.5000 C   0  0  0  0  0  3  0  0  0  0  0  0
  186.0300  178.0140  144.7790 C   0  0  0  0  0  0  0  0  0  0  0  0
  184.8060  178.7590  145.1340 C   0  0  0  0  0  0  0  0  0  0  0  0
  186.9390  177.6790  145.7900 O   0  0  0  0  0  0  0  0  0  0  0  0
  188.2910  177.3180  145.5290 C   0  0  0  0  0  1  0  0  0  0  0  0
  184.6010  179.5310  139.6640 O   0  0  0  0  0  1  0  0  0  0  0  0
  183.8050  178.7460  140.2480 C   0  0  0  0  0  0  0  0  0  0  0  0
  183.4690  177.5370  139.6550 O   0  0  0  0  0  0  0  0  0  0  0  0
  186.7610  177.5170  137.1130 C   0  0  0  0  0  0  0  0  0  0  0  0
  185.6710  176.8820  137.5800 C   0  0  0  0  0  3  0  0  0  0  0  0
  188.1480  176.6850  135.2180 O   0  0  0  0  0  1  0  0  0  0  0  0
  186.4990  178.2330  134.8670 O   0  0  0  0  0  0  0  0  0  0  0  0
  187.1420  177.5220  135.6870 C   0  0  0  0  0  0  0  0  0  0  0  0
  188.3850  179.2610  137.3400 O   0  0  0  0  0  1  0  0  0  0  0  0
  187.5550  178.3840  138.0460 C   0  0  2  0  0  3  0  0  0  0  0  0
  189.2280  178.4360  139.9010 C   0  0  2  0  0  3  0  0  0  0  0  0
  190.4910  177.6480  140.0660 C   0  0  0  0  0  2  0  0  0  0  0  0
  189.1650  176.6100  138.3930 O   0  0  0  0  0  0  0  0  0  0  0  0
  188.6300  178.6310  141.1430 O   0  0  0  0  0  1  0  0  0  0  0  0
  190.2510  176.3920  139.2540 C   0  0  1  0  0  3  0  0  0  0  0  0
  188.3530  177.5500  139.0480 C   0  0  2  0  0  3  0  0  0  0  0  0
  191.4460  174.6960  138.0710 O   0  0  0  0  0  1  0  0  0  0  0  0
  191.4850  176.0400  138.4400 C   0  0  0  0  0  2  0  0  0  0  0  0
  1  6  1  0  0  0  0
  4  2  1  1  0  0  0
  4  3  1  0  0  0  0
  5  3  2  0  0  0  0
  5 18  1  0  0  0  0
  6 10  2  0  0  0  0
  6  4  1  0  0  0  0
  7  1  1  0  0  0  0
  7  8  1  0  0  0  0
  8  5  1  0  0  0  0
  9 37  1  0  0  0  0
 10  9  2  0  0  0  0
 11 22  1  6  0  0  0
 11 15  1  0  0  0  0
 11 20  1  0  0  0  0
 12 13  1  6  0  0  0
 12 11  1  0  0  0  0
 12 15  1  0  0  0  0
 14 17  2  0  0  0  0
 15 16  1  1  0  0  0
 15 20  1  0  0  0  0
 17 12  1  0  0  0  0
 18 13  1  0  0  0  0
 19 18  2  0  0  0  0
 19 14  1  0  0  0  0
 22 21  1  1  0  0  0
 23 34  1  6  0  0  0
 23 22  1  0  0  0  0
 23 27  1  0  0  0  0
 24 27  2  0  0  0  0
 24 28  1  0  0  0  0
 25 30  1  0  0  0  0
 27 25  1  0  0  0  0
 28 29  2  0  0  0  0
 29 30  1  0  0  0  0
 29 31  1  0  0  0  0
 30 26  2  0  0  0  0
 32 31  1  0  0  0  0
 33 34  1  0  0  0  0
 35 34  2  0  0  0  0
 36 37  2  0  0  0  0
 36 42  1  0  0  0  0
 38 40  1  0  0  0  0
 39 40  2  0  0  0  0
 40 36  1  0  0  0  0
 42 41  1  6  0  0  0
 43 44  1  0  0  0  0
 43 46  1  1  0  0  0
 45 48  1  0  0  0  0
 45 47  1  0  0  0  0
 47 50  1  6  0  0  0
 47 44  1  0  0  0  0
 48 42  1  6  0  0  0
 48 43  1  0  0  0  0
 49 50  1  0  0  0  0
M  END
>  <MODEL>
2

>  <REMARK>
 VINA RESULT:      -8.3      3.054      8.023
  Name = 
  11 active torsions:
  status: ('A' for Active; 'I' for Inactive)
    1  A    between atoms: C_5  and  C_30
    2  A    between atoms: C_6  and  C_23
    3  A    between atoms: C_13  and  C_42
    4  A    between atoms: C_15  and  C_20
    5  A    between atoms: C_15  and  C_46
    6  A    between atoms: C_20  and  C_33
    7  A    between atoms: C_22  and  C_44
    8  A    between atoms: C_23  and  C_30
    9  A    between atoms: C_23  and  C_36
   10  A    between atoms: O_35  and  C_40
   11  A    between atoms: C_41  and  C_50
                            x       y       z     vdW  Elec       q    Type
                         _______ _______ _______ _____ _____    ______ ____

>  <TORSDO>
F 11

$$$$
=
 OpenBabel11062412553D

 50 55  0  0  1  0  0  0  0  0999 V2000
  187.8750  177.9620  136.1160 C   0  0  0  0  0  2  0  0  0  0  0  0
  188.1000  174.5280  137.5770 F   0  0  0  0  0  0  0  0  0  0  0  0
  186.0460  175.3140  136.7070 C   0  0  0  0  0  3  0  0  0  0  0  0
  187.5390  175.4760  136.7390 C   0  0  1  0  0  3  0  0  0  0  0  0
  185.1510  176.1320  136.1160 C   0  0  0  0  0  0  0  0  0  0  0  0
  187.9490  176.8670  137.1310 C   0  0  0  0  0  0  0  0  0  0  0  0
  186.9550  177.5960  134.9560 C   0  0  0  0  0  2  0  0  0  0  0  0
  185.5160  177.4500  135.4520 C   0  0  0  0  0  2  0  0  0  0  0  0
  188.2910  177.5420  139.6330 C   0  0  0  0  0  3  0  0  0  0  0  0
  188.1140  177.1910  138.3870 C   0  0  0  0  0  0  0  0  0  0  0  0
  180.8670  176.7960  138.3280 C   0  0  2  0  0  0  0  0  0  0  0  0
  181.5650  175.7000  137.5380 C   0  0  1  0  0  0  0  0  0  0  0  0
  183.0930  175.5350  137.5630 C   0  0  0  0  0  2  0  0  0  0  0  0
  181.5160  175.3350  135.1660 C   0  0  0  0  0  3  0  0  0  0  0  0
  180.8070  175.3090  138.7880 C   0  0  1  0  0  0  0  0  0  0  0  0
  181.6380  175.0980  139.8950 O   0  0  0  0  0  1  0  0  0  0  0  0
  180.8860  175.3290  136.3010 N   0  0  0  0  0  0  0  0  0  0  0  0
  183.7040  175.8010  136.2050 C   0  0  0  0  0  0  0  0  0  0  0  0
  182.9540  175.6620  135.0970 C   0  0  0  0  0  3  0  0  0  0  0  0
  179.6800  176.2640  139.1160 C   0  0  0  0  0  2  0  0  0  0  0  0
  181.1500  178.4570  140.1020 O   0  0  0  0  0  1  0  0  0  0  0  0
  181.8360  177.6920  139.1490 C   0  0  2  0  0  3  0  0  0  0  0  0
  182.6430  178.6210  138.2260 C   0  0  1  0  0  3  0  0  0  0  0  0
  181.2470  179.4430  136.3450 C   0  0  0  0  0  3  0  0  0  0  0  0
  181.6530  181.0000  138.2500 C   0  0  0  0  0  2  0  0  0  0  0  0
  180.2460  182.9320  138.2370 O   0  0  0  0  0  0  0  0  0  0  0  0
  181.8280  179.6830  137.5340 C   0  0  0  0  0  0  0  0  0  0  0  0
  180.3950  180.4400  135.6810 C   0  0  0  0  0  3  0  0  0  0  0  0
  180.0890  181.6040  136.2730 C   0  0  0  0  0  0  0  0  0  0  0  0
  180.6260  181.9000  137.6160 C   0  0  0  0  0  0  0  0  0  0  0  0
  179.2600  182.5430  135.6500 O   0  0  0  0  0  0  0  0  0  0  0  0
  179.7590  183.6000  134.8360 C   0  0  0  0  0  1  0  0  0  0  0  0
  184.9570  179.2700  138.2830 O   0  0  0  0  0  0  0  0  0  0  0  0
  183.8500  179.2180  138.8860 C   0  0  0  0  0  0  0  0  0  0  0  0
  183.7410  179.7310  140.1720 O   0  0  0  0  0  1  0  0  0  0  0  0
  187.0590  178.2670  141.7120 C   0  0  0  0  0  0  0  0  0  0  0  0
  187.2940  178.3170  140.3880 C   0  0  0  0  0  3  0  0  0  0  0  0
  187.8440  176.2460  142.9400 O   0  0  0  0  0  0  0  0  0  0  0  0
  188.9170  178.2510  143.1850 O   0  0  0  0  0  1  0  0  0  0  0  0
  187.9670  177.6030  142.6680 C   0  0  0  0  0  0  0  0  0  0  0  0
  186.2850  180.3360  142.6360 O   0  0  0  0  0  1  0  0  0  0  0  0
  185.9020  179.0380  142.2770 C   0  0  2  0  0  3  0  0  0  0  0  0
  183.9450  178.9520  143.8270 C   0  0  2  0  0  3  0  0  0  0  0  0
  183.9180  178.8750  145.3220 C   0  0  0  0  0  2  0  0  0  0  0  0
  186.0970  178.3060  144.5750 O   0  0  0  0  0  0  0  0  0  0  0  0
  182.8890  178.2130  143.2990 O   0  0  0  0  0  1  0  0  0  0  0  0
  185.2390  178.2300  145.6840 C   0  0  1  0  0  3  0  0  0  0  0  0
  185.2560  178.3050  143.4520 C   0  0  2  0  0  3  0  0  0  0  0  0
  186.8820  178.1470  147.4160 O   0  0  0  0  0  1  0  0  0  0  0  0
  185.8730  178.9390  146.8690 C   0  0  0  0  0  2  0  0  0  0  0  0
  1  6  1  0  0  0  0
  3  4  1  0  0  0  0
  4  6  1  0  0  0  0
  4  2  1  1  0  0  0
  5 18  1  0  0  0  0
  5  3  2  0  0  0  0
  6 10  2  0  0  0  0
  7  8  1  0  0  0  0
  7  1  1  0  0  0  0
  8  5  1  0  0  0  0
  9 37  1  0  0  0  0
 10  9  2  0  0  0  0
 11 15  1  0  0  0  0
 11 20  1  0  0  0  0
 11 22  1  1  0  0  0
 12 13  1  1  0  0  0
 12 11  1  0  0  0  0
 12 15  1  0  0  0  0
 14 17  2  0  0  0  0
 15 20  1  0  0  0  0
 15 16  1  1  0  0  0
 17 12  1  0  0  0  0
 18 13  1  0  0  0  0
 19 14  1  0  0  0  0
 19 18  2  0  0  0  0
 22 21  1  1  0  0  0
 23 34  1  1  0  0  0
 23 22  1  0  0  0  0
 24 27  2  0  0  0  0
 27 23  1  0  0  0  0
 27 25  1  0  0  0  0
 28 29  2  0  0  0  0
 28 24  1  0  0  0  0
 29 30  1  0  0  0  0
 30 26  2  0  0  0  0
 30 25  1  0  0  0  0
 31 29  1  0  0  0  0
 32 31  1  0  0  0  0
 33 34  2  0  0  0  0
 34 35  1  0  0  0  0
 36 42  1  0  0  0  0
 36 40  1  0  0  0  0
 37 36  2  0  0  0  0
 40 38  2  0  0  0  0
 40 39  1  0  0  0  0
 42 41  1  1  0  0  0
 43 46  1  6  0  0  0
 43 44  1  0  0  0  0
 44 47  1  0  0  0  0
 45 47  1  0  0  0  0
 47 50  1  1  0  0  0
 48 42  1  6  0  0  0
 48 43  1  0  0  0  0
 48 45  1  0  0  0  0
 50 49  1  0  0  0  0
M  END
>  <MODEL>
3

>  <REMARK>
 VINA RESULT:      -7.2      3.572      7.654
  Name = 
  11 active torsions:
  status: ('A' for Active; 'I' for Inactive)
    1  A    between atoms: C_5  and  C_30
    2  A    between atoms: C_6  and  C_23
    3  A    between atoms: C_13  and  C_42
    4  A    between atoms: C_15  and  C_20
    5  A    between atoms: C_15  and  C_46
    6  A    between atoms: C_20  and  C_33
    7  A    between atoms: C_22  and  C_44
    8  A    between atoms: C_23  and  C_30
    9  A    between atoms: C_23  and  C_36
   10  A    between atoms: O_35  and  C_40
   11  A    between atoms: C_41  and  C_50
                            x       y       z     vdW  Elec       q    Type
                         _______ _______ _______ _____ _____    ______ ____

>  <TORSDO>
F 11

$$$$
=
 OpenBabel11062412553D

 50 55  0  0  1  0  0  0  0  0999 V2000
  182.8080  176.8940  140.4420 C   0  0  0  0  0  2  0  0  0  0  0  0
  183.8560  180.3480  139.4640 F   0  0  0  0  0  0  0  0  0  0  0  0
  184.6090  178.4820  138.2200 C   0  0  0  0  0  3  0  0  0  0  0  0
  183.5960  179.0160  139.1930 C   0  0  1  0  0  3  0  0  0  0  0  0
  184.7640  177.2020  137.8260 C   0  0  0  0  0  0  0  0  0  0  0  0
  183.5370  178.1990  140.4530 C   0  0  0  0  0  0  0  0  0  0  0  0
  182.6190  176.3640  139.0260 C   0  0  0  0  0  2  0  0  0  0  0  0
  183.9760  176.0360  138.4010 C   0  0  0  0  0  2  0  0  0  0  0  0
  185.0820  178.7200  142.4960 C   0  0  0  0  0  3  0  0  0  0  0  0
  184.3180  178.4700  141.4660 C   0  0  0  0  0  0  0  0  0  0  0  0
  187.7530  173.8720  135.9110 C   0  0  2  0  0  0  0  0  0  0  0  0
  187.7350  175.3790  136.1180 C   0  0  1  0  0  0  0  0  0  0  0  0
  187.0060  176.0220  137.3090 C   0  0  0  0  0  2  0  0  0  0  0  0
  186.8870  177.0590  134.6290 C   0  0  0  0  0  3  0  0  0  0  0  0
  189.0170  174.6310  136.4140 C   0  0  1  0  0  0  0  0  0  0  0  0
  189.2210  174.4040  137.7820 O   0  0  0  0  0  1  0  0  0  0  0  0
  187.7810  176.1530  134.8820 N   0  0  0  0  0  0  0  0  0  0  0  0
  185.8400  176.8720  136.8530 C   0  0  0  0  0  0  0  0  0  0  0  0
  185.8280  177.3770  135.6070 C   0  0  0  0  0  3  0  0  0  0  0  0
  189.1520  173.3540  135.6150 C   0  0  0  0  0  2  0  0  0  0  0  0
  187.8330  172.1760  137.6720 O   0  0  0  0  0  1  0  0  0  0  0  0
  186.9910  173.0800  137.0090 C   0  0  2  0  0  3  0  0  0  0  0  0
  185.7920  172.3240  136.4110 C   0  0  1  0  0  3  0  0  0  0  0  0
  184.6010  173.9640  134.9790 C   0  0  0  0  0  3  0  0  0  0  0  0
  183.4100  173.1150  136.9990 C   0  0  0  0  0  2  0  0  0  0  0  0
  181.0790  173.6370  137.0380 O   0  0  0  0  0  0  0  0  0  0  0  0
  184.6050  173.1900  136.0780 C   0  0  0  0  0  0  0  0  0  0  0  0
  183.4310  174.7690  134.5980 C   0  0  0  0  0  3  0  0  0  0  0  0
  182.2820  174.7000  135.2860 C   0  0  0  0  0  0  0  0  0  0  0  0
  182.1880  173.8080  136.4580 C   0  0  0  0  0  0  0  0  0  0  0  0
  181.1610  175.4490  134.9100 O   0  0  0  0  0  0  0  0  0  0  0  0
  180.8150  176.6880  135.5220 C   0  0  0  0  0  1  0  0  0  0  0  0
  187.2190  171.6430  134.6010 O   0  0  0  0  0  0  0  0  0  0  0  0
  186.1560  171.4460  135.2510 C   0  0  0  0  0  0  0  0  0  0  0  0
  185.3160  170.3990  134.8980 O   0  0  0  0  0  1  0  0  0  0  0  0
  187.4040  177.8310  142.0680 C   0  0  0  0  0  0  0  0  0  0  0  0
  186.2830  177.9270  142.8040 C   0  0  0  0  0  3  0  0  0  0  0  0
  187.4510  178.3570  139.6330 O   0  0  0  0  0  0  0  0  0  0  0  0
  188.1370  179.9020  141.1740 O   0  0  0  0  0  1  0  0  0  0  0  0
  187.7100  178.7390  140.9440 C   0  0  0  0  0  0  0  0  0  0  0  0
  187.9330  175.8070  143.2320 O   0  0  0  0  0  1  0  0  0  0  0  0
  188.4700  176.8610  142.4850 C   0  0  2  0  0  3  0  0  0  0  0  0
  190.9330  176.9310  142.8990 C   0  0  2  0  0  3  0  0  0  0  0  0
  191.6800  176.9370  144.1970 C   0  0  0  0  0  2  0  0  0  0  0  0
  189.4090  177.4780  144.6280 O   0  0  0  0  0  0  0  0  0  0  0  0
  191.6000  177.7240  141.9690 O   0  0  0  0  0  1  0  0  0  0  0  0
  190.6960  177.5260  145.1860 C   0  0  1  0  0  3  0  0  0  0  0  0
  189.6020  177.5560  143.2400 C   0  0  2  0  0  3  0  0  0  0  0  0
  191.9280  176.9430  147.1480 O   0  0  0  0  0  1  0  0  0  0  0  0
  190.7160  176.7430  146.4890 C   0  0  0  0  0  2  0  0  0  0  0  0
  1  6  1  0  0  0  0
  3  4  1  0  0  0  0
  4  2  1  1  0  0  0
  4  6  1  0  0  0  0
  5  3  2  0  0  0  0
  5  8  1  0  0  0  0
  6 10  2  0  0  0  0
  7  1  1  0  0  0  0
  8  7  1  0  0  0  0
  9 37  1  0  0  0  0
 10  9  2  0  0  0  0
 11 12  1  0  0  0  0
 11 15  1  0  0  0  0
 11 22  1  1  0  0  0
 12 15  1  0  0  0  0
 12 13  1  1  0  0  0
 14 17  2  0  0  0  0
 14 19  1  0  0  0  0
 15 16  1  1  0  0  0
 17 12  1  0  0  0  0
 18 13  1  0  0  0  0
 18  5  1  0  0  0  0
 19 18  2  0  0  0  0
 20 11  1  0  0  0  0
 20 15  1  0  0  0  0
 22 21  1  6  0  0  0
 23 34  1  6  0  0  0
 23 22  1  0  0  0  0
 24 27  2  0  0  0  0
 27 23  1  0  0  0  0
 27 25  1  0  0  0  0
 28 24  1  0  0  0  0
 28 29  2  0  0  0  0
 29 30  1  0  0  0  0
 30 25  1  0  0  0  0
 30 26  2  0  0  0  0
 31 29  1  0  0  0  0
 31 32  1  0  0  0  0
 33 34  2  0  0  0  0
 35 34  1  0  0  0  0
 36 42  1  0  0  0  0
 36 37  2  0  0  0  0
 38 40  2  0  0  0  0
 40 39  1  0  0  0  0
 40 36  1  0  0  0  0
 42 41  1  1  0  0  0
 43 46  1  6  0  0  0
 43 48  1  0  0  0  0
 43 44  1  0  0  0  0
 44 47  1  0  0  0  0
 45 47  1  0  0  0  0
 47 50  1  1  0  0  0
 48 42  1  6  0  0  0
 48 45  1  0  0  0  0
 50 49  1  0  0  0  0
M  END
>  <MODEL>
4

>  <REMARK>
 VINA RESULT:      -7.1      2.592      5.776
  Name = 
  11 active torsions:
  status: ('A' for Active; 'I' for Inactive)
    1  A    between atoms: C_5  and  C_30
    2  A    between atoms: C_6  and  C_23
    3  A    between atoms: C_13  and  C_42
    4  A    between atoms: C_15  and  C_20
    5  A    between atoms: C_15  and  C_46
    6  A    between atoms: C_20  and  C_33
    7  A    between atoms: C_22  and  C_44
    8  A    between atoms: C_23  and  C_30
    9  A    between atoms: C_23  and  C_36
   10  A    between atoms: O_35  and  C_40
   11  A    between atoms: C_41  and  C_50
                            x       y       z     vdW  Elec       q    Type
                         _______ _______ _______ _____ _____    ______ ____

>  <TORSDO>
F 11

$$$$
=
 OpenBabel11062412553D

 50 55  0  0  1  0  0  0  0  0999 V2000
  187.2510  177.7470  135.2780 C   0  0  0  0  0  2  0  0  0  0  0  0
  188.0840  174.2800  136.4020 F   0  0  0  0  0  0  0  0  0  0  0  0
  185.8920  175.1240  136.6850 C   0  0  0  0  0  3  0  0  0  0  0  0
  187.2050  175.2560  135.9660 C   0  0  1  0  0  3  0  0  0  0  0  0
  184.8450  175.9720  136.6280 C   0  0  0  0  0  0  0  0  0  0  0  0
  187.7940  176.6300  136.1100 C   0  0  0  0  0  0  0  0  0  0  0  0
  185.8650  177.4230  134.7320 C   0  0  0  0  0  2  0  0  0  0  0  0
  184.8640  177.2960  135.8810 C   0  0  0  0  0  2  0  0  0  0  0  0
  189.3610  177.2460  138.1100 C   0  0  0  0  0  3  0  0  0  0  0  0
  188.5740  176.9250  137.1170 C   0  0  0  0  0  0  0  0  0  0  0  0
  180.7950  177.5750  138.8000 C   0  0  2  0  0  0  0  0  0  0  0  0
  181.7810  176.4300  138.9670 C   0  0  1  0  0  0  0  0  0  0  0  0
  183.2610  176.5750  138.5820 C   0  0  0  0  0  2  0  0  0  0  0  0
  181.6860  174.2480  137.9700 C   0  0  0  0  0  3  0  0  0  0  0  0
  181.3140  177.1600  140.2080 C   0  0  1  0  0  0  0  0  0  0  0  0
  182.2470  178.0880  140.6860 O   0  0  0  0  0  1  0  0  0  0  0  0
  181.1900  175.1040  138.8100 N   0  0  0  0  0  0  0  0  0  0  0  0
  183.6270  175.6680  137.4280 C   0  0  0  0  0  0  0  0  0  0  0  0
  182.8970  174.5650  137.1880 C   0  0  0  0  0  3  0  0  0  0  0  0
  179.9460  177.7850  140.0440 C   0  0  0  0  0  2  0  0  0  0  0  0
  181.6730  179.8170  139.2370 O   0  0  0  0  0  1  0  0  0  0  0  0
  181.4320  178.8730  138.2290 C   0  0  2  0  0  3  0  0  0  0  0  0
  180.5370  179.4950  137.1430 C   0  0  1  0  0  3  0  0  0  0  0  0
  179.2470  181.3270  138.2110 C   0  0  0  0  0  3  0  0  0  0  0  0
  181.0460  181.9640  136.6050 C   0  0  0  0  0  2  0  0  0  0  0  0
  181.6130  184.2840  136.6590 O   0  0  0  0  0  0  0  0  0  0  0  0
  180.2130  180.9510  137.3540 C   0  0  0  0  0  0  0  0  0  0  0  0
  178.9550  182.7430  138.4820 C   0  0  0  0  0  3  0  0  0  0  0  0
  179.7000  183.7240  137.9500 C   0  0  0  0  0  0  0  0  0  0  0  0
  180.8290  183.3810  137.0640 C   0  0  0  0  0  0  0  0  0  0  0  0
  179.4360  185.0700  138.2270 O   0  0  0  0  0  0  0  0  0  0  0  0
  179.2190  186.0430  137.2100 C   0  0  0  0  0  1  0  0  0  0  0  0
  182.1180  178.6420  135.5460 O   0  0  0  0  0  1  0  0  0  0  0  0
  181.0340  179.2550  135.7490 C   0  0  0  0  0  0  0  0  0  0  0  0
  180.2830  179.7030  134.6700 O   0  0  0  0  0  0  0  0  0  0  0  0
  189.2060  177.8190  140.5620 C   0  0  0  0  0  0  0  0  0  0  0  0
  188.8980  178.0250  139.2690 C   0  0  0  0  0  3  0  0  0  0  0  0
  190.0610  175.9370  141.9540 O   0  0  0  0  0  1  0  0  0  0  0  0
  191.4240  176.9860  140.4450 O   0  0  0  0  0  0  0  0  0  0  0  0
  190.2930  176.9190  140.9980 C   0  0  0  0  0  0  0  0  0  0  0  0
  189.2390  178.6230  142.8170 O   0  0  0  0  0  1  0  0  0  0  0  0
  188.5230  178.6410  141.6150 C   0  0  2  0  0  3  0  0  0  0  0  0
  186.1220  179.3210  141.4920 C   0  0  2  0  0  3  0  0  0  0  0  0
  185.0450  179.1990  142.5250 C   0  0  0  0  0  2  0  0  0  0  0  0
  186.8550  177.7970  143.1510 O   0  0  0  0  0  0  0  0  0  0  0  0
  185.5830  179.1180  140.2240 O   0  0  0  0  0  1  0  0  0  0  0  0
  185.4940  178.0420  143.3940 C   0  0  1  0  0  3  0  0  0  0  0  0
  187.0760  178.1980  141.8250 C   0  0  2  0  0  3  0  0  0  0  0  0
  184.4240  179.4530  144.9970 O   0  0  0  0  0  1  0  0  0  0  0  0
  185.2890  178.3670  144.8640 C   0  0  0  0  0  2  0  0  0  0  0  0
  1  6  1  0  0  0  0
  4  6  1  0  0  0  0
  4  2  1  1  0  0  0
  4  3  1  0  0  0  0
  5  3  2  0  0  0  0
  5 18  1  0  0  0  0
  6 10  2  0  0  0  0
  7  1  1  0  0  0  0
  7  8  1  0  0  0  0
  8  5  1  0  0  0  0
  9 37  1  0  0  0  0
 10  9  2  0  0  0  0
 11 22  1  6  0  0  0
 11 12  1  0  0  0  0
 11 20  1  0  0  0  0
 11 15  1  0  0  0  0
 12 13  1  6  0  0  0
 12 15  1  0  0  0  0
 14 17  2  0  0  0  0
 15 16  1  1  0  0  0
 17 12  1  0  0  0  0
 18 13  1  0  0  0  0
 19 18  2  0  0  0  0
 19 14  1  0  0  0  0
 20 15  1  0  0  0  0
 22 21  1  1  0  0  0
 23 34  1  6  0  0  0
 23 27  1  0  0  0  0
 23 22  1  0  0  0  0
 24 28  1  0  0  0  0
 25 30  1  0  0  0  0
 25 27  1  0  0  0  0
 26 30  2  0  0  0  0
 27 24  2  0  0  0  0
 29 31  1  0  0  0  0
 29 28  2  0  0  0  0
 30 29  1  0  0  0  0
 32 31  1  0  0  0  0
 33 34  1  0  0  0  0
 35 34  2  0  0  0  0
 36 40  1  0  0  0  0
 36 42  1  0  0  0  0
 37 36  2  0  0  0  0
 39 40  2  0  0  0  0
 40 38  1  0  0  0  0
 42 41  1  1  0  0  0
 43 46  1  6  0  0  0
 43 48  1  0  0  0  0
 43 44  1  0  0  0  0
 44 47  1  0  0  0  0
 45 47  1  0  0  0  0
 47 50  1  1  0  0  0
 48 42  1  1  0  0  0
 48 45  1  0  0  0  0
 50 49  1  0  0  0  0
M  END
>  <MODEL>
5

>  <REMARK>
 VINA RESULT:      -7.0      3.967      8.515
  Name = 
  11 active torsions:
  status: ('A' for Active; 'I' for Inactive)
    1  A    between atoms: C_5  and  C_30
    2  A    between atoms: C_6  and  C_23
    3  A    between atoms: C_13  and  C_42
    4  A    between atoms: C_15  and  C_20
    5  A    between atoms: C_15  and  C_46
    6  A    between atoms: C_20  and  C_33
    7  A    between atoms: C_22  and  C_44
    8  A    between atoms: C_23  and  C_30
    9  A    between atoms: C_23  and  C_36
   10  A    between atoms: O_35  and  C_40
   11  A    between atoms: C_41  and  C_50
                            x       y       z     vdW  Elec       q    Type
                         _______ _______ _______ _____ _____    ______ ____

>  <TORSDO>
F 11

$$$$
=
 OpenBabel11062412553D

 50 55  0  0  1  0  0  0  0  0999 V2000
  182.7050  176.3610  140.3190 C   0  0  0  0  0  2  0  0  0  0  0  0
  182.9010  180.0920  140.1810 F   0  0  0  0  0  0  0  0  0  0  0  0
  184.1250  178.7820  138.6370 C   0  0  0  0  0  3  0  0  0  0  0  0
  182.9840  178.8320  139.6140 C   0  0  1  0  0  3  0  0  0  0  0  0
  184.6000  177.6950  137.9960 C   0  0  0  0  0  0  0  0  0  0  0  0
  183.0910  177.7630  140.6640 C   0  0  0  0  0  0  0  0  0  0  0  0
  182.6940  176.1330  138.8110 C   0  0  0  0  0  2  0  0  0  0  0  0
  184.1070  176.2790  138.2460 C   0  0  0  0  0  2  0  0  0  0  0  0
  184.4020  178.1570  142.8910 C   0  0  0  0  0  3  0  0  0  0  0  0
  183.7530  177.9740  141.7720 C   0  0  0  0  0  0  0  0  0  0  0  0
  188.9990  176.1990  136.5440 C   0  0  2  0  0  0  0  0  0  0  0  0
  188.1890  177.4870  136.5320 C   0  0  1  0  0  0  0  0  0  0  0  0
  187.1570  177.8030  137.6260 C   0  0  0  0  0  2  0  0  0  0  0  0
  186.6920  178.2690  134.8270 C   0  0  0  0  0  3  0  0  0  0  0  0
  189.6510  177.5630  136.9170 C   0  0  1  0  0  0  0  0  0  0  0  0
  189.8540  177.6550  138.3000 O   0  0  0  0  0  1  0  0  0  0  0  0
  187.9080  178.0040  135.1970 N   0  0  0  0  0  0  0  0  0  0  0  0
  185.7520  177.8520  137.0680 C   0  0  0  0  0  0  0  0  0  0  0  0
  185.5610  178.1110  135.7620 C   0  0  0  0  0  3  0  0  0  0  0  0
  190.4790  176.4530  136.3090 C   0  0  0  0  0  2  0  0  0  0  0  0
  189.7470  175.2520  138.6720 O   0  0  0  0  0  1  0  0  0  0  0  0
  188.6880  175.2750  137.7550 C   0  0  2  0  0  3  0  0  0  0  0  0
  188.3780  173.8420  137.2890 C   0  0  1  0  0  3  0  0  0  0  0  0
  186.1510  172.7570  137.4380 C   0  0  0  0  0  3  0  0  0  0  0  0
  186.4890  174.4600  135.6480 C   0  0  0  0  0  2  0  0  0  0  0  0
  184.4650  175.1730  134.5970 O   0  0  0  0  0  0  0  0  0  0  0  0
  186.9650  173.6270  136.8140 C   0  0  0  0  0  0  0  0  0  0  0  0
  184.7490  172.5760  137.0340 C   0  0  0  0  0  3  0  0  0  0  0  0
  184.1940  173.3360  136.0780 C   0  0  0  0  0  0  0  0  0  0  0  0
  185.0060  174.3690  135.4060 C   0  0  0  0  0  0  0  0  0  0  0  0
  182.8520  173.1790  135.7090 O   0  0  0  0  0  0  0  0  0  0  0  0
  181.9000  172.4990  136.5200 C   0  0  0  0  0  1  0  0  0  0  0  0
  189.0040  173.0260  135.1170 O   0  0  0  0  0  0  0  0  0  0  0  0
  189.3640  173.3110  136.2920 C   0  0  0  0  0  0  0  0  0  0  0  0
  190.6900  173.1430  136.6650 O   0  0  0  0  0  1  0  0  0  0  0  0
  186.8550  177.8470  142.3900 C   0  0  0  0  0  0  0  0  0  0  0  0
  185.7510  177.6170  143.1230 C   0  0  0  0  0  3  0  0  0  0  0  0
  186.0520  179.9830  141.3880 O   0  0  0  0  0  1  0  0  0  0  0  0
  187.8690  178.8960  140.5200 O   0  0  0  0  0  0  0  0  0  0  0  0
  186.9380  178.9110  141.3700 C   0  0  0  0  0  0  0  0  0  0  0  0
  187.8280  175.8210  143.2160 O   0  0  0  0  0  1  0  0  0  0  0  0
  188.1130  177.0940  142.7090 C   0  0  2  0  0  3  0  0  0  0  0  0
  190.4430  177.4050  143.5540 C   0  0  2  0  0  3  0  0  0  0  0  0
  190.9460  177.4520  144.9650 C   0  0  0  0  0  2  0  0  0  0  0  0
  188.5900  177.7440  144.9910 O   0  0  0  0  0  0  0  0  0  0  0  0
  191.1750  178.2890  142.7650 O   0  0  0  0  0  1  0  0  0  0  0  0
  189.7470  177.9080  145.7690 C   0  0  1  0  0  3  0  0  0  0  0  0
  189.0140  177.8810  143.6600 C   0  0  2  0  0  3  0  0  0  0  0  0
  189.3840  177.9420  148.1300 O   0  0  0  0  0  1  0  0  0  0  0  0
  189.6210  177.0960  147.0470 C   0  0  0  0  0  2  0  0  0  0  0  0
  1  6  1  0  0  0  0
  3  4  1  0  0  0  0
  4  2  1  1  0  0  0
  4  6  1  0  0  0  0
  5  8  1  0  0  0  0
  5  3  2  0  0  0  0
  6 10  2  0  0  0  0
  7  1  1  0  0  0  0
  8  7  1  0  0  0  0
  9 37  1  0  0  0  0
 10  9  2  0  0  0  0
 11 15  1  0  0  0  0
 11 22  1  1  0  0  0
 12 11  1  0  0  0  0
 12 15  1  0  0  0  0
 12 13  1  1  0  0  0
 14 17  2  0  0  0  0
 14 19  1  0  0  0  0
 15 16  1  1  0  0  0
 17 12  1  0  0  0  0
 18 13  1  0  0  0  0
 18  5  1  0  0  0  0
 19 18  2  0  0  0  0
 20 11  1  0  0  0  0
 20 15  1  0  0  0  0
 22 21  1  1  0  0  0
 23 34  1  6  0  0  0
 23 22  1  0  0  0  0
 25 27  1  0  0  0  0
 26 30  2  0  0  0  0
 27 23  1  0  0  0  0
 27 24  2  0  0  0  0
 28 24  1  0  0  0  0
 29 28  2  0  0  0  0
 30 25  1  0  0  0  0
 30 29  1  0  0  0  0
 31 29  1  0  0  0  0
 31 32  1  0  0  0  0
 33 34  2  0  0  0  0
 34 35  1  0  0  0  0
 36 42  1  0  0  0  0
 36 37  2  0  0  0  0
 39 40  2  0  0  0  0
 40 38  1  0  0  0  0
 40 36  1  0  0  0  0
 42 41  1  1  0  0  0
 43 46  1  6  0  0  0
 43 48  1  0  0  0  0
 43 44  1  0  0  0  0
 44 47  1  0  0  0  0
 45 47  1  0  0  0  0
 47 50  1  1  0  0  0
 48 42  1  6  0  0  0
 48 45  1  0  0  0  0
 50 49  1  0  0  0  0
M  END
>  <MODEL>
6

>  <REMARK>
 VINA RESULT:      -6.9      2.269      4.907
  Name = 
  11 active torsions:
  status: ('A' for Active; 'I' for Inactive)
    1  A    between atoms: C_5  and  C_30
    2  A    between atoms: C_6  and  C_23
    3  A    between atoms: C_13  and  C_42
    4  A    between atoms: C_15  and  C_20
    5  A    between atoms: C_15  and  C_46
    6  A    between atoms: C_20  and  C_33
    7  A    between atoms: C_22  and  C_44
    8  A    between atoms: C_23  and  C_30
    9  A    between atoms: C_23  and  C_36
   10  A    between atoms: O_35  and  C_40
   11  A    between atoms: C_41  and  C_50
                            x       y       z     vdW  Elec       q    Type
                         _______ _______ _______ _____ _____    ______ ____

>  <TORSDO>
F 11

$$$$
=
 OpenBabel11062412553D

 50 55  0  0  1  0  0  0  0  0999 V2000
  180.7450  179.5100  140.9160 C   0  0  0  0  0  2  0  0  0  0  0  0
  181.1510  179.9280  137.2230 F   0  0  0  0  0  0  0  0  0  0  0  0
  180.5410  177.8260  138.1180 C   0  0  0  0  0  3  0  0  0  0  0  0
  180.6220  179.3090  138.3420 C   0  0  1  0  0  3  0  0  0  0  0  0
  180.2090  176.8830  139.0240 C   0  0  0  0  0  0  0  0  0  0  0  0
  181.4010  179.6530  139.5800 C   0  0  0  0  0  0  0  0  0  0  0  0
  179.5270  178.5950  140.8530 C   0  0  0  0  0  2  0  0  0  0  0  0
  179.9550  177.1720  140.4950 C   0  0  0  0  0  2  0  0  0  0  0  0
  183.9910  179.9920  139.5190 C   0  0  0  0  0  3  0  0  0  0  0  0
  182.6970  179.8170  139.5350 C   0  0  0  0  0  0  0  0  0  0  0  0
  182.2500  173.2860  136.4570 C   0  0  2  0  0  0  0  0  0  0  0  0
  180.8680  173.6510  136.9780 C   0  0  1  0  0  0  0  0  0  0  0  0
  180.4310  175.1140  137.1510 C   0  0  0  0  0  2  0  0  0  0  0  0
  179.8850  173.0570  139.0850 C   0  0  0  0  0  3  0  0  0  0  0  0
  180.9850  173.1270  135.5620 C   0  0  1  0  0  0  0  0  0  0  0  0
  180.9320  174.1370  134.5940 O   0  0  0  0  0  1  0  0  0  0  0  0
  180.3080  172.6840  137.9160 N   0  0  0  0  0  0  0  0  0  0  0  0
  180.1950  175.4550  138.6060 C   0  0  0  0  0  0  0  0  0  0  0  0
  179.9030  174.4780  139.4820 C   0  0  0  0  0  3  0  0  0  0  0  0
  182.1880  172.2320  135.3630 C   0  0  0  0  0  2  0  0  0  0  0  0
  183.9230  174.2870  134.9790 O   0  0  0  0  0  1  0  0  0  0  0  0
  183.1360  174.5170  136.1160 C   0  0  2  0  0  3  0  0  0  0  0  0
  184.0410  174.8910  137.3020 C   0  0  1  0  0  3  0  0  0  0  0  0
  186.2870  175.8430  136.8460 C   0  0  0  0  0  3  0  0  0  0  0  0
  186.1000  173.3640  137.0330 C   0  0  0  0  0  2  0  0  0  0  0  0
  188.2040  172.2460  137.2180 O   0  0  0  0  0  0  0  0  0  0  0  0
  185.5170  174.7570  137.0340 C   0  0  0  0  0  0  0  0  0  0  0  0
  187.7400  175.7420  136.6460 C   0  0  0  0  0  3  0  0  0  0  0  0
  188.3770  174.5650  136.7280 C   0  0  0  0  0  0  0  0  0  0  0  0
  187.6050  173.3390  137.0130 C   0  0  0  0  0  0  0  0  0  0  0  0
  189.7630  174.4720  136.5600 O   0  0  0  0  0  0  0  0  0  0  0  0
  190.3970  174.5400  135.2870 C   0  0  0  0  0  1  0  0  0  0  0  0
  183.4880  176.3510  139.1300 O   0  0  0  0  0  1  0  0  0  0  0  0
  183.7250  176.2310  137.8960 C   0  0  0  0  0  0  0  0  0  0  0  0
  183.7050  177.3530  137.0790 O   0  0  0  0  0  0  0  0  0  0  0  0
  185.3480  178.7610  141.2530 C   0  0  0  0  0  0  0  0  0  0  0  0
  184.9360  178.9670  139.9890 C   0  0  0  0  0  3  0  0  0  0  0  0
  183.4480  178.9430  142.8550 O   0  0  0  0  0  0  0  0  0  0  0  0
  185.3060  180.2560  143.0930 O   0  0  0  0  0  1  0  0  0  0  0  0
  184.6960  179.3790  142.4250 C   0  0  0  0  0  0  0  0  0  0  0  0
  186.4060  177.3190  142.8450 O   0  0  0  0  0  1  0  0  0  0  0  0
  186.4240  177.7480  141.5140 C   0  0  2  0  0  3  0  0  0  0  0  0
  188.2370  177.6950  139.7960 C   0  0  2  0  0  3  0  0  0  0  0  0
  189.7060  177.4570  139.9690 C   0  0  0  0  0  2  0  0  0  0  0  0
  188.7650  177.9560  142.0900 O   0  0  0  0  0  0  0  0  0  0  0  0
  188.0290  178.6280  138.7830 O   0  0  0  0  0  1  0  0  0  0  0  0
  189.9830  177.8800  141.3960 C   0  0  1  0  0  3  0  0  0  0  0  0
  187.8030  178.2760  141.1190 C   0  0  2  0  0  3  0  0  0  0  0  0
  190.1530  175.8060  142.5690 O   0  0  0  0  0  1  0  0  0  0  0  0
  190.8980  176.8780  142.0810 C   0  0  0  0  0  2  0  0  0  0  0  0
  3  4  1  0  0  0  0
  3  5  2  0  0  0  0
  4  2  1  6  0  0  0
  4  6  1  0  0  0  0
  5  8  1  0  0  0  0
  6  1  1  0  0  0  0
  7  1  1  0  0  0  0
  8  7  1  0  0  0  0
  9 10  2  0  0  0  0
  9 37  1  0  0  0  0
 10  6  2  0  0  0  0
 11 22  1  6  0  0  0
 11 12  1  0  0  0  0
 12 13  1  1  0  0  0
 12 17  1  0  0  0  0
 13 18  1  0  0  0  0
 14 19  1  0  0  0  0
 15 16  1  6  0  0  0
 15 11  1  0  0  0  0
 15 12  1  0  0  0  0
 17 14  2  0  0  0  0
 18  5  1  0  0  0  0
 18 19  2  0  0  0  0
 20 15  1  0  0  0  0
 20 11  1  0  0  0  0
 22 21  1  6  0  0  0
 22 23  1  0  0  0  0
 23 34  1  6  0  0  0
 24 27  2  0  0  0  0
 25 27  1  0  0  0  0
 27 23  1  0  0  0  0
 28 29  2  0  0  0  0
 28 24  1  0  0  0  0
 29 30  1  0  0  0  0
 30 25  1  0  0  0  0
 30 26  2  0  0  0  0
 31 29  1  0  0  0  0
 32 31  1  0  0  0  0
 34 33  1  0  0  0  0
 35 34  2  0  0  0  0
 36 42  1  0  0  0  0
 36 40  1  0  0  0  0
 37 36  2  0  0  0  0
 40 38  2  0  0  0  0
 40 39  1  0  0  0  0
 42 41  1  1  0  0  0
 43 46  1  6  0  0  0
 43 44  1  0  0  0  0
 43 48  1  0  0  0  0
 44 47  1  0  0  0  0
 47 50  1  1  0  0  0
 47 45  1  0  0  0  0
 48 42  1  1  0  0  0
 48 45  1  0  0  0  0
 50 49  1  0  0  0  0
M  END
>  <MODEL>
7

>  <REMARK>
 VINA RESULT:      -6.7      2.790      4.653
  Name = 
  11 active torsions:
  status: ('A' for Active; 'I' for Inactive)
    1  A    between atoms: C_5  and  C_30
    2  A    between atoms: C_6  and  C_23
    3  A    between atoms: C_13  and  C_42
    4  A    between atoms: C_15  and  C_20
    5  A    between atoms: C_15  and  C_46
    6  A    between atoms: C_20  and  C_33
    7  A    between atoms: C_22  and  C_44
    8  A    between atoms: C_23  and  C_30
    9  A    between atoms: C_23  and  C_36
   10  A    between atoms: O_35  and  C_40
   11  A    between atoms: C_41  and  C_50
                            x       y       z     vdW  Elec       q    Type
                         _______ _______ _______ _____ _____    ______ ____

>  <TORSDO>
F 11

$$$$
=
 OpenBabel11062412553D

 50 55  0  0  1  0  0  0  0  0999 V2000
  190.2220  178.0470  144.0330 C   0  0  0  0  0  2  0  0  0  0  0  0
  189.2560  174.6030  142.9420 F   0  0  0  0  0  0  0  0  0  0  0  0
  189.8360  176.2380  141.3340 C   0  0  0  0  0  3  0  0  0  0  0  0
  189.9090  175.8110  142.7730 C   0  0  1  0  0  3  0  0  0  0  0  0
  190.2350  177.4160  140.8130 C   0  0  0  0  0  0  0  0  0  0  0  0
  189.3720  176.8620  143.7020 C   0  0  0  0  0  0  0  0  0  0  0  0
  191.3380  178.2440  143.0120 C   0  0  0  0  0  2  0  0  0  0  0  0
  190.7460  178.5820  141.6440 C   0  0  0  0  0  2  0  0  0  0  0  0
  186.8400  176.9580  144.3460 C   0  0  0  0  0  3  0  0  0  0  0  0
  188.1020  176.8990  144.0130 C   0  0  0  0  0  0  0  0  0  0  0  0
  189.7500  175.5680  136.3360 C   0  0  2  0  0  0  0  0  0  0  0  0
  190.2800  176.8430  136.9740 C   0  0  1  0  0  0  0  0  0  0  0  0
  190.9000  176.8450  138.3800 C   0  0  0  0  0  2  0  0  0  0  0  0
  189.0730  178.8620  137.4500 C   0  0  0  0  0  3  0  0  0  0  0  0
  191.0880  176.2080  135.8620 C   0  0  1  0  0  0  0  0  0  0  0  0
  192.1840  175.4710  136.3290 O   0  0  0  0  0  1  0  0  0  0  0  0
  189.5740  178.0530  136.5670 N   0  0  0  0  0  0  0  0  0  0  0  0
  190.0680  177.6520  139.3530 C   0  0  0  0  0  0  0  0  0  0  0  0
  189.2510  178.6160  138.8940 C   0  0  0  0  0  3  0  0  0  0  0  0
  190.2410  175.3970  134.9080 C   0  0  0  0  0  2  0  0  0  0  0  0
  191.1580  173.6920  137.0320 O   0  0  0  0  0  1  0  0  0  0  0  0
  189.9140  174.3060  137.2280 C   0  0  2  0  0  3  0  0  0  0  0  0
  188.7900  173.2900  136.9590 C   0  0  1  0  0  3  0  0  0  0  0  0
  187.1410  175.1450  137.0250 C   0  0  0  0  0  3  0  0  0  0  0  0
  186.2980  172.8330  137.4310 C   0  0  0  0  0  2  0  0  0  0  0  0
  183.9170  172.6480  137.3650 O   0  0  0  0  0  0  0  0  0  0  0  0
  187.3960  173.8300  137.1480 C   0  0  0  0  0  0  0  0  0  0  0  0
  185.7800  175.6880  137.1420 C   0  0  0  0  0  3  0  0  0  0  0  0
  184.7170  174.8830  137.2910 C   0  0  0  0  0  0  0  0  0  0  0  0
  184.9140  173.4210  137.3520 C   0  0  0  0  0  0  0  0  0  0  0  0
  183.4190  175.3990  137.3790 O   0  0  0  0  0  0  0  0  0  0  0  0
  183.1430  176.7920  137.4750 C   0  0  0  0  0  1  0  0  0  0  0  0
  189.8010  171.7090  135.4570 O   0  0  0  0  0  1  0  0  0  0  0  0
  188.9180  172.5930  135.6380 C   0  0  0  0  0  0  0  0  0  0  0  0
  188.0460  172.9160  134.6080 O   0  0  0  0  0  0  0  0  0  0  0  0
  184.9990  178.6820  144.3940 C   0  0  0  0  0  0  0  0  0  0  0  0
  185.9070  177.9260  143.7500 C   0  0  0  0  0  3  0  0  0  0  0  0
  185.8750  179.7180  146.4850 O   0  0  0  0  0  0  0  0  0  0  0  0
  184.1090  178.2640  146.5520 O   0  0  0  0  0  1  0  0  0  0  0  0
  184.9860  178.8500  145.8610 C   0  0  0  0  0  0  0  0  0  0  0  0
  183.5450  180.5830  144.3460 O   0  0  0  0  0  1  0  0  0  0  0  0
  184.0420  179.5140  143.5920 C   0  0  2  0  0  3  0  0  0  0  0  0
  182.8840  178.7680  141.5080 C   0  0  2  0  0  3  0  0  0  0  0  0
  181.4250  178.7910  141.1700 C   0  0  0  0  0  2  0  0  0  0  0  0
  181.6620  179.0800  143.5140 O   0  0  0  0  0  0  0  0  0  0  0  0
  183.4770  177.6370  140.9530 O   0  0  0  0  0  1  0  0  0  0  0  0
  180.7320  178.7480  142.5160 C   0  0  1  0  0  3  0  0  0  0  0  0
  182.9080  178.6680  143.0140 C   0  0  2  0  0  3  0  0  0  0  0  0
  179.8970  180.8780  141.8280 O   0  0  0  0  0  1  0  0  0  0  0  0
  179.5740  179.7310  142.5520 C   0  0  0  0  0  2  0  0  0  0  0  0
  3  4  1  0  0  0  0
  4  2  1  6  0  0  0
  4  6  1  0  0  0  0
  5  3  2  0  0  0  0
  5  8  1  0  0  0  0
  6 10  2  0  0  0  0
  6  1  1  0  0  0  0
  7  1  1  0  0  0  0
  8  7  1  0  0  0  0
 10  9  2  0  0  0  0
 11 12  1  0  0  0  0
 11 22  1  1  0  0  0
 12 13  1  1  0  0  0
 13 18  1  0  0  0  0
 14 19  1  0  0  0  0
 15 16  1  1  0  0  0
 15 11  1  0  0  0  0
 15 12  1  0  0  0  0
 17 12  1  0  0  0  0
 17 14  2  0  0  0  0
 18  5  1  0  0  0  0
 19 18  2  0  0  0  0
 20 15  1  0  0  0  0
 20 11  1  0  0  0  0
 22 21  1  6  0  0  0
 23 34  1  6  0  0  0
 23 27  1  0  0  0  0
 23 22  1  0  0  0  0
 24 28  1  0  0  0  0
 24 27  2  0  0  0  0
 27 25  1  0  0  0  0
 28 29  2  0  0  0  0
 29 30  1  0  0  0  0
 29 31  1  0  0  0  0
 30 26  2  0  0  0  0
 30 25  1  0  0  0  0
 31 32  1  0  0  0  0
 33 34  1  0  0  0  0
 35 34  2  0  0  0  0
 36 40  1  0  0  0  0
 37  9  1  0  0  0  0
 37 36  2  0  0  0  0
 40 38  2  0  0  0  0
 40 39  1  0  0  0  0
 42 41  1  1  0  0  0
 42 36  1  0  0  0  0
 43 46  1  6  0  0  0
 43 48  1  0  0  0  0
 44 43  1  0  0  0  0
 44 47  1  0  0  0  0
 47 50  1  6  0  0  0
 47 45  1  0  0  0  0
 48 45  1  0  0  0  0
 48 42  1  1  0  0  0
 49 50  1  0  0  0  0
M  END
>  <MODEL>
8

>  <REMARK>
 VINA RESULT:      -6.7      2.815      7.024
  Name = 
  11 active torsions:
  status: ('A' for Active; 'I' for Inactive)
    1  A    between atoms: C_5  and  C_30
    2  A    between atoms: C_6  and  C_23
    3  A    between atoms: C_13  and  C_42
    4  A    between atoms: C_15  and  C_20
    5  A    between atoms: C_15  and  C_46
    6  A    between atoms: C_20  and  C_33
    7  A    between atoms: C_22  and  C_44
    8  A    between atoms: C_23  and  C_30
    9  A    between atoms: C_23  and  C_36
   10  A    between atoms: O_35  and  C_40
   11  A    between atoms: C_41  and  C_50
                            x       y       z     vdW  Elec       q    Type
                         _______ _______ _______ _____ _____    ______ ____

>  <TORSDO>
F 11

$$$$
=
 OpenBabel11062412553D

 50 55  0  0  1  0  0  0  0  0999 V2000
  188.6810  179.0080  137.6860 C   0  0  0  0  0  2  0  0  0  0  0  0
  190.6370  175.9120  136.9280 F   0  0  0  0  0  0  0  0  0  0  0  0
  188.2750  175.8870  136.7920 C   0  0  0  0  0  3  0  0  0  0  0  0
  189.5220  176.7250  136.8130 C   0  0  1  0  0  3  0  0  0  0  0  0
  187.0000  176.3240  136.8280 C   0  0  0  0  0  0  0  0  0  0  0  0
  189.4870  177.7660  137.8960 C   0  0  0  0  0  0  0  0  0  0  0  0
  187.6410  178.8280  136.5860 C   0  0  0  0  0  2  0  0  0  0  0  0
  186.6080  177.7820  137.0050 C   0  0  0  0  0  2  0  0  0  0  0  0
  190.3480  177.2600  140.3110 C   0  0  0  0  0  3  0  0  0  0  0  0
  189.9180  177.4970  139.1000 C   0  0  0  0  0  0  0  0  0  0  0  0
  182.2180  175.4270  136.6760 C   0  0  2  0  0  0  0  0  0  0  0  0
  183.4730  174.7470  137.2020 C   0  0  1  0  0  0  0  0  0  0  0  0
  184.6860  175.5540  137.6890 C   0  0  0  0  0  2  0  0  0  0  0  0
  184.9030  173.2020  136.0480 C   0  0  0  0  0  3  0  0  0  0  0  0
  182.2400  174.7520  138.0800 C   0  0  1  0  0  0  0  0  0  0  0  0
  182.2890  175.7170  139.0940 O   0  0  0  0  0  1  0  0  0  0  0  0
  183.7510  173.4510  136.5910 N   0  0  0  0  0  0  0  0  0  0  0  0
  185.8950  175.3280  136.8080 C   0  0  0  0  0  0  0  0  0  0  0  0
  185.9900  174.2010  136.0810 C   0  0  0  0  0  3  0  0  0  0  0  0
  180.9540  174.8460  137.2890 C   0  0  0  0  0  2  0  0  0  0  0  0
  182.9300  177.4490  137.8550 O   0  0  0  0  0  1  0  0  0  0  0  0
  182.2900  176.9790  136.7010 C   0  0  2  0  0  3  0  0  0  0  0  0
  180.8850  177.5980  136.6020 C   0  0  1  0  0  3  0  0  0  0  0  0
  180.0210  178.0530  138.8840 C   0  0  0  0  0  3  0  0  0  0  0  0
  180.8050  179.9990  137.5360 C   0  0  0  0  0  2  0  0  0  0  0  0
  181.0630  182.0100  138.7990 O   0  0  0  0  0  0  0  0  0  0  0  0
  180.5270  178.5280  137.7320 C   0  0  0  0  0  0  0  0  0  0  0  0
  179.7240  178.9330  140.0240 C   0  0  0  0  0  3  0  0  0  0  0  0
  180.0260  180.2390  139.9960 C   0  0  0  0  0  0  0  0  0  0  0  0
  180.6590  180.8140  138.7930 C   0  0  0  0  0  0  0  0  0  0  0  0
  179.7630  181.0720  141.0900 O   0  0  0  0  0  0  0  0  0  0  0  0
  179.5360  180.5760  142.4050 C   0  0  0  0  0  1  0  0  0  0  0  0
  181.5360  178.7480  134.5940 O   0  0  0  0  0  0  0  0  0  0  0  0
  180.6050  178.2370  135.2750 C   0  0  0  0  0  0  0  0  0  0  0  0
  179.3050  178.2540  134.7870 O   0  0  0  0  0  1  0  0  0  0  0  0
  189.7160  177.0920  142.7480 C   0  0  0  0  0  0  0  0  0  0  0  0
  189.4390  176.9870  141.4360 C   0  0  0  0  0  3  0  0  0  0  0  0
  192.0380  177.0360  143.6520 O   0  0  0  0  0  1  0  0  0  0  0  0
  190.9760  179.0290  143.2850 O   0  0  0  0  0  0  0  0  0  0  0  0
  190.9220  177.7690  143.2650 C   0  0  0  0  0  0  0  0  0  0  0  0
  187.8820  175.6280  143.2200 O   0  0  0  0  0  1  0  0  0  0  0  0
  188.6940  176.6370  143.7480 C   0  0  2  0  0  3  0  0  0  0  0  0
  187.3530  177.5140  145.6640 C   0  0  2  0  0  3  0  0  0  0  0  0
  185.9700  178.0880  145.6740 C   0  0  0  0  0  2  0  0  0  0  0  0
  186.7610  178.0580  143.4360 O   0  0  0  0  0  0  0  0  0  0  0  0
  188.1440  178.1780  146.6000 O   0  0  0  0  0  1  0  0  0  0  0  0
  185.7810  178.6210  144.2690 C   0  0  1  0  0  3  0  0  0  0  0  0
  187.8600  177.8050  144.2720 C   0  0  2  0  0  3  0  0  0  0  0  0
  184.4640  177.9880  142.3790 O   0  0  0  0  0  1  0  0  0  0  0  0
  184.4000  178.2650  143.7440 C   0  0  0  0  0  2  0  0  0  0  0  0
  1  6  1  0  0  0  0
  3  4  1  0  0  0  0
  3  5  2  0  0  0  0
  4  2  1  1  0  0  0
  4  6  1  0  0  0  0
  5  8  1  0  0  0  0
  6 10  2  0  0  0  0
  7  8  1  0  0  0  0
  7  1  1  0  0  0  0
  9 37  1  0  0  0  0
 10  9  2  0  0  0  0
 11 22  1  1  0  0  0
 11 12  1  0  0  0  0
 11 20  1  0  0  0  0
 11 15  1  0  0  0  0
 12 13  1  1  0  0  0
 12 15  1  0  0  0  0
 14 19  1  0  0  0  0
 14 17  2  0  0  0  0
 15 16  1  1  0  0  0
 17 12  1  0  0  0  0
 18  5  1  0  0  0  0
 18 13  1  0  0  0  0
 19 18  2  0  0  0  0
 20 15  1  0  0  0  0
 22 21  1  1  0  0  0
 23 34  1  6  0  0  0
 23 22  1  0  0  0  0
 23 27  1  0  0  0  0
 24 28  1  0  0  0  0
 25 27  1  0  0  0  0
 25 30  1  0  0  0  0
 27 24  2  0  0  0  0
 29 28  2  0  0  0  0
 29 31  1  0  0  0  0
 30 26  2  0  0  0  0
 30 29  1  0  0  0  0
 31 32  1  0  0  0  0
 33 34  2  0  0  0  0
 35 34  1  0  0  0  0
 36 40  1  0  0  0  0
 36 42  1  0  0  0  0
 37 36  2  0  0  0  0
 40 39  2  0  0  0  0
 40 38  1  0  0  0  0
 42 41  1  6  0  0  0
 43 44  1  0  0  0  0
 43 46  1  1  0  0  0
 45 47  1  0  0  0  0
 45 48  1  0  0  0  0
 47 50  1  6  0  0  0
 47 44  1  0  0  0  0
 48 42  1  6  0  0  0
 48 43  1  0  0  0  0
 49 50  1  0  0  0  0
M  END
>  <MODEL>
9

>  <REMARK>
 VINA RESULT:      -6.6      3.314      7.755
  Name = 
  11 active torsions:
  status: ('A' for Active; 'I' for Inactive)
    1  A    between atoms: C_5  and  C_30
    2  A    between atoms: C_6  and  C_23
    3  A    between atoms: C_13  and  C_42
    4  A    between atoms: C_15  and  C_20
    5  A    between atoms: C_15  and  C_46
    6  A    between atoms: C_20  and  C_33
    7  A    between atoms: C_22  and  C_44
    8  A    between atoms: C_23  and  C_30
    9  A    between atoms: C_23  and  C_36
   10  A    between atoms: O_35  and  C_40
   11  A    between atoms: C_41  and  C_50
                            x       y       z     vdW  Elec       q    Type
                         _______ _______ _______ _____ _____    ______ ____

>  <TORSDO>
F 11

$$$$
