=
 OpenBabel11062414353D

 38 42  0  0  1  0  0  0  0  0999 V2000
  184.8090  178.8270  146.4390 N   0  0  0  0  0  0  0  0  0  0  0  0
  183.5390  178.6530  141.6900 C   0  0  0  0  0  0  0  0  0  0  0  0
  181.9310  179.1460  143.3100 F   0  0  0  0  0  0  0  0  0  0  0  0
  185.9000  178.3360  142.3690 N   0  0  0  0  0  0  0  0  0  0  0  0
  186.1550  178.4720  146.1080 C   0  0  0  0  0  3  0  0  0  0  0  0
  184.9150  178.1770  141.3000 C   0  0  0  0  0  3  0  0  0  0  0  0
  183.7140  178.6660  145.4850 C   0  0  0  0  0  3  0  0  0  0  0  0
  185.4900  178.4040  143.7540 C   0  0  1  0  0  3  0  0  0  0  0  0
  186.4880  178.2590  144.8380 C   0  0  0  0  0  3  0  0  0  0  0  0
  183.2060  178.8150  142.9780 C   0  0  0  0  0  0  0  0  0  0  0  0
  184.1990  178.6430  144.0540 C   0  0  0  0  0  0  0  0  0  0  0  0
  187.3030  178.2390  141.9660 C   0  0  1  0  0  3  0  0  0  0  0  0
  187.8670  177.0570  142.4480 O   0  0  0  0  0  1  0  0  0  0  0  0
  187.4460  178.3190  140.4550 C   0  0  0  0  0  2  0  0  0  0  0  0
  188.8830  178.6450  140.0950 C   0  0  0  0  0  2  0  0  0  0  0  0
  188.1670  177.6800  135.5010 S   0  0  1  0  0  0  0  0  0  0  0  0
  189.5390  177.8390  137.7680 C   0  0  2  0  0  3  0  0  0  0  0  0
  189.4900  177.5380  139.2460 C   0  0  2  0  0  0  0  0  0  0  0  0
  188.5810  178.6860  136.9660 C   0  0  0  0  0  2  0  0  0  0  0  0
  188.8630  175.6710  137.3830 C   0  0  0  0  0  2  0  0  0  0  0  0
  189.4540  177.7090  134.6830 O   0  0  0  0  0  0  0  0  0  0  0  0
  188.5440  176.8110  138.3200 C   0  0  2  0  0  3  0  0  0  0  0  0
  188.0750  175.9320  136.0800 C   0  0  0  0  0  2  0  0  0  0  0  0
  190.5770  176.1820  140.8880 O   0  0  0  0  0  1  0  0  0  0  0  0
  191.8050  176.6300  139.0080 O   0  0  0  0  0  0  0  0  0  0  0  0
  190.6520  176.7570  139.7700 C   0  0  0  0  0  0  0  0  0  0  0  0
  182.4840  178.7930  140.6260 C   0  0  2  0  0  3  0  0  0  0  0  0
  181.4210  175.2850  137.7230 C   0  0  0  0  0  1  0  0  0  0  0  0
  182.3670  176.8020  139.1620 N   0  0  0  0  0  2  0  0  0  0  0  0
  180.0670  176.7490  138.9420 C   0  0  0  0  0  2  0  0  0  0  0  0
  181.3290  176.6450  138.2230 N   0  0  0  0  0  0  0  0  0  0  0  0
  181.8100  177.4460  140.3510 C   0  0  2  0  0  3  0  0  0  0  0  0
  180.3320  177.6160  140.1340 C   0  0  2  0  0  3  0  0  0  0  0  0
  179.2990  177.9310  142.2790 O   0  0  0  0  0  1  0  0  0  0  0  0
  179.5530  177.1500  141.3230 C   0  0  0  0  0  0  0  0  0  0  0  0
  179.1130  175.8320  141.3780 O   0  0  0  0  0  0  0  0  0  0  0  0
  183.0090  179.3440  139.4500 O   0  0  0  0  0  0  0  0  0  0  0  0
  182.1020  180.3410  139.0850 C   0  0  0  0  0  1  0  0  0  0  0  0
  2 10  1  0  0  0  0
  4  8  1  0  0  0  0
  5  1  1  0  0  0  0
  6  2  2  0  0  0  0
  6  4  1  0  0  0  0
  7  1  2  0  0  0  0
  8 11  1  0  0  0  0
  8  9  1  1  0  0  0
  9  5  2  0  0  0  0
 10  3  1  0  0  0  0
 10 11  2  0  0  0  0
 11  7  1  0  0  0  0
 12  4  1  0  0  0  0
 12 13  1  6  0  0  0
 14 12  1  0  0  0  0
 15 14  1  0  0  0  0
 16 21  2  6  0  0  0
 16 23  1  0  0  0  0
 16 19  1  0  0  0  0
 17 19  1  1  0  0  0
 17 22  1  0  0  0  0
 17 18  1  0  0  0  0
 18 26  1  0  0  0  0
 18 15  1  1  0  0  0
 22 20  1  6  0  0  0
 22 18  1  0  0  0  0
 23 20  1  0  0  0  0
 25 26  2  0  0  0  0
 26 24  1  0  0  0  0
 27 37  1  6  0  0  0
 27  2  1  0  0  0  0
 28 31  1  0  0  0  0
 29 32  1  0  0  0  0
 30 33  1  0  0  0  0
 31 30  1  0  0  0  0
 31 29  1  0  0  0  0
 32 27  1  6  0  0  0
 33 32  1  0  0  0  0
 33 35  1  1  0  0  0
 35 36  2  0  0  0  0
 35 34  1  0  0  0  0
 38 37  1  0  0  0  0
M  END
>  <MODEL>
1

>  <REMARK>
 VINA RESULT:      -7.6      0.000      0.000
  Name = 
  9 active torsions:
  status: ('A' for Active; 'I' for Inactive)
    1  A    between atoms: C_3  and  C_16
    2  A    between atoms: C_3  and  C_17
    3  A    between atoms: C_4  and  C_36
    4  A    between atoms: O_5  and  C_26
    5  A    between atoms: C_8  and  C_26
    6  A    between atoms: N_11  and  C_16
    7  A    between atoms: C_17  and  C_23
    8  A    between atoms: C_22  and  C_26
    9  A    between atoms: C_23  and  C_32
                            x       y       z     vdW  Elec       q    Type
                         _______ _______ _______ _____ _____    ______ ____

>  <TORSDO>
F 9

$$$$
=
 OpenBabel11062414353D

 38 42  0  0  1  0  0  0  0  0999 V2000
  188.4410  177.3060  137.6790 N   0  0  0  0  0  0  0  0  0  0  0  0
  183.8670  178.5030  139.0370 C   0  0  0  0  0  0  0  0  0  0  0  0
  184.2570  177.6050  136.9170 F   0  0  0  0  0  0  0  0  0  0  0  0
  185.7500  178.7370  140.6300 N   0  0  0  0  0  0  0  0  0  0  0  0
  188.9510  177.7710  138.9330 C   0  0  0  0  0  3  0  0  0  0  0  0
  184.3660  179.1010  140.3290 C   0  0  0  0  0  3  0  0  0  0  0  0
  187.0930  177.6410  137.2250 C   0  0  0  0  0  2  0  0  0  0  0  0
  186.6620  178.3450  139.5790 C   0  0  0  0  0  0  0  0  0  0  0  0
  188.1180  178.2750  139.8380 C   0  0  0  0  0  3  0  0  0  0  0  0
  184.7240  178.0440  138.1150 C   0  0  0  0  0  0  0  0  0  0  0  0
  186.1760  178.0030  138.3700 C   0  0  0  0  0  0  0  0  0  0  0  0
  186.1870  178.9690  142.0070 C   0  0  1  0  0  3  0  0  0  0  0  0
  185.6560  180.1650  142.4920 O   0  0  0  0  0  1  0  0  0  0  0  0
  185.7940  177.8090  142.9090 C   0  0  0  0  0  2  0  0  0  0  0  0
  187.0170  176.9680  143.2180 C   0  0  0  0  0  2  0  0  0  0  0  0
  191.5990  178.0680  143.8100 S   0  0  1  0  0  0  0  0  0  0  0  0
  188.9800  178.2710  144.1920 C   0  0  2  0  0  3  0  0  0  0  0  0
  187.7230  177.4820  144.4640 C   0  0  2  0  0  0  0  0  0  0  0  0
  189.9440  178.1040  143.0420 C   0  0  0  0  0  2  0  0  0  0  0  0
  189.9680  177.1570  145.9490 C   0  0  0  0  0  2  0  0  0  0  0  0
  191.8070  179.5120  144.2550 O   0  0  0  0  0  0  0  0  0  0  0  0
  189.0620  176.8570  144.7790 C   0  0  2  0  0  3  0  0  0  0  0  0
  191.4130  177.1580  145.4020 C   0  0  0  0  0  2  0  0  0  0  0  0
  186.2770  179.0450  145.5500 O   0  0  0  0  0  0  0  0  0  0  0  0
  186.8350  177.1970  146.7820 O   0  0  0  0  0  1  0  0  0  0  0  0
  186.9150  177.9620  145.6260 C   0  0  0  0  0  0  0  0  0  0  0  0
  182.3980  178.5720  138.7180 C   0  0  2  0  0  3  0  0  0  0  0  0
  179.0570  180.2060  141.5520 C   0  0  0  0  0  1  0  0  0  0  0  0
  180.8890  179.2430  140.5600 N   0  0  0  0  0  2  0  0  0  0  0  0
  179.6260  180.7550  139.3530 C   0  0  0  0  0  2  0  0  0  0  0  0
  179.5670  179.6580  140.3080 N   0  0  0  0  0  0  0  0  0  0  0  0
  181.7340  179.7280  139.4690 C   0  0  2  0  0  3  0  0  0  0  0  0
  180.8720  180.5460  138.5490 C   0  0  2  0  0  3  0  0  0  0  0  0
  180.9260  182.7150  137.5170 O   0  0  0  0  0  0  0  0  0  0  0  0
  181.5230  181.8510  138.2140 C   0  0  0  0  0  0  0  0  0  0  0  0
  182.8100  182.1090  138.6720 O   0  0  0  0  0  1  0  0  0  0  0  0
  181.7560  177.3570  138.9900 O   0  0  0  0  0  0  0  0  0  0  0  0
  181.1590  176.9890  137.7830 C   0  0  0  0  0  1  0  0  0  0  0  0
  1  5  2  0  0  0  0
  2  6  2  0  0  0  0
  3 10  1  0  0  0  0
  4 12  1  0  0  0  0
  5  9  1  0  0  0  0
  6  4  1  0  0  0  0
  7  1  1  0  0  0  0
  7 11  1  0  0  0  0
  8  9  2  0  0  0  0
  8  4  1  0  0  0  0
 10 11  2  0  0  0  0
 10  2  1  0  0  0  0
 11  8  1  0  0  0  0
 12 13  1  1  0  0  0
 12 14  1  0  0  0  0
 14 15  1  0  0  0  0
 16 21  2  1  0  0  0
 16 23  1  0  0  0  0
 17 19  1  6  0  0  0
 17 18  1  0  0  0  0
 17 22  1  0  0  0  0
 18 15  1  6  0  0  0
 18 22  1  0  0  0  0
 18 26  1  0  0  0  0
 19 16  1  0  0  0  0
 22 20  1  1  0  0  0
 23 20  1  0  0  0  0
 24 26  2  0  0  0  0
 26 25  1  0  0  0  0
 27 37  1  1  0  0  0
 27  2  1  0  0  0  0
 30 31  1  0  0  0  0
 31 29  1  0  0  0  0
 31 28  1  0  0  0  0
 32 27  1  6  0  0  0
 32 29  1  0  0  0  0
 33 35  1  1  0  0  0
 33 30  1  0  0  0  0
 33 32  1  0  0  0  0
 34 35  2  0  0  0  0
 35 36  1  0  0  0  0
 38 37  1  0  0  0  0
M  END
>  <MODEL>
2

>  <REMARK>
 VINA RESULT:      -7.3      3.508      6.095
  Name = 
  9 active torsions:
  status: ('A' for Active; 'I' for Inactive)
    1  A    between atoms: C_3  and  C_16
    2  A    between atoms: C_3  and  C_17
    3  A    between atoms: C_4  and  C_36
    4  A    between atoms: O_5  and  C_26
    5  A    between atoms: C_8  and  C_26
    6  A    between atoms: N_11  and  C_16
    7  A    between atoms: C_17  and  C_23
    8  A    between atoms: C_22  and  C_26
    9  A    between atoms: C_23  and  C_32
                            x       y       z     vdW  Elec       q    Type
                         _______ _______ _______ _____ _____    ______ ____

>  <TORSDO>
F 9

$$$$
=
 OpenBabel11062414353D

 38 42  0  0  1  0  0  0  0  0999 V2000
  188.3030  177.0910  146.6930 N   0  0  0  0  0  0  0  0  0  0  0  0
  189.1970  177.7120  141.8960 C   0  0  0  0  0  0  0  0  0  0  0  0
  190.8870  176.9320  143.3070 F   0  0  0  0  0  0  0  0  0  0  0  0
  186.9290  178.1110  142.8110 N   0  0  0  0  0  0  0  0  0  0  0  0
  186.9660  177.5730  146.5220 C   0  0  0  0  0  3  0  0  0  0  0  0
  187.8350  178.3220  141.6820 C   0  0  0  0  0  3  0  0  0  0  0  0
  189.3270  177.2840  145.6690 C   0  0  0  0  0  3  0  0  0  0  0  0
  187.4430  177.8600  144.1390 C   0  0  1  0  0  3  0  0  0  0  0  0
  186.5500  177.9490  145.3170 C   0  0  0  0  0  3  0  0  0  0  0  0
  189.6190  177.3840  143.1260 C   0  0  0  0  0  0  0  0  0  0  0  0
  188.7320  177.5020  144.2970 C   0  0  0  0  0  0  0  0  0  0  0  0
  185.5100  178.3470  142.5460 C   0  0  1  0  0  3  0  0  0  0  0  0
  185.1720  179.6670  142.8480 O   0  0  0  0  0  1  0  0  0  0  0  0
  185.1620  178.0270  141.1020 C   0  0  0  0  0  2  0  0  0  0  0  0
  183.6590  178.1100  140.9100 C   0  0  0  0  0  2  0  0  0  0  0  0
  181.9580  175.1110  137.6440 S   0  0  1  0  0  0  0  0  0  0  0  0
  182.2860  177.4430  138.8680 C   0  0  2  0  0  3  0  0  0  0  0  0
  183.3160  178.3790  139.4520 C   0  0  2  0  0  0  0  0  0  0  0  0
  182.0360  176.0010  139.2350 C   0  0  0  0  0  2  0  0  0  0  0  0
  183.5720  177.3440  136.9590 C   0  0  0  0  0  2  0  0  0  0  0  0
  180.6310  175.5730  137.0520 O   0  0  0  0  0  0  0  0  0  0  0  0
  183.7600  177.3320  138.4570 C   0  0  2  0  0  3  0  0  0  0  0  0
  183.2090  175.9010  136.5450 C   0  0  0  0  0  2  0  0  0  0  0  0
  184.2500  180.5390  139.0300 O   0  0  0  0  0  1  0  0  0  0  0  0
  182.0710  180.2620  138.3830 O   0  0  0  0  0  0  0  0  0  0  0  0
  183.2420  179.7880  138.9580 C   0  0  0  0  0  0  0  0  0  0  0  0
  190.1490  177.6220  140.7350 C   0  0  2  0  0  3  0  0  0  0  0  0
  190.0090  174.6050  137.1650 C   0  0  0  0  0  1  0  0  0  0  0  0
  189.9530  175.7120  139.1750 N   0  0  0  0  0  2  0  0  0  0  0  0
  189.9820  176.9410  137.2190 C   0  0  0  0  0  2  0  0  0  0  0  0
  190.5150  175.7610  137.8840 N   0  0  0  0  0  0  0  0  0  0  0  0
  189.4490  177.0450  139.5030 C   0  0  2  0  0  3  0  0  0  0  0  0
  189.6570  177.9240  138.3010 C   0  0  2  0  0  3  0  0  0  0  0  0
  187.2840  178.2920  138.3450 O   0  0  0  0  0  1  0  0  0  0  0  0
  188.4190  178.6970  137.9740 C   0  0  0  0  0  0  0  0  0  0  0  0
  188.5220  179.8740  137.2410 O   0  0  0  0  0  0  0  0  0  0  0  0
  191.2900  176.8780  141.0620 O   0  0  0  0  0  0  0  0  0  0  0  0
  192.3620  177.6370  140.5880 C   0  0  0  0  0  1  0  0  0  0  0  0
  2 10  1  0  0  0  0
  4  8  1  0  0  0  0
  5  1  1  0  0  0  0
  6  2  2  0  0  0  0
  6  4  1  0  0  0  0
  7  1  2  0  0  0  0
  8 11  1  0  0  0  0
  8  9  1  6  0  0  0
  9  5  2  0  0  0  0
 10  3  1  0  0  0  0
 10 11  2  0  0  0  0
 11  7  1  0  0  0  0
 12  4  1  0  0  0  0
 12 13  1  6  0  0  0
 14 12  1  0  0  0  0
 15 14  1  0  0  0  0
 16 21  2  6  0  0  0
 16 19  1  0  0  0  0
 17 19  1  1  0  0  0
 17 18  1  0  0  0  0
 18 15  1  1  0  0  0
 22 20  1  6  0  0  0
 22 17  1  0  0  0  0
 22 18  1  0  0  0  0
 23 20  1  0  0  0  0
 23 16  1  0  0  0  0
 25 26  2  0  0  0  0
 26 24  1  0  0  0  0
 26 18  1  0  0  0  0
 27 37  1  1  0  0  0
 27  2  1  0  0  0  0
 28 31  1  0  0  0  0
 29 32  1  0  0  0  0
 30 31  1  0  0  0  0
 30 33  1  0  0  0  0
 31 29  1  0  0  0  0
 32 27  1  1  0  0  0
 33 35  1  6  0  0  0
 33 32  1  0  0  0  0
 35 34  1  0  0  0  0
 36 35  2  0  0  0  0
 38 37  1  0  0  0  0
M  END
>  <MODEL>
3

>  <REMARK>
 VINA RESULT:      -7.3      3.232      7.098
  Name = 
  9 active torsions:
  status: ('A' for Active; 'I' for Inactive)
    1  A    between atoms: C_3  and  C_16
    2  A    between atoms: C_3  and  C_17
    3  A    between atoms: C_4  and  C_36
    4  A    between atoms: O_5  and  C_26
    5  A    between atoms: C_8  and  C_26
    6  A    between atoms: N_11  and  C_16
    7  A    between atoms: C_17  and  C_23
    8  A    between atoms: C_22  and  C_26
    9  A    between atoms: C_23  and  C_32
                            x       y       z     vdW  Elec       q    Type
                         _______ _______ _______ _____ _____    ______ ____

>  <TORSDO>
F 9

$$$$
=
 OpenBabel11062414353D

 38 42  0  0  1  0  0  0  0  0999 V2000
  186.7860  178.2520  147.0810 N   0  0  0  0  0  0  0  0  0  0  0  0
  184.0060  178.4230  143.0270 C   0  0  0  0  0  0  0  0  0  0  0  0
  183.0300  178.7420  145.1250 F   0  0  0  0  0  0  0  0  0  0  0  0
  186.4580  178.1150  142.8540 N   0  0  0  0  0  0  0  0  0  0  0  0
  187.9440  177.9590  146.2930 C   0  0  0  0  0  3  0  0  0  0  0  0
  185.1720  178.0150  142.1630 C   0  0  0  0  0  3  0  0  0  0  0  0
  185.4350  178.1380  146.5350 C   0  0  0  0  0  3  0  0  0  0  0  0
  186.5330  178.0620  144.2970 C   0  0  1  0  0  3  0  0  0  0  0  0
  187.8340  177.8570  144.9720 C   0  0  0  0  0  3  0  0  0  0  0  0
  184.1210  178.4730  144.3610 C   0  0  0  0  0  0  0  0  0  0  0  0
  185.4160  178.2410  145.0280 C   0  0  0  0  0  0  0  0  0  0  0  0
  187.6460  178.0880  142.0010 C   0  0  1  0  0  3  0  0  0  0  0  0
  188.2800  176.8480  142.0900 O   0  0  0  0  0  1  0  0  0  0  0  0
  187.2900  178.4010  140.5560 C   0  0  0  0  0  2  0  0  0  0  0  0
  188.5610  178.5620  139.7430 C   0  0  0  0  0  2  0  0  0  0  0  0
  191.4550  175.3170  137.8330 S   0  0  1  0  0  0  0  0  0  0  0  0
  189.1380  176.5070  138.3510 C   0  0  2  0  0  3  0  0  0  0  0  0
  188.4400  177.8430  138.4080 C   0  0  2  0  0  0  0  0  0  0  0  0
  190.3810  176.0820  139.0950 C   0  0  0  0  0  2  0  0  0  0  0  0
  189.8840  177.0720  136.2460 C   0  0  0  0  0  2  0  0  0  0  0  0
  190.7460  174.0030  137.5240 O   0  0  0  0  0  0  0  0  0  0  0  0
  189.7110  177.7150  137.6010 C   0  0  2  0  0  3  0  0  0  0  0  0
  191.2190  176.2970  136.2890 C   0  0  0  0  0  2  0  0  0  0  0  0
  186.8270  178.9920  137.0690 O   0  0  0  0  0  0  0  0  0  0  0  0
  186.3520  176.7980  137.5200 O   0  0  0  0  0  1  0  0  0  0  0  0
  187.1610  177.9200  137.6390 C   0  0  0  0  0  0  0  0  0  0  0  0
  182.6560  178.6190  142.3900 C   0  0  2  0  0  3  0  0  0  0  0  0
  182.0130  180.6060  138.2060 C   0  0  0  0  0  1  0  0  0  0  0  0
  182.6970  179.9230  140.2880 N   0  0  0  0  0  2  0  0  0  0  0  0
  181.2050  178.6080  139.1120 C   0  0  0  0  0  2  0  0  0  0  0  0
  181.5730  179.9780  139.4400 N   0  0  0  0  0  0  0  0  0  0  0  0
  182.7670  178.5810  140.8640 C   0  0  2  0  0  3  0  0  0  0  0  0
  181.6580  177.7630  140.2620 C   0  0  2  0  0  3  0  0  0  0  0  0
  181.4720  175.3900  139.9450 O   0  0  0  0  0  1  0  0  0  0  0  0
  182.1590  176.4350  139.7910 C   0  0  0  0  0  0  0  0  0  0  0  0
  183.4070  176.3520  139.1820 O   0  0  0  0  0  0  0  0  0  0  0  0
  182.0510  179.8050  142.8230 O   0  0  0  0  0  0  0  0  0  0  0  0
  180.7360  179.4470  143.1260 C   0  0  0  0  0  1  0  0  0  0  0  0
  2 10  1  0  0  0  0
  4  8  1  0  0  0  0
  5  1  1  0  0  0  0
  6  4  1  0  0  0  0
  6  2  2  0  0  0  0
  7  1  2  0  0  0  0
  8  9  1  1  0  0  0
  8 11  1  0  0  0  0
  9  5  2  0  0  0  0
 10 11  2  0  0  0  0
 10  3  1  0  0  0  0
 11  7  1  0  0  0  0
 12 13  1  6  0  0  0
 12  4  1  0  0  0  0
 14 12  1  0  0  0  0
 15 14  1  0  0  0  0
 16 21  2  6  0  0  0
 16 19  1  0  0  0  0
 17 18  1  0  0  0  0
 17 19  1  1  0  0  0
 18 15  1  1  0  0  0
 20 23  1  0  0  0  0
 22 20  1  6  0  0  0
 22 17  1  0  0  0  0
 22 18  1  0  0  0  0
 23 16  1  0  0  0  0
 24 26  2  0  0  0  0
 25 26  1  0  0  0  0
 26 18  1  0  0  0  0
 27 37  1  6  0  0  0
 27  2  1  0  0  0  0
 28 31  1  0  0  0  0
 29 32  1  0  0  0  0
 30 31  1  0  0  0  0
 30 33  1  0  0  0  0
 31 29  1  0  0  0  0
 32 27  1  1  0  0  0
 33 35  1  6  0  0  0
 33 32  1  0  0  0  0
 35 34  1  0  0  0  0
 36 35  2  0  0  0  0
 37 38  1  0  0  0  0
M  END
>  <MODEL>
4

>  <REMARK>
 VINA RESULT:      -7.1      2.076      3.010
  Name = 
  9 active torsions:
  status: ('A' for Active; 'I' for Inactive)
    1  A    between atoms: C_3  and  C_16
    2  A    between atoms: C_3  and  C_17
    3  A    between atoms: C_4  and  C_36
    4  A    between atoms: O_5  and  C_26
    5  A    between atoms: C_8  and  C_26
    6  A    between atoms: N_11  and  C_16
    7  A    between atoms: C_17  and  C_23
    8  A    between atoms: C_22  and  C_26
    9  A    between atoms: C_23  and  C_32
                            x       y       z     vdW  Elec       q    Type
                         _______ _______ _______ _____ _____    ______ ____

>  <TORSDO>
F 9

$$$$
=
 OpenBabel11062414353D

 38 42  0  0  1  0  0  0  0  0999 V2000
  186.5250  178.0460  146.4270 N   0  0  0  0  0  0  0  0  0  0  0  0
  184.8130  178.6230  141.8520 C   0  0  0  0  0  0  0  0  0  0  0  0
  183.3940  178.9480  143.6780 F   0  0  0  0  0  0  0  0  0  0  0  0
  187.2030  178.1020  142.2390 N   0  0  0  0  0  0  0  0  0  0  0  0
  187.8110  177.6810  145.9160 C   0  0  0  0  0  3  0  0  0  0  0  0
  186.1160  178.1450  141.2630 C   0  0  0  0  0  3  0  0  0  0  0  0
  185.3390  178.0760  145.5740 C   0  0  0  0  0  3  0  0  0  0  0  0
  186.9280  177.9870  143.6540 C   0  0  1  0  0  3  0  0  0  0  0  0
  188.0110  177.6400  144.6020 C   0  0  0  0  0  3  0  0  0  0  0  0
  184.6110  178.6110  143.1770 C   0  0  0  0  0  0  0  0  0  0  0  0
  185.6870  178.2380  144.1130 C   0  0  0  0  0  0  0  0  0  0  0  0
  188.5540  178.0000  141.6880 C   0  0  1  0  0  3  0  0  0  0  0  0
  188.9790  176.6710  141.6820 O   0  0  0  0  0  1  0  0  0  0  0  0
  188.6200  178.5860  140.2870 C   0  0  0  0  0  2  0  0  0  0  0  0
  189.6000  177.7890  139.4470 C   0  0  0  0  0  2  0  0  0  0  0  0
  190.9500  174.5360  136.2610 S   0  0  1  0  0  0  0  0  0  0  0  0
  189.2500  176.0990  137.5710 C   0  0  2  0  0  3  0  0  0  0  0  0
  189.0220  177.5050  138.0680 C   0  0  2  0  0  0  0  0  0  0  0  0
  190.4140  175.1880  137.8790 C   0  0  0  0  0  2  0  0  0  0  0  0
  189.7370  176.9910  135.5040 C   0  0  0  0  0  2  0  0  0  0  0  0
  189.8250  173.5780  135.8820 O   0  0  0  0  0  0  0  0  0  0  0  0
  190.0220  177.2740  136.9600 C   0  0  2  0  0  3  0  0  0  0  0  0
  190.7520  175.9170  135.0540 C   0  0  0  0  0  2  0  0  0  0  0  0
  187.6670  179.2740  137.2030 O   0  0  0  0  0  0  0  0  0  0  0  0
  186.5420  177.3710  137.8010 O   0  0  0  0  0  1  0  0  0  0  0  0
  187.7120  178.1090  137.6770 C   0  0  0  0  0  0  0  0  0  0  0  0
  183.6730  178.9640  140.9290 C   0  0  2  0  0  3  0  0  0  0  0  0
  180.9130  175.5130  139.4020 C   0  0  0  0  0  1  0  0  0  0  0  0
  182.5780  176.8600  140.2270 N   0  0  0  0  0  2  0  0  0  0  0  0
  180.4300  177.6980  140.0760 C   0  0  0  0  0  2  0  0  0  0  0  0
  181.4280  176.8700  139.4130 N   0  0  0  0  0  0  0  0  0  0  0  0
  182.5010  178.0020  141.1370 C   0  0  2  0  0  3  0  0  0  0  0  0
  181.1870  178.6930  140.9000 C   0  0  2  0  0  3  0  0  0  0  0  0
  180.6560  180.0610  142.8010 O   0  0  0  0  0  1  0  0  0  0  0  0
  180.4820  178.9730  142.1890 C   0  0  0  0  0  0  0  0  0  0  0  0
  179.6300  178.0130  142.7250 O   0  0  0  0  0  0  0  0  0  0  0  0
  184.0840  178.9780  139.5900 O   0  0  0  0  0  0  0  0  0  0  0  0
  183.4900  180.1190  139.0460 C   0  0  0  0  0  1  0  0  0  0  0  0
  2 10  1  0  0  0  0
  4  8  1  0  0  0  0
  5  1  1  0  0  0  0
  6  2  2  0  0  0  0
  6  4  1  0  0  0  0
  7  1  2  0  0  0  0
  8 11  1  0  0  0  0
  8  9  1  1  0  0  0
  9  5  2  0  0  0  0
 10  3  1  0  0  0  0
 10 11  2  0  0  0  0
 11  7  1  0  0  0  0
 12 13  1  6  0  0  0
 12  4  1  0  0  0  0
 14 12  1  0  0  0  0
 15 14  1  0  0  0  0
 16 21  2  6  0  0  0
 16 19  1  0  0  0  0
 17 19  1  1  0  0  0
 17 18  1  0  0  0  0
 18 15  1  1  0  0  0
 22 20  1  6  0  0  0
 22 17  1  0  0  0  0
 22 18  1  0  0  0  0
 23 20  1  0  0  0  0
 23 16  1  0  0  0  0
 24 26  2  0  0  0  0
 26 25  1  0  0  0  0
 26 18  1  0  0  0  0
 27 37  1  6  0  0  0
 27  2  1  0  0  0  0
 28 31  1  0  0  0  0
 29 32  1  0  0  0  0
 30 33  1  0  0  0  0
 31 30  1  0  0  0  0
 31 29  1  0  0  0  0
 32 27  1  6  0  0  0
 33 32  1  0  0  0  0
 33 35  1  1  0  0  0
 35 36  2  0  0  0  0
 35 34  1  0  0  0  0
 38 37  1  0  0  0  0
M  END
>  <MODEL>
5

>  <REMARK>
 VINA RESULT:      -7.1      1.868      2.413
  Name = 
  9 active torsions:
  status: ('A' for Active; 'I' for Inactive)
    1  A    between atoms: C_3  and  C_16
    2  A    between atoms: C_3  and  C_17
    3  A    between atoms: C_4  and  C_36
    4  A    between atoms: O_5  and  C_26
    5  A    between atoms: C_8  and  C_26
    6  A    between atoms: N_11  and  C_16
    7  A    between atoms: C_17  and  C_23
    8  A    between atoms: C_22  and  C_26
    9  A    between atoms: C_23  and  C_32
                            x       y       z     vdW  Elec       q    Type
                         _______ _______ _______ _____ _____    ______ ____

>  <TORSDO>
F 9

$$$$
=
 OpenBabel11062414353D

 38 42  0  0  1  0  0  0  0  0999 V2000
  188.3140  177.0510  136.8160 N   0  0  0  0  0  0  0  0  0  0  0  0
  184.0390  178.1600  138.9830 C   0  0  0  0  0  0  0  0  0  0  0  0
  184.0520  177.0460  136.9300 F   0  0  0  0  0  0  0  0  0  0  0  0
  186.1850  178.6720  140.1090 N   0  0  0  0  0  0  0  0  0  0  0  0
  189.0340  177.6830  137.8790 C   0  0  0  0  0  3  0  0  0  0  0  0
  184.7460  178.9260  140.0720 C   0  0  0  0  0  3  0  0  0  0  0  0
  186.8810  177.2630  136.6260 C   0  0  0  0  0  2  0  0  0  0  0  0
  186.8900  178.2090  138.9330 C   0  0  0  0  0  0  0  0  0  0  0  0
  188.3690  178.2450  138.8840 C   0  0  0  0  0  3  0  0  0  0  0  0
  184.7210  177.6430  137.9510 C   0  0  0  0  0  0  0  0  0  0  0  0
  186.1930  177.7060  137.8960 C   0  0  0  0  0  0  0  0  0  0  0  0
  186.8770  179.0820  141.3310 C   0  0  1  0  0  3  0  0  0  0  0  0
  185.9730  179.6390  142.2370 O   0  0  0  0  0  1  0  0  0  0  0  0
  187.6110  177.9110  141.9640 C   0  0  0  0  0  2  0  0  0  0  0  0
  188.9530  178.3780  142.4950 C   0  0  0  0  0  2  0  0  0  0  0  0
  189.2110  177.5760  147.1690 S   0  0  1  0  0  0  0  0  0  0  0  0
  189.0910  176.9390  144.5940 C   0  0  2  0  0  3  0  0  0  0  0  0
  189.6620  177.2530  143.2330 C   0  0  2  0  0  0  0  0  0  0  0  0
  188.4190  177.8900  145.5550 C   0  0  0  0  0  2  0  0  0  0  0  0
  191.2510  176.7540  145.3730 C   0  0  0  0  0  2  0  0  0  0  0  0
  188.6640  176.2080  147.5640 O   0  0  0  0  0  0  0  0  0  0  0  0
  190.4430  177.6490  144.4640 C   0  0  2  0  0  3  0  0  0  0  0  0
  190.9880  177.2340  146.8170 C   0  0  0  0  0  2  0  0  0  0  0  0
  190.2130  174.9360  143.0190 O   0  0  0  0  0  1  0  0  0  0  0  0
  190.5390  176.2060  141.1410 O   0  0  0  0  0  0  0  0  0  0  0  0
  190.1630  176.0690  142.4710 C   0  0  0  0  0  0  0  0  0  0  0  0
  182.5350  178.1160  138.9760 C   0  0  2  0  0  3  0  0  0  0  0  0
  179.5710  180.0690  142.0200 C   0  0  0  0  0  1  0  0  0  0  0  0
  181.2730  179.0000  140.9110 N   0  0  0  0  0  2  0  0  0  0  0  0
  179.8290  180.3490  139.7140 C   0  0  0  0  0  2  0  0  0  0  0  0
  179.9200  179.3760  140.7930 N   0  0  0  0  0  0  0  0  0  0  0  0
  181.9540  179.3520  139.6660 C   0  0  2  0  0  3  0  0  0  0  0  0
  180.9600  180.0490  138.7790 C   0  0  2  0  0  3  0  0  0  0  0  0
  180.9160  181.9570  137.3220 O   0  0  0  0  0  0  0  0  0  0  0  0
  181.5340  181.3060  138.2060 C   0  0  0  0  0  0  0  0  0  0  0  0
  182.7720  181.7560  138.6490 O   0  0  0  0  0  1  0  0  0  0  0  0
  182.0530  176.9370  139.5600 O   0  0  0  0  0  0  0  0  0  0  0  0
  181.2600  176.3470  138.5740 C   0  0  0  0  0  1  0  0  0  0  0  0
  1  5  2  0  0  0  0
  2  6  2  0  0  0  0
  3 10  1  0  0  0  0
  4 12  1  0  0  0  0
  5  9  1  0  0  0  0
  6  4  1  0  0  0  0
  7  1  1  0  0  0  0
  7 11  1  0  0  0  0
  8  4  1  0  0  0  0
  9  8  2  0  0  0  0
 10  2  1  0  0  0  0
 11 10  2  0  0  0  0
 11  8  1  0  0  0  0
 12 14  1  0  0  0  0
 12 13  1  1  0  0  0
 14 15  1  0  0  0  0
 16 21  2  6  0  0  0
 17 19  1  1  0  0  0
 18 15  1  6  0  0  0
 18 22  1  0  0  0  0
 18 17  1  0  0  0  0
 19 16  1  0  0  0  0
 20 23  1  0  0  0  0
 22 17  1  0  0  0  0
 22 20  1  6  0  0  0
 23 16  1  0  0  0  0
 25 26  2  0  0  0  0
 26 24  1  0  0  0  0
 26 18  1  0  0  0  0
 27  2  1  0  0  0  0
 27 37  1  1  0  0  0
 30 31  1  0  0  0  0
 31 29  1  0  0  0  0
 31 28  1  0  0  0  0
 32 27  1  6  0  0  0
 32 29  1  0  0  0  0
 33 35  1  1  0  0  0
 33 32  1  0  0  0  0
 33 30  1  0  0  0  0
 34 35  2  0  0  0  0
 35 36  1  0  0  0  0
 38 37  1  0  0  0  0
M  END
>  <MODEL>
6

>  <REMARK>
 VINA RESULT:      -7.1      3.577      6.181
  Name = 
  9 active torsions:
  status: ('A' for Active; 'I' for Inactive)
    1  A    between atoms: C_3  and  C_16
    2  A    between atoms: C_3  and  C_17
    3  A    between atoms: C_4  and  C_36
    4  A    between atoms: O_5  and  C_26
    5  A    between atoms: C_8  and  C_26
    6  A    between atoms: N_11  and  C_16
    7  A    between atoms: C_17  and  C_23
    8  A    between atoms: C_22  and  C_26
    9  A    between atoms: C_23  and  C_32
                            x       y       z     vdW  Elec       q    Type
                         _______ _______ _______ _____ _____    ______ ____

>  <TORSDO>
F 9

$$$$
=
 OpenBabel11062414353D

 38 42  0  0  1  0  0  0  0  0999 V2000
  186.5680  177.3290  145.7120 N   0  0  0  0  0  0  0  0  0  0  0  0
  188.4500  177.7930  141.1910 C   0  0  0  0  0  0  0  0  0  0  0  0
  189.6880  176.7370  142.8670 F   0  0  0  0  0  0  0  0  0  0  0  0
  186.1480  178.5680  141.6760 N   0  0  0  0  0  0  0  0  0  0  0  0
  185.3870  178.0290  145.3090 C   0  0  0  0  0  3  0  0  0  0  0  0
  187.2740  178.6240  140.7450 C   0  0  0  0  0  3  0  0  0  0  0  0
  187.7860  177.3460  144.9040 C   0  0  0  0  0  3  0  0  0  0  0  0
  186.3500  178.2330  143.0680 C   0  0  1  0  0  3  0  0  0  0  0  0
  185.2770  178.4710  144.0590 C   0  0  0  0  0  3  0  0  0  0  0  0
  188.5700  177.3970  142.4660 C   0  0  0  0  0  0  0  0  0  0  0  0
  187.5080  177.6620  143.4540 C   0  0  0  0  0  0  0  0  0  0  0  0
  184.8640  179.0410  141.1580 C   0  0  1  0  0  3  0  0  0  0  0  0
  185.0490  179.7400  139.9640 O   0  0  0  0  0  1  0  0  0  0  0  0
  183.8970  177.8860  140.9540 C   0  0  0  0  0  2  0  0  0  0  0  0
  183.5320  177.7820  139.4850 C   0  0  0  0  0  2  0  0  0  0  0  0
  180.8170  181.6060  138.7360 S   0  0  1  0  0  0  0  0  0  0  0  0
  181.5520  179.0640  138.5190 C   0  0  2  0  0  3  0  0  0  0  0  0
  182.0240  177.8610  139.2980 C   0  0  2  0  0  0  0  0  0  0  0  0
  182.1870  180.4320  138.4590 C   0  0  0  0  0  2  0  0  0  0  0  0
  179.8390  179.2820  140.0430 C   0  0  0  0  0  2  0  0  0  0  0  0
  180.0150  181.5170  137.4420 O   0  0  0  0  0  0  0  0  0  0  0  0
  181.3170  178.9760  140.0320 C   0  0  2  0  0  3  0  0  0  0  0  0
  179.7030  180.8190  139.9770 C   0  0  0  0  0  2  0  0  0  0  0  0
  181.3680  175.6260  139.8400 O   0  0  0  0  0  1  0  0  0  0  0  0
  180.3430  176.5390  138.0060 O   0  0  0  0  0  0  0  0  0  0  0  0
  181.2410  176.6090  139.0620 C   0  0  0  0  0  0  0  0  0  0  0  0
  189.5780  177.5440  140.2260 C   0  0  2  0  0  3  0  0  0  0  0  0
  190.1100  174.5280  136.6920 C   0  0  0  0  0  1  0  0  0  0  0  0
  189.7480  175.6220  138.6770 N   0  0  0  0  0  2  0  0  0  0  0  0
  189.7970  176.8440  136.7170 C   0  0  0  0  0  2  0  0  0  0  0  0
  190.4090  175.7380  137.4380 N   0  0  0  0  0  0  0  0  0  0  0  0
  189.0610  176.8850  138.9450 C   0  0  2  0  0  3  0  0  0  0  0  0
  189.2640  177.7810  137.7560 C   0  0  2  0  0  3  0  0  0  0  0  0
  187.9390  179.5730  136.8600 O   0  0  0  0  0  0  0  0  0  0  0  0
  187.9740  178.3980  137.3160 C   0  0  0  0  0  0  0  0  0  0  0  0
  186.7960  177.6670  137.4210 O   0  0  0  0  0  1  0  0  0  0  0  0
  190.5960  176.7790  140.8120 O   0  0  0  0  0  0  0  0  0  0  0  0
  191.7680  177.4980  140.5690 C   0  0  0  0  0  1  0  0  0  0  0  0
  2 10  1  0  0  0  0
  4  8  1  0  0  0  0
  5  1  1  0  0  0  0
  6  2  2  0  0  0  0
  6  4  1  0  0  0  0
  7  1  2  0  0  0  0
  8 11  1  0  0  0  0
  8  9  1  6  0  0  0
  9  5  2  0  0  0  0
 10  3  1  0  0  0  0
 10 11  2  0  0  0  0
 11  7  1  0  0  0  0
 12 13  1  6  0  0  0
 12  4  1  0  0  0  0
 14 12  1  0  0  0  0
 15 14  1  0  0  0  0
 16 21  2  6  0  0  0
 16 23  1  0  0  0  0
 17 19  1  1  0  0  0
 17 18  1  0  0  0  0
 17 22  1  0  0  0  0
 18 15  1  1  0  0  0
 18 22  1  0  0  0  0
 19 16  1  0  0  0  0
 22 20  1  6  0  0  0
 23 20  1  0  0  0  0
 25 26  2  0  0  0  0
 26 18  1  0  0  0  0
 26 24  1  0  0  0  0
 27 37  1  1  0  0  0
 27  2  1  0  0  0  0
 28 31  1  0  0  0  0
 29 32  1  0  0  0  0
 30 31  1  0  0  0  0
 30 33  1  0  0  0  0
 31 29  1  0  0  0  0
 32 27  1  1  0  0  0
 33 35  1  6  0  0  0
 33 32  1  0  0  0  0
 34 35  2  0  0  0  0
 35 36  1  0  0  0  0
 38 37  1  0  0  0  0
M  END
>  <MODEL>
7

>  <REMARK>
 VINA RESULT:      -7.0      3.050      7.489
  Name = 
  9 active torsions:
  status: ('A' for Active; 'I' for Inactive)
    1  A    between atoms: C_3  and  C_16
    2  A    between atoms: C_3  and  C_17
    3  A    between atoms: C_4  and  C_36
    4  A    between atoms: O_5  and  C_26
    5  A    between atoms: C_8  and  C_26
    6  A    between atoms: N_11  and  C_16
    7  A    between atoms: C_17  and  C_23
    8  A    between atoms: C_22  and  C_26
    9  A    between atoms: C_23  and  C_32
                            x       y       z     vdW  Elec       q    Type
                         _______ _______ _______ _____ _____    ______ ____

>  <TORSDO>
F 9

$$$$
=
 OpenBabel11062414353D

 38 42  0  0  1  0  0  0  0  0999 V2000
  183.5060  179.0060  145.4850 N   0  0  0  0  0  0  0  0  0  0  0  0
  182.9180  178.5350  140.6240 C   0  0  0  0  0  0  0  0  0  0  0  0
  181.0550  178.8280  142.0020 F   0  0  0  0  0  0  0  0  0  0  0  0
  185.1890  178.5800  141.6140 N   0  0  0  0  0  0  0  0  0  0  0  0
  184.9210  178.8420  145.3460 C   0  0  0  0  0  3  0  0  0  0  0  0
  184.3870  178.2540  140.4350 C   0  0  0  0  0  3  0  0  0  0  0  0
  182.5820  178.6640  144.4060 C   0  0  0  0  0  3  0  0  0  0  0  0
  184.5920  178.6210  142.9310 C   0  0  1  0  0  3  0  0  0  0  0  0
  185.4470  178.6490  144.1390 C   0  0  0  0  0  3  0  0  0  0  0  0
  182.3970  178.6780  141.8510 C   0  0  0  0  0  0  0  0  0  0  0  0
  183.2520  178.6770  143.0520 C   0  0  0  0  0  0  0  0  0  0  0  0
  186.6320  178.6790  141.4000 C   0  0  1  0  0  3  0  0  0  0  0  0
  187.0750  179.9770  141.6550 O   0  0  0  0  0  1  0  0  0  0  0  0
  187.3840  177.6810  142.2660 C   0  0  0  0  0  2  0  0  0  0  0  0
  188.7400  178.2500  142.6390 C   0  0  0  0  0  2  0  0  0  0  0  0
  189.5200  177.4100  147.2480 S   0  0  1  0  0  0  0  0  0  0  0  0
  189.2080  176.8010  144.6830 C   0  0  2  0  0  3  0  0  0  0  0  0
  189.6140  177.1830  143.2810 C   0  0  2  0  0  0  0  0  0  0  0  0
  188.5500  177.6740  145.7240 C   0  0  0  0  0  2  0  0  0  0  0  0
  191.4410  176.8000  145.2470 C   0  0  0  0  0  2  0  0  0  0  0  0
  189.1370  175.9940  147.6630 O   0  0  0  0  0  0  0  0  0  0  0  0
  190.4730  177.6320  144.4400 C   0  0  2  0  0  3  0  0  0  0  0  0
  191.2780  177.2350  146.7200 C   0  0  0  0  0  2  0  0  0  0  0  0
  190.1800  174.8890  142.9120 O   0  0  0  0  0  1  0  0  0  0  0  0
  190.5560  176.2960  141.1440 O   0  0  0  0  0  0  0  0  0  0  0  0
  190.1420  176.0600  142.4470 C   0  0  0  0  0  0  0  0  0  0  0  0
  182.0050  178.4940  139.4290 C   0  0  2  0  0  3  0  0  0  0  0  0
  181.3050  175.2030  136.1810 C   0  0  0  0  0  1  0  0  0  0  0  0
  182.1040  176.7540  137.6730 N   0  0  0  0  0  2  0  0  0  0  0  0
  179.9220  176.0230  137.8780 C   0  0  0  0  0  2  0  0  0  0  0  0
  180.9610  176.3990  136.9300 N   0  0  0  0  0  0  0  0  0  0  0  0
  181.6830  177.0490  139.0420 C   0  0  2  0  0  3  0  0  0  0  0  0
  180.2070  176.7790  139.1380 C   0  0  2  0  0  3  0  0  0  0  0  0
  180.2910  174.7690  140.4490 O   0  0  0  0  0  0  0  0  0  0  0  0
  179.8840  175.9570  140.3460 C   0  0  0  0  0  0  0  0  0  0  0  0
  179.1160  176.5110  141.3640 O   0  0  0  0  0  1  0  0  0  0  0  0
  182.5450  179.1990  138.3450 O   0  0  0  0  0  0  0  0  0  0  0  0
  181.8880  180.4300  138.3550 C   0  0  0  0  0  1  0  0  0  0  0  0
  2 10  1  0  0  0  0
  4  8  1  0  0  0  0
  5  1  1  0  0  0  0
  6  2  2  0  0  0  0
  6  4  1  0  0  0  0
  7  1  2  0  0  0  0
  8 11  1  0  0  0  0
  8  9  1  6  0  0  0
  9  5  2  0  0  0  0
 10  3  1  0  0  0  0
 10 11  2  0  0  0  0
 11  7  1  0  0  0  0
 12  4  1  0  0  0  0
 12 13  1  1  0  0  0
 12 14  1  0  0  0  0
 14 15  1  0  0  0  0
 16 21  2  6  0  0  0
 17 19  1  1  0  0  0
 18 15  1  6  0  0  0
 18 22  1  0  0  0  0
 18 17  1  0  0  0  0
 19 16  1  0  0  0  0
 20 23  1  0  0  0  0
 22 17  1  0  0  0  0
 22 20  1  6  0  0  0
 23 16  1  0  0  0  0
 25 26  2  0  0  0  0
 26 24  1  0  0  0  0
 26 18  1  0  0  0  0
 27 37  1  6  0  0  0
 27  2  1  0  0  0  0
 28 31  1  0  0  0  0
 29 32  1  0  0  0  0
 30 33  1  0  0  0  0
 31 29  1  0  0  0  0
 31 30  1  0  0  0  0
 32 33  1  0  0  0  0
 32 27  1  6  0  0  0
 33 35  1  1  0  0  0
 35 34  2  0  0  0  0
 35 36  1  0  0  0  0
 37 38  1  0  0  0  0
M  END
>  <MODEL>
8

>  <REMARK>
 VINA RESULT:      -6.9      3.207      4.548
  Name = 
  9 active torsions:
  status: ('A' for Active; 'I' for Inactive)
    1  A    between atoms: C_3  and  C_16
    2  A    between atoms: C_3  and  C_17
    3  A    between atoms: C_4  and  C_36
    4  A    between atoms: O_5  and  C_26
    5  A    between atoms: C_8  and  C_26
    6  A    between atoms: N_11  and  C_16
    7  A    between atoms: C_17  and  C_23
    8  A    between atoms: C_22  and  C_26
    9  A    between atoms: C_23  and  C_32
                            x       y       z     vdW  Elec       q    Type
                         _______ _______ _______ _____ _____    ______ ____

>  <TORSDO>
F 9

$$$$
=
 OpenBabel11062414353D

 38 42  0  0  1  0  0  0  0  0999 V2000
  182.4640  178.8170  143.9760 N   0  0  0  0  0  0  0  0  0  0  0  0
  187.1690  178.1750  145.2610 C   0  0  0  0  0  0  0  0  0  0  0  0
  185.5240  178.3630  146.9090 F   0  0  0  0  0  0  0  0  0  0  0  0
  186.5120  178.1860  142.8730 N   0  0  0  0  0  0  0  0  0  0  0  0
  182.8280  178.8320  142.5920 C   0  0  0  0  0  3  0  0  0  0  0  0
  187.6160  178.2880  143.8260 C   0  0  0  0  0  3  0  0  0  0  0  0
  183.4600  178.9670  145.0350 C   0  0  0  0  0  3  0  0  0  0  0  0
  185.1570  178.5030  143.2670 C   0  0  1  0  0  3  0  0  0  0  0  0
  184.1040  178.6940  142.2440 C   0  0  0  0  0  3  0  0  0  0  0  0
  185.8860  178.3670  145.5990 C   0  0  0  0  0  0  0  0  0  0  0  0
  184.8470  178.5830  144.5760 C   0  0  0  0  0  0  0  0  0  0  0  0
  186.8880  177.9270  141.4830 C   0  0  1  0  0  3  0  0  0  0  0  0
  186.4740  178.9780  140.6630 O   0  0  0  0  0  1  0  0  0  0  0  0
  188.3870  177.7090  141.3530 C   0  0  0  0  0  2  0  0  0  0  0  0
  188.9050  178.4480  140.1330 C   0  0  0  0  0  2  0  0  0  0  0  0
  187.1220  177.6460  135.8050 S   0  0  1  0  0  0  0  0  0  0  0  0
  189.0120  177.8490  137.6580 C   0  0  2  0  0  3  0  0  0  0  0  0
  189.3800  177.4680  139.0710 C   0  0  2  0  0  0  0  0  0  0  0  0
  187.7980  178.6160  137.1950 C   0  0  0  0  0  2  0  0  0  0  0  0
  188.4850  175.6390  137.2810 C   0  0  0  0  0  2  0  0  0  0  0  0
  188.1430  177.8720  134.6950 O   0  0  0  0  0  0  0  0  0  0  0  0
  188.3050  176.6830  138.3580 C   0  0  2  0  0  3  0  0  0  0  0  0
  187.3630  175.8720  136.2450 C   0  0  0  0  0  2  0  0  0  0  0  0
  190.9180  176.0030  140.1690 O   0  0  0  0  0  1  0  0  0  0  0  0
  191.7140  177.0410  138.2900 O   0  0  0  0  0  0  0  0  0  0  0  0
  190.7110  176.8050  139.2200 C   0  0  0  0  0  0  0  0  0  0  0  0
  188.2050  178.0060  146.3400 C   0  0  2  0  0  3  0  0  0  0  0  0
  191.6920  175.0100  147.1910 C   0  0  0  0  0  1  0  0  0  0  0  0
  189.7050  176.1020  146.8330 N   0  0  0  0  0  2  0  0  0  0  0  0
  191.6780  177.1300  146.2070 C   0  0  0  0  0  2  0  0  0  0  0  0
  191.0420  176.3080  147.2270 N   0  0  0  0  0  0  0  0  0  0  0  0
  189.3580  177.1280  145.8500 C   0  0  2  0  0  3  0  0  0  0  0  0
  190.5900  177.9500  145.5880 C   0  0  2  0  0  3  0  0  0  0  0  0
  190.9490  177.1350  143.3570 O   0  0  0  0  0  0  0  0  0  0  0  0
  190.8180  178.1300  144.1200 C   0  0  0  0  0  0  0  0  0  0  0  0
  190.8970  179.4140  143.5930 O   0  0  0  0  0  1  0  0  0  0  0  0
  187.6420  177.4920  147.5150 O   0  0  0  0  0  0  0  0  0  0  0  0
  188.2000  178.2550  148.5430 C   0  0  0  0  0  1  0  0  0  0  0  0
  1  7  2  0  0  0  0
  2 10  1  0  0  0  0
  2 27  1  0  0  0  0
  4  8  1  0  0  0  0
  4  6  1  0  0  0  0
  5  1  1  0  0  0  0
  6  2  2  0  0  0  0
  8  9  1  1  0  0  0
  8 11  1  0  0  0  0
  9  5  2  0  0  0  0
 10  3  1  0  0  0  0
 11  7  1  0  0  0  0
 11 10  2  0  0  0  0
 12 13  1  6  0  0  0
 12  4  1  0  0  0  0
 14 12  1  0  0  0  0
 15 14  1  0  0  0  0
 16 21  2  6  0  0  0
 16 23  1  0  0  0  0
 16 19  1  0  0  0  0
 17 19  1  1  0  0  0
 17 22  1  0  0  0  0
 17 18  1  0  0  0  0
 18 26  1  0  0  0  0
 18 15  1  1  0  0  0
 22 20  1  6  0  0  0
 22 18  1  0  0  0  0
 23 20  1  0  0  0  0
 25 26  2  0  0  0  0
 26 24  1  0  0  0  0
 27 37  1  1  0  0  0
 28 31  1  0  0  0  0
 29 31  1  0  0  0  0
 30 31  1  0  0  0  0
 32 27  1  1  0  0  0
 32 29  1  0  0  0  0
 33 35  1  6  0  0  0
 33 32  1  0  0  0  0
 33 30  1  0  0  0  0
 34 35  2  0  0  0  0
 36 35  1  0  0  0  0
 37 38  1  0  0  0  0
M  END
>  <MODEL>
9

>  <REMARK>
 VINA RESULT:      -6.9      3.162      6.804
  Name = 
  9 active torsions:
  status: ('A' for Active; 'I' for Inactive)
    1  A    between atoms: C_3  and  C_16
    2  A    between atoms: C_3  and  C_17
    3  A    between atoms: C_4  and  C_36
    4  A    between atoms: O_5  and  C_26
    5  A    between atoms: C_8  and  C_26
    6  A    between atoms: N_11  and  C_16
    7  A    between atoms: C_17  and  C_23
    8  A    between atoms: C_22  and  C_26
    9  A    between atoms: C_23  and  C_32
                            x       y       z     vdW  Elec       q    Type
                         _______ _______ _______ _____ _____    ______ ____

>  <TORSDO>
F 9

$$$$
