=
 OpenBabel11062412403D

 32 37  0  0  1  0  0  0  0  0999 V2000
  190.3050  177.0320  147.7280 N   0  0  0  0  0  0  0  0  0  0  0  0
  190.9010  177.2090  146.5930 C   0  0  0  0  0  0  0  0  0  0  0  0
  192.0600  175.9930  144.9020 C   0  0  0  0  0  3  0  0  0  0  0  0
  188.8020  177.9150  146.1920 C   0  0  1  0  0  3  0  0  0  0  0  0
  190.0200  177.7810  145.6290 C   0  0  2  0  0  3  0  0  0  0  0  0
  187.8660  177.4420  145.3400 N   0  0  0  0  0  0  0  0  0  0  0  0
  189.8980  177.2040  144.3970 C   0  0  2  0  0  3  0  0  0  0  0  0
  191.9820  176.3810  146.1510 N   0  0  0  0  0  0  0  0  0  0  0  0
  188.5310  177.0140  144.2360 C   0  0  1  0  0  3  0  0  0  0  0  0
  191.0030  176.3360  143.8430 C   0  0  1  0  0  3  0  0  0  0  0  0
  187.9130  176.1740  143.1660 C   0  0  0  0  0  1  0  0  0  0  0  0
  188.9360  177.5650  147.6460 C   0  0  0  0  0  2  0  0  0  0  0  0
  191.6480  177.0300  142.6550 C   0  0  0  0  0  2  0  0  0  0  0  0
  190.7920  176.8580  141.4120 C   0  0  0  0  0  2  0  0  0  0  0  0
  191.5180  177.4040  140.1920 C   0  0  0  0  0  2  0  0  0  0  0  0
  192.6570  176.0750  138.3840 C   0  0  0  0  0  0  0  0  0  0  0  0
  192.6040  175.2400  137.4450 O   0  0  0  0  0  0  0  0  0  0  0  0
  191.4620  176.4520  139.0870 N   0  0  0  0  0  0  0  0  0  0  0  0
  193.8800  176.6450  138.7220 O   0  0  0  0  0  1  0  0  0  0  0  0
  190.2220  175.8910  138.7370 N   0  0  0  0  0  2  0  0  0  0  0  0
  189.5650  176.8110  137.8210 C   0  0  0  0  0  2  0  0  0  0  0  0
  188.4470  179.4170  137.2700 O   0  0  0  0  0  0  0  0  0  0  0  0
  188.5900  178.9350  138.5630 N   0  0  1  0  0  0  0  0  0  0  0  0
  187.6780  178.3420  137.5870 C   0  0  2  0  0  3  0  0  0  0  0  0
  188.3900  177.4760  138.5170 C   0  0  1  0  0  3  0  0  0  0  0  0
  186.4940  177.0840  145.6890 C   0  0  0  0  0  2  0  0  0  0  0  0
  183.6920  179.6400  143.6790 C   0  0  0  0  0  3  0  0  0  0  0  0
  185.7530  178.3650  143.6690 C   0  0  0  0  0  3  0  0  0  0  0  0
  184.8360  179.1920  143.0100 C   0  0  0  0  0  3  0  0  0  0  0  0
  185.5270  177.9860  144.9990 C   0  0  0  0  0  0  0  0  0  0  0  0
  184.3780  178.4330  145.6670 C   0  0  0  0  0  3  0  0  0  0  0  0
  183.4630  179.2620  145.0070 C   0  0  0  0  0  3  0  0  0  0  0  0
  2  1  2  0  0  0  0
  3  8  2  0  0  0  0
  4 12  1  1  0  0  0
  5  4  1  0  0  0  0
  5  2  1  1  0  0  0
  6 26  1  0  0  0  0
  6  4  1  0  0  0  0
  7  5  1  0  0  0  0
  8  2  1  0  0  0  0
  9  7  1  0  0  0  0
  9  6  1  0  0  0  0
 10  7  1  0  0  0  0
 10  3  1  0  0  0  0
 11  9  1  0  0  0  0
 12  1  1  0  0  0  0
 13 10  1  0  0  0  0
 14 13  1  0  0  0  0
 15 14  1  0  0  0  0
 16 19  1  0  0  0  0
 16 18  1  0  0  0  0
 17 16  2  0  0  0  0
 18 15  1  0  0  0  0
 20 18  1  0  0  0  0
 21 25  1  0  0  0  0
 21 20  1  0  0  0  0
 22 24  1  0  0  0  0
 22 23  1  0  0  0  0
 24 25  1  0  0  0  0
 24 23  1  0  0  0  0
 25 23  1  0  0  0  0
 27 32  1  0  0  0  0
 28 30  2  0  0  0  0
 29 28  1  0  0  0  0
 29 27  2  0  0  0  0
 30 31  1  0  0  0  0
 30 26  1  0  0  0  0
 32 31  2  0  0  0  0
M  END
>  <MODEL>
1

>  <REMARK>
 VINA RESULT:      -8.6      0.000      0.000
  Name = 
  9 active torsions:
  status: ('A' for Active; 'I' for Inactive)
    1  A    between atoms: C_1  and  N_11
    2  A    between atoms: C_1  and  C_31
    3  A    between atoms: C_10  and  C_23
    4  A    between atoms: N_11  and  N_28
    5  A    between atoms: C_13  and  C_27
    6  A    between atoms: C_13  and  N_28
    7  A    between atoms: N_17  and  C_23
    8  A    between atoms: C_21  and  C_26
    9  A    between atoms: C_21  and  C_27
                            x       y       z     vdW  Elec       q    Type
                         _______ _______ _______ _____ _____    ______ ____

>  <TORSDO>
F 9

$$$$
=
 OpenBabel11062412403D

 32 37  0  0  1  0  0  0  0  0999 V2000
  186.4920  178.6020  147.2770 N   0  0  0  0  0  0  0  0  0  0  0  0
  185.7390  178.2500  146.2850 C   0  0  0  0  0  0  0  0  0  0  0  0
  184.3350  179.1900  144.6040 C   0  0  0  0  0  3  0  0  0  0  0  0
  187.7630  177.4570  145.7050 C   0  0  1  0  0  3  0  0  0  0  0  0
  186.4750  177.5150  145.3110 C   0  0  2  0  0  3  0  0  0  0  0  0
  188.5600  177.7700  144.6600 N   0  0  0  0  0  0  0  0  0  0  0  0
  186.4110  177.8810  143.9960 C   0  0  2  0  0  3  0  0  0  0  0  0
  184.5970  179.0110  145.8750 N   0  0  0  0  0  0  0  0  0  0  0  0
  187.7380  178.0210  143.6090 C   0  0  1  0  0  3  0  0  0  0  0  0
  185.2290  178.6620  143.4740 C   0  0  1  0  0  3  0  0  0  0  0  0
  188.1850  178.6650  142.3380 C   0  0  0  0  0  1  0  0  0  0  0  0
  187.8390  178.0430  147.0850 C   0  0  0  0  0  2  0  0  0  0  0  0
  184.4240  177.7930  142.5230 C   0  0  0  0  0  2  0  0  0  0  0  0
  183.3240  178.6070  141.8620 C   0  0  0  0  0  2  0  0  0  0  0  0
  183.1650  178.1950  140.4070 C   0  0  0  0  0  2  0  0  0  0  0  0
  182.0920  180.0520  139.0910 C   0  0  0  0  0  0  0  0  0  0  0  0
  182.1920  181.0620  138.3460 O   0  0  0  0  0  0  0  0  0  0  0  0
  183.2710  179.3530  139.5260 N   0  0  0  0  0  0  0  0  0  0  0  0
  180.8310  179.6060  139.4700 O   0  0  0  0  0  1  0  0  0  0  0  0
  184.5460  179.7910  139.1300 N   0  0  0  0  0  2  0  0  0  0  0  0
  185.4250  178.6310  139.1180 C   0  0  0  0  0  2  0  0  0  0  0  0
  188.0670  178.0550  138.1020 O   0  0  0  0  0  0  0  0  0  0  0  0
  187.1530  178.8170  137.3890 N   0  0  1  0  0  0  0  0  0  0  0  0
  186.9570  177.3980  137.6720 C   0  0  2  0  0  3  0  0  0  0  0  0
  185.8090  178.2940  137.6870 C   0  0  1  0  0  3  0  0  0  0  0  0
  189.9650  178.1600  144.7430 C   0  0  0  0  0  2  0  0  0  0  0  0
  192.4580  174.7790  145.6290 C   0  0  0  0  0  3  0  0  0  0  0  0
  191.1640  176.0760  144.0410 C   0  0  0  0  0  3  0  0  0  0  0  0
  191.9830  174.9780  144.3280 C   0  0  0  0  0  3  0  0  0  0  0  0
  190.8180  176.9770  145.0570 C   0  0  0  0  0  0  0  0  0  0  0  0
  191.2970  176.7790  146.3600 C   0  0  0  0  0  3  0  0  0  0  0  0
  192.1150  175.6790  146.6450 C   0  0  0  0  0  3  0  0  0  0  0  0
  2  1  2  0  0  0  0
  3  8  2  0  0  0  0
  4 12  1  1  0  0  0
  5  4  1  0  0  0  0
  5  2  1  1  0  0  0
  6 26  1  0  0  0  0
  6  4  1  0  0  0  0
  7  5  1  0  0  0  0
  8  2  1  0  0  0  0
  9  7  1  0  0  0  0
  9  6  1  0  0  0  0
 10  7  1  0  0  0  0
 10  3  1  0  0  0  0
 11  9  1  0  0  0  0
 12  1  1  0  0  0  0
 13 10  1  0  0  0  0
 14 13  1  0  0  0  0
 15 14  1  0  0  0  0
 16 19  1  0  0  0  0
 16 18  1  0  0  0  0
 17 16  2  0  0  0  0
 18 15  1  0  0  0  0
 20 18  1  0  0  0  0
 21 20  1  0  0  0  0
 23 24  1  0  0  0  0
 23 25  1  0  0  0  0
 23 22  1  0  0  0  0
 24 25  1  0  0  0  0
 24 22  1  0  0  0  0
 25 21  1  0  0  0  0
 26 30  1  0  0  0  0
 27 32  1  0  0  0  0
 28 29  1  0  0  0  0
 28 30  2  0  0  0  0
 29 27  2  0  0  0  0
 30 31  1  0  0  0  0
 31 32  2  0  0  0  0
M  END
>  <MODEL>
2

>  <REMARK>
 VINA RESULT:      -8.4      2.843      6.713
  Name = 
  9 active torsions:
  status: ('A' for Active; 'I' for Inactive)
    1  A    between atoms: C_1  and  N_11
    2  A    between atoms: C_1  and  C_31
    3  A    between atoms: C_10  and  C_23
    4  A    between atoms: N_11  and  N_28
    5  A    between atoms: C_13  and  C_27
    6  A    between atoms: C_13  and  N_28
    7  A    between atoms: N_17  and  C_23
    8  A    between atoms: C_21  and  C_26
    9  A    between atoms: C_21  and  C_27
                            x       y       z     vdW  Elec       q    Type
                         _______ _______ _______ _____ _____    ______ ____

>  <TORSDO>
F 9

$$$$
=
 OpenBabel11062412403D

 32 37  0  0  1  0  0  0  0  0999 V2000
  192.3150  177.5560  141.0350 N   0  0  0  0  0  0  0  0  0  0  0  0
  191.5590  177.1230  141.9920 C   0  0  0  0  0  0  0  0  0  0  0  0
  190.5900  177.8330  144.0500 C   0  0  0  0  0  3  0  0  0  0  0  0
  190.2490  176.9330  140.1720 C   0  0  1  0  0  3  0  0  0  0  0  0
  190.2900  176.7000  141.4990 C   0  0  2  0  0  3  0  0  0  0  0  0
  189.0810  177.5410  139.8650 N   0  0  0  0  0  0  0  0  0  0  0  0
  189.1470  177.1640  142.0850 C   0  0  2  0  0  3  0  0  0  0  0  0
  191.6640  177.6030  143.3370 N   0  0  0  0  0  0  0  0  0  0  0  0
  188.3990  177.6760  141.0310 C   0  0  1  0  0  3  0  0  0  0  0  0
  189.1630  177.6650  143.5100 C   0  0  1  0  0  3  0  0  0  0  0  0
  187.1880  178.5340  141.1920 C   0  0  0  0  0  1  0  0  0  0  0  0
  191.6190  177.3810  139.7500 C   0  0  0  0  0  2  0  0  0  0  0  0
  188.3700  176.7180  144.3920 C   0  0  0  0  0  2  0  0  0  0  0  0
  186.9030  177.1120  144.4100 C   0  0  0  0  0  2  0  0  0  0  0  0
  186.7510  178.5590  144.8520 C   0  0  0  0  0  2  0  0  0  0  0  0
  184.2760  179.0090  144.9170 C   0  0  0  0  0  0  0  0  0  0  0  0
  183.2080  179.1480  145.5670 O   0  0  0  0  0  1  0  0  0  0  0  0
  185.5120  178.7450  145.6010 N   0  0  0  0  0  0  0  0  0  0  0  0
  184.2530  179.1320  143.5320 O   0  0  0  0  0  0  0  0  0  0  0  0
  185.5420  178.6360  147.0010 N   0  0  0  0  0  2  0  0  0  0  0  0
  186.8900  178.9690  147.4400 C   0  0  0  0  0  2  0  0  0  0  0  0
  189.5210  177.7840  147.5730 O   0  0  0  0  0  0  0  0  0  0  0  0
  188.3670  177.0410  147.7770 N   0  0  1  0  0  0  0  0  0  0  0  0
  188.8030  178.1010  148.6830 C   0  0  2  0  0  3  0  0  0  0  0  0
  187.3810  177.9220  148.4260 C   0  0  1  0  0  3  0  0  0  0  0  0
  188.7930  178.2660  138.6310 C   0  0  0  0  0  2  0  0  0  0  0  0
  185.9730  176.1240  136.2060 C   0  0  0  0  0  3  0  0  0  0  0  0
  186.7370  178.1970  137.2040 C   0  0  0  0  0  3  0  0  0  0  0  0
  185.8210  177.5000  136.4070 C   0  0  0  0  0  3  0  0  0  0  0  0
  187.8060  177.5160  137.8020 C   0  0  0  0  0  0  0  0  0  0  0  0
  187.9590  176.1380  137.5970 C   0  0  0  0  0  3  0  0  0  0  0  0
  187.0410  175.4420  136.8010 C   0  0  0  0  0  3  0  0  0  0  0  0
  1  2  2  0  0  0  0
  2  8  1  0  0  0  0
  4 12  1  1  0  0  0
  4  5  1  0  0  0  0
  5  2  1  1  0  0  0
  5  7  1  0  0  0  0
  6  4  1  0  0  0  0
  6  9  1  0  0  0  0
  7 10  1  0  0  0  0
  8  3  2  0  0  0  0
  9 11  1  0  0  0  0
  9  7  1  0  0  0  0
 10  3  1  0  0  0  0
 10 13  1  0  0  0  0
 12  1  1  0  0  0  0
 13 14  1  0  0  0  0
 14 15  1  0  0  0  0
 15 18  1  0  0  0  0
 16 17  1  0  0  0  0
 16 18  1  0  0  0  0
 18 20  1  0  0  0  0
 19 16  2  0  0  0  0
 20 21  1  0  0  0  0
 21 25  1  0  0  0  0
 22 23  1  0  0  0  0
 22 24  1  0  0  0  0
 23 25  1  0  0  0  0
 23 24  1  0  0  0  0
 25 24  1  0  0  0  0
 26  6  1  0  0  0  0
 27 29  2  0  0  0  0
 27 32  1  0  0  0  0
 28 30  2  0  0  0  0
 29 28  1  0  0  0  0
 30 26  1  0  0  0  0
 31 30  1  0  0  0  0
 32 31  2  0  0  0  0
M  END
>  <MODEL>
3

>  <REMARK>
 VINA RESULT:      -8.4      3.357      7.780
  Name = 
  9 active torsions:
  status: ('A' for Active; 'I' for Inactive)
    1  A    between atoms: C_1  and  N_11
    2  A    between atoms: C_1  and  C_31
    3  A    between atoms: C_10  and  C_23
    4  A    between atoms: N_11  and  N_28
    5  A    between atoms: C_13  and  C_27
    6  A    between atoms: C_13  and  N_28
    7  A    between atoms: N_17  and  C_23
    8  A    between atoms: C_21  and  C_26
    9  A    between atoms: C_21  and  C_27
                            x       y       z     vdW  Elec       q    Type
                         _______ _______ _______ _____ _____    ______ ____

>  <TORSDO>
F 9

$$$$
=
 OpenBabel11062412403D

 32 37  0  0  1  0  0  0  0  0999 V2000
  190.3000  177.1390  147.7720 N   0  0  0  0  0  0  0  0  0  0  0  0
  190.8780  177.2770  146.6220 C   0  0  0  0  0  0  0  0  0  0  0  0
  192.0030  176.0040  144.9510 C   0  0  0  0  0  3  0  0  0  0  0  0
  188.7770  177.9840  146.2340 C   0  0  1  0  0  3  0  0  0  0  0  0
  189.9860  177.8250  145.6560 C   0  0  2  0  0  3  0  0  0  0  0  0
  187.8250  177.4910  145.4110 N   0  0  0  0  0  0  0  0  0  0  0  0
  189.8400  177.2120  144.4440 C   0  0  2  0  0  3  0  0  0  0  0  0
  191.9480  176.4290  146.1890 N   0  0  0  0  0  0  0  0  0  0  0  0
  188.4700  177.0260  144.3100 C   0  0  1  0  0  3  0  0  0  0  0  0
  190.9310  176.3210  143.8990 C   0  0  1  0  0  3  0  0  0  0  0  0
  187.8300  176.1580  143.2770 C   0  0  0  0  0  1  0  0  0  0  0  0
  188.9330  177.6770  147.6950 C   0  0  0  0  0  2  0  0  0  0  0  0
  191.5610  176.9740  142.6810 C   0  0  0  0  0  2  0  0  0  0  0  0
  190.8340  176.5500  141.4160 C   0  0  0  0  0  2  0  0  0  0  0  0
  190.5860  177.7540  140.5220 C   0  0  0  0  0  2  0  0  0  0  0  0
  188.1590  178.3480  140.2210 C   0  0  0  0  0  0  0  0  0  0  0  0
  187.0780  178.2370  139.5870 O   0  0  0  0  0  0  0  0  0  0  0  0
  189.3220  177.6140  139.8040 N   0  0  0  0  0  0  0  0  0  0  0  0
  188.2110  179.1700  141.3410 O   0  0  0  0  0  1  0  0  0  0  0  0
  189.2680  176.7690  138.6830 N   0  0  0  0  0  2  0  0  0  0  0  0
  190.2480  177.2520  137.7210 C   0  0  0  0  0  2  0  0  0  0  0  0
  192.9070  176.2610  138.2610 O   0  0  0  0  0  0  0  0  0  0  0  0
  192.3920  176.3250  136.9750 N   0  0  1  0  0  0  0  0  0  0  0  0
  191.8560  175.4370  138.0040 C   0  0  2  0  0  3  0  0  0  0  0  0
  190.9440  176.0720  137.0630 C   0  0  1  0  0  3  0  0  0  0  0  0
  186.4570  177.1530  145.7930 C   0  0  0  0  0  2  0  0  0  0  0  0
  183.6350  179.6220  143.7030 C   0  0  0  0  0  3  0  0  0  0  0  0
  185.6870  178.3310  143.7220 C   0  0  0  0  0  3  0  0  0  0  0  0
  184.7630  179.1300  143.0370 C   0  0  0  0  0  3  0  0  0  0  0  0
  185.4830  178.0240  145.0740 C   0  0  0  0  0  0  0  0  0  0  0  0
  184.3500  178.5150  145.7380 C   0  0  0  0  0  3  0  0  0  0  0  0
  183.4280  179.3150  145.0530 C   0  0  0  0  0  3  0  0  0  0  0  0
  2  1  2  0  0  0  0
  3  8  2  0  0  0  0
  4 12  1  1  0  0  0
  5  4  1  0  0  0  0
  5  2  1  1  0  0  0
  6 26  1  0  0  0  0
  6  4  1  0  0  0  0
  7  5  1  0  0  0  0
  8  2  1  0  0  0  0
  9  7  1  0  0  0  0
  9  6  1  0  0  0  0
 10  7  1  0  0  0  0
 10  3  1  0  0  0  0
 11  9  1  0  0  0  0
 12  1  1  0  0  0  0
 13 10  1  0  0  0  0
 14 13  1  0  0  0  0
 15 14  1  0  0  0  0
 16 19  1  0  0  0  0
 17 16  2  0  0  0  0
 18 16  1  0  0  0  0
 18 15  1  0  0  0  0
 20 18  1  0  0  0  0
 21 20  1  0  0  0  0
 23 25  1  0  0  0  0
 23 24  1  0  0  0  0
 23 22  1  0  0  0  0
 24 22  1  0  0  0  0
 25 21  1  0  0  0  0
 25 24  1  0  0  0  0
 27 32  1  0  0  0  0
 28 30  2  0  0  0  0
 29 27  2  0  0  0  0
 29 28  1  0  0  0  0
 30 31  1  0  0  0  0
 30 26  1  0  0  0  0
 32 31  2  0  0  0  0
M  END
>  <MODEL>
4

>  <REMARK>
 VINA RESULT:      -8.4      1.218      2.621
  Name = 
  9 active torsions:
  status: ('A' for Active; 'I' for Inactive)
    1  A    between atoms: C_1  and  N_11
    2  A    between atoms: C_1  and  C_31
    3  A    between atoms: C_10  and  C_23
    4  A    between atoms: N_11  and  N_28
    5  A    between atoms: C_13  and  C_27
    6  A    between atoms: C_13  and  N_28
    7  A    between atoms: N_17  and  C_23
    8  A    between atoms: C_21  and  C_26
    9  A    between atoms: C_21  and  C_27
                            x       y       z     vdW  Elec       q    Type
                         _______ _______ _______ _____ _____    ______ ____

>  <TORSDO>
F 9

$$$$
=
 OpenBabel11062412403D

 32 37  0  0  1  0  0  0  0  0999 V2000
  186.5620  178.5970  147.2570 N   0  0  0  0  0  0  0  0  0  0  0  0
  185.7860  178.2550  146.2780 C   0  0  0  0  0  0  0  0  0  0  0  0
  184.3610  179.2120  144.6250 C   0  0  0  0  0  3  0  0  0  0  0  0
  187.7910  177.4410  145.6590 C   0  0  1  0  0  3  0  0  0  0  0  0
  186.4960  177.5140  145.2890 C   0  0  2  0  0  3  0  0  0  0  0  0
  188.5720  177.7480  144.6000 N   0  0  0  0  0  0  0  0  0  0  0  0
  186.4120  177.8820  143.9770 C   0  0  2  0  0  3  0  0  0  0  0  0
  184.6450  179.0280  145.8910 N   0  0  0  0  0  0  0  0  0  0  0  0
  187.7330  178.0090  143.5650 C   0  0  1  0  0  3  0  0  0  0  0  0
  185.2280  178.6770  143.4770 C   0  0  1  0  0  3  0  0  0  0  0  0
  188.1630  178.6510  142.2870 C   0  0  0  0  0  1  0  0  0  0  0  0
  187.8990  178.0230  147.0390 C   0  0  0  0  0  2  0  0  0  0  0  0
  184.3970  177.8180  142.5400 C   0  0  0  0  0  2  0  0  0  0  0  0
  184.1560  178.5450  141.2280 C   0  0  0  0  0  2  0  0  0  0  0  0
  183.1770  177.7640  140.3650 C   0  0  0  0  0  2  0  0  0  0  0  0
  182.3340  178.8760  138.2710 C   0  0  0  0  0  0  0  0  0  0  0  0
  181.5180  179.6400  137.6920 O   0  0  0  0  0  1  0  0  0  0  0  0
  182.2490  178.6660  139.6900 N   0  0  0  0  0  0  0  0  0  0  0  0
  183.3310  178.2550  137.5270 O   0  0  0  0  0  0  0  0  0  0  0  0
  181.2520  179.3050  140.4470 N   0  0  0  0  0  2  0  0  0  0  0  0
  180.4900  178.2720  141.1330 C   0  0  0  0  0  2  0  0  0  0  0  0
  180.9130  178.6070  143.9710 O   0  0  0  0  0  0  0  0  0  0  0  0
  179.6780  178.2530  143.4460 N   0  0  1  0  0  0  0  0  0  0  0  0
  180.3050  179.5500  143.2040 C   0  0  2  0  0  3  0  0  0  0  0  0
  179.5460  178.9140  142.1370 C   0  0  1  0  0  3  0  0  0  0  0  0
  189.9820  178.1220  144.6570 C   0  0  0  0  0  2  0  0  0  0  0  0
  192.4390  174.7490  145.6640 C   0  0  0  0  0  3  0  0  0  0  0  0
  191.2100  176.0350  144.0180 C   0  0  0  0  0  3  0  0  0  0  0  0
  192.0170  174.9390  144.3440 C   0  0  0  0  0  3  0  0  0  0  0  0
  190.8230  176.9430  145.0140 C   0  0  0  0  0  0  0  0  0  0  0  0
  191.2490  176.7530  146.3350 C   0  0  0  0  0  3  0  0  0  0  0  0
  192.0550  175.6550  146.6600 C   0  0  0  0  0  3  0  0  0  0  0  0
  2  1  2  0  0  0  0
  3  8  2  0  0  0  0
  4 12  1  1  0  0  0
  5  4  1  0  0  0  0
  5  2  1  1  0  0  0
  6 26  1  0  0  0  0
  6  4  1  0  0  0  0
  7  5  1  0  0  0  0
  8  2  1  0  0  0  0
  9  7  1  0  0  0  0
  9  6  1  0  0  0  0
 10  7  1  0  0  0  0
 10  3  1  0  0  0  0
 11  9  1  0  0  0  0
 12  1  1  0  0  0  0
 13 10  1  0  0  0  0
 14 13  1  0  0  0  0
 15 14  1  0  0  0  0
 16 18  1  0  0  0  0
 17 16  1  0  0  0  0
 18 15  1  0  0  0  0
 18 20  1  0  0  0  0
 19 16  2  0  0  0  0
 20 21  1  0  0  0  0
 21 25  1  0  0  0  0
 23 22  1  0  0  0  0
 24 23  1  0  0  0  0
 24 22  1  0  0  0  0
 25 24  1  0  0  0  0
 25 23  1  0  0  0  0
 26 30  1  0  0  0  0
 27 32  1  0  0  0  0
 28 29  1  0  0  0  0
 28 30  2  0  0  0  0
 29 27  2  0  0  0  0
 30 31  1  0  0  0  0
 31 32  2  0  0  0  0
M  END
>  <MODEL>
5

>  <REMARK>
 VINA RESULT:      -8.1      4.074      7.616
  Name = 
  9 active torsions:
  status: ('A' for Active; 'I' for Inactive)
    1  A    between atoms: C_1  and  N_11
    2  A    between atoms: C_1  and  C_31
    3  A    between atoms: C_10  and  C_23
    4  A    between atoms: N_11  and  N_28
    5  A    between atoms: C_13  and  C_27
    6  A    between atoms: C_13  and  N_28
    7  A    between atoms: N_17  and  C_23
    8  A    between atoms: C_21  and  C_26
    9  A    between atoms: C_21  and  C_27
                            x       y       z     vdW  Elec       q    Type
                         _______ _______ _______ _____ _____    ______ ____

>  <TORSDO>
F 9

$$$$
=
 OpenBabel11062412403D

 32 37  0  0  1  0  0  0  0  0999 V2000
  192.0780  177.5070  140.1560 N   0  0  0  0  0  0  0  0  0  0  0  0
  191.4650  177.1380  141.2340 C   0  0  0  0  0  0  0  0  0  0  0  0
  190.8300  177.9630  143.3770 C   0  0  0  0  0  3  0  0  0  0  0  0
  189.8940  176.9070  139.6390 C   0  0  1  0  0  3  0  0  0  0  0  0
  190.1280  176.7300  140.9550 C   0  0  2  0  0  3  0  0  0  0  0  0
  188.7070  177.5340  139.4810 N   0  0  0  0  0  0  0  0  0  0  0  0
  189.0950  177.2510  141.6810 C   0  0  2  0  0  3  0  0  0  0  0  0
  191.7800  177.6720  142.5240 N   0  0  0  0  0  0  0  0  0  0  0  0
  188.2100  177.7380  140.7270 C   0  0  1  0  0  3  0  0  0  0  0  0
  189.3350  177.8130  143.0630 C   0  0  1  0  0  3  0  0  0  0  0  0
  187.0550  178.6370  141.0250 C   0  0  0  0  0  1  0  0  0  0  0  0
  191.1950  177.2970  138.9980 C   0  0  0  0  0  2  0  0  0  0  0  0
  188.6620  176.9270  144.0970 C   0  0  0  0  0  2  0  0  0  0  0  0
  187.3920  177.5820  144.6100 C   0  0  0  0  0  2  0  0  0  0  0  0
  187.0520  177.0590  145.9970 C   0  0  0  0  0  2  0  0  0  0  0  0
  185.9570  179.0370  147.1030 C   0  0  0  0  0  0  0  0  0  0  0  0
  185.9730  179.9550  147.9630 O   0  0  0  0  0  1  0  0  0  0  0  0
  187.0730  178.1410  146.9780 N   0  0  0  0  0  0  0  0  0  0  0  0
  184.8570  178.9100  146.2610 O   0  0  0  0  0  0  0  0  0  0  0  0
  188.1930  178.2760  147.8150 N   0  0  0  0  0  2  0  0  0  0  0  0
  189.0610  177.1320  147.5780 C   0  0  0  0  0  2  0  0  0  0  0  0
  191.5570  175.6810  147.6740 O   0  0  0  0  0  0  0  0  0  0  0  0
  191.4810  177.0360  147.9640 N   0  0  1  0  0  0  0  0  0  0  0  0
  191.2190  176.4890  146.6340 C   0  0  2  0  0  3  0  0  0  0  0  0
  190.4260  177.6130  147.1130 C   0  0  1  0  0  3  0  0  0  0  0  0
  188.2540  178.2130  138.2700 C   0  0  0  0  0  2  0  0  0  0  0  0
  185.0790  175.9750  136.4420 C   0  0  0  0  0  3  0  0  0  0  0  0
  187.4100  176.1800  137.0770 C   0  0  0  0  0  3  0  0  0  0  0  0
  186.3740  175.4460  136.4870 C   0  0  0  0  0  3  0  0  0  0  0  0
  187.1520  177.4450  137.6210 C   0  0  0  0  0  0  0  0  0  0  0  0
  185.8540  177.9730  137.5780 C   0  0  0  0  0  3  0  0  0  0  0  0
  184.8190  177.2380  136.9870 C   0  0  0  0  0  3  0  0  0  0  0  0
  1  2  2  0  0  0  0
  2  8  1  0  0  0  0
  4 12  1  1  0  0  0
  4  5  1  0  0  0  0
  5  2  1  1  0  0  0
  5  7  1  0  0  0  0
  6  4  1  0  0  0  0
  6  9  1  0  0  0  0
  7 10  1  0  0  0  0
  8  3  2  0  0  0  0
  9 11  1  0  0  0  0
  9  7  1  0  0  0  0
 10  3  1  0  0  0  0
 10 13  1  0  0  0  0
 12  1  1  0  0  0  0
 13 14  1  0  0  0  0
 14 15  1  0  0  0  0
 15 18  1  0  0  0  0
 16 17  1  0  0  0  0
 18 16  1  0  0  0  0
 18 20  1  0  0  0  0
 19 16  2  0  0  0  0
 21 20  1  0  0  0  0
 22 23  1  0  0  0  0
 24 25  1  0  0  0  0
 24 22  1  0  0  0  0
 24 23  1  0  0  0  0
 25 21  1  0  0  0  0
 25 23  1  0  0  0  0
 26  6  1  0  0  0  0
 27 29  2  0  0  0  0
 27 32  1  0  0  0  0
 28 30  2  0  0  0  0
 29 28  1  0  0  0  0
 30 26  1  0  0  0  0
 31 30  1  0  0  0  0
 32 31  2  0  0  0  0
M  END
>  <MODEL>
6

>  <REMARK>
 VINA RESULT:      -8.0      3.588      7.872
  Name = 
  9 active torsions:
  status: ('A' for Active; 'I' for Inactive)
    1  A    between atoms: C_1  and  N_11
    2  A    between atoms: C_1  and  C_31
    3  A    between atoms: C_10  and  C_23
    4  A    between atoms: N_11  and  N_28
    5  A    between atoms: C_13  and  C_27
    6  A    between atoms: C_13  and  N_28
    7  A    between atoms: N_17  and  C_23
    8  A    between atoms: C_21  and  C_26
    9  A    between atoms: C_21  and  C_27
                            x       y       z     vdW  Elec       q    Type
                         _______ _______ _______ _____ _____    ______ ____

>  <TORSDO>
F 9

$$$$
=
 OpenBabel11062412403D

 32 37  0  0  1  0  0  0  0  0999 V2000
  186.1820  178.6840  147.1200 N   0  0  0  0  0  0  0  0  0  0  0  0
  185.5480  178.3100  146.0550 C   0  0  0  0  0  0  0  0  0  0  0  0
  184.3460  179.2090  144.2040 C   0  0  0  0  0  3  0  0  0  0  0  0
  187.6270  177.5120  145.7290 C   0  0  1  0  0  3  0  0  0  0  0  0
  186.3930  177.5580  145.1870 C   0  0  2  0  0  3  0  0  0  0  0  0
  188.5390  177.8070  144.7760 N   0  0  0  0  0  0  0  0  0  0  0  0
  186.4810  177.8960  143.8670 C   0  0  2  0  0  3  0  0  0  0  0  0
  184.4600  179.0570  145.5000 N   0  0  0  0  0  0  0  0  0  0  0  0
  187.8430  178.0340  143.6320 C   0  0  1  0  0  3  0  0  0  0  0  0
  185.3650  178.6620  143.1950 C   0  0  1  0  0  3  0  0  0  0  0  0
  188.4330  178.6530  142.4080 C   0  0  0  0  0  1  0  0  0  0  0  0
  187.5430  178.1260  147.0960 C   0  0  0  0  0  2  0  0  0  0  0  0
  184.6770  177.7710  142.1760 C   0  0  0  0  0  2  0  0  0  0  0  0
  183.6220  178.5530  141.4140 C   0  0  0  0  0  2  0  0  0  0  0  0
  184.2470  179.2560  140.2190 C   0  0  0  0  0  2  0  0  0  0  0  0
  185.3440  178.0780  138.2850 C   0  0  0  0  0  0  0  0  0  0  0  0
  185.2650  177.3420  137.2670 O   0  0  0  0  0  0  0  0  0  0  0  0
  184.1600  178.4220  139.0240 N   0  0  0  0  0  0  0  0  0  0  0  0
  186.5840  178.5710  138.6750 O   0  0  0  0  0  1  0  0  0  0  0  0
  182.9040  177.9380  138.6230 N   0  0  0  0  0  2  0  0  0  0  0  0
  182.2420  178.9990  137.8770 C   0  0  0  0  0  2  0  0  0  0  0  0
  181.0880  181.6440  138.0180 O   0  0  0  0  0  0  0  0  0  0  0  0
  181.1010  180.7850  139.1080 N   0  0  1  0  0  0  0  0  0  0  0  0
  180.3330  180.5200  137.8940 C   0  0  2  0  0  3  0  0  0  0  0  0
  180.9680  179.4120  138.5940 C   0  0  1  0  0  3  0  0  0  0  0  0
  189.9250  178.2040  145.0120 C   0  0  0  0  0  2  0  0  0  0  0  0
  192.4360  174.7720  145.5950 C   0  0  0  0  0  3  0  0  0  0  0  0
  191.1360  176.1980  144.1280 C   0  0  0  0  0  3  0  0  0  0  0  0
  191.9610  175.0830  144.3170 C   0  0  0  0  0  3  0  0  0  0  0  0
  190.7840  177.0030  145.2210 C   0  0  0  0  0  0  0  0  0  0  0  0
  191.2640  176.6920  146.5010 C   0  0  0  0  0  3  0  0  0  0  0  0
  192.0870  175.5750  146.6870 C   0  0  0  0  0  3  0  0  0  0  0  0
  2  1  2  0  0  0  0
  3  8  2  0  0  0  0
  4 12  1  1  0  0  0
  5  4  1  0  0  0  0
  5  2  1  1  0  0  0
  6 26  1  0  0  0  0
  6  4  1  0  0  0  0
  7  5  1  0  0  0  0
  8  2  1  0  0  0  0
  9  7  1  0  0  0  0
  9  6  1  0  0  0  0
 10  7  1  0  0  0  0
 10  3  1  0  0  0  0
 11  9  1  0  0  0  0
 12  1  1  0  0  0  0
 13 10  1  0  0  0  0
 14 13  1  0  0  0  0
 15 14  1  0  0  0  0
 16 19  1  0  0  0  0
 16 18  1  0  0  0  0
 17 16  2  0  0  0  0
 18 15  1  0  0  0  0
 20 18  1  0  0  0  0
 21 25  1  0  0  0  0
 21 20  1  0  0  0  0
 22 23  1  0  0  0  0
 24 22  1  0  0  0  0
 24 25  1  0  0  0  0
 24 23  1  0  0  0  0
 25 23  1  0  0  0  0
 26 30  1  0  0  0  0
 27 32  1  0  0  0  0
 28 29  1  0  0  0  0
 28 30  2  0  0  0  0
 29 27  2  0  0  0  0
 30 31  1  0  0  0  0
 31 32  2  0  0  0  0
M  END
>  <MODEL>
7

>  <REMARK>
 VINA RESULT:      -8.0      3.406      6.606
  Name = 
  9 active torsions:
  status: ('A' for Active; 'I' for Inactive)
    1  A    between atoms: C_1  and  N_11
    2  A    between atoms: C_1  and  C_31
    3  A    between atoms: C_10  and  C_23
    4  A    between atoms: N_11  and  N_28
    5  A    between atoms: C_13  and  C_27
    6  A    between atoms: C_13  and  N_28
    7  A    between atoms: N_17  and  C_23
    8  A    between atoms: C_21  and  C_26
    9  A    between atoms: C_21  and  C_27
                            x       y       z     vdW  Elec       q    Type
                         _______ _______ _______ _____ _____    ______ ____

>  <TORSDO>
F 9

$$$$
=
 OpenBabel11062412403D

 32 37  0  0  1  0  0  0  0  0999 V2000
  192.5230  177.4780  140.6500 N   0  0  0  0  0  0  0  0  0  0  0  0
  191.8230  177.1560  141.6900 C   0  0  0  0  0  0  0  0  0  0  0  0
  191.0140  178.0760  143.7340 C   0  0  0  0  0  3  0  0  0  0  0  0
  190.3890  176.8470  139.9830 C   0  0  1  0  0  3  0  0  0  0  0  0
  190.5130  176.7310  141.3210 C   0  0  2  0  0  3  0  0  0  0  0  0
  189.2200  177.4620  139.6990 N   0  0  0  0  0  0  0  0  0  0  0  0
  189.4240  177.2810  141.9340 C   0  0  2  0  0  3  0  0  0  0  0  0
  192.0310  177.7500  142.9760 N   0  0  0  0  0  0  0  0  0  0  0  0
  188.6210  177.7220  140.8900 C   0  0  1  0  0  3  0  0  0  0  0  0
  189.5500  177.9070  143.3040 C   0  0  1  0  0  3  0  0  0  0  0  0
  187.4460  178.6290  141.0500 C   0  0  0  0  0  1  0  0  0  0  0  0
  191.7380  177.2110  139.4350 C   0  0  0  0  0  2  0  0  0  0  0  0
  188.7930  177.0670  144.3180 C   0  0  0  0  0  2  0  0  0  0  0  0
  187.3590  177.5510  144.4440 C   0  0  0  0  0  2  0  0  0  0  0  0
  186.7100  176.9620  145.6870 C   0  0  0  0  0  2  0  0  0  0  0  0
  187.7300  177.8410  147.8120 C   0  0  0  0  0  0  0  0  0  0  0  0
  187.7510  178.6840  148.7460 O   0  0  0  0  0  1  0  0  0  0  0  0
  186.7280  177.9230  146.7850 N   0  0  0  0  0  0  0  0  0  0  0  0
  188.6720  176.8180  147.7950 O   0  0  0  0  0  0  0  0  0  0  0  0
  185.7650  178.9450  146.8080 N   0  0  0  0  0  2  0  0  0  0  0  0
  184.6750  178.5430  145.9310 C   0  0  0  0  0  2  0  0  0  0  0  0
  183.7210  178.2800  143.2170 O   0  0  0  0  0  0  0  0  0  0  0  0
  184.6730  179.2230  143.5760 N   0  0  1  0  0  0  0  0  0  0  0  0
  183.2930  179.2640  144.0520 C   0  0  2  0  0  3  0  0  0  0  0  0
  184.3700  179.6620  144.9480 C   0  0  1  0  0  3  0  0  0  0  0  0
  188.8680  178.0840  138.4250 C   0  0  0  0  0  2  0  0  0  0  0  0
  185.7140  175.8660  136.5390 C   0  0  0  0  0  3  0  0  0  0  0  0
  187.9890  175.9920  137.3660 C   0  0  0  0  0  3  0  0  0  0  0  0
  186.9580  175.2660  136.7580 C   0  0  0  0  0  3  0  0  0  0  0  0
  187.7750  177.3210  137.7550 C   0  0  0  0  0  0  0  0  0  0  0  0
  186.5260  177.9210  137.5380 C   0  0  0  0  0  3  0  0  0  0  0  0
  185.4970  177.1930  136.9280 C   0  0  0  0  0  3  0  0  0  0  0  0
  1  2  2  0  0  0  0
  2  8  1  0  0  0  0
  4 12  1  1  0  0  0
  4  5  1  0  0  0  0
  5  2  1  1  0  0  0
  5  7  1  0  0  0  0
  6  4  1  0  0  0  0
  6  9  1  0  0  0  0
  7 10  1  0  0  0  0
  8  3  2  0  0  0  0
  9 11  1  0  0  0  0
  9  7  1  0  0  0  0
 10  3  1  0  0  0  0
 10 13  1  0  0  0  0
 12  1  1  0  0  0  0
 13 14  1  0  0  0  0
 14 15  1  0  0  0  0
 15 18  1  0  0  0  0
 16 17  1  0  0  0  0
 18 20  1  0  0  0  0
 18 16  1  0  0  0  0
 19 16  2  0  0  0  0
 21 20  1  0  0  0  0
 22 23  1  0  0  0  0
 22 24  1  0  0  0  0
 23 24  1  0  0  0  0
 23 25  1  0  0  0  0
 24 25  1  0  0  0  0
 25 21  1  0  0  0  0
 26  6  1  0  0  0  0
 27 29  2  0  0  0  0
 27 32  1  0  0  0  0
 28 30  2  0  0  0  0
 29 28  1  0  0  0  0
 30 26  1  0  0  0  0
 31 30  1  0  0  0  0
 32 31  2  0  0  0  0
M  END
>  <MODEL>
8

>  <REMARK>
 VINA RESULT:      -7.9      3.597      7.318
  Name = 
  9 active torsions:
  status: ('A' for Active; 'I' for Inactive)
    1  A    between atoms: C_1  and  N_11
    2  A    between atoms: C_1  and  C_31
    3  A    between atoms: C_10  and  C_23
    4  A    between atoms: N_11  and  N_28
    5  A    between atoms: C_13  and  C_27
    6  A    between atoms: C_13  and  N_28
    7  A    between atoms: N_17  and  C_23
    8  A    between atoms: C_21  and  C_26
    9  A    between atoms: C_21  and  C_27
                            x       y       z     vdW  Elec       q    Type
                         _______ _______ _______ _____ _____    ______ ____

>  <TORSDO>
F 9

$$$$
=
 OpenBabel11062412403D

 32 37  0  0  1  0  0  0  0  0999 V2000
  187.3480  178.7620  140.6100 N   0  0  0  0  0  0  0  0  0  0  0  0
  187.9690  177.8730  139.9040 C   0  0  0  0  0  0  0  0  0  0  0  0
  189.3740  177.6810  137.9880 C   0  0  0  0  0  3  0  0  0  0  0  0
  188.8690  177.6300  141.9520 C   0  0  1  0  0  3  0  0  0  0  0  0
  188.8910  177.1320  140.6990 C   0  0  2  0  0  3  0  0  0  0  0  0
  190.1380  177.8120  142.3780 N   0  0  0  0  0  0  0  0  0  0  0  0
  190.1840  176.9900  140.2820 C   0  0  2  0  0  3  0  0  0  0  0  0
  188.2240  178.0370  138.5040 N   0  0  0  0  0  0  0  0  0  0  0  0
  190.9470  177.4130  141.3640 C   0  0  1  0  0  3  0  0  0  0  0  0
  190.5370  177.1220  138.8190 C   0  0  1  0  0  3  0  0  0  0  0  0
  192.4120  177.6970  141.3060 C   0  0  0  0  0  1  0  0  0  0  0  0
  187.7590  178.6390  142.0170 C   0  0  0  0  0  2  0  0  0  0  0  0
  190.9750  175.7720  138.2770 C   0  0  0  0  0  2  0  0  0  0  0  0
  192.4710  175.7670  138.0140 C   0  0  0  0  0  2  0  0  0  0  0  0
  192.7480  175.4390  136.5550 C   0  0  0  0  0  2  0  0  0  0  0  0
  192.6500  172.9620  136.1190 C   0  0  0  0  0  0  0  0  0  0  0  0
  193.2280  171.8510  135.9950 O   0  0  0  0  0  1  0  0  0  0  0  0
  193.4080  174.1420  136.4320 N   0  0  0  0  0  0  0  0  0  0  0  0
  191.2700  173.0330  135.9690 O   0  0  0  0  0  0  0  0  0  0  0  0
  194.8010  174.0710  136.6000 N   0  0  0  0  0  2  0  0  0  0  0  0
  195.3850  175.2240  135.9300 C   0  0  0  0  0  2  0  0  0  0  0  0
  197.6620  175.4580  137.6930 O   0  0  0  0  0  0  0  0  0  0  0  0
  197.7170  175.8460  136.3620 N   0  0  1  0  0  0  0  0  0  0  0  0
  197.5410  174.4570  136.7810 C   0  0  2  0  0  3  0  0  0  0  0  0
  196.8410  174.9410  135.5990 C   0  0  1  0  0  3  0  0  0  0  0  0
  190.5510  178.6390  143.5090 C   0  0  0  0  0  2  0  0  0  0  0  0
  190.3250  176.4470  147.1940 C   0  0  0  0  0  3  0  0  0  0  0  0
  191.5750  177.1430  145.2370 C   0  0  0  0  0  3  0  0  0  0  0  0
  191.5050  176.4350  146.4420 C   0  0  0  0  0  3  0  0  0  0  0  0
  190.4630  177.8650  144.7820 C   0  0  0  0  0  0  0  0  0  0  0  0
  189.2830  177.8790  145.5370 C   0  0  0  0  0  3  0  0  0  0  0  0
  189.2130  177.1690  146.7410 C   0  0  0  0  0  3  0  0  0  0  0  0
  1 12  1  0  0  0  0
  2  1  2  0  0  0  0
  3  8  2  0  0  0  0
  3 10  1  0  0  0  0
  4 12  1  6  0  0  0
  4  6  1  0  0  0  0
  5  2  1  6  0  0  0
  5  4  1  0  0  0  0
  6 26  1  0  0  0  0
  7  5  1  0  0  0  0
  7  9  1  0  0  0  0
  8  2  1  0  0  0  0
  9  6  1  0  0  0  0
 10  7  1  0  0  0  0
 11  9  1  0  0  0  0
 13 10  1  0  0  0  0
 14 13  1  0  0  0  0
 15 14  1  0  0  0  0
 16 18  1  0  0  0  0
 17 16  1  0  0  0  0
 18 15  1  0  0  0  0
 18 20  1  0  0  0  0
 19 16  2  0  0  0  0
 21 20  1  0  0  0  0
 23 24  1  0  0  0  0
 23 22  1  0  0  0  0
 24 22  1  0  0  0  0
 25 21  1  0  0  0  0
 25 23  1  0  0  0  0
 25 24  1  0  0  0  0
 26 30  1  0  0  0  0
 28 29  1  0  0  0  0
 29 27  2  0  0  0  0
 30 28  2  0  0  0  0
 30 31  1  0  0  0  0
 31 32  2  0  0  0  0
 32 27  1  0  0  0  0
M  END
>  <MODEL>
9

>  <REMARK>
 VINA RESULT:      -7.8      3.063      6.375
  Name = 
  9 active torsions:
  status: ('A' for Active; 'I' for Inactive)
    1  A    between atoms: C_1  and  N_11
    2  A    between atoms: C_1  and  C_31
    3  A    between atoms: C_10  and  C_23
    4  A    between atoms: N_11  and  N_28
    5  A    between atoms: C_13  and  C_27
    6  A    between atoms: C_13  and  N_28
    7  A    between atoms: N_17  and  C_23
    8  A    between atoms: C_21  and  C_26
    9  A    between atoms: C_21  and  C_27
                            x       y       z     vdW  Elec       q    Type
                         _______ _______ _______ _____ _____    ______ ____

>  <TORSDO>
F 9

$$$$
