=
 OpenBabel11062416153D

 44 47  0  0  1  0  0  0  0  0999 V2000
  180.4340  178.2260  141.8100 N   0  0  0  0  0  2  0  0  0  0  0  0
  181.5540  178.6150  143.9780 C   0  0  0  0  0  2  0  0  0  0  0  0
  185.0970  178.6610  142.4670 C   0  0  0  0  0  3  0  0  0  0  0  0
  181.5010  178.9350  141.0920 C   0  0  1  0  0  3  0  0  0  0  0  0
  182.8000  178.7850  141.8270 C   0  0  0  0  0  0  0  0  0  0  0  0
  184.1780  178.8060  141.2440 C   0  0  0  0  0  3  0  0  0  0  0  0
  182.8000  178.7630  143.1510 C   0  0  0  0  0  0  0  0  0  0  0  0
  184.4880  178.9110  144.9080 C   0  0  0  0  0  3  0  0  0  0  0  0
  184.1580  178.7340  143.6300 C   0  0  0  0  0  0  0  0  0  0  0  0
  180.2940  178.8560  143.1160 C   0  0  0  0  0  2  0  0  0  0  0  0
  181.6060  176.0220  139.0820 C   0  0  0  0  0  0  0  0  0  0  0  0
  181.5750  177.3010  139.3460 C   0  0  0  0  0  0  0  0  0  0  0  0
  181.5430  178.5690  139.6410 C   0  0  0  0  0  0  0  0  0  0  0  0
  181.9220  179.5250  138.6540 N   0  0  0  0  0  1  0  0  0  0  0  0
  184.5640  174.1610  137.4960 N   0  0  0  0  0  2  0  0  0  0  0  0
  182.8560  175.4220  136.4350 N   0  0  0  0  0  2  0  0  0  0  0  0
  183.3720  174.9590  137.5330 C   0  0  0  0  0  0  0  0  0  0  0  0
  182.8440  175.3430  138.8130 N   0  0  0  0  0  2  0  0  0  0  0  0
  187.7480  173.3770  135.8910 N   0  0  0  0  0  0  0  0  0  0  0  0
  186.2470  175.2900  136.0990 C   0  0  0  0  0  2  0  0  0  0  0  0
  185.4650  174.0370  136.3470 C   0  0  1  0  0  3  0  0  0  0  0  0
  187.6030  174.8050  135.5990 C   0  0  0  0  0  2  0  0  0  0  0  0
  186.5120  172.9550  136.5510 C   0  0  0  0  0  2  0  0  0  0  0  0
  187.4540  171.2150  134.8000 C   0  0  0  0  0  1  0  0  0  0  0  0
  187.8210  172.6840  134.6140 C   0  0  0  0  0  2  0  0  0  0  0  0
  179.1680  176.0030  138.6280 O   0  0  0  0  0  0  0  0  0  0  0  0
  180.3050  174.0440  138.9240 O   0  0  0  0  0  1  0  0  0  0  0  0
  180.3370  175.3030  138.8780 C   0  0  0  0  0  0  0  0  0  0  0  0
  185.9310  179.0630  146.9600 C   0  0  0  0  0  2  0  0  0  0  0  0
  185.8970  178.9720  145.4480 C   0  0  1  0  0  3  0  0  0  0  0  0
  186.4620  177.6210  145.4350 N   0  0  0  0  0  0  0  0  0  0  0  0
  186.5430  177.6850  146.8910 C   0  0  0  0  0  2  0  0  0  0  0  0
  187.8220  177.6500  144.8820 C   0  0  1  0  0  3  0  0  0  0  0  0
  189.9370  177.7060  145.8680 C   0  0  0  0  0  1  0  0  0  0  0  0
  188.7180  176.9230  145.7690 N   0  0  0  0  0  2  0  0  0  0  0  0
  187.8220  177.0000  143.5790 N   0  0  0  0  0  2  0  0  0  0  0  0
  188.6990  177.7870  142.7290 C   0  0  0  0  0  2  0  0  0  0  0  0
  188.4120  177.4840  141.2960 C   0  0  0  0  0  3  0  0  0  0  0  0
  188.6290  178.4080  140.3550 C   0  0  0  0  0  3  0  0  0  0  0  0
  188.3600  178.1550  138.8980 C   0  0  1  0  0  0  0  0  0  0  0  0
  186.8650  178.0070  138.6630 C   0  0  0  0  0  1  0  0  0  0  0  0
  188.8830  179.2690  138.1020 N   0  0  0  0  0  1  0  0  0  0  0  0
  189.0790  176.8660  138.4940 C   0  0  0  0  0  2  0  0  0  0  0  0
  190.4750  177.1010  138.2020 N   0  0  0  0  0  1  0  0  0  0  0  0
  1 10  1  0  0  0  0
  3  9  1  0  0  0  0
  4 13  1  6  0  0  0
  4  1  1  0  0  0  0
  4  5  1  0  0  0  0
  5  7  2  0  0  0  0
  6  5  1  0  0  0  0
  6  3  2  0  0  0  0
  7  9  1  0  0  0  0
  7  2  1  0  0  0  0
  9  8  2  0  0  0  0
 10  2  1  0  0  0  0
 11 12  2  0  0  0  0
 12 13  2  0  0  0  0
 14 13  1  0  0  0  0
 15 17  1  0  0  0  0
 16 17  2  0  0  0  0
 17 18  1  0  0  0  0
 18 11  1  0  0  0  0
 19 23  1  0  0  0  0
 20 21  1  0  0  0  0
 21 23  1  0  0  0  0
 21 15  1  1  0  0  0
 22 19  1  0  0  0  0
 22 20  1  0  0  0  0
 25 24  1  0  0  0  0
 25 19  1  0  0  0  0
 26 28  2  0  0  0  0
 28 27  1  0  0  0  0
 28 11  1  0  0  0  0
 30  8  1  1  0  0  0
 30 29  1  0  0  0  0
 31 30  1  0  0  0  0
 31 32  1  0  0  0  0
 32 29  1  0  0  0  0
 33 36  1  6  0  0  0
 33 31  1  0  0  0  0
 33 35  1  0  0  0  0
 35 34  1  0  0  0  0
 37 36  1  0  0  0  0
 38 37  1  0  0  0  0
 39 38  2  0  0  0  0
 40 41  1  6  0  0  0
 40 39  1  0  0  0  0
 42 40  1  0  0  0  0
 43 40  1  0  0  0  0
 44 43  1  0  0  0  0
M  END
>  <MODEL>
1

>  <REMARK>
 VINA RESULT:      -7.4      0.000      0.000
  Name = 
  13 active torsions:
  status: ('A' for Active; 'I' for Inactive)
    1  A    between atoms: C_1  and  C_9
    2  A    between atoms: N_2  and  C_24
    3  A    between atoms: CA_4  and  N_41
    4  A    between atoms: CA_4  and  C_43
    5  A    between atoms: C_9  and  N_29
    6  A    between atoms: C_11  and  C_31
    7  A    between atoms: C_14  and  C_17
    8  A    between atoms: C_15  and  C_35
    9  A    between atoms: C_16  and  C_31
   10  A    between atoms: N_18  and  C_23
   11  A    between atoms: N_21  and  C_22
   12  A    between atoms: C_22  and  N_29
   13  A    between atoms: C_22  and  N_36
                            x       y       z     vdW  Elec       q    Type
                         _______ _______ _______ _____ _____    ______ ____

>  <TORSDO>
F 13

$$$$
=
 OpenBabel11062416153D

 44 47  0  0  1  0  0  0  0  0999 V2000
  182.8980  175.8630  137.5910 N   0  0  0  0  0  2  0  0  0  0  0  0
  182.2250  176.7360  139.8030 C   0  0  0  0  0  2  0  0  0  0  0  0
  185.5540  178.5760  140.4110 C   0  0  0  0  0  3  0  0  0  0  0  0
  183.7710  177.0230  137.3610 C   0  0  1  0  0  3  0  0  0  0  0  0
  184.2940  177.5360  138.6690 C   0  0  0  0  0  0  0  0  0  0  0  0
  185.5860  178.2550  138.9090 C   0  0  0  0  0  3  0  0  0  0  0  0
  183.5170  177.5010  139.7410 C   0  0  0  0  0  0  0  0  0  0  0  0
  183.5810  178.4550  141.9860 C   0  0  0  0  0  3  0  0  0  0  0  0
  184.1840  178.1520  140.8380 C   0  0  0  0  0  0  0  0  0  0  0  0
  181.7660  176.3220  138.3860 C   0  0  0  0  0  2  0  0  0  0  0  0
  186.2350  174.5820  136.6440 C   0  0  0  0  0  0  0  0  0  0  0  0
  185.5310  175.6690  136.4690 C   0  0  0  0  0  0  0  0  0  0  0  0
  184.8120  176.7450  136.3220 C   0  0  0  0  0  0  0  0  0  0  0  0
  185.2670  177.7730  135.4460 N   0  0  0  0  0  1  0  0  0  0  0  0
  189.9930  174.6770  137.4190 N   0  0  0  0  0  2  0  0  0  0  0  0
  188.8760  175.2120  135.3950 N   0  0  0  0  0  2  0  0  0  0  0  0
  188.8040  174.8110  136.6270 C   0  0  0  0  0  0  0  0  0  0  0  0
  187.5310  174.6220  137.2660 N   0  0  0  0  0  2  0  0  0  0  0  0
  193.5860  175.1300  137.8780 N   0  0  0  0  0  0  0  0  0  0  0  0
  191.5830  176.5190  137.7900 C   0  0  0  0  0  2  0  0  0  0  0  0
  191.3060  175.2320  137.0770 C   0  0  1  0  0  3  0  0  0  0  0  0
  193.0810  176.4920  138.0680 C   0  0  0  0  0  2  0  0  0  0  0  0
  192.4430  174.3080  137.4780 C   0  0  0  0  0  2  0  0  0  0  0  0
  194.6490  173.7750  136.1500 C   0  0  0  0  0  1  0  0  0  0  0  0
  194.5110  175.1680  136.7560 C   0  0  0  0  0  2  0  0  0  0  0  0
  184.5480  173.2670  135.3900 O   0  0  0  0  0  0  0  0  0  0  0  0
  186.4950  172.2930  136.0800 O   0  0  0  0  0  1  0  0  0  0  0  0
  185.7750  173.3260  136.0310 C   0  0  0  0  0  0  0  0  0  0  0  0
  183.1770  179.8830  144.0150 C   0  0  0  0  0  2  0  0  0  0  0  0
  184.2100  179.2090  143.1340 C   0  0  1  0  0  3  0  0  0  0  0  0
  184.5890  178.2500  144.1720 N   0  0  0  0  0  0  0  0  0  0  0  0
  183.6290  178.8950  145.0620 C   0  0  0  0  0  2  0  0  0  0  0  0
  185.9480  178.5370  144.6510 C   0  0  1  0  0  3  0  0  0  0  0  0
  186.7470  178.1080  146.8010 C   0  0  0  0  0  1  0  0  0  0  0  0
  185.8860  178.9900  146.0320 N   0  0  0  0  0  2  0  0  0  0  0  0
  186.7430  177.3190  144.5900 N   0  0  0  0  0  2  0  0  0  0  0  0
  187.3200  177.2720  143.2570 C   0  0  0  0  0  2  0  0  0  0  0  0
  188.8070  177.3400  143.3510 C   0  0  0  0  0  3  0  0  0  0  0  0
  189.4260  177.0260  144.4940 C   0  0  0  0  0  3  0  0  0  0  0  0
  190.9210  177.0750  144.6420 C   0  0  1  0  0  0  0  0  0  0  0  0
  191.5600  175.9500  143.8410 C   0  0  0  0  0  1  0  0  0  0  0  0
  191.4180  178.3700  144.1670 N   0  0  0  0  0  1  0  0  0  0  0  0
  191.2630  176.9160  146.1240 C   0  0  0  0  0  2  0  0  0  0  0  0
  190.0730  176.8200  146.9400 N   0  0  0  0  0  1  0  0  0  0  0  0
  1 10  1  0  0  0  0
  3  9  1  0  0  0  0
  4 13  1  6  0  0  0
  4  1  1  0  0  0  0
  4  5  1  0  0  0  0
  5  6  1  0  0  0  0
  5  7  2  0  0  0  0
  6  3  2  0  0  0  0
  7  2  1  0  0  0  0
  7  9  1  0  0  0  0
  9  8  2  0  0  0  0
 10  2  1  0  0  0  0
 11 18  1  0  0  0  0
 12 11  2  0  0  0  0
 13 12  2  0  0  0  0
 14 13  1  0  0  0  0
 16 17  2  0  0  0  0
 17 18  1  0  0  0  0
 17 15  1  0  0  0  0
 19 22  1  0  0  0  0
 20 22  1  0  0  0  0
 21 15  1  1  0  0  0
 21 23  1  0  0  0  0
 21 20  1  0  0  0  0
 23 19  1  0  0  0  0
 24 25  1  0  0  0  0
 25 19  1  0  0  0  0
 26 28  2  0  0  0  0
 28 27  1  0  0  0  0
 28 11  1  0  0  0  0
 29 32  1  0  0  0  0
 30  8  1  6  0  0  0
 30 29  1  0  0  0  0
 30 31  1  0  0  0  0
 31 33  1  0  0  0  0
 31 32  1  0  0  0  0
 33 36  1  1  0  0  0
 33 35  1  0  0  0  0
 35 34  1  0  0  0  0
 37 38  1  0  0  0  0
 37 36  1  0  0  0  0
 38 39  2  0  0  0  0
 39 40  1  0  0  0  0
 40 41  1  6  0  0  0
 40 43  1  0  0  0  0
 42 40  1  0  0  0  0
 43 44  1  0  0  0  0
M  END
>  <MODEL>
2

>  <REMARK>
 VINA RESULT:      -6.6      2.769      5.241
  Name = 
  13 active torsions:
  status: ('A' for Active; 'I' for Inactive)
    1  A    between atoms: C_1  and  C_9
    2  A    between atoms: N_2  and  C_24
    3  A    between atoms: CA_4  and  N_41
    4  A    between atoms: CA_4  and  C_43
    5  A    between atoms: C_9  and  N_29
    6  A    between atoms: C_11  and  C_31
    7  A    between atoms: C_14  and  C_17
    8  A    between atoms: C_15  and  C_35
    9  A    between atoms: C_16  and  C_31
   10  A    between atoms: N_18  and  C_23
   11  A    between atoms: N_21  and  C_22
   12  A    between atoms: C_22  and  N_29
   13  A    between atoms: C_22  and  N_36
                            x       y       z     vdW  Elec       q    Type
                         _______ _______ _______ _____ _____    ______ ____

>  <TORSDO>
F 13

$$$$
=
 OpenBabel11062416153D

 44 47  0  0  1  0  0  0  0  0999 V2000
  180.2500  177.1270  138.5170 N   0  0  0  0  0  2  0  0  0  0  0  0
  181.0210  177.2930  140.8590 C   0  0  0  0  0  2  0  0  0  0  0  0
  184.1310  179.3930  139.9910 C   0  0  0  0  0  3  0  0  0  0  0  0
  180.8590  178.4240  138.1890 C   0  0  1  0  0  3  0  0  0  0  0  0
  182.0620  178.6570  139.0530 C   0  0  0  0  0  0  0  0  0  0  0  0
  183.2700  179.4760  138.7200 C   0  0  0  0  0  3  0  0  0  0  0  0
  182.0550  178.2330  140.3070 C   0  0  0  0  0  0  0  0  0  0  0  0
  183.4460  178.5780  142.2830 C   0  0  0  0  0  3  0  0  0  0  0  0
  183.2560  178.6730  140.9690 C   0  0  0  0  0  0  0  0  0  0  0  0
  179.8100  177.1920  139.9040 C   0  0  0  0  0  2  0  0  0  0  0  0
  182.4890  176.7150  135.5500 C   0  0  0  0  0  0  0  0  0  0  0  0
  181.7860  177.6580  136.1210 C   0  0  0  0  0  0  0  0  0  0  0  0
  181.0890  178.5810  136.7180 C   0  0  0  0  0  0  0  0  0  0  0  0
  180.9060  179.8410  136.0770 N   0  0  0  0  0  1  0  0  0  0  0  0
  186.2920  177.1280  135.8620 N   0  0  0  0  0  2  0  0  0  0  0  0
  184.7410  176.3520  137.4810 N   0  0  0  0  0  2  0  0  0  0  0  0
  184.9590  176.8060  136.2840 C   0  0  0  0  0  0  0  0  0  0  0  0
  183.8990  176.8690  135.3170 N   0  0  0  0  0  2  0  0  0  0  0  0
  189.5540  177.7350  137.3830 N   0  0  0  0  0  0  0  0  0  0  0  0
  188.6170  176.3670  135.5930 C   0  0  0  0  0  2  0  0  0  0  0  0
  187.5200  176.7230  136.5490 C   0  0  1  0  0  3  0  0  0  0  0  0
  189.8950  176.8310  136.2820 C   0  0  0  0  0  2  0  0  0  0  0  0
  188.0950  177.8380  137.4070 C   0  0  0  0  0  2  0  0  0  0  0  0
  191.1030  176.1050  138.3310 C   0  0  0  0  0  1  0  0  0  0  0  0
  189.9660  177.0820  138.6160 C   0  0  0  0  0  2  0  0  0  0  0  0
  180.4510  175.6400  134.6320 O   0  0  0  0  0  0  0  0  0  0  0  0
  182.4090  174.4730  134.7780 O   0  0  0  0  0  1  0  0  0  0  0  0
  181.7910  175.5540  134.9730 C   0  0  0  0  0  0  0  0  0  0  0  0
  184.2620  180.0500  144.1490 C   0  0  0  0  0  2  0  0  0  0  0  0
  184.6480  179.0990  143.0350 C   0  0  1  0  0  3  0  0  0  0  0  0
  185.1020  178.0640  143.9660 N   0  0  0  0  0  0  0  0  0  0  0  0
  184.7750  178.9660  145.0650 C   0  0  0  0  0  2  0  0  0  0  0  0
  186.5610  177.9210  143.8860 C   0  0  1  0  0  3  0  0  0  0  0  0
  188.1020  177.7780  145.6340 C   0  0  0  0  0  1  0  0  0  0  0  0
  187.0210  177.0680  144.9720 N   0  0  0  0  0  2  0  0  0  0  0  0
  186.9120  177.2960  142.6180 N   0  0  0  0  0  2  0  0  0  0  0  0
  187.5720  178.3200  141.8270 C   0  0  0  0  0  2  0  0  0  0  0  0
  188.9990  178.4360  142.2470 C   0  0  0  0  0  3  0  0  0  0  0  0
  189.7370  177.3380  142.4410 C   0  0  0  0  0  3  0  0  0  0  0  0
  191.1780  177.3990  142.8620 C   0  0  1  0  0  0  0  0  0  0  0  0
  192.0760  177.4580  141.6350 C   0  0  0  0  0  1  0  0  0  0  0  0
  191.3960  178.5850  143.6960 N   0  0  0  0  0  1  0  0  0  0  0  0
  191.4940  176.1440  143.6770 C   0  0  0  0  0  2  0  0  0  0  0  0
  191.5920  176.4340  145.0890 N   0  0  0  0  0  1  0  0  0  0  0  0
  1 10  1  0  0  0  0
  3  9  1  0  0  0  0
  4 13  1  6  0  0  0
  4  1  1  0  0  0  0
  4  5  1  0  0  0  0
  5  7  2  0  0  0  0
  6  5  1  0  0  0  0
  6  3  2  0  0  0  0
  7  2  1  0  0  0  0
  7  9  1  0  0  0  0
  9  8  2  0  0  0  0
 10  2  1  0  0  0  0
 11 12  2  0  0  0  0
 12 13  2  0  0  0  0
 14 13  1  0  0  0  0
 15 17  1  0  0  0  0
 17 16  2  0  0  0  0
 18 11  1  0  0  0  0
 18 17  1  0  0  0  0
 19 23  1  0  0  0  0
 19 25  1  0  0  0  0
 20 22  1  0  0  0  0
 20 21  1  0  0  0  0
 21 15  1  6  0  0  0
 21 23  1  0  0  0  0
 22 19  1  0  0  0  0
 24 25  1  0  0  0  0
 26 28  2  0  0  0  0
 27 28  1  0  0  0  0
 28 11  1  0  0  0  0
 29 32  1  0  0  0  0
 30  8  1  1  0  0  0
 30 31  1  0  0  0  0
 30 29  1  0  0  0  0
 31 32  1  0  0  0  0
 33 36  1  6  0  0  0
 33 31  1  0  0  0  0
 33 35  1  0  0  0  0
 35 34  1  0  0  0  0
 37 38  1  0  0  0  0
 37 36  1  0  0  0  0
 38 39  2  0  0  0  0
 39 40  1  0  0  0  0
 40 41  1  6  0  0  0
 40 43  1  0  0  0  0
 40 42  1  0  0  0  0
 43 44  1  0  0  0  0
M  END
>  <MODEL>
3

>  <REMARK>
 VINA RESULT:      -6.5      2.350      3.814
  Name = 
  13 active torsions:
  status: ('A' for Active; 'I' for Inactive)
    1  A    between atoms: C_1  and  C_9
    2  A    between atoms: N_2  and  C_24
    3  A    between atoms: CA_4  and  N_41
    4  A    between atoms: CA_4  and  C_43
    5  A    between atoms: C_9  and  N_29
    6  A    between atoms: C_11  and  C_31
    7  A    between atoms: C_14  and  C_17
    8  A    between atoms: C_15  and  C_35
    9  A    between atoms: C_16  and  C_31
   10  A    between atoms: N_18  and  C_23
   11  A    between atoms: N_21  and  C_22
   12  A    between atoms: C_22  and  N_29
   13  A    between atoms: C_22  and  N_36
                            x       y       z     vdW  Elec       q    Type
                         _______ _______ _______ _____ _____    ______ ____

>  <TORSDO>
F 13

$$$$
=
 OpenBabel11062416153D

 44 47  0  0  1  0  0  0  0  0999 V2000
  179.8180  178.0360  142.1280 N   0  0  0  0  0  2  0  0  0  0  0  0
  180.9950  178.5110  144.2480 C   0  0  0  0  0  2  0  0  0  0  0  0
  184.4590  178.8170  142.5920 C   0  0  0  0  0  3  0  0  0  0  0  0
  180.7990  178.8220  141.3680 C   0  0  1  0  0  3  0  0  0  0  0  0
  182.1340  178.7690  142.0480 C   0  0  0  0  0  0  0  0  0  0  0  0
  183.4820  178.8920  141.4080 C   0  0  0  0  0  3  0  0  0  0  0  0
  182.1910  178.7500  143.3710 C   0  0  0  0  0  0  0  0  0  0  0  0
  183.9350  179.0250  145.0560 C   0  0  0  0  0  3  0  0  0  0  0  0
  183.5660  178.8220  143.7930 C   0  0  0  0  0  0  0  0  0  0  0  0
  179.6860  178.6570  143.4400 C   0  0  0  0  0  2  0  0  0  0  0  0
  181.4940  176.0090  139.3320 C   0  0  0  0  0  0  0  0  0  0  0  0
  181.1490  177.2390  139.6080 C   0  0  0  0  0  0  0  0  0  0  0  0
  180.8080  178.4570  139.9160 C   0  0  0  0  0  0  0  0  0  0  0  0
  180.8300  179.4640  138.9070 N   0  0  0  0  0  1  0  0  0  0  0  0
  184.8400  175.5500  137.5070 N   0  0  0  0  0  2  0  0  0  0  0  0
  183.0840  177.0760  137.0370 N   0  0  0  0  0  2  0  0  0  0  0  0
  183.5460  176.1120  137.7730 C   0  0  0  0  0  0  0  0  0  0  0  0
  182.8390  175.6790  138.9460 N   0  0  0  0  0  2  0  0  0  0  0  0
  188.2220  175.8920  136.1780 N   0  0  0  0  0  0  0  0  0  0  0  0
  186.5720  177.2880  137.3090 C   0  0  0  0  0  2  0  0  0  0  0  0
  185.8620  176.1490  136.6440 C   0  0  1  0  0  3  0  0  0  0  0  0
  188.0050  177.2020  136.7960 C   0  0  0  0  0  2  0  0  0  0  0  0
  186.9590  175.1620  136.2810 C   0  0  0  0  0  2  0  0  0  0  0  0
  189.4230  177.3100  134.5960 C   0  0  0  0  0  1  0  0  0  0  0  0
  188.4790  176.1230  134.7640 C   0  0  0  0  0  2  0  0  0  0  0  0
  180.2700  174.2680  138.0590 O   0  0  0  0  0  0  0  0  0  0  0  0
  179.7110  174.7260  140.2260 O   0  0  0  0  0  1  0  0  0  0  0  0
  180.4490  174.9770  139.2360 C   0  0  0  0  0  0  0  0  0  0  0  0
  185.4380  179.3720  147.0400 C   0  0  0  0  0  2  0  0  0  0  0  0
  185.3570  179.1910  145.5380 C   0  0  1  0  0  3  0  0  0  0  0  0
  185.9930  177.8730  145.5800 N   0  0  0  0  0  0  0  0  0  0  0  0
  186.1220  178.0270  147.0260 C   0  0  0  0  0  2  0  0  0  0  0  0
  187.3300  177.9400  144.9750 C   0  0  1  0  0  3  0  0  0  0  0  0
  189.1990  177.7460  146.3590 C   0  0  0  0  0  1  0  0  0  0  0  0
  188.2040  176.9790  145.6300 N   0  0  0  0  0  2  0  0  0  0  0  0
  187.2320  177.6000  143.5620 N   0  0  0  0  0  2  0  0  0  0  0  0
  187.7470  176.2480  143.4300 C   0  0  0  0  0  2  0  0  0  0  0  0
  189.2360  176.2840  143.3510 C   0  0  0  0  0  3  0  0  0  0  0  0
  189.8510  177.2240  142.6260 C   0  0  0  0  0  3  0  0  0  0  0  0
  191.3470  177.3070  142.5150 C   0  0  1  0  0  0  0  0  0  0  0  0
  191.8510  178.5710  143.1970 C   0  0  0  0  0  1  0  0  0  0  0  0
  191.9520  176.1280  143.1410 N   0  0  0  0  0  1  0  0  0  0  0  0
  191.7180  177.3360  141.0310 C   0  0  0  0  0  2  0  0  0  0  0  0
  190.5570  177.5370  140.1940 N   0  0  0  0  0  1  0  0  0  0  0  0
  1 10  1  0  0  0  0
  3  9  1  0  0  0  0
  4 13  1  6  0  0  0
  4  5  1  0  0  0  0
  4  1  1  0  0  0  0
  5  7  2  0  0  0  0
  6  5  1  0  0  0  0
  6  3  2  0  0  0  0
  7  9  1  0  0  0  0
  7  2  1  0  0  0  0
  9  8  2  0  0  0  0
 10  2  1  0  0  0  0
 11 12  2  0  0  0  0
 12 13  2  0  0  0  0
 14 13  1  0  0  0  0
 15 17  1  0  0  0  0
 16 17  2  0  0  0  0
 17 18  1  0  0  0  0
 18 11  1  0  0  0  0
 19 23  1  0  0  0  0
 19 22  1  0  0  0  0
 21 20  1  0  0  0  0
 21 15  1  1  0  0  0
 22 20  1  0  0  0  0
 23 21  1  0  0  0  0
 24 25  1  0  0  0  0
 25 19  1  0  0  0  0
 26 28  2  0  0  0  0
 28 11  1  0  0  0  0
 28 27  1  0  0  0  0
 30  8  1  1  0  0  0
 30 31  1  0  0  0  0
 30 29  1  0  0  0  0
 31 32  1  0  0  0  0
 32 29  1  0  0  0  0
 33 36  1  6  0  0  0
 33 31  1  0  0  0  0
 33 35  1  0  0  0  0
 35 34  1  0  0  0  0
 37 36  1  0  0  0  0
 38 37  1  0  0  0  0
 39 38  2  0  0  0  0
 40 39  1  0  0  0  0
 40 42  1  0  0  0  0
 40 41  1  1  0  0  0
 43 40  1  0  0  0  0
 44 43  1  0  0  0  0
M  END
>  <MODEL>
4

>  <REMARK>
 VINA RESULT:      -6.2      1.573      2.412
  Name = 
  13 active torsions:
  status: ('A' for Active; 'I' for Inactive)
    1  A    between atoms: C_1  and  C_9
    2  A    between atoms: N_2  and  C_24
    3  A    between atoms: CA_4  and  N_41
    4  A    between atoms: CA_4  and  C_43
    5  A    between atoms: C_9  and  N_29
    6  A    between atoms: C_11  and  C_31
    7  A    between atoms: C_14  and  C_17
    8  A    between atoms: C_15  and  C_35
    9  A    between atoms: C_16  and  C_31
   10  A    between atoms: N_18  and  C_23
   11  A    between atoms: N_21  and  C_22
   12  A    between atoms: C_22  and  N_29
   13  A    between atoms: C_22  and  N_36
                            x       y       z     vdW  Elec       q    Type
                         _______ _______ _______ _____ _____    ______ ____

>  <TORSDO>
F 13

$$$$
=
 OpenBabel11062416153D

 44 47  0  0  1  0  0  0  0  0999 V2000
  188.0300  178.9030  140.5720 N   0  0  0  0  0  2  0  0  0  0  0  0
  185.7870  179.0030  141.6040 C   0  0  0  0  0  2  0  0  0  0  0  0
  183.9170  178.4130  138.2890 C   0  0  0  0  0  3  0  0  0  0  0  0
  187.5470  177.9870  139.5290 C   0  0  1  0  0  3  0  0  0  0  0  0
  186.0970  178.2490  139.2500 C   0  0  0  0  0  0  0  0  0  0  0  0
  185.3660  178.0180  137.9640 C   0  0  0  0  0  3  0  0  0  0  0  0
  185.2940  178.5960  140.2450 C   0  0  0  0  0  0  0  0  0  0  0  0
  182.8830  178.8010  140.5620 C   0  0  0  0  0  3  0  0  0  0  0  0
  183.9400  178.6750  139.7620 C   0  0  0  0  0  0  0  0  0  0  0  0
  187.2730  178.6200  141.7840 C   0  0  0  0  0  2  0  0  0  0  0  0
  189.3610  175.6660  137.5640 C   0  0  0  0  0  0  0  0  0  0  0  0
  188.9070  176.8350  137.9340 C   0  0  0  0  0  0  0  0  0  0  0  0
  188.4380  177.9840  138.3260 C   0  0  0  0  0  0  0  0  0  0  0  0
  189.0580  179.1830  137.8700 N   0  0  0  0  0  1  0  0  0  0  0  0
  192.8700  174.1220  137.7410 N   0  0  0  0  0  2  0  0  0  0  0  0
  191.5930  174.6990  135.8270 N   0  0  0  0  0  2  0  0  0  0  0  0
  191.6850  174.6400  137.1210 C   0  0  0  0  0  0  0  0  0  0  0  0
  190.6670  175.2120  137.9580 N   0  0  0  0  0  2  0  0  0  0  0  0
  196.4850  173.6200  137.6510 N   0  0  0  0  0  0  0  0  0  0  0  0
  194.8520  175.1900  136.7460 C   0  0  0  0  0  2  0  0  0  0  0  0
  194.1540  173.9050  137.0690 C   0  0  1  0  0  3  0  0  0  0  0  0
  196.3340  174.8780  136.9150 C   0  0  0  0  0  2  0  0  0  0  0  0
  195.1350  173.1330  137.9350 C   0  0  0  0  0  2  0  0  0  0  0  0
  197.9750  173.4090  135.7300 C   0  0  0  0  0  1  0  0  0  0  0  0
  197.1120  172.6680  136.7470 C   0  0  0  0  0  2  0  0  0  0  0  0
  188.2980  173.5520  136.8240 O   0  0  0  0  0  1  0  0  0  0  0  0
  188.2060  175.4160  135.5070 O   0  0  0  0  0  0  0  0  0  0  0  0
  188.5980  174.8820  136.5790 C   0  0  0  0  0  0  0  0  0  0  0  0
  180.8820  177.4050  139.9610 C   0  0  0  0  0  2  0  0  0  0  0  0
  181.4410  178.8050  140.1140 C   0  0  1  0  0  3  0  0  0  0  0  0
  180.5930  179.1050  141.2700 N   0  0  0  0  0  0  0  0  0  0  0  0
  180.0050  177.7760  141.1330 C   0  0  0  0  0  2  0  0  0  0  0  0
  179.5850  180.1100  140.9080 C   0  0  1  0  0  3  0  0  0  0  0  0
  179.7160  180.1240  143.2390 C   0  0  0  0  0  1  0  0  0  0  0  0
  179.2050  180.8600  142.0960 N   0  0  0  0  0  2  0  0  0  0  0  0
  180.1560  181.0300  139.9350 N   0  0  0  0  0  2  0  0  0  0  0  0
  179.0410  181.5570  139.1660 C   0  0  0  0  0  2  0  0  0  0  0  0
  179.4140  182.8790  138.5830 C   0  0  0  0  0  3  0  0  0  0  0  0
  180.4740  182.9850  137.7750 C   0  0  0  0  0  3  0  0  0  0  0  0
  180.8910  184.2900  137.1590 C   0  0  1  0  0  0  0  0  0  0  0  0
  179.9280  185.3930  137.5740 C   0  0  0  0  0  1  0  0  0  0  0  0
  182.2500  184.6250  137.5930 N   0  0  0  0  0  1  0  0  0  0  0  0
  180.8730  184.1310  135.6380 C   0  0  0  0  0  2  0  0  0  0  0  0
  179.6520  183.5070  135.1800 N   0  0  0  0  0  1  0  0  0  0  0  0
  1 10  1  0  0  0  0
  2 10  1  0  0  0  0
  3  9  1  0  0  0  0
  4 13  1  6  0  0  0
  4  1  1  0  0  0  0
  5  4  1  0  0  0  0
  5  7  2  0  0  0  0
  6  3  2  0  0  0  0
  6  5  1  0  0  0  0
  7  2  1  0  0  0  0
  9  7  1  0  0  0  0
  9  8  2  0  0  0  0
 11 12  2  0  0  0  0
 11 18  1  0  0  0  0
 12 13  2  0  0  0  0
 14 13  1  0  0  0  0
 16 17  2  0  0  0  0
 17 15  1  0  0  0  0
 17 18  1  0  0  0  0
 19 23  1  0  0  0  0
 20 22  1  0  0  0  0
 20 21  1  0  0  0  0
 21 15  1  1  0  0  0
 21 23  1  0  0  0  0
 22 19  1  0  0  0  0
 24 25  1  0  0  0  0
 25 19  1  0  0  0  0
 27 28  2  0  0  0  0
 28 26  1  0  0  0  0
 28 11  1  0  0  0  0
 29 30  1  0  0  0  0
 29 32  1  0  0  0  0
 30  8  1  1  0  0  0
 30 31  1  0  0  0  0
 32 31  1  0  0  0  0
 33 36  1  6  0  0  0
 33 31  1  0  0  0  0
 33 35  1  0  0  0  0
 35 34  1  0  0  0  0
 37 36  1  0  0  0  0
 38 37  1  0  0  0  0
 39 38  2  0  0  0  0
 40 41  1  1  0  0  0
 40 42  1  0  0  0  0
 40 39  1  0  0  0  0
 43 40  1  0  0  0  0
 44 43  1  0  0  0  0
M  END
>  <MODEL>
5

>  <REMARK>
 VINA RESULT:      -5.7      4.610      8.497
  Name = 
  13 active torsions:
  status: ('A' for Active; 'I' for Inactive)
    1  A    between atoms: C_1  and  C_9
    2  A    between atoms: N_2  and  C_24
    3  A    between atoms: CA_4  and  N_41
    4  A    between atoms: CA_4  and  C_43
    5  A    between atoms: C_9  and  N_29
    6  A    between atoms: C_11  and  C_31
    7  A    between atoms: C_14  and  C_17
    8  A    between atoms: C_15  and  C_35
    9  A    between atoms: C_16  and  C_31
   10  A    between atoms: N_18  and  C_23
   11  A    between atoms: N_21  and  C_22
   12  A    between atoms: C_22  and  N_29
   13  A    between atoms: C_22  and  N_36
                            x       y       z     vdW  Elec       q    Type
                         _______ _______ _______ _____ _____    ______ ____

>  <TORSDO>
F 13

$$$$
=
 OpenBabel11062416153D

 44 47  0  0  1  0  0  0  0  0999 V2000
  187.9460  178.9130  140.6280 N   0  0  0  0  0  2  0  0  0  0  0  0
  185.6870  179.0230  141.6240 C   0  0  0  0  0  2  0  0  0  0  0  0
  183.8680  178.4680  138.2740 C   0  0  0  0  0  3  0  0  0  0  0  0
  187.4730  178.0080  139.5720 C   0  0  1  0  0  3  0  0  0  0  0  0
  186.0310  178.2820  139.2700 C   0  0  0  0  0  0  0  0  0  0  0  0
  185.3200  178.0640  137.9710 C   0  0  0  0  0  3  0  0  0  0  0  0
  185.2140  178.6270  140.2540 C   0  0  0  0  0  0  0  0  0  0  0  0
  182.7990  178.8480  140.5330 C   0  0  0  0  0  3  0  0  0  0  0  0
  183.8680  178.7200  139.7490 C   0  0  0  0  0  0  0  0  0  0  0  0
  187.1670  178.6280  141.8260 C   0  0  0  0  0  2  0  0  0  0  0  0
  189.2350  175.6790  137.5690 C   0  0  0  0  0  0  0  0  0  0  0  0
  188.8180  176.8530  137.9650 C   0  0  0  0  0  0  0  0  0  0  0  0
  188.3850  178.0060  138.3840 C   0  0  0  0  0  0  0  0  0  0  0  0
  189.0560  179.1950  137.9730 N   0  0  0  0  0  1  0  0  0  0  0  0
  192.8860  174.5100  137.7560 N   0  0  0  0  0  2  0  0  0  0  0  0
  191.8660  175.9590  136.1780 N   0  0  0  0  0  2  0  0  0  0  0  0
  191.7480  175.2080  137.2310 C   0  0  0  0  0  0  0  0  0  0  0  0
  190.5170  175.1660  137.9700 N   0  0  0  0  0  2  0  0  0  0  0  0
  196.1830  173.5900  136.4870 N   0  0  0  0  0  0  0  0  0  0  0  0
  195.2210  174.5020  138.5350 C   0  0  0  0  0  2  0  0  0  0  0  0
  194.2830  174.7760  137.4000 C   0  0  1  0  0  3  0  0  0  0  0  0
  196.4840  173.9660  137.8700 C   0  0  0  0  0  2  0  0  0  0  0  0
  194.7670  173.8880  136.2670 C   0  0  0  0  0  2  0  0  0  0  0  0
  198.3100  174.7620  136.2620 C   0  0  0  0  0  1  0  0  0  0  0  0
  196.9550  174.4720  135.6250 C   0  0  0  0  0  2  0  0  0  0  0  0
  188.4160  173.5670  136.5590 O   0  0  0  0  0  1  0  0  0  0  0  0
  187.8280  175.5840  135.6610 O   0  0  0  0  0  0  0  0  0  0  0  0
  188.4610  174.9520  136.5490 C   0  0  0  0  0  0  0  0  0  0  0  0
  180.3800  178.7320  141.2060 C   0  0  0  0  0  2  0  0  0  0  0  0
  181.3640  178.8650  140.0610 C   0  0  1  0  0  3  0  0  0  0  0  0
  180.9800  180.2500  139.7840 N   0  0  0  0  0  0  0  0  0  0  0  0
  179.9960  180.1500  140.8570 C   0  0  0  0  0  2  0  0  0  0  0  0
  180.2740  180.3290  138.4980 C   0  0  1  0  0  3  0  0  0  0  0  0
  181.0980  182.4480  137.9680 C   0  0  0  0  0  1  0  0  0  0  0  0
  179.8800  181.7080  138.2490 N   0  0  0  0  0  2  0  0  0  0  0  0
  181.1690  179.8970  137.4340 N   0  0  0  0  0  2  0  0  0  0  0  0
  180.3550  179.1490  136.4920 C   0  0  0  0  0  2  0  0  0  0  0  0
  181.0180  177.8500  136.1760 C   0  0  0  0  0  3  0  0  0  0  0  0
  181.0770  176.8810  137.0940 C   0  0  0  0  0  3  0  0  0  0  0  0
  181.7300  175.5540  136.8270 C   0  0  1  0  0  0  0  0  0  0  0  0
  182.4220  175.0510  138.0850 C   0  0  0  0  0  1  0  0  0  0  0  0
  180.7170  174.5870  136.3940 N   0  0  0  0  0  1  0  0  0  0  0  0
  182.7580  175.7420  135.7090 C   0  0  0  0  0  2  0  0  0  0  0  0
  184.0480  175.2020  136.0730 N   0  0  0  0  0  1  0  0  0  0  0  0
  1 10  1  0  0  0  0
  2 10  1  0  0  0  0
  3  9  1  0  0  0  0
  4 13  1  6  0  0  0
  4  1  1  0  0  0  0
  5  4  1  0  0  0  0
  5  7  2  0  0  0  0
  6  3  2  0  0  0  0
  6  5  1  0  0  0  0
  7  2  1  0  0  0  0
  9  7  1  0  0  0  0
  9  8  2  0  0  0  0
 11 12  2  0  0  0  0
 11 18  1  0  0  0  0
 12 13  2  0  0  0  0
 14 13  1  0  0  0  0
 16 17  2  0  0  0  0
 17 15  1  0  0  0  0
 17 18  1  0  0  0  0
 19 22  1  0  0  0  0
 21 15  1  1  0  0  0
 21 20  1  0  0  0  0
 22 20  1  0  0  0  0
 23 19  1  0  0  0  0
 23 21  1  0  0  0  0
 25 24  1  0  0  0  0
 25 19  1  0  0  0  0
 27 28  2  0  0  0  0
 28 26  1  0  0  0  0
 28 11  1  0  0  0  0
 30  8  1  1  0  0  0
 30 29  1  0  0  0  0
 31 30  1  0  0  0  0
 31 32  1  0  0  0  0
 32 29  1  0  0  0  0
 33 36  1  6  0  0  0
 33 31  1  0  0  0  0
 34 35  1  0  0  0  0
 35 33  1  0  0  0  0
 37 36  1  0  0  0  0
 38 37  1  0  0  0  0
 38 39  2  0  0  0  0
 40 39  1  0  0  0  0
 40 41  1  1  0  0  0
 42 40  1  0  0  0  0
 43 44  1  0  0  0  0
 43 40  1  0  0  0  0
M  END
>  <MODEL>
6

>  <REMARK>
 VINA RESULT:      -5.6      3.996      8.165
  Name = 
  13 active torsions:
  status: ('A' for Active; 'I' for Inactive)
    1  A    between atoms: C_1  and  C_9
    2  A    between atoms: N_2  and  C_24
    3  A    between atoms: CA_4  and  N_41
    4  A    between atoms: CA_4  and  C_43
    5  A    between atoms: C_9  and  N_29
    6  A    between atoms: C_11  and  C_31
    7  A    between atoms: C_14  and  C_17
    8  A    between atoms: C_15  and  C_35
    9  A    between atoms: C_16  and  C_31
   10  A    between atoms: N_18  and  C_23
   11  A    between atoms: N_21  and  C_22
   12  A    between atoms: C_22  and  N_29
   13  A    between atoms: C_22  and  N_36
                            x       y       z     vdW  Elec       q    Type
                         _______ _______ _______ _____ _____    ______ ____

>  <TORSDO>
F 13

$$$$
=
 OpenBabel11062416153D

 44 47  0  0  1  0  0  0  0  0999 V2000
  187.5490  178.6920  146.9420 N   0  0  0  0  0  2  0  0  0  0  0  0
  185.3610  179.0090  145.8400 C   0  0  0  0  0  2  0  0  0  0  0  0
  186.4300  177.2740  142.5710 C   0  0  0  0  0  3  0  0  0  0  0  0
  187.7950  177.4620  146.1760 C   0  0  1  0  0  3  0  0  0  0  0  0
  187.1130  177.5440  144.8440 C   0  0  0  0  0  0  0  0  0  0  0  0
  187.5230  176.8680  143.5730 C   0  0  0  0  0  2  0  0  0  0  0  0
  185.9410  178.1550  144.7490 C   0  0  0  0  0  0  0  0  0  0  0  0
  184.1860  178.3290  143.0620 C   0  0  0  0  0  2  0  0  0  0  0  0
  185.4290  178.0030  143.4120 C   0  0  0  0  0  0  0  0  0  0  0  0
  186.1130  178.7820  147.1700 C   0  0  0  0  0  2  0  0  0  0  0  0
  190.6140  178.0660  144.1190 C   0  0  0  0  0  0  0  0  0  0  0  0
  189.9440  177.5800  145.1310 C   0  0  0  0  0  0  0  0  0  0  0  0
  189.2500  177.1120  146.1270 C   0  0  0  0  0  0  0  0  0  0  0  0
  189.7680  176.0230  146.8880 N   0  0  0  0  0  1  0  0  0  0  0  0
  190.5520  176.4600  140.6330 N   0  0  0  0  0  2  0  0  0  0  0  0
  189.5960  178.5120  141.3440 N   0  0  0  0  0  2  0  0  0  0  0  0
  190.2700  177.4430  141.6400 C   0  0  0  0  0  0  0  0  0  0  0  0
  190.8610  177.2810  142.9390 N   0  0  0  0  0  2  0  0  0  0  0  0
  188.9190  176.0010  137.4010 N   0  0  0  0  0  0  0  0  0  0  0  0
  191.1110  175.6030  138.3950 C   0  0  0  0  0  2  0  0  0  0  0  0
  190.4090  176.6610  139.1890 C   0  0  1  0  0  3  0  0  0  0  0  0
  190.2310  175.3950  137.1670 C   0  0  0  0  0  2  0  0  0  0  0  0
  188.9590  176.5930  138.7380 C   0  0  0  0  0  2  0  0  0  0  0  0
  188.9650  176.5620  135.0270 C   0  0  0  0  0  1  0  0  0  0  0  0
  188.7730  177.0890  136.4460 C   0  0  0  0  0  2  0  0  0  0  0  0
  192.5880  179.4430  144.7160 O   0  0  0  0  0  1  0  0  0  0  0  0
  190.6700  180.4330  143.9700 O   0  0  0  0  0  0  0  0  0  0  0  0
  191.2810  179.3700  144.2630 C   0  0  0  0  0  0  0  0  0  0  0  0
  182.0910  177.8150  141.7730 C   0  0  0  0  0  2  0  0  0  0  0  0
  183.5740  178.1130  141.6980 C   0  0  1  0  0  3  0  0  0  0  0  0
  183.3630  179.4170  141.0680 N   0  0  0  0  0  0  0  0  0  0  0  0
  181.9280  179.1510  141.0910 C   0  0  0  0  0  2  0  0  0  0  0  0
  183.8300  179.3860  139.6760 C   0  0  1  0  0  3  0  0  0  0  0  0
  182.2210  180.4210  138.3390 C   0  0  0  0  0  1  0  0  0  0  0  0
  183.4840  180.6390  139.0230 N   0  0  0  0  0  2  0  0  0  0  0  0
  185.2780  179.2330  139.6610 N   0  0  0  0  0  2  0  0  0  0  0  0
  185.6060  178.5590  138.4160 C   0  0  0  0  0  2  0  0  0  0  0  0
  184.7000  177.3880  138.2270 C   0  0  0  0  0  3  0  0  0  0  0  0
  184.9030  176.5340  137.2180 C   0  0  0  0  0  3  0  0  0  0  0  0
  184.0230  175.3390  136.9840 C   0  0  1  0  0  0  0  0  0  0  0  0
  183.1240  175.1100  138.1890 C   0  0  0  0  0  1  0  0  0  0  0  0
  183.2070  175.5590  135.7870 N   0  0  0  0  0  1  0  0  0  0  0  0
  184.9200  174.1180  136.7660 C   0  0  0  0  0  2  0  0  0  0  0  0
  184.9450  173.2590  137.9270 N   0  0  0  0  0  1  0  0  0  0  0  0
  1 10  1  0  0  0  0
  2 10  1  0  0  0  0
  3  9  2  0  0  0  0
  3  6  1  0  0  0  0
  4 13  1  6  0  0  0
  4  1  1  0  0  0  0
  5  4  1  0  0  0  0
  6  5  1  0  0  0  0
  7  5  2  0  0  0  0
  7  2  1  0  0  0  0
  8  9  1  0  0  0  0
  9  7  1  0  0  0  0
 11 28  1  0  0  0  0
 11 12  2  0  0  0  0
 12 13  2  0  0  0  0
 13 14  1  0  0  0  0
 15 17  1  0  0  0  0
 16 17  2  0  0  0  0
 17 18  1  0  0  0  0
 18 11  1  0  0  0  0
 19 23  1  0  0  0  0
 20 21  1  0  0  0  0
 21 15  1  1  0  0  0
 22 19  1  0  0  0  0
 22 20  1  0  0  0  0
 23 21  1  0  0  0  0
 24 25  1  0  0  0  0
 25 19  1  0  0  0  0
 27 28  2  0  0  0  0
 28 26  1  0  0  0  0
 30 29  1  0  0  0  0
 30  8  1  1  0  0  0
 31 32  1  0  0  0  0
 31 30  1  0  0  0  0
 32 29  1  0  0  0  0
 33 35  1  1  0  0  0
 33 31  1  0  0  0  0
 34 35  1  0  0  0  0
 36 33  1  0  0  0  0
 37 36  1  0  0  0  0
 38 37  1  0  0  0  0
 39 38  2  0  0  0  0
 40 39  1  0  0  0  0
 40 41  1  1  0  0  0
 42 40  1  0  0  0  0
 43 40  1  0  0  0  0
 43 44  1  0  0  0  0
M  END
>  <MODEL>
7

>  <REMARK>
 VINA RESULT:      -5.6      3.476      7.475
  Name = 
  13 active torsions:
  status: ('A' for Active; 'I' for Inactive)
    1  A    between atoms: C_1  and  C_9
    2  A    between atoms: N_2  and  C_24
    3  A    between atoms: CA_4  and  N_41
    4  A    between atoms: CA_4  and  C_43
    5  A    between atoms: C_9  and  N_29
    6  A    between atoms: C_11  and  C_31
    7  A    between atoms: C_14  and  C_17
    8  A    between atoms: C_15  and  C_35
    9  A    between atoms: C_16  and  C_31
   10  A    between atoms: N_18  and  C_23
   11  A    between atoms: N_21  and  C_22
   12  A    between atoms: C_22  and  N_29
   13  A    between atoms: C_22  and  N_36
                            x       y       z     vdW  Elec       q    Type
                         _______ _______ _______ _____ _____    ______ ____

>  <TORSDO>
F 13

$$$$
=
 OpenBabel11062416153D

 44 47  0  0  1  0  0  0  0  0999 V2000
  189.2640  177.9650  148.0790 N   0  0  0  0  0  2  0  0  0  0  0  0
  186.8500  178.3410  147.7070 C   0  0  0  0  0  2  0  0  0  0  0  0
  186.9980  177.4770  143.9560 C   0  0  0  0  0  3  0  0  0  0  0  0
  189.3070  176.9630  147.0050 C   0  0  1  0  0  3  0  0  0  0  0  0
  188.2800  177.2860  145.9620 C   0  0  0  0  0  0  0  0  0  0  0  0
  188.3330  176.9480  144.5040 C   0  0  0  0  0  3  0  0  0  0  0  0
  187.1190  177.8040  146.3300 C   0  0  0  0  0  0  0  0  0  0  0  0
  184.9620  178.2090  145.2630 C   0  0  0  0  0  3  0  0  0  0  0  0
  186.2570  177.9150  145.1810 C   0  0  0  0  0  0  0  0  0  0  0  0
  187.9460  177.8840  148.6960 C   0  0  0  0  0  2  0  0  0  0  0  0
  191.2560  177.8160  144.1740 C   0  0  0  0  0  0  0  0  0  0  0  0
  190.9920  177.2760  145.3350 C   0  0  0  0  0  0  0  0  0  0  0  0
  190.6970  176.7530  146.4890 C   0  0  0  0  0  0  0  0  0  0  0  0
  191.5290  175.7240  147.0210 N   0  0  0  0  0  1  0  0  0  0  0  0
  190.4250  176.4030  140.7030 N   0  0  0  0  0  2  0  0  0  0  0  0
  190.0010  178.5710  141.5690 N   0  0  0  0  0  2  0  0  0  0  0  0
  190.4780  177.3790  141.7550 C   0  0  0  0  0  0  0  0  0  0  0  0
  191.1870  177.0490  142.9600 N   0  0  0  0  0  2  0  0  0  0  0  0
  188.5980  175.9810  137.5710 N   0  0  0  0  0  0  0  0  0  0  0  0
  190.8970  175.7900  138.3670 C   0  0  0  0  0  2  0  0  0  0  0  0
  190.1410  176.6900  139.2940 C   0  0  1  0  0  3  0  0  0  0  0  0
  189.9500  175.5630  137.1930 C   0  0  0  0  0  2  0  0  0  0  0  0
  188.6780  176.4740  138.9460 C   0  0  0  0  0  2  0  0  0  0  0  0
  187.1480  177.9340  137.3860 C   0  0  0  0  0  1  0  0  0  0  0  0
  188.2460  177.1090  136.7220 C   0  0  0  0  0  2  0  0  0  0  0  0
  190.9800  180.2650  143.9040 O   0  0  0  0  0  0  0  0  0  0  0  0
  193.0440  179.3700  144.2990 O   0  0  0  0  0  1  0  0  0  0  0  0
  191.8100  179.1790  144.1280 C   0  0  0  0  0  0  0  0  0  0  0  0
  182.6060  178.6770  144.5220 C   0  0  0  0  0  2  0  0  0  0  0  0
  183.9990  178.2550  144.1000 C   0  0  1  0  0  3  0  0  0  0  0  0
  184.2330  179.4900  143.3480 N   0  0  0  0  0  0  0  0  0  0  0  0
  182.8830  179.9150  143.7050 C   0  0  0  0  0  2  0  0  0  0  0  0
  184.2750  179.2020  141.9080 C   0  0  1  0  0  3  0  0  0  0  0  0
  186.3590  178.6250  141.0290 C   0  0  0  0  0  1  0  0  0  0  0  0
  185.4980  179.7520  141.3430 N   0  0  0  0  0  2  0  0  0  0  0  0
  184.2730  177.7590  141.7090 N   0  0  0  0  0  2  0  0  0  0  0  0
  183.3310  177.4960  140.6340 C   0  0  0  0  0  2  0  0  0  0  0  0
  182.4450  178.6800  140.4430 C   0  0  0  0  0  3  0  0  0  0  0  0
  182.0280  179.0200  139.2190 C   0  0  0  0  0  3  0  0  0  0  0  0
  181.1320  180.2010  138.9700 C   0  0  1  0  0  0  0  0  0  0  0  0
  180.2410  180.4420  140.1790 C   0  0  0  0  0  1  0  0  0  0  0  0
  181.9500  181.3890  138.7080 N   0  0  0  0  0  1  0  0  0  0  0  0
  180.2720  179.9010  137.7420 C   0  0  0  0  0  2  0  0  0  0  0  0
  181.0790  179.5660  136.5910 N   0  0  0  0  0  1  0  0  0  0  0  0
  1 10  1  0  0  0  0
  2 10  1  0  0  0  0
  3  6  2  0  0  0  0
  3  9  1  0  0  0  0
  4 13  1  6  0  0  0
  4  1  1  0  0  0  0
  5  7  2  0  0  0  0
  5  4  1  0  0  0  0
  6  5  1  0  0  0  0
  7  2  1  0  0  0  0
  9  8  2  0  0  0  0
  9  7  1  0  0  0  0
 11 12  2  0  0  0  0
 12 13  2  0  0  0  0
 13 14  1  0  0  0  0
 15 17  1  0  0  0  0
 16 17  2  0  0  0  0
 17 18  1  0  0  0  0
 18 11  1  0  0  0  0
 19 23  1  0  0  0  0
 20 21  1  0  0  0  0
 21 15  1  1  0  0  0
 22 19  1  0  0  0  0
 22 20  1  0  0  0  0
 23 21  1  0  0  0  0
 25 24  1  0  0  0  0
 25 19  1  0  0  0  0
 26 28  2  0  0  0  0
 28 11  1  0  0  0  0
 28 27  1  0  0  0  0
 30 29  1  0  0  0  0
 30  8  1  1  0  0  0
 31 32  1  0  0  0  0
 31 30  1  0  0  0  0
 32 29  1  0  0  0  0
 33 35  1  1  0  0  0
 33 31  1  0  0  0  0
 34 35  1  0  0  0  0
 36 33  1  0  0  0  0
 37 36  1  0  0  0  0
 38 37  1  0  0  0  0
 39 38  2  0  0  0  0
 40 39  1  0  0  0  0
 40 41  1  1  0  0  0
 42 40  1  0  0  0  0
 43 40  1  0  0  0  0
 44 43  1  0  0  0  0
M  END
>  <MODEL>
8

>  <REMARK>
 VINA RESULT:      -5.6      3.941      7.888
  Name = 
  13 active torsions:
  status: ('A' for Active; 'I' for Inactive)
    1  A    between atoms: C_1  and  C_9
    2  A    between atoms: N_2  and  C_24
    3  A    between atoms: CA_4  and  N_41
    4  A    between atoms: CA_4  and  C_43
    5  A    between atoms: C_9  and  N_29
    6  A    between atoms: C_11  and  C_31
    7  A    between atoms: C_14  and  C_17
    8  A    between atoms: C_15  and  C_35
    9  A    between atoms: C_16  and  C_31
   10  A    between atoms: N_18  and  C_23
   11  A    between atoms: N_21  and  C_22
   12  A    between atoms: C_22  and  N_29
   13  A    between atoms: C_22  and  N_36
                            x       y       z     vdW  Elec       q    Type
                         _______ _______ _______ _____ _____    ______ ____

>  <TORSDO>
F 13

$$$$
=
 OpenBabel11062416153D

 44 47  0  0  1  0  0  0  0  0999 V2000
  182.1600  178.4560  141.2230 N   0  0  0  0  0  2  0  0  0  0  0  0
  184.6060  178.4680  140.8710 C   0  0  0  0  0  2  0  0  0  0  0  0
  184.3670  177.5180  137.1460 C   0  0  0  0  0  3  0  0  0  0  0  0
  181.9230  178.8400  139.8240 C   0  0  1  0  0  3  0  0  0  0  0  0
  183.0230  178.3090  138.9540 C   0  0  0  0  0  0  0  0  0  0  0  0
  182.9340  177.9430  137.5060 C   0  0  0  0  0  3  0  0  0  0  0  0
  184.2610  178.2650  139.4230 C   0  0  0  0  0  0  0  0  0  0  0  0
  186.4810  177.8890  138.4810 C   0  0  0  0  0  3  0  0  0  0  0  0
  185.1540  177.8370  138.3780 C   0  0  0  0  0  0  0  0  0  0  0  0
  183.4110  179.0770  141.6380 C   0  0  0  0  0  2  0  0  0  0  0  0
  179.8970  175.9730  139.3590 C   0  0  0  0  0  0  0  0  0  0  0  0
  180.2020  177.2440  139.3620 C   0  0  0  0  0  0  0  0  0  0  0  0
  180.5350  178.5020  139.3760 C   0  0  0  0  0  0  0  0  0  0  0  0
  179.7540  179.4390  138.6390 N   0  0  0  0  0  1  0  0  0  0  0  0
  181.0320  173.9850  136.2790 N   0  0  0  0  0  2  0  0  0  0  0  0
  182.2760  174.5770  138.2110 N   0  0  0  0  0  2  0  0  0  0  0  0
  181.1540  174.6210  137.5590 C   0  0  0  0  0  0  0  0  0  0  0  0
  179.9780  175.1870  138.1590 N   0  0  0  0  0  2  0  0  0  0  0  0
  183.5140  171.3190  136.5100 N   0  0  0  0  0  0  0  0  0  0  0  0
  183.3570  173.5700  135.5850 C   0  0  0  0  0  2  0  0  0  0  0  0
  181.9750  173.0110  135.7230 C   0  0  1  0  0  3  0  0  0  0  0  0
  184.2810  172.3930  135.8750 C   0  0  0  0  0  2  0  0  0  0  0  0
  182.1330  171.7890  136.6130 C   0  0  0  0  0  2  0  0  0  0  0  0
  184.9610  169.8100  135.2520 C   0  0  0  0  0  1  0  0  0  0  0  0
  183.5230  170.1870  135.5940 C   0  0  0  0  0  2  0  0  0  0  0  0
  178.9940  174.0290  140.6060 O   0  0  0  0  0  0  0  0  0  0  0  0
  179.0330  176.1010  141.5650 O   0  0  0  0  0  1  0  0  0  0  0  0
  179.2880  175.3820  140.5620 C   0  0  0  0  0  0  0  0  0  0  0  0
  187.6410  178.6570  136.3880 C   0  0  0  0  0  2  0  0  0  0  0  0
  187.4590  177.5330  137.3880 C   0  0  1  0  0  3  0  0  0  0  0  0
  188.8190  177.6710  137.9130 N   0  0  0  0  0  0  0  0  0  0  0  0
  189.0430  178.7350  136.9410 C   0  0  0  0  0  2  0  0  0  0  0  0
  189.6250  176.5030  137.5350 C   0  0  1  0  0  3  0  0  0  0  0  0
  190.6860  176.1080  135.4930 C   0  0  0  0  0  1  0  0  0  0  0  0
  190.7280  176.9340  136.6870 N   0  0  0  0  0  2  0  0  0  0  0  0
  190.1700  175.8890  138.7370 N   0  0  0  0  0  2  0  0  0  0  0  0
  190.7130  176.9710  139.5410 C   0  0  0  0  0  2  0  0  0  0  0  0
  190.1670  176.8880  140.9270 C   0  0  0  0  0  3  0  0  0  0  0  0
  190.9650  177.0970  141.9800 C   0  0  0  0  0  3  0  0  0  0  0  0
  190.4660  177.0290  143.3960 C   0  0  1  0  0  0  0  0  0  0  0  0
  189.0890  176.3840  143.4320 C   0  0  0  0  0  1  0  0  0  0  0  0
  191.4040  176.2480  144.2080 N   0  0  0  0  0  1  0  0  0  0  0  0
  190.3870  178.4540  143.9460 C   0  0  0  0  0  2  0  0  0  0  0  0
  191.6840  179.0920  143.9670 N   0  0  0  0  0  1  0  0  0  0  0  0
  1 10  1  0  0  0  0
  2 10  1  0  0  0  0
  3  6  2  0  0  0  0
  3  9  1  0  0  0  0
  4 13  1  6  0  0  0
  4  1  1  0  0  0  0
  5  7  2  0  0  0  0
  5  4  1  0  0  0  0
  6  5  1  0  0  0  0
  7  2  1  0  0  0  0
  9  8  2  0  0  0  0
  9  7  1  0  0  0  0
 11 12  2  0  0  0  0
 11 28  1  0  0  0  0
 12 13  2  0  0  0  0
 14 13  1  0  0  0  0
 15 17  1  0  0  0  0
 17 18  1  0  0  0  0
 17 16  2  0  0  0  0
 18 11  1  0  0  0  0
 19 23  1  0  0  0  0
 20 21  1  0  0  0  0
 20 22  1  0  0  0  0
 21 15  1  1  0  0  0
 21 23  1  0  0  0  0
 22 19  1  0  0  0  0
 24 25  1  0  0  0  0
 25 19  1  0  0  0  0
 28 26  2  0  0  0  0
 28 27  1  0  0  0  0
 29 32  1  0  0  0  0
 29 30  1  0  0  0  0
 30 31  1  0  0  0  0
 30  8  1  1  0  0  0
 32 31  1  0  0  0  0
 33 35  1  6  0  0  0
 33 31  1  0  0  0  0
 33 36  1  0  0  0  0
 34 35  1  0  0  0  0
 36 37  1  0  0  0  0
 37 38  1  0  0  0  0
 38 39  2  0  0  0  0
 39 40  1  0  0  0  0
 40 41  1  1  0  0  0
 40 43  1  0  0  0  0
 40 42  1  0  0  0  0
 43 44  1  0  0  0  0
M  END
>  <MODEL>
9

>  <REMARK>
 VINA RESULT:      -5.3      2.667      5.262
  Name = 
  13 active torsions:
  status: ('A' for Active; 'I' for Inactive)
    1  A    between atoms: C_1  and  C_9
    2  A    between atoms: N_2  and  C_24
    3  A    between atoms: CA_4  and  N_41
    4  A    between atoms: CA_4  and  C_43
    5  A    between atoms: C_9  and  N_29
    6  A    between atoms: C_11  and  C_31
    7  A    between atoms: C_14  and  C_17
    8  A    between atoms: C_15  and  C_35
    9  A    between atoms: C_16  and  C_31
   10  A    between atoms: N_18  and  C_23
   11  A    between atoms: N_21  and  C_22
   12  A    between atoms: C_22  and  N_29
   13  A    between atoms: C_22  and  N_36
                            x       y       z     vdW  Elec       q    Type
                         _______ _______ _______ _____ _____    ______ ____

>  <TORSDO>
F 13

$$$$
