=
 OpenBabel11062416183D

 29 33  0  0  1  0  0  0  0  0999 V2000
  185.7990  178.6060  144.5480 C   0  0  1  0  0  3  0  0  0  0  0  0
  188.2510  178.0770  146.4770 C   0  0  0  0  0  2  0  0  0  0  0  0
  189.3910  177.3470  144.4480 N   0  0  2  0  0  0  0  0  0  0  0  0
  183.4240  178.7070  143.6210 N   0  0  0  0  0  0  0  0  0  0  0  0
  189.6750  176.2180  142.2810 C   0  0  0  0  0  2  0  0  0  0  0  0
  186.2560  177.2690  145.1280 C   0  0  0  0  0  2  0  0  0  0  0  0
  189.7170  176.0750  143.8080 C   0  0  0  0  0  2  0  0  0  0  0  0
  190.3670  178.4230  144.1740 C   0  0  2  0  0  3  0  0  0  0  0  0
  187.6320  178.0650  140.5550 O   0  0  0  0  0  0  0  0  0  0  0  0
  190.4960  178.6700  142.6650 C   0  0  2  0  0  3  0  0  0  0  0  0
  189.3060  177.1450  145.8860 C   0  0  0  0  0  2  0  0  0  0  0  0
  186.2060  178.6610  143.0960 C   0  0  0  0  0  0  0  0  0  0  0  0
  184.3150  178.7730  144.7400 C   0  0  0  0  0  0  0  0  0  0  0  0
  185.3010  178.6320  142.1100 C   0  0  0  0  0  3  0  0  0  0  0  0
  188.2700  178.1710  141.6380 C   0  0  0  0  0  0  0  0  0  0  0  0
  183.8590  178.6330  142.4010 C   0  0  0  0  0  3  0  0  0  0  0  0
  189.7040  177.6810  141.7550 C   0  0  2  0  0  0  0  0  0  0  0  0
  183.8510  178.9530  145.8960 O   0  0  0  0  0  0  0  0  0  0  0  0
  191.6390  178.0120  143.4260 C   0  0  0  0  0  2  0  0  0  0  0  0
  187.6090  178.6400  142.8190 N   0  0  0  0  0  2  0  0  0  0  0  0
  186.8670  177.4310  146.5150 C   0  0  0  0  0  2  0  0  0  0  0  0
  190.4120  177.7150  140.3900 C   0  0  0  0  0  2  0  0  0  0  0  0
  190.2510  176.4370  139.5690 C   0  0  0  0  0  2  0  0  0  0  0  0
  189.6080  178.2470  137.9900 C   0  0  0  0  0  2  0  0  0  0  0  0
  190.0210  176.7740  138.1060 C   0  0  0  0  0  3  0  0  0  0  0  0
  188.8210  178.4990  136.7080 C   0  0  0  0  0  2  0  0  0  0  0  0
  187.5180  177.6890  136.6830 C   0  0  0  0  0  2  0  0  0  0  0  0
  187.5890  176.3850  137.4890 C   0  0  0  0  0  2  0  0  0  0  0  0
  189.0010  175.8050  137.4790 C   0  0  0  0  0  2  0  0  0  0  0  0
  1 13  1  0  0  0  0
  1  6  1  6  0  0  0
  2 21  1  0  0  0  0
  3  7  1  6  0  0  0
  3 11  1  0  0  0  0
  4 13  1  0  0  0  0
  5  7  1  0  0  0  0
  6 21  1  0  0  0  0
  8 19  1  6  0  0  0
  8  3  1  0  0  0  0
  9 15  2  0  0  0  0
 10 19  1  6  0  0  0
 10  8  1  0  0  0  0
 11  2  1  0  0  0  0
 12  1  1  0  0  0  0
 13 18  2  0  0  0  0
 14 16  1  0  0  0  0
 14 12  2  0  0  0  0
 15 17  1  0  0  0  0
 15 20  1  0  0  0  0
 16  4  2  0  0  0  0
 17 22  1  6  0  0  0
 17  5  1  0  0  0  0
 17 10  1  0  0  0  0
 20 12  1  0  0  0  0
 23 22  1  0  0  0  0
 24 25  1  0  0  0  0
 25 23  1  0  0  0  0
 26 24  1  0  0  0  0
 27 26  1  0  0  0  0
 27 28  1  0  0  0  0
 29 28  1  0  0  0  0
 29 25  1  0  0  0  0
M  END
>  <MODEL>
1

>  <REMARK>
 VINA RESULT:      -8.5      0.000      0.000
  Name = 
  3 active torsions:
  status: ('A' for Active; 'I' for Inactive)
    1  A    between atoms: C_7  and  C_11
    2  A    between atoms: C_11  and  C_28
    3  A    between atoms: C_23  and  C_28
                            x       y       z     vdW  Elec       q    Type
                         _______ _______ _______ _____ _____    ______ ____

>  <TORSDO>
F 3

$$$$
=
 OpenBabel11062416183D

 29 33  0  0  1  0  0  0  0  0999 V2000
  185.7190  178.6150  144.3680 C   0  0  1  0  0  3  0  0  0  0  0  0
  188.0600  178.1330  146.4410 C   0  0  0  0  0  2  0  0  0  0  0  0
  189.3190  177.3840  144.4920 N   0  0  2  0  0  0  0  0  0  0  0  0
  183.3990  178.6840  143.3060 N   0  0  0  0  0  0  0  0  0  0  0  0
  189.7350  176.2260  142.3620 C   0  0  0  0  0  2  0  0  0  0  0  0
  186.1520  177.2910  144.9930 C   0  0  0  0  0  2  0  0  0  0  0  0
  189.6900  176.1050  143.8900 C   0  0  0  0  0  2  0  0  0  0  0  0
  190.3020  178.4630  144.2580 C   0  0  2  0  0  3  0  0  0  0  0  0
  187.7810  178.0320  140.4940 O   0  0  0  0  0  0  0  0  0  0  0  0
  190.5150  178.6890  142.7560 C   0  0  2  0  0  3  0  0  0  0  0  0
  189.1530  177.2010  145.9260 C   0  0  0  0  0  2  0  0  0  0  0  0
  186.2080  178.6530  142.9410 C   0  0  0  0  0  0  0  0  0  0  0  0
  184.2250  178.7730  144.4720 C   0  0  0  0  0  0  0  0  0  0  0  0
  185.3610  178.6020  141.9050 C   0  0  0  0  0  3  0  0  0  0  0  0
  188.3550  178.1590  141.6100 C   0  0  0  0  0  0  0  0  0  0  0  0
  183.9050  178.5960  142.1140 C   0  0  0  0  0  3  0  0  0  0  0  0
  189.7830  177.6810  141.8170 C   0  0  2  0  0  0  0  0  0  0  0  0
  183.6950  178.9660  145.5970 O   0  0  0  0  0  0  0  0  0  0  0  0
  191.6180  178.0520  143.5900 C   0  0  0  0  0  2  0  0  0  0  0  0
  187.6240  178.6390  142.7450 N   0  0  0  0  0  2  0  0  0  0  0  0
  186.6810  177.4770  146.4100 C   0  0  0  0  0  2  0  0  0  0  0  0
  190.5680  177.7010  140.4940 C   0  0  0  0  0  2  0  0  0  0  0  0
  190.6520  176.3460  139.7950 C   0  0  0  0  0  2  0  0  0  0  0  0
  189.7510  177.2930  137.6800 C   0  0  0  0  0  2  0  0  0  0  0  0
  190.9230  176.5310  138.3120 C   0  0  0  0  0  3  0  0  0  0  0  0
  189.6560  177.0140  136.1830 C   0  0  0  0  0  2  0  0  0  0  0  0
  189.3950  175.5270  135.9070 C   0  0  0  0  0  2  0  0  0  0  0  0
  189.9460  174.5940  136.9940 C   0  0  0  0  0  2  0  0  0  0  0  0
  191.2030  175.1750  137.6370 C   0  0  0  0  0  2  0  0  0  0  0  0
  1 13  1  0  0  0  0
  1  6  1  6  0  0  0
  3  7  1  6  0  0  0
  3 11  1  0  0  0  0
  4 13  1  0  0  0  0
  5  7  1  0  0  0  0
  6 21  1  0  0  0  0
  8 19  1  1  0  0  0
  8  3  1  0  0  0  0
  9 15  2  0  0  0  0
 10 19  1  1  0  0  0
 10  8  1  0  0  0  0
 11  2  1  0  0  0  0
 12  1  1  0  0  0  0
 13 18  2  0  0  0  0
 14 16  1  0  0  0  0
 14 12  2  0  0  0  0
 15 17  1  0  0  0  0
 15 20  1  0  0  0  0
 16  4  2  0  0  0  0
 17 22  1  6  0  0  0
 17  5  1  0  0  0  0
 17 10  1  0  0  0  0
 20 12  1  0  0  0  0
 21  2  1  0  0  0  0
 23 22  1  0  0  0  0
 24 25  1  0  0  0  0
 25 23  1  0  0  0  0
 26 24  1  0  0  0  0
 27 26  1  0  0  0  0
 27 28  1  0  0  0  0
 28 29  1  0  0  0  0
 29 25  1  0  0  0  0
M  END
>  <MODEL>
2

>  <REMARK>
 VINA RESULT:      -8.3      0.813      1.004
  Name = 
  3 active torsions:
  status: ('A' for Active; 'I' for Inactive)
    1  A    between atoms: C_7  and  C_11
    2  A    between atoms: C_11  and  C_28
    3  A    between atoms: C_23  and  C_28
                            x       y       z     vdW  Elec       q    Type
                         _______ _______ _______ _____ _____    ______ ____

>  <TORSDO>
F 3

$$$$
=
 OpenBabel11062416183D

 29 33  0  0  1  0  0  0  0  0999 V2000
  188.4880  177.9430  146.7900 C   0  0  1  0  0  3  0  0  0  0  0  0
  191.5270  177.1010  146.5200 C   0  0  0  0  0  2  0  0  0  0  0  0
  190.9570  176.6650  144.1890 N   0  0  2  0  0  0  0  0  0  0  0  0
  186.1210  178.2110  147.7040 N   0  0  0  0  0  0  0  0  0  0  0  0
  189.6180  175.8660  142.2870 C   0  0  0  0  0  2  0  0  0  0  0  0
  189.0650  176.5290  146.7760 C   0  0  0  0  0  2  0  0  0  0  0  0
  190.6400  175.4980  143.3700 C   0  0  0  0  0  2  0  0  0  0  0  0
  191.6200  177.7570  143.4440 C   0  0  2  0  0  3  0  0  0  0  0  0
  187.1610  177.9750  142.5670 O   0  0  0  0  0  0  0  0  0  0  0  0
  190.7480  178.2220  142.2700 C   0  0  2  0  0  3  0  0  0  0  0  0
  191.8210  176.2530  145.2850 C   0  0  0  0  0  2  0  0  0  0  0  0
  187.8400  178.2070  145.4530 C   0  0  0  0  0  0  0  0  0  0  0  0
  187.5290  178.0990  147.9400 C   0  0  0  0  0  0  0  0  0  0  0  0
  186.5130  178.3360  145.3280 C   0  0  0  0  0  3  0  0  0  0  0  0
  188.3600  177.9110  142.9500 C   0  0  0  0  0  0  0  0  0  0  0  0
  185.6330  178.3130  146.5060 C   0  0  0  0  0  3  0  0  0  0  0  0
  189.4510  177.3900  142.0290 C   0  0  2  0  0  0  0  0  0  0  0  0
  187.9660  178.1130  149.1200 O   0  0  0  0  0  0  0  0  0  0  0  0
  192.0290  177.4440  142.0010 C   0  0  0  0  0  2  0  0  0  0  0  0
  188.6980  178.2090  144.3100 N   0  0  0  0  0  2  0  0  0  0  0  0
  190.4520  176.4760  147.4070 C   0  0  0  0  0  2  0  0  0  0  0  0
  189.0820  177.6160  140.5530 C   0  0  0  0  0  2  0  0  0  0  0  0
  189.7040  176.6070  139.5900 C   0  0  0  0  0  2  0  0  0  0  0  0
  189.2170  178.5770  138.1540 C   0  0  0  0  0  2  0  0  0  0  0  0
  189.5500  177.0790  138.1550 C   0  0  0  0  0  3  0  0  0  0  0  0
  188.4960  178.9810  136.8720 C   0  0  0  0  0  2  0  0  0  0  0  0
  187.1550  178.2470  136.7300 C   0  0  0  0  0  2  0  0  0  0  0  0
  187.1280  176.8770  137.4200 C   0  0  0  0  0  2  0  0  0  0  0  0
  188.5080  176.2240  137.4090 C   0  0  0  0  0  2  0  0  0  0  0  0
  1  6  1  6  0  0  0
  1 13  1  0  0  0  0
  2 21  1  0  0  0  0
  3  7  1  6  0  0  0
  3 11  1  0  0  0  0
  4 13  1  0  0  0  0
  5  7  1  0  0  0  0
  6 21  1  0  0  0  0
  8 19  1  6  0  0  0
  8  3  1  0  0  0  0
  9 15  2  0  0  0  0
 10 19  1  6  0  0  0
 10  8  1  0  0  0  0
 11  2  1  0  0  0  0
 12  1  1  0  0  0  0
 13 18  2  0  0  0  0
 14 12  2  0  0  0  0
 14 16  1  0  0  0  0
 15 20  1  0  0  0  0
 16  4  2  0  0  0  0
 17 22  1  6  0  0  0
 17 10  1  0  0  0  0
 17  5  1  0  0  0  0
 17 15  1  0  0  0  0
 20 12  1  0  0  0  0
 23 22  1  0  0  0  0
 24 25  1  0  0  0  0
 25 23  1  0  0  0  0
 26 24  1  0  0  0  0
 27 26  1  0  0  0  0
 27 28  1  0  0  0  0
 29 28  1  0  0  0  0
 29 25  1  0  0  0  0
M  END
>  <MODEL>
3

>  <REMARK>
 VINA RESULT:      -8.1      1.947      2.597
  Name = 
  3 active torsions:
  status: ('A' for Active; 'I' for Inactive)
    1  A    between atoms: C_7  and  C_11
    2  A    between atoms: C_11  and  C_28
    3  A    between atoms: C_23  and  C_28
                            x       y       z     vdW  Elec       q    Type
                         _______ _______ _______ _____ _____    ______ ____

>  <TORSDO>
F 3

$$$$
=
 OpenBabel11062416183D

 29 33  0  0  1  0  0  0  0  0999 V2000
  186.6820  177.5760  136.4700 C   0  0  1  0  0  3  0  0  0  0  0  0
  183.6400  177.2050  135.6820 C   0  0  0  0  0  2  0  0  0  0  0  0
  183.2290  177.4780  138.0690 N   0  0  2  0  0  0  0  0  0  0  0  0
  189.2140  177.2750  136.5630 N   0  0  0  0  0  0  0  0  0  0  0  0
  183.5860  177.1880  140.4860 C   0  0  0  0  0  2  0  0  0  0  0  0
  185.8330  176.3140  136.6020 C   0  0  0  0  0  2  0  0  0  0  0  0
  182.9600  176.6080  139.2110 C   0  0  0  0  0  2  0  0  0  0  0  0
  182.6100  178.8170  138.1800 C   0  0  2  0  0  3  0  0  0  0  0  0
  186.3920  178.8130  140.7110 O   0  0  0  0  0  0  0  0  0  0  0  0
  183.0900  179.5350  139.4490 C   0  0  2  0  0  3  0  0  0  0  0  0
  182.7420  176.8350  136.8590 C   0  0  0  0  0  2  0  0  0  0  0  0
  186.8550  178.1810  137.8420 C   0  0  0  0  0  0  0  0  0  0  0  0
  187.9960  177.2490  135.8110 C   0  0  0  0  0  0  0  0  0  0  0  0
  188.0430  178.1960  138.4590 C   0  0  0  0  0  3  0  0  0  0  0  0
  185.4260  178.7620  139.9020 C   0  0  0  0  0  0  0  0  0  0  0  0
  189.2540  177.7010  137.7880 C   0  0  0  0  0  3  0  0  0  0  0  0
  183.9910  178.6860  140.3970 C   0  0  2  0  0  0  0  0  0  0  0  0
  188.0220  176.9320  134.5940 O   0  0  0  0  0  0  0  0  0  0  0  0
  181.6560  179.0300  139.3590 C   0  0  0  0  0  2  0  0  0  0  0  0
  185.6710  178.6430  138.4960 N   0  0  0  0  0  2  0  0  0  0  0  0
  184.7880  176.2140  135.4970 C   0  0  0  0  0  2  0  0  0  0  0  0
  183.8530  179.3310  141.7870 C   0  0  0  0  0  2  0  0  0  0  0  0
  184.0740  178.3660  142.9500 C   0  0  0  0  0  2  0  0  0  0  0  0
  186.2430  177.6570  143.9380 C   0  0  0  0  0  2  0  0  0  0  0  0
  185.2510  178.8190  143.7970 C   0  0  0  0  0  3  0  0  0  0  0  0
  187.1030  177.8160  145.1880 C   0  0  0  0  0  2  0  0  0  0  0  0
  186.2460  177.8010  146.4620 C   0  0  0  0  0  2  0  0  0  0  0  0
  184.8160  178.3130  146.2460 C   0  0  0  0  0  2  0  0  0  0  0  0
  184.7660  179.3740  145.1490 C   0  0  0  0  0  2  0  0  0  0  0  0
  1  6  1  1  0  0  0
  1 12  1  0  0  0  0
  2 11  1  0  0  0  0
  3 11  1  6  0  0  0
  3  8  1  0  0  0  0
  3  7  1  0  0  0  0
  4 16  2  0  0  0  0
  7  5  1  0  0  0  0
  8 19  1  1  0  0  0
  8 10  1  0  0  0  0
 10 19  1  1  0  0  0
 10 17  1  0  0  0  0
 12 14  2  0  0  0  0
 12 20  1  0  0  0  0
 13  1  1  0  0  0  0
 13  4  1  0  0  0  0
 15 17  1  0  0  0  0
 15  9  2  0  0  0  0
 16 14  1  0  0  0  0
 17  5  1  0  0  0  0
 17 22  1  1  0  0  0
 18 13  2  0  0  0  0
 20 15  1  0  0  0  0
 21  2  1  0  0  0  0
 21  6  1  0  0  0  0
 22 23  1  0  0  0  0
 23 25  1  0  0  0  0
 24 26  1  0  0  0  0
 25 24  1  0  0  0  0
 25 29  1  0  0  0  0
 26 27  1  0  0  0  0
 28 27  1  0  0  0  0
 29 28  1  0  0  0  0
M  END
>  <MODEL>
4

>  <REMARK>
 VINA RESULT:      -7.3      3.153      8.423
  Name = 
  3 active torsions:
  status: ('A' for Active; 'I' for Inactive)
    1  A    between atoms: C_7  and  C_11
    2  A    between atoms: C_11  and  C_28
    3  A    between atoms: C_23  and  C_28
                            x       y       z     vdW  Elec       q    Type
                         _______ _______ _______ _____ _____    ______ ____

>  <TORSDO>
F 3

$$$$
=
 OpenBabel11062416183D

 29 33  0  0  1  0  0  0  0  0999 V2000
  188.7170  177.9300  142.5730 C   0  0  1  0  0  3  0  0  0  0  0  0
  191.2160  177.4000  140.7060 C   0  0  0  0  0  2  0  0  0  0  0  0
  189.5520  177.1400  138.9440 N   0  0  2  0  0  0  0  0  0  0  0  0
  187.1410  177.8920  144.5790 N   0  0  0  0  0  0  0  0  0  0  0  0
  187.4530  176.4090  137.8880 C   0  0  0  0  0  2  0  0  0  0  0  0
  189.2480  176.5830  142.0890 C   0  0  0  0  0  2  0  0  0  0  0  0
  188.8950  176.0330  138.2520 C   0  0  0  0  0  2  0  0  0  0  0  0
  189.7090  178.3550  138.1150 C   0  0  2  0  0  3  0  0  0  0  0  0
  185.4210  178.2490  139.6350 O   0  0  0  0  0  0  0  0  0  0  0  0
  188.3470  178.8500  137.6110 C   0  0  2  0  0  3  0  0  0  0  0  0
  190.8650  176.7050  139.3940 C   0  0  0  0  0  2  0  0  0  0  0  0
  187.4700  178.2620  141.7910 C   0  0  0  0  0  0  0  0  0  0  0  0
  188.4750  177.8860  144.0590 C   0  0  0  0  0  0  0  0  0  0  0  0
  186.2620  178.2800  142.3680 C   0  0  0  0  0  3  0  0  0  0  0  0
  186.6500  178.2580  139.3520 C   0  0  0  0  0  0  0  0  0  0  0  0
  186.1070  178.0640  143.8140 C   0  0  0  0  0  3  0  0  0  0  0  0
  187.1340  177.9290  137.9480 C   0  0  2  0  0  0  0  0  0  0  0  0
  189.4520  177.8260  144.8500 O   0  0  0  0  0  0  0  0  0  0  0  0
  189.3340  178.2210  136.6360 C   0  0  0  0  0  2  0  0  0  0  0  0
  187.6250  178.4520  140.3830 N   0  0  0  0  0  2  0  0  0  0  0  0
  190.7640  176.5950  141.9240 C   0  0  0  0  0  2  0  0  0  0  0  0
  186.0570  178.2630  136.9020 C   0  0  0  0  0  2  0  0  0  0  0  0
  185.8380  177.1680  135.8590 C   0  0  0  0  0  2  0  0  0  0  0  0
  183.6170  177.5130  136.9220 C   0  0  0  0  0  2  0  0  0  0  0  0
  184.3950  176.6960  135.8820 C   0  0  0  0  0  3  0  0  0  0  0  0
  182.3890  176.7530  137.4150 C   0  0  0  0  0  2  0  0  0  0  0  0
  182.7850  175.4440  138.1110 C   0  0  0  0  0  2  0  0  0  0  0  0
  184.1030  174.8490  137.5990 C   0  0  0  0  0  2  0  0  0  0  0  0
  184.3230  175.1770  136.1240 C   0  0  0  0  0  2  0  0  0  0  0  0
  1  6  1  6  0  0  0
  1 13  1  0  0  0  0
  2 21  1  0  0  0  0
  3  7  1  6  0  0  0
  3 11  1  0  0  0  0
  5 17  1  0  0  0  0
  5  7  1  0  0  0  0
  8 19  1  6  0  0  0
  8  3  1  0  0  0  0
 10 19  1  6  0  0  0
 10 17  1  0  0  0  0
 10  8  1  0  0  0  0
 11  2  1  0  0  0  0
 12 14  2  0  0  0  0
 12  1  1  0  0  0  0
 13  4  1  0  0  0  0
 13 18  2  0  0  0  0
 14 16  1  0  0  0  0
 15  9  2  0  0  0  0
 15 20  1  0  0  0  0
 16  4  2  0  0  0  0
 17 22  1  6  0  0  0
 17 15  1  0  0  0  0
 20 12  1  0  0  0  0
 21  6  1  0  0  0  0
 23 25  1  0  0  0  0
 23 22  1  0  0  0  0
 24 26  1  0  0  0  0
 25 29  1  0  0  0  0
 25 24  1  0  0  0  0
 26 27  1  0  0  0  0
 28 27  1  0  0  0  0
 29 28  1  0  0  0  0
M  END
>  <MODEL>
5

>  <REMARK>
 VINA RESULT:      -6.7      2.586      5.030
  Name = 
  3 active torsions:
  status: ('A' for Active; 'I' for Inactive)
    1  A    between atoms: C_7  and  C_11
    2  A    between atoms: C_11  and  C_28
    3  A    between atoms: C_23  and  C_28
                            x       y       z     vdW  Elec       q    Type
                         _______ _______ _______ _____ _____    ______ ____

>  <TORSDO>
F 3

$$$$
=
 OpenBabel11062416183D

 29 33  0  0  1  0  0  0  0  0999 V2000
  187.8470  177.6160  139.6290 C   0  0  1  0  0  3  0  0  0  0  0  0
  190.8150  176.5200  139.5830 C   0  0  0  0  0  2  0  0  0  0  0  0
  190.9280  177.3980  141.8550 N   0  0  2  0  0  0  0  0  0  0  0  0
  185.6620  178.7220  138.9130 N   0  0  0  0  0  0  0  0  0  0  0  0
  190.5710  178.9880  143.6980 C   0  0  0  0  0  2  0  0  0  0  0  0
  189.1300  178.4110  139.3980 C   0  0  0  0  0  2  0  0  0  0  0  0
  191.4580  178.5910  142.5120 C   0  0  0  0  0  2  0  0  0  0  0  0
  190.9320  176.1920  142.7100 C   0  0  2  0  0  3  0  0  0  0  0  0
  187.3370  178.7220  143.8850 O   0  0  0  0  0  0  0  0  0  0  0  0
  190.1220  176.4300  143.9910 C   0  0  2  0  0  3  0  0  0  0  0  0
  191.7110  177.1290  140.6590 C   0  0  0  0  0  2  0  0  0  0  0  0
  187.3550  177.8960  141.0280 C   0  0  0  0  0  0  0  0  0  0  0  0
  186.8280  177.9610  138.5760 C   0  0  0  0  0  0  0  0  0  0  0  0
  186.2300  178.5870  141.2520 C   0  0  0  0  0  3  0  0  0  0  0  0
  188.2870  178.0330  143.4230 C   0  0  0  0  0  0  0  0  0  0  0  0
  185.3740  179.0270  140.1400 C   0  0  0  0  0  3  0  0  0  0  0  0
  189.5920  177.8840  144.1870 C   0  0  2  0  0  0  0  0  0  0  0  0
  187.0100  177.5950  137.3860 O   0  0  0  0  0  0  0  0  0  0  0  0
  191.6390  176.3210  144.0630 C   0  0  0  0  0  2  0  0  0  0  0  0
  188.2010  177.4830  142.1030 N   0  0  0  0  0  2  0  0  0  0  0  0
  190.1910  177.5830  138.6820 C   0  0  0  0  0  2  0  0  0  0  0  0
  189.3660  178.0420  145.7010 C   0  0  0  0  0  2  0  0  0  0  0  0
  188.9560  176.7530  146.4100 C   0  0  0  0  0  2  0  0  0  0  0  0
  186.5880  177.4880  146.2180 C   0  0  0  0  0  2  0  0  0  0  0  0
  187.6630  176.9590  147.1780 C   0  0  0  0  0  3  0  0  0  0  0  0
  185.5020  178.2480  146.9720 C   0  0  0  0  0  2  0  0  0  0  0  0
  186.0740  179.4790  147.6880 C   0  0  0  0  0  2  0  0  0  0  0  0
  187.5490  179.3280  148.0840 C   0  0  0  0  0  2  0  0  0  0  0  0
  187.8930  177.8740  148.3960 C   0  0  0  0  0  2  0  0  0  0  0  0
  1  6  1  6  0  0  0
  1 12  1  0  0  0  0
  2 11  1  0  0  0  0
  3 11  1  6  0  0  0
  3  7  1  0  0  0  0
  3  8  1  0  0  0  0
  4 16  2  0  0  0  0
  5 17  1  0  0  0  0
  7  5  1  0  0  0  0
  8 10  1  0  0  0  0
  8 19  1  1  0  0  0
 10 19  1  1  0  0  0
 10 17  1  0  0  0  0
 12 14  2  0  0  0  0
 12 20  1  0  0  0  0
 13  4  1  0  0  0  0
 13  1  1  0  0  0  0
 15  9  2  0  0  0  0
 15 17  1  0  0  0  0
 16 14  1  0  0  0  0
 17 22  1  1  0  0  0
 18 13  2  0  0  0  0
 20 15  1  0  0  0  0
 21  6  1  0  0  0  0
 21  2  1  0  0  0  0
 22 23  1  0  0  0  0
 23 25  1  0  0  0  0
 24 26  1  0  0  0  0
 24 25  1  0  0  0  0
 25 29  1  0  0  0  0
 26 27  1  0  0  0  0
 27 28  1  0  0  0  0
 28 29  1  0  0  0  0
M  END
>  <MODEL>
6

>  <REMARK>
 VINA RESULT:      -6.4      2.086      6.455
  Name = 
  3 active torsions:
  status: ('A' for Active; 'I' for Inactive)
    1  A    between atoms: C_7  and  C_11
    2  A    between atoms: C_11  and  C_28
    3  A    between atoms: C_23  and  C_28
                            x       y       z     vdW  Elec       q    Type
                         _______ _______ _______ _____ _____    ______ ____

>  <TORSDO>
F 3

$$$$
=
 OpenBabel11062416183D

 29 33  0  0  1  0  0  0  0  0999 V2000
  188.5950  177.1270  145.6280 C   0  0  1  0  0  3  0  0  0  0  0  0
  185.8370  177.8310  147.0100 C   0  0  0  0  0  2  0  0  0  0  0  0
  185.3020  178.8810  144.8750 N   0  0  2  0  0  0  0  0  0  0  0  0
  191.0940  176.7710  145.2490 N   0  0  0  0  0  0  0  0  0  0  0  0
  185.6710  180.2170  142.8430 C   0  0  0  0  0  2  0  0  0  0  0  0
  188.1740  178.4610  146.2410 C   0  0  0  0  0  2  0  0  0  0  0  0
  185.2870  180.2360  144.3280 C   0  0  0  0  0  2  0  0  0  0  0  0
  184.2980  177.9800  144.2700 C   0  0  2  0  0  3  0  0  0  0  0  0
  187.8320  178.2530  141.4160 O   0  0  0  0  0  0  0  0  0  0  0  0
  184.5000  177.8820  142.7520 C   0  0  2  0  0  3  0  0  0  0  0  0
  185.0680  178.9490  146.3100 C   0  0  0  0  0  2  0  0  0  0  0  0
  188.5380  177.2510  144.1250 C   0  0  0  0  0  0  0  0  0  0  0  0
  189.9620  176.7370  146.1260 C   0  0  0  0  0  0  0  0  0  0  0  0
  189.6480  177.2360  143.3760 C   0  0  0  0  0  3  0  0  0  0  0  0
  186.9490  178.1470  142.3100 C   0  0  0  0  0  0  0  0  0  0  0  0
  190.9690  177.0070  143.9790 C   0  0  0  0  0  3  0  0  0  0  0  0
  185.5960  178.8230  142.1610 C   0  0  2  0  0  0  0  0  0  0  0  0
  190.1160  176.3970  147.3280 O   0  0  0  0  0  0  0  0  0  0  0  0
  183.2950  178.6270  143.3090 C   0  0  0  0  0  2  0  0  0  0  0  0
  187.2530  177.4920  143.5470 N   0  0  0  0  0  2  0  0  0  0  0  0
  187.2390  178.2700  147.4290 C   0  0  0  0  0  2  0  0  0  0  0  0
  185.2300  179.0030  140.6770 C   0  0  0  0  0  2  0  0  0  0  0  0
  184.4430  177.8380  140.0810 C   0  0  0  0  0  2  0  0  0  0  0  0
  183.4340  179.8850  139.0930 C   0  0  0  0  0  2  0  0  0  0  0  0
  183.3710  178.3520  139.1360 C   0  0  0  0  0  3  0  0  0  0  0  0
  182.0950  180.4800  138.6690 C   0  0  0  0  0  2  0  0  0  0  0  0
  180.9850  180.1280  139.6690 C   0  0  0  0  0  2  0  0  0  0  0  0
  181.2220  178.8050  140.4100 C   0  0  0  0  0  2  0  0  0  0  0  0
  181.9860  177.8110  139.5380 C   0  0  0  0  0  2  0  0  0  0  0  0
  1 13  1  0  0  0  0
  1  6  1  1  0  0  0
  2 21  1  0  0  0  0
  3  7  1  6  0  0  0
  3 11  1  0  0  0  0
  4 13  1  0  0  0  0
  5  7  1  0  0  0  0
  6 21  1  0  0  0  0
  8 19  1  6  0  0  0
  8  3  1  0  0  0  0
  9 15  2  0  0  0  0
 10 19  1  6  0  0  0
 10  8  1  0  0  0  0
 11  2  1  0  0  0  0
 12  1  1  0  0  0  0
 13 18  2  0  0  0  0
 14 16  1  0  0  0  0
 14 12  2  0  0  0  0
 15 20  1  0  0  0  0
 16  4  2  0  0  0  0
 17 22  1  6  0  0  0
 17 15  1  0  0  0  0
 17 10  1  0  0  0  0
 17  5  1  0  0  0  0
 20 12  1  0  0  0  0
 23 22  1  0  0  0  0
 24 25  1  0  0  0  0
 25 29  1  0  0  0  0
 25 23  1  0  0  0  0
 26 24  1  0  0  0  0
 26 27  1  0  0  0  0
 27 28  1  0  0  0  0
 29 28  1  0  0  0  0
M  END
>  <MODEL>
7

>  <REMARK>
 VINA RESULT:      -6.4      2.972      5.624
  Name = 
  3 active torsions:
  status: ('A' for Active; 'I' for Inactive)
    1  A    between atoms: C_7  and  C_11
    2  A    between atoms: C_11  and  C_28
    3  A    between atoms: C_23  and  C_28
                            x       y       z     vdW  Elec       q    Type
                         _______ _______ _______ _____ _____    ______ ____

>  <TORSDO>
F 3

$$$$
=
 OpenBabel11062416183D

 29 33  0  0  1  0  0  0  0  0999 V2000
  190.6200  177.5030  139.6590 C   0  0  1  0  0  3  0  0  0  0  0  0
  191.1110  176.5720  136.6750 C   0  0  0  0  0  2  0  0  0  0  0  0
  188.6790  176.5840  136.5160 N   0  0  2  0  0  0  0  0  0  0  0  0
  190.8250  177.7240  142.1930 N   0  0  0  0  0  0  0  0  0  0  0  0
  186.3520  176.2010  137.2190 C   0  0  0  0  0  2  0  0  0  0  0  0
  190.5190  176.0870  139.0970 C   0  0  0  0  0  2  0  0  0  0  0  0
  187.6030  175.5970  136.5670 C   0  0  0  0  0  2  0  0  0  0  0  0
  188.3760  177.7550  135.6660 C   0  0  2  0  0  3  0  0  0  0  0  0
  186.2740  178.3480  139.6580 O   0  0  0  0  0  0  0  0  0  0  0  0
  187.1030  178.4640  136.1490 C   0  0  2  0  0  3  0  0  0  0  0  0
  189.8860  175.9420  136.0200 C   0  0  0  0  0  2  0  0  0  0  0  0
  189.2230  178.0320  139.8780 C   0  0  0  0  0  0  0  0  0  0  0  0
  191.4420  177.5020  140.9200 C   0  0  0  0  0  0  0  0  0  0  0  0
  188.7370  178.2470  141.1070 C   0  0  0  0  0  3  0  0  0  0  0  0
  186.9770  178.1570  138.6290 C   0  0  0  0  0  0  0  0  0  0  0  0
  189.5770  178.0600  142.3000 C   0  0  0  0  0  3  0  0  0  0  0  0
  186.3410  177.7530  137.3090 C   0  0  2  0  0  0  0  0  0  0  0  0
  192.6810  177.2850  140.8580 O   0  0  0  0  0  0  0  0  0  0  0  0
  187.0870  177.6830  134.8420 C   0  0  0  0  0  2  0  0  0  0  0  0
  188.4060  178.1920  138.7160 N   0  0  0  0  0  2  0  0  0  0  0  0
  191.5100  175.8540  137.9640 C   0  0  0  0  0  2  0  0  0  0  0  0
  184.8890  178.2550  137.2190 C   0  0  0  0  0  2  0  0  0  0  0  0
  183.8470  177.1420  137.1340 C   0  0  0  0  0  2  0  0  0  0  0  0
  182.7000  178.9870  138.3450 C   0  0  0  0  0  2  0  0  0  0  0  0
  182.6150  177.5080  137.9440 C   0  0  0  0  0  3  0  0  0  0  0  0
  181.8620  179.2690  139.5880 C   0  0  0  0  0  2  0  0  0  0  0  0
  182.3680  178.4710  140.7970 C   0  0  0  0  0  2  0  0  0  0  0  0
  183.0540  177.1510  140.4190 C   0  0  0  0  0  2  0  0  0  0  0  0
  182.4520  176.5590  139.1460 C   0  0  0  0  0  2  0  0  0  0  0  0
  1  6  1  1  0  0  0
  1 12  1  0  0  0  0
  1 13  1  0  0  0  0
  2 21  1  0  0  0  0
  3 11  1  6  0  0  0
  3  7  1  0  0  0  0
  4 16  2  0  0  0  0
  5 17  1  0  0  0  0
  7  5  1  0  0  0  0
  8 19  1  6  0  0  0
  8 10  1  0  0  0  0
  8  3  1  0  0  0  0
 10 19  1  6  0  0  0
 10 17  1  0  0  0  0
 11  2  1  0  0  0  0
 12 14  2  0  0  0  0
 13  4  1  0  0  0  0
 14 16  1  0  0  0  0
 15 20  1  0  0  0  0
 15  9  2  0  0  0  0
 17 22  1  6  0  0  0
 17 15  1  0  0  0  0
 18 13  2  0  0  0  0
 20 12  1  0  0  0  0
 21  6  1  0  0  0  0
 23 22  1  0  0  0  0
 23 25  1  0  0  0  0
 24 26  1  0  0  0  0
 25 24  1  0  0  0  0
 25 29  1  0  0  0  0
 26 27  1  0  0  0  0
 28 27  1  0  0  0  0
 29 28  1  0  0  0  0
M  END
>  <MODEL>
8

>  <REMARK>
 VINA RESULT:      -6.3      3.184      7.236
  Name = 
  3 active torsions:
  status: ('A' for Active; 'I' for Inactive)
    1  A    between atoms: C_7  and  C_11
    2  A    between atoms: C_11  and  C_28
    3  A    between atoms: C_23  and  C_28
                            x       y       z     vdW  Elec       q    Type
                         _______ _______ _______ _____ _____    ______ ____

>  <TORSDO>
F 3

$$$$
=
 OpenBabel11062416183D

 29 33  0  0  1  0  0  0  0  0999 V2000
  183.6610  176.9220  136.8900 C   0  0  1  0  0  3  0  0  0  0  0  0
  185.7170  175.4220  135.0110 C   0  0  0  0  0  2  0  0  0  0  0  0
  187.3960  176.7550  136.1730 N   0  0  2  0  0  0  0  0  0  0  0  0
  181.5800  178.1500  137.7120 N   0  0  0  0  0  0  0  0  0  0  0  0
  188.3960  178.7480  137.2120 C   0  0  0  0  0  2  0  0  0  0  0  0
  184.3140  177.4510  135.6150 C   0  0  0  0  0  2  0  0  0  0  0  0
  188.1590  177.9730  135.9100 C   0  0  0  0  0  2  0  0  0  0  0  0
  188.1010  175.7810  137.0330 C   0  0  2  0  0  3  0  0  0  0  0  0
  186.3500  179.0050  139.7240 O   0  0  0  0  0  0  0  0  0  0  0  0
  188.4700  176.4120  138.3820 C   0  0  2  0  0  3  0  0  0  0  0  0
  187.0720  176.1170  134.9060 C   0  0  0  0  0  2  0  0  0  0  0  0
  184.3290  177.5750  138.0760 C   0  0  0  0  0  0  0  0  0  0  0  0
  182.1760  177.1720  136.8530 C   0  0  0  0  0  0  0  0  0  0  0  0
  183.6830  178.4540  138.8510 C   0  0  0  0  0  3  0  0  0  0  0  0
  186.7030  178.1000  138.9200 C   0  0  0  0  0  0  0  0  0  0  0  0
  182.2610  178.7580  138.6340 C   0  0  0  0  0  3  0  0  0  0  0  0
  188.1590  177.9350  138.5150 C   0  0  2  0  0  0  0  0  0  0  0  0
  181.4550  176.5290  136.0470 O   0  0  0  0  0  0  0  0  0  0  0  0
  189.5610  176.1010  137.3670 C   0  0  0  0  0  2  0  0  0  0  0  0
  185.7170  177.2900  138.2700 N   0  0  0  0  0  2  0  0  0  0  0  0
  184.5650  176.3400  134.6030 C   0  0  0  0  0  2  0  0  0  0  0  0
  189.1000  178.4550  139.6160 C   0  0  0  0  0  2  0  0  0  0  0  0
  189.2800  177.4950  140.7890 C   0  0  0  0  0  2  0  0  0  0  0  0
  190.2190  177.8930  143.0570 C   0  0  0  0  0  2  0  0  0  0  0  0
  189.0610  178.2200  142.1050 C   0  0  0  0  0  3  0  0  0  0  0  0
  189.8040  178.0780  144.5140 C   0  0  0  0  0  2  0  0  0  0  0  0
  188.6600  177.1300  144.8940 C   0  0  0  0  0  2  0  0  0  0  0  0
  187.7580  176.7490  143.7120 C   0  0  0  0  0  2  0  0  0  0  0  0
  187.6770  177.8800  142.6900 C   0  0  0  0  0  2  0  0  0  0  0  0
  1  6  1  6  0  0  0
  1 12  1  0  0  0  0
  3 11  1  6  0  0  0
  3  8  1  0  0  0  0
  4 16  2  0  0  0  0
  5 17  1  0  0  0  0
  7  3  1  0  0  0  0
  7  5  1  0  0  0  0
  8 19  1  6  0  0  0
  8 10  1  0  0  0  0
 10 19  1  6  0  0  0
 10 17  1  0  0  0  0
 11  2  1  0  0  0  0
 12 20  1  0  0  0  0
 12 14  2  0  0  0  0
 13  1  1  0  0  0  0
 13  4  1  0  0  0  0
 15  9  2  0  0  0  0
 16 14  1  0  0  0  0
 17 15  1  0  0  0  0
 17 22  1  1  0  0  0
 18 13  2  0  0  0  0
 20 15  1  0  0  0  0
 21  2  1  0  0  0  0
 21  6  1  0  0  0  0
 22 23  1  0  0  0  0
 23 25  1  0  0  0  0
 24 26  1  0  0  0  0
 25 29  1  0  0  0  0
 25 24  1  0  0  0  0
 26 27  1  0  0  0  0
 28 27  1  0  0  0  0
 29 28  1  0  0  0  0
M  END
>  <MODEL>
9

>  <REMARK>
 VINA RESULT:      -6.3      3.379      7.129
  Name = 
  3 active torsions:
  status: ('A' for Active; 'I' for Inactive)
    1  A    between atoms: C_7  and  C_11
    2  A    between atoms: C_11  and  C_28
    3  A    between atoms: C_23  and  C_28
                            x       y       z     vdW  Elec       q    Type
                         _______ _______ _______ _____ _____    ______ ____

>  <TORSDO>
F 3

$$$$
