=
 OpenBabel11062412253D

 37 40  0  0  1  0  0  0  0  0999 V2000
  189.1810  177.3190  142.5900 C   0  0  0  0  0  0  0  0  0  0  0  0
  190.2600  177.1330  143.2190 O   0  0  0  0  0  0  0  0  0  0  0  0
  188.2430  179.2930  140.7030 O   0  0  0  0  0  0  0  0  0  0  0  0
  189.1640  177.1970  141.1570 N   0  0  0  0  0  0  0  0  0  0  0  0
  188.3740  178.0900  140.3530 C   0  0  0  0  0  0  0  0  0  0  0  0
  186.7360  177.8130  142.6530 O   0  0  0  0  0  0  0  0  0  0  0  0
  183.3760  178.9950  143.2290 C   0  0  0  0  0  3  0  0  0  0  0  0
  184.3790  178.6380  145.4020 N   0  0  0  0  0  0  0  0  0  0  0  0
  187.9430  177.6140  143.3400 C   0  0  0  0  0  0  0  0  0  0  0  0
  184.3920  178.4230  142.5740 C   0  0  0  0  0  3  0  0  0  0  0  0
  187.9600  177.7060  144.6770 C   0  0  0  0  0  3  0  0  0  0  0  0
  183.3480  179.0190  144.7060 C   0  0  0  0  0  3  0  0  0  0  0  0
  185.5650  178.1560  144.7550 C   0  0  0  0  0  0  0  0  0  0  0  0
  186.7280  178.0530  145.4120 C   0  0  0  0  0  0  0  0  0  0  0  0
  185.4780  177.7010  143.3170 C   0  0  2  0  0  3  0  0  0  0  0  0
  186.8100  178.3730  146.7980 N   0  0  0  0  0  1  0  0  0  0  0  0
  190.1610  176.3600  140.4970 C   0  0  0  0  0  2  0  0  0  0  0  0
  190.9150  177.1640  139.4500 C   0  0  0  0  0  2  0  0  0  0  0  0
  191.0680  174.9510  138.3190 O   0  0  0  0  0  1  0  0  0  0  0  0
  191.1260  176.3350  138.2350 C   0  0  0  0  0  0  0  0  0  0  0  0
  191.3920  176.8870  137.1350 O   0  0  0  0  0  0  0  0  0  0  0  0
  187.7360  177.6580  139.1850 O   0  0  0  0  0  0  0  0  0  0  0  0
  186.5770  178.1830  137.0700 C   0  0  2  0  0  3  0  0  0  0  0  0
  187.8330  177.3670  136.8090 C   0  0  0  0  0  2  0  0  0  0  0  0
  187.8230  178.3600  137.9500 C   0  0  2  0  0  3  0  0  0  0  0  0
  182.1900  179.1580  139.6310 C   0  0  2  0  0  3  0  0  0  0  0  0
  185.5220  176.0850  137.5030 O   0  0  0  0  0  0  0  0  0  0  0  0
  183.4340  177.0550  139.0910 C   0  0  0  0  0  2  0  0  0  0  0  0
  183.2730  179.9980  138.9520 C   0  0  0  0  0  2  0  0  0  0  0  0
  184.4790  177.9090  138.5240 N   0  0  0  0  0  0  0  0  0  0  0  0
  185.4960  177.3330  137.6870 C   0  0  0  0  0  0  0  0  0  0  0  0
  182.0740  177.7500  139.0180 C   0  0  2  0  0  3  0  0  0  0  0  0
  184.6130  179.2720  139.0350 C   0  0  0  0  0  2  0  0  0  0  0  0
  180.4550  179.9820  141.0930 O   0  0  0  0  0  1  0  0  0  0  0  0
  180.8600  179.8970  139.7600 C   0  0  0  0  0  2  0  0  0  0  0  0
  181.5830  177.7570  137.5740 C   0  0  0  0  0  2  0  0  0  0  0  0
  180.3090  177.1950  137.5020 O   0  0  0  0  0  1  0  0  0  0  0  0
  1  2  2  0  0  0  0
  1  9  1  0  0  0  0
  4  1  1  0  0  0  0
  5  3  2  0  0  0  0
  5  4  1  0  0  0  0
  6 15  1  0  0  0  0
  6  9  1  0  0  0  0
  7 12  1  0  0  0  0
  9 11  2  0  0  0  0
 10  7  2  0  0  0  0
 11 14  1  0  0  0  0
 12  8  2  0  0  0  0
 13  8  1  0  0  0  0
 13 14  2  0  0  0  0
 14 16  1  0  0  0  0
 15 10  1  6  0  0  0
 15 13  1  0  0  0  0
 17  4  1  0  0  0  0
 18 17  1  0  0  0  0
 20 19  1  0  0  0  0
 20 18  1  0  0  0  0
 21 20  2  0  0  0  0
 22  5  1  0  0  0  0
 23 31  1  1  0  0  0
 23 25  1  0  0  0  0
 24 23  1  0  0  0  0
 24 25  1  0  0  0  0
 25 22  1  1  0  0  0
 26 35  1  6  0  0  0
 27 31  2  0  0  0  0
 29 33  1  0  0  0  0
 29 26  1  0  0  0  0
 30 33  1  0  0  0  0
 30 28  1  0  0  0  0
 31 30  1  0  0  0  0
 32 36  1  6  0  0  0
 32 28  1  0  0  0  0
 32 26  1  0  0  0  0
 35 34  1  0  0  0  0
 37 36  1  0  0  0  0
M  END
>  <MODEL>
1

>  <REMARK>
 VINA RESULT:      -7.2      0.000      0.000
  Name = 
  9 active torsions:
  status: ('A' for Active; 'I' for Inactive)
    1  A    between atoms: C_2  and  C_12
    2  A    between atoms: C_4  and  C_20
    3  A    between atoms: C_5  and  C_6
    4  A    between atoms: C_5  and  N_26
    5  A    between atoms: C_6  and  C_23
    6  A    between atoms: C_10  and  C_29
    7  A    between atoms: O_18  and  C_22
    8  A    between atoms: O_18  and  C_37
    9  A    between atoms: C_27  and  C_34
                            x       y       z     vdW  Elec       q    Type
                         _______ _______ _______ _____ _____    ______ ____

>  <TORSDO>
F 9

$$$$
=
 OpenBabel11062412253D

 37 40  0  0  1  0  0  0  0  0999 V2000
  190.1260  177.3290  141.9590 C   0  0  0  0  0  0  0  0  0  0  0  0
  191.2610  177.1400  141.4400 O   0  0  0  0  0  0  0  0  0  0  0  0
  188.3090  179.5680  142.1140 O   0  0  0  0  0  0  0  0  0  0  0  0
  188.9890  177.5720  141.1120 N   0  0  0  0  0  0  0  0  0  0  0  0
  187.9780  178.5230  141.4930 C   0  0  0  0  0  0  0  0  0  0  0  0
  188.7230  177.4840  144.0170 O   0  0  0  0  0  0  0  0  0  0  0  0
  187.2440  178.0410  147.2600 C   0  0  0  0  0  3  0  0  0  0  0  0
  189.4880  177.2210  147.6420 N   0  0  0  0  0  0  0  0  0  0  0  0
  189.9740  177.2510  143.4270 C   0  0  0  0  0  0  0  0  0  0  0  0
  187.2910  177.8020  145.9460 C   0  0  0  0  0  3  0  0  0  0  0  0
  191.0260  176.9700  144.2080 C   0  0  0  0  0  3  0  0  0  0  0  0
  188.3660  177.6510  148.1390 C   0  0  0  0  0  3  0  0  0  0  0  0
  189.6600  177.0860  146.2240 C   0  0  0  0  0  0  0  0  0  0  0  0
  190.8750  176.9470  145.6760 C   0  0  0  0  0  0  0  0  0  0  0  0
  188.4350  177.0400  145.3420 C   0  0  2  0  0  3  0  0  0  0  0  0
  192.0380  176.8780  146.4960 N   0  0  0  0  0  1  0  0  0  0  0  0
  188.9980  177.0750  139.7400 C   0  0  0  0  0  2  0  0  0  0  0  0
  189.1050  178.2320  138.7610 C   0  0  0  0  0  2  0  0  0  0  0  0
  187.0770  177.1350  137.8180 O   0  0  0  0  0  1  0  0  0  0  0  0
  187.9320  178.2290  137.8480 C   0  0  0  0  0  0  0  0  0  0  0  0
  187.7310  179.2030  137.0770 O   0  0  0  0  0  0  0  0  0  0  0  0
  186.6270  178.3160  141.1970 O   0  0  0  0  0  0  0  0  0  0  0  0
  184.2110  178.3570  141.6960 C   0  0  2  0  0  3  0  0  0  0  0  0
  184.9460  179.4120  142.5070 C   0  0  0  0  0  2  0  0  0  0  0  0
  185.6380  178.1030  142.1990 C   0  0  2  0  0  3  0  0  0  0  0  0
  181.5100  176.6710  137.6190 C   0  0  2  0  0  3  0  0  0  0  0  0
  184.7350  179.7820  139.8540 O   0  0  0  0  0  0  0  0  0  0  0  0
  183.3300  178.3660  137.8930 C   0  0  0  0  0  2  0  0  0  0  0  0
  181.5790  176.3250  139.1070 C   0  0  0  0  0  2  0  0  0  0  0  0
  183.4100  177.9430  139.2920 N   0  0  0  0  0  0  0  0  0  0  0  0
  184.1230  178.7510  140.2440 C   0  0  0  0  0  0  0  0  0  0  0  0
  181.9260  178.1270  137.3390 C   0  0  2  0  0  3  0  0  0  0  0  0
  182.9890  176.5830  139.6300 C   0  0  0  0  0  2  0  0  0  0  0  0
  179.9820  174.8830  137.0730 O   0  0  0  0  0  1  0  0  0  0  0  0
  180.1870  176.2610  136.9760 C   0  0  0  0  0  2  0  0  0  0  0  0
  180.9650  179.1540  137.9270 C   0  0  0  0  0  2  0  0  0  0  0  0
  181.5290  180.4280  137.8590 O   0  0  0  0  0  1  0  0  0  0  0  0
  1  9  1  0  0  0  0
  2  1  2  0  0  0  0
  4  5  1  0  0  0  0
  4  1  1  0  0  0  0
  5  3  2  0  0  0  0
  6 15  1  0  0  0  0
  7 12  1  0  0  0  0
  8 12  2  0  0  0  0
  9  6  1  0  0  0  0
  9 11  2  0  0  0  0
 10  7  2  0  0  0  0
 11 14  1  0  0  0  0
 13  8  1  0  0  0  0
 14 13  2  0  0  0  0
 14 16  1  0  0  0  0
 15 10  1  1  0  0  0
 15 13  1  0  0  0  0
 17  4  1  0  0  0  0
 18 17  1  0  0  0  0
 19 20  1  0  0  0  0
 20 18  1  0  0  0  0
 21 20  2  0  0  0  0
 22  5  1  0  0  0  0
 23 31  1  6  0  0  0
 23 25  1  0  0  0  0
 23 24  1  0  0  0  0
 25 22  1  6  0  0  0
 25 24  1  0  0  0  0
 26 35  1  1  0  0  0
 26 29  1  0  0  0  0
 27 31  2  0  0  0  0
 28 30  1  0  0  0  0
 29 33  1  0  0  0  0
 30 33  1  0  0  0  0
 30 31  1  0  0  0  0
 32 26  1  0  0  0  0
 32 28  1  0  0  0  0
 32 36  1  1  0  0  0
 35 34  1  0  0  0  0
 37 36  1  0  0  0  0
M  END
>  <MODEL>
2

>  <REMARK>
 VINA RESULT:      -7.1      2.181      3.858
  Name = 
  9 active torsions:
  status: ('A' for Active; 'I' for Inactive)
    1  A    between atoms: C_2  and  C_12
    2  A    between atoms: C_4  and  C_20
    3  A    between atoms: C_5  and  C_6
    4  A    between atoms: C_5  and  N_26
    5  A    between atoms: C_6  and  C_23
    6  A    between atoms: C_10  and  C_29
    7  A    between atoms: O_18  and  C_22
    8  A    between atoms: O_18  and  C_37
    9  A    between atoms: C_27  and  C_34
                            x       y       z     vdW  Elec       q    Type
                         _______ _______ _______ _____ _____    ______ ____

>  <TORSDO>
F 9

$$$$
=
 OpenBabel11062412253D

 37 40  0  0  1  0  0  0  0  0999 V2000
  190.2030  177.1110  141.5260 C   0  0  0  0  0  0  0  0  0  0  0  0
  191.4320  177.0300  141.8010 O   0  0  0  0  0  0  0  0  0  0  0  0
  188.5840  178.9290  139.9710 O   0  0  0  0  0  0  0  0  0  0  0  0
  189.7660  176.9250  140.1680 N   0  0  0  0  0  0  0  0  0  0  0  0
  188.7010  177.7240  139.6230 C   0  0  0  0  0  0  0  0  0  0  0  0
  187.8780  177.5730  142.3020 O   0  0  0  0  0  0  0  0  0  0  0  0
  184.8210  178.6840  143.8660 C   0  0  0  0  0  3  0  0  0  0  0  0
  186.3950  178.2200  145.6460 N   0  0  0  0  0  0  0  0  0  0  0  0
  189.2280  177.3510  142.6090 C   0  0  0  0  0  0  0  0  0  0  0  0
  185.6090  178.1600  142.9220 C   0  0  0  0  0  3  0  0  0  0  0  0
  189.6220  177.3700  143.8900 C   0  0  0  0  0  3  0  0  0  0  0  0
  185.2120  178.6270  145.2910 C   0  0  0  0  0  3  0  0  0  0  0  0
  187.3480  177.7880  144.6650 C   0  0  0  0  0  0  0  0  0  0  0  0
  188.6490  177.6620  144.9610 C   0  0  0  0  0  0  0  0  0  0  0  0
  186.8580  177.4110  143.2870 C   0  0  2  0  0  3  0  0  0  0  0  0
  189.1200  177.9080  146.2820 N   0  0  0  0  0  1  0  0  0  0  0  0
  190.5830  176.1320  139.2540 C   0  0  0  0  0  2  0  0  0  0  0  0
  191.3990  177.0430  138.3520 C   0  0  0  0  0  2  0  0  0  0  0  0
  193.2800  175.7320  137.3790 O   0  0  0  0  0  0  0  0  0  0  0  0
  192.8210  176.6080  138.3520 C   0  0  0  0  0  0  0  0  0  0  0  0
  193.6020  177.0090  139.2550 O   0  0  0  0  0  1  0  0  0  0  0  0
  187.7790  177.1970  138.7130 O   0  0  0  0  0  0  0  0  0  0  0  0
  187.0710  177.0340  136.3540 C   0  0  2  0  0  3  0  0  0  0  0  0
  188.3360  177.8670  136.4810 C   0  0  0  0  0  2  0  0  0  0  0  0
  187.3030  177.9220  137.5840 C   0  0  2  0  0  3  0  0  0  0  0  0
  184.1650  172.7990  136.9720 C   0  0  2  0  0  3  0  0  0  0  0  0
  188.5520  175.1690  136.5180 O   0  0  0  0  0  0  0  0  0  0  0  0
  186.6250  173.2310  137.1130 C   0  0  0  0  0  2  0  0  0  0  0  0
  183.9000  174.2800  136.6920 C   0  0  0  0  0  2  0  0  0  0  0  0
  186.3110  174.6470  136.9190 N   0  0  0  0  0  0  0  0  0  0  0  0
  187.3590  175.5720  136.5790 C   0  0  0  0  0  0  0  0  0  0  0  0
  185.5510  172.3510  136.4740 C   0  0  2  0  0  3  0  0  0  0  0  0
  184.9930  175.1280  137.3330 C   0  0  0  0  0  2  0  0  0  0  0  0
  183.2960  170.5540  136.7870 O   0  0  0  0  0  1  0  0  0  0  0  0
  183.0160  171.8970  136.5280 C   0  0  0  0  0  2  0  0  0  0  0  0
  185.6920  172.3950  134.9570 C   0  0  0  0  0  2  0  0  0  0  0  0
  187.0170  172.1550  134.5940 O   0  0  0  0  0  1  0  0  0  0  0  0
  1  2  2  0  0  0  0
  1  9  1  0  0  0  0
  4  1  1  0  0  0  0
  5  3  2  0  0  0  0
  5  4  1  0  0  0  0
  6  9  1  0  0  0  0
  6 15  1  0  0  0  0
  7 12  1  0  0  0  0
  9 11  2  0  0  0  0
 10  7  2  0  0  0  0
 11 14  1  0  0  0  0
 12  8  2  0  0  0  0
 13 14  2  0  0  0  0
 13  8  1  0  0  0  0
 14 16  1  0  0  0  0
 15 10  1  6  0  0  0
 15 13  1  0  0  0  0
 17  4  1  0  0  0  0
 18 20  1  0  0  0  0
 18 17  1  0  0  0  0
 19 20  2  0  0  0  0
 20 21  1  0  0  0  0
 22  5  1  0  0  0  0
 23 24  1  0  0  0  0
 23 31  1  1  0  0  0
 23 25  1  0  0  0  0
 24 25  1  0  0  0  0
 25 22  1  1  0  0  0
 26 35  1  6  0  0  0
 27 31  2  0  0  0  0
 29 26  1  0  0  0  0
 29 33  1  0  0  0  0
 30 28  1  0  0  0  0
 30 33  1  0  0  0  0
 31 30  1  0  0  0  0
 32 36  1  6  0  0  0
 32 26  1  0  0  0  0
 32 28  1  0  0  0  0
 35 34  1  0  0  0  0
 37 36  1  0  0  0  0
M  END
>  <MODEL>
3

>  <REMARK>
 VINA RESULT:      -7.0      2.953      4.083
  Name = 
  9 active torsions:
  status: ('A' for Active; 'I' for Inactive)
    1  A    between atoms: C_2  and  C_12
    2  A    between atoms: C_4  and  C_20
    3  A    between atoms: C_5  and  C_6
    4  A    between atoms: C_5  and  N_26
    5  A    between atoms: C_6  and  C_23
    6  A    between atoms: C_10  and  C_29
    7  A    between atoms: O_18  and  C_22
    8  A    between atoms: O_18  and  C_37
    9  A    between atoms: C_27  and  C_34
                            x       y       z     vdW  Elec       q    Type
                         _______ _______ _______ _____ _____    ______ ____

>  <TORSDO>
F 9

$$$$
=
 OpenBabel11062412253D

 37 40  0  0  1  0  0  0  0  0999 V2000
  190.4730  177.3320  142.2980 C   0  0  0  0  0  0  0  0  0  0  0  0
  191.6250  177.0830  142.7480 O   0  0  0  0  0  0  0  0  0  0  0  0
  187.8440  176.2100  142.7120 O   0  0  0  0  0  0  0  0  0  0  0  0
  189.4560  177.8300  143.1860 N   0  0  0  0  0  0  0  0  0  0  0  0
  188.0900  177.3960  143.0570 C   0  0  0  0  0  0  0  0  0  0  0  0
  189.1520  177.8610  140.2480 O   0  0  0  0  0  0  0  0  0  0  0  0
  187.2800  177.9400  137.1650 C   0  0  0  0  0  3  0  0  0  0  0  0
  189.2300  176.5620  136.7700 N   0  0  0  0  0  0  0  0  0  0  0  0
  190.1980  177.1520  140.8580 C   0  0  0  0  0  0  0  0  0  0  0  0
  187.7100  178.3490  138.3630 C   0  0  0  0  0  3  0  0  0  0  0  0
  190.9320  176.3050  140.1240 C   0  0  0  0  0  3  0  0  0  0  0  0
  188.1260  177.0780  136.3130 C   0  0  0  0  0  3  0  0  0  0  0  0
  189.6720  176.8370  138.1060 C   0  0  0  0  0  0  0  0  0  0  0  0
  190.6160  176.0930  138.6980 C   0  0  0  0  0  0  0  0  0  0  0  0
  189.1000  178.0310  138.8330 C   0  0  2  0  0  3  0  0  0  0  0  0
  191.2490  175.0280  137.9940 N   0  0  0  0  0  1  0  0  0  0  0  0
  189.8490  178.5510  144.3930 C   0  0  0  0  0  2  0  0  0  0  0  0
  189.3360  177.8290  145.6280 C   0  0  0  0  0  2  0  0  0  0  0  0
  191.7670  177.3520  145.8850 O   0  0  0  0  0  0  0  0  0  0  0  0
  190.4630  177.1510  146.3200 C   0  0  0  0  0  0  0  0  0  0  0  0
  190.2350  176.3680  147.2790 O   0  0  0  0  0  1  0  0  0  0  0  0
  187.0190  178.2610  143.3020 O   0  0  0  0  0  0  0  0  0  0  0  0
  184.5530  178.2430  143.2050 C   0  0  2  0  0  3  0  0  0  0  0  0
  185.0400  179.0730  144.3820 C   0  0  0  0  0  2  0  0  0  0  0  0
  185.8270  177.8500  143.9640 C   0  0  2  0  0  3  0  0  0  0  0  0
  182.4510  178.0360  138.4820 C   0  0  2  0  0  3  0  0  0  0  0  0
  185.6210  179.9130  141.8730 O   0  0  0  0  0  0  0  0  0  0  0  0
  184.4180  179.2530  139.4360 C   0  0  0  0  0  2  0  0  0  0  0  0
  182.1860  177.3650  139.8310 C   0  0  0  0  0  2  0  0  0  0  0  0
  184.1680  178.5260  140.6820 N   0  0  0  0  0  0  0  0  0  0  0  0
  184.8010  178.9560  141.8990 C   0  0  0  0  0  0  0  0  0  0  0  0
  183.1250  179.4120  138.6380 C   0  0  2  0  0  3  0  0  0  0  0  0
  183.4940  177.2300  140.6040 C   0  0  0  0  0  2  0  0  0  0  0  0
  181.5410  178.5320  136.3020 O   0  0  0  0  0  1  0  0  0  0  0  0
  181.2280  178.0340  137.5690 C   0  0  0  0  0  2  0  0  0  0  0  0
  182.2330  180.4480  139.3140 C   0  0  0  0  0  2  0  0  0  0  0  0
  181.7820  181.3730  138.3740 O   0  0  0  0  0  1  0  0  0  0  0  0
  1  2  2  0  0  0  0
  1  4  1  0  0  0  0
  3  5  2  0  0  0  0
  4 17  1  0  0  0  0
  5  4  1  0  0  0  0
  5 22  1  0  0  0  0
  6  9  1  0  0  0  0
  7 10  2  0  0  0  0
  8 13  1  0  0  0  0
  9  1  1  0  0  0  0
 11  9  2  0  0  0  0
 12  8  2  0  0  0  0
 12  7  1  0  0  0  0
 13 14  2  0  0  0  0
 13 15  1  0  0  0  0
 14 11  1  0  0  0  0
 15 10  1  6  0  0  0
 15  6  1  0  0  0  0
 16 14  1  0  0  0  0
 17 18  1  0  0  0  0
 18 20  1  0  0  0  0
 19 20  2  0  0  0  0
 20 21  1  0  0  0  0
 23 31  1  6  0  0  0
 23 25  1  0  0  0  0
 23 24  1  0  0  0  0
 25 22  1  6  0  0  0
 25 24  1  0  0  0  0
 26 35  1  1  0  0  0
 26 32  1  0  0  0  0
 26 29  1  0  0  0  0
 27 31  2  0  0  0  0
 28 30  1  0  0  0  0
 29 33  1  0  0  0  0
 30 31  1  0  0  0  0
 32 36  1  1  0  0  0
 32 28  1  0  0  0  0
 33 30  1  0  0  0  0
 34 35  1  0  0  0  0
 37 36  1  0  0  0  0
M  END
>  <MODEL>
4

>  <REMARK>
 VINA RESULT:      -7.0      2.106      5.819
  Name = 
  9 active torsions:
  status: ('A' for Active; 'I' for Inactive)
    1  A    between atoms: C_2  and  C_12
    2  A    between atoms: C_4  and  C_20
    3  A    between atoms: C_5  and  C_6
    4  A    between atoms: C_5  and  N_26
    5  A    between atoms: C_6  and  C_23
    6  A    between atoms: C_10  and  C_29
    7  A    between atoms: O_18  and  C_22
    8  A    between atoms: O_18  and  C_37
    9  A    between atoms: C_27  and  C_34
                            x       y       z     vdW  Elec       q    Type
                         _______ _______ _______ _____ _____    ______ ____

>  <TORSDO>
F 9

$$$$
=
 OpenBabel11062412253D

 37 40  0  0  1  0  0  0  0  0999 V2000
  186.3090  178.2810  144.2170 C   0  0  0  0  0  0  0  0  0  0  0  0
  185.1310  178.4440  144.6410 O   0  0  0  0  0  0  0  0  0  0  0  0
  187.6000  176.3570  142.4930 O   0  0  0  0  0  0  0  0  0  0  0  0
  186.5870  178.4350  142.8140 N   0  0  0  0  0  0  0  0  0  0  0  0
  187.5210  177.5660  142.1500 C   0  0  0  0  0  0  0  0  0  0  0  0
  188.6660  177.6250  144.7060 O   0  0  0  0  0  0  0  0  0  0  0  0
  191.7910  176.2760  145.9040 C   0  0  0  0  0  3  0  0  0  0  0  0
  190.5100  176.9260  147.8530 N   0  0  0  0  0  0  0  0  0  0  0  0
  187.3920  177.9790  145.1750 C   0  0  0  0  0  0  0  0  0  0  0  0
  190.9360  176.8470  145.0500 C   0  0  0  0  0  3  0  0  0  0  0  0
  187.1690  178.0260  146.4960 C   0  0  0  0  0  3  0  0  0  0  0  0
  191.5970  176.4030  147.3640 C   0  0  0  0  0  3  0  0  0  0  0  0
  189.4790  177.4200  146.9870 C   0  0  0  0  0  0  0  0  0  0  0  0
  188.2440  177.6720  147.4430 C   0  0  0  0  0  0  0  0  0  0  0  0
  189.8160  177.7160  145.5450 C   0  0  2  0  0  3  0  0  0  0  0  0
  187.9300  177.5030  148.8220 N   0  0  0  0  0  1  0  0  0  0  0  0
  185.7170  179.2790  142.0010 C   0  0  0  0  0  2  0  0  0  0  0  0
  184.8830  178.4240  141.0600 C   0  0  0  0  0  2  0  0  0  0  0  0
  184.1840  180.1280  139.3830 O   0  0  0  0  0  1  0  0  0  0  0  0
  184.9270  178.9950  139.6890 C   0  0  0  0  0  0  0  0  0  0  0  0
  185.6110  178.4330  138.7940 O   0  0  0  0  0  0  0  0  0  0  0  0
  188.3560  178.0300  141.1280 O   0  0  0  0  0  0  0  0  0  0  0  0
  190.4110  177.8780  139.7690 C   0  0  2  0  0  3  0  0  0  0  0  0
  190.1690  176.5830  140.5280 C   0  0  0  0  0  2  0  0  0  0  0  0
  189.7730  177.8960  141.1650 C   0  0  2  0  0  3  0  0  0  0  0  0
  188.8630  174.8780  135.8490 C   0  0  2  0  0  3  0  0  0  0  0  0
  188.6920  179.0560  138.6030 O   0  0  0  0  0  0  0  0  0  0  0  0
  188.3880  177.2500  136.4900 C   0  0  0  0  0  2  0  0  0  0  0  0
  189.8140  174.7250  137.0380 C   0  0  0  0  0  2  0  0  0  0  0  0
  189.3650  177.0750  137.5650 N   0  0  0  0  0  0  0  0  0  0  0  0
  189.4300  178.0340  138.6350 C   0  0  0  0  0  0  0  0  0  0  0  0
  187.7530  175.9100  136.1190 C   0  0  2  0  0  3  0  0  0  0  0  0
  190.4220  176.0800  137.3870 C   0  0  0  0  0  2  0  0  0  0  0  0
  188.5040  172.5280  136.2690 O   0  0  0  0  0  1  0  0  0  0  0  0
  188.3610  173.5390  135.3160 C   0  0  0  0  0  2  0  0  0  0  0  0
  186.7860  175.4830  137.2180 C   0  0  0  0  0  2  0  0  0  0  0  0
  185.5150  175.2810  136.6820 O   0  0  0  0  0  1  0  0  0  0  0  0
  1  2  2  0  0  0  0
  1  9  1  0  0  0  0
  4  1  1  0  0  0  0
  5  3  2  0  0  0  0
  5  4  1  0  0  0  0
  6  9  1  0  0  0  0
  6 15  1  0  0  0  0
  7 12  1  0  0  0  0
  9 11  2  0  0  0  0
 10  7  2  0  0  0  0
 11 14  1  0  0  0  0
 12  8  2  0  0  0  0
 13 14  2  0  0  0  0
 13  8  1  0  0  0  0
 14 16  1  0  0  0  0
 15 10  1  6  0  0  0
 15 13  1  0  0  0  0
 17  4  1  0  0  0  0
 18 17  1  0  0  0  0
 19 20  1  0  0  0  0
 20 18  1  0  0  0  0
 21 20  2  0  0  0  0
 22  5  1  0  0  0  0
 23 31  1  6  0  0  0
 23 24  1  0  0  0  0
 23 25  1  0  0  0  0
 24 25  1  0  0  0  0
 25 22  1  6  0  0  0
 26 35  1  1  0  0  0
 26 32  1  0  0  0  0
 26 29  1  0  0  0  0
 27 31  2  0  0  0  0
 28 30  1  0  0  0  0
 29 33  1  0  0  0  0
 30 31  1  0  0  0  0
 32 28  1  0  0  0  0
 32 36  1  1  0  0  0
 33 30  1  0  0  0  0
 35 34  1  0  0  0  0
 37 36  1  0  0  0  0
M  END
>  <MODEL>
5

>  <REMARK>
 VINA RESULT:      -7.0      2.598      6.064
  Name = 
  9 active torsions:
  status: ('A' for Active; 'I' for Inactive)
    1  A    between atoms: C_2  and  C_12
    2  A    between atoms: C_4  and  C_20
    3  A    between atoms: C_5  and  C_6
    4  A    between atoms: C_5  and  N_26
    5  A    between atoms: C_6  and  C_23
    6  A    between atoms: C_10  and  C_29
    7  A    between atoms: O_18  and  C_22
    8  A    between atoms: O_18  and  C_37
    9  A    between atoms: C_27  and  C_34
                            x       y       z     vdW  Elec       q    Type
                         _______ _______ _______ _____ _____    ______ ____

>  <TORSDO>
F 9

$$$$
=
 OpenBabel11062412253D

 37 40  0  0  1  0  0  0  0  0999 V2000
  190.6920  177.1570  140.0940 C   0  0  0  0  0  0  0  0  0  0  0  0
  191.9420  177.0560  139.9470 O   0  0  0  0  0  0  0  0  0  0  0  0
  188.7380  179.2080  139.5330 O   0  0  0  0  0  0  0  0  0  0  0  0
  189.8450  177.2420  138.9350 N   0  0  0  0  0  0  0  0  0  0  0  0
  188.6940  178.1040  138.9270 C   0  0  0  0  0  0  0  0  0  0  0  0
  188.7300  177.2670  141.6310 O   0  0  0  0  0  0  0  0  0  0  0  0
  186.3050  177.8300  144.2430 C   0  0  0  0  0  3  0  0  0  0  0  0
  188.3950  177.2770  145.3300 N   0  0  0  0  0  0  0  0  0  0  0  0
  190.1160  177.1400  141.4540 C   0  0  0  0  0  0  0  0  0  0  0  0
  186.7640  177.5290  143.0240 C   0  0  0  0  0  3  0  0  0  0  0  0
  190.9060  177.0150  142.5300 C   0  0  0  0  0  3  0  0  0  0  0  0
  187.1430  177.6090  145.4400 C   0  0  0  0  0  3  0  0  0  0  0  0
  188.9940  177.0880  144.0410 C   0  0  0  0  0  0  0  0  0  0  0  0
  190.3250  177.0520  143.8850 C   0  0  0  0  0  0  0  0  0  0  0  0
  188.0980  176.8640  142.8450 C   0  0  2  0  0  3  0  0  0  0  0  0
  191.1900  177.1520  145.0120 N   0  0  0  0  0  1  0  0  0  0  0  0
  190.3040  176.6780  137.6690 C   0  0  0  0  0  2  0  0  0  0  0  0
  189.7510  175.2730  137.4870 C   0  0  0  0  0  2  0  0  0  0  0  0
  190.7320  173.2900  136.3440 O   0  0  0  0  0  0  0  0  0  0  0  0
  190.8670  174.3170  137.2680 C   0  0  0  0  0  0  0  0  0  0  0  0
  191.9250  174.4190  137.9430 O   0  0  0  0  0  1  0  0  0  0  0  0
  187.5140  177.7490  138.2650 O   0  0  0  0  0  0  0  0  0  0  0  0
  185.7370  177.8780  136.5580 C   0  0  2  0  0  3  0  0  0  0  0  0
  186.9350  177.1040  136.0320 C   0  0  0  0  0  2  0  0  0  0  0  0
  187.1610  178.2580  136.9830 C   0  0  2  0  0  3  0  0  0  0  0  0
  182.1670  178.9700  140.1390 C   0  0  2  0  0  3  0  0  0  0  0  0
  185.0900  175.8160  137.5740 O   0  0  0  0  0  0  0  0  0  0  0  0
  183.4380  176.8950  139.5560 C   0  0  0  0  0  2  0  0  0  0  0  0
  182.9130  179.7560  139.0600 C   0  0  0  0  0  2  0  0  0  0  0  0
  184.1770  177.7100  138.5910 N   0  0  0  0  0  0  0  0  0  0  0  0
  184.9760  177.0720  137.5800 C   0  0  0  0  0  0  0  0  0  0  0  0
  182.0440  177.4750  139.7920 C   0  0  2  0  0  3  0  0  0  0  0  0
  184.2950  179.1460  138.8430 C   0  0  0  0  0  2  0  0  0  0  0  0
  180.3830  179.1120  141.7600 O   0  0  0  0  0  1  0  0  0  0  0  0
  180.8530  179.6300  140.5510 C   0  0  0  0  0  2  0  0  0  0  0  0
  181.1680  177.2080  138.5720 C   0  0  0  0  0  2  0  0  0  0  0  0
  180.0050  176.5420  138.9580 O   0  0  0  0  0  1  0  0  0  0  0  0
  1  9  1  0  0  0  0
  2  1  2  0  0  0  0
  4  1  1  0  0  0  0
  5  4  1  0  0  0  0
  5  3  2  0  0  0  0
  6 15  1  0  0  0  0
  7 12  1  0  0  0  0
  8 12  2  0  0  0  0
  9  6  1  0  0  0  0
  9 11  2  0  0  0  0
 10  7  2  0  0  0  0
 11 14  1  0  0  0  0
 13  8  1  0  0  0  0
 14 13  2  0  0  0  0
 14 16  1  0  0  0  0
 15 10  1  1  0  0  0
 15 13  1  0  0  0  0
 17  4  1  0  0  0  0
 18 17  1  0  0  0  0
 19 20  2  0  0  0  0
 20 18  1  0  0  0  0
 20 21  1  0  0  0  0
 22  5  1  0  0  0  0
 23 25  1  0  0  0  0
 23 31  1  1  0  0  0
 24 23  1  0  0  0  0
 24 25  1  0  0  0  0
 25 22  1  1  0  0  0
 26 35  1  6  0  0  0
 27 31  2  0  0  0  0
 28 32  1  0  0  0  0
 29 26  1  0  0  0  0
 30 33  1  0  0  0  0
 30 28  1  0  0  0  0
 31 30  1  0  0  0  0
 32 36  1  6  0  0  0
 32 26  1  0  0  0  0
 33 29  1  0  0  0  0
 35 34  1  0  0  0  0
 36 37  1  0  0  0  0
M  END
>  <MODEL>
6

>  <REMARK>
 VINA RESULT:      -6.7      1.649      2.447
  Name = 
  9 active torsions:
  status: ('A' for Active; 'I' for Inactive)
    1  A    between atoms: C_2  and  C_12
    2  A    between atoms: C_4  and  C_20
    3  A    between atoms: C_5  and  C_6
    4  A    between atoms: C_5  and  N_26
    5  A    between atoms: C_6  and  C_23
    6  A    between atoms: C_10  and  C_29
    7  A    between atoms: O_18  and  C_22
    8  A    between atoms: O_18  and  C_37
    9  A    between atoms: C_27  and  C_34
                            x       y       z     vdW  Elec       q    Type
                         _______ _______ _______ _____ _____    ______ ____

>  <TORSDO>
F 9

$$$$
=
 OpenBabel11062412253D

 37 40  0  0  1  0  0  0  0  0999 V2000
  191.0610  177.3770  140.3840 C   0  0  0  0  0  0  0  0  0  0  0  0
  192.3060  177.5210  140.2270 O   0  0  0  0  0  0  0  0  0  0  0  0
  188.7350  178.9660  139.7450 O   0  0  0  0  0  0  0  0  0  0  0  0
  190.2130  177.2330  139.2310 N   0  0  0  0  0  0  0  0  0  0  0  0
  188.9120  177.8470  139.1940 C   0  0  0  0  0  0  0  0  0  0  0  0
  189.1120  177.3090  141.9390 O   0  0  0  0  0  0  0  0  0  0  0  0
  186.6670  177.6540  144.5710 C   0  0  0  0  0  3  0  0  0  0  0  0
  188.8110  177.3090  145.6410 N   0  0  0  0  0  0  0  0  0  0  0  0
  190.5010  177.3130  141.7490 C   0  0  0  0  0  0  0  0  0  0  0  0
  187.1420  177.3900  143.3490 C   0  0  0  0  0  3  0  0  0  0  0  0
  191.3100  177.2710  142.8170 C   0  0  0  0  0  3  0  0  0  0  0  0
  187.5330  177.5210  145.7610 C   0  0  0  0  0  3  0  0  0  0  0  0
  189.4130  177.1700  144.3470 C   0  0  0  0  0  0  0  0  0  0  0  0
  190.7400  177.2600  144.1790 C   0  0  0  0  0  0  0  0  0  0  0  0
  188.5320  176.8550  143.1610 C   0  0  2  0  0  3  0  0  0  0  0  0
  191.6020  177.4490  145.2970 N   0  0  0  0  0  1  0  0  0  0  0  0
  190.7730  176.7100  137.9890 C   0  0  0  0  0  2  0  0  0  0  0  0
  190.9720  175.2060  138.0940 C   0  0  0  0  0  2  0  0  0  0  0  0
  193.3260  174.9320  137.3290 O   0  0  0  0  0  1  0  0  0  0  0  0
  191.9700  174.7590  137.0870 C   0  0  0  0  0  0  0  0  0  0  0  0
  191.5860  174.2530  136.0000 O   0  0  0  0  0  0  0  0  0  0  0  0
  187.8270  177.2300  138.5640 O   0  0  0  0  0  0  0  0  0  0  0  0
  186.3280  176.9980  136.6160 C   0  0  2  0  0  3  0  0  0  0  0  0
  187.5270  177.8690  136.2740 C   0  0  0  0  0  2  0  0  0  0  0  0
  186.9540  177.9180  137.6730 C   0  0  2  0  0  3  0  0  0  0  0  0
  183.7530  172.5450  137.1630 C   0  0  2  0  0  3  0  0  0  0  0  0
  187.9370  175.2340  136.5810 O   0  0  0  0  0  0  0  0  0  0  0  0
  186.1840  173.1380  137.1780 C   0  0  0  0  0  2  0  0  0  0  0  0
  183.3740  174.0170  136.9860 C   0  0  0  0  0  2  0  0  0  0  0  0
  185.7650  174.5380  137.0870 N   0  0  0  0  0  0  0  0  0  0  0  0
  186.7260  175.5500  136.7380 C   0  0  0  0  0  0  0  0  0  0  0  0
  185.1310  172.2210  136.5570 C   0  0  2  0  0  3  0  0  0  0  0  0
  184.4490  174.9030  137.6080 C   0  0  0  0  0  2  0  0  0  0  0  0
  181.4700  171.8200  137.4680 O   0  0  0  0  0  1  0  0  0  0  0  0
  182.6390  171.5910  136.7390 C   0  0  0  0  0  2  0  0  0  0  0  0
  185.1690  172.3570  135.0380 C   0  0  0  0  0  2  0  0  0  0  0  0
  186.4920  172.3650  134.5950 O   0  0  0  0  0  1  0  0  0  0  0  0
  1  9  1  0  0  0  0
  2  1  2  0  0  0  0
  4  1  1  0  0  0  0
  5  4  1  0  0  0  0
  5  3  2  0  0  0  0
  6 15  1  0  0  0  0
  7 12  1  0  0  0  0
  8 12  2  0  0  0  0
  9  6  1  0  0  0  0
  9 11  2  0  0  0  0
 10  7  2  0  0  0  0
 11 14  1  0  0  0  0
 13  8  1  0  0  0  0
 14 13  2  0  0  0  0
 14 16  1  0  0  0  0
 15 10  1  1  0  0  0
 15 13  1  0  0  0  0
 17 18  1  0  0  0  0
 17  4  1  0  0  0  0
 20 19  1  0  0  0  0
 20 18  1  0  0  0  0
 21 20  2  0  0  0  0
 22  5  1  0  0  0  0
 23 31  1  1  0  0  0
 23 25  1  0  0  0  0
 24 23  1  0  0  0  0
 24 25  1  0  0  0  0
 25 22  1  1  0  0  0
 26 35  1  6  0  0  0
 27 31  2  0  0  0  0
 29 26  1  0  0  0  0
 29 33  1  0  0  0  0
 30 28  1  0  0  0  0
 30 33  1  0  0  0  0
 31 30  1  0  0  0  0
 32 36  1  6  0  0  0
 32 26  1  0  0  0  0
 32 28  1  0  0  0  0
 35 34  1  0  0  0  0
 37 36  1  0  0  0  0
M  END
>  <MODEL>
7

>  <REMARK>
 VINA RESULT:      -6.6      3.166      4.429
  Name = 
  9 active torsions:
  status: ('A' for Active; 'I' for Inactive)
    1  A    between atoms: C_2  and  C_12
    2  A    between atoms: C_4  and  C_20
    3  A    between atoms: C_5  and  C_6
    4  A    between atoms: C_5  and  N_26
    5  A    between atoms: C_6  and  C_23
    6  A    between atoms: C_10  and  C_29
    7  A    between atoms: O_18  and  C_22
    8  A    between atoms: O_18  and  C_37
    9  A    between atoms: C_27  and  C_34
                            x       y       z     vdW  Elec       q    Type
                         _______ _______ _______ _____ _____    ______ ____

>  <TORSDO>
F 9

$$$$
=
 OpenBabel11062412253D

 37 40  0  0  1  0  0  0  0  0999 V2000
  187.9330  177.5920  143.9010 C   0  0  0  0  0  0  0  0  0  0  0  0
  188.4110  177.6330  145.0680 O   0  0  0  0  0  0  0  0  0  0  0  0
  188.4030  179.0630  141.4600 O   0  0  0  0  0  0  0  0  0  0  0  0
  188.7730  177.1910  142.8030 N   0  0  0  0  0  0  0  0  0  0  0  0
  188.6640  177.8320  141.5210 C   0  0  0  0  0  0  0  0  0  0  0  0
  185.9880  177.9610  142.3830 O   0  0  0  0  0  0  0  0  0  0  0  0
  183.0310  179.0280  140.6120 C   0  0  0  0  0  3  0  0  0  0  0  0
  182.4690  178.9970  142.9660 N   0  0  0  0  0  0  0  0  0  0  0  0
  186.5080  177.9130  143.6850 C   0  0  0  0  0  0  0  0  0  0  0  0
  184.2120  178.4330  140.8010 C   0  0  0  0  0  3  0  0  0  0  0  0
  185.7010  178.1720  144.7230 C   0  0  0  0  0  3  0  0  0  0  0  0
  182.1000  179.2340  141.7410 C   0  0  0  0  0  3  0  0  0  0  0  0
  183.7840  178.5020  143.2540 C   0  0  0  0  0  0  0  0  0  0  0  0
  184.2910  178.5420  144.4930 C   0  0  0  0  0  0  0  0  0  0  0  0
  184.5850  177.8670  142.1410 C   0  0  2  0  0  3  0  0  0  0  0  0
  183.5140  179.0370  145.5800 N   0  0  0  0  0  1  0  0  0  0  0  0
  189.9280  176.3360  143.0610 C   0  0  0  0  0  2  0  0  0  0  0  0
  191.2160  177.1180  142.8640 C   0  0  0  0  0  2  0  0  0  0  0  0
  191.6750  177.3870  145.2970 O   0  0  0  0  0  1  0  0  0  0  0  0
  191.4740  177.9710  144.0540 C   0  0  0  0  0  0  0  0  0  0  0  0
  191.4770  179.2250  143.9410 O   0  0  0  0  0  0  0  0  0  0  0  0
  188.8340  177.1230  140.3280 O   0  0  0  0  0  0  0  0  0  0  0  0
  189.2580  177.3910  137.9110 C   0  0  2  0  0  3  0  0  0  0  0  0
  189.0630  178.7430  138.5780 C   0  0  0  0  0  2  0  0  0  0  0  0
  188.2840  177.5510  139.0860 C   0  0  2  0  0  3  0  0  0  0  0  0
  192.0580  173.3940  136.1960 C   0  0  2  0  0  3  0  0  0  0  0  0
  191.3120  177.3830  139.1290 O   0  0  0  0  0  0  0  0  0  0  0  0
  192.3240  174.9820  138.1100 C   0  0  0  0  0  2  0  0  0  0  0  0
  190.7350  174.0550  135.8030 C   0  0  0  0  0  2  0  0  0  0  0  0
  191.0170  175.5280  137.7400 N   0  0  0  0  0  0  0  0  0  0  0  0
  190.5890  176.7890  138.2830 C   0  0  0  0  0  0  0  0  0  0  0  0
  193.0170  174.3780  136.8900 C   0  0  2  0  0  3  0  0  0  0  0  0
  190.0740  174.6550  137.0400 C   0  0  0  0  0  2  0  0  0  0  0  0
  192.1830  171.3030  134.9940 O   0  0  0  0  0  1  0  0  0  0  0  0
  192.6880  172.6040  135.0510 C   0  0  0  0  0  2  0  0  0  0  0  0
  193.5040  175.4950  135.9750 C   0  0  0  0  0  2  0  0  0  0  0  0
  194.1840  176.4590  136.7200 O   0  0  0  0  0  1  0  0  0  0  0  0
  1  2  2  0  0  0  0
  3  5  2  0  0  0  0
  4 17  1  0  0  0  0
  4  1  1  0  0  0  0
  5  4  1  0  0  0  0
  6  9  1  0  0  0  0
  7 10  2  0  0  0  0
  7 12  1  0  0  0  0
  8 13  1  0  0  0  0
  9  1  1  0  0  0  0
  9 11  2  0  0  0  0
 12  8  2  0  0  0  0
 13 14  2  0  0  0  0
 14 11  1  0  0  0  0
 14 16  1  0  0  0  0
 15 10  1  6  0  0  0
 15  6  1  0  0  0  0
 15 13  1  0  0  0  0
 18 17  1  0  0  0  0
 18 20  1  0  0  0  0
 20 19  1  0  0  0  0
 21 20  2  0  0  0  0
 22  5  1  0  0  0  0
 23 31  1  1  0  0  0
 23 24  1  0  0  0  0
 23 25  1  0  0  0  0
 24 25  1  0  0  0  0
 25 22  1  1  0  0  0
 26 35  1  6  0  0  0
 26 32  1  0  0  0  0
 29 26  1  0  0  0  0
 29 33  1  0  0  0  0
 30 28  1  0  0  0  0
 30 31  1  0  0  0  0
 31 27  2  0  0  0  0
 32 36  1  6  0  0  0
 32 28  1  0  0  0  0
 33 30  1  0  0  0  0
 34 35  1  0  0  0  0
 36 37  1  0  0  0  0
M  END
>  <MODEL>
8

>  <REMARK>
 VINA RESULT:      -6.5      2.618      6.786
  Name = 
  9 active torsions:
  status: ('A' for Active; 'I' for Inactive)
    1  A    between atoms: C_2  and  C_12
    2  A    between atoms: C_4  and  C_20
    3  A    between atoms: C_5  and  C_6
    4  A    between atoms: C_5  and  N_26
    5  A    between atoms: C_6  and  C_23
    6  A    between atoms: C_10  and  C_29
    7  A    between atoms: O_18  and  C_22
    8  A    between atoms: O_18  and  C_37
    9  A    between atoms: C_27  and  C_34
                            x       y       z     vdW  Elec       q    Type
                         _______ _______ _______ _____ _____    ______ ____

>  <TORSDO>
F 9

$$$$
=
 OpenBabel11062412253D

 37 40  0  0  1  0  0  0  0  0999 V2000
  190.0750  176.9470  141.0630 C   0  0  0  0  0  0  0  0  0  0  0  0
  191.2960  176.6890  141.2530 O   0  0  0  0  0  0  0  0  0  0  0  0
  188.6290  179.0560  139.7210 O   0  0  0  0  0  0  0  0  0  0  0  0
  189.5400  176.9070  139.7290 N   0  0  0  0  0  0  0  0  0  0  0  0
  188.5620  177.8710  139.2990 C   0  0  0  0  0  0  0  0  0  0  0  0
  189.7330  177.2230  143.5190 O   0  0  0  0  0  0  0  0  0  0  0  0
  188.6460  177.2750  146.9590 C   0  0  0  0  0  3  0  0  0  0  0  0
  186.7390  177.9050  145.6080 N   0  0  0  0  0  0  0  0  0  0  0  0
  189.2050  177.2420  142.2200 C   0  0  0  0  0  0  0  0  0  0  0  0
  189.4960  177.3250  145.9290 C   0  0  0  0  0  3  0  0  0  0  0  0
  187.9050  177.5180  142.0440 C   0  0  0  0  0  3  0  0  0  0  0  0
  187.2300  177.6650  146.7890 C   0  0  0  0  0  3  0  0  0  0  0  0
  187.5650  177.8240  144.4390 C   0  0  0  0  0  0  0  0  0  0  0  0
  187.0340  177.7600  143.2100 C   0  0  0  0  0  0  0  0  0  0  0  0
  189.0660  177.8730  144.6000 C   0  0  2  0  0  3  0  0  0  0  0  0
  185.6230  177.8210  143.0250 N   0  0  0  0  0  1  0  0  0  0  0  0
  190.1890  176.0750  138.7210 C   0  0  0  0  0  2  0  0  0  0  0  0
  191.1750  176.9000  137.9110 C   0  0  0  0  0  2  0  0  0  0  0  0
  193.6290  176.8290  137.4860 O   0  0  0  0  0  0  0  0  0  0  0  0
  192.4470  176.1480  137.7490 C   0  0  0  0  0  0  0  0  0  0  0  0
  192.4490  174.8910  137.8180 O   0  0  0  0  0  1  0  0  0  0  0  0
  187.5270  177.5280  138.4240 O   0  0  0  0  0  0  0  0  0  0  0  0
  185.9660  177.8810  136.5450 C   0  0  2  0  0  3  0  0  0  0  0  0
  187.1780  177.0810  136.0960 C   0  0  0  0  0  2  0  0  0  0  0  0
  187.3490  178.1480  137.1540 C   0  0  2  0  0  3  0  0  0  0  0  0
  182.1590  178.9160  139.8900 C   0  0  2  0  0  3  0  0  0  0  0  0
  185.0800  175.7920  137.2880 O   0  0  0  0  0  0  0  0  0  0  0  0
  183.3270  176.8090  139.2150 C   0  0  0  0  0  2  0  0  0  0  0  0
  183.0590  179.7370  138.9650 C   0  0  0  0  0  2  0  0  0  0  0  0
  184.2120  177.6490  138.4060 N   0  0  0  0  0  0  0  0  0  0  0  0
  185.0560  177.0460  137.4100 C   0  0  0  0  0  0  0  0  0  0  0  0
  181.9620  177.4750  139.3850 C   0  0  2  0  0  3  0  0  0  0  0  0
  184.4080  179.0410  138.8110 C   0  0  0  0  0  2  0  0  0  0  0  0
  180.0960  178.8900  141.1460 O   0  0  0  0  0  1  0  0  0  0  0  0
  180.8620  179.6380  140.2500 C   0  0  0  0  0  2  0  0  0  0  0  0
  181.1900  177.3950  138.0720 C   0  0  0  0  0  2  0  0  0  0  0  0
  181.2370  176.0950  137.5710 O   0  0  0  0  0  1  0  0  0  0  0  0
  1  2  2  0  0  0  0
  1  9  1  0  0  0  0
  4  1  1  0  0  0  0
  5  3  2  0  0  0  0
  5  4  1  0  0  0  0
  6 15  1  0  0  0  0
  8 12  2  0  0  0  0
  9  6  1  0  0  0  0
 10  7  2  0  0  0  0
 11  9  2  0  0  0  0
 11 14  1  0  0  0  0
 12  7  1  0  0  0  0
 13 15  1  0  0  0  0
 13  8  1  0  0  0  0
 14 13  2  0  0  0  0
 15 10  1  1  0  0  0
 16 14  1  0  0  0  0
 17  4  1  0  0  0  0
 18 17  1  0  0  0  0
 19 20  2  0  0  0  0
 20 21  1  0  0  0  0
 20 18  1  0  0  0  0
 22  5  1  0  0  0  0
 23 25  1  0  0  0  0
 23 31  1  1  0  0  0
 24 23  1  0  0  0  0
 24 25  1  0  0  0  0
 25 22  1  1  0  0  0
 26 35  1  6  0  0  0
 27 31  2  0  0  0  0
 28 32  1  0  0  0  0
 29 26  1  0  0  0  0
 30 33  1  0  0  0  0
 30 28  1  0  0  0  0
 31 30  1  0  0  0  0
 32 36  1  6  0  0  0
 32 26  1  0  0  0  0
 33 29  1  0  0  0  0
 35 34  1  0  0  0  0
 37 36  1  0  0  0  0
M  END
>  <MODEL>
9

>  <REMARK>
 VINA RESULT:      -6.5      1.558      2.419
  Name = 
  9 active torsions:
  status: ('A' for Active; 'I' for Inactive)
    1  A    between atoms: C_2  and  C_12
    2  A    between atoms: C_4  and  C_20
    3  A    between atoms: C_5  and  C_6
    4  A    between atoms: C_5  and  N_26
    5  A    between atoms: C_6  and  C_23
    6  A    between atoms: C_10  and  C_29
    7  A    between atoms: O_18  and  C_22
    8  A    between atoms: O_18  and  C_37
    9  A    between atoms: C_27  and  C_34
                            x       y       z     vdW  Elec       q    Type
                         _______ _______ _______ _____ _____    ______ ____

>  <TORSDO>
F 9

$$$$
