=
 OpenBabel11062415263D

 48 53  0  0  1  0  0  0  0  0999 V2000
  183.0250  175.2840  138.6840 C   0  0  0  0  0  2  0  0  0  0  0  0
  181.4000  177.9340  139.3700 C   0  0  2  0  0  0  0  0  0  0  0  0
  180.8070  176.5550  139.1140 C   0  0  0  0  0  0  0  0  0  0  0  0
  183.3300  175.3560  137.1940 C   0  0  0  0  0  2  0  0  0  0  0  0
  183.2260  177.7090  136.1890 C   0  0  0  0  0  2  0  0  0  0  0  0
  181.5880  175.3630  138.9100 N   0  0  0  0  0  2  0  0  0  0  0  0
  181.8690  177.9070  136.8590 C   0  0  0  0  0  2  0  0  0  0  0  0
  184.0850  176.6490  136.8830 C   0  0  2  0  0  3  0  0  0  0  0  0
  179.5520  176.4480  139.0920 O   0  0  0  0  0  0  0  0  0  0  0  0
  181.9290  178.7190  138.1600 C   0  0  2  0  0  3  0  0  0  0  0  0
  182.8980  178.1330  139.1830 C   0  0  1  0  0  3  0  0  0  0  0  0
  180.6810  178.3260  141.7600 C   0  0  0  0  0  3  0  0  0  0  0  0
  180.2170  180.0300  140.1030 C   0  0  0  0  0  3  0  0  0  0  0  0
  180.0140  178.6380  144.1470 C   0  0  0  0  0  1  0  0  0  0  0  0
  180.0850  179.1200  142.7430 C   0  0  0  0  0  0  0  0  0  0  0  0
  180.7370  178.7710  140.4310 C   0  0  0  0  0  0  0  0  0  0  0  0
  179.5540  180.3690  142.4070 C   0  0  0  0  0  3  0  0  0  0  0  0
  179.6230  180.8250  141.0870 C   0  0  0  0  0  3  0  0  0  0  0  0
  185.4330  176.4330  136.1690 C   0  0  1  0  0  3  0  0  0  0  0  0
  185.3040  176.8540  134.7120 C   0  0  0  0  0  1  0  0  0  0  0  0
  186.3570  177.4810  138.1340 O   0  0  0  0  0  1  0  0  0  0  0  0
  186.6960  177.0460  136.8450 C   0  0  1  0  0  0  0  0  0  0  0  0
  188.7730  173.8010  136.4720 C   0  0  0  0  0  3  0  0  0  0  0  0
  189.0930  176.4240  137.4760 N   0  0  0  0  0  2  0  0  0  0  0  0
  190.1980  175.4770  137.5380 C   0  0  1  0  0  0  0  0  0  0  0  0
  191.5450  176.0080  137.8110 C   0  0  0  0  0  2  0  0  0  0  0  0
  190.7500  175.4350  138.8280 O   0  0  0  0  0  0  0  0  0  0  0  0
  187.8270  176.0340  136.9190 C   0  0  0  0  0  0  0  0  0  0  0  0
  187.6740  174.7880  136.4400 C   0  0  0  0  0  3  0  0  0  0  0  0
  190.9650  173.1870  136.9680 F   0  0  0  0  0  0  0  0  0  0  0  0
  189.9670  174.1060  136.9820 C   0  0  0  0  0  0  0  0  0  0  0  0
  188.2250  179.1100  136.8160 C   0  0  0  0  0  1  0  0  0  0  0  0
  187.1820  178.2840  136.0730 C   0  0  0  0  0  2  0  0  0  0  0  0
  183.4110  179.1890  139.9850 O   0  0  0  0  0  0  0  0  0  0  0  0
  187.3310  177.9400  143.8340 O   0  0  0  0  0  1  0  0  0  0  0  0
  184.6920  178.1830  144.5850 F   0  0  0  0  0  0  0  0  0  0  0  0
  186.6920  178.6040  141.6440 C   0  0  0  0  0  0  0  0  0  0  0  0
  186.3500  178.2110  142.8830 C   0  0  0  0  0  0  0  0  0  0  0  0
  184.9000  177.9820  143.2340 C   0  0  2  0  0  3  0  0  0  0  0  0
  183.9690  178.9000  142.4350 C   0  0  0  0  0  2  0  0  0  0  0  0
  185.6500  178.8750  140.6350 C   0  0  0  0  0  3  0  0  0  0  0  0
  184.3640  178.9690  140.9800 C   0  0  0  0  0  0  0  0  0  0  0  0
  188.1250  178.7060  141.2420 C   0  0  0  0  0  2  0  0  0  0  0  0
  188.6700  177.3780  141.0010 N   0  0  0  0  0  2  0  0  0  0  0  0
  190.2970  176.3980  142.5850 C   0  0  0  0  0  0  0  0  0  0  0  0
  189.4610  175.5360  142.9670 O   0  0  0  0  0  0  0  0  0  0  0  0
  191.5970  176.4260  143.1640 N   0  0  0  0  0  1  0  0  0  0  0  0
  189.9520  177.3440  141.5710 N   0  0  0  0  0  2  0  0  0  0  0  0
  1  6  1  0  0  0  0
  2 16  1  1  0  0  0
  3  2  1  0  0  0  0
  4  1  1  0  0  0  0
  5  7  1  0  0  0  0
  5  8  1  0  0  0  0
  6  3  1  0  0  0  0
  8 19  1  6  0  0  0
  8  4  1  0  0  0  0
  9  3  2  0  0  0  0
 10  7  1  6  0  0  0
 10 11  1  0  0  0  0
 10  2  1  0  0  0  0
 11  2  1  0  0  0  0
 11 34  1  1  0  0  0
 12 15  1  0  0  0  0
 13 16  1  0  0  0  0
 13 18  2  0  0  0  0
 15 14  1  0  0  0  0
 16 12  2  0  0  0  0
 17 15  2  0  0  0  0
 18 17  1  0  0  0  0
 19 20  1  6  0  0  0
 19 22  1  0  0  0  0
 22 28  1  0  0  0  0
 22 21  1  1  0  0  0
 23 31  2  0  0  0  0
 24 25  1  0  0  0  0
 25 26  1  6  0  0  0
 25 27  1  0  0  0  0
 26 27  1  0  0  0  0
 28 24  1  0  0  0  0
 29 23  1  0  0  0  0
 29 28  2  0  0  0  0
 30 31  1  0  0  0  0
 31 25  1  0  0  0  0
 33 32  1  0  0  0  0
 33 22  1  0  0  0  0
 34 42  1  0  0  0  0
 37 38  2  0  0  0  0
 38 39  1  0  0  0  0
 38 35  1  0  0  0  0
 39 36  1  1  0  0  0
 40 39  1  0  0  0  0
 41 42  2  0  0  0  0
 41 37  1  0  0  0  0
 42 40  1  0  0  0  0
 43 37  1  0  0  0  0
 44 43  1  0  0  0  0
 44 48  1  0  0  0  0
 45 46  2  0  0  0  0
 45 47  1  0  0  0  0
 48 45  1  0  0  0  0
M  END
>  <MODEL>
1

>  <REMARK>
 VINA RESULT:      -8.2      0.000      0.000
  Name = 
  10 active torsions:
  status: ('A' for Active; 'I' for Inactive)
    1  A    between atoms: C_5  and  C_38
    2  A    between atoms: C_12  and  C_28
    3  A    between atoms: C_13  and  C_41
    4  A    between atoms: C_25  and  C_35
    5  A    between atoms: C_25  and  C_41
    6  A    between atoms: C_26  and  C_41
    7  A    between atoms: N_30  and  C_38
    8  A    between atoms: N_30  and  N_39
    9  A    between atoms: O_42  and  C_46
   10  A    between atoms: O_42  and  C_47
                            x       y       z     vdW  Elec       q    Type
                         _______ _______ _______ _____ _____    ______ ____

>  <TORSDO>
F 10

$$$$
=
 OpenBabel11062415263D

 48 53  0  0  1  0  0  0  0  0999 V2000
  185.0540  174.7310  137.7150 C   0  0  0  0  0  2  0  0  0  0  0  0
  182.6560  176.8190  137.8680 C   0  0  2  0  0  0  0  0  0  0  0  0
  182.5380  175.3330  137.5570 C   0  0  0  0  0  0  0  0  0  0  0  0
  185.6690  174.9040  136.3330 C   0  0  0  0  0  2  0  0  0  0  0  0
  185.1680  177.1470  135.2060 C   0  0  0  0  0  2  0  0  0  0  0  0
  183.6380  174.4070  137.6020 N   0  0  0  0  0  2  0  0  0  0  0  0
  183.6900  176.9540  135.5370 C   0  0  0  0  0  2  0  0  0  0  0  0
  186.0950  176.3580  136.1340 C   0  0  2  0  0  3  0  0  0  0  0  0
  181.4010  174.8830  137.2550 O   0  0  0  0  0  0  0  0  0  0  0  0
  183.2200  177.7350  136.7700 C   0  0  2  0  0  3  0  0  0  0  0  0
  184.0440  177.4280  138.0180 C   0  0  1  0  0  3  0  0  0  0  0  0
  180.8970  178.5860  138.2760 C   0  0  0  0  0  3  0  0  0  0  0  0
  181.1620  176.8020  139.8930 C   0  0  0  0  0  3  0  0  0  0  0  0
  179.1760  180.3680  138.5970 C   0  0  0  0  0  1  0  0  0  0  0  0
  179.8660  179.1310  139.0460 C   0  0  0  0  0  0  0  0  0  0  0  0
  181.5610  177.4270  138.7030 C   0  0  0  0  0  0  0  0  0  0  0  0
  179.4820  178.5120  140.2400 C   0  0  0  0  0  3  0  0  0  0  0  0
  180.1280  177.3460  140.6610 C   0  0  0  0  0  3  0  0  0  0  0  0
  187.5790  176.5330  135.7610 C   0  0  1  0  0  3  0  0  0  0  0  0
  187.6940  177.5040  134.5940 C   0  0  0  0  0  1  0  0  0  0  0  0
  187.8730  176.8190  138.1360 O   0  0  0  0  0  1  0  0  0  0  0  0
  188.5610  176.8900  136.9170 C   0  0  1  0  0  0  0  0  0  0  0  0
  190.7350  173.6870  136.8330 C   0  0  0  0  0  3  0  0  0  0  0  0
  191.0830  176.4870  137.0140 N   0  0  0  0  0  2  0  0  0  0  0  0
  192.2410  175.6030  137.0130 C   0  0  1  0  0  0  0  0  0  0  0  0
  193.5650  176.2040  136.7680 C   0  0  0  0  0  2  0  0  0  0  0  0
  193.1080  175.9130  138.0730 O   0  0  0  0  0  0  0  0  0  0  0  0
  189.7530  175.9470  136.9380 C   0  0  0  0  0  0  0  0  0  0  0  0
  189.5860  174.6170  136.8500 C   0  0  0  0  0  3  0  0  0  0  0  0
  193.0230  173.2540  136.8570 F   0  0  0  0  0  0  0  0  0  0  0  0
  191.9900  174.1320  136.9070 C   0  0  0  0  0  0  0  0  0  0  0  0
  189.1260  179.1030  138.0920 C   0  0  0  0  0  1  0  0  0  0  0  0
  189.0680  178.3350  136.7770 C   0  0  0  0  0  2  0  0  0  0  0  0
  184.0470  178.5750  138.8580 O   0  0  0  0  0  0  0  0  0  0  0  0
  186.5520  178.1640  143.8870 O   0  0  0  0  0  1  0  0  0  0  0  0
  183.8090  178.3550  143.7280 F   0  0  0  0  0  0  0  0  0  0  0  0
  186.6360  178.4480  141.5300 C   0  0  0  0  0  0  0  0  0  0  0  0
  185.9210  178.2270  142.6470 C   0  0  0  0  0  0  0  0  0  0  0  0
  184.4380  177.9660  142.5610 C   0  0  2  0  0  3  0  0  0  0  0  0
  183.8000  178.6940  141.3730 C   0  0  0  0  0  2  0  0  0  0  0  0
  185.9660  178.5000  140.2160 C   0  0  0  0  0  3  0  0  0  0  0  0
  184.6360  178.5660  140.1240 C   0  0  0  0  0  0  0  0  0  0  0  0
  188.1220  178.5770  141.5850 C   0  0  0  0  0  2  0  0  0  0  0  0
  188.7420  177.2950  141.2840 N   0  0  0  0  0  2  0  0  0  0  0  0
  190.8480  176.9280  142.5290 C   0  0  0  0  0  0  0  0  0  0  0  0
  191.5330  177.3860  141.5760 O   0  0  0  0  0  0  0  0  0  0  0  0
  191.4990  176.4590  143.7040 N   0  0  0  0  0  1  0  0  0  0  0  0
  189.4220  176.8800  142.4400 N   0  0  0  0  0  2  0  0  0  0  0  0
  2 11  1  0  0  0  0
  2 16  1  1  0  0  0
  3  6  1  0  0  0  0
  3  2  1  0  0  0  0
  4  1  1  0  0  0  0
  5  7  1  0  0  0  0
  5  8  1  0  0  0  0
  6  1  1  0  0  0  0
  8 19  1  6  0  0  0
  8  4  1  0  0  0  0
  9  3  2  0  0  0  0
 10  7  1  6  0  0  0
 10  2  1  0  0  0  0
 10 11  1  0  0  0  0
 11 34  1  1  0  0  0
 12 16  2  0  0  0  0
 12 15  1  0  0  0  0
 13 18  2  0  0  0  0
 14 15  1  0  0  0  0
 15 17  2  0  0  0  0
 16 13  1  0  0  0  0
 17 18  1  0  0  0  0
 19 20  1  6  0  0  0
 19 22  1  0  0  0  0
 22 28  1  0  0  0  0
 22 21  1  1  0  0  0
 23 29  1  0  0  0  0
 23 31  2  0  0  0  0
 25 26  1  6  0  0  0
 25 24  1  0  0  0  0
 25 27  1  0  0  0  0
 26 27  1  0  0  0  0
 28 24  1  0  0  0  0
 29 28  2  0  0  0  0
 30 31  1  0  0  0  0
 31 25  1  0  0  0  0
 33 22  1  0  0  0  0
 33 32  1  0  0  0  0
 34 42  1  0  0  0  0
 37 43  1  0  0  0  0
 37 38  2  0  0  0  0
 38 35  1  0  0  0  0
 39 38  1  0  0  0  0
 39 36  1  1  0  0  0
 40 39  1  0  0  0  0
 41 37  1  0  0  0  0
 42 41  2  0  0  0  0
 42 40  1  0  0  0  0
 44 43  1  0  0  0  0
 44 48  1  0  0  0  0
 45 47  1  0  0  0  0
 46 45  2  0  0  0  0
 48 45  1  0  0  0  0
M  END
>  <MODEL>
2

>  <REMARK>
 VINA RESULT:      -7.5      1.587      2.259
  Name = 
  10 active torsions:
  status: ('A' for Active; 'I' for Inactive)
    1  A    between atoms: C_5  and  C_38
    2  A    between atoms: C_12  and  C_28
    3  A    between atoms: C_13  and  C_41
    4  A    between atoms: C_25  and  C_35
    5  A    between atoms: C_25  and  C_41
    6  A    between atoms: C_26  and  C_41
    7  A    between atoms: N_30  and  C_38
    8  A    between atoms: N_30  and  N_39
    9  A    between atoms: O_42  and  C_46
   10  A    between atoms: O_42  and  C_47
                            x       y       z     vdW  Elec       q    Type
                         _______ _______ _______ _____ _____    ______ ____

>  <TORSDO>
F 10

$$$$
=
 OpenBabel11062415263D

 48 53  0  0  1  0  0  0  0  0999 V2000
  191.1430  178.6470  142.0830 C   0  0  0  0  0  2  0  0  0  0  0  0
  189.3970  177.4810  144.4770 C   0  0  2  0  0  0  0  0  0  0  0  0
  190.9140  177.6090  144.4470 C   0  0  0  0  0  0  0  0  0  0  0  0
  191.2860  177.5110  141.0800 C   0  0  0  0  0  2  0  0  0  0  0  0
  189.5170  175.6700  141.2810 C   0  0  0  0  0  2  0  0  0  0  0  0
  191.6530  178.2390  143.3850 N   0  0  0  0  0  2  0  0  0  0  0  0
  189.7880  175.6100  142.7820 C   0  0  0  0  0  2  0  0  0  0  0  0
  189.9020  177.0150  140.6590 C   0  0  2  0  0  3  0  0  0  0  0  0
  191.5640  177.1460  145.4220 O   0  0  0  0  0  0  0  0  0  0  0  0
  188.7590  176.3670  143.6320 C   0  0  2  0  0  3  0  0  0  0  0  0
  188.6090  177.8300  143.2210 C   0  0  1  0  0  3  0  0  0  0  0  0
  187.3370  177.9760  145.8510 C   0  0  0  0  0  3  0  0  0  0  0  0
  189.4640  177.7200  146.9810 C   0  0  0  0  0  3  0  0  0  0  0  0
  185.2490  178.4570  147.1350 C   0  0  0  0  0  1  0  0  0  0  0  0
  186.7110  178.2010  147.0800 C   0  0  0  0  0  0  0  0  0  0  0  0
  188.7190  177.7490  145.7930 C   0  0  0  0  0  0  0  0  0  0  0  0
  187.4610  178.1860  148.2610 C   0  0  0  0  0  3  0  0  0  0  0  0
  188.8370  177.9420  148.2100 C   0  0  0  0  0  3  0  0  0  0  0  0
  189.6610  177.0440  139.1380 C   0  0  1  0  0  3  0  0  0  0  0  0
  189.7740  178.4770  138.6370 C   0  0  0  0  0  1  0  0  0  0  0  0
  191.3440  175.3180  139.1110 O   0  0  0  0  0  1  0  0  0  0  0  0
  190.4970  176.0550  138.2710 C   0  0  1  0  0  0  0  0  0  0  0  0
  189.2110  173.0350  136.2170 C   0  0  0  0  0  3  0  0  0  0  0  0
  188.2010  175.4220  137.3460 N   0  0  0  0  0  2  0  0  0  0  0  0
  187.3150  174.5240  136.6170 C   0  0  1  0  0  0  0  0  0  0  0  0
  185.8610  174.7120  136.7760 C   0  0  0  0  0  2  0  0  0  0  0  0
  186.5630  175.2270  135.6630 O   0  0  0  0  0  0  0  0  0  0  0  0
  189.5970  175.1140  137.4870 C   0  0  0  0  0  0  0  0  0  0  0  0
  190.0790  173.9790  136.9530 C   0  0  0  0  0  3  0  0  0  0  0  0
  187.1350  172.3700  135.3980 F   0  0  0  0  0  0  0  0  0  0  0  0
  187.9100  173.2730  136.0510 C   0  0  0  0  0  0  0  0  0  0  0  0
  192.8800  176.4740  137.4100 C   0  0  0  0  0  1  0  0  0  0  0  0
  191.4010  176.8180  137.2890 C   0  0  0  0  0  2  0  0  0  0  0  0
  187.2830  178.2520  143.5120 O   0  0  0  0  0  0  0  0  0  0  0  0
  183.3430  178.8030  139.5220 O   0  0  0  0  0  1  0  0  0  0  0  0
  186.0090  178.7880  138.8310 F   0  0  0  0  0  0  0  0  0  0  0  0
  184.0090  178.7170  141.8010 C   0  0  0  0  0  0  0  0  0  0  0  0
  184.3230  178.6290  140.4970 C   0  0  0  0  0  0  0  0  0  0  0  0
  185.7240  178.2610  140.0760 C   0  0  2  0  0  3  0  0  0  0  0  0
  186.7690  178.7500  141.0850 C   0  0  0  0  0  2  0  0  0  0  0  0
  185.0470  178.5170  142.8310 C   0  0  0  0  0  3  0  0  0  0  0  0
  186.3410  178.4820  142.5070 C   0  0  0  0  0  0  0  0  0  0  0  0
  182.6000  178.9490  142.2360 C   0  0  0  0  0  2  0  0  0  0  0  0
  182.3720  178.3270  143.5320 N   0  0  0  0  0  2  0  0  0  0  0  0
  179.9700  178.5670  144.0710 C   0  0  0  0  0  0  0  0  0  0  0  0
  179.6920  177.4930  143.4740 O   0  0  0  0  0  0  0  0  0  0  0  0
  178.9310  179.3270  144.6770 N   0  0  0  0  0  1  0  0  0  0  0  0
  181.3220  179.0240  144.1490 N   0  0  0  0  0  2  0  0  0  0  0  0
  1  6  1  0  0  0  0
  2 16  1  1  0  0  0
  3  2  1  0  0  0  0
  3  9  2  0  0  0  0
  4  1  1  0  0  0  0
  5  7  1  0  0  0  0
  6  3  1  0  0  0  0
  8 19  1  6  0  0  0
  8  4  1  0  0  0  0
  8  5  1  0  0  0  0
 10  7  1  6  0  0  0
 10  2  1  0  0  0  0
 11 34  1  1  0  0  0
 11 10  1  0  0  0  0
 11  2  1  0  0  0  0
 12 15  1  0  0  0  0
 13 18  2  0  0  0  0
 15 14  1  0  0  0  0
 15 17  2  0  0  0  0
 16 12  2  0  0  0  0
 16 13  1  0  0  0  0
 18 17  1  0  0  0  0
 19 20  1  6  0  0  0
 22 21  1  1  0  0  0
 22 19  1  0  0  0  0
 23 29  1  0  0  0  0
 24 28  1  0  0  0  0
 25 26  1  1  0  0  0
 25 24  1  0  0  0  0
 27 25  1  0  0  0  0
 27 26  1  0  0  0  0
 28 22  1  0  0  0  0
 29 28  2  0  0  0  0
 30 31  1  0  0  0  0
 31 23  2  0  0  0  0
 31 25  1  0  0  0  0
 33 32  1  0  0  0  0
 33 22  1  0  0  0  0
 35 38  1  0  0  0  0
 37 43  1  0  0  0  0
 37 41  1  0  0  0  0
 38 37  2  0  0  0  0
 39 36  1  6  0  0  0
 39 38  1  0  0  0  0
 39 40  1  0  0  0  0
 40 42  1  0  0  0  0
 42 41  2  0  0  0  0
 42 34  1  0  0  0  0
 43 44  1  0  0  0  0
 44 48  1  0  0  0  0
 45 48  1  0  0  0  0
 45 47  1  0  0  0  0
 46 45  2  0  0  0  0
M  END
>  <MODEL>
3

>  <REMARK>
 VINA RESULT:      -6.5      3.026      7.454
  Name = 
  10 active torsions:
  status: ('A' for Active; 'I' for Inactive)
    1  A    between atoms: C_5  and  C_38
    2  A    between atoms: C_12  and  C_28
    3  A    between atoms: C_13  and  C_41
    4  A    between atoms: C_25  and  C_35
    5  A    between atoms: C_25  and  C_41
    6  A    between atoms: C_26  and  C_41
    7  A    between atoms: N_30  and  C_38
    8  A    between atoms: N_30  and  N_39
    9  A    between atoms: O_42  and  C_46
   10  A    between atoms: O_42  and  C_47
                            x       y       z     vdW  Elec       q    Type
                         _______ _______ _______ _____ _____    ______ ____

>  <TORSDO>
F 10

$$$$
=
 OpenBabel11062415263D

 48 53  0  0  1  0  0  0  0  0999 V2000
  189.0630  179.5300  141.3600 C   0  0  0  0  0  2  0  0  0  0  0  0
  189.9350  177.6490  143.7760 C   0  0  2  0  0  0  0  0  0  0  0  0
  190.7200  178.8330  143.2270 C   0  0  0  0  0  0  0  0  0  0  0  0
  189.4370  178.7790  140.0900 C   0  0  0  0  0  2  0  0  0  0  0  0
  189.7270  176.2510  140.3830 C   0  0  0  0  0  2  0  0  0  0  0  0
  190.2370  179.7190  142.2010 N   0  0  0  0  0  2  0  0  0  0  0  0
  190.6230  176.5200  141.5900 C   0  0  0  0  0  2  0  0  0  0  0  0
  188.7660  177.4050  140.0850 C   0  0  2  0  0  3  0  0  0  0  0  0
  191.8600  179.0590  143.7120 O   0  0  0  0  0  0  0  0  0  0  0  0
  189.9130  176.3590  142.9400 C   0  0  2  0  0  3  0  0  0  0  0  0
  188.6590  177.2220  143.0610 C   0  0  1  0  0  3  0  0  0  0  0  0
  190.9640  176.6410  145.8510 C   0  0  0  0  0  3  0  0  0  0  0  0
  189.0420  178.0950  146.0850 C   0  0  0  0  0  3  0  0  0  0  0  0
  192.0490  175.6100  147.8500 C   0  0  0  0  0  1  0  0  0  0  0  0
  191.0060  176.4720  147.2370 C   0  0  0  0  0  0  0  0  0  0  0  0
  189.9730  177.4420  145.2660 C   0  0  0  0  0  0  0  0  0  0  0  0
  190.0650  177.1150  148.0490 C   0  0  0  0  0  3  0  0  0  0  0  0
  189.0860  177.9290  147.4720 C   0  0  0  0  0  3  0  0  0  0  0  0
  187.8990  177.1350  138.8400 C   0  0  1  0  0  3  0  0  0  0  0  0
  186.6380  177.9850  138.9110 C   0  0  0  0  0  1  0  0  0  0  0  0
  189.1280  178.5360  137.3120 O   0  0  0  0  0  1  0  0  0  0  0  0
  188.6010  177.2450  137.4530 C   0  0  1  0  0  0  0  0  0  0  0  0
  190.4870  173.8940  137.0000 C   0  0  0  0  0  3  0  0  0  0  0  0
  191.0790  176.6430  137.2950 N   0  0  0  0  0  2  0  0  0  0  0  0
  192.1560  175.6740  137.1410 C   0  0  1  0  0  0  0  0  0  0  0  0
  193.4980  176.1840  136.8060 C   0  0  0  0  0  2  0  0  0  0  0  0
  193.1360  175.8520  138.1310 O   0  0  0  0  0  0  0  0  0  0  0  0
  189.7080  176.2130  137.3140 C   0  0  0  0  0  0  0  0  0  0  0  0
  189.4250  174.9070  137.1720 C   0  0  0  0  0  3  0  0  0  0  0  0
  192.7250  173.2850  136.7890 F   0  0  0  0  0  0  0  0  0  0  0  0
  191.7760  174.2350  136.9800 C   0  0  0  0  0  0  0  0  0  0  0  0
  188.0870  177.5270  134.9530 C   0  0  0  0  0  1  0  0  0  0  0  0
  187.5890  177.0510  136.3120 C   0  0  0  0  0  2  0  0  0  0  0  0
  187.7400  176.5740  143.9300 O   0  0  0  0  0  0  0  0  0  0  0  0
  183.0440  179.3330  145.3720 O   0  0  0  0  0  1  0  0  0  0  0  0
  184.5860  178.1310  147.3130 F   0  0  0  0  0  0  0  0  0  0  0  0
  184.5070  178.4100  143.7420 C   0  0  0  0  0  0  0  0  0  0  0  0
  184.2270  178.6810  145.0290 C   0  0  0  0  0  0  0  0  0  0  0  0
  185.2280  178.3540  146.1100 C   0  0  2  0  0  3  0  0  0  0  0  0
  186.0730  177.1280  145.7510 C   0  0  0  0  0  2  0  0  0  0  0  0
  185.7680  177.7330  143.3820 C   0  0  0  0  0  3  0  0  0  0  0  0
  186.5380  177.1690  144.3150 C   0  0  0  0  0  0  0  0  0  0  0  0
  183.5880  178.8460  142.6510 C   0  0  0  0  0  2  0  0  0  0  0  0
  184.3050  178.8830  141.3840 N   0  0  0  0  0  2  0  0  0  0  0  0
  183.3080  179.5190  139.2120 C   0  0  0  0  0  0  0  0  0  0  0  0
  184.1430  180.4500  139.0600 O   0  0  0  0  0  0  0  0  0  0  0  0
  182.3080  179.3000  138.2230 N   0  0  0  0  0  1  0  0  0  0  0  0
  183.3610  178.6770  140.3660 N   0  0  0  0  0  2  0  0  0  0  0  0
  1  6  1  0  0  0  0
  2 16  1  1  0  0  0
  3  9  2  0  0  0  0
  3  2  1  0  0  0  0
  4  1  1  0  0  0  0
  5  7  1  0  0  0  0
  6  3  1  0  0  0  0
  8 19  1  6  0  0  0
  8  4  1  0  0  0  0
  8  5  1  0  0  0  0
 10  7  1  6  0  0  0
 10 11  1  0  0  0  0
 10  2  1  0  0  0  0
 11  2  1  0  0  0  0
 11 34  1  1  0  0  0
 12 15  1  0  0  0  0
 13 18  2  0  0  0  0
 15 14  1  0  0  0  0
 15 17  2  0  0  0  0
 16 12  2  0  0  0  0
 16 13  1  0  0  0  0
 18 17  1  0  0  0  0
 19 20  1  6  0  0  0
 22 21  1  6  0  0  0
 22 19  1  0  0  0  0
 23 29  1  0  0  0  0
 24 28  1  0  0  0  0
 25 26  1  6  0  0  0
 25 24  1  0  0  0  0
 25 27  1  0  0  0  0
 26 27  1  0  0  0  0
 28 22  1  0  0  0  0
 29 28  2  0  0  0  0
 30 31  1  0  0  0  0
 31 23  2  0  0  0  0
 31 25  1  0  0  0  0
 32 33  1  0  0  0  0
 33 22  1  0  0  0  0
 34 42  1  0  0  0  0
 37 38  2  0  0  0  0
 38 35  1  0  0  0  0
 38 39  1  0  0  0  0
 39 36  1  1  0  0  0
 40 39  1  0  0  0  0
 41 37  1  0  0  0  0
 41 42  2  0  0  0  0
 42 40  1  0  0  0  0
 43 37  1  0  0  0  0
 44 43  1  0  0  0  0
 45 48  1  0  0  0  0
 46 45  2  0  0  0  0
 47 45  1  0  0  0  0
 48 44  1  0  0  0  0
M  END
>  <MODEL>
4

>  <REMARK>
 VINA RESULT:      -6.4      2.768      7.211
  Name = 
  10 active torsions:
  status: ('A' for Active; 'I' for Inactive)
    1  A    between atoms: C_5  and  C_38
    2  A    between atoms: C_12  and  C_28
    3  A    between atoms: C_13  and  C_41
    4  A    between atoms: C_25  and  C_35
    5  A    between atoms: C_25  and  C_41
    6  A    between atoms: C_26  and  C_41
    7  A    between atoms: N_30  and  C_38
    8  A    between atoms: N_30  and  N_39
    9  A    between atoms: O_42  and  C_46
   10  A    between atoms: O_42  and  C_47
                            x       y       z     vdW  Elec       q    Type
                         _______ _______ _______ _____ _____    ______ ____

>  <TORSDO>
F 10

$$$$
=
 OpenBabel11062415263D

 48 53  0  0  1  0  0  0  0  0999 V2000
  191.1520  178.5520  142.2330 C   0  0  0  0  0  2  0  0  0  0  0  0
  189.4650  177.4960  144.7170 C   0  0  2  0  0  0  0  0  0  0  0  0
  190.9690  177.3550  144.5240 C   0  0  0  0  0  0  0  0  0  0  0  0
  190.9810  177.5070  141.1380 C   0  0  0  0  0  2  0  0  0  0  0  0
  188.9290  175.9990  141.4030 C   0  0  0  0  0  2  0  0  0  0  0  0
  191.7040  177.9400  143.4340 N   0  0  0  0  0  2  0  0  0  0  0  0
  189.3300  175.7520  142.8550 C   0  0  0  0  0  2  0  0  0  0  0  0
  189.4950  177.3060  140.8420 C   0  0  2  0  0  3  0  0  0  0  0  0
  191.6130  176.6940  145.3820 O   0  0  0  0  0  0  0  0  0  0  0  0
  188.5500  176.5970  143.8700 C   0  0  2  0  0  3  0  0  0  0  0  0
  188.6360  178.0950  143.5880 C   0  0  1  0  0  3  0  0  0  0  0  0
  187.6300  178.0320  146.3680 C   0  0  0  0  0  3  0  0  0  0  0  0
  189.8780  177.6700  147.1930 C   0  0  0  0  0  3  0  0  0  0  0  0
  185.7550  178.5560  147.9330 C   0  0  0  0  0  1  0  0  0  0  0  0
  187.1860  178.2490  147.6750 C   0  0  0  0  0  0  0  0  0  0  0  0
  188.9820  177.7550  146.1180 C   0  0  0  0  0  0  0  0  0  0  0  0
  188.0870  178.1770  148.7420 C   0  0  0  0  0  3  0  0  0  0  0  0
  189.4330  177.8840  148.5000 C   0  0  0  0  0  3  0  0  0  0  0  0
  189.1140  177.5200  139.3650 C   0  0  1  0  0  3  0  0  0  0  0  0
  189.4310  178.9540  138.9650 C   0  0  0  0  0  1  0  0  0  0  0  0
  190.3360  175.4690  139.0290 O   0  0  0  0  0  1  0  0  0  0  0  0
  189.6710  176.4900  138.3360 C   0  0  1  0  0  0  0  0  0  0  0  0
  187.6270  174.1200  136.0580 C   0  0  0  0  0  3  0  0  0  0  0  0
  187.3000  176.5920  137.3900 N   0  0  0  0  0  2  0  0  0  0  0  0
  186.2090  176.0350  136.6010 C   0  0  1  0  0  0  0  0  0  0  0  0
  184.8620  176.6030  136.7910 C   0  0  0  0  0  2  0  0  0  0  0  0
  185.6910  176.9940  135.7160 O   0  0  0  0  0  0  0  0  0  0  0  0
  188.5560  175.9010  137.4890 C   0  0  0  0  0  0  0  0  0  0  0  0
  188.7130  174.7250  136.8580 C   0  0  0  0  0  3  0  0  0  0  0  0
  185.4570  174.1210  135.2120 F   0  0  0  0  0  0  0  0  0  0  0  0
  186.4430  174.7190  135.9270 C   0  0  0  0  0  0  0  0  0  0  0  0
  192.0240  176.3840  137.3110 C   0  0  0  0  0  1  0  0  0  0  0  0
  190.7090  177.1480  137.4120 C   0  0  0  0  0  2  0  0  0  0  0  0
  187.4470  178.7170  144.0590 O   0  0  0  0  0  0  0  0  0  0  0  0
  182.5480  178.5460  141.2820 O   0  0  0  0  0  1  0  0  0  0  0  0
  182.5880  178.2600  144.0210 F   0  0  0  0  0  0  0  0  0  0  0  0
  184.9230  178.5890  141.3250 C   0  0  0  0  0  0  0  0  0  0  0  0
  183.7500  178.6240  141.9810 C   0  0  0  0  0  0  0  0  0  0  0  0
  183.7220  178.8320  143.4750 C   0  0  2  0  0  3  0  0  0  0  0  0
  184.9630  178.2450  144.1550 C   0  0  0  0  0  2  0  0  0  0  0  0
  186.1940  178.6880  142.0680 C   0  0  0  0  0  3  0  0  0  0  0  0
  186.2250  178.5780  143.3970 C   0  0  0  0  0  0  0  0  0  0  0  0
  184.9650  178.5180  139.8350 C   0  0  0  0  0  2  0  0  0  0  0  0
  184.5180  179.7810  139.2660 N   0  0  0  0  0  2  0  0  0  0  0  0
  182.3330  180.4850  138.3450 C   0  0  0  0  0  0  0  0  0  0  0  0
  182.4480  181.6320  138.8510 O   0  0  0  0  0  0  0  0  0  0  0  0
  181.1650  180.1550  137.6010 N   0  0  0  0  0  1  0  0  0  0  0  0
  183.3680  179.5130  138.5070 N   0  0  0  0  0  2  0  0  0  0  0  0
  1  6  1  0  0  0  0
  2 16  1  1  0  0  0
  3  2  1  0  0  0  0
  3  9  2  0  0  0  0
  4  1  1  0  0  0  0
  5  7  1  0  0  0  0
  6  3  1  0  0  0  0
  8 19  1  6  0  0  0
  8  4  1  0  0  0  0
  8  5  1  0  0  0  0
 10  7  1  6  0  0  0
 10  2  1  0  0  0  0
 11 10  1  0  0  0  0
 11 34  1  1  0  0  0
 11  2  1  0  0  0  0
 12 15  1  0  0  0  0
 13 18  2  0  0  0  0
 15 14  1  0  0  0  0
 15 17  2  0  0  0  0
 16 12  2  0  0  0  0
 16 13  1  0  0  0  0
 18 17  1  0  0  0  0
 19 20  1  6  0  0  0
 22 21  1  1  0  0  0
 22 19  1  0  0  0  0
 23 29  1  0  0  0  0
 24 28  1  0  0  0  0
 25 26  1  1  0  0  0
 25 24  1  0  0  0  0
 27 25  1  0  0  0  0
 27 26  1  0  0  0  0
 28 22  1  0  0  0  0
 29 28  2  0  0  0  0
 30 31  1  0  0  0  0
 31 23  2  0  0  0  0
 31 25  1  0  0  0  0
 32 33  1  0  0  0  0
 33 22  1  0  0  0  0
 35 38  1  0  0  0  0
 37 38  2  0  0  0  0
 37 41  1  0  0  0  0
 38 39  1  0  0  0  0
 39 36  1  1  0  0  0
 39 40  1  0  0  0  0
 41 42  2  0  0  0  0
 42 34  1  0  0  0  0
 42 40  1  0  0  0  0
 43 37  1  0  0  0  0
 44 43  1  0  0  0  0
 45 48  1  0  0  0  0
 45 46  2  0  0  0  0
 47 45  1  0  0  0  0
 48 44  1  0  0  0  0
M  END
>  <MODEL>
5

>  <REMARK>
 VINA RESULT:      -6.3      2.859      7.367
  Name = 
  10 active torsions:
  status: ('A' for Active; 'I' for Inactive)
    1  A    between atoms: C_5  and  C_38
    2  A    between atoms: C_12  and  C_28
    3  A    between atoms: C_13  and  C_41
    4  A    between atoms: C_25  and  C_35
    5  A    between atoms: C_25  and  C_41
    6  A    between atoms: C_26  and  C_41
    7  A    between atoms: N_30  and  C_38
    8  A    between atoms: N_30  and  N_39
    9  A    between atoms: O_42  and  C_46
   10  A    between atoms: O_42  and  C_47
                            x       y       z     vdW  Elec       q    Type
                         _______ _______ _______ _____ _____    ______ ____

>  <TORSDO>
F 10

$$$$
=
 OpenBabel11062415263D

 48 53  0  0  1  0  0  0  0  0999 V2000
  189.0680  179.5160  141.3740 C   0  0  0  0  0  2  0  0  0  0  0  0
  189.9690  177.6260  143.7730 C   0  0  2  0  0  0  0  0  0  0  0  0
  190.7610  178.7930  143.1980 C   0  0  0  0  0  0  0  0  0  0  0  0
  189.3950  178.7530  140.0970 C   0  0  0  0  0  2  0  0  0  0  0  0
  189.6440  176.2210  140.3920 C   0  0  0  0  0  2  0  0  0  0  0  0
  190.2680  179.6850  142.1830 N   0  0  0  0  0  2  0  0  0  0  0  0
  190.5770  176.4770  141.5740 C   0  0  0  0  0  2  0  0  0  0  0  0
  188.6970  177.3920  140.1150 C   0  0  2  0  0  3  0  0  0  0  0  0
  191.9180  178.9990  143.6520 O   0  0  0  0  0  0  0  0  0  0  0  0
  189.9000  176.3340  142.9430 C   0  0  2  0  0  3  0  0  0  0  0  0
  188.6670  177.2210  143.0930 C   0  0  1  0  0  3  0  0  0  0  0  0
  191.0580  176.6390  145.8270 C   0  0  0  0  0  3  0  0  0  0  0  0
  189.1200  178.0650  146.1000 C   0  0  0  0  0  3  0  0  0  0  0  0
  192.2020  175.6300  147.8040 C   0  0  0  0  0  1  0  0  0  0  0  0
  191.1330  176.4750  147.2120 C   0  0  0  0  0  0  0  0  0  0  0  0
  190.0420  177.4230  145.2620 C   0  0  0  0  0  0  0  0  0  0  0  0
  190.2010  177.1050  148.0430 C   0  0  0  0  0  3  0  0  0  0  0  0
  189.1960  177.9020  147.4860 C   0  0  0  0  0  3  0  0  0  0  0  0
  187.7930  177.1340  138.8950 C   0  0  1  0  0  3  0  0  0  0  0  0
  186.8400  178.3090  138.7170 C   0  0  0  0  0  1  0  0  0  0  0  0
  189.8710  177.0120  137.6800 O   0  0  0  0  0  1  0  0  0  0  0  0
  188.5000  176.7470  137.5610 C   0  0  1  0  0  0  0  0  0  0  0  0
  189.1250  173.0360  136.6550 C   0  0  0  0  0  3  0  0  0  0  0  0
  186.9490  174.7400  137.2480 N   0  0  0  0  0  2  0  0  0  0  0  0
  186.7170  173.3330  136.9520 C   0  0  1  0  0  0  0  0  0  0  0  0
  185.4020  172.7640  137.2990 C   0  0  0  0  0  2  0  0  0  0  0  0
  185.7110  173.1830  135.9860 O   0  0  0  0  0  0  0  0  0  0  0  0
  188.2800  175.2810  137.2270 C   0  0  0  0  0  0  0  0  0  0  0  0
  189.3160  174.4720  136.9470 C   0  0  0  0  0  3  0  0  0  0  0  0
  187.7750  171.1540  136.4130 F   0  0  0  0  0  0  0  0  0  0  0  0
  187.9120  172.4820  136.6540 C   0  0  0  0  0  0  0  0  0  0  0  0
  188.9180  177.6610  135.1980 C   0  0  0  0  0  1  0  0  0  0  0  0
  187.9810  177.6090  136.3980 C   0  0  0  0  0  2  0  0  0  0  0  0
  187.7590  176.5930  143.9890 O   0  0  0  0  0  0  0  0  0  0  0  0
  183.0250  179.3330  145.3380 O   0  0  0  0  0  1  0  0  0  0  0  0
  184.5520  178.1700  147.3130 F   0  0  0  0  0  0  0  0  0  0  0  0
  184.5130  178.4010  143.7380 C   0  0  0  0  0  0  0  0  0  0  0  0
  184.2160  178.6870  145.0180 C   0  0  0  0  0  0  0  0  0  0  0  0
  185.2070  178.3830  146.1150 C   0  0  2  0  0  3  0  0  0  0  0  0
  186.0660  177.1580  145.7820 C   0  0  0  0  0  2  0  0  0  0  0  0
  185.7840  177.7290  143.4030 C   0  0  0  0  0  3  0  0  0  0  0  0
  186.5470  177.1840  144.3520 C   0  0  0  0  0  0  0  0  0  0  0  0
  183.6050  178.8150  142.6300 C   0  0  0  0  0  2  0  0  0  0  0  0
  184.3480  178.8890  141.3810 N   0  0  0  0  0  2  0  0  0  0  0  0
  183.3500  179.4710  139.1940 C   0  0  0  0  0  0  0  0  0  0  0  0
  184.1170  180.4630  139.0670 O   0  0  0  0  0  0  0  0  0  0  0  0
  182.3890  179.1890  138.1820 N   0  0  0  0  0  1  0  0  0  0  0  0
  183.4420  178.6250  140.3410 N   0  0  0  0  0  2  0  0  0  0  0  0
  1  6  1  0  0  0  0
  2 16  1  1  0  0  0
  3  9  2  0  0  0  0
  3  2  1  0  0  0  0
  4  8  1  0  0  0  0
  4  1  1  0  0  0  0
  5  7  1  0  0  0  0
  6  3  1  0  0  0  0
  8 19  1  6  0  0  0
  8  5  1  0  0  0  0
 10  7  1  6  0  0  0
 10 11  1  0  0  0  0
 10  2  1  0  0  0  0
 11  2  1  0  0  0  0
 11 34  1  1  0  0  0
 12 15  1  0  0  0  0
 13 18  2  0  0  0  0
 15 14  1  0  0  0  0
 15 17  2  0  0  0  0
 16 12  2  0  0  0  0
 16 13  1  0  0  0  0
 18 17  1  0  0  0  0
 19 20  1  6  0  0  0
 22 21  1  1  0  0  0
 22 19  1  0  0  0  0
 23 29  1  0  0  0  0
 25 24  1  0  0  0  0
 25 26  1  1  0  0  0
 27 25  1  0  0  0  0
 27 26  1  0  0  0  0
 28 24  1  0  0  0  0
 28 22  1  0  0  0  0
 29 28  2  0  0  0  0
 30 31  1  0  0  0  0
 31 23  2  0  0  0  0
 31 25  1  0  0  0  0
 32 33  1  0  0  0  0
 33 22  1  0  0  0  0
 34 42  1  0  0  0  0
 37 38  2  0  0  0  0
 38 35  1  0  0  0  0
 38 39  1  0  0  0  0
 39 36  1  1  0  0  0
 40 39  1  0  0  0  0
 41 37  1  0  0  0  0
 41 42  2  0  0  0  0
 42 40  1  0  0  0  0
 43 37  1  0  0  0  0
 44 43  1  0  0  0  0
 45 48  1  0  0  0  0
 46 45  2  0  0  0  0
 47 45  1  0  0  0  0
 48 44  1  0  0  0  0
M  END
>  <MODEL>
6

>  <REMARK>
 VINA RESULT:      -6.3      2.889      7.375
  Name = 
  10 active torsions:
  status: ('A' for Active; 'I' for Inactive)
    1  A    between atoms: C_5  and  C_38
    2  A    between atoms: C_12  and  C_28
    3  A    between atoms: C_13  and  C_41
    4  A    between atoms: C_25  and  C_35
    5  A    between atoms: C_25  and  C_41
    6  A    between atoms: C_26  and  C_41
    7  A    between atoms: N_30  and  C_38
    8  A    between atoms: N_30  and  N_39
    9  A    between atoms: O_42  and  C_46
   10  A    between atoms: O_42  and  C_47
                            x       y       z     vdW  Elec       q    Type
                         _______ _______ _______ _____ _____    ______ ____

>  <TORSDO>
F 10

$$$$
=
 OpenBabel11062415263D

 48 53  0  0  1  0  0  0  0  0999 V2000
  191.0940  178.6320  142.0810 C   0  0  0  0  0  2  0  0  0  0  0  0
  189.4420  177.4790  144.5460 C   0  0  2  0  0  0  0  0  0  0  0  0
  190.9570  177.6030  144.4560 C   0  0  0  0  0  0  0  0  0  0  0  0
  191.1950  177.4920  141.0770 C   0  0  0  0  0  2  0  0  0  0  0  0
  189.4300  175.6570  141.3540 C   0  0  0  0  0  2  0  0  0  0  0  0
  191.6540  178.2270  143.3630 N   0  0  0  0  0  2  0  0  0  0  0  0
  189.7600  175.6010  142.8440 C   0  0  0  0  0  2  0  0  0  0  0  0
  189.7940  176.9980  140.7120 C   0  0  2  0  0  3  0  0  0  0  0  0
  191.6420  177.1410  145.4060 O   0  0  0  0  0  0  0  0  0  0  0  0
  188.7670  176.3640  143.7300 C   0  0  2  0  0  3  0  0  0  0  0  0
  188.6050  177.8250  143.3210 C   0  0  1  0  0  3  0  0  0  0  0  0
  187.4520  178.0590  145.9900 C   0  0  0  0  0  3  0  0  0  0  0  0
  189.5900  177.6510  147.0510 C   0  0  0  0  0  3  0  0  0  0  0  0
  185.4320  178.6280  147.3440 C   0  0  0  0  0  1  0  0  0  0  0  0
  186.8740  178.2890  147.2410 C   0  0  0  0  0  0  0  0  0  0  0  0
  188.8160  177.7530  145.8870 C   0  0  0  0  0  0  0  0  0  0  0  0
  187.6540  178.2010  148.3990 C   0  0  0  0  0  3  0  0  0  0  0  0
  189.0110  177.8790  148.3030 C   0  0  0  0  0  3  0  0  0  0  0  0
  189.4930  177.0230  139.2020 C   0  0  1  0  0  3  0  0  0  0  0  0
  189.4510  178.4660  138.7200 C   0  0  0  0  0  1  0  0  0  0  0  0
  191.3570  175.4990  139.0800 O   0  0  0  0  0  1  0  0  0  0  0  0
  190.3850  176.1280  138.2890 C   0  0  1  0  0  0  0  0  0  0  0  0
  189.3440  173.0070  136.2490 C   0  0  0  0  0  3  0  0  0  0  0  0
  188.1210  175.1870  137.5700 N   0  0  0  0  0  2  0  0  0  0  0  0
  187.3040  174.1870  136.8960 C   0  0  1  0  0  0  0  0  0  0  0  0
  185.8630  174.1540  137.2040 C   0  0  0  0  0  2  0  0  0  0  0  0
  186.3630  174.7960  136.0500 O   0  0  0  0  0  0  0  0  0  0  0  0
  189.5550  175.0860  137.5600 C   0  0  0  0  0  0  0  0  0  0  0  0
  190.1370  174.0490  136.9340 C   0  0  0  0  0  3  0  0  0  0  0  0
  187.3130  172.0640  135.6120 F   0  0  0  0  0  0  0  0  0  0  0  0
  188.0120  173.0530  136.2220 C   0  0  0  0  0  0  0  0  0  0  0  0
  192.6250  176.6640  137.1530 C   0  0  0  0  0  1  0  0  0  0  0  0
  191.1390  176.9820  137.2560 C   0  0  0  0  0  2  0  0  0  0  0  0
  187.2930  178.2520  143.6620 O   0  0  0  0  0  0  0  0  0  0  0  0
  183.3090  179.1030  139.7700 O   0  0  0  0  0  1  0  0  0  0  0  0
  182.5950  178.5710  142.3760 F   0  0  0  0  0  0  0  0  0  0  0  0
  185.5750  178.7680  140.3990 C   0  0  0  0  0  0  0  0  0  0  0  0
  184.2870  178.9290  140.7470 C   0  0  0  0  0  0  0  0  0  0  0  0
  183.8960  179.0030  142.2020 C   0  0  2  0  0  3  0  0  0  0  0  0
  184.8310  178.1710  143.0860 C   0  0  0  0  0  2  0  0  0  0  0  0
  186.6100  178.5990  141.4370 C   0  0  0  0  0  3  0  0  0  0  0  0
  186.2790  178.3670  142.7090 C   0  0  0  0  0  0  0  0  0  0  0  0
  185.9950  178.8250  138.9680 C   0  0  0  0  0  2  0  0  0  0  0  0
  185.8020  177.5250  138.3420 N   0  0  0  0  0  2  0  0  0  0  0  0
  183.7740  177.1270  136.9820 C   0  0  0  0  0  0  0  0  0  0  0  0
  183.2630  176.4160  137.8870 O   0  0  0  0  0  0  0  0  0  0  0  0
  183.0690  177.3330  135.7620 N   0  0  0  0  0  1  0  0  0  0  0  0
  185.0540  177.7340  137.1720 N   0  0  0  0  0  2  0  0  0  0  0  0
  1  6  1  0  0  0  0
  2 16  1  1  0  0  0
  3  2  1  0  0  0  0
  3  9  2  0  0  0  0
  4  1  1  0  0  0  0
  5  7  1  0  0  0  0
  6  3  1  0  0  0  0
  8 19  1  6  0  0  0
  8  4  1  0  0  0  0
  8  5  1  0  0  0  0
 10  7  1  6  0  0  0
 10  2  1  0  0  0  0
 11 34  1  1  0  0  0
 11 10  1  0  0  0  0
 11  2  1  0  0  0  0
 12 15  1  0  0  0  0
 13 18  2  0  0  0  0
 15 14  1  0  0  0  0
 15 17  2  0  0  0  0
 16 12  2  0  0  0  0
 16 13  1  0  0  0  0
 18 17  1  0  0  0  0
 19 20  1  6  0  0  0
 22 21  1  1  0  0  0
 22 19  1  0  0  0  0
 23 29  1  0  0  0  0
 25 26  1  1  0  0  0
 25 24  1  0  0  0  0
 27 25  1  0  0  0  0
 27 26  1  0  0  0  0
 28 24  1  0  0  0  0
 28 22  1  0  0  0  0
 29 28  2  0  0  0  0
 30 31  1  0  0  0  0
 31 23  2  0  0  0  0
 31 25  1  0  0  0  0
 32 33  1  0  0  0  0
 33 22  1  0  0  0  0
 35 38  1  0  0  0  0
 37 38  2  0  0  0  0
 37 41  1  0  0  0  0
 38 39  1  0  0  0  0
 39 36  1  6  0  0  0
 39 40  1  0  0  0  0
 41 42  2  0  0  0  0
 42 40  1  0  0  0  0
 42 34  1  0  0  0  0
 43 37  1  0  0  0  0
 44 43  1  0  0  0  0
 45 48  1  0  0  0  0
 45 46  2  0  0  0  0
 47 45  1  0  0  0  0
 48 44  1  0  0  0  0
M  END
>  <MODEL>
7

>  <REMARK>
 VINA RESULT:      -6.3      2.635      7.106
  Name = 
  10 active torsions:
  status: ('A' for Active; 'I' for Inactive)
    1  A    between atoms: C_5  and  C_38
    2  A    between atoms: C_12  and  C_28
    3  A    between atoms: C_13  and  C_41
    4  A    between atoms: C_25  and  C_35
    5  A    between atoms: C_25  and  C_41
    6  A    between atoms: C_26  and  C_41
    7  A    between atoms: N_30  and  C_38
    8  A    between atoms: N_30  and  N_39
    9  A    between atoms: O_42  and  C_46
   10  A    between atoms: O_42  and  C_47
                            x       y       z     vdW  Elec       q    Type
                         _______ _______ _______ _____ _____    ______ ____

>  <TORSDO>
F 10

$$$$
=
 OpenBabel11062415263D

 48 53  0  0  1  0  0  0  0  0999 V2000
  183.2140  177.9960  145.1370 C   0  0  0  0  0  2  0  0  0  0  0  0
  186.3720  178.3110  145.3860 C   0  0  2  0  0  0  0  0  0  0  0  0
  185.3280  178.9700  146.2770 C   0  0  0  0  0  0  0  0  0  0  0  0
  182.7850  178.9570  144.0370 C   0  0  0  0  0  2  0  0  0  0  0  0
  184.6520  179.6520  142.4280 C   0  0  0  0  0  2  0  0  0  0  0  0
  183.9150  178.7160  146.1920 N   0  0  0  0  0  2  0  0  0  0  0  0
  185.5360  179.9690  143.6310 C   0  0  0  0  0  2  0  0  0  0  0  0
  183.5460  178.6430  142.7490 C   0  0  2  0  0  3  0  0  0  0  0  0
  185.7300  179.7800  147.1540 O   0  0  0  0  0  0  0  0  0  0  0  0
  186.5520  178.8690  143.9650 C   0  0  2  0  0  3  0  0  0  0  0  0
  185.9030  177.5040  144.1820 C   0  0  1  0  0  3  0  0  0  0  0  0
  188.8910  178.1490  145.4960 C   0  0  0  0  0  3  0  0  0  0  0  0
  187.5750  177.1550  147.2690 C   0  0  0  0  0  3  0  0  0  0  0  0
  191.3860  178.0430  145.5310 C   0  0  0  0  0  1  0  0  0  0  0  0
  190.0630  177.7350  146.1330 C   0  0  0  0  0  0  0  0  0  0  0  0
  187.6400  177.8480  146.0520 C   0  0  0  0  0  0  0  0  0  0  0  0
  189.9930  177.0310  147.3400 C   0  0  0  0  0  3  0  0  0  0  0  0
  188.7480  176.7440  147.9090 C   0  0  0  0  0  3  0  0  0  0  0  0
  182.6400  178.3660  141.5350 C   0  0  1  0  0  3  0  0  0  0  0  0
  181.2700  178.9860  141.7770 C   0  0  0  0  0  1  0  0  0  0  0  0
  184.4510  179.3590  140.2930 O   0  0  0  0  0  1  0  0  0  0  0  0
  183.2070  178.7340  140.1310 C   0  0  1  0  0  0  0  0  0  0  0  0
  182.6860  175.2240  138.5830 C   0  0  0  0  0  3  0  0  0  0  0  0
  184.3140  177.5010  138.1860 N   0  0  0  0  0  0  0  0  0  0  0  0
  184.4590  176.3370  137.3220 C   0  0  1  0  0  0  0  0  0  0  0  0
  185.2070  176.5030  136.0630 C   0  0  0  0  0  2  0  0  0  0  0  0
  185.8060  175.9530  137.2190 O   0  0  0  0  0  0  0  0  0  0  0  0
  183.3560  177.5000  139.2570 C   0  0  0  0  0  0  0  0  0  0  0  0
  182.5800  176.4190  139.4460 C   0  0  0  0  0  2  0  0  0  0  0  0
  183.6120  174.0670  136.7870 F   0  0  0  0  0  0  0  0  0  0  0  0
  183.5620  175.1670  137.5790 C   0  0  0  0  0  0  0  0  0  0  0  0
  183.0400  180.8720  138.7180 C   0  0  0  0  0  1  0  0  0  0  0  0
  182.2930  179.7450  139.4190 C   0  0  0  0  0  2  0  0  0  0  0  0
  186.8300  176.4930  143.8100 O   0  0  0  0  0  0  0  0  0  0  0  0
  191.0880  177.3470  140.2220 O   0  0  0  0  0  1  0  0  0  0  0  0
  191.4900  175.8580  142.5040 F   0  0  0  0  0  0  0  0  0  0  0  0
  188.8780  177.7770  140.9780 C   0  0  0  0  0  0  0  0  0  0  0  0
  190.0330  177.0990  141.0950 C   0  0  0  0  0  0  0  0  0  0  0  0
  190.1690  176.0030  142.1240 C   0  0  2  0  0  3  0  0  0  0  0  0
  189.3100  176.2750  143.3630 C   0  0  0  0  0  2  0  0  0  0  0  0
  187.7560  177.5000  141.8970 C   0  0  0  0  0  3  0  0  0  0  0  0
  187.9300  176.7590  142.9920 C   0  0  0  0  0  0  0  0  0  0  0  0
  188.6810  178.7700  139.8820 C   0  0  0  0  0  2  0  0  0  0  0  0
  187.5770  178.3550  139.0300 N   0  0  0  0  0  2  0  0  0  0  0  0
  188.7780  177.6090  137.0000 C   0  0  0  0  0  0  0  0  0  0  0  0
  189.1140  176.5280  137.5530 O   0  0  0  0  0  0  0  0  0  0  0  0
  189.1950  177.8790  135.6660 N   0  0  0  0  0  1  0  0  0  0  0  0
  187.9760  178.5630  137.7000 N   0  0  0  0  0  2  0  0  0  0  0  0
  1  6  1  0  0  0  0
  2 16  1  1  0  0  0
  2  3  1  0  0  0  0
  3  9  2  0  0  0  0
  4  1  1  0  0  0  0
  5  8  1  0  0  0  0
  5  7  1  0  0  0  0
  6  3  1  0  0  0  0
  8 19  1  6  0  0  0
  8  4  1  0  0  0  0
 10  7  1  1  0  0  0
 10 11  1  0  0  0  0
 10  2  1  0  0  0  0
 11 34  1  6  0  0  0
 11  2  1  0  0  0  0
 12 16  2  0  0  0  0
 12 15  1  0  0  0  0
 13 18  2  0  0  0  0
 14 15  1  0  0  0  0
 15 17  2  0  0  0  0
 16 13  1  0  0  0  0
 17 18  1  0  0  0  0
 19 20  1  1  0  0  0
 22 21  1  1  0  0  0
 22 19  1  0  0  0  0
 23 29  1  0  0  0  0
 24 28  2  0  0  0  0
 25 26  1  6  0  0  0
 25 31  1  0  0  0  0
 25 24  1  0  0  0  0
 26 27  1  0  0  0  0
 27 25  1  0  0  0  0
 28 29  1  0  0  0  0
 28 22  1  0  0  0  0
 30 31  1  0  0  0  0
 31 23  2  0  0  0  0
 32 33  1  0  0  0  0
 33 22  1  0  0  0  0
 35 38  1  0  0  0  0
 37 38  2  0  0  0  0
 37 41  1  0  0  0  0
 38 39  1  0  0  0  0
 39 36  1  1  0  0  0
 39 40  1  0  0  0  0
 41 42  2  0  0  0  0
 42 40  1  0  0  0  0
 42 34  1  0  0  0  0
 43 37  1  0  0  0  0
 44 43  1  0  0  0  0
 45 46  2  0  0  0  0
 45 48  1  0  0  0  0
 47 45  1  0  0  0  0
 48 44  1  0  0  0  0
M  END
>  <MODEL>
8

>  <REMARK>
 VINA RESULT:      -6.2      2.919      7.117
  Name = 
  10 active torsions:
  status: ('A' for Active; 'I' for Inactive)
    1  A    between atoms: C_5  and  C_38
    2  A    between atoms: C_12  and  C_28
    3  A    between atoms: C_13  and  C_41
    4  A    between atoms: C_25  and  C_35
    5  A    between atoms: C_25  and  C_41
    6  A    between atoms: C_26  and  C_41
    7  A    between atoms: N_30  and  C_38
    8  A    between atoms: N_30  and  N_39
    9  A    between atoms: O_42  and  C_46
   10  A    between atoms: O_42  and  C_47
                            x       y       z     vdW  Elec       q    Type
                         _______ _______ _______ _____ _____    ______ ____

>  <TORSDO>
F 10

$$$$
=
 OpenBabel11062415263D

 48 53  0  0  1  0  0  0  0  0999 V2000
  187.2000  178.8730  136.8290 C   0  0  0  0  0  2  0  0  0  0  0  0
  189.5690  176.9000  137.6230 C   0  0  2  0  0  0  0  0  0  0  0  0
  189.4340  177.6650  136.3130 C   0  0  0  0  0  0  0  0  0  0  0  0
  186.0600  177.9850  136.3490 C   0  0  0  0  0  2  0  0  0  0  0  0
  186.1810  175.5560  137.1510 C   0  0  0  0  0  2  0  0  0  0  0  0
  188.3990  178.6270  136.0400 N   0  0  0  0  0  2  0  0  0  0  0  0
  187.6380  175.5060  136.6980 C   0  0  0  0  0  2  0  0  0  0  0  0
  185.6940  176.9780  137.4410 C   0  0  2  0  0  3  0  0  0  0  0  0
  190.2930  177.4530  135.4160 O   0  0  0  0  0  0  0  0  0  0  0  0
  188.6500  175.6860  137.8370 C   0  0  2  0  0  3  0  0  0  0  0  0
  188.4300  176.9710  138.6320 C   0  0  1  0  0  3  0  0  0  0  0  0
  191.9000  175.9290  137.5540 C   0  0  0  0  0  3  0  0  0  0  0  0
  191.3320  177.4890  139.3180 C   0  0  0  0  0  3  0  0  0  0  0  0
  194.1840  174.9300  137.4060 C   0  0  0  0  0  1  0  0  0  0  0  0
  193.1940  175.8180  138.0690 C   0  0  0  0  0  0  0  0  0  0  0  0
  190.9570  176.7540  138.1840 C   0  0  0  0  0  0  0  0  0  0  0  0
  193.5580  176.5410  139.2090 C   0  0  0  0  0  3  0  0  0  0  0  0
  192.6280  177.3790  139.8310 C   0  0  0  0  0  3  0  0  0  0  0  0
  184.2120  177.0140  137.8560 C   0  0  1  0  0  3  0  0  0  0  0  0
  183.8250  175.6690  138.4570 C   0  0  0  0  0  1  0  0  0  0  0  0
  184.8310  179.0940  138.9060 O   0  0  0  0  0  1  0  0  0  0  0  0
  183.7570  178.2060  138.7510 C   0  0  1  0  0  0  0  0  0  0  0  0
  180.6240  179.0170  136.6270 C   0  0  0  0  0  3  0  0  0  0  0  0
  182.2320  180.2500  138.5980 N   0  0  0  0  0  2  0  0  0  0  0  0
  181.0840  180.9550  138.0420 C   0  0  1  0  0  0  0  0  0  0  0  0
  180.5960  182.1470  138.7590 C   0  0  0  0  0  2  0  0  0  0  0  0
  181.4410  182.2490  137.6310 O   0  0  0  0  0  0  0  0  0  0  0  0
  182.5690  178.9300  138.1410 C   0  0  0  0  0  0  0  0  0  0  0  0
  181.8040  178.3410  137.2060 C   0  0  0  0  0  3  0  0  0  0  0  0
  179.1610  180.8230  136.4800 F   0  0  0  0  0  0  0  0  0  0  0  0
  180.2680  180.2440  137.0090 C   0  0  0  0  0  0  0  0  0  0  0  0
  182.2750  178.5340  140.8230 C   0  0  0  0  0  1  0  0  0  0  0  0
  183.3780  177.7190  140.1600 C   0  0  0  0  0  2  0  0  0  0  0  0
  188.8730  176.7640  139.9670 O   0  0  0  0  0  0  0  0  0  0  0  0
  186.1250  178.7720  144.4560 O   0  0  0  0  0  1  0  0  0  0  0  0
  185.4650  179.6530  141.9310 F   0  0  0  0  0  0  0  0  0  0  0  0
  187.8860  177.5130  143.4780 C   0  0  0  0  0  0  0  0  0  0  0  0
  186.7730  178.2530  143.3370 C   0  0  0  0  0  0  0  0  0  0  0  0
  186.1670  178.4630  141.9720 C   0  0  2  0  0  3  0  0  0  0  0  0
  187.2320  178.4630  140.8700 C   0  0  0  0  0  2  0  0  0  0  0  0
  188.5610  176.9520  142.2910 C   0  0  0  0  0  3  0  0  0  0  0  0
  188.2330  177.3510  141.0600 C   0  0  0  0  0  0  0  0  0  0  0  0
  188.4230  177.1850  144.8310 C   0  0  0  0  0  2  0  0  0  0  0  0
  189.6010  177.9930  145.1060 N   0  0  0  0  0  2  0  0  0  0  0  0
  190.9260  176.7480  146.7830 C   0  0  0  0  0  0  0  0  0  0  0  0
  190.2110  177.1830  147.7240 O   0  0  0  0  0  0  0  0  0  0  0  0
  192.0200  175.8830  147.0690 N   0  0  0  0  0  1  0  0  0  0  0  0
  190.6450  177.1120  145.4300 N   0  0  0  0  0  2  0  0  0  0  0  0
  2 10  1  0  0  0  0
  2 16  1  1  0  0  0
  2 11  1  0  0  0  0
  3  2  1  0  0  0  0
  4  1  1  0  0  0  0
  4  8  1  0  0  0  0
  5  8  1  0  0  0  0
  6  3  1  0  0  0  0
  6  1  1  0  0  0  0
  7  5  1  0  0  0  0
  8 19  1  6  0  0  0
  9  3  2  0  0  0  0
 10  7  1  6  0  0  0
 10 11  1  0  0  0  0
 11 34  1  1  0  0  0
 12 15  2  0  0  0  0
 12 16  1  0  0  0  0
 13 18  1  0  0  0  0
 14 15  1  0  0  0  0
 15 17  1  0  0  0  0
 16 13  2  0  0  0  0
 17 18  2  0  0  0  0
 19 20  1  1  0  0  0
 19 22  1  0  0  0  0
 22 21  1  1  0  0  0
 22 33  1  0  0  0  0
 23 31  2  0  0  0  0
 23 29  1  0  0  0  0
 25 24  1  0  0  0  0
 25 26  1  1  0  0  0
 27 25  1  0  0  0  0
 27 26  1  0  0  0  0
 28 24  1  0  0  0  0
 28 22  1  0  0  0  0
 29 28  2  0  0  0  0
 30 31  1  0  0  0  0
 31 25  1  0  0  0  0
 33 32  1  0  0  0  0
 34 42  1  0  0  0  0
 37 43  1  0  0  0  0
 38 37  2  0  0  0  0
 38 35  1  0  0  0  0
 39 36  1  1  0  0  0
 39 38  1  0  0  0  0
 40 42  1  0  0  0  0
 40 39  1  0  0  0  0
 41 37  1  0  0  0  0
 42 41  2  0  0  0  0
 43 44  1  0  0  0  0
 44 48  1  0  0  0  0
 45 47  1  0  0  0  0
 45 46  2  0  0  0  0
 48 45  1  0  0  0  0
M  END
>  <MODEL>
9

>  <REMARK>
 VINA RESULT:      -6.2      2.752      8.059
  Name = 
  10 active torsions:
  status: ('A' for Active; 'I' for Inactive)
    1  A    between atoms: C_5  and  C_38
    2  A    between atoms: C_12  and  C_28
    3  A    between atoms: C_13  and  C_41
    4  A    between atoms: C_25  and  C_35
    5  A    between atoms: C_25  and  C_41
    6  A    between atoms: C_26  and  C_41
    7  A    between atoms: N_30  and  C_38
    8  A    between atoms: N_30  and  N_39
    9  A    between atoms: O_42  and  C_46
   10  A    between atoms: O_42  and  C_47
                            x       y       z     vdW  Elec       q    Type
                         _______ _______ _______ _____ _____    ______ ____

>  <TORSDO>
F 10

$$$$
