=
 OpenBabel11062415183D

 41 46  0  0  1  0  0  0  0  0999 V2000
  186.6840  177.4590  142.9160 C   0  0  0  0  0  2  0  0  0  0  0  0
  188.2110  177.5610  142.8440 C   0  0  2  0  0  3  0  0  0  0  0  0
  189.5550  178.1530  138.7930 C   0  0  0  0  0  3  0  0  0  0  0  0
  188.2940  178.6010  139.1940 C   0  0  0  0  0  3  0  0  0  0  0  0
  188.6730  177.6830  141.4120 C   0  0  0  0  0  0  0  0  0  0  0  0
  186.0100  178.4780  142.0300 C   0  0  0  0  0  0  0  0  0  0  0  0
  190.3890  177.4740  139.6910 C   0  0  0  0  0  0  0  0  0  0  0  0
  186.5560  178.8310  140.9020 N   0  0  0  0  0  0  0  0  0  0  0  0
  187.8500  178.3680  140.4970 C   0  0  0  0  0  0  0  0  0  0  0  0
  189.9460  177.2560  141.0050 C   0  0  0  0  0  3  0  0  0  0  0  0
  184.7100  178.9720  142.3570 N   0  0  0  0  0  2  0  0  0  0  0  0
  183.4500  179.7980  144.2480 C   0  0  0  0  0  2  0  0  0  0  0  0
  183.9970  178.5670  143.5580 C   0  0  0  0  0  3  0  0  0  0  0  0
  182.5330  178.9270  143.4160 C   0  0  0  0  0  2  0  0  0  0  0  0
  191.7140  176.9960  139.2540 C   0  0  0  0  0  0  0  0  0  0  0  0
  192.7260  177.1860  139.9850 O   0  0  0  0  0  0  0  0  0  0  0  0
  191.8870  176.3150  137.9310 C   0  0  0  0  0  2  0  0  0  0  0  0
  192.3810  174.1320  137.3590 C   0  0  0  0  0  1  0  0  0  0  0  0
  191.3530  174.9580  137.9800 N   0  0  0  0  0  0  0  0  0  0  0  0
  188.6920  172.9080  137.0200 O   0  0  0  0  0  0  0  0  0  0  0  0
  187.8990  175.6880  135.2340 N   0  0  0  0  0  0  0  0  0  0  0  0
  189.2490  176.1700  135.1540 C   0  0  0  0  0  3  0  0  0  0  0  0
  187.5730  174.2690  135.3190 C   0  0  0  0  0  2  0  0  0  0  0  0
  187.6270  173.8050  136.7710 C   0  0  0  0  0  2  0  0  0  0  0  0
  190.1410  174.8900  137.1500 C   0  0  1  0  0  3  0  0  0  0  0  0
  190.2510  175.8160  135.9690 C   0  0  0  0  0  3  0  0  0  0  0  0
  189.9220  173.4710  136.6080 C   0  0  0  0  0  2  0  0  0  0  0  0
  186.8530  176.5740  134.7610 C   0  0  0  0  0  1  0  0  0  0  0  0
  188.8610  176.3820  143.5710 C   0  0  0  0  0  2  0  0  0  0  0  0
  190.7090  177.1350  145.0840 C   0  0  0  0  0  0  0  0  0  0  0  0
  188.4640  176.6690  146.1040 C   0  0  2  0  0  3  0  0  0  0  0  0
  189.1040  176.8610  147.4790 C   0  0  1  0  0  3  0  0  0  0  0  0
  189.4120  176.7670  144.9240 C   0  0  0  0  0  0  0  0  0  0  0  0
  191.6560  177.1970  143.9260 C   0  0  0  0  0  1  0  0  0  0  0  0
  186.8810  177.8930  147.4580 C   0  0  2  0  0  3  0  0  0  0  0  0
  190.2340  177.8820  147.4200 C   0  0  0  0  0  2  0  0  0  0  0  0
  187.9980  177.4020  148.3680 C   0  0  0  0  0  2  0  0  0  0  0  0
  191.2920  177.3930  146.4460 C   0  0  0  0  0  2  0  0  0  0  0  0
  187.3500  177.6920  146.0280 C   0  0  0  0  0  2  0  0  0  0  0  0
  185.5360  179.8000  146.9480 O   0  0  0  0  0  1  0  0  0  0  0  0
  186.6100  179.3620  147.7240 C   0  0  0  0  0  2  0  0  0  0  0  0
  2  1  1  0  0  0  0
  2 29  1  6  0  0  0
  3  4  2  0  0  0  0
  3  7  1  0  0  0  0
  4  9  1  0  0  0  0
  5  2  1  0  0  0  0
  6 11  1  0  0  0  0
  6  1  1  0  0  0  0
  7 10  2  0  0  0  0
  8  6  2  0  0  0  0
  9  8  1  0  0  0  0
  9  5  2  0  0  0  0
 10  5  1  0  0  0  0
 11 13  1  0  0  0  0
 13 12  1  0  0  0  0
 14 13  1  0  0  0  0
 14 12  1  0  0  0  0
 15  7  1  0  0  0  0
 15 16  2  0  0  0  0
 17 19  1  0  0  0  0
 17 15  1  0  0  0  0
 18 19  1  0  0  0  0
 21 23  1  0  0  0  0
 22 21  1  0  0  0  0
 22 26  2  0  0  0  0
 23 24  1  0  0  0  0
 24 20  1  0  0  0  0
 25 19  1  6  0  0  0
 26 25  1  0  0  0  0
 27 20  1  0  0  0  0
 27 25  1  0  0  0  0
 28 21  1  0  0  0  0
 29 33  1  0  0  0  0
 30 38  1  0  0  0  0
 31 39  1  6  0  0  0
 31 32  1  0  0  0  0
 32 36  1  6  0  0  0
 32 37  1  0  0  0  0
 33 30  2  0  0  0  0
 33 31  1  0  0  0  0
 34 30  1  0  0  0  0
 35 41  1  1  0  0  0
 35 37  1  0  0  0  0
 38 36  1  0  0  0  0
 39 35  1  0  0  0  0
 40 41  1  0  0  0  0
M  END
>  <MODEL>
1

>  <REMARK>
 VINA RESULT:      -9.4      0.000      0.000
  Name = 
  8 active torsions:
  status: ('A' for Active; 'I' for Inactive)
    1  A    between atoms: C_8  and  C_27
    2  A    between atoms: C_9  and  C_27
    3  A    between atoms: C_11  and  N_38
    4  A    between atoms: N_18  and  C_26
    5  A    between atoms: N_18  and  C_39
    6  A    between atoms: C_21  and  C_24
    7  A    between atoms: C_25  and  C_28
    8  A    between atoms: C_28  and  C_39
                            x       y       z     vdW  Elec       q    Type
                         _______ _______ _______ _____ _____    ______ ____

>  <TORSDO>
F 8

$$$$
=
 OpenBabel11062415183D

 41 46  0  0  1  0  0  0  0  0999 V2000
  186.7280  177.3170  145.3530 C   0  0  0  0  0  2  0  0  0  0  0  0
  186.4970  177.8100  143.9210 C   0  0  2  0  0  3  0  0  0  0  0  0
  182.4630  179.2200  143.3770 C   0  0  0  0  0  3  0  0  0  0  0  0
  183.0710  179.2820  144.6330 C   0  0  0  0  0  3  0  0  0  0  0  0
  185.0590  178.2210  143.7210 C   0  0  0  0  0  0  0  0  0  0  0  0
  186.0960  178.2340  146.3720 C   0  0  0  0  0  0  0  0  0  0  0  0
  183.1400  178.6670  142.2820 C   0  0  0  0  0  0  0  0  0  0  0  0
  184.9830  178.8510  146.1000 N   0  0  0  0  0  0  0  0  0  0  0  0
  184.3640  178.7840  144.8090 C   0  0  0  0  0  0  0  0  0  0  0  0
  184.4460  178.1840  142.4600 C   0  0  0  0  0  3  0  0  0  0  0  0
  186.6450  178.3390  147.6870 N   0  0  0  0  0  2  0  0  0  0  0  0
  189.0220  178.5670  148.0640 C   0  0  0  0  0  2  0  0  0  0  0  0
  187.8410  177.6210  148.0970 C   0  0  0  0  0  3  0  0  0  0  0  0
  188.3680  178.2200  149.3840 C   0  0  0  0  0  2  0  0  0  0  0  0
  182.4840  178.5980  140.9630 C   0  0  0  0  0  0  0  0  0  0  0  0
  181.6120  179.4550  140.6470 O   0  0  0  0  0  0  0  0  0  0  0  0
  182.8110  177.5000  139.9990 C   0  0  0  0  0  2  0  0  0  0  0  0
  181.3050  177.2290  138.2680 C   0  0  0  0  0  1  0  0  0  0  0  0
  182.5350  177.9210  138.6300 N   0  0  0  0  0  0  0  0  0  0  0  0
  183.5560  175.2620  136.6070 O   0  0  0  0  0  0  0  0  0  0  0  0
  186.2220  177.3220  136.1680 N   0  0  0  0  0  0  0  0  0  0  0  0
  186.0600  177.9980  137.4250 C   0  0  0  0  0  3  0  0  0  0  0  0
  185.8200  175.9350  135.9630 C   0  0  0  0  0  2  0  0  0  0  0  0
  184.3420  175.8670  135.5980 C   0  0  0  0  0  2  0  0  0  0  0  0
  183.6130  177.4360  137.7530 C   0  0  1  0  0  3  0  0  0  0  0  0
  184.9330  178.0410  138.1450 C   0  0  0  0  0  3  0  0  0  0  0  0
  183.7550  175.9110  137.8470 C   0  0  0  0  0  2  0  0  0  0  0  0
  187.2040  177.8640  135.2490 C   0  0  0  0  0  1  0  0  0  0  0  0
  186.9500  176.7530  142.9110 C   0  0  0  0  0  2  0  0  0  0  0  0
  188.7180  177.7440  141.4410 C   0  0  0  0  0  0  0  0  0  0  0  0
  189.4360  176.1380  143.2320 C   0  0  2  0  0  3  0  0  0  0  0  0
  190.8440  176.1850  142.6410 C   0  0  1  0  0  3  0  0  0  0  0  0
  188.3860  176.9380  142.4820 C   0  0  0  0  0  0  0  0  0  0  0  0
  187.6810  178.5060  140.6770 C   0  0  0  0  0  1  0  0  0  0  0  0
  190.9810  176.1790  145.0880 C   0  0  2  0  0  3  0  0  0  0  0  0
  191.1380  177.5520  142.0330 C   0  0  0  0  0  2  0  0  0  0  0  0
  191.7820  175.9570  143.8130 C   0  0  0  0  0  2  0  0  0  0  0  0
  190.1300  177.8290  140.9300 C   0  0  0  0  0  2  0  0  0  0  0  0
  189.5810  176.5920  144.6680 C   0  0  0  0  0  2  0  0  0  0  0  0
  191.9300  176.7910  147.1920 O   0  0  0  0  0  1  0  0  0  0  0  0
  191.6280  177.2720  145.9180 C   0  0  0  0  0  2  0  0  0  0  0  0
  1  6  1  0  0  0  0
  2 29  1  6  0  0  0
  2  1  1  0  0  0  0
  3  4  1  0  0  0  0
  4  9  2  0  0  0  0
  5  2  1  0  0  0  0
  5  9  1  0  0  0  0
  6 11  1  0  0  0  0
  7 10  1  0  0  0  0
  7  3  2  0  0  0  0
  8  6  2  0  0  0  0
  9  8  1  0  0  0  0
 10  5  2  0  0  0  0
 11 13  1  0  0  0  0
 12 13  1  0  0  0  0
 12 14  1  0  0  0  0
 13 14  1  0  0  0  0
 15  7  1  0  0  0  0
 16 15  2  0  0  0  0
 17 15  1  0  0  0  0
 18 19  1  0  0  0  0
 19 17  1  0  0  0  0
 20 27  1  0  0  0  0
 21 22  1  0  0  0  0
 22 26  2  0  0  0  0
 23 21  1  0  0  0  0
 24 23  1  0  0  0  0
 24 20  1  0  0  0  0
 25 27  1  0  0  0  0
 25 26  1  0  0  0  0
 25 19  1  1  0  0  0
 28 21  1  0  0  0  0
 30 33  2  0  0  0  0
 31 39  1  1  0  0  0
 32 36  1  1  0  0  0
 32 31  1  0  0  0  0
 32 37  1  0  0  0  0
 33 29  1  0  0  0  0
 33 31  1  0  0  0  0
 34 30  1  0  0  0  0
 35 41  1  1  0  0  0
 37 35  1  0  0  0  0
 38 30  1  0  0  0  0
 38 36  1  0  0  0  0
 39 35  1  0  0  0  0
 41 40  1  0  0  0  0
M  END
>  <MODEL>
2

>  <REMARK>
 VINA RESULT:      -9.3      3.044      6.186
  Name = 
  8 active torsions:
  status: ('A' for Active; 'I' for Inactive)
    1  A    between atoms: C_8  and  C_27
    2  A    between atoms: C_9  and  C_27
    3  A    between atoms: C_11  and  N_38
    4  A    between atoms: N_18  and  C_26
    5  A    between atoms: N_18  and  C_39
    6  A    between atoms: C_21  and  C_24
    7  A    between atoms: C_25  and  C_28
    8  A    between atoms: C_28  and  C_39
                            x       y       z     vdW  Elec       q    Type
                         _______ _______ _______ _____ _____    ______ ____

>  <TORSDO>
F 8

$$$$
=
 OpenBabel11062415183D

 41 46  0  0  1  0  0  0  0  0999 V2000
  190.3530  177.4130  139.2090 C   0  0  0  0  0  2  0  0  0  0  0  0
  189.0140  177.4720  139.9510 C   0  0  2  0  0  3  0  0  0  0  0  0
  185.7030  177.6970  137.2030 C   0  0  0  0  0  3  0  0  0  0  0  0
  186.8930  177.0690  136.8290 C   0  0  0  0  0  3  0  0  0  0  0  0
  187.8690  177.6360  138.9810 C   0  0  0  0  0  0  0  0  0  0  0  0
  190.2910  176.4960  138.0120 C   0  0  0  0  0  0  0  0  0  0  0  0
  185.5780  178.2950  138.4640 C   0  0  0  0  0  0  0  0  0  0  0  0
  189.1930  176.3910  137.3200 N   0  0  0  0  0  0  0  0  0  0  0  0
  187.9760  177.0380  137.7110 C   0  0  0  0  0  0  0  0  0  0  0  0
  186.6620  178.2460  139.3540 C   0  0  0  0  0  3  0  0  0  0  0  0
  191.4690  175.8310  137.5500 N   0  0  0  0  0  2  0  0  0  0  0  0
  193.6380  174.7970  137.8200 C   0  0  0  0  0  2  0  0  0  0  0  0
  192.7530  175.9600  138.2190 C   0  0  0  0  0  3  0  0  0  0  0  0
  193.8400  176.1550  137.1820 C   0  0  0  0  0  2  0  0  0  0  0  0
  184.3200  178.9640  138.8450 C   0  0  0  0  0  0  0  0  0  0  0  0
  184.3420  180.1510  139.2760 O   0  0  0  0  0  0  0  0  0  0  0  0
  183.0110  178.2420  138.7620 C   0  0  0  0  0  2  0  0  0  0  0  0
  182.4910  176.0750  139.3700 C   0  0  0  0  0  1  0  0  0  0  0  0
  182.8270  177.3800  139.9250 N   0  0  0  0  0  0  0  0  0  0  0  0
  179.4330  178.1870  139.7450 O   0  0  0  0  0  0  0  0  0  0  0  0
  179.9650  178.8420  143.0360 N   0  0  0  0  0  0  0  0  0  0  0  0
  181.3660  179.1170  142.8790 C   0  0  0  0  0  3  0  0  0  0  0  0
  178.9920  179.0880  141.9790 C   0  0  0  0  0  2  0  0  0  0  0  0
  178.9310  177.8920  141.0340 C   0  0  0  0  0  2  0  0  0  0  0  0
  181.6740  177.8630  140.7010 C   0  0  1  0  0  3  0  0  0  0  0  0
  182.1270  178.7170  141.8540 C   0  0  0  0  0  3  0  0  0  0  0  0
  180.7410  178.7150  139.8300 C   0  0  0  0  0  2  0  0  0  0  0  0
  179.4550  178.7620  144.3920 C   0  0  0  0  0  1  0  0  0  0  0  0
  189.0400  178.5710  141.0170 C   0  0  0  0  0  2  0  0  0  0  0  0
  190.0090  177.8960  143.2250 C   0  0  0  0  0  0  0  0  0  0  0  0
  187.5470  177.5640  142.8640 C   0  0  2  0  0  3  0  0  0  0  0  0
  187.5000  176.8250  144.2010 C   0  0  1  0  0  3  0  0  0  0  0  0
  188.9230  178.0220  142.4180 C   0  0  0  0  0  0  0  0  0  0  0  0
  191.3730  178.3120  142.7740 C   0  0  0  0  0  1  0  0  0  0  0  0
  185.5170  178.2480  143.9820 C   0  0  2  0  0  3  0  0  0  0  0  0
  188.5300  177.3850  145.1740 C   0  0  0  0  0  2  0  0  0  0  0  0
  186.1090  177.0780  144.7560 C   0  0  0  0  0  2  0  0  0  0  0  0
  189.9160  177.2300  144.5700 C   0  0  0  0  0  2  0  0  0  0  0  0
  186.5800  178.7210  143.0060 C   0  0  0  0  0  2  0  0  0  0  0  0
  183.9570  179.0550  145.5990 O   0  0  0  0  0  1  0  0  0  0  0  0
  185.1480  179.3640  144.9420 C   0  0  0  0  0  2  0  0  0  0  0  0
  1  2  1  0  0  0  0
  2 29  1  1  0  0  0
  3  7  1  0  0  0  0
  4  3  2  0  0  0  0
  4  9  1  0  0  0  0
  5 10  1  0  0  0  0
  5  2  1  0  0  0  0
  6  1  1  0  0  0  0
  7 15  1  0  0  0  0
  7 10  2  0  0  0  0
  8  9  1  0  0  0  0
  8  6  2  0  0  0  0
  9  5  2  0  0  0  0
 11  6  1  0  0  0  0
 11 13  1  0  0  0  0
 12 13  1  0  0  0  0
 14 12  1  0  0  0  0
 14 13  1  0  0  0  0
 15 16  2  0  0  0  0
 17 15  1  0  0  0  0
 17 19  1  0  0  0  0
 18 19  1  0  0  0  0
 20 27  1  0  0  0  0
 20 24  1  0  0  0  0
 21 28  1  0  0  0  0
 22 21  1  0  0  0  0
 23 21  1  0  0  0  0
 24 23  1  0  0  0  0
 25 19  1  6  0  0  0
 25 26  1  0  0  0  0
 26 22  2  0  0  0  0
 27 25  1  0  0  0  0
 29 33  1  0  0  0  0
 30 38  1  0  0  0  0
 31 39  1  1  0  0  0
 31 32  1  0  0  0  0
 32 37  1  1  0  0  0
 32 36  1  0  0  0  0
 33 31  1  0  0  0  0
 33 30  2  0  0  0  0
 34 30  1  0  0  0  0
 35 37  1  0  0  0  0
 35 41  1  1  0  0  0
 38 36  1  0  0  0  0
 39 35  1  0  0  0  0
 41 40  1  0  0  0  0
M  END
>  <MODEL>
3

>  <REMARK>
 VINA RESULT:      -9.3      3.113      7.593
  Name = 
  8 active torsions:
  status: ('A' for Active; 'I' for Inactive)
    1  A    between atoms: C_8  and  C_27
    2  A    between atoms: C_9  and  C_27
    3  A    between atoms: C_11  and  N_38
    4  A    between atoms: N_18  and  C_26
    5  A    between atoms: N_18  and  C_39
    6  A    between atoms: C_21  and  C_24
    7  A    between atoms: C_25  and  C_28
    8  A    between atoms: C_28  and  C_39
                            x       y       z     vdW  Elec       q    Type
                         _______ _______ _______ _____ _____    ______ ____

>  <TORSDO>
F 8

$$$$
=
 OpenBabel11062415183D

 41 46  0  0  1  0  0  0  0  0999 V2000
  187.3500  178.3780  144.0050 C   0  0  0  0  0  2  0  0  0  0  0  0
  186.7610  178.1710  142.6060 C   0  0  2  0  0  3  0  0  0  0  0  0
  189.8380  177.3260  139.7120 C   0  0  0  0  0  3  0  0  0  0  0  0
  190.0130  176.9800  141.0540 C   0  0  0  0  0  3  0  0  0  0  0  0
  187.8550  177.9600  141.5880 C   0  0  0  0  0  0  0  0  0  0  0  0
  188.4320  177.3720  144.3130 C   0  0  0  0  0  0  0  0  0  0  0  0
  188.6750  177.9840  139.2910 C   0  0  0  0  0  0  0  0  0  0  0  0
  189.2140  176.9370  143.3680 N   0  0  0  0  0  0  0  0  0  0  0  0
  189.0280  177.2960  141.9930 C   0  0  0  0  0  0  0  0  0  0  0  0
  187.6800  178.2830  140.2340 C   0  0  0  0  0  3  0  0  0  0  0  0
  188.6900  176.9800  145.6630 N   0  0  0  0  0  2  0  0  0  0  0  0
  188.3220  176.7370  148.0400 C   0  0  0  0  0  2  0  0  0  0  0  0
  187.9150  177.4800  146.7860 C   0  0  0  0  0  3  0  0  0  0  0  0
  188.8450  178.1340  147.7860 C   0  0  0  0  0  2  0  0  0  0  0  0
  188.5050  178.3530  137.8740 C   0  0  0  0  0  0  0  0  0  0  0  0
  188.9650  179.4490  137.4470 O   0  0  0  0  0  0  0  0  0  0  0  0
  187.7580  177.4590  136.9310 C   0  0  0  0  0  2  0  0  0  0  0  0
  188.8910  175.6000  136.1560 C   0  0  0  0  0  1  0  0  0  0  0  0
  188.0260  176.0570  137.2360 N   0  0  0  0  0  0  0  0  0  0  0  0
  186.6520  172.8570  136.9620 O   0  0  0  0  0  0  0  0  0  0  0  0
  183.7780  174.6600  137.1320 N   0  0  0  0  0  0  0  0  0  0  0  0
  184.3590  175.8630  136.6060 C   0  0  0  0  0  3  0  0  0  0  0  0
  184.2580  173.3310  136.7710 C   0  0  0  0  0  2  0  0  0  0  0  0
  185.4280  172.9360  137.6660 C   0  0  0  0  0  2  0  0  0  0  0  0
  186.7640  175.3040  137.1680 C   0  0  1  0  0  3  0  0  0  0  0  0
  185.6650  176.1540  136.5910 C   0  0  0  0  0  3  0  0  0  0  0  0
  186.9090  174.0640  136.2740 C   0  0  0  0  0  2  0  0  0  0  0  0
  182.4260  174.7520  137.6500 C   0  0  0  0  0  1  0  0  0  0  0  0
  185.8340  179.3320  142.2390 C   0  0  0  0  0  2  0  0  0  0  0  0
  183.5470  179.0200  143.2100 C   0  0  0  0  0  0  0  0  0  0  0  0
  183.9270  178.3110  140.8320 C   0  0  2  0  0  3  0  0  0  0  0  0
  182.5230  177.7070  140.8400 C   0  0  1  0  0  3  0  0  0  0  0  0
  184.3860  178.9120  142.1480 C   0  0  0  0  0  0  0  0  0  0  0  0
  184.0080  179.5790  144.5200 C   0  0  0  0  0  1  0  0  0  0  0  0
  182.9300  178.8080  138.6890 C   0  0  2  0  0  3  0  0  0  0  0  0
  181.5890  178.5000  141.7470 C   0  0  0  0  0  2  0  0  0  0  0  0
  182.0280  177.8150  139.4080 C   0  0  0  0  0  2  0  0  0  0  0  0
  182.1430  178.4840  143.1620 C   0  0  0  0  0  2  0  0  0  0  0  0
  183.9250  179.3280  139.7100 C   0  0  0  0  0  2  0  0  0  0  0  0
  182.5630  181.1670  138.6300 O   0  0  0  0  0  1  0  0  0  0  0  0
  182.0970  179.9490  138.1340 C   0  0  0  0  0  2  0  0  0  0  0  0
  1  6  1  0  0  0  0
  2 29  1  6  0  0  0
  2  1  1  0  0  0  0
  3  4  1  0  0  0  0
  4  9  2  0  0  0  0
  5  9  1  0  0  0  0
  5  2  1  0  0  0  0
  6 11  1  0  0  0  0
  7  3  2  0  0  0  0
  7 10  1  0  0  0  0
  8  6  2  0  0  0  0
  9  8  1  0  0  0  0
 10  5  2  0  0  0  0
 11 13  1  0  0  0  0
 13 14  1  0  0  0  0
 13 12  1  0  0  0  0
 14 12  1  0  0  0  0
 15  7  1  0  0  0  0
 16 15  2  0  0  0  0
 17 19  1  0  0  0  0
 17 15  1  0  0  0  0
 18 19  1  0  0  0  0
 20 24  1  0  0  0  0
 21 28  1  0  0  0  0
 22 21  1  0  0  0  0
 23 21  1  0  0  0  0
 23 24  1  0  0  0  0
 25 19  1  6  0  0  0
 26 22  2  0  0  0  0
 26 25  1  0  0  0  0
 27 20  1  0  0  0  0
 27 25  1  0  0  0  0
 30 34  1  0  0  0  0
 31 39  1  6  0  0  0
 31 32  1  0  0  0  0
 31 33  1  0  0  0  0
 32 37  1  6  0  0  0
 32 36  1  0  0  0  0
 33 29  1  0  0  0  0
 33 30  2  0  0  0  0
 35 41  1  1  0  0  0
 35 37  1  0  0  0  0
 35 39  1  0  0  0  0
 36 38  1  0  0  0  0
 38 30  1  0  0  0  0
 41 40  1  0  0  0  0
M  END
>  <MODEL>
4

>  <REMARK>
 VINA RESULT:      -9.2      2.999      5.922
  Name = 
  8 active torsions:
  status: ('A' for Active; 'I' for Inactive)
    1  A    between atoms: C_8  and  C_27
    2  A    between atoms: C_9  and  C_27
    3  A    between atoms: C_11  and  N_38
    4  A    between atoms: N_18  and  C_26
    5  A    between atoms: N_18  and  C_39
    6  A    between atoms: C_21  and  C_24
    7  A    between atoms: C_25  and  C_28
    8  A    between atoms: C_28  and  C_39
                            x       y       z     vdW  Elec       q    Type
                         _______ _______ _______ _____ _____    ______ ____

>  <TORSDO>
F 8

$$$$
=
 OpenBabel11062415183D

 41 46  0  0  1  0  0  0  0  0999 V2000
  186.7990  177.2910  145.4080 C   0  0  0  0  0  2  0  0  0  0  0  0
  186.5820  177.8230  143.9880 C   0  0  2  0  0  3  0  0  0  0  0  0
  182.5640  179.2830  143.4530 C   0  0  0  0  0  3  0  0  0  0  0  0
  183.1640  179.3070  144.7140 C   0  0  0  0  0  3  0  0  0  0  0  0
  185.1490  178.2520  143.7890 C   0  0  0  0  0  0  0  0  0  0  0  0
  186.1680  178.1870  146.4460 C   0  0  0  0  0  0  0  0  0  0  0  0
  183.2440  178.7520  142.3490 C   0  0  0  0  0  0  0  0  0  0  0  0
  185.0620  178.8210  146.1820 N   0  0  0  0  0  0  0  0  0  0  0  0
  184.4520  178.7930  144.8860 C   0  0  0  0  0  0  0  0  0  0  0  0
  184.5440  178.2530  142.5230 C   0  0  0  0  0  3  0  0  0  0  0  0
  186.7080  178.2530  147.7680 N   0  0  0  0  0  2  0  0  0  0  0  0
  189.1210  178.3540  147.8780 C   0  0  0  0  0  2  0  0  0  0  0  0
  187.8950  177.5150  148.1660 C   0  0  0  0  0  3  0  0  0  0  0  0
  188.5900  178.2530  149.2910 C   0  0  0  0  0  2  0  0  0  0  0  0
  182.5970  178.7230  141.0240 C   0  0  0  0  0  0  0  0  0  0  0  0
  181.3960  178.3480  140.9170 O   0  0  0  0  0  0  0  0  0  0  0  0
  183.3570  179.1000  139.7900 C   0  0  0  0  0  2  0  0  0  0  0  0
  185.0920  178.4830  138.3940 C   0  0  0  0  0  1  0  0  0  0  0  0
  184.0300  177.9330  139.2270 N   0  0  0  0  0  0  0  0  0  0  0  0
  183.2590  174.8070  137.8730 O   0  0  0  0  0  0  0  0  0  0  0  0
  180.7210  176.6160  136.5220 N   0  0  0  0  0  0  0  0  0  0  0  0
  181.4280  177.8650  136.5610 C   0  0  0  0  0  3  0  0  0  0  0  0
  181.3970  175.3330  136.3730 C   0  0  0  0  0  2  0  0  0  0  0  0
  181.8520  174.8190  137.7350 C   0  0  0  0  0  2  0  0  0  0  0  0
  183.0880  177.2110  138.3580 C   0  0  1  0  0  3  0  0  0  0  0  0
  182.4810  178.1380  137.3410 C   0  0  0  0  0  3  0  0  0  0  0  0
  183.7960  176.0840  137.5940 C   0  0  0  0  0  2  0  0  0  0  0  0
  179.3170  176.6640  136.1610 C   0  0  0  0  0  1  0  0  0  0  0  0
  187.0330  176.7880  142.9540 C   0  0  0  0  0  2  0  0  0  0  0  0
  188.8350  177.7990  141.5400 C   0  0  0  0  0  0  0  0  0  0  0  0
  189.5040  176.1210  143.2840 C   0  0  2  0  0  3  0  0  0  0  0  0
  190.9200  176.1650  142.7120 C   0  0  1  0  0  3  0  0  0  0  0  0
  188.4770  176.9640  142.5490 C   0  0  0  0  0  0  0  0  0  0  0  0
  187.8200  178.6030  140.7910 C   0  0  0  0  0  1  0  0  0  0  0  0
  191.0250  176.0730  145.1590 C   0  0  2  0  0  3  0  0  0  0  0  0
  191.2440  177.5460  142.1540 C   0  0  0  0  0  2  0  0  0  0  0  0
  191.8400  175.8810  143.8870 C   0  0  0  0  0  2  0  0  0  0  0  0
  190.2540  177.8780  141.0500 C   0  0  0  0  0  2  0  0  0  0  0  0
  189.6380  176.5240  144.7370 C   0  0  0  0  0  2  0  0  0  0  0  0
  192.0550  176.5700  147.2560 O   0  0  0  0  0  1  0  0  0  0  0  0
  191.6800  177.1270  146.0330 C   0  0  0  0  0  2  0  0  0  0  0  0
  1  6  1  0  0  0  0
  2 29  1  6  0  0  0
  2  1  1  0  0  0  0
  3  4  1  0  0  0  0
  4  9  2  0  0  0  0
  5  2  1  0  0  0  0
  5  9  1  0  0  0  0
  6 11  1  0  0  0  0
  7 10  1  0  0  0  0
  7  3  2  0  0  0  0
  8  6  2  0  0  0  0
  9  8  1  0  0  0  0
 10  5  2  0  0  0  0
 11 13  1  0  0  0  0
 12 13  1  0  0  0  0
 12 14  1  0  0  0  0
 13 14  1  0  0  0  0
 15  7  1  0  0  0  0
 16 15  2  0  0  0  0
 17 15  1  0  0  0  0
 18 19  1  0  0  0  0
 19 17  1  0  0  0  0
 21 22  1  0  0  0  0
 22 26  2  0  0  0  0
 23 21  1  0  0  0  0
 23 24  1  0  0  0  0
 24 20  1  0  0  0  0
 25 19  1  6  0  0  0
 26 25  1  0  0  0  0
 27 20  1  0  0  0  0
 27 25  1  0  0  0  0
 28 21  1  0  0  0  0
 30 33  2  0  0  0  0
 31 39  1  1  0  0  0
 32 36  1  1  0  0  0
 32 31  1  0  0  0  0
 32 37  1  0  0  0  0
 33 29  1  0  0  0  0
 33 31  1  0  0  0  0
 34 30  1  0  0  0  0
 35 41  1  1  0  0  0
 37 35  1  0  0  0  0
 38 30  1  0  0  0  0
 38 36  1  0  0  0  0
 39 35  1  0  0  0  0
 41 40  1  0  0  0  0
M  END
>  <MODEL>
5

>  <REMARK>
 VINA RESULT:      -8.8      3.638      6.489
  Name = 
  8 active torsions:
  status: ('A' for Active; 'I' for Inactive)
    1  A    between atoms: C_8  and  C_27
    2  A    between atoms: C_9  and  C_27
    3  A    between atoms: C_11  and  N_38
    4  A    between atoms: N_18  and  C_26
    5  A    between atoms: N_18  and  C_39
    6  A    between atoms: C_21  and  C_24
    7  A    between atoms: C_25  and  C_28
    8  A    between atoms: C_28  and  C_39
                            x       y       z     vdW  Elec       q    Type
                         _______ _______ _______ _____ _____    ______ ____

>  <TORSDO>
F 8

$$$$
=
 OpenBabel11062415183D

 41 46  0  0  1  0  0  0  0  0999 V2000
  187.4870  178.3410  144.0820 C   0  0  0  0  0  2  0  0  0  0  0  0
  186.9330  178.1290  142.6700 C   0  0  2  0  0  3  0  0  0  0  0  0
  190.0710  177.1770  139.8760 C   0  0  0  0  0  3  0  0  0  0  0  0
  190.2000  176.8450  141.2260 C   0  0  0  0  0  3  0  0  0  0  0  0
  188.0500  177.8800  141.6860 C   0  0  0  0  0  0  0  0  0  0  0  0
  188.5370  177.3150  144.4330 C   0  0  0  0  0  0  0  0  0  0  0  0
  188.9360  177.8560  139.4140 C   0  0  0  0  0  0  0  0  0  0  0  0
  189.3350  176.8510  143.5160 N   0  0  0  0  0  0  0  0  0  0  0  0
  189.1960  177.1950  142.1320 C   0  0  0  0  0  0  0  0  0  0  0  0
  187.9210  178.1900  140.3240 C   0  0  0  0  0  3  0  0  0  0  0  0
  188.7470  176.9350  145.7950 N   0  0  0  0  0  2  0  0  0  0  0  0
  188.3090  176.7340  148.1640 C   0  0  0  0  0  2  0  0  0  0  0  0
  187.9520  177.4670  146.8890 C   0  0  0  0  0  3  0  0  0  0  0  0
  188.8680  178.1160  147.9050 C   0  0  0  0  0  2  0  0  0  0  0  0
  188.8150  178.2110  137.9870 C   0  0  0  0  0  0  0  0  0  0  0  0
  188.8220  179.4230  137.6350 O   0  0  0  0  0  0  0  0  0  0  0  0
  188.6450  177.1490  136.9440 C   0  0  0  0  0  2  0  0  0  0  0  0
  188.9950  177.2790  134.6630 C   0  0  0  0  0  1  0  0  0  0  0  0
  189.6990  177.2470  135.9390 N   0  0  0  0  0  0  0  0  0  0  0  0
  189.5860  173.7580  135.7830 O   0  0  0  0  0  0  0  0  0  0  0  0
  192.9380  174.1690  136.1570 N   0  0  0  0  0  0  0  0  0  0  0  0
  192.8300  175.4340  136.8280 C   0  0  0  0  0  3  0  0  0  0  0  0
  191.9090  173.1400  136.2480 C   0  0  0  0  0  2  0  0  0  0  0  0
  190.8240  173.3900  135.2060 C   0  0  0  0  0  2  0  0  0  0  0  0
  190.5170  176.0250  135.9830 C   0  0  1  0  0  3  0  0  0  0  0  0
  191.7710  176.2500  136.7840 C   0  0  0  0  0  3  0  0  0  0  0  0
  189.7490  174.8700  136.6410 C   0  0  0  0  0  2  0  0  0  0  0  0
  194.2680  173.7350  135.7750 C   0  0  0  0  0  1  0  0  0  0  0  0
  186.0430  179.3060  142.2610 C   0  0  0  0  0  2  0  0  0  0  0  0
  183.7920  179.0410  143.3250 C   0  0  0  0  0  0  0  0  0  0  0  0
  184.0400  178.4020  140.9100 C   0  0  2  0  0  3  0  0  0  0  0  0
  182.6170  177.8470  140.9620 C   0  0  1  0  0  3  0  0  0  0  0  0
  184.5790  178.9410  142.2230 C   0  0  0  0  0  0  0  0  0  0  0  0
  184.3310  179.5380  144.6300 C   0  0  0  0  0  1  0  0  0  0  0  0
  182.9680  179.0060  138.8320 C   0  0  2  0  0  3  0  0  0  0  0  0
  181.7540  178.6400  141.9360 C   0  0  0  0  0  2  0  0  0  0  0  0
  182.0630  178.0220  139.5590 C   0  0  0  0  0  2  0  0  0  0  0  0
  182.3690  178.5560  143.3230 C   0  0  0  0  0  2  0  0  0  0  0  0
  184.0260  179.4560  139.8240 C   0  0  0  0  0  2  0  0  0  0  0  0
  182.8080  181.3840  138.6750 O   0  0  0  0  0  1  0  0  0  0  0  0
  182.1540  180.1950  138.3530 C   0  0  0  0  0  2  0  0  0  0  0  0
  1  6  1  0  0  0  0
  2 29  1  6  0  0  0
  2  1  1  0  0  0  0
  3  4  1  0  0  0  0
  4  9  2  0  0  0  0
  5  9  1  0  0  0  0
  5  2  1  0  0  0  0
  6 11  1  0  0  0  0
  7  3  2  0  0  0  0
  7 10  1  0  0  0  0
  8  6  2  0  0  0  0
  9  8  1  0  0  0  0
 10  5  2  0  0  0  0
 11 13  1  0  0  0  0
 13 14  1  0  0  0  0
 13 12  1  0  0  0  0
 14 12  1  0  0  0  0
 15  7  1  0  0  0  0
 16 15  2  0  0  0  0
 17 15  1  0  0  0  0
 18 19  1  0  0  0  0
 19 17  1  0  0  0  0
 20 27  1  0  0  0  0
 21 23  1  0  0  0  0
 21 22  1  0  0  0  0
 24 20  1  0  0  0  0
 24 23  1  0  0  0  0
 25 19  1  1  0  0  0
 25 27  1  0  0  0  0
 25 26  1  0  0  0  0
 26 22  2  0  0  0  0
 28 21  1  0  0  0  0
 30 34  1  0  0  0  0
 31 39  1  6  0  0  0
 31 32  1  0  0  0  0
 31 33  1  0  0  0  0
 32 37  1  6  0  0  0
 32 36  1  0  0  0  0
 33 29  1  0  0  0  0
 33 30  2  0  0  0  0
 35 41  1  1  0  0  0
 35 37  1  0  0  0  0
 35 39  1  0  0  0  0
 36 38  1  0  0  0  0
 38 30  1  0  0  0  0
 41 40  1  0  0  0  0
M  END
>  <MODEL>
6

>  <REMARK>
 VINA RESULT:      -8.8      2.690      5.879
  Name = 
  8 active torsions:
  status: ('A' for Active; 'I' for Inactive)
    1  A    between atoms: C_8  and  C_27
    2  A    between atoms: C_9  and  C_27
    3  A    between atoms: C_11  and  N_38
    4  A    between atoms: N_18  and  C_26
    5  A    between atoms: N_18  and  C_39
    6  A    between atoms: C_21  and  C_24
    7  A    between atoms: C_25  and  C_28
    8  A    between atoms: C_28  and  C_39
                            x       y       z     vdW  Elec       q    Type
                         _______ _______ _______ _____ _____    ______ ____

>  <TORSDO>
F 8

$$$$
=
 OpenBabel11062415183D

 41 46  0  0  1  0  0  0  0  0999 V2000
  190.1770  177.4360  139.4910 C   0  0  0  0  0  2  0  0  0  0  0  0
  188.9040  177.5680  140.3320 C   0  0  2  0  0  3  0  0  0  0  0  0
  185.4160  178.0260  137.8440 C   0  0  0  0  0  3  0  0  0  0  0  0
  186.5340  177.3310  137.3770 C   0  0  0  0  0  3  0  0  0  0  0  0
  187.7020  177.8130  139.4530 C   0  0  0  0  0  0  0  0  0  0  0  0
  189.9690  176.5390  138.2950 C   0  0  0  0  0  0  0  0  0  0  0  0
  185.4240  178.6160  139.1150 C   0  0  0  0  0  0  0  0  0  0  0  0
  188.8180  176.5080  137.6890 N   0  0  0  0  0  0  0  0  0  0  0  0
  187.6760  177.2240  138.1740 C   0  0  0  0  0  0  0  0  0  0  0  0
  186.5660  178.4900  139.9200 C   0  0  0  0  0  3  0  0  0  0  0  0
  191.0660  175.8090  137.7420 N   0  0  0  0  0  2  0  0  0  0  0  0
  193.2920  174.8830  137.5610 C   0  0  0  0  0  2  0  0  0  0  0  0
  192.4030  175.8510  138.3120 C   0  0  0  0  0  3  0  0  0  0  0  0
  193.3750  176.3660  137.2710 C   0  0  0  0  0  2  0  0  0  0  0  0
  184.2410  179.3560  139.5950 C   0  0  0  0  0  0  0  0  0  0  0  0
  183.9530  180.4780  139.0930 O   0  0  0  0  0  0  0  0  0  0  0  0
  183.3910  178.8110  140.7000 C   0  0  0  0  0  2  0  0  0  0  0  0
  181.3440  179.3760  141.6120 C   0  0  0  0  0  1  0  0  0  0  0  0
  181.9750  178.9450  140.3710 N   0  0  0  0  0  0  0  0  0  0  0  0
  181.9650  176.4640  137.9120 O   0  0  0  0  0  0  0  0  0  0  0  0
  179.9200  174.9770  140.1810 N   0  0  0  0  0  0  0  0  0  0  0  0
  179.4780  176.2090  140.7710 C   0  0  0  0  0  3  0  0  0  0  0  0
  180.3200  174.8730  138.7830 C   0  0  0  0  0  2  0  0  0  0  0  0
  181.7880  175.2570  138.6280 C   0  0  0  0  0  2  0  0  0  0  0  0
  181.4390  177.6220  140.0150 C   0  0  1  0  0  3  0  0  0  0  0  0
  180.1160  177.3830  140.6910 C   0  0  0  0  0  3  0  0  0  0  0  0
  181.2150  177.5060  138.5020 C   0  0  0  0  0  2  0  0  0  0  0  0
  179.5250  173.7490  140.8430 C   0  0  0  0  0  1  0  0  0  0  0  0
  189.0780  178.6510  141.4010 C   0  0  0  0  0  2  0  0  0  0  0  0
  190.0020  178.0150  143.6400 C   0  0  0  0  0  0  0  0  0  0  0  0
  187.5590  177.6230  143.2160 C   0  0  2  0  0  3  0  0  0  0  0  0
  187.4940  176.8920  144.5560 C   0  0  1  0  0  3  0  0  0  0  0  0
  188.9360  178.1100  142.8030 C   0  0  0  0  0  0  0  0  0  0  0  0
  191.3680  178.4610  143.2220 C   0  0  0  0  0  1  0  0  0  0  0  0
  185.4850  178.2660  144.2730 C   0  0  2  0  0  3  0  0  0  0  0  0
  188.4840  177.4840  145.5520 C   0  0  0  0  0  2  0  0  0  0  0  0
  186.0830  177.1170  145.0720 C   0  0  0  0  0  2  0  0  0  0  0  0
  189.8890  177.3580  144.9870 C   0  0  0  0  0  2  0  0  0  0  0  0
  186.5610  178.7570  143.3220 C   0  0  0  0  0  2  0  0  0  0  0  0
  184.2350  178.8730  146.2150 O   0  0  0  0  0  1  0  0  0  0  0  0
  185.0630  179.3800  145.2140 C   0  0  0  0  0  2  0  0  0  0  0  0
  1  2  1  0  0  0  0
  2 29  1  1  0  0  0
  3  7  1  0  0  0  0
  4  3  2  0  0  0  0
  4  9  1  0  0  0  0
  5 10  1  0  0  0  0
  5  2  1  0  0  0  0
  6  1  1  0  0  0  0
  7 15  1  0  0  0  0
  7 10  2  0  0  0  0
  8  9  1  0  0  0  0
  8  6  2  0  0  0  0
  9  5  2  0  0  0  0
 11  6  1  0  0  0  0
 11 13  1  0  0  0  0
 12 13  1  0  0  0  0
 14 12  1  0  0  0  0
 14 13  1  0  0  0  0
 15 17  1  0  0  0  0
 16 15  2  0  0  0  0
 19 17  1  0  0  0  0
 19 18  1  0  0  0  0
 20 27  1  0  0  0  0
 20 24  1  0  0  0  0
 21 22  1  0  0  0  0
 21 28  1  0  0  0  0
 23 21  1  0  0  0  0
 24 23  1  0  0  0  0
 25 19  1  6  0  0  0
 25 26  1  0  0  0  0
 26 22  2  0  0  0  0
 27 25  1  0  0  0  0
 29 33  1  0  0  0  0
 30 38  1  0  0  0  0
 31 39  1  1  0  0  0
 31 32  1  0  0  0  0
 32 37  1  1  0  0  0
 32 36  1  0  0  0  0
 33 31  1  0  0  0  0
 33 30  2  0  0  0  0
 34 30  1  0  0  0  0
 35 37  1  0  0  0  0
 35 41  1  1  0  0  0
 38 36  1  0  0  0  0
 39 35  1  0  0  0  0
 41 40  1  0  0  0  0
M  END
>  <MODEL>
7

>  <REMARK>
 VINA RESULT:      -8.8      3.427      7.114
  Name = 
  8 active torsions:
  status: ('A' for Active; 'I' for Inactive)
    1  A    between atoms: C_8  and  C_27
    2  A    between atoms: C_9  and  C_27
    3  A    between atoms: C_11  and  N_38
    4  A    between atoms: N_18  and  C_26
    5  A    between atoms: N_18  and  C_39
    6  A    between atoms: C_21  and  C_24
    7  A    between atoms: C_25  and  C_28
    8  A    between atoms: C_28  and  C_39
                            x       y       z     vdW  Elec       q    Type
                         _______ _______ _______ _____ _____    ______ ____

>  <TORSDO>
F 8

$$$$
=
 OpenBabel11062415183D

 41 46  0  0  1  0  0  0  0  0999 V2000
  187.3460  177.1380  145.3300 C   0  0  0  0  0  2  0  0  0  0  0  0
  187.2240  177.6640  143.8970 C   0  0  2  0  0  3  0  0  0  0  0  0
  183.3240  179.3400  143.1630 C   0  0  0  0  0  3  0  0  0  0  0  0
  183.8660  179.3450  144.4500 C   0  0  0  0  0  3  0  0  0  0  0  0
  185.8280  178.1710  143.6270 C   0  0  0  0  0  0  0  0  0  0  0  0
  186.7190  178.0800  146.3290 C   0  0  0  0  0  0  0  0  0  0  0  0
  184.0230  178.7600  142.0970 C   0  0  0  0  0  0  0  0  0  0  0  0
  185.6640  178.7710  146.0090 N   0  0  0  0  0  0  0  0  0  0  0  0
  185.1130  178.7620  144.6860 C   0  0  0  0  0  0  0  0  0  0  0  0
  185.2830  178.1900  142.3350 C   0  0  0  0  0  3  0  0  0  0  0  0
  187.2010  178.1300  147.6740 N   0  0  0  0  0  2  0  0  0  0  0  0
  189.5660  177.7310  147.3640 C   0  0  0  0  0  2  0  0  0  0  0  0
  188.3250  177.3310  148.1340 C   0  0  0  0  0  3  0  0  0  0  0  0
  189.3550  178.2380  148.7740 C   0  0  0  0  0  2  0  0  0  0  0  0
  183.4360  178.7510  140.7430 C   0  0  0  0  0  0  0  0  0  0  0  0
  183.8880  179.5250  139.8540 O   0  0  0  0  0  0  0  0  0  0  0  0
  182.2800  177.8580  140.4140 C   0  0  0  0  0  2  0  0  0  0  0  0
  180.5610  178.5480  139.0320 C   0  0  0  0  0  1  0  0  0  0  0  0
  181.9100  177.9970  139.0080 N   0  0  0  0  0  0  0  0  0  0  0  0
  179.8030  175.3100  138.2700 O   0  0  0  0  0  0  0  0  0  0  0  0
  182.6910  174.1050  136.9480 N   0  0  0  0  0  0  0  0  0  0  0  0
  183.5470  174.8740  137.8070 C   0  0  0  0  0  3  0  0  0  0  0  0
  181.3630  173.6600  137.3540 C   0  0  0  0  0  2  0  0  0  0  0  0
  180.3380  174.7570  137.0840 C   0  0  0  0  0  2  0  0  0  0  0  0
  181.8530  176.6620  138.3940 C   0  0  1  0  0  3  0  0  0  0  0  0
  183.1930  175.9830  138.4670 C   0  0  0  0  0  3  0  0  0  0  0  0
  180.8390  175.7650  139.1170 C   0  0  0  0  0  2  0  0  0  0  0  0
  183.3240  173.3770  135.8650 C   0  0  0  0  0  1  0  0  0  0  0  0
  187.6630  176.5940  142.8940 C   0  0  0  0  0  2  0  0  0  0  0  0
  190.0960  176.7380  142.3190 C   0  0  0  0  0  0  0  0  0  0  0  0
  188.4580  177.9220  140.8300 C   0  0  2  0  0  3  0  0  0  0  0  0
  189.6470  178.5380  140.0940 C   0  0  1  0  0  3  0  0  0  0  0  0
  188.8080  177.0510  142.0220 C   0  0  0  0  0  0  0  0  0  0  0  0
  190.4460  175.9090  143.5150 C   0  0  0  0  0  1  0  0  0  0  0  0
  187.9200  177.9040  138.4750 C   0  0  2  0  0  3  0  0  0  0  0  0
  190.8410  177.5900  140.0910 C   0  0  0  0  0  2  0  0  0  0  0  0
  189.1770  178.7410  138.6640 C   0  0  0  0  0  2  0  0  0  0  0  0
  191.2450  177.2990  141.5270 C   0  0  0  0  0  2  0  0  0  0  0  0
  187.6770  177.1630  139.7780 C   0  0  0  0  0  2  0  0  0  0  0  0
  186.9890  176.1250  137.1830 O   0  0  0  0  0  1  0  0  0  0  0  0
  188.1240  176.9200  137.3380 C   0  0  0  0  0  2  0  0  0  0  0  0
  1  6  1  0  0  0  0
  2 29  1  6  0  0  0
  2  1  1  0  0  0  0
  3  4  1  0  0  0  0
  4  9  2  0  0  0  0
  5  2  1  0  0  0  0
  5  9  1  0  0  0  0
  6 11  1  0  0  0  0
  7 10  1  0  0  0  0
  7  3  2  0  0  0  0
  8  6  2  0  0  0  0
  9  8  1  0  0  0  0
 10  5  2  0  0  0  0
 11 13  1  0  0  0  0
 12 13  1  0  0  0  0
 12 14  1  0  0  0  0
 13 14  1  0  0  0  0
 15  7  1  0  0  0  0
 16 15  2  0  0  0  0
 17 15  1  0  0  0  0
 19 18  1  0  0  0  0
 19 17  1  0  0  0  0
 20 27  1  0  0  0  0
 21 23  1  0  0  0  0
 21 22  1  0  0  0  0
 22 26  2  0  0  0  0
 24 23  1  0  0  0  0
 24 20  1  0  0  0  0
 25 26  1  0  0  0  0
 25 19  1  1  0  0  0
 25 27  1  0  0  0  0
 28 21  1  0  0  0  0
 30 34  1  0  0  0  0
 31 39  1  6  0  0  0
 31 33  1  0  0  0  0
 32 37  1  6  0  0  0
 32 31  1  0  0  0  0
 33 30  2  0  0  0  0
 33 29  1  0  0  0  0
 35 41  1  6  0  0  0
 35 37  1  0  0  0  0
 35 39  1  0  0  0  0
 36 32  1  0  0  0  0
 36 38  1  0  0  0  0
 38 30  1  0  0  0  0
 40 41  1  0  0  0  0
M  END
>  <MODEL>
8

>  <REMARK>
 VINA RESULT:      -8.5      3.660      7.214
  Name = 
  8 active torsions:
  status: ('A' for Active; 'I' for Inactive)
    1  A    between atoms: C_8  and  C_27
    2  A    between atoms: C_9  and  C_27
    3  A    between atoms: C_11  and  N_38
    4  A    between atoms: N_18  and  C_26
    5  A    between atoms: N_18  and  C_39
    6  A    between atoms: C_21  and  C_24
    7  A    between atoms: C_25  and  C_28
    8  A    between atoms: C_28  and  C_39
                            x       y       z     vdW  Elec       q    Type
                         _______ _______ _______ _____ _____    ______ ____

>  <TORSDO>
F 8

$$$$
=
 OpenBabel11062415183D

 41 46  0  0  1  0  0  0  0  0999 V2000
  186.7280  177.6400  142.3300 C   0  0  0  0  0  2  0  0  0  0  0  0
  188.1770  177.7180  141.8380 C   0  0  2  0  0  3  0  0  0  0  0  0
  188.3700  177.8700  137.5370 C   0  0  0  0  0  3  0  0  0  0  0  0
  187.2560  178.3700  138.2140 C   0  0  0  0  0  3  0  0  0  0  0  0
  188.2350  177.6850  140.3300 C   0  0  0  0  0  0  0  0  0  0  0  0
  185.8220  178.5680  141.5580 C   0  0  0  0  0  0  0  0  0  0  0  0
  189.4270  177.2790  138.2420 C   0  0  0  0  0  0  0  0  0  0  0  0
  186.0370  178.7950  140.2950 N   0  0  0  0  0  0  0  0  0  0  0  0
  187.1830  178.2790  139.6060 C   0  0  0  0  0  0  0  0  0  0  0  0
  189.3580  177.2050  139.6420 C   0  0  0  0  0  3  0  0  0  0  0  0
  184.6490  179.1070  142.1710 N   0  0  0  0  0  2  0  0  0  0  0  0
  183.7500  180.1020  144.1820 C   0  0  0  0  0  2  0  0  0  0  0  0
  184.2940  178.8370  143.5540 C   0  0  0  0  0  3  0  0  0  0  0  0
  182.8000  179.0140  143.7310 C   0  0  0  0  0  2  0  0  0  0  0  0
  190.5940  176.7450  137.5160 C   0  0  0  0  0  0  0  0  0  0  0  0
  190.9680  177.2840  136.4370 O   0  0  0  0  0  0  0  0  0  0  0  0
  191.3280  175.5410  138.0220 C   0  0  0  0  0  2  0  0  0  0  0  0
  190.6490  173.6310  136.9130 C   0  0  0  0  0  1  0  0  0  0  0  0
  191.6840  174.6560  136.9170 N   0  0  0  0  0  0  0  0  0  0  0  0
  194.8930  175.2000  138.1880 O   0  0  0  0  0  0  0  0  0  0  0  0
  195.1440  171.8820  137.4990 N   0  0  0  0  0  0  0  0  0  0  0  0
  194.1470  171.8970  136.4660 C   0  0  0  0  0  3  0  0  0  0  0  0
  195.9780  173.0390  137.8050 C   0  0  0  0  0  2  0  0  0  0  0  0
  195.2540  173.9650  138.7760 C   0  0  0  0  0  2  0  0  0  0  0  0
  192.9730  174.0120  137.2160 C   0  0  1  0  0  3  0  0  0  0  0  0
  193.2020  172.8320  136.3110 C   0  0  0  0  0  3  0  0  0  0  0  0
  194.1390  174.9880  137.0110 C   0  0  0  0  0  2  0  0  0  0  0  0
  195.6410  170.5860  137.9180 C   0  0  0  0  0  1  0  0  0  0  0  0
  189.0210  176.6150  142.4810 C   0  0  0  0  0  2  0  0  0  0  0  0
  190.7870  177.6040  143.9560 C   0  0  0  0  0  0  0  0  0  0  0  0
  188.7220  176.6790  145.0430 C   0  0  2  0  0  3  0  0  0  0  0  0
  189.3940  176.9040  146.3970 C   0  0  1  0  0  3  0  0  0  0  0  0
  189.5690  177.0150  143.8300 C   0  0  0  0  0  0  0  0  0  0  0  0
  191.6400  177.9030  142.7630 C   0  0  0  0  0  1  0  0  0  0  0  0
  187.0240  177.5130  146.5450 C   0  0  2  0  0  3  0  0  0  0  0  0
  190.3170  178.1160  146.3560 C   0  0  0  0  0  2  0  0  0  0  0  0
  188.2600  177.1820  147.3700 C   0  0  0  0  0  2  0  0  0  0  0  0
  191.3900  177.8840  145.3050 C   0  0  0  0  0  2  0  0  0  0  0  0
  187.4410  177.4840  145.0860 C   0  0  0  0  0  2  0  0  0  0  0  0
  185.1300  178.8510  147.1140 O   0  0  0  0  0  1  0  0  0  0  0  0
  186.5110  178.8910  146.9210 C   0  0  0  0  0  2  0  0  0  0  0  0
  2  1  1  0  0  0  0
  2 29  1  1  0  0  0
  3  4  2  0  0  0  0
  3  7  1  0  0  0  0
  4  9  1  0  0  0  0
  5  2  1  0  0  0  0
  6 11  1  0  0  0  0
  6  1  1  0  0  0  0
  7 10  2  0  0  0  0
  8  6  2  0  0  0  0
  9  8  1  0  0  0  0
  9  5  2  0  0  0  0
 10  5  1  0  0  0  0
 11 13  1  0  0  0  0
 13 14  1  0  0  0  0
 13 12  1  0  0  0  0
 14 12  1  0  0  0  0
 15 17  1  0  0  0  0
 15  7  1  0  0  0  0
 16 15  2  0  0  0  0
 18 19  1  0  0  0  0
 19 17  1  0  0  0  0
 20 24  1  0  0  0  0
 21 23  1  0  0  0  0
 21 28  1  0  0  0  0
 22 21  1  0  0  0  0
 23 24  1  0  0  0  0
 25 19  1  6  0  0  0
 26 22  2  0  0  0  0
 26 25  1  0  0  0  0
 27 25  1  0  0  0  0
 27 20  1  0  0  0  0
 29 33  1  0  0  0  0
 30 38  1  0  0  0  0
 31 39  1  1  0  0  0
 31 32  1  0  0  0  0
 32 36  1  6  0  0  0
 32 37  1  0  0  0  0
 33 30  2  0  0  0  0
 33 31  1  0  0  0  0
 34 30  1  0  0  0  0
 35 41  1  1  0  0  0
 35 37  1  0  0  0  0
 38 36  1  0  0  0  0
 39 35  1  0  0  0  0
 41 40  1  0  0  0  0
M  END
>  <MODEL>
9

>  <REMARK>
 VINA RESULT:      -8.4      1.886      3.593
  Name = 
  8 active torsions:
  status: ('A' for Active; 'I' for Inactive)
    1  A    between atoms: C_8  and  C_27
    2  A    between atoms: C_9  and  C_27
    3  A    between atoms: C_11  and  N_38
    4  A    between atoms: N_18  and  C_26
    5  A    between atoms: N_18  and  C_39
    6  A    between atoms: C_21  and  C_24
    7  A    between atoms: C_25  and  C_28
    8  A    between atoms: C_28  and  C_39
                            x       y       z     vdW  Elec       q    Type
                         _______ _______ _______ _____ _____    ______ ____

>  <TORSDO>
F 8

$$$$
