=
 OpenBabel11062412463D

 54 60  0  0  1  0  0  0  0  0999 V2000
  190.0640  176.8070  141.1330 C   0  0  2  0  0  3  0  0  0  0  0  0
  190.6680  174.4800  138.3570 O   0  0  0  0  0  0  0  0  0  0  0  0
  183.9940  175.0510  135.7890 C   0  0  1  0  0  3  0  0  0  0  0  0
  189.6520  178.1000  138.9610 C   0  0  1  0  0  3  0  0  0  0  0  0
  190.5330  177.4990  139.8510 C   0  0  2  0  0  0  0  0  0  0  0  0
  190.2350  175.5440  137.8410 C   0  0  0  0  0  0  0  0  0  0  0  0
  188.5150  176.0680  136.0220 C   0  0  2  0  0  3  0  0  0  0  0  0
  179.9100  175.6890  136.9340 C   0  0  0  0  0  3  0  0  0  0  0  0
  182.2460  176.2260  137.1790 C   0  0  0  0  0  3  0  0  0  0  0  0
  181.5560  174.5400  135.6420 N   0  0  0  0  0  0  0  0  0  0  0  0
  180.5810  177.4480  138.5370 N   0  0  0  0  0  0  0  0  0  0  0  0
  190.1970  177.7410  142.3290 C   0  0  0  0  0  2  0  0  0  0  0  0
  183.9810  178.1850  139.5730 C   0  0  2  0  0  3  0  0  0  0  0  0
  182.5630  175.2450  136.2310 C   0  0  0  0  0  0  0  0  0  0  0  0
  187.2860  178.2240  136.1430 C   0  0  0  0  0  3  0  0  0  0  0  0
  179.2080  177.6370  138.9760 C   0  0  0  0  0  1  0  0  0  0  0  0
  186.9760  178.0050  145.3640 C   0  0  2  0  0  3  0  0  0  0  0  0
  184.9340  179.4130  142.8340 C   0  0  1  0  0  3  0  0  0  0  0  0
  184.1110  178.7000  141.9600 O   0  0  0  0  0  0  0  0  0  0  0  0
  186.0660  176.0190  136.2740 C   0  0  2  0  0  3  0  0  0  0  0  0
  188.4420  177.5690  135.9550 C   0  0  0  0  0  3  0  0  0  0  0  0
  186.1350  179.2150  144.9330 C   0  0  0  0  0  2  0  0  0  0  0  0
  190.1510  176.7220  138.6390 N   0  0  0  0  0  0  0  0  0  0  0  0
  187.3670  175.4330  136.8070 C   0  0  0  0  0  2  0  0  0  0  0  0
  180.9140  176.4440  137.5540 C   0  0  0  0  0  0  0  0  0  0  0  0
  184.8270  178.6680  140.7550 C   0  0  2  0  0  3  0  0  0  0  0  0
  189.3600  177.2440  143.4930 C   0  0  0  0  0  2  0  0  0  0  0  0
  184.2320  179.6670  139.7800 C   0  0  0  0  0  2  0  0  0  0  0  0
  192.2600  178.0570  139.7470 S   0  0  0  0  0  1  0  0  0  0  0  0
  186.0120  177.5220  136.5490 C   0  0  0  0  0  2  0  0  0  0  0  0
  188.1870  178.0190  139.3690 C   0  0  0  0  0  1  0  0  0  0  0  0
  190.8090  175.6470  141.3510 O   0  0  0  0  0  1  0  0  0  0  0  0
  184.9230  175.3500  136.8720 N   0  0  0  0  0  2  0  0  0  0  0  0
  184.1530  179.9870  143.8520 O   0  0  0  0  0  0  0  0  0  0  0  0
  187.0700  176.9960  144.3080 N   0  0  0  0  0  2  0  0  0  0  0  0
  189.9070  175.5530  136.3810 C   0  0  0  0  0  2  0  0  0  0  0  0
  182.5510  177.8070  139.9550 C   0  0  0  0  0  2  0  0  0  0  0  0
  187.8920  177.5150  143.2230 C   0  0  0  0  0  2  0  0  0  0  0  0
  181.5620  178.4300  138.9810 C   0  0  0  0  0  2  0  0  0  0  0  0
  180.2530  174.7350  135.9750 C   0  0  0  0  0  3  0  0  0  0  0  0
  184.8690  178.8240  144.1880 C   0  0  1  0  0  3  0  0  0  0  0  0
  185.3360  178.0780  147.1260 O   0  0  0  0  0  1  0  0  0  0  0  0
  186.4390  177.3680  146.6480 C   0  0  2  0  0  3  0  0  0  0  0  0
  188.7430  177.3170  147.3900 N   0  0  0  0  0  2  0  0  0  0  0  0
  187.4990  177.3250  147.7050 C   0  0  0  0  0  3  0  0  0  0  0  0
  184.2480  173.6370  135.2820 C   0  0  0  0  0  2  0  0  0  0  0  0
  184.6570  172.7430  136.4410 C   0  0  0  0  0  2  0  0  0  0  0  0
  184.3210  171.2940  136.1290 C   0  0  2  0  0  3  0  0  0  0  0  0
  186.4660  170.9660  134.9260 C   0  0  0  0  0  2  0  0  0  0  0  0
  185.7620  169.6280  134.9750 C   0  0  0  0  0  2  0  0  0  0  0  0
  184.9550  170.9020  134.8020 C   0  0  0  0  0  3  0  0  0  0  0  0
  182.2640  170.6390  135.0730 O   0  0  0  0  0  0  0  0  0  0  0  0
  182.0680  171.5200  137.1790 O   0  0  0  0  0  1  0  0  0  0  0  0
  182.8340  171.1040  136.0970 C   0  0  0  0  0  0  0  0  0  0  0  0
  1 32  1  1  0  0  0
  1 12  1  0  0  0  0
  3 46  1  1  0  0  0
  3 14  1  0  0  0  0
  3 33  1  0  0  0  0
  4 31  1  1  0  0  0
  4  5  1  0  0  0  0
  5 29  1  1  0  0  0
  5  1  1  0  0  0  0
  6  2  2  0  0  0  0
  6 23  1  0  0  0  0
  7 21  1  1  0  0  0
  7 36  1  0  0  0  0
  7 24  1  0  0  0  0
  8 25  1  0  0  0  0
  9 25  2  0  0  0  0
 10 40  1  0  0  0  0
 10 14  2  0  0  0  0
 11 16  1  0  0  0  0
 11 39  1  0  0  0  0
 12 27  1  0  0  0  0
 13 28  1  6  0  0  0
 13 37  1  0  0  0  0
 13 26  1  0  0  0  0
 14  9  1  0  0  0  0
 15 30  1  0  0  0  0
 17 43  1  1  0  0  0
 18 19  1  6  0  0  0
 18 34  1  0  0  0  0
 18 41  1  0  0  0  0
 20 30  1  1  0  0  0
 20 24  1  0  0  0  0
 20 33  1  0  0  0  0
 21 15  2  0  0  0  0
 22 17  1  0  0  0  0
 23  4  1  0  0  0  0
 23  5  1  0  0  0  0
 25 11  1  0  0  0  0
 26 28  1  6  0  0  0
 26 19  1  0  0  0  0
 34 41  1  0  0  0  0
 35 17  1  0  0  0  0
 36  6  1  0  0  0  0
 38 27  1  0  0  0  0
 38 35  1  0  0  0  0
 39 37  1  0  0  0  0
 40  8  2  0  0  0  0
 41 22  1  1  0  0  0
 43 42  1  1  0  0  0
 43 45  1  0  0  0  0
 44 45  2  0  0  0  0
 46 47  1  0  0  0  0
 48 47  1  6  0  0  0
 49 50  1  0  0  0  0
 51 49  1  0  0  0  0
 51 50  1  0  0  0  0
 51 48  1  0  0  0  0
 52 54  2  0  0  0  0
 54 48  1  0  0  0  0
 54 53  1  0  0  0  0
M  END
>  <MODEL>
1

>  <REMARK>
 VINA RESULT:      -7.2      0.000      0.000
  Name = 
  7 active torsions:
  status: ('A' for Active; 'I' for Inactive)
    1  A    between atoms: C_3  and  C_51
    2  A    between atoms: C_10  and  C_29
    3  A    between atoms: C_20  and  C_49
    4  A    between atoms: C_23  and  C_29
    5  A    between atoms: C_33  and  C_49
    6  A    between atoms: C_38  and  C_49
    7  A    between atoms: C_38  and  C_51
                            x       y       z     vdW  Elec       q    Type
                         _______ _______ _______ _____ _____    ______ ____

>  <TORSDO>
F 7

$$$$
=
 OpenBabel11062412463D

 54 60  0  0  1  0  0  0  0  0999 V2000
  181.3010  174.8290  137.6750 C   0  0  2  0  0  3  0  0  0  0  0  0
  180.0470  176.1610  140.8600 O   0  0  0  0  0  0  0  0  0  0  0  0
  186.4510  178.6890  142.8780 C   0  0  1  0  0  3  0  0  0  0  0  0
  181.7250  177.3560  137.6570 C   0  0  1  0  0  3  0  0  0  0  0  0
  180.8400  176.2860  137.5860 C   0  0  2  0  0  0  0  0  0  0  0  0
  180.6080  177.1210  140.2700 C   0  0  0  0  0  0  0  0  0  0  0  0
  182.2150  178.9700  141.0060 C   0  0  2  0  0  3  0  0  0  0  0  0
  190.6720  177.9840  142.5950 C   0  0  0  0  0  3  0  0  0  0  0  0
  188.4970  178.0260  141.5590 C   0  0  0  0  0  3  0  0  0  0  0  0
  188.7390  178.5740  143.8660 N   0  0  0  0  0  0  0  0  0  0  0  0
  190.4670  177.4150  140.1980 N   0  0  0  0  0  0  0  0  0  0  0  0
  181.4430  174.2240  136.2850 C   0  0  0  0  0  2  0  0  0  0  0  0
  187.3570  176.8560  138.4100 C   0  0  2  0  0  3  0  0  0  0  0  0
  187.9280  178.3920  142.7850 C   0  0  0  0  0  0  0  0  0  0  0  0
  183.8030  179.8900  139.3320 C   0  0  0  0  0  3  0  0  0  0  0  0
  191.8870  177.1180  140.0990 C   0  0  0  0  0  1  0  0  0  0  0  0
  184.9290  171.6810  135.2700 C   0  0  2  0  0  3  0  0  0  0  0  0
  186.9390  174.5750  135.6410 C   0  0  1  0  0  3  0  0  0  0  0  0
  187.5410  175.0030  136.8250 O   0  0  0  0  0  0  0  0  0  0  0  0
  184.6310  178.7240  141.4110 C   0  0  2  0  0  3  0  0  0  0  0  0
  182.5390  179.7440  139.7580 C   0  0  0  0  0  3  0  0  0  0  0  0
  185.9230  172.6360  134.5940 C   0  0  0  0  0  2  0  0  0  0  0  0
  180.9680  176.9810  138.8980 N   0  0  0  0  0  0  0  0  0  0  0  0
  183.3040  177.9760  141.4110 C   0  0  0  0  0  2  0  0  0  0  0  0
  189.8760  177.8010  141.4570 C   0  0  0  0  0  0  0  0  0  0  0  0
  186.7220  176.0470  137.2760 C   0  0  2  0  0  3  0  0  0  0  0  0
  182.2870  172.9630  136.3330 C   0  0  0  0  0  2  0  0  0  0  0  0
  187.3870  177.3800  136.9880 C   0  0  0  0  0  2  0  0  0  0  0  0
  179.2330  176.6440  136.8150 S   0  0  0  0  0  1  0  0  0  0  0  0
  184.9700  179.1990  139.9980 C   0  0  0  0  0  2  0  0  0  0  0  0
  183.1860  176.9570  137.8240 C   0  0  0  0  0  1  0  0  0  0  0  0
  180.3890  174.0850  138.4270 O   0  0  0  0  0  1  0  0  0  0  0  0
  185.6920  177.8790  141.9320 N   0  0  0  0  0  2  0  0  0  0  0  0
  187.8990  173.9540  134.8230 O   0  0  0  0  0  0  0  0  0  0  0  0
  184.5640  172.1280  136.6160 N   0  0  0  0  0  2  0  0  0  0  0  0
  180.7940  178.4090  141.0090 C   0  0  0  0  0  2  0  0  0  0  0  0
  188.7300  176.3400  138.8390 C   0  0  0  0  0  2  0  0  0  0  0  0
  183.7480  173.3300  136.5140 C   0  0  0  0  0  2  0  0  0  0  0  0
  189.7160  177.4930  138.9510 C   0  0  0  0  0  2  0  0  0  0  0  0
  190.0810  178.3730  143.7980 C   0  0  0  0  0  3  0  0  0  0  0  0
  187.0270  173.1050  135.5280 C   0  0  1  0  0  3  0  0  0  0  0  0
  185.1020  169.6310  136.5230 O   0  0  0  0  0  1  0  0  0  0  0  0
  185.4660  170.2480  135.3250 C   0  0  2  0  0  3  0  0  0  0  0  0
  187.6920  169.6580  136.0730 N   0  0  0  0  0  2  0  0  0  0  0  0
  186.9580  170.2340  135.1930 C   0  0  0  0  0  3  0  0  0  0  0  0
  185.9100  178.4600  144.2840 C   0  0  0  0  0  2  0  0  0  0  0  0
  186.8600  177.5610  145.0590 C   0  0  0  0  0  2  0  0  0  0  0  0
  187.1250  178.1430  146.4380 C   0  0  2  0  0  3  0  0  0  0  0  0
  189.2570  177.2350  147.3240 C   0  0  0  0  0  2  0  0  0  0  0  0
  188.4480  177.7320  148.5020 C   0  0  0  0  0  2  0  0  0  0  0  0
  187.7480  177.0760  147.3260 C   0  0  0  0  0  3  0  0  0  0  0  0
  185.7190  179.8910  147.3020 O   0  0  0  0  0  0  0  0  0  0  0  0
  184.8330  177.7790  147.3580 O   0  0  0  0  0  1  0  0  0  0  0  0
  185.8500  178.6670  147.0310 C   0  0  0  0  0  0  0  0  0  0  0  0
  1 32  1  1  0  0  0
  3 46  1  1  0  0  0
  4 31  1  1  0  0  0
  4 23  1  0  0  0  0
  5 29  1  6  0  0  0
  5  4  1  0  0  0  0
  5  1  1  0  0  0  0
  5 23  1  0  0  0  0
  6  2  2  0  0  0  0
  6 36  1  0  0  0  0
  7 21  1  6  0  0  0
  7 36  1  0  0  0  0
  7 24  1  0  0  0  0
  8 40  1  0  0  0  0
  9 14  2  0  0  0  0
 11 25  1  0  0  0  0
 12 27  1  0  0  0  0
 12  1  1  0  0  0  0
 13 28  1  6  0  0  0
 13 37  1  0  0  0  0
 14  3  1  0  0  0  0
 14 10  1  0  0  0  0
 15 21  2  0  0  0  0
 15 30  1  0  0  0  0
 16 11  1  0  0  0  0
 17 43  1  1  0  0  0
 17 35  1  0  0  0  0
 18 34  1  6  0  0  0
 18 19  1  0  0  0  0
 19 26  1  0  0  0  0
 20 30  1  6  0  0  0
 20 33  1  0  0  0  0
 22 17  1  0  0  0  0
 23  6  1  0  0  0  0
 24 20  1  0  0  0  0
 25  9  1  0  0  0  0
 25  8  2  0  0  0  0
 26 28  1  6  0  0  0
 26 13  1  0  0  0  0
 27 38  1  0  0  0  0
 33  3  1  0  0  0  0
 34 41  1  0  0  0  0
 37 39  1  0  0  0  0
 38 35  1  0  0  0  0
 39 11  1  0  0  0  0
 40 10  2  0  0  0  0
 41 22  1  6  0  0  0
 41 18  1  0  0  0  0
 43 42  1  1  0  0  0
 45 43  1  0  0  0  0
 45 44  2  0  0  0  0
 46 47  1  0  0  0  0
 48 47  1  6  0  0  0
 48 54  1  0  0  0  0
 48 51  1  0  0  0  0
 49 51  1  0  0  0  0
 49 50  1  0  0  0  0
 51 50  1  0  0  0  0
 54 52  2  0  0  0  0
 54 53  1  0  0  0  0
M  END
>  <MODEL>
2

>  <REMARK>
 VINA RESULT:      -5.4      2.750     10.494
  Name = 
  7 active torsions:
  status: ('A' for Active; 'I' for Inactive)
    1  A    between atoms: C_3  and  C_51
    2  A    between atoms: C_10  and  C_29
    3  A    between atoms: C_20  and  C_49
    4  A    between atoms: C_23  and  C_29
    5  A    between atoms: C_33  and  C_49
    6  A    between atoms: C_38  and  C_49
    7  A    between atoms: C_38  and  C_51
                            x       y       z     vdW  Elec       q    Type
                         _______ _______ _______ _____ _____    ______ ____

>  <TORSDO>
F 7

$$$$
