=
 OpenBabel11062416293D

 46 49  0  0  1  0  0  0  0  0999 V2000
  184.6000  177.5020  136.7950 C   0  0  0  0  0  0  0  0  0  0  0  0
  185.7870  177.7010  135.9040 C   0  0  0  0  0  2  0  0  0  0  0  0
  184.6910  177.7730  138.1030 C   0  0  0  0  0  3  0  0  0  0  0  0
  186.8960  176.7880  136.2990 C   0  0  0  0  0  3  0  0  0  0  0  0
  187.1830  177.8860  138.5150 C   0  0  0  0  0  0  0  0  0  0  0  0
  185.9140  178.2300  138.7930 C   0  0  0  0  0  3  0  0  0  0  0  0
  187.5310  176.8780  137.4700 C   0  0  0  0  0  0  0  0  0  0  0  0
  181.4020  177.5130  138.7440 N   0  0  0  0  0  0  0  0  0  0  0  0
  182.8130  175.2560  138.4050 S   0  0  0  0  0  0  0  0  0  0  0  0
  181.7860  179.6480  137.8600 O   0  0  0  0  0  0  0  0  0  0  0  0
  182.9550  175.5170  136.6090 C   0  0  0  0  0  2  0  0  0  0  0  0
  182.0760  177.8940  136.2900 C   0  0  0  0  0  2  0  0  0  0  0  0
  181.2060  176.0910  138.5040 C   0  0  0  0  0  2  0  0  0  0  0  0
  183.2970  176.9620  136.2340 C   0  0  1  0  0  3  0  0  0  0  0  0
  181.7530  178.4030  137.6660 C   0  0  0  0  0  0  0  0  0  0  0  0
  181.2210  177.9840  140.1180 C   0  0  2  0  0  3  0  0  0  0  0  0
  179.8600  178.6440  140.2860 C   0  0  0  0  0  2  0  0  0  0  0  0
  180.0180  180.0110  140.5190 O   0  0  0  0  0  1  0  0  0  0  0  0
  182.3420  178.9350  140.5400 C   0  0  0  0  0  2  0  0  0  0  0  0
  184.4370  178.9460  141.8920 C   0  0  0  0  0  2  0  0  0  0  0  0
  182.9620  178.8590  144.3370 C   0  0  0  0  0  3  0  0  0  0  0  0
  182.2410  179.1190  143.0400 C   0  0  0  0  0  2  0  0  0  0  0  0
  182.9800  178.5030  141.8520 C   0  0  1  0  0  3  0  0  0  0  0  0
  185.1070  178.3750  143.1410 C   0  0  0  0  0  2  0  0  0  0  0  0
  184.2710  178.5670  144.3840 C   0  0  0  0  0  3  0  0  0  0  0  0
  189.2050  179.1100  138.6690 O   0  0  0  0  0  0  0  0  0  0  0  0
  188.2830  178.5210  139.2930 C   0  0  0  0  0  0  0  0  0  0  0  0
  188.3200  178.5480  140.6930 O   0  0  0  0  0  0  0  0  0  0  0  0
  188.1570  177.4020  141.5160 C   0  0  0  0  0  2  0  0  0  0  0  0
  189.4550  177.0550  142.2440 C   0  0  2  0  0  3  0  0  0  0  0  0
  190.5960  177.0770  144.5660 C   0  0  0  0  0  0  0  0  0  0  0  0
  191.7260  176.8100  144.0760 O   0  0  0  0  0  0  0  0  0  0  0  0
  188.1280  177.9110  145.7600 C   0  0  0  0  0  2  0  0  0  0  0  0
  188.1090  177.4400  144.3150 C   0  0  0  0  0  2  0  0  0  0  0  0
  190.4000  176.9990  145.9900 N   0  0  0  0  0  0  0  0  0  0  0  0
  189.0500  177.0000  146.5570 C   0  0  0  0  0  2  0  0  0  0  0  0
  189.4860  177.6090  143.6760 C   0  0  2  0  0  3  0  0  0  0  0  0
  191.5530  176.8090  146.8670 C   0  0  2  0  0  3  0  0  0  0  0  0
  192.7340  174.7940  146.5170 O   0  0  0  0  0  0  0  0  0  0  0  0
  191.8100  175.3510  147.0880 C   0  0  0  0  0  3  0  0  0  0  0  0
  191.3350  177.4860  148.1370 N   0  0  0  0  0  2  0  0  0  0  0  0
  192.4910  177.3890  148.8360 O   0  0  0  0  0  1  0  0  0  0  0  0
  190.7080  177.3570  141.4270 C   0  0  0  0  0  2  0  0  0  0  0  0
  190.8960  176.3400  140.4070 N   0  0  0  0  0  1  0  0  0  0  0  0
  188.7260  174.9080  136.5840 C   0  0  0  0  0  1  0  0  0  0  0  0
  188.6320  175.9020  137.7260 C   0  0  0  0  0  2  0  0  0  0  0  0
  1  3  2  0  0  0  0
  2  4  1  0  0  0  0
  2  1  1  0  0  0  0
  3  6  1  0  0  0  0
  4  7  2  0  0  0  0
  5  6  2  0  0  0  0
  5 27  1  0  0  0  0
  7 46  1  0  0  0  0
  7  5  1  0  0  0  0
  8 16  1  0  0  0  0
  9 13  1  0  0  0  0
 11  9  1  0  0  0  0
 12 15  1  0  0  0  0
 13  8  1  0  0  0  0
 14 12  1  0  0  0  0
 14 11  1  0  0  0  0
 14  1  1  1  0  0  0
 15 10  2  0  0  0  0
 15  8  1  0  0  0  0
 16 17  1  6  0  0  0
 16 19  1  0  0  0  0
 17 18  1  0  0  0  0
 20 24  1  0  0  0  0
 21 25  2  0  0  0  0
 22 21  1  0  0  0  0
 23 19  1  6  0  0  0
 23 20  1  0  0  0  0
 23 22  1  0  0  0  0
 24 25  1  0  0  0  0
 26 27  2  0  0  0  0
 27 28  1  0  0  0  0
 28 29  1  0  0  0  0
 29 30  1  0  0  0  0
 30 43  1  6  0  0  0
 31 35  1  0  0  0  0
 32 31  2  0  0  0  0
 33 36  1  0  0  0  0
 34 33  1  0  0  0  0
 35 36  1  0  0  0  0
 35 38  1  0  0  0  0
 37 30  1  6  0  0  0
 37 34  1  0  0  0  0
 37 31  1  0  0  0  0
 38 40  1  1  0  0  0
 38 41  1  0  0  0  0
 39 40  2  0  0  0  0
 41 42  1  0  0  0  0
 44 43  1  0  0  0  0
 45 46  1  0  0  0  0
M  END
>  <MODEL>
1

>  <REMARK>
 VINA RESULT:      -7.6      0.000      0.000
  Name = 
  15 active torsions:
  status: ('A' for Active; 'I' for Inactive)
    1  A    between atoms: N_2  and  C_7
    2  A    between atoms: N_4  and  C_15
    3  A    between atoms: C_6  and  C_23
    4  A    between atoms: C_7  and  N_30
    5  A    between atoms: C_7  and  C_34
    6  A    between atoms: C_8  and  C_35
    7  A    between atoms: C_15  and  C_22
    8  A    between atoms: C_15  and  C_24
    9  A    between atoms: C_22  and  C_32
   10  A    between atoms: C_23  and  C_43
   11  A    between atoms: C_23  and  C_45
   12  A    between atoms: C_27  and  C_33
   13  A    between atoms: O_29  and  C_33
   14  A    between atoms: O_29  and  C_45
   15  A    between atoms: C_37  and  C_41
                            x       y       z     vdW  Elec       q    Type
                         _______ _______ _______ _____ _____    ______ ____

>  <TORSDO>
F 15

$$$$
=
 OpenBabel11062416293D

 46 49  0  0  1  0  0  0  0  0999 V2000
  184.7780  177.1030  136.1230 C   0  0  0  0  0  0  0  0  0  0  0  0
  185.8170  177.5520  135.1420 C   0  0  0  0  0  2  0  0  0  0  0  0
  184.9430  177.3400  137.4300 C   0  0  0  0  0  3  0  0  0  0  0  0
  187.1080  176.8500  135.3900 C   0  0  0  0  0  3  0  0  0  0  0  0
  187.3990  177.9060  137.6260 C   0  0  0  0  0  0  0  0  0  0  0  0
  186.1210  177.9950  138.0320 C   0  0  0  0  0  3  0  0  0  0  0  0
  187.8250  177.0170  136.5030 C   0  0  0  0  0  0  0  0  0  0  0  0
  181.6880  176.7640  138.2120 N   0  0  0  0  0  0  0  0  0  0  0  0
  183.4040  174.7200  137.9300 S   0  0  0  0  0  0  0  0  0  0  0  0
  181.7210  178.8760  137.2000 O   0  0  0  0  0  0  0  0  0  0  0  0
  183.4380  174.8920  136.1170 C   0  0  0  0  0  2  0  0  0  0  0  0
  182.2070  177.0930  135.7140 C   0  0  0  0  0  2  0  0  0  0  0  0
  181.6950  175.3170  138.0580 C   0  0  0  0  0  2  0  0  0  0  0  0
  183.5480  176.3470  135.6510 C   0  0  1  0  0  3  0  0  0  0  0  0
  181.8640  177.6310  137.0740 C   0  0  0  0  0  0  0  0  0  0  0  0
  181.4910  177.2850  139.5670 C   0  0  2  0  0  3  0  0  0  0  0  0
  180.0630  177.7750  139.7530 C   0  0  0  0  0  2  0  0  0  0  0  0
  179.2720  176.7510  140.2770 O   0  0  0  0  0  1  0  0  0  0  0  0
  182.4940  178.3930  139.8960 C   0  0  0  0  0  2  0  0  0  0  0  0
  184.5090  178.7650  141.3150 C   0  0  0  0  0  2  0  0  0  0  0  0
  182.9160  178.9490  143.6800 C   0  0  0  0  0  3  0  0  0  0  0  0
  182.2490  178.9520  142.3290 C   0  0  0  0  0  2  0  0  0  0  0  0
  183.0890  178.2160  141.2850 C   0  0  1  0  0  3  0  0  0  0  0  0
  185.1480  178.4430  142.6660 C   0  0  0  0  0  2  0  0  0  0  0  0
  184.2370  178.7640  143.8270 C   0  0  0  0  0  3  0  0  0  0  0  0
  189.1380  179.5130  137.6710 O   0  0  0  0  0  0  0  0  0  0  0  0
  188.4330  178.7080  138.3360 C   0  0  0  0  0  0  0  0  0  0  0  0
  188.6300  178.6590  139.7230 O   0  0  0  0  0  0  0  0  0  0  0  0
  188.4950  177.4810  140.5040 C   0  0  0  0  0  2  0  0  0  0  0  0
  189.8430  176.7920  140.7030 C   0  0  2  0  0  3  0  0  0  0  0  0
  189.3060  176.8090  143.2340 C   0  0  0  0  0  0  0  0  0  0  0  0
  188.3270  176.0300  143.0890 O   0  0  0  0  0  0  0  0  0  0  0  0
  191.6430  178.3970  143.7090 C   0  0  0  0  0  2  0  0  0  0  0  0
  191.1820  178.2010  142.2750 C   0  0  0  0  0  2  0  0  0  0  0  0
  189.4920  177.4950  144.4860 N   0  0  0  0  0  0  0  0  0  0  0  0
  190.4200  178.6220  144.5880 C   0  0  0  0  0  2  0  0  0  0  0  0
  190.3580  176.9230  142.1440 C   0  0  2  0  0  3  0  0  0  0  0  0
  188.6680  177.1300  145.6370 C   0  0  2  0  0  3  0  0  0  0  0  0
  186.3510  177.3740  146.0200 O   0  0  0  0  0  0  0  0  0  0  0  0
  187.3820  177.8950  145.6240 C   0  0  0  0  0  3  0  0  0  0  0  0
  189.3950  177.3770  146.8730 N   0  0  0  0  0  2  0  0  0  0  0  0
  189.1450  176.3280  147.6910 O   0  0  0  0  0  1  0  0  0  0  0  0
  190.8720  177.1520  139.6340 C   0  0  0  0  0  2  0  0  0  0  0  0
  191.4280  175.9430  139.0500 N   0  0  0  0  0  1  0  0  0  0  0  0
  188.8280  174.8170  136.9990 C   0  0  0  0  0  1  0  0  0  0  0  0
  189.1060  176.2580  136.6110 C   0  0  0  0  0  2  0  0  0  0  0  0
  1  3  2  0  0  0  0
  2  4  1  0  0  0  0
  2  1  1  0  0  0  0
  3  6  1  0  0  0  0
  4  7  2  0  0  0  0
  5  6  2  0  0  0  0
  5 27  1  0  0  0  0
  7 46  1  0  0  0  0
  7  5  1  0  0  0  0
  8 16  1  0  0  0  0
  9 13  1  0  0  0  0
 11  9  1  0  0  0  0
 12 15  1  0  0  0  0
 13  8  1  0  0  0  0
 14 12  1  0  0  0  0
 14 11  1  0  0  0  0
 14  1  1  1  0  0  0
 15 10  2  0  0  0  0
 15  8  1  0  0  0  0
 16 17  1  6  0  0  0
 16 19  1  0  0  0  0
 17 18  1  0  0  0  0
 20 24  1  0  0  0  0
 21 25  2  0  0  0  0
 22 21  1  0  0  0  0
 23 19  1  6  0  0  0
 23 20  1  0  0  0  0
 23 22  1  0  0  0  0
 24 25  1  0  0  0  0
 26 27  2  0  0  0  0
 27 28  1  0  0  0  0
 28 29  1  0  0  0  0
 29 30  1  0  0  0  0
 30 43  1  6  0  0  0
 31 35  1  0  0  0  0
 32 31  2  0  0  0  0
 33 36  1  0  0  0  0
 34 33  1  0  0  0  0
 35 36  1  0  0  0  0
 35 38  1  0  0  0  0
 37 30  1  6  0  0  0
 37 34  1  0  0  0  0
 37 31  1  0  0  0  0
 38 40  1  1  0  0  0
 38 41  1  0  0  0  0
 40 39  2  0  0  0  0
 41 42  1  0  0  0  0
 44 43  1  0  0  0  0
 46 45  1  0  0  0  0
M  END
>  <MODEL>
2

>  <REMARK>
 VINA RESULT:      -7.4      1.625      2.142
  Name = 
  15 active torsions:
  status: ('A' for Active; 'I' for Inactive)
    1  A    between atoms: N_2  and  C_7
    2  A    between atoms: N_4  and  C_15
    3  A    between atoms: C_6  and  C_23
    4  A    between atoms: C_7  and  N_30
    5  A    between atoms: C_7  and  C_34
    6  A    between atoms: C_8  and  C_35
    7  A    between atoms: C_15  and  C_22
    8  A    between atoms: C_15  and  C_24
    9  A    between atoms: C_22  and  C_32
   10  A    between atoms: C_23  and  C_43
   11  A    between atoms: C_23  and  C_45
   12  A    between atoms: C_27  and  C_33
   13  A    between atoms: O_29  and  C_33
   14  A    between atoms: O_29  and  C_45
   15  A    between atoms: C_37  and  C_41
                            x       y       z     vdW  Elec       q    Type
                         _______ _______ _______ _____ _____    ______ ____

>  <TORSDO>
F 15

$$$$
=
 OpenBabel11062416293D

 46 49  0  0  1  0  0  0  0  0999 V2000
  185.8450  177.3170  137.1530 C   0  0  0  0  0  0  0  0  0  0  0  0
  184.6840  176.3980  137.3730 C   0  0  0  0  0  2  0  0  0  0  0  0
  186.1610  178.2320  138.0780 C   0  0  0  0  0  3  0  0  0  0  0  0
  183.4110  177.1710  137.4450 C   0  0  0  0  0  3  0  0  0  0  0  0
  184.0950  178.3480  139.5290 C   0  0  0  0  0  0  0  0  0  0  0  0
  185.4190  178.4610  139.3330 C   0  0  0  0  0  3  0  0  0  0  0  0
  183.1420  178.0410  138.4210 C   0  0  0  0  0  0  0  0  0  0  0  0
  189.4490  176.3000  137.0840 N   0  0  0  0  0  0  0  0  0  0  0  0
  188.7270  178.8720  136.8220 S   0  0  0  0  0  0  0  0  0  0  0  0
  188.1000  174.3920  137.2450 O   0  0  0  0  0  0  0  0  0  0  0  0
  187.4960  178.4810  135.5390 C   0  0  0  0  0  2  0  0  0  0  0  0
  187.3910  175.9290  135.5840 C   0  0  0  0  0  2  0  0  0  0  0  0
  189.8140  177.4990  136.3440 C   0  0  0  0  0  2  0  0  0  0  0  0
  186.6520  177.2460  135.8690 C   0  0  1  0  0  3  0  0  0  0  0  0
  188.3220  175.4960  136.6800 C   0  0  0  0  0  0  0  0  0  0  0  0
  190.2790  175.9570  138.2400 C   0  0  2  0  0  3  0  0  0  0  0  0
  190.0260  176.9210  139.3890 C   0  0  0  0  0  2  0  0  0  0  0  0
  189.9250  176.2160  140.5890 O   0  0  0  0  0  1  0  0  0  0  0  0
  191.7650  175.9220  137.8760 C   0  0  0  0  0  2  0  0  0  0  0  0
  191.8460  174.2000  136.0760 C   0  0  0  0  0  2  0  0  0  0  0  0
  194.2360  173.0630  137.1530 C   0  0  0  0  0  3  0  0  0  0  0  0
  193.7360  174.3850  137.6770 C   0  0  0  0  0  2  0  0  0  0  0  0
  192.2220  174.5170  137.5180 C   0  0  1  0  0  3  0  0  0  0  0  0
  192.1710  172.7370  135.7770 C   0  0  0  0  0  2  0  0  0  0  0  0
  193.5470  172.3400  136.2570 C   0  0  0  0  0  3  0  0  0  0  0  0
  182.6030  177.8310  141.2950 O   0  0  0  0  0  0  0  0  0  0  0  0
  183.5540  178.5570  140.9010 C   0  0  0  0  0  0  0  0  0  0  0  0
  184.0840  179.4860  141.8060 O   0  0  0  0  0  0  0  0  0  0  0  0
  185.3510  179.3510  142.4340 C   0  0  0  0  0  2  0  0  0  0  0  0
  185.2020  178.9530  143.9010 C   0  0  2  0  0  3  0  0  0  0  0  0
  187.0780  178.1270  145.4790 C   0  0  0  0  0  0  0  0  0  0  0  0
  186.6630  178.8350  146.4350 O   0  0  0  0  0  0  0  0  0  0  0  0
  187.9710  176.3100  143.4520 C   0  0  0  0  0  2  0  0  0  0  0  0
  186.9520  177.3710  143.0730 C   0  0  0  0  0  2  0  0  0  0  0  0
  188.3710  177.4990  145.5660 N   0  0  0  0  0  0  0  0  0  0  0  0
  189.0070  176.9360  144.3740 C   0  0  0  0  0  2  0  0  0  0  0  0
  186.1680  177.8280  144.3010 C   0  0  2  0  0  3  0  0  0  0  0  0
  189.0980  177.5210  146.8340 C   0  0  2  0  0  3  0  0  0  0  0  0
  191.0490  176.3350  147.4350 O   0  0  0  0  0  0  0  0  0  0  0  0
  190.5150  177.0830  146.6320 C   0  0  0  0  0  3  0  0  0  0  0  0
  188.4360  176.6650  147.8070 N   0  0  0  0  0  2  0  0  0  0  0  0
  188.0650  177.4590  148.8390 O   0  0  0  0  0  1  0  0  0  0  0  0
  183.7530  178.7150  144.3210 C   0  0  0  0  0  2  0  0  0  0  0  0
  183.5850  179.0270  145.7290 N   0  0  0  0  0  1  0  0  0  0  0  0
  181.4060  178.9650  136.9300 C   0  0  0  0  0  1  0  0  0  0  0  0
  181.8220  178.7350  138.3720 C   0  0  0  0  0  2  0  0  0  0  0  0
  1  2  1  0  0  0  0
  1  3  2  0  0  0  0
  2  4  1  0  0  0  0
  3  6  1  0  0  0  0
  4  7  2  0  0  0  0
  5 27  1  0  0  0  0
  6  5  2  0  0  0  0
  7  5  1  0  0  0  0
  8 16  1  0  0  0  0
 11 14  1  0  0  0  0
 11  9  1  0  0  0  0
 12 14  1  0  0  0  0
 12 15  1  0  0  0  0
 13  9  1  0  0  0  0
 13  8  1  0  0  0  0
 14  1  1  1  0  0  0
 15  8  1  0  0  0  0
 15 10  2  0  0  0  0
 16 19  1  6  0  0  0
 16 17  1  0  0  0  0
 17 18  1  0  0  0  0
 20 23  1  0  0  0  0
 21 22  1  0  0  0  0
 23 22  1  0  0  0  0
 23 19  1  6  0  0  0
 24 20  1  0  0  0  0
 24 25  1  0  0  0  0
 25 21  2  0  0  0  0
 27 26  2  0  0  0  0
 27 28  1  0  0  0  0
 28 29  1  0  0  0  0
 30 29  1  6  0  0  0
 30 43  1  0  0  0  0
 31 35  1  0  0  0  0
 31 32  2  0  0  0  0
 33 36  1  0  0  0  0
 34 33  1  0  0  0  0
 34 37  1  0  0  0  0
 35 38  1  0  0  0  0
 36 35  1  0  0  0  0
 37 30  1  6  0  0  0
 37 31  1  0  0  0  0
 38 40  1  6  0  0  0
 38 41  1  0  0  0  0
 40 39  2  0  0  0  0
 41 42  1  0  0  0  0
 43 44  1  0  0  0  0
 45 46  1  0  0  0  0
 46  7  1  0  0  0  0
M  END
>  <MODEL>
3

>  <REMARK>
 VINA RESULT:      -7.3      3.091      7.152
  Name = 
  15 active torsions:
  status: ('A' for Active; 'I' for Inactive)
    1  A    between atoms: N_2  and  C_7
    2  A    between atoms: N_4  and  C_15
    3  A    between atoms: C_6  and  C_23
    4  A    between atoms: C_7  and  N_30
    5  A    between atoms: C_7  and  C_34
    6  A    between atoms: C_8  and  C_35
    7  A    between atoms: C_15  and  C_22
    8  A    between atoms: C_15  and  C_24
    9  A    between atoms: C_22  and  C_32
   10  A    between atoms: C_23  and  C_43
   11  A    between atoms: C_23  and  C_45
   12  A    between atoms: C_27  and  C_33
   13  A    between atoms: O_29  and  C_33
   14  A    between atoms: O_29  and  C_45
   15  A    between atoms: C_37  and  C_41
                            x       y       z     vdW  Elec       q    Type
                         _______ _______ _______ _____ _____    ______ ____

>  <TORSDO>
F 15

$$$$
=
 OpenBabel11062416293D

 46 49  0  0  1  0  0  0  0  0999 V2000
  189.3590  177.7200  139.8580 C   0  0  0  0  0  0  0  0  0  0  0  0
  188.3990  178.5780  140.6240 C   0  0  0  0  0  2  0  0  0  0  0  0
  189.9700  176.6930  140.4620 C   0  0  0  0  0  3  0  0  0  0  0  0
  189.1000  179.2840  141.7330 C   0  0  0  0  0  3  0  0  0  0  0  0
  189.6300  177.1620  142.9230 C   0  0  0  0  0  0  0  0  0  0  0  0
  189.8140  176.3290  141.8840 C   0  0  0  0  0  3  0  0  0  0  0  0
  189.6450  178.6480  142.7730 C   0  0  0  0  0  0  0  0  0  0  0  0
  187.1120  176.6980  137.0420 N   0  0  0  0  0  0  0  0  0  0  0  0
  189.3880  175.3710  137.5540 S   0  0  0  0  0  0  0  0  0  0  0  0
  186.2610  178.6280  138.0610 O   0  0  0  0  0  0  0  0  0  0  0  0
  190.3650  176.9060  137.6200 C   0  0  0  0  0  2  0  0  0  0  0  0
  188.5840  178.7370  137.5900 C   0  0  0  0  0  2  0  0  0  0  0  0
  188.2130  176.0480  136.3480 C   0  0  0  0  0  2  0  0  0  0  0  0
  189.6750  178.0260  138.4050 C   0  0  1  0  0  3  0  0  0  0  0  0
  187.2600  178.0260  137.5840 C   0  0  0  0  0  0  0  0  0  0  0  0
  185.8620  175.9440  137.1550 C   0  0  2  0  0  3  0  0  0  0  0  0
  185.9790  174.6020  136.4480 C   0  0  0  0  0  2  0  0  0  0  0  0
  185.1370  174.5740  135.3350 O   0  0  0  0  0  1  0  0  0  0  0  0
  184.6720  176.7410  136.6170 C   0  0  0  0  0  2  0  0  0  0  0  0
  182.6510  178.0550  137.2510 C   0  0  0  0  0  2  0  0  0  0  0  0
  181.6520  175.9080  138.8510 C   0  0  0  0  0  3  0  0  0  0  0  0
  182.8240  175.6730  137.9340 C   0  0  0  0  0  2  0  0  0  0  0  0
  183.6140  176.9580  137.6880 C   0  0  1  0  0  3  0  0  0  0  0  0
  181.6880  178.3690  138.3960 C   0  0  0  0  0  2  0  0  0  0  0  0
  181.1090  177.1240  139.0230 C   0  0  0  0  0  3  0  0  0  0  0  0
  190.3890  176.0020  144.8430 O   0  0  0  0  0  0  0  0  0  0  0  0
  189.4240  176.5810  144.2780 C   0  0  0  0  0  0  0  0  0  0  0  0
  188.2220  176.6930  144.9900 O   0  0  0  0  0  0  0  0  0  0  0  0
  186.9390  176.7460  144.3820 C   0  0  0  0  0  2  0  0  0  0  0  0
  186.0660  177.8200  145.0280 C   0  0  2  0  0  3  0  0  0  0  0  0
  183.7680  178.7650  144.3040 C   0  0  0  0  0  0  0  0  0  0  0  0
  183.3840  178.8990  145.4970 O   0  0  0  0  0  0  0  0  0  0  0  0
  184.6200  178.7170  141.5690 C   0  0  0  0  0  2  0  0  0  0  0  0
  185.4770  178.0090  142.6060 C   0  0  0  0  0  2  0  0  0  0  0  0
  182.8170  178.8910  143.2310 N   0  0  0  0  0  0  0  0  0  0  0  0
  183.1560  178.4430  141.8790 C   0  0  0  0  0  2  0  0  0  0  0  0
  185.2450  178.6040  143.9920 C   0  0  2  0  0  3  0  0  0  0  0  0
  181.4660  179.3700  143.5180 C   0  0  2  0  0  3  0  0  0  0  0  0
  179.7710  177.7400  143.3160 O   0  0  0  0  0  0  0  0  0  0  0  0
  180.6130  178.2550  144.0350 C   0  0  0  0  0  3  0  0  0  0  0  0
  180.8750  179.9510  142.3210 N   0  0  0  0  0  2  0  0  0  0  0  0
  179.9700  180.8670  142.7360 O   0  0  0  0  0  1  0  0  0  0  0  0
  186.8190  178.6960  146.0260 C   0  0  0  0  0  2  0  0  0  0  0  0
  186.5700  178.2340  147.3810 N   0  0  0  0  0  1  0  0  0  0  0  0
  191.7560  179.0710  143.9800 C   0  0  0  0  0  1  0  0  0  0  0  0
  190.3050  179.4870  143.8170 C   0  0  0  0  0  2  0  0  0  0  0  0
  1  3  2  0  0  0  0
  1  2  1  0  0  0  0
  2  4  1  0  0  0  0
  3  6  1  0  0  0  0
  4  7  2  0  0  0  0
  5 27  1  0  0  0  0
  6  5  2  0  0  0  0
  7  5  1  0  0  0  0
  7 46  1  0  0  0  0
  8 16  1  0  0  0  0
  8 15  1  0  0  0  0
  9 11  1  0  0  0  0
 11 14  1  0  0  0  0
 12 14  1  0  0  0  0
 13  8  1  0  0  0  0
 13  9  1  0  0  0  0
 14  1  1  1  0  0  0
 15 12  1  0  0  0  0
 15 10  2  0  0  0  0
 16 17  1  6  0  0  0
 18 17  1  0  0  0  0
 19 16  1  0  0  0  0
 20 23  1  0  0  0  0
 20 24  1  0  0  0  0
 21 25  2  0  0  0  0
 22 21  1  0  0  0  0
 23 19  1  6  0  0  0
 23 22  1  0  0  0  0
 24 25  1  0  0  0  0
 27 26  2  0  0  0  0
 27 28  1  0  0  0  0
 29 28  1  0  0  0  0
 30 29  1  6  0  0  0
 30 43  1  0  0  0  0
 31 32  2  0  0  0  0
 33 36  1  0  0  0  0
 33 34  1  0  0  0  0
 34 37  1  0  0  0  0
 35 38  1  0  0  0  0
 35 31  1  0  0  0  0
 36 35  1  0  0  0  0
 37 31  1  0  0  0  0
 37 30  1  1  0  0  0
 38 40  1  6  0  0  0
 39 40  2  0  0  0  0
 41 42  1  0  0  0  0
 41 38  1  0  0  0  0
 43 44  1  0  0  0  0
 46 45  1  0  0  0  0
M  END
>  <MODEL>
4

>  <REMARK>
 VINA RESULT:      -7.3      2.656      7.319
  Name = 
  15 active torsions:
  status: ('A' for Active; 'I' for Inactive)
    1  A    between atoms: N_2  and  C_7
    2  A    between atoms: N_4  and  C_15
    3  A    between atoms: C_6  and  C_23
    4  A    between atoms: C_7  and  N_30
    5  A    between atoms: C_7  and  C_34
    6  A    between atoms: C_8  and  C_35
    7  A    between atoms: C_15  and  C_22
    8  A    between atoms: C_15  and  C_24
    9  A    between atoms: C_22  and  C_32
   10  A    between atoms: C_23  and  C_43
   11  A    between atoms: C_23  and  C_45
   12  A    between atoms: C_27  and  C_33
   13  A    between atoms: O_29  and  C_33
   14  A    between atoms: O_29  and  C_45
   15  A    between atoms: C_37  and  C_41
                            x       y       z     vdW  Elec       q    Type
                         _______ _______ _______ _____ _____    ______ ____

>  <TORSDO>
F 15

$$$$
=
 OpenBabel11062416293D

 46 49  0  0  1  0  0  0  0  0999 V2000
  182.2570  178.0140  138.9180 C   0  0  0  0  0  0  0  0  0  0  0  0
  182.5360  177.1000  140.0730 C   0  0  0  0  0  2  0  0  0  0  0  0
  183.2480  178.7310  138.3770 C   0  0  0  0  0  3  0  0  0  0  0  0
  182.9930  177.8800  141.2570 C   0  0  0  0  0  3  0  0  0  0  0  0
  185.0770  178.6310  140.1200 C   0  0  0  0  0  0  0  0  0  0  0  0
  184.6460  178.7430  138.8520 C   0  0  0  0  0  3  0  0  0  0  0  0
  184.1410  178.5600  141.2830 C   0  0  0  0  0  0  0  0  0  0  0  0
  180.6930  175.4810  136.6460 N   0  0  0  0  0  0  0  0  0  0  0  0
  181.6060  177.8190  135.6980 S   0  0  0  0  0  0  0  0  0  0  0  0
  180.5830  174.7200  138.8590 O   0  0  0  0  0  0  0  0  0  0  0  0
  180.7290  178.7740  136.9760 C   0  0  0  0  0  2  0  0  0  0  0  0
  179.8940  176.9740  138.5840 C   0  0  0  0  0  2  0  0  0  0  0  0
  180.3540  176.5070  135.6720 C   0  0  0  0  0  2  0  0  0  0  0  0
  180.8470  178.1600  138.3750 C   0  0  1  0  0  3  0  0  0  0  0  0
  180.4090  175.6690  138.0470 C   0  0  0  0  0  0  0  0  0  0  0  0
  181.3240  174.2630  136.1330 C   0  0  2  0  0  3  0  0  0  0  0  0
  180.2720  173.2680  135.6660 C   0  0  0  0  0  2  0  0  0  0  0  0
  180.8590  172.0200  135.4510 O   0  0  0  0  0  1  0  0  0  0  0  0
  182.2500  173.6280  137.1720 C   0  0  0  0  0  2  0  0  0  0  0  0
  184.1320  175.2440  137.4220 C   0  0  0  0  0  2  0  0  0  0  0  0
  186.0640  173.1420  137.3160 C   0  0  0  0  0  3  0  0  0  0  0  0
  184.6020  172.8050  137.4560 C   0  0  0  0  0  2  0  0  0  0  0  0
  183.7140  173.8930  136.8540 C   0  0  1  0  0  3  0  0  0  0  0  0
  185.5540  175.5670  136.9660 C   0  0  0  0  0  2  0  0  0  0  0  0
  186.4970  174.4000  137.1400 C   0  0  0  0  0  3  0  0  0  0  0  0
  187.3320  178.6040  139.3960 O   0  0  0  0  0  0  0  0  0  0  0  0
  186.5430  178.5950  140.3780 C   0  0  0  0  0  0  0  0  0  0  0  0
  187.1010  178.6110  141.6640 O   0  0  0  0  0  0  0  0  0  0  0  0
  188.4880  178.4610  141.9300 C   0  0  0  0  0  2  0  0  0  0  0  0
  188.8330  177.0100  142.2610 C   0  0  2  0  0  3  0  0  0  0  0  0
  187.9830  177.1820  144.7000 C   0  0  0  0  0  0  0  0  0  0  0  0
  186.7850  177.0000  144.3550 O   0  0  0  0  0  0  0  0  0  0  0  0
  190.6900  177.3760  145.6190 C   0  0  0  0  0  2  0  0  0  0  0  0
  190.4230  177.4970  144.1280 C   0  0  0  0  0  2  0  0  0  0  0  0
  188.2800  177.6300  146.0350 N   0  0  0  0  0  0  0  0  0  0  0  0
  189.6110  178.1410  146.3710 C   0  0  0  0  0  2  0  0  0  0  0  0
  189.1140  176.8050  143.7580 C   0  0  2  0  0  3  0  0  0  0  0  0
  187.2150  177.6740  147.0340 C   0  0  2  0  0  3  0  0  0  0  0  0
  185.1450  178.7790  146.7720 O   0  0  0  0  0  0  0  0  0  0  0  0
  186.3590  178.8850  146.8360 C   0  0  0  0  0  3  0  0  0  0  0  0
  187.7830  177.6660  148.3750 N   0  0  0  0  0  2  0  0  0  0  0  0
  187.9560  176.3680  148.7190 O   0  0  0  0  0  1  0  0  0  0  0  0
  189.8900  176.4110  141.3370 C   0  0  0  0  0  2  0  0  0  0  0  0
  190.3790  177.4240  140.4180 N   0  0  0  0  0  1  0  0  0  0  0  0
  183.7010  178.6990  143.7070 C   0  0  0  0  0  1  0  0  0  0  0  0
  184.4770  179.2870  142.5430 C   0  0  0  0  0  2  0  0  0  0  0  0
  1  2  1  0  0  0  0
  2  4  1  0  0  0  0
  3  6  1  0  0  0  0
  3  1  2  0  0  0  0
  4  7  2  0  0  0  0
  5 27  1  0  0  0  0
  5  7  1  0  0  0  0
  6  5  2  0  0  0  0
  7 46  1  0  0  0  0
  8 15  1  0  0  0  0
  9 11  1  0  0  0  0
 11 14  1  0  0  0  0
 13  9  1  0  0  0  0
 13  8  1  0  0  0  0
 14 12  1  0  0  0  0
 14  1  1  6  0  0  0
 15 12  1  0  0  0  0
 15 10  2  0  0  0  0
 16 17  1  1  0  0  0
 16  8  1  0  0  0  0
 16 19  1  0  0  0  0
 18 17  1  0  0  0  0
 21 22  1  0  0  0  0
 23 19  1  1  0  0  0
 23 20  1  0  0  0  0
 23 22  1  0  0  0  0
 24 25  1  0  0  0  0
 24 20  1  0  0  0  0
 25 21  2  0  0  0  0
 26 27  2  0  0  0  0
 27 28  1  0  0  0  0
 28 29  1  0  0  0  0
 29 30  1  0  0  0  0
 30 43  1  6  0  0  0
 31 35  1  0  0  0  0
 32 31  2  0  0  0  0
 33 36  1  0  0  0  0
 34 33  1  0  0  0  0
 35 36  1  0  0  0  0
 35 38  1  0  0  0  0
 37 30  1  6  0  0  0
 37 34  1  0  0  0  0
 37 31  1  0  0  0  0
 38 40  1  6  0  0  0
 38 41  1  0  0  0  0
 39 40  2  0  0  0  0
 41 42  1  0  0  0  0
 44 43  1  0  0  0  0
 46 45  1  0  0  0  0
M  END
>  <MODEL>
5

>  <REMARK>
 VINA RESULT:      -7.0      2.676      5.081
  Name = 
  15 active torsions:
  status: ('A' for Active; 'I' for Inactive)
    1  A    between atoms: N_2  and  C_7
    2  A    between atoms: N_4  and  C_15
    3  A    between atoms: C_6  and  C_23
    4  A    between atoms: C_7  and  N_30
    5  A    between atoms: C_7  and  C_34
    6  A    between atoms: C_8  and  C_35
    7  A    between atoms: C_15  and  C_22
    8  A    between atoms: C_15  and  C_24
    9  A    between atoms: C_22  and  C_32
   10  A    between atoms: C_23  and  C_43
   11  A    between atoms: C_23  and  C_45
   12  A    between atoms: C_27  and  C_33
   13  A    between atoms: O_29  and  C_33
   14  A    between atoms: O_29  and  C_45
   15  A    between atoms: C_37  and  C_41
                            x       y       z     vdW  Elec       q    Type
                         _______ _______ _______ _____ _____    ______ ____

>  <TORSDO>
F 15

$$$$
=
 OpenBabel11062416293D

 46 49  0  0  1  0  0  0  0  0999 V2000
  190.6740  177.3330  141.2000 C   0  0  0  0  0  0  0  0  0  0  0  0
  189.7110  178.4780  141.2700 C   0  0  0  0  0  2  0  0  0  0  0  0
  191.0440  176.8410  140.0110 C   0  0  0  0  0  3  0  0  0  0  0  0
  188.3880  178.0830  140.7090 C   0  0  0  0  0  3  0  0  0  0  0  0
  189.3110  177.7640  138.4190 C   0  0  0  0  0  0  0  0  0  0  0  0
  190.5440  177.3100  138.7040 C   0  0  0  0  0  3  0  0  0  0  0  0
  188.2060  177.7720  139.4240 C   0  0  0  0  0  0  0  0  0  0  0  0
  188.7950  177.3900  144.4390 N   0  0  0  0  0  0  0  0  0  0  0  0
  190.8930  179.0110  144.0220 S   0  0  0  0  0  0  0  0  0  0  0  0
  187.9230  175.7110  143.0580 O   0  0  0  0  0  0  0  0  0  0  0  0
  191.9390  177.6420  143.4330 C   0  0  0  0  0  2  0  0  0  0  0  0
  190.2910  175.7050  143.1950 C   0  0  0  0  0  2  0  0  0  0  0  0
  189.9440  177.9430  145.1410 C   0  0  0  0  0  2  0  0  0  0  0  0
  191.2120  176.6990  142.4700 C   0  0  1  0  0  3  0  0  0  0  0  0
  188.9430  176.2630  143.5520 C   0  0  0  0  0  0  0  0  0  0  0  0
  187.5000  178.0280  144.6840 C   0  0  2  0  0  3  0  0  0  0  0  0
  186.7220  177.2730  145.7510 C   0  0  0  0  0  2  0  0  0  0  0  0
  187.1970  177.6120  147.0180 O   0  0  0  0  0  1  0  0  0  0  0  0
  186.6810  178.1510  143.3970 C   0  0  0  0  0  2  0  0  0  0  0  0
  184.8620  179.2480  144.7020 C   0  0  0  0  0  2  0  0  0  0  0  0
  182.9290  178.6320  142.6900 C   0  0  0  0  0  3  0  0  0  0  0  0
  184.3950  178.4300  142.4040 C   0  0  0  0  0  2  0  0  0  0  0  0
  185.1870  178.1630  143.6840 C   0  0  1  0  0  3  0  0  0  0  0  0
  183.3890  179.1490  145.0950 C   0  0  0  0  0  2  0  0  0  0  0  0
  182.4790  179.0020  143.8990 C   0  0  0  0  0  3  0  0  0  0  0  0
  189.0790  179.4970  136.8220 O   0  0  0  0  0  0  0  0  0  0  0  0
  189.0310  178.2580  137.0430 C   0  0  0  0  0  0  0  0  0  0  0  0
  188.7700  177.4110  135.9570 O   0  0  0  0  0  0  0  0  0  0  0  0
  189.7730  176.8840  135.1010 C   0  0  0  0  0  2  0  0  0  0  0  0
  190.0630  175.4200  135.4250 C   0  0  2  0  0  3  0  0  0  0  0  0
  192.1720  174.4340  136.5540 C   0  0  0  0  0  0  0  0  0  0  0  0
  191.4930  173.6300  137.2480 O   0  0  0  0  0  0  0  0  0  0  0  0
  193.8230  176.0550  134.8650 C   0  0  0  0  0  2  0  0  0  0  0  0
  192.3300  176.3330  134.8970 C   0  0  0  0  0  2  0  0  0  0  0  0
  193.5660  174.6340  136.8540 N   0  0  0  0  0  0  0  0  0  0  0  0
  194.2960  175.7660  136.2820 C   0  0  0  0  0  2  0  0  0  0  0  0
  191.5600  175.0870  135.3280 C   0  0  2  0  0  3  0  0  0  0  0  0
  194.2270  173.7600  137.8210 C   0  0  2  0  0  3  0  0  0  0  0  0
  195.3620  175.2630  139.2450 O   0  0  0  0  0  0  0  0  0  0  0  0
  195.4540  174.4180  138.3690 C   0  0  0  0  0  3  0  0  0  0  0  0
  194.5660  172.4890  137.1990 N   0  0  0  0  0  2  0  0  0  0  0  0
  195.6440  172.0040  137.8600 O   0  0  0  0  0  1  0  0  0  0  0  0
  189.1540  174.4430  134.6840 C   0  0  0  0  0  2  0  0  0  0  0  0
  188.2340  173.8150  135.6160 N   0  0  0  0  0  1  0  0  0  0  0  0
  185.8680  178.5510  139.2860 C   0  0  0  0  0  1  0  0  0  0  0  0
  186.8220  177.4060  138.9990 C   0  0  0  0  0  2  0  0  0  0  0  0
  1  2  1  0  0  0  0
  3  1  2  0  0  0  0
  4  2  1  0  0  0  0
  5  6  2  0  0  0  0
  5  7  1  0  0  0  0
  6  3  1  0  0  0  0
  7  4  2  0  0  0  0
  8 16  1  0  0  0  0
  8 13  1  0  0  0  0
  9 13  1  0  0  0  0
 10 15  2  0  0  0  0
 11  9  1  0  0  0  0
 12 15  1  0  0  0  0
 14  1  1  6  0  0  0
 14 12  1  0  0  0  0
 14 11  1  0  0  0  0
 15  8  1  0  0  0  0
 16 19  1  6  0  0  0
 16 17  1  0  0  0  0
 17 18  1  0  0  0  0
 20 24  1  0  0  0  0
 21 25  2  0  0  0  0
 22 21  1  0  0  0  0
 22 23  1  0  0  0  0
 23 19  1  6  0  0  0
 23 20  1  0  0  0  0
 25 24  1  0  0  0  0
 26 27  2  0  0  0  0
 27  5  1  0  0  0  0
 28 27  1  0  0  0  0
 29 30  1  0  0  0  0
 29 28  1  0  0  0  0
 30 43  1  6  0  0  0
 31 35  1  0  0  0  0
 31 32  2  0  0  0  0
 33 34  1  0  0  0  0
 33 36  1  0  0  0  0
 34 37  1  0  0  0  0
 35 38  1  0  0  0  0
 36 35  1  0  0  0  0
 37 30  1  1  0  0  0
 37 31  1  0  0  0  0
 38 40  1  6  0  0  0
 40 39  2  0  0  0  0
 41 38  1  0  0  0  0
 41 42  1  0  0  0  0
 43 44  1  0  0  0  0
 46 45  1  0  0  0  0
 46  7  1  0  0  0  0
M  END
>  <MODEL>
6

>  <REMARK>
 VINA RESULT:      -6.9      3.888      7.905
  Name = 
  15 active torsions:
  status: ('A' for Active; 'I' for Inactive)
    1  A    between atoms: N_2  and  C_7
    2  A    between atoms: N_4  and  C_15
    3  A    between atoms: C_6  and  C_23
    4  A    between atoms: C_7  and  N_30
    5  A    between atoms: C_7  and  C_34
    6  A    between atoms: C_8  and  C_35
    7  A    between atoms: C_15  and  C_22
    8  A    between atoms: C_15  and  C_24
    9  A    between atoms: C_22  and  C_32
   10  A    between atoms: C_23  and  C_43
   11  A    between atoms: C_23  and  C_45
   12  A    between atoms: C_27  and  C_33
   13  A    between atoms: O_29  and  C_33
   14  A    between atoms: O_29  and  C_45
   15  A    between atoms: C_37  and  C_41
                            x       y       z     vdW  Elec       q    Type
                         _______ _______ _______ _____ _____    ______ ____

>  <TORSDO>
F 15

$$$$
=
 OpenBabel11062416293D

 46 49  0  0  1  0  0  0  0  0999 V2000
  189.9700  177.4530  140.7640 C   0  0  0  0  0  0  0  0  0  0  0  0
  189.2320  178.7140  141.0930 C   0  0  0  0  0  2  0  0  0  0  0  0
  189.8630  176.9120  139.5440 C   0  0  0  0  0  3  0  0  0  0  0  0
  187.7600  178.4930  141.0150 C   0  0  0  0  0  3  0  0  0  0  0  0
  187.8270  178.0470  138.5670 C   0  0  0  0  0  0  0  0  0  0  0  0
  189.0190  177.4380  138.4530 C   0  0  0  0  0  3  0  0  0  0  0  0
  187.1260  178.2040  139.8770 C   0  0  0  0  0  0  0  0  0  0  0  0
  189.0480  177.4100  144.3940 N   0  0  0  0  0  0  0  0  0  0  0  0
  190.9960  179.0120  143.4750 S   0  0  0  0  0  0  0  0  0  0  0  0
  187.7870  175.8040  143.2470 O   0  0  0  0  0  0  0  0  0  0  0  0
  191.8040  177.6500  142.5760 C   0  0  0  0  0  2  0  0  0  0  0  0
  190.1010  175.7520  142.7310 C   0  0  0  0  0  2  0  0  0  0  0  0
  190.3590  177.9150  144.7730 C   0  0  0  0  0  2  0  0  0  0  0  0
  190.8160  176.7590  141.8160 C   0  0  1  0  0  3  0  0  0  0  0  0
  188.9170  176.3180  143.4620 C   0  0  0  0  0  0  0  0  0  0  0  0
  187.8870  178.0590  145.0050 C   0  0  2  0  0  3  0  0  0  0  0  0
  188.0780  178.2000  146.5080 C   0  0  0  0  0  2  0  0  0  0  0  0
  187.2110  177.3400  147.1820 O   0  0  0  0  0  1  0  0  0  0  0  0
  186.5910  177.3080  144.6900 C   0  0  0  0  0  2  0  0  0  0  0  0
  184.7760  177.8830  143.0810 C   0  0  0  0  0  2  0  0  0  0  0  0
  183.1780  179.0220  145.1570 C   0  0  0  0  0  3  0  0  0  0  0  0
  184.4070  178.2260  145.5130 C   0  0  0  0  0  2  0  0  0  0  0  0
  185.4470  178.2660  144.3940 C   0  0  1  0  0  3  0  0  0  0  0  0
  183.7330  178.9380  142.7180 C   0  0  0  0  0  2  0  0  0  0  0  0
  182.8490  179.3040  143.8870 C   0  0  0  0  0  3  0  0  0  0  0  0
  187.5710  179.6590  136.8490 O   0  0  0  0  0  0  0  0  0  0  0  0
  187.1690  178.5690  137.3370 C   0  0  0  0  0  0  0  0  0  0  0  0
  186.1580  177.8820  136.6520 O   0  0  0  0  0  0  0  0  0  0  0  0
  185.7650  176.5480  136.9430 C   0  0  0  0  0  2  0  0  0  0  0  0
  184.5380  176.1430  136.1290 C   0  0  2  0  0  3  0  0  0  0  0  0
  182.5380  177.4780  137.0840 C   0  0  0  0  0  0  0  0  0  0  0  0
  182.5340  178.2780  136.1110 O   0  0  0  0  0  0  0  0  0  0  0  0
  182.3090  175.5860  139.2240 C   0  0  0  0  0  2  0  0  0  0  0  0
  183.5440  175.5320  138.3400 C   0  0  0  0  0  2  0  0  0  0  0  0
  181.7570  177.7780  138.2560 N   0  0  0  0  0  0  0  0  0  0  0  0
  181.9750  177.0450  139.5050 C   0  0  0  0  0  2  0  0  0  0  0  0
  183.2530  176.1430  136.9720 C   0  0  2  0  0  3  0  0  0  0  0  0
  180.8150  178.8950  138.2280 C   0  0  2  0  0  3  0  0  0  0  0  0
  181.8960  180.9720  138.5310 O   0  0  0  0  0  0  0  0  0  0  0  0
  181.3240  180.0310  139.0580 C   0  0  0  0  0  3  0  0  0  0  0  0
  179.5090  178.4620  138.7040 N   0  0  0  0  0  2  0  0  0  0  0  0
  179.2290  179.1990  139.8050 O   0  0  0  0  0  1  0  0  0  0  0  0
  184.7470  174.8750  135.3050 C   0  0  0  0  0  2  0  0  0  0  0  0
  185.9740  174.2120  135.7130 N   0  0  0  0  0  1  0  0  0  0  0  0
  184.9410  179.3000  139.5340 C   0  0  0  0  0  1  0  0  0  0  0  0
  185.6460  178.0200  139.9460 C   0  0  0  0  0  2  0  0  0  0  0  0
  1  2  1  0  0  0  0
  3  1  2  0  0  0  0
  4  2  1  0  0  0  0
  5  7  1  0  0  0  0
  6  5  2  0  0  0  0
  6  3  1  0  0  0  0
  7 46  1  0  0  0  0
  7  4  2  0  0  0  0
  8 13  1  0  0  0  0
  8 16  1  0  0  0  0
  9 13  1  0  0  0  0
 10 15  2  0  0  0  0
 11  9  1  0  0  0  0
 12 15  1  0  0  0  0
 14  1  1  1  0  0  0
 14 11  1  0  0  0  0
 14 12  1  0  0  0  0
 15  8  1  0  0  0  0
 16 19  1  1  0  0  0
 16 17  1  0  0  0  0
 17 18  1  0  0  0  0
 20 23  1  0  0  0  0
 21 22  1  0  0  0  0
 23 19  1  1  0  0  0
 23 22  1  0  0  0  0
 24 20  1  0  0  0  0
 24 25  1  0  0  0  0
 25 21  2  0  0  0  0
 26 27  2  0  0  0  0
 27  5  1  0  0  0  0
 28 29  1  0  0  0  0
 28 27  1  0  0  0  0
 30 43  1  1  0  0  0
 30 29  1  0  0  0  0
 31 35  1  0  0  0  0
 32 31  2  0  0  0  0
 33 36  1  0  0  0  0
 34 33  1  0  0  0  0
 35 36  1  0  0  0  0
 37 30  1  1  0  0  0
 37 31  1  0  0  0  0
 37 34  1  0  0  0  0
 38 35  1  0  0  0  0
 38 41  1  0  0  0  0
 38 40  1  1  0  0  0
 39 40  2  0  0  0  0
 41 42  1  0  0  0  0
 43 44  1  0  0  0  0
 45 46  1  0  0  0  0
M  END
>  <MODEL>
7

>  <REMARK>
 VINA RESULT:      -6.7      2.738      8.678
  Name = 
  15 active torsions:
  status: ('A' for Active; 'I' for Inactive)
    1  A    between atoms: N_2  and  C_7
    2  A    between atoms: N_4  and  C_15
    3  A    between atoms: C_6  and  C_23
    4  A    between atoms: C_7  and  N_30
    5  A    between atoms: C_7  and  C_34
    6  A    between atoms: C_8  and  C_35
    7  A    between atoms: C_15  and  C_22
    8  A    between atoms: C_15  and  C_24
    9  A    between atoms: C_22  and  C_32
   10  A    between atoms: C_23  and  C_43
   11  A    between atoms: C_23  and  C_45
   12  A    between atoms: C_27  and  C_33
   13  A    between atoms: O_29  and  C_33
   14  A    between atoms: O_29  and  C_45
   15  A    between atoms: C_37  and  C_41
                            x       y       z     vdW  Elec       q    Type
                         _______ _______ _______ _____ _____    ______ ____

>  <TORSDO>
F 15

$$$$
=
 OpenBabel11062416293D

 46 49  0  0  1  0  0  0  0  0999 V2000
  182.7880  177.5810  137.0350 C   0  0  0  0  0  0  0  0  0  0  0  0
  182.9470  177.2530  135.5820 C   0  0  0  0  0  2  0  0  0  0  0  0
  183.6640  177.1080  137.9290 C   0  0  0  0  0  3  0  0  0  0  0  0
  182.8050  175.7860  135.3600 C   0  0  0  0  0  3  0  0  0  0  0  0
  184.8500  175.2580  136.6790 C   0  0  0  0  0  0  0  0  0  0  0  0
  184.8010  176.2190  137.6170 C   0  0  0  0  0  3  0  0  0  0  0  0
  183.6670  174.8890  135.8440 C   0  0  0  0  0  0  0  0  0  0  0  0
  182.6930  179.1830  140.4190 N   0  0  0  0  0  0  0  0  0  0  0  0
  181.2590  176.9770  139.8860 S   0  0  0  0  0  0  0  0  0  0  0  0
  184.0230  180.4680  138.9820 O   0  0  0  0  0  0  0  0  0  0  0  0
  180.5710  177.6940  138.3600 C   0  0  0  0  0  2  0  0  0  0  0  0
  181.9410  179.8270  138.0440 C   0  0  0  0  0  2  0  0  0  0  0  0
  181.3950  178.5900  140.7060 C   0  0  0  0  0  2  0  0  0  0  0  0
  181.6180  178.4230  137.5110 C   0  0  1  0  0  3  0  0  0  0  0  0
  182.9430  179.8440  139.1630 C   0  0  0  0  0  0  0  0  0  0  0  0
  183.7150  179.0750  141.4630 C   0  0  2  0  0  3  0  0  0  0  0  0
  184.6150  177.8740  141.2120 C   0  0  0  0  0  2  0  0  0  0  0  0
  185.8050  178.2880  140.6130 O   0  0  0  0  0  1  0  0  0  0  0  0
  183.0900  179.0050  142.8580 C   0  0  0  0  0  2  0  0  0  0  0  0
  185.4060  179.1660  143.7660 C   0  0  0  0  0  2  0  0  0  0  0  0
  184.5510  178.2600  146.3380 C   0  0  0  0  0  3  0  0  0  0  0  0
  183.5250  178.6330  145.2990 C   0  0  0  0  0  2  0  0  0  0  0  0
  184.0670  178.4490  143.8820 C   0  0  1  0  0  3  0  0  0  0  0  0
  186.4210  178.4960  144.6910 C   0  0  0  0  0  2  0  0  0  0  0  0
  185.8670  178.2440  146.0730 C   0  0  0  0  0  3  0  0  0  0  0  0
  186.3750  173.5260  137.2120 O   0  0  0  0  0  0  0  0  0  0  0  0
  186.1270  174.5190  136.4780 C   0  0  0  0  0  0  0  0  0  0  0  0
  187.0500  174.8330  135.4710 O   0  0  0  0  0  0  0  0  0  0  0  0
  187.7910  176.0440  135.4220 C   0  0  0  0  0  2  0  0  0  0  0  0
  189.2430  175.8210  135.8390 C   0  0  2  0  0  3  0  0  0  0  0  0
  190.2520  176.3240  138.1680 C   0  0  0  0  0  0  0  0  0  0  0  0
  190.8810  175.2330  138.1930 O   0  0  0  0  0  0  0  0  0  0  0  0
  189.0520  178.9250  138.1150 C   0  0  0  0  0  2  0  0  0  0  0  0
  188.6320  177.9150  137.0610 C   0  0  0  0  0  2  0  0  0  0  0  0
  190.1440  177.1130  139.3670 N   0  0  0  0  0  0  0  0  0  0  0  0
  189.1780  178.2110  139.4530 C   0  0  0  0  0  2  0  0  0  0  0  0
  189.7260  176.8700  136.8520 C   0  0  2  0  0  3  0  0  0  0  0  0
  190.9290  176.7460  140.5440 C   0  0  2  0  0  3  0  0  0  0  0  0
  190.1250  175.7890  142.5470 O   0  0  0  0  0  0  0  0  0  0  0  0
  190.0650  176.7250  141.7650 C   0  0  0  0  0  3  0  0  0  0  0  0
  192.0350  177.6770  140.7190 N   0  0  0  0  0  2  0  0  0  0  0  0
  193.1100  177.1280  140.1070 O   0  0  0  0  0  1  0  0  0  0  0  0
  190.1880  175.6070  134.6590 C   0  0  0  0  0  2  0  0  0  0  0  0
  190.7080  174.2510  134.6770 N   0  0  0  0  0  1  0  0  0  0  0  0
  181.9210  173.1580  135.6340 C   0  0  0  0  0  1  0  0  0  0  0  0
  183.4070  173.4530  135.5320 C   0  0  0  0  0  2  0  0  0  0  0  0
  1  3  2  0  0  0  0
  2  1  1  0  0  0  0
  4  2  1  0  0  0  0
  4  7  2  0  0  0  0
  5  6  2  0  0  0  0
  6  3  1  0  0  0  0
  7  5  1  0  0  0  0
  8 13  1  0  0  0  0
  8 16  1  0  0  0  0
  9 13  1  0  0  0  0
 10 15  2  0  0  0  0
 11  9  1  0  0  0  0
 12 15  1  0  0  0  0
 14  1  1  1  0  0  0
 14 12  1  0  0  0  0
 14 11  1  0  0  0  0
 15  8  1  0  0  0  0
 16 17  1  6  0  0  0
 16 19  1  0  0  0  0
 18 17  1  0  0  0  0
 20 23  1  0  0  0  0
 20 24  1  0  0  0  0
 22 21  1  0  0  0  0
 23 19  1  6  0  0  0
 23 22  1  0  0  0  0
 24 25  1  0  0  0  0
 25 21  2  0  0  0  0
 27  5  1  0  0  0  0
 27 26  2  0  0  0  0
 28 27  1  0  0  0  0
 29 28  1  0  0  0  0
 29 30  1  0  0  0  0
 30 43  1  6  0  0  0
 31 32  2  0  0  0  0
 31 35  1  0  0  0  0
 33 36  1  0  0  0  0
 34 33  1  0  0  0  0
 35 36  1  0  0  0  0
 35 38  1  0  0  0  0
 37 30  1  6  0  0  0
 37 34  1  0  0  0  0
 37 31  1  0  0  0  0
 38 41  1  0  0  0  0
 38 40  1  1  0  0  0
 40 39  2  0  0  0  0
 42 41  1  0  0  0  0
 43 44  1  0  0  0  0
 46 45  1  0  0  0  0
 46  7  1  0  0  0  0
M  END
>  <MODEL>
8

>  <REMARK>
 VINA RESULT:      -6.7      2.860      5.075
  Name = 
  15 active torsions:
  status: ('A' for Active; 'I' for Inactive)
    1  A    between atoms: N_2  and  C_7
    2  A    between atoms: N_4  and  C_15
    3  A    between atoms: C_6  and  C_23
    4  A    between atoms: C_7  and  N_30
    5  A    between atoms: C_7  and  C_34
    6  A    between atoms: C_8  and  C_35
    7  A    between atoms: C_15  and  C_22
    8  A    between atoms: C_15  and  C_24
    9  A    between atoms: C_22  and  C_32
   10  A    between atoms: C_23  and  C_43
   11  A    between atoms: C_23  and  C_45
   12  A    between atoms: C_27  and  C_33
   13  A    between atoms: O_29  and  C_33
   14  A    between atoms: O_29  and  C_45
   15  A    between atoms: C_37  and  C_41
                            x       y       z     vdW  Elec       q    Type
                         _______ _______ _______ _____ _____    ______ ____

>  <TORSDO>
F 15

$$$$
=
 OpenBabel11062416293D

 46 49  0  0  1  0  0  0  0  0999 V2000
  182.2590  178.5710  139.5240 C   0  0  0  0  0  0  0  0  0  0  0  0
  182.5550  177.5840  140.6110 C   0  0  0  0  0  2  0  0  0  0  0  0
  183.2620  179.1970  138.8960 C   0  0  0  0  0  3  0  0  0  0  0  0
  183.2240  178.2570  141.7600 C   0  0  0  0  0  3  0  0  0  0  0  0
  185.2450  178.8190  140.4190 C   0  0  0  0  0  0  0  0  0  0  0  0
  184.6960  179.0330  139.2110 C   0  0  0  0  0  3  0  0  0  0  0  0
  184.4390  178.8040  141.6760 C   0  0  0  0  0  0  0  0  0  0  0  0
  180.0860  176.2010  137.6040 N   0  0  0  0  0  0  0  0  0  0  0  0
  181.1830  178.3460  136.4220 S   0  0  0  0  0  0  0  0  0  0  0  0
  180.1560  175.5520  139.8540 O   0  0  0  0  0  0  0  0  0  0  0  0
  180.6150  179.4660  137.7400 C   0  0  0  0  0  2  0  0  0  0  0  0
  179.7530  177.8680  139.5360 C   0  0  0  0  0  2  0  0  0  0  0  0
  179.7690  177.2260  136.6210 C   0  0  0  0  0  2  0  0  0  0  0  0
  180.8250  178.8970  139.1470 C   0  0  1  0  0  3  0  0  0  0  0  0
  180.0120  176.4820  139.0160 C   0  0  0  0  0  0  0  0  0  0  0  0
  180.4730  174.8870  137.0890 C   0  0  2  0  0  3  0  0  0  0  0  0
  179.4270  173.8400  137.4430 C   0  0  0  0  0  2  0  0  0  0  0  0
  179.9400  172.5610  137.2240 O   0  0  0  0  0  1  0  0  0  0  0  0
  181.8550  174.4680  137.5960 C   0  0  0  0  0  2  0  0  0  0  0  0
  184.1120  175.5210  137.7040 C   0  0  0  0  0  2  0  0  0  0  0  0
  184.7250  174.6830  135.0420 C   0  0  0  0  0  3  0  0  0  0  0  0
  183.5010  174.1390  135.7320 C   0  0  0  0  0  2  0  0  0  0  0  0
  182.9690  175.1120  136.7840 C   0  0  1  0  0  3  0  0  0  0  0  0
  185.1520  176.3020  136.9020 C   0  0  0  0  0  2  0  0  0  0  0  0
  185.4980  175.6310  135.5940 C   0  0  0  0  0  3  0  0  0  0  0  0
  187.3490  178.2930  139.4660 O   0  0  0  0  0  0  0  0  0  0  0  0
  186.7160  178.6110  140.5080 C   0  0  0  0  0  0  0  0  0  0  0  0
  187.4530  178.8040  141.6850 O   0  0  0  0  0  0  0  0  0  0  0  0
  188.8590  178.6270  141.7810 C   0  0  0  0  0  2  0  0  0  0  0  0
  189.2070  177.4400  142.6770 C   0  0  2  0  0  3  0  0  0  0  0  0
  190.4440  177.3590  144.9480 C   0  0  0  0  0  0  0  0  0  0  0  0
  191.5760  177.3240  144.3940 O   0  0  0  0  0  0  0  0  0  0  0  0
  187.9430  177.6660  146.3110 C   0  0  0  0  0  2  0  0  0  0  0  0
  187.9220  177.3710  144.8200 C   0  0  0  0  0  2  0  0  0  0  0  0
  190.3310  177.0840  146.3570 N   0  0  0  0  0  0  0  0  0  0  0  0
  189.0250  176.8150  146.9610 C   0  0  0  0  0  2  0  0  0  0  0  0
  189.2260  177.8190  144.1660 C   0  0  2  0  0  3  0  0  0  0  0  0
  191.5410  176.9680  147.1670 C   0  0  2  0  0  3  0  0  0  0  0  0
  193.1060  175.2690  147.6590 O   0  0  0  0  0  0  0  0  0  0  0  0
  191.9970  175.5440  147.2270 C   0  0  0  0  0  3  0  0  0  0  0  0
  191.2990  177.4810  148.5080 N   0  0  0  0  0  2  0  0  0  0  0  0
  192.5110  177.7180  149.0620 O   0  0  0  0  0  1  0  0  0  0  0  0
  190.4380  176.6670  142.2100 C   0  0  0  0  0  2  0  0  0  0  0  0
  190.3310  176.3690  140.7920 N   0  0  0  0  0  1  0  0  0  0  0  0
  184.6270  178.6040  144.1290 C   0  0  0  0  0  1  0  0  0  0  0  0
  184.9910  179.4340  142.9120 C   0  0  0  0  0  2  0  0  0  0  0  0
  1  2  1  0  0  0  0
  2  4  1  0  0  0  0
  3  6  1  0  0  0  0
  3  1  2  0  0  0  0
  5 27  1  0  0  0  0
  5  7  1  0  0  0  0
  6  5  2  0  0  0  0
  7  4  2  0  0  0  0
  7 46  1  0  0  0  0
  8 15  1  0  0  0  0
  9 13  1  0  0  0  0
  9 11  1  0  0  0  0
 11 14  1  0  0  0  0
 13  8  1  0  0  0  0
 14  1  1  6  0  0  0
 14 12  1  0  0  0  0
 15 12  1  0  0  0  0
 15 10  2  0  0  0  0
 16 17  1  1  0  0  0
 16 19  1  0  0  0  0
 16  8  1  0  0  0  0
 18 17  1  0  0  0  0
 21 25  2  0  0  0  0
 21 22  1  0  0  0  0
 22 23  1  0  0  0  0
 23 19  1  1  0  0  0
 23 20  1  0  0  0  0
 24 20  1  0  0  0  0
 25 24  1  0  0  0  0
 26 27  2  0  0  0  0
 27 28  1  0  0  0  0
 28 29  1  0  0  0  0
 30 29  1  6  0  0  0
 31 35  1  0  0  0  0
 32 31  2  0  0  0  0
 33 36  1  0  0  0  0
 34 33  1  0  0  0  0
 35 36  1  0  0  0  0
 35 38  1  0  0  0  0
 37 30  1  6  0  0  0
 37 34  1  0  0  0  0
 37 31  1  0  0  0  0
 38 40  1  1  0  0  0
 38 41  1  0  0  0  0
 40 39  2  0  0  0  0
 41 42  1  0  0  0  0
 43 30  1  0  0  0  0
 44 43  1  0  0  0  0
 46 45  1  0  0  0  0
M  END
>  <MODEL>
9

>  <REMARK>
 VINA RESULT:      -6.6      1.936      4.528
  Name = 
  15 active torsions:
  status: ('A' for Active; 'I' for Inactive)
    1  A    between atoms: N_2  and  C_7
    2  A    between atoms: N_4  and  C_15
    3  A    between atoms: C_6  and  C_23
    4  A    between atoms: C_7  and  N_30
    5  A    between atoms: C_7  and  C_34
    6  A    between atoms: C_8  and  C_35
    7  A    between atoms: C_15  and  C_22
    8  A    between atoms: C_15  and  C_24
    9  A    between atoms: C_22  and  C_32
   10  A    between atoms: C_23  and  C_43
   11  A    between atoms: C_23  and  C_45
   12  A    between atoms: C_27  and  C_33
   13  A    between atoms: O_29  and  C_33
   14  A    between atoms: O_29  and  C_45
   15  A    between atoms: C_37  and  C_41
                            x       y       z     vdW  Elec       q    Type
                         _______ _______ _______ _____ _____    ______ ____

>  <TORSDO>
F 15

$$$$
