=
 OpenBabel11062417473D

 64 70  0  0  1  0  0  0  0  0999 V2000
  188.6100  177.4970  142.2090 C   0  0  0  0  0  0  0  0  0  0  0  0
  187.3320  177.7300  141.8690 C   0  0  0  0  0  3  0  0  0  0  0  0
  189.6200  177.4340  141.0990 C   0  0  1  0  0  3  0  0  0  0  0  0
  190.5250  176.3890  141.3080 O   0  0  0  0  0  1  0  0  0  0  0  0
  189.0130  177.3690  139.6940 C   0  0  0  0  0  2  0  0  0  0  0  0
  188.8600  178.8630  137.6790 C   0  0  0  0  0  2  0  0  0  0  0  0
  189.4310  178.1120  136.6320 O   0  0  0  0  0  0  0  0  0  0  0  0
  190.2970  177.4630  137.4670 N   0  0  1  0  0  0  0  0  0  0  0  0
  189.7740  178.1740  138.6370 C   0  0  2  0  0  3  0  0  0  0  0  0
  190.2890  175.9930  137.1950 C   0  0  2  0  0  3  0  0  0  0  0  0
  191.6260  175.2400  137.0350 C   0  0  1  0  0  3  0  0  0  0  0  0
  190.7550  175.5500  135.8190 C   0  0  1  0  0  3  0  0  0  0  0  0
  189.9940  174.3380  135.3650 C   0  0  0  0  0  0  0  0  0  0  0  0
  188.5710  174.2480  135.5170 N   0  0  0  0  0  2  0  0  0  0  0  0
  190.6310  173.3890  134.8370 O   0  0  0  0  0  0  0  0  0  0  0  0
  187.8110  173.0560  135.1670 C   0  0  0  0  0  2  0  0  0  0  0  0
  186.2360  171.6600  136.2430 O   0  0  0  0  0  0  0  0  0  0  0  0
  186.7930  172.7460  136.2190 C   0  0  0  0  0  0  0  0  0  0  0  0
  186.5270  173.7390  137.3010 C   0  0  0  0  0  1  0  0  0  0  0  0
  192.9100  176.0530  136.9810 C   0  0  2  0  0  3  0  0  0  0  0  0
  193.3710  176.1050  135.6650 O   0  0  0  0  0  1  0  0  0  0  0  0
  193.9610  175.3880  137.8520 C   0  0  0  0  0  2  0  0  0  0  0  0
  194.0620  176.0610  139.0720 O   0  0  0  0  0  1  0  0  0  0  0  0
  189.0660  177.3450  143.6470 C   0  0  1  0  0  3  0  0  0  0  0  0
  190.0030  178.4460  144.1660 C   0  0  0  0  0  3  0  0  0  0  0  0
  190.7650  178.9600  143.1380 O   0  0  0  0  0  0  0  0  0  0  0  0
  191.3310  178.1090  144.0040 O   0  0  0  0  0  0  0  0  0  0  0  0
  187.9750  177.0900  144.5280 O   0  0  0  0  0  0  0  0  0  0  0  0
  189.0640  176.7720  146.5160 O   0  0  0  0  0  0  0  0  0  0  0  0
  188.0720  177.2500  145.9100 C   0  0  0  0  0  0  0  0  0  0  0  0
  187.0150  177.9570  146.6950 C   0  0  0  0  0  2  0  0  0  0  0  0
  187.3860  178.0100  148.0360 O   0  0  0  0  0  1  0  0  0  0  0  0
  186.2370  177.9360  142.8700 C   0  0  0  0  0  2  0  0  0  0  0  0
  184.0620  178.9650  144.7100 C   0  0  0  0  0  2  0  0  0  0  0  0
  185.1190  179.8700  144.0820 C   0  0  0  0  0  2  0  0  0  0  0  0
  182.9600  178.7770  143.8250 O   0  0  0  0  0  0  0  0  0  0  0  0
  182.1460  178.3030  141.7310 O   0  0  0  0  0  0  0  0  0  0  0  0
  185.5580  179.3000  142.7290 C   0  0  2  0  0  3  0  0  0  0  0  0
  183.1130  178.7010  142.4360 C   0  0  0  0  0  0  0  0  0  0  0  0
  184.3590  179.2190  141.7680 C   0  0  2  0  0  3  0  0  0  0  0  0
  184.6720  178.4370  140.6210 O   0  0  0  0  0  0  0  0  0  0  0  0
  184.4420  178.9050  139.3300 C   0  0  0  0  0  0  0  0  0  0  0  0
  184.6520  180.1210  139.0710 O   0  0  0  0  0  0  0  0  0  0  0  0
  184.0140  178.0170  138.3340 O   0  0  0  0  0  0  0  0  0  0  0  0
  186.0130  176.9540  137.8150 O   0  0  0  0  0  0  0  0  0  0  0  0
  184.8580  177.3210  137.4570 C   0  0  0  0  0  0  0  0  0  0  0  0
  184.3860  176.9810  136.0720 C   0  0  2  0  0  3  0  0  0  0  0  0
  183.8070  175.5930  135.9190 C   0  0  0  0  0  0  0  0  0  0  0  0
  183.8220  175.0010  134.6110 S   0  0  0  0  0  0  0  0  0  0  0  0
  181.6220  175.6790  137.2210 C   0  0  1  0  0  0  0  0  0  0  0  0
  179.1030  173.1150  138.1780 O   0  0  0  0  0  0  0  0  0  0  0  0
  179.7220  173.8630  139.2020 C   0  0  1  0  0  3  0  0  0  0  0  0
  181.2320  173.2830  137.1870 O   0  0  0  0  0  0  0  0  0  0  0  0
  181.2160  175.7450  138.6920 C   0  0  0  0  0  2  0  0  0  0  0  0
  181.4070  176.8250  136.4480 O   0  0  0  0  0  1  0  0  0  0  0  0
  182.9460  174.9510  136.9870 C   0  0  1  0  0  3  0  0  0  0  0  0
  179.7650  175.3410  138.8950 C   0  0  2  0  0  3  0  0  0  0  0  0
  181.6420  174.3810  136.4230 C   0  0  2  0  0  3  0  0  0  0  0  0
  178.9720  173.7400  140.4230 N   0  0  0  0  0  2  0  0  0  0  0  0
  179.8450  173.1970  136.9740 C   0  0  0  0  0  2  0  0  0  0  0  0
  179.0270  175.0710  141.0020 C   0  0  0  0  0  2  0  0  0  0  0  0
  179.2280  176.0290  139.9910 O   0  0  0  0  0  0  0  0  0  0  0  0
  186.6880  177.0080  135.3510 O   0  0  0  0  0  1  0  0  0  0  0  0
  185.3870  177.3350  134.9710 C   0  0  0  0  0  2  0  0  0  0  0  0
  2  1  2  0  0  0  0
  2 33  1  0  0  0  0
  3  4  1  1  0  0  0
  3  1  1  0  0  0  0
  5  3  1  0  0  0  0
  6  9  1  0  0  0  0
  7  6  1  0  0  0  0
  8  7  1  6  0  0  0
  8  9  1  0  0  0  0
  9  5  1  1  0  0  0
 10  8  1  6  0  0  0
 11 20  1  6  0  0  0
 11 10  1  0  0  0  0
 12 13  1  1  0  0  0
 12 11  1  0  0  0  0
 12 10  1  0  0  0  0
 13 14  1  0  0  0  0
 15 13  2  0  0  0  0
 16 14  1  0  0  0  0
 16 18  1  0  0  0  0
 18 17  2  0  0  0  0
 18 19  1  0  0  0  0
 20 21  1  6  0  0  0
 20 22  1  0  0  0  0
 22 23  1  0  0  0  0
 24  1  1  6  0  0  0
 24 25  1  0  0  0  0
 24 28  1  0  0  0  0
 26 27  1  0  0  0  0
 26 25  1  0  0  0  0
 27 25  1  0  0  0  0
 28 30  1  0  0  0  0
 30 29  2  0  0  0  0
 30 31  1  0  0  0  0
 31 32  1  0  0  0  0
 35 34  1  0  0  0  0
 36 34  1  0  0  0  0
 37 39  2  0  0  0  0
 38 33  1  1  0  0  0
 38 35  1  0  0  0  0
 39 36  1  0  0  0  0
 40 41  1  6  0  0  0
 40 39  1  0  0  0  0
 40 38  1  0  0  0  0
 42 41  1  0  0  0  0
 43 42  2  0  0  0  0
 44 42  1  0  0  0  0
 46 45  2  0  0  0  0
 46 44  1  0  0  0  0
 47 64  1  6  0  0  0
 47 46  1  0  0  0  0
 48 47  1  0  0  0  0
 49 48  2  0  0  0  0
 50 55  1  6  0  0  0
 50 54  1  0  0  0  0
 52 51  1  6  0  0  0
 52 59  1  0  0  0  0
 56 48  1  6  0  0  0
 56 50  1  0  0  0  0
 57 54  1  1  0  0  0
 57 52  1  0  0  0  0
 57 62  1  0  0  0  0
 58 56  1  0  0  0  0
 58 53  1  1  0  0  0
 58 50  1  0  0  0  0
 59 61  1  0  0  0  0
 60 53  1  0  0  0  0
 60 51  1  0  0  0  0
 62 61  1  0  0  0  0
 64 63  1  0  0  0  0
M  END
>  <MODEL>
1

>  <REMARK>
 VINA RESULT:      -6.6      0.000      0.000
  Name = 
  24 active torsions:
  status: ('A' for Active; 'I' for Inactive)
    1  A    between atoms: C_1  and  C_56
    2  A    between atoms: C_1  and  C_59
    3  A    between atoms: C_5  and  C_32
    4  A    between atoms: C_5  and  C_39
    5  A    between atoms: C_14  and  N_23
    6  A    between atoms: C_15  and  C_17
    7  A    between atoms: C_15  and  C_34
    8  A    between atoms: C_16  and  C_59
    9  A    between atoms: C_19  and  C_27
   10  A    between atoms: C_22  and  C_25
   11  A    between atoms: C_24  and  C_54
   12  A    between atoms: C_25  and  N_41
   13  A    between atoms: O_26  and  C_53
   14  A    between atoms: O_26  and  C_64
   15  A    between atoms: C_27  and  O_33
   16  A    between atoms: C_29  and  C_43
   17  A    between atoms: O_31  and  C_53
   18  A    between atoms: O_31  and  C_60
   19  A    between atoms: O_33  and  C_59
   20  A    between atoms: C_35  and  C_48
   21  A    between atoms: C_35  and  C_56
   22  A    between atoms: C_38  and  C_43
   23  A    between atoms: C_39  and  C_60
   24  A    between atoms: C_39  and  C_62
                            x       y       z     vdW  Elec       q    Type
                         _______ _______ _______ _____ _____    ______ ____

>  <TORSDO>
F 24

$$$$
=
 OpenBabel11062417473D

 64 70  0  0  1  0  0  0  0  0999 V2000
  184.7540  178.7890  143.2790 C   0  0  0  0  0  0  0  0  0  0  0  0
  185.6870  178.2810  144.1000 C   0  0  0  0  0  3  0  0  0  0  0  0
  183.4160  179.1210  143.8760 C   0  0  1  0  0  3  0  0  0  0  0  0
  183.1570  180.4920  143.7840 O   0  0  0  0  0  1  0  0  0  0  0  0
  182.2510  178.2980  143.3160 C   0  0  0  0  0  2  0  0  0  0  0  0
  179.8990  178.6460  144.1320 C   0  0  0  0  0  2  0  0  0  0  0  0
  179.0840  178.2590  143.0490 O   0  0  0  0  0  0  0  0  0  0  0  0
  180.0030  178.6530  142.1170 N   0  0  1  0  0  0  0  0  0  0  0  0
  180.9430  179.0790  143.1570 C   0  0  2  0  0  3  0  0  0  0  0  0
  180.1870  177.5940  141.0790 C   0  0  2  0  0  3  0  0  0  0  0  0
  179.9640  177.9390  139.5910 C   0  0  1  0  0  3  0  0  0  0  0  0
  178.9360  177.1150  140.3620 C   0  0  1  0  0  3  0  0  0  0  0  0
  179.0400  175.6550  140.0310 C   0  0  0  0  0  0  0  0  0  0  0  0
  178.9310  175.1840  138.6810 N   0  0  0  0  0  2  0  0  0  0  0  0
  179.2320  174.8360  140.9680 O   0  0  0  0  0  0  0  0  0  0  0  0
  178.9430  173.7700  138.3320 C   0  0  0  0  0  2  0  0  0  0  0  0
  180.7330  174.2900  136.8770 O   0  0  0  0  0  0  0  0  0  0  0  0
  180.1590  173.4310  137.5280 C   0  0  0  0  0  0  0  0  0  0  0  0
  180.7260  172.0520  137.5980 C   0  0  0  0  0  1  0  0  0  0  0  0
  179.3900  179.3040  139.2440 C   0  0  2  0  0  3  0  0  0  0  0  0
  178.9310  179.2930  137.9260 O   0  0  0  0  0  1  0  0  0  0  0  0
  180.4760  180.3550  139.3860 C   0  0  0  0  0  2  0  0  0  0  0  0
  180.9900  180.6810  138.1290 O   0  0  0  0  0  1  0  0  0  0  0  0
  185.0130  179.0740  141.8130 C   0  0  1  0  0  3  0  0  0  0  0  0
  186.2420  178.3770  141.2080 C   0  0  0  0  0  3  0  0  0  0  0  0
  187.3170  179.2390  141.1660 O   0  0  0  0  0  0  0  0  0  0  0  0
  186.6470  178.9790  140.0350 O   0  0  0  0  0  0  0  0  0  0  0  0
  183.8390  178.9050  141.0220 O   0  0  0  0  0  0  0  0  0  0  0  0
  184.0870  180.3440  139.2600 O   0  0  0  0  0  0  0  0  0  0  0  0
  183.8070  179.1850  139.6560 C   0  0  0  0  0  0  0  0  0  0  0  0
  183.4260  178.1480  138.6510 C   0  0  0  0  0  2  0  0  0  0  0  0
  184.5760  177.5860  138.1010 O   0  0  0  0  0  1  0  0  0  0  0  0
  187.0990  178.0110  143.6780 C   0  0  0  0  0  2  0  0  0  0  0  0
  187.8780  177.9870  146.6040 C   0  0  0  0  0  2  0  0  0  0  0  0
  187.3210  176.7640  145.8810 C   0  0  0  0  0  2  0  0  0  0  0  0
  189.2900  178.0860  146.4250 O   0  0  0  0  0  0  0  0  0  0  0  0
  191.1320  178.0350  145.0570 O   0  0  0  0  0  0  0  0  0  0  0  0
  187.7120  176.8100  144.4000 C   0  0  2  0  0  3  0  0  0  0  0  0
  189.9280  177.7080  145.2390 C   0  0  0  0  0  0  0  0  0  0  0  0
  189.2430  176.8020  144.2500 C   0  0  2  0  0  3  0  0  0  0  0  0
  189.6310  177.1310  142.9210 O   0  0  0  0  0  0  0  0  0  0  0  0
  190.5940  176.3950  142.2350 C   0  0  0  0  0  0  0  0  0  0  0  0
  191.6510  176.0590  142.8340 O   0  0  0  0  0  0  0  0  0  0  0  0
  190.3630  176.0130  140.9070 O   0  0  0  0  0  0  0  0  0  0  0  0
  190.0250  178.1400  140.0340 O   0  0  0  0  0  0  0  0  0  0  0  0
  190.0260  176.8880  139.8630 C   0  0  0  0  0  0  0  0  0  0  0  0
  189.6770  176.3410  138.5080 C   0  0  2  0  0  3  0  0  0  0  0  0
  190.6980  176.6200  137.4270 C   0  0  0  0  0  0  0  0  0  0  0  0
  190.2130  176.9150  136.1090 S   0  0  0  0  0  0  0  0  0  0  0  0
  192.5750  174.9730  136.9420 C   0  0  1  0  0  0  0  0  0  0  0  0
  196.0850  175.3550  135.7720 O   0  0  0  0  0  0  0  0  0  0  0  0
  195.8550  174.7030  137.0020 C   0  0  1  0  0  3  0  0  0  0  0  0
  194.2550  176.6610  136.4700 O   0  0  0  0  0  0  0  0  0  0  0  0
  193.5820  174.1730  137.7670 C   0  0  0  0  0  2  0  0  0  0  0  0
  191.5510  174.2550  136.3160 O   0  0  0  0  0  1  0  0  0  0  0  0
  192.1670  176.2930  137.5950 C   0  0  1  0  0  3  0  0  0  0  0  0
  194.7440  173.6840  136.9190 C   0  0  2  0  0  3  0  0  0  0  0  0
  192.9210  176.2920  136.2620 C   0  0  2  0  0  3  0  0  0  0  0  0
  197.0280  173.9710  137.3980 N   0  0  0  0  0  2  0  0  0  0  0  0
  194.9510  176.1100  135.3800 C   0  0  0  0  0  2  0  0  0  0  0  0
  196.4970  172.7440  137.9680 C   0  0  0  0  0  2  0  0  0  0  0  0
  195.2280  172.4710  137.4260 O   0  0  0  0  0  0  0  0  0  0  0  0
  187.5590  175.4650  137.7590 O   0  0  0  0  0  1  0  0  0  0  0  0
  188.2440  176.6390  138.0680 C   0  0  0  0  0  2  0  0  0  0  0  0
  1  3  1  0  0  0  0
  1  2  2  0  0  0  0
  3  4  1  6  0  0  0
  5  3  1  0  0  0  0
  7  6  1  0  0  0  0
  8  7  1  1  0  0  0
  8  9  1  0  0  0  0
  9  5  1  1  0  0  0
  9  6  1  0  0  0  0
 10  8  1  1  0  0  0
 11 20  1  1  0  0  0
 11 12  1  0  0  0  0
 11 10  1  0  0  0  0
 12 13  1  6  0  0  0
 12 10  1  0  0  0  0
 13 15  2  0  0  0  0
 14 13  1  0  0  0  0
 16 14  1  0  0  0  0
 17 18  2  0  0  0  0
 18 19  1  0  0  0  0
 18 16  1  0  0  0  0
 20 21  1  6  0  0  0
 20 22  1  0  0  0  0
 23 22  1  0  0  0  0
 24 28  1  6  0  0  0
 24  1  1  0  0  0  0
 25 24  1  0  0  0  0
 26 25  1  0  0  0  0
 27 26  1  0  0  0  0
 27 25  1  0  0  0  0
 29 30  2  0  0  0  0
 30 28  1  0  0  0  0
 31 30  1  0  0  0  0
 32 31  1  0  0  0  0
 33  2  1  0  0  0  0
 35 34  1  0  0  0  0
 36 34  1  0  0  0  0
 37 39  2  0  0  0  0
 38 33  1  1  0  0  0
 38 35  1  0  0  0  0
 39 36  1  0  0  0  0
 40 41  1  6  0  0  0
 40 38  1  0  0  0  0
 40 39  1  0  0  0  0
 42 43  2  0  0  0  0
 42 41  1  0  0  0  0
 44 42  1  0  0  0  0
 46 45  2  0  0  0  0
 46 44  1  0  0  0  0
 47 64  1  6  0  0  0
 47 46  1  0  0  0  0
 48 47  1  0  0  0  0
 49 48  2  0  0  0  0
 50 55  1  6  0  0  0
 50 56  1  0  0  0  0
 50 54  1  0  0  0  0
 52 51  1  6  0  0  0
 52 59  1  0  0  0  0
 56 48  1  6  0  0  0
 57 52  1  0  0  0  0
 57 62  1  0  0  0  0
 57 54  1  1  0  0  0
 58 53  1  1  0  0  0
 58 50  1  0  0  0  0
 58 56  1  0  0  0  0
 59 61  1  0  0  0  0
 60 51  1  0  0  0  0
 60 53  1  0  0  0  0
 62 61  1  0  0  0  0
 63 64  1  0  0  0  0
M  END
>  <MODEL>
2

>  <REMARK>
 VINA RESULT:      -5.7      2.695     10.096
  Name = 
  24 active torsions:
  status: ('A' for Active; 'I' for Inactive)
    1  A    between atoms: C_1  and  C_56
    2  A    between atoms: C_1  and  C_59
    3  A    between atoms: C_5  and  C_32
    4  A    between atoms: C_5  and  C_39
    5  A    between atoms: C_14  and  N_23
    6  A    between atoms: C_15  and  C_17
    7  A    between atoms: C_15  and  C_34
    8  A    between atoms: C_16  and  C_59
    9  A    between atoms: C_19  and  C_27
   10  A    between atoms: C_22  and  C_25
   11  A    between atoms: C_24  and  C_54
   12  A    between atoms: C_25  and  N_41
   13  A    between atoms: O_26  and  C_53
   14  A    between atoms: O_26  and  C_64
   15  A    between atoms: C_27  and  O_33
   16  A    between atoms: C_29  and  C_43
   17  A    between atoms: O_31  and  C_53
   18  A    between atoms: O_31  and  C_60
   19  A    between atoms: O_33  and  C_59
   20  A    between atoms: C_35  and  C_48
   21  A    between atoms: C_35  and  C_56
   22  A    between atoms: C_38  and  C_43
   23  A    between atoms: C_39  and  C_60
   24  A    between atoms: C_39  and  C_62
                            x       y       z     vdW  Elec       q    Type
                         _______ _______ _______ _____ _____    ______ ____

>  <TORSDO>
F 24

$$$$
=
 OpenBabel11062417473D

 64 70  0  0  1  0  0  0  0  0999 V2000
  184.2790  178.4300  141.3360 C   0  0  0  0  0  0  0  0  0  0  0  0
  184.1180  177.7890  140.1680 C   0  0  0  0  0  3  0  0  0  0  0  0
  185.5940  179.1170  141.5710 C   0  0  1  0  0  3  0  0  0  0  0  0
  185.4190  180.2860  142.3180 O   0  0  0  0  0  1  0  0  0  0  0  0
  186.6740  178.2230  142.1880 C   0  0  0  0  0  2  0  0  0  0  0  0
  188.4620  176.9260  140.9880 C   0  0  0  0  0  2  0  0  0  0  0  0
  189.5960  177.0280  141.8190 O   0  0  0  0  0  0  0  0  0  0  0  0
  189.2450  178.2660  142.2770 N   0  0  1  0  0  0  0  0  0  0  0  0
  188.0250  178.2710  141.4670 C   0  0  2  0  0  3  0  0  0  0  0  0
  189.3700  178.3330  143.7650 C   0  0  2  0  0  3  0  0  0  0  0  0
  190.7240  178.0110  144.4320 C   0  0  1  0  0  3  0  0  0  0  0  0
  189.5680  177.0150  144.4940 C   0  0  1  0  0  3  0  0  0  0  0  0
  188.8900  177.0420  145.8340 C   0  0  0  0  0  0  0  0  0  0  0  0
  187.6010  177.6440  146.0080 N   0  0  0  0  0  2  0  0  0  0  0  0
  189.4780  176.5170  146.8160 O   0  0  0  0  0  0  0  0  0  0  0  0
  186.9530  177.7630  147.3070 C   0  0  0  0  0  2  0  0  0  0  0  0
  184.6920  178.4120  147.0620 O   0  0  0  0  0  0  0  0  0  0  0  0
  185.8440  178.7680  147.2570 C   0  0  0  0  0  0  0  0  0  0  0  0
  186.1380  180.2030  147.5430 C   0  0  0  0  0  1  0  0  0  0  0  0
  191.8430  177.4610  143.5620 C   0  0  2  0  0  3  0  0  0  0  0  0
  191.8950  178.1760  142.3650 O   0  0  0  0  0  1  0  0  0  0  0  0
  191.5710  175.9990  143.2590 C   0  0  0  0  0  2  0  0  0  0  0  0
  192.1900  175.1910  144.2160 O   0  0  0  0  0  1  0  0  0  0  0  0
  183.1880  178.5220  142.3840 C   0  0  1  0  0  3  0  0  0  0  0  0
  183.6710  178.6020  143.8400 C   0  0  0  0  0  3  0  0  0  0  0  0
  182.5990  178.6200  144.7070 O   0  0  0  0  0  0  0  0  0  0  0  0
  183.2520  179.7630  144.4570 O   0  0  0  0  0  0  0  0  0  0  0  0
  182.2270  179.5260  142.0670 O   0  0  0  0  0  0  0  0  0  0  0  0
  180.4490  178.0850  142.0940 O   0  0  0  0  0  0  0  0  0  0  0  0
  180.8560  179.2720  142.0380 C   0  0  0  0  0  0  0  0  0  0  0  0
  179.8560  180.3770  141.9200 C   0  0  0  0  0  2  0  0  0  0  0  0
  179.7480  180.7670  140.5880 O   0  0  0  0  0  1  0  0  0  0  0  0
  182.8250  177.1610  139.7430 C   0  0  0  0  0  2  0  0  0  0  0  0
  179.9510  176.9750  138.8080 C   0  0  0  0  0  2  0  0  0  0  0  0
  180.8530  178.1670  138.4970 C   0  0  0  0  0  2  0  0  0  0  0  0
  180.1310  175.9350  137.8480 O   0  0  0  0  0  0  0  0  0  0  0  0
  181.5150  174.5880  136.6080 O   0  0  0  0  0  0  0  0  0  0  0  0
  182.3120  177.7090  138.4110 C   0  0  2  0  0  3  0  0  0  0  0  0
  181.3710  175.6550  137.2630 C   0  0  0  0  0  0  0  0  0  0  0  0
  182.4820  176.6710  137.2880 C   0  0  2  0  0  3  0  0  0  0  0  0
  183.7470  176.0250  137.3730 O   0  0  0  0  0  0  0  0  0  0  0  0
  184.8200  176.4050  136.5700 C   0  0  0  0  0  0  0  0  0  0  0  0
  185.2240  177.5990  136.6120 O   0  0  0  0  0  0  0  0  0  0  0  0
  185.4520  175.4560  135.7570 O   0  0  0  0  0  0  0  0  0  0  0  0
  187.4690  175.4300  134.6050 O   0  0  0  0  0  0  0  0  0  0  0  0
  186.8380  175.2500  135.6840 C   0  0  0  0  0  0  0  0  0  0  0  0
  187.5990  174.8300  136.9090 C   0  0  2  0  0  3  0  0  0  0  0  0
  188.7210  175.7600  137.3120 C   0  0  0  0  0  0  0  0  0  0  0  0
  188.5910  177.1510  136.9790 S   0  0  0  0  0  0  0  0  0  0  0  0
  191.0310  174.9790  136.5870 C   0  0  1  0  0  0  0  0  0  0  0  0
  194.4780  175.7020  137.7870 O   0  0  0  0  0  0  0  0  0  0  0  0
  194.0400  174.3610  137.7720 C   0  0  1  0  0  3  0  0  0  0  0  0
  192.2340  176.1090  138.3690 O   0  0  0  0  0  0  0  0  0  0  0  0
  191.8840  173.7260  136.7790 C   0  0  0  0  0  2  0  0  0  0  0  0
  190.5190  175.2110  135.3070 O   0  0  0  0  0  1  0  0  0  0  0  0
  190.0780  175.2510  137.7510 C   0  0  1  0  0  3  0  0  0  0  0  0
  193.3500  173.9900  136.4800 C   0  0  2  0  0  3  0  0  0  0  0  0
  191.2050  176.2380  137.4290 C   0  0  2  0  0  3  0  0  0  0  0  0
  195.1660  173.4730  137.8810 N   0  0  0  0  0  2  0  0  0  0  0  0
  193.3780  176.5930  137.7130 C   0  0  0  0  0  2  0  0  0  0  0  0
  194.8380  172.3800  136.9820 C   0  0  0  0  0  2  0  0  0  0  0  0
  193.9520  172.8260  135.9840 O   0  0  0  0  0  0  0  0  0  0  0  0
  187.0110  172.5520  137.4430 O   0  0  0  0  0  1  0  0  0  0  0  0
  188.0150  173.3580  136.9070 C   0  0  0  0  0  2  0  0  0  0  0  0
  1  3  1  0  0  0  0
  2  1  2  0  0  0  0
  3  5  1  0  0  0  0
  3  4  1  1  0  0  0
  6  9  1  0  0  0  0
  6  7  1  0  0  0  0
  8  7  1  1  0  0  0
  9  5  1  1  0  0  0
  9  8  1  0  0  0  0
 10  8  1  6  0  0  0
 10 11  1  0  0  0  0
 10 12  1  0  0  0  0
 11 20  1  6  0  0  0
 11 12  1  0  0  0  0
 12 13  1  1  0  0  0
 13 14  1  0  0  0  0
 13 15  2  0  0  0  0
 14 16  1  0  0  0  0
 17 18  2  0  0  0  0
 18 16  1  0  0  0  0
 18 19  1  0  0  0  0
 20 21  1  6  0  0  0
 22 20  1  0  0  0  0
 22 23  1  0  0  0  0
 24  1  1  6  0  0  0
 24 25  1  0  0  0  0
 25 27  1  0  0  0  0
 25 26  1  0  0  0  0
 27 26  1  0  0  0  0
 28 24  1  0  0  0  0
 30 28  1  0  0  0  0
 30 29  2  0  0  0  0
 31 30  1  0  0  0  0
 32 31  1  0  0  0  0
 33  2  1  0  0  0  0
 35 34  1  0  0  0  0
 36 34  1  0  0  0  0
 37 39  2  0  0  0  0
 38 35  1  0  0  0  0
 38 33  1  1  0  0  0
 39 40  1  0  0  0  0
 39 36  1  0  0  0  0
 40 41  1  1  0  0  0
 40 38  1  0  0  0  0
 42 43  2  0  0  0  0
 42 41  1  0  0  0  0
 44 42  1  0  0  0  0
 45 46  2  0  0  0  0
 46 44  1  0  0  0  0
 46 47  1  0  0  0  0
 47 64  1  6  0  0  0
 47 48  1  0  0  0  0
 49 48  2  0  0  0  0
 50 55  1  6  0  0  0
 50 54  1  0  0  0  0
 50 58  1  0  0  0  0
 50 56  1  0  0  0  0
 52 51  1  6  0  0  0
 52 59  1  0  0  0  0
 56 48  1  6  0  0  0
 57 54  1  1  0  0  0
 57 52  1  0  0  0  0
 58 56  1  0  0  0  0
 58 53  1  1  0  0  0
 60 51  1  0  0  0  0
 60 53  1  0  0  0  0
 61 59  1  0  0  0  0
 62 57  1  0  0  0  0
 62 61  1  0  0  0  0
 64 63  1  0  0  0  0
M  END
>  <MODEL>
3

>  <REMARK>
 VINA RESULT:      -4.8      2.583      8.785
  Name = 
  24 active torsions:
  status: ('A' for Active; 'I' for Inactive)
    1  A    between atoms: C_1  and  C_56
    2  A    between atoms: C_1  and  C_59
    3  A    between atoms: C_5  and  C_32
    4  A    between atoms: C_5  and  C_39
    5  A    between atoms: C_14  and  N_23
    6  A    between atoms: C_15  and  C_17
    7  A    between atoms: C_15  and  C_34
    8  A    between atoms: C_16  and  C_59
    9  A    between atoms: C_19  and  C_27
   10  A    between atoms: C_22  and  C_25
   11  A    between atoms: C_24  and  C_54
   12  A    between atoms: C_25  and  N_41
   13  A    between atoms: O_26  and  C_53
   14  A    between atoms: O_26  and  C_64
   15  A    between atoms: C_27  and  O_33
   16  A    between atoms: C_29  and  C_43
   17  A    between atoms: O_31  and  C_53
   18  A    between atoms: O_31  and  C_60
   19  A    between atoms: O_33  and  C_59
   20  A    between atoms: C_35  and  C_48
   21  A    between atoms: C_35  and  C_56
   22  A    between atoms: C_38  and  C_43
   23  A    between atoms: C_39  and  C_60
   24  A    between atoms: C_39  and  C_62
                            x       y       z     vdW  Elec       q    Type
                         _______ _______ _______ _____ _____    ______ ____

>  <TORSDO>
F 24

$$$$
=
 OpenBabel11062417473D

 64 70  0  0  1  0  0  0  0  0999 V2000
  189.8320  177.8400  141.4040 C   0  0  0  0  0  0  0  0  0  0  0  0
  189.0310  178.4590  140.5220 C   0  0  0  0  0  3  0  0  0  0  0  0
  191.2050  177.4510  140.9350 C   0  0  1  0  0  3  0  0  0  0  0  0
  192.0240  177.1160  142.0170 O   0  0  0  0  0  1  0  0  0  0  0  0
  191.2220  176.3520  139.8670 C   0  0  0  0  0  2  0  0  0  0  0  0
  190.3760  177.7790  137.9790 C   0  0  0  0  0  2  0  0  0  0  0  0
  190.0740  176.8670  136.9490 O   0  0  0  0  0  0  0  0  0  0  0  0
  191.0590  175.9980  137.3250 N   0  0  1  0  0  0  0  0  0  0  0  0
  191.4570  176.8590  138.4410 C   0  0  2  0  0  3  0  0  0  0  0  0
  190.5360  174.5980  137.3730 C   0  0  2  0  0  3  0  0  0  0  0  0
  191.3040  173.4720  136.6510 C   0  0  1  0  0  3  0  0  0  0  0  0
  190.0020  174.0220  136.0730 C   0  0  1  0  0  3  0  0  0  0  0  0
  188.8500  173.0970  136.3360 C   0  0  0  0  0  0  0  0  0  0  0  0
  187.9630  172.6880  135.2860 N   0  0  0  0  0  2  0  0  0  0  0  0
  188.6720  172.6750  137.5090 O   0  0  0  0  0  0  0  0  0  0  0  0
  186.7870  171.8610  135.5200 C   0  0  0  0  0  2  0  0  0  0  0  0
  185.2290  172.7300  137.0720 O   0  0  0  0  0  0  0  0  0  0  0  0
  185.6140  172.7040  135.9140 C   0  0  0  0  0  0  0  0  0  0  0  0
  184.9720  173.5900  134.8990 C   0  0  0  0  0  1  0  0  0  0  0  0
  192.4760  173.8530  135.7600 C   0  0  2  0  0  3  0  0  0  0  0  0
  192.0000  174.5020  134.6200 O   0  0  0  0  0  1  0  0  0  0  0  0
  193.2210  172.5970  135.3460 C   0  0  0  0  0  2  0  0  0  0  0  0
  194.0820  172.1950  136.3700 O   0  0  0  0  0  1  0  0  0  0  0  0
  189.4240  177.5660  142.8380 C   0  0  1  0  0  3  0  0  0  0  0  0
  189.3270  176.0830  143.2290 C   0  0  0  0  0  3  0  0  0  0  0  0
  188.7650  175.3470  142.2070 O   0  0  0  0  0  0  0  0  0  0  0  0
  188.0190  175.6490  143.2780 O   0  0  0  0  0  0  0  0  0  0  0  0
  190.1910  178.3300  143.7650 O   0  0  0  0  0  0  0  0  0  0  0  0
  191.5490  177.5080  145.4140 O   0  0  0  0  0  0  0  0  0  0  0  0
  190.4090  177.9180  145.0800 C   0  0  0  0  0  0  0  0  0  0  0  0
  189.3140  177.9280  146.0970 C   0  0  0  0  0  2  0  0  0  0  0  0
  189.7400  177.2670  147.2470 O   0  0  0  0  0  1  0  0  0  0  0  0
  187.6840  179.0100  140.8770 C   0  0  0  0  0  2  0  0  0  0  0  0
  186.5400  178.2670  138.1740 C   0  0  0  0  0  2  0  0  0  0  0  0
  186.6810  177.2700  139.3210 C   0  0  0  0  0  2  0  0  0  0  0  0
  185.3180  178.9950  138.2780 O   0  0  0  0  0  0  0  0  0  0  0  0
  183.8180  180.1980  139.5310 O   0  0  0  0  0  0  0  0  0  0  0  0
  186.5570  177.9980  140.6640 C   0  0  2  0  0  3  0  0  0  0  0  0
  184.7630  179.3640  139.5080 C   0  0  0  0  0  0  0  0  0  0  0  0
  185.1810  178.6750  140.7800 C   0  0  2  0  0  3  0  0  0  0  0  0
  185.1470  179.5850  141.8740 O   0  0  0  0  0  0  0  0  0  0  0  0
  184.3210  179.3760  142.9750 C   0  0  0  0  0  0  0  0  0  0  0  0
  184.8250  178.9480  144.0480 O   0  0  0  0  0  0  0  0  0  0  0  0
  182.9540  179.6730  142.8870 O   0  0  0  0  0  0  0  0  0  0  0  0
  182.1450  178.4890  144.7140 O   0  0  0  0  0  0  0  0  0  0  0  0
  181.9360  178.9990  143.5780 C   0  0  0  0  0  0  0  0  0  0  0  0
  180.5640  178.8930  142.9750 C   0  0  2  0  0  3  0  0  0  0  0  0
  180.4590  179.3670  141.5430 C   0  0  0  0  0  0  0  0  0  0  0  0
  179.4970  180.3910  141.2450 S   0  0  0  0  0  0  0  0  0  0  0  0
  180.2190  177.4350  139.9050 C   0  0  1  0  0  0  0  0  0  0  0  0
  180.7840  177.0890  136.2440 O   0  0  0  0  0  0  0  0  0  0  0  0
  181.4960  176.2380  137.1160 C   0  0  1  0  0  3  0  0  0  0  0  0
  181.1010  178.6380  137.9890 O   0  0  0  0  0  0  0  0  0  0  0  0
  181.0340  176.1980  139.5300 C   0  0  0  0  0  2  0  0  0  0  0  0
  179.0230  177.2230  140.5960 O   0  0  0  0  0  1  0  0  0  0  0  0
  181.0760  178.6040  140.3890 C   0  0  1  0  0  3  0  0  0  0  0  0
  180.6140  175.6330  138.1830 C   0  0  2  0  0  3  0  0  0  0  0  0
  180.2560  178.7290  139.1010 C   0  0  2  0  0  3  0  0  0  0  0  0
  182.0400  175.1260  136.3840 N   0  0  0  0  0  2  0  0  0  0  0  0
  180.2670  178.2090  136.9420 C   0  0  0  0  0  2  0  0  0  0  0  0
  181.8690  173.9980  137.2840 C   0  0  0  0  0  2  0  0  0  0  0  0
  180.8040  174.2450  138.1690 O   0  0  0  0  0  0  0  0  0  0  0  0
  178.9360  178.4420  144.6970 O   0  0  0  0  0  1  0  0  0  0  0  0
  179.4500  179.4390  143.8690 C   0  0  0  0  0  2  0  0  0  0  0  0
  2 33  1  0  0  0  0
  2  1  2  0  0  0  0
  3  1  1  0  0  0  0
  3  4  1  1  0  0  0
  5  3  1  0  0  0  0
  6  9  1  0  0  0  0
  7  6  1  0  0  0  0
  8  7  1  1  0  0  0
  8  9  1  0  0  0  0
  9  5  1  1  0  0  0
 10  8  1  6  0  0  0
 11 20  1  6  0  0  0
 11 10  1  0  0  0  0
 12 13  1  1  0  0  0
 12 11  1  0  0  0  0
 12 10  1  0  0  0  0
 13 15  2  0  0  0  0
 14 16  1  0  0  0  0
 14 13  1  0  0  0  0
 16 18  1  0  0  0  0
 18 17  2  0  0  0  0
 19 18  1  0  0  0  0
 20 21  1  6  0  0  0
 22 20  1  0  0  0  0
 22 23  1  0  0  0  0
 24  1  1  6  0  0  0
 24 25  1  0  0  0  0
 24 28  1  0  0  0  0
 25 27  1  0  0  0  0
 26 25  1  0  0  0  0
 26 27  1  0  0  0  0
 28 30  1  0  0  0  0
 30 29  2  0  0  0  0
 30 31  1  0  0  0  0
 31 32  1  0  0  0  0
 34 36  1  0  0  0  0
 34 35  1  0  0  0  0
 35 38  1  0  0  0  0
 36 39  1  0  0  0  0
 38 40  1  0  0  0  0
 38 33  1  6  0  0  0
 39 37  2  0  0  0  0
 39 40  1  0  0  0  0
 40 41  1  1  0  0  0
 41 42  1  0  0  0  0
 42 43  2  0  0  0  0
 44 42  1  0  0  0  0
 44 46  1  0  0  0  0
 46 45  2  0  0  0  0
 47 46  1  0  0  0  0
 47 64  1  1  0  0  0
 48 47  1  0  0  0  0
 49 48  2  0  0  0  0
 50 56  1  0  0  0  0
 50 55  1  1  0  0  0
 51 60  1  0  0  0  0
 52 51  1  6  0  0  0
 52 57  1  0  0  0  0
 54 50  1  0  0  0  0
 56 48  1  1  0  0  0
 57 54  1  1  0  0  0
 58 53  1  6  0  0  0
 58 50  1  0  0  0  0
 58 56  1  0  0  0  0
 59 52  1  0  0  0  0
 59 61  1  0  0  0  0
 60 53  1  0  0  0  0
 61 62  1  0  0  0  0
 62 57  1  0  0  0  0
 64 63  1  0  0  0  0
M  END
>  <MODEL>
4

>  <REMARK>
 VINA RESULT:      -4.6      2.356      4.445
  Name = 
  24 active torsions:
  status: ('A' for Active; 'I' for Inactive)
    1  A    between atoms: C_1  and  C_56
    2  A    between atoms: C_1  and  C_59
    3  A    between atoms: C_5  and  C_32
    4  A    between atoms: C_5  and  C_39
    5  A    between atoms: C_14  and  N_23
    6  A    between atoms: C_15  and  C_17
    7  A    between atoms: C_15  and  C_34
    8  A    between atoms: C_16  and  C_59
    9  A    between atoms: C_19  and  C_27
   10  A    between atoms: C_22  and  C_25
   11  A    between atoms: C_24  and  C_54
   12  A    between atoms: C_25  and  N_41
   13  A    between atoms: O_26  and  C_53
   14  A    between atoms: O_26  and  C_64
   15  A    between atoms: C_27  and  O_33
   16  A    between atoms: C_29  and  C_43
   17  A    between atoms: O_31  and  C_53
   18  A    between atoms: O_31  and  C_60
   19  A    between atoms: O_33  and  C_59
   20  A    between atoms: C_35  and  C_48
   21  A    between atoms: C_35  and  C_56
   22  A    between atoms: C_38  and  C_43
   23  A    between atoms: C_39  and  C_60
   24  A    between atoms: C_39  and  C_62
                            x       y       z     vdW  Elec       q    Type
                         _______ _______ _______ _____ _____    ______ ____

>  <TORSDO>
F 24

$$$$
=
 OpenBabel11062417473D

 64 70  0  0  1  0  0  0  0  0999 V2000
  188.6750  177.4510  141.2470 C   0  0  0  0  0  0  0  0  0  0  0  0
  187.8690  177.5380  142.3160 C   0  0  0  0  0  3  0  0  0  0  0  0
  188.1680  178.0210  139.9520 C   0  0  1  0  0  3  0  0  0  0  0  0
  188.0380  179.4100  140.0370 O   0  0  0  0  0  1  0  0  0  0  0  0
  188.9830  177.6150  138.7200 C   0  0  0  0  0  2  0  0  0  0  0  0
  187.2910  178.2620  136.9780 C   0  0  0  0  0  2  0  0  0  0  0  0
  187.8050  177.7470  135.7710 O   0  0  0  0  0  0  0  0  0  0  0  0
  189.1040  177.9060  136.1670 N   0  0  1  0  0  0  0  0  0  0  0  0
  188.6910  178.4430  137.4650 C   0  0  2  0  0  3  0  0  0  0  0  0
  189.8950  176.6700  135.8840 C   0  0  2  0  0  3  0  0  0  0  0  0
  189.1610  175.3360  135.6310 C   0  0  1  0  0  3  0  0  0  0  0  0
  189.8820  175.5900  136.9530 C   0  0  1  0  0  3  0  0  0  0  0  0
  191.2030  174.8780  137.0050 C   0  0  0  0  0  0  0  0  0  0  0  0
  192.3940  175.4710  136.4710 N   0  0  0  0  0  2  0  0  0  0  0  0
  191.2510  173.7380  137.5360 O   0  0  0  0  0  0  0  0  0  0  0  0
  193.6730  174.7760  136.4280 C   0  0  0  0  0  2  0  0  0  0  0  0
  195.8750  175.6340  136.4970 O   0  0  0  0  0  0  0  0  0  0  0  0
  194.7670  175.7010  135.9920 C   0  0  0  0  0  0  0  0  0  0  0  0
  194.5230  176.6480  134.8640 C   0  0  0  0  0  1  0  0  0  0  0  0
  187.6580  175.2860  135.8530 C   0  0  2  0  0  3  0  0  0  0  0  0
  187.3930  174.7210  137.1020 O   0  0  0  0  0  1  0  0  0  0  0  0
  187.0200  174.4310  134.7730 C   0  0  0  0  0  2  0  0  0  0  0  0
  187.3300  173.0860  134.9850 O   0  0  0  0  0  1  0  0  0  0  0  0
  190.0660  176.8520  141.3090 C   0  0  1  0  0  3  0  0  0  0  0  0
  191.0690  177.3960  140.2790 C   0  0  0  0  0  3  0  0  0  0  0  0
  192.2400  176.6680  140.3110 O   0  0  0  0  0  0  0  0  0  0  0  0
  192.2110  177.8800  140.8820 O   0  0  0  0  0  0  0  0  0  0  0  0
  190.5860  176.8490  142.6360 O   0  0  0  0  0  0  0  0  0  0  0  0
  190.2980  174.6170  143.0540 O   0  0  0  0  0  0  0  0  0  0  0  0
  190.9290  175.6750  143.3060 C   0  0  0  0  0  0  0  0  0  0  0  0
  192.0120  175.6460  144.3350 C   0  0  0  0  0  2  0  0  0  0  0  0
  192.4310  174.3330  144.5340 O   0  0  0  0  0  1  0  0  0  0  0  0
  188.2810  177.1220  143.6960 C   0  0  0  0  0  2  0  0  0  0  0  0
  189.4300  176.9780  146.4940 C   0  0  0  0  0  2  0  0  0  0  0  0
  189.5170  178.2270  145.6210 C   0  0  0  0  0  2  0  0  0  0  0  0
  188.1940  176.9370  147.2050 O   0  0  0  0  0  0  0  0  0  0  0  0
  185.9080  177.1390  147.2360 O   0  0  0  0  0  0  0  0  0  0  0  0
  188.3090  178.2920  144.6810 C   0  0  2  0  0  3  0  0  0  0  0  0
  186.9960  177.4130  146.6620 C   0  0  0  0  0  0  0  0  0  0  0  0
  187.0030  178.3600  145.4910 C   0  0  2  0  0  3  0  0  0  0  0  0
  185.8710  178.1330  144.6590 O   0  0  0  0  0  0  0  0  0  0  0  0
  184.7400  178.9440  144.7210 C   0  0  0  0  0  0  0  0  0  0  0  0
  184.3600  179.3800  145.8410 O   0  0  0  0  0  0  0  0  0  0  0  0
  184.0650  179.2880  143.5430 O   0  0  0  0  0  0  0  0  0  0  0  0
  184.7910  177.5050  142.2430 O   0  0  0  0  0  0  0  0  0  0  0  0
  184.1660  178.6000  142.3250 C   0  0  0  0  0  0  0  0  0  0  0  0
  183.5070  179.1520  141.0940 C   0  0  2  0  0  3  0  0  0  0  0  0
  182.1210  178.6140  140.8170 C   0  0  0  0  0  0  0  0  0  0  0  0
  181.0030  179.3240  141.3720 S   0  0  0  0  0  0  0  0  0  0  0  0
  181.3510  177.2140  138.8370 C   0  0  1  0  0  0  0  0  0  0  0  0
  182.6930  174.1680  137.1730 O   0  0  0  0  0  0  0  0  0  0  0  0
  181.3800  174.1290  137.6880 C   0  0  1  0  0  3  0  0  0  0  0  0
  183.0690  175.5130  139.0690 O   0  0  0  0  0  0  0  0  0  0  0  0
  180.2940  176.1400  138.5890 C   0  0  0  0  0  2  0  0  0  0  0  0
  181.1370  178.4660  138.2550 O   0  0  0  0  0  1  0  0  0  0  0  0
  181.8860  177.2220  140.2700 C   0  0  1  0  0  3  0  0  0  0  0  0
  180.5750  175.3530  137.3200 C   0  0  2  0  0  3  0  0  0  0  0  0
  182.8170  176.8890  139.1000 C   0  0  2  0  0  3  0  0  0  0  0  0
  180.6660  173.0110  137.1320 N   0  0  0  0  0  2  0  0  0  0  0  0
  183.4230  175.2450  137.7350 C   0  0  0  0  0  2  0  0  0  0  0  0
  179.3270  173.5280  136.9080 C   0  0  0  0  0  2  0  0  0  0  0  0
  179.3700  174.9250  136.7470 O   0  0  0  0  0  0  0  0  0  0  0  0
  184.2030  180.3030  139.0910 O   0  0  0  0  0  1  0  0  0  0  0  0
  184.4050  179.1540  139.8560 C   0  0  0  0  0  2  0  0  0  0  0  0
  1  2  2  0  0  0  0
  2 33  1  0  0  0  0
  3  4  1  1  0  0  0
  3  1  1  0  0  0  0
  5  3  1  0  0  0  0
  6  9  1  0  0  0  0
  7  6  1  0  0  0  0
  8  7  1  6  0  0  0
  8  9  1  0  0  0  0
  9  5  1  1  0  0  0
 10  8  1  1  0  0  0
 10 12  1  0  0  0  0
 11 20  1  1  0  0  0
 11 10  1  0  0  0  0
 11 12  1  0  0  0  0
 12 13  1  6  0  0  0
 13 15  2  0  0  0  0
 14 13  1  0  0  0  0
 16 14  1  0  0  0  0
 18 16  1  0  0  0  0
 18 17  2  0  0  0  0
 19 18  1  0  0  0  0
 20 21  1  1  0  0  0
 22 23  1  0  0  0  0
 22 20  1  0  0  0  0
 24  1  1  1  0  0  0
 24 28  1  0  0  0  0
 25 26  1  0  0  0  0
 25 27  1  0  0  0  0
 25 24  1  0  0  0  0
 26 27  1  0  0  0  0
 28 30  1  0  0  0  0
 29 30  2  0  0  0  0
 30 31  1  0  0  0  0
 31 32  1  0  0  0  0
 34 36  1  0  0  0  0
 35 34  1  0  0  0  0
 38 33  1  6  0  0  0
 38 40  1  0  0  0  0
 38 35  1  0  0  0  0
 39 36  1  0  0  0  0
 39 37  2  0  0  0  0
 40 41  1  6  0  0  0
 40 39  1  0  0  0  0
 41 42  1  0  0  0  0
 42 43  2  0  0  0  0
 44 42  1  0  0  0  0
 45 46  2  0  0  0  0
 46 44  1  0  0  0  0
 47 64  1  6  0  0  0
 47 46  1  0  0  0  0
 48 47  1  0  0  0  0
 48 49  2  0  0  0  0
 50 55  1  6  0  0  0
 50 58  1  0  0  0  0
 50 56  1  0  0  0  0
 51 52  1  0  0  0  0
 51 60  1  0  0  0  0
 52 59  1  6  0  0  0
 54 50  1  0  0  0  0
 56 48  1  6  0  0  0
 57 52  1  0  0  0  0
 57 54  1  1  0  0  0
 58 53  1  1  0  0  0
 58 56  1  0  0  0  0
 60 53  1  0  0  0  0
 61 59  1  0  0  0  0
 62 61  1  0  0  0  0
 62 57  1  0  0  0  0
 63 64  1  0  0  0  0
M  END
>  <MODEL>
5

>  <REMARK>
 VINA RESULT:      -4.4      2.189      4.825
  Name = 
  24 active torsions:
  status: ('A' for Active; 'I' for Inactive)
    1  A    between atoms: C_1  and  C_56
    2  A    between atoms: C_1  and  C_59
    3  A    between atoms: C_5  and  C_32
    4  A    between atoms: C_5  and  C_39
    5  A    between atoms: C_14  and  N_23
    6  A    between atoms: C_15  and  C_17
    7  A    between atoms: C_15  and  C_34
    8  A    between atoms: C_16  and  C_59
    9  A    between atoms: C_19  and  C_27
   10  A    between atoms: C_22  and  C_25
   11  A    between atoms: C_24  and  C_54
   12  A    between atoms: C_25  and  N_41
   13  A    between atoms: O_26  and  C_53
   14  A    between atoms: O_26  and  C_64
   15  A    between atoms: C_27  and  O_33
   16  A    between atoms: C_29  and  C_43
   17  A    between atoms: O_31  and  C_53
   18  A    between atoms: O_31  and  C_60
   19  A    between atoms: O_33  and  C_59
   20  A    between atoms: C_35  and  C_48
   21  A    between atoms: C_35  and  C_56
   22  A    between atoms: C_38  and  C_43
   23  A    between atoms: C_39  and  C_60
   24  A    between atoms: C_39  and  C_62
                            x       y       z     vdW  Elec       q    Type
                         _______ _______ _______ _____ _____    ______ ____

>  <TORSDO>
F 24

$$$$
=
 OpenBabel11062417473D

 64 70  0  0  1  0  0  0  0  0999 V2000
  186.8980  176.3350  137.3850 C   0  0  0  0  0  0  0  0  0  0  0  0
  185.6970  176.1750  137.9620 C   0  0  0  0  0  3  0  0  0  0  0  0
  188.1050  176.3000  138.2810 C   0  0  1  0  0  3  0  0  0  0  0  0
  189.2020  175.7460  137.6150 O   0  0  0  0  0  1  0  0  0  0  0  0
  188.4620  177.6480  138.9140 C   0  0  0  0  0  2  0  0  0  0  0  0
  188.2780  179.1560  140.9160 C   0  0  0  0  0  2  0  0  0  0  0  0
  189.2320  178.6600  141.8270 O   0  0  0  0  0  0  0  0  0  0  0  0
  189.0890  177.3710  141.3940 N   0  0  1  0  0  0  0  0  0  0  0  0
  188.0930  177.7690  140.3960 C   0  0  2  0  0  3  0  0  0  0  0  0
  190.4250  176.7400  141.1700 C   0  0  2  0  0  3  0  0  0  0  0  0
  191.4440  176.6820  142.3270 C   0  0  1  0  0  3  0  0  0  0  0  0
  191.6280  177.6660  141.1740 C   0  0  1  0  0  3  0  0  0  0  0  0
  192.6700  177.1880  140.2040 C   0  0  0  0  0  0  0  0  0  0  0  0
  192.3970  177.0940  138.8000 N   0  0  0  0  0  2  0  0  0  0  0  0
  193.8050  176.8710  140.6480 O   0  0  0  0  0  0  0  0  0  0  0  0
  193.3540  176.5550  137.8430 C   0  0  0  0  0  2  0  0  0  0  0  0
  191.6200  175.9570  136.3510 O   0  0  0  0  0  0  0  0  0  0  0  0
  192.6760  175.6380  136.8730 C   0  0  0  0  0  0  0  0  0  0  0  0
  193.3470  174.3660  136.4720 C   0  0  0  0  0  1  0  0  0  0  0  0
  191.1220  177.4320  143.6110 C   0  0  2  0  0  3  0  0  0  0  0  0
  192.0560  178.4520  143.7990 O   0  0  0  0  0  1  0  0  0  0  0  0
  191.1910  176.4700  144.7830 C   0  0  0  0  0  2  0  0  0  0  0  0
  191.6780  177.1310  145.9130 O   0  0  0  0  0  1  0  0  0  0  0  0
  187.0800  176.5020  135.8900 C   0  0  1  0  0  3  0  0  0  0  0  0
  188.3250  177.2920  135.4570 C   0  0  0  0  0  3  0  0  0  0  0  0
  188.2440  178.6000  135.8850 O   0  0  0  0  0  0  0  0  0  0  0  0
  188.0060  178.3220  134.5970 O   0  0  0  0  0  0  0  0  0  0  0  0
  186.9440  175.2650  135.1950 O   0  0  0  0  0  0  0  0  0  0  0  0
  189.1290  174.9420  134.5940 O   0  0  0  0  0  0  0  0  0  0  0  0
  188.0290  174.4320  134.9250 C   0  0  0  0  0  0  0  0  0  0  0  0
  187.9120  172.9440  134.9970 C   0  0  0  0  0  2  0  0  0  0  0  0
  188.9130  172.4370  135.8230 O   0  0  0  0  0  1  0  0  0  0  0  0
  184.4180  176.0690  137.1880 C   0  0  0  0  0  2  0  0  0  0  0  0
  183.4120  174.5750  134.7540 C   0  0  0  0  0  2  0  0  0  0  0  0
  184.0960  173.8850  135.9310 C   0  0  0  0  0  2  0  0  0  0  0  0
  182.0150  174.7350  134.9970 O   0  0  0  0  0  0  0  0  0  0  0  0
  180.2940  175.3550  136.3820 O   0  0  0  0  0  0  0  0  0  0  0  0
  183.8210  174.6620  137.2230 C   0  0  2  0  0  3  0  0  0  0  0  0
  181.4970  174.9940  136.2700 C   0  0  0  0  0  0  0  0  0  0  0  0
  182.3100  174.7130  137.5060 C   0  0  2  0  0  3  0  0  0  0  0  0
  182.0100  175.6590  138.5260 O   0  0  0  0  0  0  0  0  0  0  0  0
  181.0760  175.3900  139.5240 C   0  0  0  0  0  0  0  0  0  0  0  0
  180.3470  174.3670  139.4210 O   0  0  0  0  0  0  0  0  0  0  0  0
  180.9830  176.2370  140.6360 O   0  0  0  0  0  0  0  0  0  0  0  0
  180.5640  178.4050  141.3580 O   0  0  0  0  0  0  0  0  0  0  0  0
  181.2220  177.6190  140.6190 C   0  0  0  0  0  0  0  0  0  0  0  0
  182.2890  178.1850  139.7260 C   0  0  2  0  0  3  0  0  0  0  0  0
  183.5910  178.5160  140.4200 C   0  0  0  0  0  0  0  0  0  0  0  0
  184.6610  179.0430  139.6220 S   0  0  0  0  0  0  0  0  0  0  0  0
  185.0270  178.8210  142.4980 C   0  0  1  0  0  0  0  0  0  0  0  0
  184.2880  178.8610  146.1440 O   0  0  0  0  0  0  0  0  0  0  0  0
  185.2220  177.9210  145.6590 C   0  0  1  0  0  3  0  0  0  0  0  0
  183.2340  178.4200  144.0860 O   0  0  0  0  0  0  0  0  0  0  0  0
  185.9760  177.9520  143.3210 C   0  0  0  0  0  2  0  0  0  0  0  0
  185.5970  179.8500  141.7430 O   0  0  0  0  0  1  0  0  0  0  0  0
  183.9120  178.0270  141.8170 C   0  0  1  0  0  3  0  0  0  0  0  0
  186.2190  178.5340  144.7040 C   0  0  2  0  0  3  0  0  0  0  0  0
  183.5750  179.0650  142.8920 C   0  0  2  0  0  3  0  0  0  0  0  0
  185.9990  177.3920  146.7480 N   0  0  0  0  0  2  0  0  0  0  0  0
  183.4900  179.3700  145.0900 C   0  0  0  0  0  2  0  0  0  0  0  0
  187.3390  177.2810  146.1970 C   0  0  0  0  0  2  0  0  0  0  0  0
  187.5060  178.1980  145.1440 O   0  0  0  0  0  0  0  0  0  0  0  0
  181.3560  178.7980  137.5880 O   0  0  0  0  0  1  0  0  0  0  0  0
  181.8000  179.3060  138.8080 C   0  0  0  0  0  2  0  0  0  0  0  0
  1  2  2  0  0  0  0
  1  3  1  0  0  0  0
  3  4  1  6  0  0  0
  3  5  1  0  0  0  0
  6  7  1  0  0  0  0
  8  7  1  6  0  0  0
  9  5  1  6  0  0  0
  9  6  1  0  0  0  0
  9  8  1  0  0  0  0
 10 12  1  0  0  0  0
 10  8  1  1  0  0  0
 10 11  1  0  0  0  0
 11 20  1  1  0  0  0
 12 13  1  6  0  0  0
 12 11  1  0  0  0  0
 13 15  2  0  0  0  0
 14 13  1  0  0  0  0
 16 14  1  0  0  0  0
 17 18  2  0  0  0  0
 18 16  1  0  0  0  0
 19 18  1  0  0  0  0
 20 21  1  1  0  0  0
 20 22  1  0  0  0  0
 22 23  1  0  0  0  0
 24 28  1  6  0  0  0
 24  1  1  0  0  0  0
 25 26  1  0  0  0  0
 25 24  1  0  0  0  0
 27 25  1  0  0  0  0
 27 26  1  0  0  0  0
 29 30  2  0  0  0  0
 30 31  1  0  0  0  0
 30 28  1  0  0  0  0
 31 32  1  0  0  0  0
 33  2  1  0  0  0  0
 34 36  1  0  0  0  0
 34 35  1  0  0  0  0
 35 38  1  0  0  0  0
 36 39  1  0  0  0  0
 38 33  1  6  0  0  0
 38 40  1  0  0  0  0
 39 37  2  0  0  0  0
 39 40  1  0  0  0  0
 40 41  1  1  0  0  0
 41 42  1  0  0  0  0
 42 44  1  0  0  0  0
 43 42  2  0  0  0  0
 46 44  1  0  0  0  0
 46 45  2  0  0  0  0
 47 64  1  1  0  0  0
 47 48  1  0  0  0  0
 47 46  1  0  0  0  0
 49 48  2  0  0  0  0
 50 55  1  6  0  0  0
 50 58  1  0  0  0  0
 50 54  1  0  0  0  0
 52 51  1  1  0  0  0
 52 59  1  0  0  0  0
 53 60  1  0  0  0  0
 56 48  1  6  0  0  0
 56 50  1  0  0  0  0
 56 58  1  0  0  0  0
 57 54  1  6  0  0  0
 57 62  1  0  0  0  0
 57 52  1  0  0  0  0
 58 53  1  1  0  0  0
 60 51  1  0  0  0  0
 61 59  1  0  0  0  0
 62 61  1  0  0  0  0
 63 64  1  0  0  0  0
M  END
>  <MODEL>
6

>  <REMARK>
 VINA RESULT:      -4.4      2.434      7.624
  Name = 
  24 active torsions:
  status: ('A' for Active; 'I' for Inactive)
    1  A    between atoms: C_1  and  C_56
    2  A    between atoms: C_1  and  C_59
    3  A    between atoms: C_5  and  C_32
    4  A    between atoms: C_5  and  C_39
    5  A    between atoms: C_14  and  N_23
    6  A    between atoms: C_15  and  C_17
    7  A    between atoms: C_15  and  C_34
    8  A    between atoms: C_16  and  C_59
    9  A    between atoms: C_19  and  C_27
   10  A    between atoms: C_22  and  C_25
   11  A    between atoms: C_24  and  C_54
   12  A    between atoms: C_25  and  N_41
   13  A    between atoms: O_26  and  C_53
   14  A    between atoms: O_26  and  C_64
   15  A    between atoms: C_27  and  O_33
   16  A    between atoms: C_29  and  C_43
   17  A    between atoms: O_31  and  C_53
   18  A    between atoms: O_31  and  C_60
   19  A    between atoms: O_33  and  C_59
   20  A    between atoms: C_35  and  C_48
   21  A    between atoms: C_35  and  C_56
   22  A    between atoms: C_38  and  C_43
   23  A    between atoms: C_39  and  C_60
   24  A    between atoms: C_39  and  C_62
                            x       y       z     vdW  Elec       q    Type
                         _______ _______ _______ _____ _____    ______ ____

>  <TORSDO>
F 24

$$$$
=
 OpenBabel11062417473D

 64 70  0  0  1  0  0  0  0  0999 V2000
  190.0840  177.8900  142.1100 C   0  0  0  0  0  0  0  0  0  0  0  0
  189.4160  178.4150  141.0710 C   0  0  0  0  0  3  0  0  0  0  0  0
  191.5150  177.4930  141.8820 C   0  0  1  0  0  3  0  0  0  0  0  0
  192.0070  176.7580  142.9640 O   0  0  0  0  0  1  0  0  0  0  0  0
  191.7670  176.7660  140.5570 C   0  0  0  0  0  2  0  0  0  0  0  0
  193.5670  178.1320  139.4580 C   0  0  0  0  0  2  0  0  0  0  0  0
  193.8310  177.4660  138.2440 O   0  0  0  0  0  0  0  0  0  0  0  0
  193.5340  176.2370  138.7640 N   0  0  1  0  0  0  0  0  0  0  0  0
  193.2190  176.8160  140.0730 C   0  0  2  0  0  3  0  0  0  0  0  0
  192.6330  175.4790  137.8440 C   0  0  2  0  0  3  0  0  0  0  0  0
  193.2400  174.6610  136.6850 C   0  0  1  0  0  3  0  0  0  0  0  0
  192.5300  175.9860  136.4160 C   0  0  1  0  0  3  0  0  0  0  0  0
  191.1480  175.7700  135.8730 C   0  0  0  0  0  0  0  0  0  0  0  0
  190.1020  175.2190  136.6850 N   0  0  0  0  0  2  0  0  0  0  0  0
  190.9140  176.0870  134.6780 O   0  0  0  0  0  0  0  0  0  0  0  0
  188.7750  174.9170  136.1690 C   0  0  0  0  0  2  0  0  0  0  0  0
  189.6840  172.7850  135.7020 O   0  0  0  0  0  0  0  0  0  0  0  0
  188.6860  173.4870  135.7340 C   0  0  0  0  0  0  0  0  0  0  0  0
  187.3520  172.8930  135.4270 C   0  0  0  0  0  1  0  0  0  0  0  0
  194.7290  174.7970  136.4080 C   0  0  2  0  0  3  0  0  0  0  0  0
  194.9260  175.7110  135.3730 O   0  0  0  0  0  1  0  0  0  0  0  0
  195.2860  173.4470  135.9950 C   0  0  0  0  0  2  0  0  0  0  0  0
  196.3130  173.0700  136.8650 O   0  0  0  0  0  1  0  0  0  0  0  0
  189.4720  177.7280  143.4870 C   0  0  1  0  0  3  0  0  0  0  0  0
  188.8580  176.3510  143.7830 C   0  0  0  0  0  3  0  0  0  0  0  0
  187.8210  176.0850  142.9140 O   0  0  0  0  0  0  0  0  0  0  0  0
  187.5380  176.4500  144.1720 O   0  0  0  0  0  0  0  0  0  0  0  0
  190.3530  178.1700  144.5170 O   0  0  0  0  0  0  0  0  0  0  0  0
  189.3590  177.9830  146.5700 O   0  0  0  0  0  0  0  0  0  0  0  0
  190.3090  177.6590  145.8140 C   0  0  0  0  0  0  0  0  0  0  0  0
  191.3750  176.7520  146.3370 C   0  0  0  0  0  2  0  0  0  0  0  0
  191.7150  177.1310  147.6340 O   0  0  0  0  0  1  0  0  0  0  0  0
  188.0250  178.9630  141.1770 C   0  0  0  0  0  2  0  0  0  0  0  0
  187.2900  178.2790  138.3200 C   0  0  0  0  0  2  0  0  0  0  0  0
  187.2820  177.2540  139.4500 C   0  0  0  0  0  2  0  0  0  0  0  0
  186.0540  178.9900  138.2660 O   0  0  0  0  0  0  0  0  0  0  0  0
  184.3730  180.1410  139.3220 O   0  0  0  0  0  0  0  0  0  0  0  0
  186.9570  177.9440  140.7790 C   0  0  2  0  0  3  0  0  0  0  0  0
  185.3240  179.3190  139.4130 C   0  0  0  0  0  0  0  0  0  0  0  0
  185.5670  178.6010  140.7150 C   0  0  2  0  0  3  0  0  0  0  0  0
  185.3640  179.4800  141.8150 O   0  0  0  0  0  0  0  0  0  0  0  0
  184.3040  179.3100  142.7030 C   0  0  0  0  0  0  0  0  0  0  0  0
  184.5440  179.2530  143.9390 O   0  0  0  0  0  0  0  0  0  0  0  0
  182.9930  179.2380  142.2160 O   0  0  0  0  0  0  0  0  0  0  0  0
  181.9630  178.5890  144.1960 O   0  0  0  0  0  0  0  0  0  0  0  0
  181.8830  178.7950  142.9520 C   0  0  0  0  0  0  0  0  0  0  0  0
  180.5660  178.5770  142.2640 C   0  0  2  0  0  3  0  0  0  0  0  0
  180.6570  178.3290  140.7750 C   0  0  0  0  0  0  0  0  0  0  0  0
  179.7920  179.0860  139.9150 S   0  0  0  0  0  0  0  0  0  0  0  0
  180.8140  176.6820  138.8430 C   0  0  1  0  0  0  0  0  0  0  0  0
  183.6540  175.2870  136.8850 O   0  0  0  0  0  0  0  0  0  0  0  0
  182.7970  174.3900  137.5570 C   0  0  1  0  0  3  0  0  0  0  0  0
  183.2410  176.6220  138.7790 O   0  0  0  0  0  0  0  0  0  0  0  0
  180.7520  175.1640  138.6780 C   0  0  0  0  0  2  0  0  0  0  0  0
  179.7340  177.4200  138.3510 O   0  0  0  0  0  1  0  0  0  0  0  0
  181.3700  177.1250  140.1970 C   0  0  1  0  0  3  0  0  0  0  0  0
  181.3360  174.7160  137.3490 C   0  0  2  0  0  3  0  0  0  0  0  0
  182.1250  177.4570  138.9060 C   0  0  2  0  0  3  0  0  0  0  0  0
  182.9750  173.0590  137.0410 N   0  0  0  0  0  2  0  0  0  0  0  0
  183.5150  176.5990  137.4010 C   0  0  0  0  0  2  0  0  0  0  0  0
  181.6290  172.5130  137.0100 C   0  0  0  0  0  2  0  0  0  0  0  0
  180.6890  173.5540  136.9110 O   0  0  0  0  0  0  0  0  0  0  0  0
  180.0580  180.8650  142.8360 O   0  0  0  0  0  1  0  0  0  0  0  0
  179.4950  179.6050  142.6340 C   0  0  0  0  0  2  0  0  0  0  0  0
  2 33  1  0  0  0  0
  2  1  2  0  0  0  0
  3  1  1  0  0  0  0
  3  4  1  1  0  0  0
  5  3  1  0  0  0  0
  6  9  1  0  0  0  0
  7  6  1  0  0  0  0
  8  7  1  6  0  0  0
  8  9  1  0  0  0  0
  9  5  1  6  0  0  0
 10  8  1  1  0  0  0
 11 20  1  1  0  0  0
 11 10  1  0  0  0  0
 12 13  1  6  0  0  0
 12 11  1  0  0  0  0
 12 10  1  0  0  0  0
 13 14  1  0  0  0  0
 15 13  2  0  0  0  0
 16 14  1  0  0  0  0
 17 18  2  0  0  0  0
 18 16  1  0  0  0  0
 19 18  1  0  0  0  0
 20 21  1  6  0  0  0
 22 20  1  0  0  0  0
 22 23  1  0  0  0  0
 24  1  1  6  0  0  0
 24 25  1  0  0  0  0
 24 28  1  0  0  0  0
 25 27  1  0  0  0  0
 26 25  1  0  0  0  0
 26 27  1  0  0  0  0
 28 30  1  0  0  0  0
 30 31  1  0  0  0  0
 30 29  2  0  0  0  0
 31 32  1  0  0  0  0
 34 35  1  0  0  0  0
 35 38  1  0  0  0  0
 36 34  1  0  0  0  0
 36 39  1  0  0  0  0
 37 39  2  0  0  0  0
 38 33  1  6  0  0  0
 39 40  1  0  0  0  0
 40 38  1  0  0  0  0
 40 41  1  1  0  0  0
 41 42  1  0  0  0  0
 42 43  2  0  0  0  0
 44 42  1  0  0  0  0
 44 46  1  0  0  0  0
 46 45  2  0  0  0  0
 47 64  1  6  0  0  0
 47 46  1  0  0  0  0
 48 47  1  0  0  0  0
 49 48  2  0  0  0  0
 50 55  1  6  0  0  0
 50 58  1  0  0  0  0
 50 56  1  0  0  0  0
 51 60  1  0  0  0  0
 52 51  1  6  0  0  0
 54 50  1  0  0  0  0
 56 48  1  6  0  0  0
 57 52  1  0  0  0  0
 57 54  1  1  0  0  0
 58 53  1  1  0  0  0
 58 56  1  0  0  0  0
 59 52  1  0  0  0  0
 60 53  1  0  0  0  0
 61 59  1  0  0  0  0
 62 61  1  0  0  0  0
 62 57  1  0  0  0  0
 64 63  1  0  0  0  0
M  END
>  <MODEL>
7

>  <REMARK>
 VINA RESULT:      -4.4      2.262      4.326
  Name = 
  24 active torsions:
  status: ('A' for Active; 'I' for Inactive)
    1  A    between atoms: C_1  and  C_56
    2  A    between atoms: C_1  and  C_59
    3  A    between atoms: C_5  and  C_32
    4  A    between atoms: C_5  and  C_39
    5  A    between atoms: C_14  and  N_23
    6  A    between atoms: C_15  and  C_17
    7  A    between atoms: C_15  and  C_34
    8  A    between atoms: C_16  and  C_59
    9  A    between atoms: C_19  and  C_27
   10  A    between atoms: C_22  and  C_25
   11  A    between atoms: C_24  and  C_54
   12  A    between atoms: C_25  and  N_41
   13  A    between atoms: O_26  and  C_53
   14  A    between atoms: O_26  and  C_64
   15  A    between atoms: C_27  and  O_33
   16  A    between atoms: C_29  and  C_43
   17  A    between atoms: O_31  and  C_53
   18  A    between atoms: O_31  and  C_60
   19  A    between atoms: O_33  and  C_59
   20  A    between atoms: C_35  and  C_48
   21  A    between atoms: C_35  and  C_56
   22  A    between atoms: C_38  and  C_43
   23  A    between atoms: C_39  and  C_60
   24  A    between atoms: C_39  and  C_62
                            x       y       z     vdW  Elec       q    Type
                         _______ _______ _______ _____ _____    ______ ____

>  <TORSDO>
F 24

$$$$
=
 OpenBabel11062417473D

 64 70  0  0  1  0  0  0  0  0999 V2000
  188.4010  177.6090  140.7350 C   0  0  0  0  0  0  0  0  0  0  0  0
  187.5280  177.7120  141.7500 C   0  0  0  0  0  3  0  0  0  0  0  0
  188.0260  178.2590  139.4330 C   0  0  1  0  0  3  0  0  0  0  0  0
  189.0330  179.1290  139.0030 O   0  0  0  0  0  1  0  0  0  0  0  0
  187.6320  177.2770  138.3260 C   0  0  0  0  0  2  0  0  0  0  0  0
  185.2570  176.8540  137.6190 C   0  0  0  0  0  2  0  0  0  0  0  0
  185.3430  176.5390  136.2480 O   0  0  0  0  0  0  0  0  0  0  0  0
  186.4300  177.3430  136.0520 N   0  0  1  0  0  0  0  0  0  0  0  0
  186.4520  177.7360  137.4640 C   0  0  2  0  0  3  0  0  0  0  0  0
  187.4840  176.6240  135.2740 C   0  0  2  0  0  3  0  0  0  0  0  0
  187.4370  175.0850  135.1690 C   0  0  1  0  0  3  0  0  0  0  0  0
  188.4610  175.7740  136.0680 C   0  0  1  0  0  3  0  0  0  0  0  0
  189.8220  175.7980  135.4350 C   0  0  0  0  0  0  0  0  0  0  0  0
  190.5980  174.6020  135.2850 N   0  0  0  0  0  2  0  0  0  0  0  0
  190.2780  176.8990  135.0280 O   0  0  0  0  0  0  0  0  0  0  0  0
  191.9550  174.6000  134.7540 C   0  0  0  0  0  2  0  0  0  0  0  0
  193.8210  175.7120  135.6860 O   0  0  0  0  0  0  0  0  0  0  0  0
  192.9510  174.8700  135.8380 C   0  0  0  0  0  0  0  0  0  0  0  0
  192.8180  174.1700  137.1500 C   0  0  0  0  0  1  0  0  0  0  0  0
  186.4190  174.3350  136.0120 C   0  0  2  0  0  3  0  0  0  0  0  0
  187.0410  173.8360  137.1570 O   0  0  0  0  0  1  0  0  0  0  0  0
  185.8560  173.1780  135.2060 C   0  0  0  0  0  2  0  0  0  0  0  0
  185.0640  172.3690  136.0250 O   0  0  0  0  0  1  0  0  0  0  0  0
  189.7420  176.9160  140.8680 C   0  0  1  0  0  3  0  0  0  0  0  0
  190.3300  176.3530  139.5640 C   0  0  0  0  0  3  0  0  0  0  0  0
  191.6700  176.0680  139.7200 O   0  0  0  0  0  0  0  0  0  0  0  0
  191.3140  177.1720  139.0500 O   0  0  0  0  0  0  0  0  0  0  0  0
  190.6790  177.7020  141.6000 O   0  0  0  0  0  0  0  0  0  0  0  0
  191.2100  176.0250  143.0650 O   0  0  0  0  0  0  0  0  0  0  0  0
  191.3060  177.2400  142.7570 C   0  0  0  0  0  0  0  0  0  0  0  0
  192.0700  178.1570  143.6550 C   0  0  0  0  0  2  0  0  0  0  0  0
  191.4040  179.3770  143.7510 O   0  0  0  0  0  1  0  0  0  0  0  0
  187.8130  177.2190  143.1360 C   0  0  0  0  0  2  0  0  0  0  0  0
  188.9090  176.9980  145.9500 C   0  0  0  0  0  2  0  0  0  0  0  0
  188.9210  178.2990  145.1520 C   0  0  0  0  0  2  0  0  0  0  0  0
  187.6650  176.8250  146.6260 O   0  0  0  0  0  0  0  0  0  0  0  0
  185.3700  176.8560  146.6100 O   0  0  0  0  0  0  0  0  0  0  0  0
  187.7320  178.3290  144.1850 C   0  0  2  0  0  3  0  0  0  0  0  0
  186.4460  177.2430  146.0800 C   0  0  0  0  0  0  0  0  0  0  0  0
  186.4070  178.2530  144.9640 C   0  0  2  0  0  3  0  0  0  0  0  0
  185.3140  177.9920  144.0920 O   0  0  0  0  0  0  0  0  0  0  0  0
  184.3130  178.9340  143.8680 C   0  0  0  0  0  0  0  0  0  0  0  0
  183.6340  179.3510  144.8450 O   0  0  0  0  0  0  0  0  0  0  0  0
  184.0970  179.4270  142.5740 O   0  0  0  0  0  0  0  0  0  0  0  0
  184.1530  177.4960  141.2830 O   0  0  0  0  0  0  0  0  0  0  0  0
  183.6900  178.6550  141.4760 C   0  0  0  0  0  0  0  0  0  0  0  0
  182.6700  179.1970  140.5150 C   0  0  2  0  0  3  0  0  0  0  0  0
  181.3750  178.4190  140.4550 C   0  0  0  0  0  0  0  0  0  0  0  0
  180.7660  178.0350  141.6980 S   0  0  0  0  0  0  0  0  0  0  0  0
  181.5380  176.4240  138.8850 C   0  0  1  0  0  0  0  0  0  0  0  0
  179.0130  174.3090  137.1550 O   0  0  0  0  0  0  0  0  0  0  0  0
  179.9760  174.9800  136.3720 C   0  0  1  0  0  3  0  0  0  0  0  0
  179.1520  176.2650  138.4570 O   0  0  0  0  0  0  0  0  0  0  0  0
  181.8380  176.2080  137.4030 C   0  0  0  0  0  2  0  0  0  0  0  0
  182.5060  176.0020  139.8000 O   0  0  0  0  0  1  0  0  0  0  0  0
  180.8760  177.7710  139.1810 C   0  0  1  0  0  3  0  0  0  0  0  0
  181.3740  174.8410  136.9270 C   0  0  2  0  0  3  0  0  0  0  0  0
  180.1210  176.4640  139.4470 C   0  0  2  0  0  3  0  0  0  0  0  0
  180.0220  174.4110  135.0520 N   0  0  0  0  0  2  0  0  0  0  0  0
  178.9310  174.8770  138.4500 C   0  0  0  0  0  2  0  0  0  0  0  0
  181.4370  174.4130  134.7200 C   0  0  0  0  0  2  0  0  0  0  0  0
  182.2080  174.3870  135.8970 O   0  0  0  0  0  0  0  0  0  0  0  0
  184.5570  179.9560  139.2180 O   0  0  0  0  0  1  0  0  0  0  0  0
  183.2340  179.5260  139.1320 C   0  0  0  0  0  2  0  0  0  0  0  0
  1  2  2  0  0  0  0
  2 33  1  0  0  0  0
  3  4  1  6  0  0  0
  3  1  1  0  0  0  0
  5  3  1  0  0  0  0
  7  6  1  0  0  0  0
  8  7  1  1  0  0  0
  8  9  1  0  0  0  0
  9  6  1  0  0  0  0
  9  5  1  1  0  0  0
 10  8  1  1  0  0  0
 10 12  1  0  0  0  0
 11 10  1  0  0  0  0
 11 20  1  1  0  0  0
 11 12  1  0  0  0  0
 12 13  1  6  0  0  0
 14 13  1  0  0  0  0
 15 13  2  0  0  0  0
 16 14  1  0  0  0  0
 16 18  1  0  0  0  0
 17 18  2  0  0  0  0
 18 19  1  0  0  0  0
 20 21  1  1  0  0  0
 22 20  1  0  0  0  0
 22 23  1  0  0  0  0
 24  1  1  6  0  0  0
 24 28  1  0  0  0  0
 25 26  1  0  0  0  0
 25 24  1  0  0  0  0
 27 25  1  0  0  0  0
 27 26  1  0  0  0  0
 28 30  1  0  0  0  0
 30 29  2  0  0  0  0
 30 31  1  0  0  0  0
 31 32  1  0  0  0  0
 34 36  1  0  0  0  0
 35 34  1  0  0  0  0
 38 33  1  6  0  0  0
 38 40  1  0  0  0  0
 38 35  1  0  0  0  0
 39 37  2  0  0  0  0
 39 36  1  0  0  0  0
 40 41  1  6  0  0  0
 40 39  1  0  0  0  0
 42 41  1  0  0  0  0
 42 43  2  0  0  0  0
 44 42  1  0  0  0  0
 45 46  2  0  0  0  0
 46 44  1  0  0  0  0
 47 64  1  6  0  0  0
 47 46  1  0  0  0  0
 48 47  1  0  0  0  0
 48 49  2  0  0  0  0
 50 56  1  0  0  0  0
 50 58  1  0  0  0  0
 50 55  1  1  0  0  0
 51 60  1  0  0  0  0
 52 59  1  6  0  0  0
 52 57  1  0  0  0  0
 52 51  1  0  0  0  0
 54 50  1  0  0  0  0
 56 58  1  0  0  0  0
 56 48  1  1  0  0  0
 57 54  1  6  0  0  0
 58 53  1  6  0  0  0
 60 53  1  0  0  0  0
 61 59  1  0  0  0  0
 61 62  1  0  0  0  0
 62 57  1  0  0  0  0
 64 63  1  0  0  0  0
M  END
>  <MODEL>
8

>  <REMARK>
 VINA RESULT:      -4.3      2.128      4.810
  Name = 
  24 active torsions:
  status: ('A' for Active; 'I' for Inactive)
    1  A    between atoms: C_1  and  C_56
    2  A    between atoms: C_1  and  C_59
    3  A    between atoms: C_5  and  C_32
    4  A    between atoms: C_5  and  C_39
    5  A    between atoms: C_14  and  N_23
    6  A    between atoms: C_15  and  C_17
    7  A    between atoms: C_15  and  C_34
    8  A    between atoms: C_16  and  C_59
    9  A    between atoms: C_19  and  C_27
   10  A    between atoms: C_22  and  C_25
   11  A    between atoms: C_24  and  C_54
   12  A    between atoms: C_25  and  N_41
   13  A    between atoms: O_26  and  C_53
   14  A    between atoms: O_26  and  C_64
   15  A    between atoms: C_27  and  O_33
   16  A    between atoms: C_29  and  C_43
   17  A    between atoms: O_31  and  C_53
   18  A    between atoms: O_31  and  C_60
   19  A    between atoms: O_33  and  C_59
   20  A    between atoms: C_35  and  C_48
   21  A    between atoms: C_35  and  C_56
   22  A    between atoms: C_38  and  C_43
   23  A    between atoms: C_39  and  C_60
   24  A    between atoms: C_39  and  C_62
                            x       y       z     vdW  Elec       q    Type
                         _______ _______ _______ _____ _____    ______ ____

>  <TORSDO>
F 24

$$$$
=
 OpenBabel11062417473D

 64 70  0  0  1  0  0  0  0  0999 V2000
  189.0680  177.6980  141.1450 C   0  0  0  0  0  0  0  0  0  0  0  0
  188.3460  177.5470  142.2670 C   0  0  0  0  0  3  0  0  0  0  0  0
  188.3650  178.2620  139.9420 C   0  0  1  0  0  3  0  0  0  0  0  0
  189.0670  179.3540  139.4230 O   0  0  0  0  0  1  0  0  0  0  0  0
  188.0540  177.2330  138.8510 C   0  0  0  0  0  2  0  0  0  0  0  0
  187.7120  178.7310  136.8620 C   0  0  0  0  0  2  0  0  0  0  0  0
  187.3380  177.8610  135.8190 O   0  0  0  0  0  0  0  0  0  0  0  0
  188.0840  176.8270  136.3110 N   0  0  1  0  0  0  0  0  0  0  0  0
  188.5310  177.6310  137.4510 C   0  0  2  0  0  3  0  0  0  0  0  0
  187.2860  175.5620  136.3240 C   0  0  2  0  0  3  0  0  0  0  0  0
  188.0060  174.2060  136.1720 C   0  0  1  0  0  3  0  0  0  0  0  0
  187.2000  174.7950  135.0160 C   0  0  1  0  0  3  0  0  0  0  0  0
  185.8630  174.1260  134.8790 C   0  0  0  0  0  0  0  0  0  0  0  0
  185.7400  172.6970  134.8520 N   0  0  0  0  0  2  0  0  0  0  0  0
  184.8350  174.8470  134.7920 O   0  0  0  0  0  0  0  0  0  0  0  0
  184.4720  172.0160  134.6360 C   0  0  0  0  0  2  0  0  0  0  0  0
  182.9760  170.8010  136.0060 O   0  0  0  0  0  0  0  0  0  0  0  0
  183.8190  171.6810  135.9410 C   0  0  0  0  0  0  0  0  0  0  0  0
  184.2730  172.3660  137.1870 C   0  0  0  0  0  1  0  0  0  0  0  0
  189.4880  174.2090  135.8340 C   0  0  2  0  0  3  0  0  0  0  0  0
  189.6830  173.5950  134.5960 O   0  0  0  0  0  1  0  0  0  0  0  0
  190.2460  173.4370  136.8990 C   0  0  0  0  0  2  0  0  0  0  0  0
  191.6040  173.3870  136.5740 O   0  0  0  0  0  1  0  0  0  0  0  0
  190.5450  177.3690  141.0630 C   0  0  1  0  0  3  0  0  0  0  0  0
  190.9380  175.9610  141.5370 C   0  0  0  0  0  3  0  0  0  0  0  0
  190.2340  175.6160  142.6720 O   0  0  0  0  0  0  0  0  0  0  0  0
  191.5170  175.9840  142.7890 O   0  0  0  0  0  0  0  0  0  0  0  0
  191.0940  177.6930  139.7890 O   0  0  0  0  0  0  0  0  0  0  0  0
  193.3620  177.5500  140.0590 O   0  0  0  0  0  0  0  0  0  0  0  0
  192.3510  177.2500  139.3770 C   0  0  0  0  0  0  0  0  0  0  0  0
  192.5300  176.4450  138.1310 C   0  0  0  0  0  2  0  0  0  0  0  0
  193.3940  177.1110  137.2650 O   0  0  0  0  0  1  0  0  0  0  0  0
  188.9350  177.1100  143.5740 C   0  0  0  0  0  2  0  0  0  0  0  0
  191.6290  177.4670  144.9110 C   0  0  0  0  0  2  0  0  0  0  0  0
  190.7920  178.6370  144.3980 C   0  0  0  0  0  2  0  0  0  0  0  0
  191.2350  177.0990  146.2310 O   0  0  0  0  0  0  0  0  0  0  0  0
  189.5900  176.6120  147.7560 O   0  0  0  0  0  0  0  0  0  0  0  0
  189.3020  178.2880  144.4790 C   0  0  2  0  0  3  0  0  0  0  0  0
  189.9090  177.1670  146.6690 C   0  0  0  0  0  0  0  0  0  0  0  0
  188.8970  178.0070  145.9360 C   0  0  2  0  0  3  0  0  0  0  0  0
  187.6080  177.4080  146.0040 O   0  0  0  0  0  0  0  0  0  0  0  0
  186.5230  178.0660  146.5780 C   0  0  0  0  0  0  0  0  0  0  0  0
  186.7280  178.8840  147.5150 O   0  0  0  0  0  0  0  0  0  0  0  0
  185.2300  177.8350  146.0890 O   0  0  0  0  0  0  0  0  0  0  0  0
  185.3010  177.4920  143.7920 O   0  0  0  0  0  0  0  0  0  0  0  0
  184.8040  178.1030  144.7790 C   0  0  0  0  0  0  0  0  0  0  0  0
  183.7240  179.1180  144.5350 C   0  0  2  0  0  3  0  0  0  0  0  0
  182.6920  178.7140  143.5060 C   0  0  0  0  0  0  0  0  0  0  0  0
  181.3110  178.7330  143.8990 S   0  0  0  0  0  0  0  0  0  0  0  0
  182.2170  178.4340  141.0220 C   0  0  1  0  0  0  0  0  0  0  0  0
  184.3830  178.2120  138.0060 O   0  0  0  0  0  0  0  0  0  0  0  0
  183.4980  177.1460  138.2760 C   0  0  1  0  0  3  0  0  0  0  0  0
  184.5460  178.2710  140.3530 O   0  0  0  0  0  0  0  0  0  0  0  0
  181.8480  177.2800  140.0920 C   0  0  0  0  0  2  0  0  0  0  0  0
  181.2260  179.3860  141.2790 O   0  0  0  0  0  1  0  0  0  0  0  0
  183.0620  178.0030  142.2210 C   0  0  1  0  0  3  0  0  0  0  0  0
  182.1100  177.6220  138.6350 C   0  0  2  0  0  3  0  0  0  0  0  0
  183.6410  178.9570  141.1720 C   0  0  2  0  0  3  0  0  0  0  0  0
  183.3390  176.3280  137.1040 N   0  0  0  0  0  2  0  0  0  0  0  0
  184.5780  179.0120  139.1590 C   0  0  0  0  0  2  0  0  0  0  0  0
  181.9290  175.9780  137.1120 C   0  0  0  0  0  2  0  0  0  0  0  0
  181.1950  176.9510  137.8150 O   0  0  0  0  0  0  0  0  0  0  0  0
  185.6370  180.5640  144.2730 O   0  0  0  0  0  1  0  0  0  0  0  0
  184.2440  180.5420  144.3320 C   0  0  0  0  0  2  0  0  0  0  0  0
  1  2  2  0  0  0  0
  2 33  1  0  0  0  0
  3  4  1  6  0  0  0
  3  1  1  0  0  0  0
  5  3  1  0  0  0  0
  6  9  1  0  0  0  0
  7  6  1  0  0  0  0
  8  7  1  6  0  0  0
  8  9  1  0  0  0  0
  9  5  1  1  0  0  0
 10  8  1  6  0  0  0
 11 20  1  6  0  0  0
 11 10  1  0  0  0  0
 12 13  1  1  0  0  0
 12 11  1  0  0  0  0
 12 10  1  0  0  0  0
 14 13  1  0  0  0  0
 15 13  2  0  0  0  0
 16 14  1  0  0  0  0
 16 18  1  0  0  0  0
 18 17  2  0  0  0  0
 18 19  1  0  0  0  0
 20 21  1  6  0  0  0
 20 22  1  0  0  0  0
 23 22  1  0  0  0  0
 24 28  1  6  0  0  0
 24  1  1  0  0  0  0
 24 25  1  0  0  0  0
 25 26  1  0  0  0  0
 25 27  1  0  0  0  0
 26 27  1  0  0  0  0
 30 28  1  0  0  0  0
 30 29  2  0  0  0  0
 31 30  1  0  0  0  0
 32 31  1  0  0  0  0
 34 36  1  0  0  0  0
 35 38  1  0  0  0  0
 35 34  1  0  0  0  0
 36 39  1  0  0  0  0
 38 33  1  6  0  0  0
 38 40  1  0  0  0  0
 39 37  2  0  0  0  0
 40 41  1  6  0  0  0
 40 39  1  0  0  0  0
 41 42  1  0  0  0  0
 42 43  2  0  0  0  0
 44 42  1  0  0  0  0
 45 46  2  0  0  0  0
 46 44  1  0  0  0  0
 47 64  1  6  0  0  0
 47 46  1  0  0  0  0
 48 49  2  0  0  0  0
 48 47  1  0  0  0  0
 50 58  1  0  0  0  0
 50 55  1  1  0  0  0
 50 56  1  0  0  0  0
 51 52  1  0  0  0  0
 51 60  1  0  0  0  0
 52 59  1  6  0  0  0
 52 57  1  0  0  0  0
 54 50  1  0  0  0  0
 56 48  1  1  0  0  0
 57 54  1  1  0  0  0
 58 53  1  6  0  0  0
 58 56  1  0  0  0  0
 59 61  1  0  0  0  0
 60 53  1  0  0  0  0
 61 62  1  0  0  0  0
 62 57  1  0  0  0  0
 63 64  1  0  0  0  0
M  END
>  <MODEL>
9

>  <REMARK>
 VINA RESULT:      -4.2      2.491      5.980
  Name = 
  24 active torsions:
  status: ('A' for Active; 'I' for Inactive)
    1  A    between atoms: C_1  and  C_56
    2  A    between atoms: C_1  and  C_59
    3  A    between atoms: C_5  and  C_32
    4  A    between atoms: C_5  and  C_39
    5  A    between atoms: C_14  and  N_23
    6  A    between atoms: C_15  and  C_17
    7  A    between atoms: C_15  and  C_34
    8  A    between atoms: C_16  and  C_59
    9  A    between atoms: C_19  and  C_27
   10  A    between atoms: C_22  and  C_25
   11  A    between atoms: C_24  and  C_54
   12  A    between atoms: C_25  and  N_41
   13  A    between atoms: O_26  and  C_53
   14  A    between atoms: O_26  and  C_64
   15  A    between atoms: C_27  and  O_33
   16  A    between atoms: C_29  and  C_43
   17  A    between atoms: O_31  and  C_53
   18  A    between atoms: O_31  and  C_60
   19  A    between atoms: O_33  and  C_59
   20  A    between atoms: C_35  and  C_48
   21  A    between atoms: C_35  and  C_56
   22  A    between atoms: C_38  and  C_43
   23  A    between atoms: C_39  and  C_60
   24  A    between atoms: C_39  and  C_62
                            x       y       z     vdW  Elec       q    Type
                         _______ _______ _______ _____ _____    ______ ____

>  <TORSDO>
F 24

$$$$
