=
 OpenBabel11062413293D

 30 34  0  0  1  0  0  0  0  0999 V2000
  182.0190  179.0410  143.0910 N   0  0  0  0  0  0  0  0  0  0  0  0
  183.1440  178.9720  143.7400 C   0  0  0  0  0  0  0  0  0  0  0  0
  185.3310  178.5900  144.0780 C   0  0  0  0  0  0  0  0  0  0  0  0
  185.5940  178.6740  140.8940 C   0  0  0  0  0  3  0  0  0  0  0  0
  184.6530  178.9580  145.3310 C   0  0  0  0  0  0  0  0  0  0  0  0
  182.0010  178.8320  141.6670 C   0  0  0  0  0  0  0  0  0  0  0  0
  183.2990  179.1850  145.1010 O   0  0  0  0  0  0  0  0  0  0  0  0
  183.7240  179.2560  139.8830 C   0  0  2  0  0  3  0  0  0  0  0  0
  183.2920  178.6050  140.9620 C   0  0  1  0  0  3  0  0  0  0  0  0
  180.9080  178.8730  141.0420 O   0  0  0  0  0  0  0  0  0  0  0  0
  184.4860  178.0980  141.7150 C   0  0  2  0  0  3  0  0  0  0  0  0
  185.1450  179.2930  139.8520 N   0  0  0  0  0  0  0  0  0  0  0  0
  184.4180  178.6280  143.1160 C   0  0  0  0  0  0  0  0  0  0  0  0
  185.2070  179.0480  146.4940 N   0  0  0  0  0  2  0  0  0  0  0  0
  182.0680  179.3390  137.9480 N   0  0  0  0  0  0  0  0  0  0  0  0
  182.8660  181.2700  138.9830 O   0  0  0  0  0  0  0  0  0  0  0  0
  182.2700  177.9400  137.6100 C   0  0  0  0  0  1  0  0  0  0  0  0
  181.0880  180.0860  137.1770 C   0  0  0  0  0  1  0  0  0  0  0  0
  182.8910  180.0110  138.9190 C   0  0  0  0  0  0  0  0  0  0  0  0
  186.6760  178.1370  143.9110 N   0  0  0  0  0  2  0  0  0  0  0  0
  187.0110  176.7480  143.6510 C   0  0  0  0  0  2  0  0  0  0  0  0
  188.9090  177.7730  144.5760 C   0  0  1  0  0  3  0  0  0  0  0  0
  191.8420  178.5010  144.7360 F   0  0  0  0  0  0  0  0  0  0  0  0
  189.9250  177.4380  145.6770 C   0  0  0  0  0  2  0  0  0  0  0  0
  191.3730  176.2560  144.0760 C   0  0  0  0  0  2  0  0  0  0  0  0
  192.1440  176.8410  146.2290 F   0  0  0  0  0  0  0  0  0  0  0  0
  191.3550  177.2860  145.1870 C   0  0  0  0  0  0  0  0  0  0  0  0
  189.2130  177.3890  143.1760 C   0  0  1  0  0  3  0  0  0  0  0  0
  190.5850  176.7580  142.8710 C   0  0  0  0  0  2  0  0  0  0  0  0
  188.3930  176.5070  144.0190 N   0  0  0  0  0  0  0  0  0  0  0  0
  1  2  2  0  0  0  0
  2  7  1  0  0  0  0
  3  5  1  0  0  0  0
  5 14  2  0  0  0  0
  6  1  1  0  0  0  0
  7  5  1  0  0  0  0
  8 19  1  1  0  0  0
  8  9  1  0  0  0  0
  9  6  1  1  0  0  0
  9 11  1  0  0  0  0
 10  6  2  0  0  0  0
 11  4  1  6  0  0  0
 11 13  1  0  0  0  0
 12  8  1  0  0  0  0
 12  4  2  0  0  0  0
 13  2  1  0  0  0  0
 13  3  2  0  0  0  0
 15 19  1  0  0  0  0
 17 15  1  0  0  0  0
 18 15  1  0  0  0  0
 19 16  2  0  0  0  0
 20  3  1  0  0  0  0
 21 20  1  0  0  0  0
 21 30  1  0  0  0  0
 22 24  1  1  0  0  0
 23 27  1  0  0  0  0
 25 27  1  0  0  0  0
 27 24  1  0  0  0  0
 27 26  1  0  0  0  0
 28 29  1  1  0  0  0
 28 30  1  0  0  0  0
 28 22  1  0  0  0  0
 29 25  1  0  0  0  0
 30 22  1  0  0  0  0
M  END
>  <MODEL>
1

>  <REMARK>
 VINA RESULT:      -9.4      0.000      0.000
  Name = 
  4 active torsions:
  status: ('A' for Active; 'I' for Inactive)
    1  A    between atoms: C_8  and  N_29
    2  A    between atoms: C_18  and  C_25
    3  A    between atoms: C_20  and  N_28
    4  A    between atoms: C_20  and  N_29
                            x       y       z     vdW  Elec       q    Type
                         _______ _______ _______ _____ _____    ______ ____

>  <TORSDO>
F 4

$$$$
=
 OpenBabel11062413293D

 30 34  0  0  1  0  0  0  0  0999 V2000
  181.4500  178.7720  142.6090 N   0  0  0  0  0  0  0  0  0  0  0  0
  182.5700  178.8140  143.2700 C   0  0  0  0  0  0  0  0  0  0  0  0
  184.7870  178.7220  143.6140 C   0  0  0  0  0  0  0  0  0  0  0  0
  185.0530  179.0730  140.4480 C   0  0  0  0  0  3  0  0  0  0  0  0
  184.0570  178.8980  144.8790 C   0  0  0  0  0  0  0  0  0  0  0  0
  181.4690  178.6660  141.1740 C   0  0  0  0  0  0  0  0  0  0  0  0
  182.6860  178.9480  144.6440 O   0  0  0  0  0  0  0  0  0  0  0  0
  183.1250  179.4570  139.4510 C   0  0  2  0  0  3  0  0  0  0  0  0
  182.7840  178.6750  140.4750 C   0  0  1  0  0  3  0  0  0  0  0  0
  180.3860  178.5980  140.5360 O   0  0  0  0  0  0  0  0  0  0  0  0
  184.0340  178.2880  141.2090 C   0  0  2  0  0  3  0  0  0  0  0  0
  184.5270  179.6960  139.4460 N   0  0  0  0  0  0  0  0  0  0  0  0
  183.8840  178.7000  142.6430 C   0  0  0  0  0  0  0  0  0  0  0  0
  184.5860  178.9810  146.0540 N   0  0  0  0  0  2  0  0  0  0  0  0
  181.5610  179.4660  137.4410 N   0  0  0  0  0  0  0  0  0  0  0  0
  181.9270  181.3690  138.7380 O   0  0  0  0  0  0  0  0  0  0  0  0
  182.0450  178.1840  136.9570 C   0  0  0  0  0  1  0  0  0  0  0  0
  180.4850  180.1040  136.7010 C   0  0  0  0  0  1  0  0  0  0  0  0
  182.1990  180.1550  138.5310 C   0  0  0  0  0  0  0  0  0  0  0  0
  186.1840  178.4760  143.4360 N   0  0  0  0  0  2  0  0  0  0  0  0
  186.9290  177.5450  144.2640 C   0  0  0  0  0  2  0  0  0  0  0  0
  188.8700  176.3890  143.6260 C   0  0  1  0  0  3  0  0  0  0  0  0
  191.7740  175.5620  143.8290 F   0  0  0  0  0  0  0  0  0  0  0  0
  190.0030  176.5990  142.6120 C   0  0  0  0  0  2  0  0  0  0  0  0
  191.3280  177.8680  144.2520 C   0  0  0  0  0  2  0  0  0  0  0  0
  192.2870  177.0800  142.2440 F   0  0  0  0  0  0  0  0  0  0  0  0
  191.3810  176.7490  143.2330 C   0  0  0  0  0  0  0  0  0  0  0  0
  189.0460  176.8810  145.0140 C   0  0  1  0  0  3  0  0  0  0  0  0
  190.4040  177.4940  145.4060 C   0  0  0  0  0  2  0  0  0  0  0  0
  188.3500  177.7130  144.0220 N   0  0  0  0  0  0  0  0  0  0  0  0
  1  2  2  0  0  0  0
  2  7  1  0  0  0  0
  3  5  1  0  0  0  0
  5 14  2  0  0  0  0
  6  1  1  0  0  0  0
  7  5  1  0  0  0  0
  8 19  1  1  0  0  0
  8  9  1  0  0  0  0
  9  6  1  1  0  0  0
  9 11  1  0  0  0  0
 10  6  2  0  0  0  0
 11  4  1  6  0  0  0
 11 13  1  0  0  0  0
 12  8  1  0  0  0  0
 12  4  2  0  0  0  0
 13  2  1  0  0  0  0
 13  3  2  0  0  0  0
 15 19  1  0  0  0  0
 17 15  1  0  0  0  0
 18 15  1  0  0  0  0
 19 16  2  0  0  0  0
 20  3  1  0  0  0  0
 20 21  1  0  0  0  0
 22 24  1  6  0  0  0
 22 30  1  0  0  0  0
 22 28  1  0  0  0  0
 24 27  1  0  0  0  0
 25 29  1  0  0  0  0
 26 27  1  0  0  0  0
 27 23  1  0  0  0  0
 27 25  1  0  0  0  0
 28 29  1  6  0  0  0
 30 21  1  0  0  0  0
 30 28  1  0  0  0  0
M  END
>  <MODEL>
2

>  <REMARK>
 VINA RESULT:      -9.0      1.085      1.530
  Name = 
  4 active torsions:
  status: ('A' for Active; 'I' for Inactive)
    1  A    between atoms: C_8  and  N_29
    2  A    between atoms: C_18  and  C_25
    3  A    between atoms: C_20  and  N_28
    4  A    between atoms: C_20  and  N_29
                            x       y       z     vdW  Elec       q    Type
                         _______ _______ _______ _____ _____    ______ ____

>  <TORSDO>
F 4

$$$$
=
 OpenBabel11062413293D

 30 34  0  0  1  0  0  0  0  0999 V2000
  181.2250  178.4520  142.2560 N   0  0  0  0  0  0  0  0  0  0  0  0
  182.2430  178.6070  143.0510 C   0  0  0  0  0  0  0  0  0  0  0  0
  184.3970  178.7480  143.6700 C   0  0  0  0  0  0  0  0  0  0  0  0
  185.0150  179.1560  140.5610 C   0  0  0  0  0  3  0  0  0  0  0  0
  183.5010  178.8330  144.8330 C   0  0  0  0  0  0  0  0  0  0  0  0
  181.4340  178.3630  140.8350 C   0  0  0  0  0  0  0  0  0  0  0  0
  182.1720  178.7390  144.4290 O   0  0  0  0  0  0  0  0  0  0  0  0
  183.1970  179.3420  139.3300 C   0  0  2  0  0  3  0  0  0  0  0  0
  182.8160  178.5180  140.3050 C   0  0  1  0  0  3  0  0  0  0  0  0
  180.4520  178.1860  140.0680 O   0  0  0  0  0  0  0  0  0  0  0  0
  183.9990  178.2600  141.1910 C   0  0  2  0  0  3  0  0  0  0  0  0
  184.5550  179.7290  139.4980 N   0  0  0  0  0  0  0  0  0  0  0  0
  183.6290  178.6390  142.5930 C   0  0  0  0  0  0  0  0  0  0  0  0
  183.8680  178.9610  146.0650 N   0  0  0  0  0  2  0  0  0  0  0  0
  181.8100  179.1720  137.2000 N   0  0  0  0  0  0  0  0  0  0  0  0
  181.9830  181.1550  138.4130 O   0  0  0  0  0  0  0  0  0  0  0  0
  182.3860  177.8890  136.8310 C   0  0  0  0  0  1  0  0  0  0  0  0
  180.7730  179.7180  136.3400 C   0  0  0  0  0  1  0  0  0  0  0  0
  182.3230  179.9460  138.2990 C   0  0  0  0  0  0  0  0  0  0  0  0
  185.8240  178.6540  143.6690 N   0  0  0  0  0  2  0  0  0  0  0  0
  186.5280  177.3850  143.6260 C   0  0  0  0  0  2  0  0  0  0  0  0
  187.1440  178.3840  145.6590 C   0  0  1  0  0  3  0  0  0  0  0  0
  188.9630  178.9410  148.0130 F   0  0  0  0  0  0  0  0  0  0  0  0
  186.9000  178.1080  147.1490 C   0  0  0  0  0  2  0  0  0  0  0  0
  188.8940  176.6700  147.2790 C   0  0  0  0  0  2  0  0  0  0  0  0
  187.8040  177.4380  149.2270 F   0  0  0  0  0  0  0  0  0  0  0  0
  188.1590  177.8140  147.9470 C   0  0  0  0  0  0  0  0  0  0  0  0
  188.3600  177.8310  145.0140 C   0  0  1  0  0  3  0  0  0  0  0  0
  189.3820  177.0860  145.8950 C   0  0  0  0  0  2  0  0  0  0  0  0
  187.0880  177.1000  144.9340 N   0  0  0  0  0  0  0  0  0  0  0  0
  1  2  2  0  0  0  0
  2  7  1  0  0  0  0
  3  5  1  0  0  0  0
  5 14  2  0  0  0  0
  6  1  1  0  0  0  0
  7  5  1  0  0  0  0
  8 19  1  1  0  0  0
  8 12  1  0  0  0  0
  8  9  1  0  0  0  0
  9  6  1  1  0  0  0
  9 11  1  0  0  0  0
 10  6  2  0  0  0  0
 11  4  1  6  0  0  0
 11 13  1  0  0  0  0
 12  4  2  0  0  0  0
 13  2  1  0  0  0  0
 13  3  2  0  0  0  0
 15 19  1  0  0  0  0
 17 15  1  0  0  0  0
 18 15  1  0  0  0  0
 19 16  2  0  0  0  0
 20  3  1  0  0  0  0
 21 20  1  0  0  0  0
 21 30  1  0  0  0  0
 22 24  1  1  0  0  0
 24 27  1  0  0  0  0
 25 27  1  0  0  0  0
 27 23  1  0  0  0  0
 27 26  1  0  0  0  0
 28 22  1  0  0  0  0
 28 29  1  1  0  0  0
 29 25  1  0  0  0  0
 30 28  1  0  0  0  0
 30 22  1  0  0  0  0
M  END
>  <MODEL>
3

>  <REMARK>
 VINA RESULT:      -8.8      1.796      2.150
  Name = 
  4 active torsions:
  status: ('A' for Active; 'I' for Inactive)
    1  A    between atoms: C_8  and  N_29
    2  A    between atoms: C_18  and  C_25
    3  A    between atoms: C_20  and  N_28
    4  A    between atoms: C_20  and  N_29
                            x       y       z     vdW  Elec       q    Type
                         _______ _______ _______ _____ _____    ______ ____

>  <TORSDO>
F 4

$$$$
=
 OpenBabel11062413293D

 30 34  0  0  1  0  0  0  0  0999 V2000
  186.6280  178.6060  138.7250 N   0  0  0  0  0  0  0  0  0  0  0  0
  187.6860  178.2400  139.3870 C   0  0  0  0  0  0  0  0  0  0  0  0
  189.0020  177.8740  141.1690 C   0  0  0  0  0  0  0  0  0  0  0  0
  186.3220  178.1070  142.8960 C   0  0  0  0  0  3  0  0  0  0  0  0
  189.7120  177.5840  139.9140 C   0  0  0  0  0  0  0  0  0  0  0  0
  185.4350  178.9850  139.4360 C   0  0  0  0  0  0  0  0  0  0  0  0
  188.8810  177.8220  138.8220 O   0  0  0  0  0  0  0  0  0  0  0  0
  184.5040  178.2690  141.6610 C   0  0  2  0  0  3  0  0  0  0  0  0
  185.4260  178.8840  140.9210 C   0  0  1  0  0  3  0  0  0  0  0  0
  184.4200  179.3650  138.7960 O   0  0  0  0  0  0  0  0  0  0  0  0
  186.7150  178.8940  141.6880 C   0  0  2  0  0  3  0  0  0  0  0  0
  185.0690  177.7940  142.8770 N   0  0  0  0  0  0  0  0  0  0  0  0
  187.7700  178.2430  140.8450 C   0  0  0  0  0  0  0  0  0  0  0  0
  190.9340  177.1820  139.8090 N   0  0  0  0  0  2  0  0  0  0  0  0
  181.9830  178.5840  141.8440 N   0  0  0  0  0  0  0  0  0  0  0  0
  182.9420  177.1040  140.3170 O   0  0  0  0  0  0  0  0  0  0  0  0
  182.0830  179.3060  143.1010 C   0  0  0  0  0  1  0  0  0  0  0  0
  180.6600  178.4180  141.2640 C   0  0  0  0  0  1  0  0  0  0  0  0
  183.1220  177.9380  141.2470 C   0  0  0  0  0  0  0  0  0  0  0  0
  189.5410  177.9010  142.4930 N   0  0  0  0  0  2  0  0  0  0  0  0
  190.3800  176.8410  143.0220 C   0  0  0  0  0  2  0  0  0  0  0  0
  189.4880  177.8720  144.9320 C   0  0  1  0  0  3  0  0  0  0  0  0
  189.3860  178.6220  147.8610 F   0  0  0  0  0  0  0  0  0  0  0  0
  188.4130  177.5350  145.9740 C   0  0  0  0  0  2  0  0  0  0  0  0
  190.0570  176.3800  147.3950 C   0  0  0  0  0  2  0  0  0  0  0  0
  187.9160  176.9510  148.2100 F   0  0  0  0  0  0  0  0  0  0  0  0
  188.9360  177.3990  147.3940 C   0  0  0  0  0  0  0  0  0  0  0  0
  190.8980  177.5030  145.2070 C   0  0  1  0  0  3  0  0  0  0  0  0
  191.2400  176.8870  146.5770 C   0  0  0  0  0  2  0  0  0  0  0  0
  190.0450  176.6070  144.4140 N   0  0  0  0  0  0  0  0  0  0  0  0
  1  2  2  0  0  0  0
  1  6  1  0  0  0  0
  2 13  1  0  0  0  0
  3 20  1  0  0  0  0
  5  3  1  0  0  0  0
  7  2  1  0  0  0  0
  7  5  1  0  0  0  0
  8 19  1  6  0  0  0
  8 12  1  0  0  0  0
  9  6  1  6  0  0  0
  9  8  1  0  0  0  0
  9 11  1  0  0  0  0
 10  6  2  0  0  0  0
 11  4  1  1  0  0  0
 12  4  2  0  0  0  0
 13  3  2  0  0  0  0
 13 11  1  0  0  0  0
 14  5  2  0  0  0  0
 15 17  1  0  0  0  0
 16 19  2  0  0  0  0
 18 15  1  0  0  0  0
 19 15  1  0  0  0  0
 20 21  1  0  0  0  0
 21 30  1  0  0  0  0
 22 28  1  0  0  0  0
 22 24  1  1  0  0  0
 24 27  1  0  0  0  0
 27 25  1  0  0  0  0
 27 23  1  0  0  0  0
 27 26  1  0  0  0  0
 28 29  1  1  0  0  0
 29 25  1  0  0  0  0
 30 22  1  0  0  0  0
 30 28  1  0  0  0  0
M  END
>  <MODEL>
4

>  <REMARK>
 VINA RESULT:      -8.7      2.520      4.479
  Name = 
  4 active torsions:
  status: ('A' for Active; 'I' for Inactive)
    1  A    between atoms: C_8  and  N_29
    2  A    between atoms: C_18  and  C_25
    3  A    between atoms: C_20  and  N_28
    4  A    between atoms: C_20  and  N_29
                            x       y       z     vdW  Elec       q    Type
                         _______ _______ _______ _____ _____    ______ ____

>  <TORSDO>
F 4

$$$$
=
 OpenBabel11062413293D

 30 34  0  0  1  0  0  0  0  0999 V2000
  186.4640  178.2530  138.5030 N   0  0  0  0  0  0  0  0  0  0  0  0
  187.4760  178.1260  139.3100 C   0  0  0  0  0  0  0  0  0  0  0  0
  188.6280  178.2340  141.2350 C   0  0  0  0  0  0  0  0  0  0  0  0
  185.7750  178.5080  142.6500 C   0  0  0  0  0  3  0  0  0  0  0  0
  189.4850  177.7910  140.1250 C   0  0  0  0  0  0  0  0  0  0  0  0
  185.1770  178.6330  139.0230 C   0  0  0  0  0  0  0  0  0  0  0  0
  188.7540  177.7350  138.9410 O   0  0  0  0  0  0  0  0  0  0  0  0
  184.0860  178.2500  141.2570 C   0  0  2  0  0  3  0  0  0  0  0  0
  185.0230  178.8080  140.4930 C   0  0  1  0  0  3  0  0  0  0  0  0
  184.2040  178.7810  138.2380 O   0  0  0  0  0  0  0  0  0  0  0  0
  186.2210  179.0930  141.3500 C   0  0  2  0  0  3  0  0  0  0  0  0
  184.5610  178.0690  142.5860 N   0  0  0  0  0  0  0  0  0  0  0  0
  187.4090  178.4080  140.7420 C   0  0  0  0  0  0  0  0  0  0  0  0
  190.7410  177.5030  140.2040 N   0  0  0  0  0  2  0  0  0  0  0  0
  181.5460  178.3670  141.1110 N   0  0  0  0  0  0  0  0  0  0  0  0
  182.7720  176.6700  140.0830 O   0  0  0  0  0  0  0  0  0  0  0  0
  181.4500  179.3640  142.1640 C   0  0  0  0  0  1  0  0  0  0  0  0
  180.3140  177.9530  140.4590 C   0  0  0  0  0  1  0  0  0  0  0  0
  182.7860  177.7080  140.8010 C   0  0  0  0  0  0  0  0  0  0  0  0
  189.0240  178.5610  142.5690 N   0  0  0  0  0  2  0  0  0  0  0  0
  189.4280  177.5580  143.5380 C   0  0  0  0  0  2  0  0  0  0  0  0
  189.2850  176.8310  145.7640 C   0  0  1  0  0  3  0  0  0  0  0  0
  187.9310  176.3820  148.4330 F   0  0  0  0  0  0  0  0  0  0  0  0
  189.6620  177.3950  147.1420 C   0  0  0  0  0  2  0  0  0  0  0  0
  187.4620  178.4710  147.3780 C   0  0  0  0  0  2  0  0  0  0  0  0
  188.9230  178.2460  149.2190 F   0  0  0  0  0  0  0  0  0  0  0  0
  188.4840  177.6010  148.0790 C   0  0  0  0  0  0  0  0  0  0  0  0
  187.9120  177.0490  145.2490 C   0  0  1  0  0  3  0  0  0  0  0  0
  186.8880  177.7480  146.1640 C   0  0  0  0  0  2  0  0  0  0  0  0
  188.9960  177.9630  144.8620 N   0  0  0  0  0  0  0  0  0  0  0  0
  1  6  1  0  0  0  0
  1  2  2  0  0  0  0
  2 13  1  0  0  0  0
  3 20  1  0  0  0  0
  5 14  2  0  0  0  0
  5  3  1  0  0  0  0
  7  2  1  0  0  0  0
  7  5  1  0  0  0  0
  8 19  1  6  0  0  0
  8 12  1  0  0  0  0
  9  6  1  6  0  0  0
  9  8  1  0  0  0  0
  9 11  1  0  0  0  0
 10  6  2  0  0  0  0
 11  4  1  1  0  0  0
 12  4  2  0  0  0  0
 13  3  2  0  0  0  0
 13 11  1  0  0  0  0
 15 17  1  0  0  0  0
 16 19  2  0  0  0  0
 18 15  1  0  0  0  0
 19 15  1  0  0  0  0
 20 21  1  0  0  0  0
 21 30  1  0  0  0  0
 22 24  1  1  0  0  0
 24 27  1  0  0  0  0
 25 27  1  0  0  0  0
 27 23  1  0  0  0  0
 27 26  1  0  0  0  0
 28 22  1  0  0  0  0
 28 29  1  1  0  0  0
 29 25  1  0  0  0  0
 30 28  1  0  0  0  0
 30 22  1  0  0  0  0
M  END
>  <MODEL>
5

>  <REMARK>
 VINA RESULT:      -8.6      2.728      4.491
  Name = 
  4 active torsions:
  status: ('A' for Active; 'I' for Inactive)
    1  A    between atoms: C_8  and  N_29
    2  A    between atoms: C_18  and  C_25
    3  A    between atoms: C_20  and  N_28
    4  A    between atoms: C_20  and  N_29
                            x       y       z     vdW  Elec       q    Type
                         _______ _______ _______ _____ _____    ______ ____

>  <TORSDO>
F 4

$$$$
=
 OpenBabel11062413293D

 30 34  0  0  1  0  0  0  0  0999 V2000
  190.5070  176.7550  138.6210 N   0  0  0  0  0  0  0  0  0  0  0  0
  190.2250  176.7360  139.8910 C   0  0  0  0  0  0  0  0  0  0  0  0
  189.1680  177.2810  141.7960 C   0  0  0  0  0  0  0  0  0  0  0  0
  186.8850  178.4790  139.9070 C   0  0  0  0  0  3  0  0  0  0  0  0
  190.2860  176.3590  142.0510 C   0  0  0  0  0  0  0  0  0  0  0  0
  189.6700  177.4950  137.7130 C   0  0  0  0  0  0  0  0  0  0  0  0
  190.9300  176.0380  140.8590 O   0  0  0  0  0  0  0  0  0  0  0  0
  187.2190  178.0610  137.7680 C   0  0  2  0  0  3  0  0  0  0  0  0
  188.4560  178.1700  138.2500 C   0  0  1  0  0  3  0  0  0  0  0  0
  189.9580  177.5350  136.4890 O   0  0  0  0  0  0  0  0  0  0  0  0
  188.3660  178.5180  139.7060 C   0  0  2  0  0  3  0  0  0  0  0  0
  186.2580  178.2530  138.8000 N   0  0  0  0  0  0  0  0  0  0  0  0
  189.1200  177.4830  140.4860 C   0  0  0  0  0  0  0  0  0  0  0  0
  190.6490  175.9080  143.2050 N   0  0  0  0  0  2  0  0  0  0  0  0
  186.4600  176.2620  136.1330 N   0  0  0  0  0  0  0  0  0  0  0  0
  186.8050  178.4720  135.4740 O   0  0  0  0  0  0  0  0  0  0  0  0
  186.7640  175.1810  137.0550 C   0  0  0  0  0  1  0  0  0  0  0  0
  185.8700  175.9100  134.8510 C   0  0  0  0  0  1  0  0  0  0  0  0
  186.8400  177.6230  136.4060 C   0  0  0  0  0  0  0  0  0  0  0  0
  188.3580  177.9600  142.7580 N   0  0  0  0  0  2  0  0  0  0  0  0
  187.2620  177.3150  143.4570 C   0  0  0  0  0  2  0  0  0  0  0  0
  187.2880  178.2530  145.6080 C   0  0  1  0  0  3  0  0  0  0  0  0
  188.5160  179.0010  148.2710 F   0  0  0  0  0  0  0  0  0  0  0  0
  186.8740  177.8070  147.0180 C   0  0  0  0  0  2  0  0  0  0  0  0
  189.0980  176.8410  147.4390 C   0  0  0  0  0  2  0  0  0  0  0  0
  187.5560  177.1840  149.1930 F   0  0  0  0  0  0  0  0  0  0  0  0
  188.0180  177.7350  148.0140 C   0  0  0  0  0  0  0  0  0  0  0  0
  188.6870  178.0390  145.1680 C   0  0  1  0  0  3  0  0  0  0  0  0
  189.6960  177.4690  146.1840 C   0  0  0  0  0  2  0  0  0  0  0  0
  187.6510  177.0530  144.8300 N   0  0  0  0  0  0  0  0  0  0  0  0
  1  2  2  0  0  0  0
  2 13  1  0  0  0  0
  2  7  1  0  0  0  0
  3  5  1  0  0  0  0
  3 20  1  0  0  0  0
  5 14  2  0  0  0  0
  6  1  1  0  0  0  0
  7  5  1  0  0  0  0
  8 19  1  1  0  0  0
  8  9  1  0  0  0  0
  8 12  1  0  0  0  0
  9  6  1  1  0  0  0
  9 11  1  0  0  0  0
 10  6  2  0  0  0  0
 11  4  1  1  0  0  0
 11 13  1  0  0  0  0
 12  4  2  0  0  0  0
 13  3  2  0  0  0  0
 15 19  1  0  0  0  0
 15 17  1  0  0  0  0
 16 19  2  0  0  0  0
 18 15  1  0  0  0  0
 20 21  1  0  0  0  0
 21 30  1  0  0  0  0
 22 24  1  1  0  0  0
 24 27  1  0  0  0  0
 25 27  1  0  0  0  0
 27 23  1  0  0  0  0
 27 26  1  0  0  0  0
 28 22  1  0  0  0  0
 28 29  1  1  0  0  0
 29 25  1  0  0  0  0
 30 28  1  0  0  0  0
 30 22  1  0  0  0  0
M  END
>  <MODEL>
6

>  <REMARK>
 VINA RESULT:      -8.5      4.130      5.658
  Name = 
  4 active torsions:
  status: ('A' for Active; 'I' for Inactive)
    1  A    between atoms: C_8  and  N_29
    2  A    between atoms: C_18  and  C_25
    3  A    between atoms: C_20  and  N_28
    4  A    between atoms: C_20  and  N_29
                            x       y       z     vdW  Elec       q    Type
                         _______ _______ _______ _____ _____    ______ ____

>  <TORSDO>
F 4

$$$$
=
 OpenBabel11062413293D

 30 34  0  0  1  0  0  0  0  0999 V2000
  186.1560  177.8200  144.2100 N   0  0  0  0  0  0  0  0  0  0  0  0
  185.4690  178.1060  143.1440 C   0  0  0  0  0  0  0  0  0  0  0  0
  185.0820  178.7770  141.0360 C   0  0  0  0  0  0  0  0  0  0  0  0
  188.2050  178.2890  140.5610 C   0  0  0  0  0  3  0  0  0  0  0  0
  183.8240  178.5100  141.7500 C   0  0  0  0  0  0  0  0  0  0  0  0
  187.5950  177.8290  144.1590 C   0  0  0  0  0  0  0  0  0  0  0  0
  184.0860  178.1000  143.0540 O   0  0  0  0  0  0  0  0  0  0  0  0
  189.2130  177.3650  142.2890 C   0  0  2  0  0  3  0  0  0  0  0  0
  188.2610  178.1040  142.8560 C   0  0  1  0  0  3  0  0  0  0  0  0
  188.2600  177.5780  145.1980 O   0  0  0  0  0  0  0  0  0  0  0  0
  187.5300  178.8420  141.7740 C   0  0  2  0  0  3  0  0  0  0  0  0
  189.1690  177.4870  140.8720 N   0  0  0  0  0  0  0  0  0  0  0  0
  186.0730  178.5050  141.8750 C   0  0  0  0  0  0  0  0  0  0  0  0
  182.6350  178.6430  141.2660 N   0  0  0  0  0  2  0  0  0  0  0  0
  191.1590  176.8290  143.8430 N   0  0  0  0  0  0  0  0  0  0  0  0
  189.8860  175.1600  142.8260 O   0  0  0  0  0  0  0  0  0  0  0  0
  191.6570  178.1950  143.8230 C   0  0  0  0  0  1  0  0  0  0  0  0
  191.8580  175.8680  144.6810 C   0  0  0  0  0  1  0  0  0  0  0  0
  190.0980  176.3950  142.9730 C   0  0  0  0  0  0  0  0  0  0  0  0
  185.2460  179.3540  139.7380 N   0  0  0  0  0  2  0  0  0  0  0  0
  185.0670  178.5960  138.5130 C   0  0  0  0  0  2  0  0  0  0  0  0
  186.7580  178.3900  136.8990 C   0  0  1  0  0  3  0  0  0  0  0  0
  188.6350  176.8970  135.0540 F   0  0  0  0  0  0  0  0  0  0  0  0
  188.2930  178.3740  136.8960 C   0  0  0  0  0  2  0  0  0  0  0  0
  188.3360  175.9340  137.2180 C   0  0  0  0  0  2  0  0  0  0  0  0
  190.2740  177.1240  136.5840 F   0  0  0  0  0  0  0  0  0  0  0  0
  188.9060  177.0750  136.4010 C   0  0  0  0  0  0  0  0  0  0  0  0
  186.0250  177.1030  136.9850 C   0  0  1  0  0  3  0  0  0  0  0  0
  186.8380  175.7950  136.9650 C   0  0  0  0  0  2  0  0  0  0  0  0
  186.2900  177.8810  138.2030 N   0  0  0  0  0  0  0  0  0  0  0  0
  2  1  2  0  0  0  0
  3  5  1  0  0  0  0
  3 13  2  0  0  0  0
  4 12  2  0  0  0  0
  5  7  1  0  0  0  0
  6  1  1  0  0  0  0
  6 10  2  0  0  0  0
  7  2  1  0  0  0  0
  8  9  1  0  0  0  0
  8 19  1  6  0  0  0
  9  6  1  6  0  0  0
 11  4  1  6  0  0  0
 11 13  1  0  0  0  0
 11  9  1  0  0  0  0
 12  8  1  0  0  0  0
 13  2  1  0  0  0  0
 14  5  2  0  0  0  0
 15 18  1  0  0  0  0
 16 19  2  0  0  0  0
 17 15  1  0  0  0  0
 19 15  1  0  0  0  0
 20  3  1  0  0  0  0
 21 20  1  0  0  0  0
 22 24  1  1  0  0  0
 22 28  1  0  0  0  0
 22 30  1  0  0  0  0
 23 27  1  0  0  0  0
 27 26  1  0  0  0  0
 27 24  1  0  0  0  0
 27 25  1  0  0  0  0
 28 29  1  1  0  0  0
 28 30  1  0  0  0  0
 29 25  1  0  0  0  0
 30 21  1  0  0  0  0
M  END
>  <MODEL>
7

>  <REMARK>
 VINA RESULT:      -8.1      3.981      7.336
  Name = 
  4 active torsions:
  status: ('A' for Active; 'I' for Inactive)
    1  A    between atoms: C_8  and  N_29
    2  A    between atoms: C_18  and  C_25
    3  A    between atoms: C_20  and  N_28
    4  A    between atoms: C_20  and  N_29
                            x       y       z     vdW  Elec       q    Type
                         _______ _______ _______ _____ _____    ______ ____

>  <TORSDO>
F 4

$$$$
=
 OpenBabel11062413293D

 30 34  0  0  1  0  0  0  0  0999 V2000
  190.4210  175.7410  135.7170 N   0  0  0  0  0  0  0  0  0  0  0  0
  189.8300  176.6450  136.4410 C   0  0  0  0  0  0  0  0  0  0  0  0
  189.3940  177.9060  138.2480 C   0  0  0  0  0  0  0  0  0  0  0  0
  192.2760  176.9920  139.2860 C   0  0  0  0  0  3  0  0  0  0  0  0
  188.4310  178.1710  137.1680 C   0  0  0  0  0  0  0  0  0  0  0  0
  191.5950  175.0780  136.2190 C   0  0  0  0  0  0  0  0  0  0  0  0
  188.7150  177.3770  136.0610 O   0  0  0  0  0  0  0  0  0  0  0  0
  193.4080  175.8290  137.7940 C   0  0  2  0  0  3  0  0  0  0  0  0
  192.1440  175.4960  137.5380 C   0  0  1  0  0  3  0  0  0  0  0  0
  192.1520  174.1840  135.5290 O   0  0  0  0  0  0  0  0  0  0  0  0
  191.2640  176.1850  138.5390 C   0  0  2  0  0  3  0  0  0  0  0  0
  193.4770  176.7530  138.8740 N   0  0  0  0  0  0  0  0  0  0  0  0
  190.2530  177.0030  137.7930 C   0  0  0  0  0  0  0  0  0  0  0  0
  187.4450  179.0030  137.2180 N   0  0  0  0  0  2  0  0  0  0  0  0
  195.2620  174.2030  137.1570 N   0  0  0  0  0  0  0  0  0  0  0  0
  194.9980  176.2620  136.0950 O   0  0  0  0  0  0  0  0  0  0  0  0
  195.0600  173.3830  138.3400 C   0  0  0  0  0  1  0  0  0  0  0  0
  196.2690  173.7720  136.2010 C   0  0  0  0  0  1  0  0  0  0  0  0
  194.5940  175.4660  136.9860 C   0  0  0  0  0  0  0  0  0  0  0  0
  189.3610  178.3980  139.5900 N   0  0  0  0  0  2  0  0  0  0  0  0
  188.4540  177.8770  140.5960 C   0  0  0  0  0  2  0  0  0  0  0  0
  190.0710  177.0050  142.0550 C   0  0  1  0  0  3  0  0  0  0  0  0
  191.1350  176.0030  144.7050 F   0  0  0  0  0  0  0  0  0  0  0  0
  191.2170  177.5690  142.9080 C   0  0  0  0  0  2  0  0  0  0  0  0
  189.7100  177.9140  144.8230 C   0  0  0  0  0  2  0  0  0  0  0  0
  192.0550  178.0270  145.0690 F   0  0  0  0  0  0  0  0  0  0  0  0
  191.0520  177.3520  144.4020 C   0  0  0  0  0  0  0  0  0  0  0  0
  188.7340  176.8300  142.6710 C   0  0  1  0  0  3  0  0  0  0  0  0
  188.5760  177.1280  144.1750 C   0  0  0  0  0  2  0  0  0  0  0  0
  189.0400  178.0500  141.9120 N   0  0  0  0  0  0  0  0  0  0  0  0
  1  6  1  0  0  0  0
  1  2  2  0  0  0  0
  2 13  1  0  0  0  0
  3 20  1  0  0  0  0
  5 14  2  0  0  0  0
  5  3  1  0  0  0  0
  7  2  1  0  0  0  0
  7  5  1  0  0  0  0
  8 19  1  6  0  0  0
  8 12  1  0  0  0  0
  9  6  1  6  0  0  0
  9  8  1  0  0  0  0
  9 11  1  0  0  0  0
 10  6  2  0  0  0  0
 11  4  1  1  0  0  0
 12  4  2  0  0  0  0
 13  3  2  0  0  0  0
 13 11  1  0  0  0  0
 15 17  1  0  0  0  0
 16 19  2  0  0  0  0
 18 15  1  0  0  0  0
 19 15  1  0  0  0  0
 20 21  1  0  0  0  0
 21 30  1  0  0  0  0
 22 28  1  0  0  0  0
 22 24  1  1  0  0  0
 24 27  1  0  0  0  0
 27 23  1  0  0  0  0
 27 25  1  0  0  0  0
 27 26  1  0  0  0  0
 28 29  1  1  0  0  0
 29 25  1  0  0  0  0
 30 22  1  0  0  0  0
 30 28  1  0  0  0  0
M  END
>  <MODEL>
8

>  <REMARK>
 VINA RESULT:      -8.1      6.066      9.016
  Name = 
  4 active torsions:
  status: ('A' for Active; 'I' for Inactive)
    1  A    between atoms: C_8  and  N_29
    2  A    between atoms: C_18  and  C_25
    3  A    between atoms: C_20  and  N_28
    4  A    between atoms: C_20  and  N_29
                            x       y       z     vdW  Elec       q    Type
                         _______ _______ _______ _____ _____    ______ ____

>  <TORSDO>
F 4

$$$$
=
 OpenBabel11062413293D

 30 34  0  0  1  0  0  0  0  0999 V2000
  192.3080  177.0600  142.6760 N   0  0  0  0  0  0  0  0  0  0  0  0
  191.5050  177.0550  143.6990 C   0  0  0  0  0  0  0  0  0  0  0  0
  189.6290  177.4370  144.8730 C   0  0  0  0  0  0  0  0  0  0  0  0
  188.2280  177.8790  142.0340 C   0  0  0  0  0  3  0  0  0  0  0  0
  190.6790  176.8520  145.7210 C   0  0  0  0  0  0  0  0  0  0  0  0
  191.8290  177.4980  141.3910 C   0  0  0  0  0  0  0  0  0  0  0  0
  191.8330  176.6280  144.9760 O   0  0  0  0  0  0  0  0  0  0  0  0
  189.5490  177.4180  140.3310 C   0  0  2  0  0  3  0  0  0  0  0  0
  190.3950  177.8730  141.2540 C   0  0  1  0  0  3  0  0  0  0  0  0
  192.6140  177.5280  140.4080 O   0  0  0  0  0  0  0  0  0  0  0  0
  189.6020  178.2830  142.4590 C   0  0  2  0  0  3  0  0  0  0  0  0
  188.2140  177.4260  140.8240 N   0  0  0  0  0  0  0  0  0  0  0  0
  190.1250  177.5310  143.6460 C   0  0  0  0  0  0  0  0  0  0  0  0
  190.5770  176.5890  146.9800 N   0  0  0  0  0  2  0  0  0  0  0  0
  189.8120  177.5450  137.8010 N   0  0  0  0  0  0  0  0  0  0  0  0
  190.3560  175.6280  139.0110 O   0  0  0  0  0  0  0  0  0  0  0  0
  189.0340  178.7690  137.7010 C   0  0  0  0  0  1  0  0  0  0  0  0
  190.3890  177.0100  136.5790 C   0  0  0  0  0  1  0  0  0  0  0  0
  189.9090  176.8070  139.0320 C   0  0  0  0  0  0  0  0  0  0  0  0
  188.3580  177.9490  145.2810 N   0  0  0  0  0  2  0  0  0  0  0  0
  187.3760  177.1430  145.9850 C   0  0  0  0  0  2  0  0  0  0  0  0
  186.2010  178.6050  144.5740 C   0  0  1  0  0  3  0  0  0  0  0  0
  183.9680  180.5040  143.8210 F   0  0  0  0  0  0  0  0  0  0  0  0
  185.1590  178.4690  143.4550 C   0  0  0  0  0  2  0  0  0  0  0  0
  183.3080  178.5830  145.0740 C   0  0  0  0  0  2  0  0  0  0  0  0
  182.9280  178.8130  142.7560 F   0  0  0  0  0  0  0  0  0  0  0  0
  183.8240  179.1280  143.7580 C   0  0  0  0  0  0  0  0  0  0  0  0
  185.7390  178.8170  145.9670 C   0  0  1  0  0  3  0  0  0  0  0  0
  184.2290  178.9930  146.2190 C   0  0  0  0  0  2  0  0  0  0  0  0
  186.0480  177.4610  145.4930 N   0  0  0  0  0  0  0  0  0  0  0  0
  1  2  2  0  0  0  0
  2  7  1  0  0  0  0
  3 20  1  0  0  0  0
  3  5  1  0  0  0  0
  5 14  2  0  0  0  0
  6  1  1  0  0  0  0
  7  5  1  0  0  0  0
  8 19  1  1  0  0  0
  8 12  1  0  0  0  0
  8  9  1  0  0  0  0
  9  6  1  1  0  0  0
  9 11  1  0  0  0  0
 10  6  2  0  0  0  0
 11  4  1  6  0  0  0
 11 13  1  0  0  0  0
 12  4  2  0  0  0  0
 13  2  1  0  0  0  0
 13  3  2  0  0  0  0
 15 19  1  0  0  0  0
 16 19  2  0  0  0  0
 17 15  1  0  0  0  0
 18 15  1  0  0  0  0
 20 21  1  0  0  0  0
 22 24  1  6  0  0  0
 22 30  1  0  0  0  0
 22 28  1  0  0  0  0
 24 27  1  0  0  0  0
 25 29  1  0  0  0  0
 26 27  1  0  0  0  0
 27 23  1  0  0  0  0
 27 25  1  0  0  0  0
 28 29  1  6  0  0  0
 30 28  1  0  0  0  0
 30 21  1  0  0  0  0
M  END
>  <MODEL>
9

>  <REMARK>
 VINA RESULT:      -8.0      4.819      7.207
  Name = 
  4 active torsions:
  status: ('A' for Active; 'I' for Inactive)
    1  A    between atoms: C_8  and  N_29
    2  A    between atoms: C_18  and  C_25
    3  A    between atoms: C_20  and  N_28
    4  A    between atoms: C_20  and  N_29
                            x       y       z     vdW  Elec       q    Type
                         _______ _______ _______ _____ _____    ______ ____

>  <TORSDO>
F 4

$$$$
