=
 OpenBabel11062414343D

 31 33  0  0  1  0  0  0  0  0999 V2000
  186.0870  178.5750  145.5660 C   0  0  1  0  0  3  0  0  0  0  0  0
  190.1780  176.9230  144.2610 N   0  0  0  0  0  2  0  0  0  0  0  0
  187.8160  177.1650  144.5520 N   0  0  0  0  0  0  0  0  0  0  0  0
  189.0050  176.8960  146.5350 C   0  0  1  0  0  3  0  0  0  0  0  0
  187.5290  177.0000  146.9040 C   0  0  0  0  0  2  0  0  0  0  0  0
  186.7890  177.2120  145.5780 C   0  0  1  0  0  3  0  0  0  0  0  0
  188.9880  177.0100  145.0580 C   0  0  0  0  0  0  0  0  0  0  0  0
  191.6680  177.4570  140.8860 C   0  0  0  0  0  0  0  0  0  0  0  0
  189.1380  177.1110  142.0140 C   0  0  0  0  0  3  0  0  0  0  0  0
  190.2730  177.0980  142.8390 C   0  0  0  0  0  0  0  0  0  0  0  0
  192.8960  177.6250  140.3400 F   0  0  0  0  0  0  0  0  0  0  0  0
  189.2680  177.2940  140.6350 C   0  0  0  0  0  3  0  0  0  0  0  0
  190.5350  177.4670  140.0710 C   0  0  0  0  0  3  0  0  0  0  0  0
  191.5370  177.2740  142.2670 C   0  0  0  0  0  3  0  0  0  0  0  0
  189.1450  178.5600  148.2830 O   0  0  0  0  0  1  0  0  0  0  0  0
  189.8130  178.0210  147.1790 C   0  0  0  0  0  2  0  0  0  0  0  0
  184.0710  178.4840  142.6340 C   0  0  0  0  0  0  0  0  0  0  0  0
  183.1120  178.9960  143.4870 C   0  0  0  0  0  3  0  0  0  0  0  0
  185.0260  178.6420  144.5120 C   0  0  0  0  0  0  0  0  0  0  0  0
  183.7400  179.1020  144.7180 C   0  0  0  0  0  3  0  0  0  0  0  0
  185.1970  178.2790  143.2650 O   0  0  0  0  0  0  0  0  0  0  0  0
  183.8570  178.1750  141.1950 C   0  0  0  0  0  2  0  0  0  0  0  0
  184.9520  178.6210  140.4530 O   0  0  0  0  0  0  0  0  0  0  0  0
  184.4340  178.9130  139.1900 C   0  0  1  0  0  3  0  0  0  0  0  0
  184.3830  180.2960  139.0150 O   0  0  0  0  0  1  0  0  0  0  0  0
  184.8510  177.3590  137.4350 O   0  0  0  0  0  0  0  0  0  0  0  0
  186.5880  178.7690  137.9330 O   0  0  0  0  0  1  0  0  0  0  0  0
  185.2950  178.3040  138.1380 C   0  0  0  0  0  0  0  0  0  0  0  0
  184.5620  178.2390  147.3870 O   0  0  0  0  0  0  0  0  0  0  0  0
  186.0260  180.0240  147.6330 N   0  0  0  0  0  1  0  0  0  0  0  0
  185.5090  178.9160  146.9060 C   0  0  0  0  0  0  0  0  0  0  0  0
  1 31  1  1  0  0  0
  2  7  1  0  0  0  0
  3  7  2  0  0  0  0
  3  6  1  0  0  0  0
  4  5  1  0  0  0  0
  4 16  1  1  0  0  0
  6  1  1  1  0  0  0
  6  5  1  0  0  0  0
  7  4  1  0  0  0  0
  8 14  1  0  0  0  0
  9 10  1  0  0  0  0
 10  2  1  0  0  0  0
 11  8  1  0  0  0  0
 12  9  2  0  0  0  0
 13 12  1  0  0  0  0
 13  8  2  0  0  0  0
 14 10  2  0  0  0  0
 16 15  1  0  0  0  0
 17 21  1  0  0  0  0
 17 18  2  0  0  0  0
 18 20  1  0  0  0  0
 19 20  2  0  0  0  0
 19  1  1  0  0  0  0
 21 19  1  0  0  0  0
 22 17  1  0  0  0  0
 23 22  1  0  0  0  0
 24 25  1  6  0  0  0
 24 23  1  0  0  0  0
 26 28  2  0  0  0  0
 27 28  1  0  0  0  0
 28 24  1  0  0  0  0
 31 29  2  0  0  0  0
 31 30  1  0  0  0  0
M  END
>  <MODEL>
1

>  <REMARK>
 VINA RESULT:      -8.3      0.000      0.000
  Name = 
  9 active torsions:
  status: ('A' for Active; 'I' for Inactive)
    1  A    between atoms: C_4  and  N_5
    2  A    between atoms: C_6  and  C_16
    3  A    between atoms: C_9  and  C_24
    4  A    between atoms: C_11  and  O_15
    5  A    between atoms: C_11  and  C_21
    6  A    between atoms: C_14  and  C_18
    7  A    between atoms: C_14  and  C_23
    8  A    between atoms: C_14  and  C_30
    9  A    between atoms: O_15  and  C_16
                            x       y       z     vdW  Elec       q    Type
                         _______ _______ _______ _____ _____    ______ ____

>  <TORSDO>
F 9

$$$$
=
 OpenBabel11062414343D

 31 33  0  0  1  0  0  0  0  0999 V2000
  188.3160  177.9550  146.0410 C   0  0  1  0  0  3  0  0  0  0  0  0
  189.4660  177.8460  141.5870 N   0  0  0  0  0  2  0  0  0  0  0  0
  188.5120  177.2560  143.7010 N   0  0  0  0  0  0  0  0  0  0  0  0
  190.8380  177.3440  143.6880 C   0  0  1  0  0  3  0  0  0  0  0  0
  190.4100  176.9250  145.0900 C   0  0  0  0  0  2  0  0  0  0  0  0
  188.8770  176.9140  145.0650 C   0  0  1  0  0  3  0  0  0  0  0  0
  189.5480  177.4950  142.9760 C   0  0  0  0  0  0  0  0  0  0  0  0
  187.1330  178.0700  138.6890 C   0  0  0  0  0  0  0  0  0  0  0  0
  187.1010  178.5870  141.4320 C   0  0  0  0  0  3  0  0  0  0  0  0
  188.2690  178.0900  140.8340 C   0  0  0  0  0  0  0  0  0  0  0  0
  187.1500  177.8200  137.3580 F   0  0  0  0  0  0  0  0  0  0  0  0
  185.9570  178.8210  140.6640 C   0  0  0  0  0  3  0  0  0  0  0  0
  185.9740  178.5630  139.2910 C   0  0  0  0  0  3  0  0  0  0  0  0
  188.2780  177.8360  139.4580 C   0  0  0  0  0  3  0  0  0  0  0  0
  190.8000  179.7290  144.0830 O   0  0  0  0  0  1  0  0  0  0  0  0
  191.6210  178.6550  143.7220 C   0  0  0  0  0  2  0  0  0  0  0  0
  185.0020  178.4510  144.8420 C   0  0  0  0  0  0  0  0  0  0  0  0
  184.7160  178.5620  146.1890 C   0  0  0  0  0  3  0  0  0  0  0  0
  186.8520  178.1830  145.8260 C   0  0  0  0  0  0  0  0  0  0  0  0
  185.9310  178.3890  146.8340 C   0  0  0  0  0  3  0  0  0  0  0  0
  186.2740  178.2220  144.6500 O   0  0  0  0  0  0  0  0  0  0  0  0
  184.0000  178.5460  143.7460 C   0  0  0  0  0  2  0  0  0  0  0  0
  182.7540  178.8810  144.2800 O   0  0  0  0  0  0  0  0  0  0  0  0
  182.0030  179.3180  143.1870 C   0  0  1  0  0  3  0  0  0  0  0  0
  182.3650  178.5950  142.0510 O   0  0  0  0  0  1  0  0  0  0  0  0
  179.7330  180.0390  143.1730 O   0  0  0  0  0  0  0  0  0  0  0  0
  180.0970  177.9510  144.0470 O   0  0  0  0  0  1  0  0  0  0  0  0
  180.5510  179.1270  143.4640 C   0  0  0  0  0  0  0  0  0  0  0  0
  188.3680  176.4020  147.8690 O   0  0  0  0  0  0  0  0  0  0  0  0
  189.0510  178.5620  148.3790 N   0  0  0  0  0  1  0  0  0  0  0  0
  188.5770  177.5770  147.4680 C   0  0  0  0  0  0  0  0  0  0  0  0
  1 31  1  1  0  0  0
  2  7  1  0  0  0  0
  3  6  1  0  0  0  0
  4 16  1  1  0  0  0
  4  5  1  0  0  0  0
  6  5  1  0  0  0  0
  6  1  1  1  0  0  0
  7  4  1  0  0  0  0
  7  3  2  0  0  0  0
  8 13  2  0  0  0  0
  8 14  1  0  0  0  0
 10  9  1  0  0  0  0
 10  2  1  0  0  0  0
 11  8  1  0  0  0  0
 12  9  2  0  0  0  0
 13 12  1  0  0  0  0
 14 10  2  0  0  0  0
 16 15  1  0  0  0  0
 17 18  2  0  0  0  0
 18 20  1  0  0  0  0
 19  1  1  0  0  0  0
 19 20  2  0  0  0  0
 21 17  1  0  0  0  0
 21 19  1  0  0  0  0
 22 23  1  0  0  0  0
 22 17  1  0  0  0  0
 24 25  1  6  0  0  0
 24 28  1  0  0  0  0
 24 23  1  0  0  0  0
 26 28  2  0  0  0  0
 28 27  1  0  0  0  0
 31 29  2  0  0  0  0
 31 30  1  0  0  0  0
M  END
>  <MODEL>
2

>  <REMARK>
 VINA RESULT:      -8.0      2.628      4.256
  Name = 
  9 active torsions:
  status: ('A' for Active; 'I' for Inactive)
    1  A    between atoms: C_4  and  N_5
    2  A    between atoms: C_6  and  C_16
    3  A    between atoms: C_9  and  C_24
    4  A    between atoms: C_11  and  O_15
    5  A    between atoms: C_11  and  C_21
    6  A    between atoms: C_14  and  C_18
    7  A    between atoms: C_14  and  C_23
    8  A    between atoms: C_14  and  C_30
    9  A    between atoms: O_15  and  C_16
                            x       y       z     vdW  Elec       q    Type
                         _______ _______ _______ _____ _____    ______ ____

>  <TORSDO>
F 9

$$$$
=
 OpenBabel11062414343D

 31 33  0  0  1  0  0  0  0  0999 V2000
  185.5500  178.9380  141.3540 C   0  0  1  0  0  3  0  0  0  0  0  0
  187.6270  177.4140  145.1670 N   0  0  0  0  0  2  0  0  0  0  0  0
  186.5500  177.4570  143.0300 N   0  0  0  0  0  0  0  0  0  0  0  0
  185.2450  178.2690  144.7790 C   0  0  1  0  0  3  0  0  0  0  0  0
  184.3980  178.3380  143.5130 C   0  0  0  0  0  2  0  0  0  0  0  0
  185.3030  177.8300  142.3850 C   0  0  1  0  0  3  0  0  0  0  0  0
  186.5240  177.6990  144.2930 C   0  0  0  0  0  0  0  0  0  0  0  0
  191.2580  176.5980  145.3540 C   0  0  0  0  0  0  0  0  0  0  0  0
  189.1690  176.3860  143.5150 C   0  0  0  0  0  3  0  0  0  0  0  0
  188.9240  176.9380  144.7820 C   0  0  0  0  0  0  0  0  0  0  0  0
  192.2720  176.7030  146.2470 F   0  0  0  0  0  0  0  0  0  0  0  0
  190.4480  175.9400  143.1720 C   0  0  0  0  0  3  0  0  0  0  0  0
  191.4940  176.0480  144.0920 C   0  0  0  0  0  3  0  0  0  0  0  0
  189.9780  177.0430  145.6970 C   0  0  0  0  0  3  0  0  0  0  0  0
  185.5510  179.5930  146.7790 O   0  0  0  0  0  1  0  0  0  0  0  0
  185.4400  179.6570  145.3860 C   0  0  0  0  0  2  0  0  0  0  0  0
  188.1190  178.2800  138.9800 C   0  0  0  0  0  0  0  0  0  0  0  0
  188.9400  178.4680  140.0740 C   0  0  0  0  0  3  0  0  0  0  0  0
  186.8140  178.7070  140.5850 C   0  0  0  0  0  0  0  0  0  0  0  0
  188.0830  178.7450  141.1280 C   0  0  0  0  0  3  0  0  0  0  0  0
  186.8620  178.4300  139.3060 O   0  0  0  0  0  0  0  0  0  0  0  0
  188.5890  177.9760  137.6020 C   0  0  0  0  0  2  0  0  0  0  0  0
  189.9480  177.6570  137.6320 O   0  0  0  0  0  0  0  0  0  0  0  0
  190.0280  176.3770  137.0810 C   0  0  1  0  0  3  0  0  0  0  0  0
  190.7930  176.4160  135.9150 O   0  0  0  0  0  1  0  0  0  0  0  0
  190.7640  175.7850  139.2670 O   0  0  0  0  0  1  0  0  0  0  0  0
  191.1150  174.2000  137.6490 O   0  0  0  0  0  0  0  0  0  0  0  0
  190.6510  175.4430  138.0610 C   0  0  0  0  0  0  0  0  0  0  0  0
  184.3170  180.0870  139.6460 O   0  0  0  0  0  0  0  0  0  0  0  0
  183.3640  178.1090  140.4010 N   0  0  0  0  0  1  0  0  0  0  0  0
  184.3930  179.0910  140.4140 C   0  0  0  0  0  0  0  0  0  0  0  0
  1 31  1  6  0  0  0
  3  7  2  0  0  0  0
  4 16  1  6  0  0  0
  5  4  1  0  0  0  0
  6  1  1  6  0  0  0
  6  3  1  0  0  0  0
  6  5  1  0  0  0  0
  7  4  1  0  0  0  0
  7  2  1  0  0  0  0
  8 14  1  0  0  0  0
  8 11  1  0  0  0  0
  9 10  1  0  0  0  0
 10  2  1  0  0  0  0
 10 14  2  0  0  0  0
 12  9  2  0  0  0  0
 12 13  1  0  0  0  0
 13  8  2  0  0  0  0
 16 15  1  0  0  0  0
 17 21  1  0  0  0  0
 17 18  2  0  0  0  0
 18 20  1  0  0  0  0
 19 20  2  0  0  0  0
 19  1  1  0  0  0  0
 21 19  1  0  0  0  0
 22 23  1  0  0  0  0
 22 17  1  0  0  0  0
 24 25  1  6  0  0  0
 24 23  1  0  0  0  0
 24 28  1  0  0  0  0
 27 28  2  0  0  0  0
 28 26  1  0  0  0  0
 29 31  2  0  0  0  0
 30 31  1  0  0  0  0
M  END
>  <MODEL>
3

>  <REMARK>
 VINA RESULT:      -8.0      2.935      5.244
  Name = 
  9 active torsions:
  status: ('A' for Active; 'I' for Inactive)
    1  A    between atoms: C_4  and  N_5
    2  A    between atoms: C_6  and  C_16
    3  A    between atoms: C_9  and  C_24
    4  A    between atoms: C_11  and  O_15
    5  A    between atoms: C_11  and  C_21
    6  A    between atoms: C_14  and  C_18
    7  A    between atoms: C_14  and  C_23
    8  A    between atoms: C_14  and  C_30
    9  A    between atoms: O_15  and  C_16
                            x       y       z     vdW  Elec       q    Type
                         _______ _______ _______ _____ _____    ______ ____

>  <TORSDO>
F 9

$$$$
=
 OpenBabel11062414343D

 31 33  0  0  1  0  0  0  0  0999 V2000
  186.4710  178.5640  142.1940 C   0  0  1  0  0  3  0  0  0  0  0  0
  187.9060  177.5510  146.4470 N   0  0  0  0  0  2  0  0  0  0  0  0
  187.2230  177.3180  144.1660 N   0  0  0  0  0  0  0  0  0  0  0  0
  185.5950  178.2140  145.5680 C   0  0  1  0  0  3  0  0  0  0  0  0
  184.9830  178.1070  144.1760 C   0  0  0  0  0  2  0  0  0  0  0  0
  186.0950  177.5490  143.2800 C   0  0  1  0  0  3  0  0  0  0  0  0
  186.9640  177.6810  145.3720 C   0  0  0  0  0  0  0  0  0  0  0  0
  191.2240  176.7490  144.9520 C   0  0  0  0  0  0  0  0  0  0  0  0
  189.9860  176.6420  147.4530 C   0  0  0  0  0  3  0  0  0  0  0  0
  189.2710  177.1210  146.3440 C   0  0  0  0  0  0  0  0  0  0  0  0
  191.8240  176.8010  143.7390 F   0  0  0  0  0  0  0  0  0  0  0  0
  191.3120  176.2230  147.3110 C   0  0  0  0  0  3  0  0  0  0  0  0
  191.9310  176.2760  146.0600 C   0  0  0  0  0  3  0  0  0  0  0  0
  189.8980  177.1690  145.0940 C   0  0  0  0  0  3  0  0  0  0  0  0
  185.6690  179.7380  147.4440 O   0  0  0  0  0  1  0  0  0  0  0  0
  185.6180  179.6640  146.0480 C   0  0  0  0  0  2  0  0  0  0  0  0
  189.0500  177.3910  140.0400 C   0  0  0  0  0  0  0  0  0  0  0  0
  189.8700  177.8910  141.0330 C   0  0  0  0  0  3  0  0  0  0  0  0
  187.7390  178.1820  141.4950 C   0  0  0  0  0  0  0  0  0  0  0  0
  189.0090  178.4070  141.9890 C   0  0  0  0  0  3  0  0  0  0  0  0
  187.7900  177.5780  140.3340 O   0  0  0  0  0  0  0  0  0  0  0  0
  189.5240  176.7510  138.7830 C   0  0  0  0  0  2  0  0  0  0  0  0
  190.6400  175.9570  139.0560 O   0  0  0  0  0  0  0  0  0  0  0  0
  191.2340  175.7350  137.8120 C   0  0  1  0  0  3  0  0  0  0  0  0
  190.8620  176.7490  136.9290 O   0  0  0  0  0  1  0  0  0  0  0  0
  193.3340  176.7720  138.2420 O   0  0  0  0  0  1  0  0  0  0  0  0
  193.4220  174.5300  137.7710 O   0  0  0  0  0  0  0  0  0  0  0  0
  192.7160  175.7120  137.9570 C   0  0  0  0  0  0  0  0  0  0  0  0
  185.3800  179.7210  140.3980 O   0  0  0  0  0  0  0  0  0  0  0  0
  184.2850  177.8260  141.1710 N   0  0  0  0  0  1  0  0  0  0  0  0
  185.3660  178.7500  141.1990 C   0  0  0  0  0  0  0  0  0  0  0  0
  1 31  1  6  0  0  0
  3  7  2  0  0  0  0
  4 16  1  6  0  0  0
  5  4  1  0  0  0  0
  6  1  1  6  0  0  0
  6  3  1  0  0  0  0
  6  5  1  0  0  0  0
  7  4  1  0  0  0  0
  7  2  1  0  0  0  0
  8 14  2  0  0  0  0
  8 13  1  0  0  0  0
 10  2  1  0  0  0  0
 10  9  2  0  0  0  0
 11  8  1  0  0  0  0
 12  9  1  0  0  0  0
 13 12  2  0  0  0  0
 14 10  1  0  0  0  0
 16 15  1  0  0  0  0
 17 21  1  0  0  0  0
 17 18  2  0  0  0  0
 18 20  1  0  0  0  0
 19 20  2  0  0  0  0
 19  1  1  0  0  0  0
 21 19  1  0  0  0  0
 22 23  1  0  0  0  0
 22 17  1  0  0  0  0
 24 25  1  6  0  0  0
 24 28  1  0  0  0  0
 24 23  1  0  0  0  0
 27 28  2  0  0  0  0
 28 26  1  0  0  0  0
 29 31  2  0  0  0  0
 30 31  1  0  0  0  0
M  END
>  <MODEL>
4

>  <REMARK>
 VINA RESULT:      -8.0      3.038      5.559
  Name = 
  9 active torsions:
  status: ('A' for Active; 'I' for Inactive)
    1  A    between atoms: C_4  and  N_5
    2  A    between atoms: C_6  and  C_16
    3  A    between atoms: C_9  and  C_24
    4  A    between atoms: C_11  and  O_15
    5  A    between atoms: C_11  and  C_21
    6  A    between atoms: C_14  and  C_18
    7  A    between atoms: C_14  and  C_23
    8  A    between atoms: C_14  and  C_30
    9  A    between atoms: O_15  and  C_16
                            x       y       z     vdW  Elec       q    Type
                         _______ _______ _______ _____ _____    ______ ____

>  <TORSDO>
F 9

$$$$
=
 OpenBabel11062414343D

 31 33  0  0  1  0  0  0  0  0999 V2000
  189.9530  176.8000  143.2030 C   0  0  1  0  0  3  0  0  0  0  0  0
  186.4000  178.3140  145.7050 N   0  0  0  0  0  2  0  0  0  0  0  0
  188.1820  178.2310  144.1110 N   0  0  0  0  0  0  0  0  0  0  0  0
  188.8590  177.9630  146.3220 C   0  0  1  0  0  3  0  0  0  0  0  0
  190.1140  177.9170  145.4560 C   0  0  0  0  0  2  0  0  0  0  0  0
  189.6210  178.0600  144.0120 C   0  0  1  0  0  3  0  0  0  0  0  0
  187.7770  178.1670  145.3300 C   0  0  0  0  0  0  0  0  0  0  0  0
  184.3980  178.2910  142.5620 C   0  0  0  0  0  0  0  0  0  0  0  0
  184.0100  178.8320  145.2730 C   0  0  0  0  0  3  0  0  0  0  0  0
  185.2780  178.4380  144.8180 C   0  0  0  0  0  0  0  0  0  0  0  0
  184.5870  178.0300  141.2460 F   0  0  0  0  0  0  0  0  0  0  0  0
  182.9430  178.9510  144.3780 C   0  0  0  0  0  3  0  0  0  0  0  0
  183.1380  178.6810  143.0210 C   0  0  0  0  0  3  0  0  0  0  0  0
  185.4650  178.1720  143.4570 C   0  0  0  0  0  3  0  0  0  0  0  0
  188.1630  176.8900  148.3740 O   0  0  0  0  0  1  0  0  0  0  0  0
  188.6770  176.6570  147.0940 C   0  0  0  0  0  2  0  0  0  0  0  0
  189.6970  176.7460  139.6530 C   0  0  0  0  0  0  0  0  0  0  0  0
  188.6940  177.6680  139.8840 C   0  0  0  0  0  3  0  0  0  0  0  0
  189.6240  176.9720  141.7520 C   0  0  0  0  0  0  0  0  0  0  0  0
  188.6490  177.8180  141.2610 C   0  0  0  0  0  3  0  0  0  0  0  0
  190.2320  176.3440  140.7760 O   0  0  0  0  0  0  0  0  0  0  0  0
  190.1040  176.2450  138.3130 C   0  0  0  0  0  2  0  0  0  0  0  0
  191.1900  175.3780  138.4490 O   0  0  0  0  0  0  0  0  0  0  0  0
  191.9680  175.5980  137.3110 C   0  0  1  0  0  3  0  0  0  0  0  0
  191.2240  176.3040  136.3650 O   0  0  0  0  0  1  0  0  0  0  0  0
  193.3680  176.7320  138.8690 O   0  0  0  0  0  1  0  0  0  0  0  0
  194.1170  176.7170  136.7020 O   0  0  0  0  0  0  0  0  0  0  0  0
  193.1860  176.3760  137.6750 C   0  0  0  0  0  0  0  0  0  0  0  0
  192.3140  177.1330  142.9350 O   0  0  0  0  0  0  0  0  0  0  0  0
  191.7010  175.1610  143.9960 N   0  0  0  0  0  1  0  0  0  0  0  0
  191.3870  176.3960  143.3640 C   0  0  0  0  0  0  0  0  0  0  0  0
  1 31  1  6  0  0  0
  3  7  2  0  0  0  0
  4 16  1  6  0  0  0
  5  4  1  0  0  0  0
  6  1  1  6  0  0  0
  6  3  1  0  0  0  0
  6  5  1  0  0  0  0
  7  2  1  0  0  0  0
  7  4  1  0  0  0  0
  8 13  2  0  0  0  0
  8 14  1  0  0  0  0
 10  9  1  0  0  0  0
 10  2  1  0  0  0  0
 11  8  1  0  0  0  0
 12  9  2  0  0  0  0
 13 12  1  0  0  0  0
 14 10  2  0  0  0  0
 16 15  1  0  0  0  0
 17 18  2  0  0  0  0
 17 21  1  0  0  0  0
 18 20  1  0  0  0  0
 19  1  1  0  0  0  0
 20 19  2  0  0  0  0
 21 19  1  0  0  0  0
 22 23  1  0  0  0  0
 22 17  1  0  0  0  0
 24 25  1  6  0  0  0
 24 28  1  0  0  0  0
 24 23  1  0  0  0  0
 27 28  2  0  0  0  0
 28 26  1  0  0  0  0
 29 31  2  0  0  0  0
 31 30  1  0  0  0  0
M  END
>  <MODEL>
5

>  <REMARK>
 VINA RESULT:      -8.0      3.498      6.425
  Name = 
  9 active torsions:
  status: ('A' for Active; 'I' for Inactive)
    1  A    between atoms: C_4  and  N_5
    2  A    between atoms: C_6  and  C_16
    3  A    between atoms: C_9  and  C_24
    4  A    between atoms: C_11  and  O_15
    5  A    between atoms: C_11  and  C_21
    6  A    between atoms: C_14  and  C_18
    7  A    between atoms: C_14  and  C_23
    8  A    between atoms: C_14  and  C_30
    9  A    between atoms: O_15  and  C_16
                            x       y       z     vdW  Elec       q    Type
                         _______ _______ _______ _____ _____    ______ ____

>  <TORSDO>
F 9

$$$$
=
 OpenBabel11062414343D

 31 33  0  0  1  0  0  0  0  0999 V2000
  186.4280  178.6080  142.1920 C   0  0  1  0  0  3  0  0  0  0  0  0
  187.9260  177.5990  146.4250 N   0  0  0  0  0  2  0  0  0  0  0  0
  187.2180  177.3650  144.1510 N   0  0  0  0  0  0  0  0  0  0  0  0
  185.5970  178.2380  145.5760 C   0  0  1  0  0  3  0  0  0  0  0  0
  184.9700  178.1280  144.1900 C   0  0  0  0  0  2  0  0  0  0  0  0
  186.0770  177.5850  143.2800 C   0  0  1  0  0  3  0  0  0  0  0  0
  186.9700  177.7210  145.3620 C   0  0  0  0  0  0  0  0  0  0  0  0
  191.3010  177.0410  144.9460 C   0  0  0  0  0  0  0  0  0  0  0  0
  189.9650  176.5200  147.3420 C   0  0  0  0  0  3  0  0  0  0  0  0
  189.2940  177.1840  146.3030 C   0  0  0  0  0  0  0  0  0  0  0  0
  191.9480  177.2930  143.7830 F   0  0  0  0  0  0  0  0  0  0  0  0
  191.2960  176.1230  147.1840 C   0  0  0  0  0  3  0  0  0  0  0  0
  191.9640  176.3830  145.9840 C   0  0  0  0  0  3  0  0  0  0  0  0
  189.9700  177.4390  145.1050 C   0  0  0  0  0  3  0  0  0  0  0  0
  185.6780  179.7580  147.4540 O   0  0  0  0  0  1  0  0  0  0  0  0
  185.6100  179.6870  146.0590 C   0  0  0  0  0  2  0  0  0  0  0  0
  188.9850  177.5440  139.9560 C   0  0  0  0  0  0  0  0  0  0  0  0
  189.8100  177.8870  141.0100 C   0  0  0  0  0  3  0  0  0  0  0  0
  187.6880  178.2380  141.4720 C   0  0  0  0  0  0  0  0  0  0  0  0
  188.9580  178.3400  142.0060 C   0  0  0  0  0  3  0  0  0  0  0  0
  187.7310  177.7640  140.2520 O   0  0  0  0  0  0  0  0  0  0  0  0
  189.4500  177.0220  138.6430 C   0  0  0  0  0  2  0  0  0  0  0  0
  188.3860  176.4030  137.9840 O   0  0  0  0  0  0  0  0  0  0  0  0
  188.3300  177.0240  136.7350 C   0  0  1  0  0  3  0  0  0  0  0  0
  188.1060  176.0650  135.7460 O   0  0  0  0  0  1  0  0  0  0  0  0
  186.0360  177.6490  136.5860 O   0  0  0  0  0  0  0  0  0  0  0  0
  187.5140  179.3830  136.8420 O   0  0  0  0  0  1  0  0  0  0  0  0
  187.2290  178.0280  136.7190 C   0  0  0  0  0  0  0  0  0  0  0  0
  185.3100  179.7520  140.4050 O   0  0  0  0  0  0  0  0  0  0  0  0
  184.2220  177.8680  141.2140 N   0  0  0  0  0  1  0  0  0  0  0  0
  185.3070  178.7880  141.2150 C   0  0  0  0  0  0  0  0  0  0  0  0
  1 31  1  6  0  0  0
  3  7  2  0  0  0  0
  4 16  1  6  0  0  0
  5  4  1  0  0  0  0
  6  1  1  6  0  0  0
  6  3  1  0  0  0  0
  6  5  1  0  0  0  0
  7  4  1  0  0  0  0
  7  2  1  0  0  0  0
  8 14  2  0  0  0  0
  8 13  1  0  0  0  0
 10  2  1  0  0  0  0
 10  9  2  0  0  0  0
 11  8  1  0  0  0  0
 12  9  1  0  0  0  0
 13 12  2  0  0  0  0
 14 10  1  0  0  0  0
 16 15  1  0  0  0  0
 17 21  1  0  0  0  0
 17 18  2  0  0  0  0
 18 20  1  0  0  0  0
 19 20  2  0  0  0  0
 19  1  1  0  0  0  0
 21 19  1  0  0  0  0
 22 17  1  0  0  0  0
 23 22  1  0  0  0  0
 24 25  1  6  0  0  0
 24 23  1  0  0  0  0
 26 28  2  0  0  0  0
 28 24  1  0  0  0  0
 28 27  1  0  0  0  0
 29 31  2  0  0  0  0
 30 31  1  0  0  0  0
M  END
>  <MODEL>
6

>  <REMARK>
 VINA RESULT:      -7.9      2.187      4.725
  Name = 
  9 active torsions:
  status: ('A' for Active; 'I' for Inactive)
    1  A    between atoms: C_4  and  N_5
    2  A    between atoms: C_6  and  C_16
    3  A    between atoms: C_9  and  C_24
    4  A    between atoms: C_11  and  O_15
    5  A    between atoms: C_11  and  C_21
    6  A    between atoms: C_14  and  C_18
    7  A    between atoms: C_14  and  C_23
    8  A    between atoms: C_14  and  C_30
    9  A    between atoms: O_15  and  C_16
                            x       y       z     vdW  Elec       q    Type
                         _______ _______ _______ _____ _____    ______ ____

>  <TORSDO>
F 9

$$$$
=
 OpenBabel11062414343D

 31 33  0  0  1  0  0  0  0  0999 V2000
  188.8820  177.5290  141.3780 C   0  0  1  0  0  3  0  0  0  0  0  0
  190.2310  177.2460  145.7680 N   0  0  0  0  0  2  0  0  0  0  0  0
  189.5020  178.1350  143.6690 N   0  0  0  0  0  0  0  0  0  0  0  0
  191.5560  177.0430  143.5870 C   0  0  1  0  0  3  0  0  0  0  0  0
  191.2680  177.5690  142.1850 C   0  0  0  0  0  2  0  0  0  0  0  0
  189.8960  178.2470  142.2760 C   0  0  1  0  0  3  0  0  0  0  0  0
  190.3730  177.4890  144.3600 C   0  0  0  0  0  0  0  0  0  0  0  0
  186.6920  177.8550  146.7640 C   0  0  0  0  0  0  0  0  0  0  0  0
  189.2260  177.9270  147.9340 C   0  0  0  0  0  3  0  0  0  0  0  0
  189.0950  177.5690  146.5830 C   0  0  0  0  0  0  0  0  0  0  0  0
  185.4630  177.8220  146.1950 F   0  0  0  0  0  0  0  0  0  0  0  0
  188.0970  178.2440  148.6940 C   0  0  0  0  0  3  0  0  0  0  0  0
  186.8290  178.2090  148.1080 C   0  0  0  0  0  3  0  0  0  0  0  0
  187.8220  177.5380  146.0030 C   0  0  0  0  0  3  0  0  0  0  0  0
  190.5460  174.9110  143.0610 O   0  0  0  0  0  1  0  0  0  0  0  0
  191.6890  175.5210  143.5860 C   0  0  0  0  0  2  0  0  0  0  0  0
  185.6870  178.7020  142.4220 C   0  0  0  0  0  0  0  0  0  0  0  0
  185.5600  179.0230  141.0850 C   0  0  0  0  0  3  0  0  0  0  0  0
  187.5060  178.1000  141.5310 C   0  0  0  0  0  0  0  0  0  0  0  0
  186.7520  178.6250  140.5000 C   0  0  0  0  0  3  0  0  0  0  0  0
  186.8510  178.1580  142.6640 O   0  0  0  0  0  0  0  0  0  0  0  0
  184.6580  178.9610  143.4640 C   0  0  0  0  0  2  0  0  0  0  0  0
  183.3950  178.6410  142.9630 O   0  0  0  0  0  0  0  0  0  0  0  0
  182.5750  178.5510  144.0890 C   0  0  1  0  0  3  0  0  0  0  0  0
  183.0610  179.3930  145.0900 O   0  0  0  0  0  1  0  0  0  0  0  0
  180.2240  178.1790  144.0210 O   0  0  0  0  0  1  0  0  0  0  0  0
  180.9370  180.1430  143.0780 O   0  0  0  0  0  0  0  0  0  0  0  0
  181.1820  178.9430  143.7330 C   0  0  0  0  0  0  0  0  0  0  0  0
  189.7520  178.6090  139.4200 O   0  0  0  0  0  0  0  0  0  0  0  0
  189.1570  176.3820  139.1450 N   0  0  0  0  0  1  0  0  0  0  0  0
  189.2960  177.5560  139.9370 C   0  0  0  0  0  0  0  0  0  0  0  0
  1 31  1  6  0  0  0
  1 19  1  0  0  0  0
  2 10  1  0  0  0  0
  3  7  2  0  0  0  0
  4 16  1  6  0  0  0
  4  7  1  0  0  0  0
  5  6  1  0  0  0  0
  5  4  1  0  0  0  0
  6  1  1  6  0  0  0
  6  3  1  0  0  0  0
  7  2  1  0  0  0  0
  8 13  1  0  0  0  0
  9 12  1  0  0  0  0
 10  9  2  0  0  0  0
 11  8  1  0  0  0  0
 13 12  2  0  0  0  0
 14 10  1  0  0  0  0
 14  8  2  0  0  0  0
 15 16  1  0  0  0  0
 17 21  1  0  0  0  0
 17 22  1  0  0  0  0
 18 17  2  0  0  0  0
 19 21  1  0  0  0  0
 20 18  1  0  0  0  0
 20 19  2  0  0  0  0
 23 22  1  0  0  0  0
 23 24  1  0  0  0  0
 24 25  1  1  0  0  0
 27 28  2  0  0  0  0
 28 26  1  0  0  0  0
 28 24  1  0  0  0  0
 29 31  2  0  0  0  0
 30 31  1  0  0  0  0
M  END
>  <MODEL>
7

>  <REMARK>
 VINA RESULT:      -7.8      3.029      6.000
  Name = 
  9 active torsions:
  status: ('A' for Active; 'I' for Inactive)
    1  A    between atoms: C_4  and  N_5
    2  A    between atoms: C_6  and  C_16
    3  A    between atoms: C_9  and  C_24
    4  A    between atoms: C_11  and  O_15
    5  A    between atoms: C_11  and  C_21
    6  A    between atoms: C_14  and  C_18
    7  A    between atoms: C_14  and  C_23
    8  A    between atoms: C_14  and  C_30
    9  A    between atoms: O_15  and  C_16
                            x       y       z     vdW  Elec       q    Type
                         _______ _______ _______ _____ _____    ______ ____

>  <TORSDO>
F 9

$$$$
=
 OpenBabel11062414343D

 31 33  0  0  1  0  0  0  0  0999 V2000
  187.4750  177.8840  138.3050 C   0  0  1  0  0  3  0  0  0  0  0  0
  190.8580  176.6800  141.1830 N   0  0  0  0  0  2  0  0  0  0  0  0
  189.2550  177.9930  139.9860 N   0  0  0  0  0  0  0  0  0  0  0  0
  190.8320  176.9380  138.6370 C   0  0  1  0  0  3  0  0  0  0  0  0
  189.9220  177.7490  137.7200 C   0  0  0  0  0  2  0  0  0  0  0  0
  188.8820  178.3950  138.6410 C   0  0  1  0  0  3  0  0  0  0  0  0
  190.2790  177.2130  139.9830 C   0  0  0  0  0  0  0  0  0  0  0  0
  190.7990  177.2370  144.8680 C   0  0  0  0  0  0  0  0  0  0  0  0
  188.9870  176.6880  142.8150 C   0  0  0  0  0  3  0  0  0  0  0  0
  190.3520  176.8250  142.5180 C   0  0  0  0  0  0  0  0  0  0  0  0
  191.6780  177.5010  145.8630 F   0  0  0  0  0  0  0  0  0  0  0  0
  188.5320  176.8280  144.1290 C   0  0  0  0  0  3  0  0  0  0  0  0
  189.4390  177.1010  145.1560 C   0  0  0  0  0  3  0  0  0  0  0  0
  191.2540  177.0970  143.5520 C   0  0  0  0  0  3  0  0  0  0  0  0
  189.6190  175.1410  137.5670 O   0  0  0  0  0  1  0  0  0  0  0  0
  190.7720  175.4510  138.2950 C   0  0  0  0  0  2  0  0  0  0  0  0
  185.6190  178.9860  141.1350 C   0  0  0  0  0  0  0  0  0  0  0  0
  184.5670  178.9530  140.2420 C   0  0  0  0  0  3  0  0  0  0  0  0
  186.4640  178.3490  139.3070 C   0  0  0  0  0  0  0  0  0  0  0  0
  185.1210  178.5320  139.0430 C   0  0  0  0  0  3  0  0  0  0  0  0
  186.7360  178.6270  140.5580 O   0  0  0  0  0  0  0  0  0  0  0  0
  185.5170  179.4020  142.5600 C   0  0  0  0  0  2  0  0  0  0  0  0
  184.8620  178.4080  143.2900 O   0  0  0  0  0  0  0  0  0  0  0  0
  184.3960  179.0550  144.4370 C   0  0  1  0  0  3  0  0  0  0  0  0
  183.0970  178.6300  144.7180 O   0  0  0  0  0  1  0  0  0  0  0  0
  185.6820  177.5650  145.7760 O   0  0  0  0  0  0  0  0  0  0  0  0
  185.6800  179.7510  146.4640 O   0  0  0  0  0  1  0  0  0  0  0  0
  185.2880  178.7450  145.5890 C   0  0  0  0  0  0  0  0  0  0  0  0
  187.1870  179.4680  136.5270 O   0  0  0  0  0  0  0  0  0  0  0  0
  186.4860  177.3060  136.0560 N   0  0  0  0  0  1  0  0  0  0  0  0
  187.0540  178.2800  136.9230 C   0  0  0  0  0  0  0  0  0  0  0  0
  1 31  1  6  0  0  0
  1 19  1  0  0  0  0
  2 10  1  0  0  0  0
  4 16  1  6  0  0  0
  4  7  1  0  0  0  0
  5  4  1  0  0  0  0
  5  6  1  0  0  0  0
  6  1  1  6  0  0  0
  6  3  1  0  0  0  0
  7  3  2  0  0  0  0
  7  2  1  0  0  0  0
  8 13  1  0  0  0  0
  8 11  1  0  0  0  0
  9 12  1  0  0  0  0
 10  9  2  0  0  0  0
 10 14  1  0  0  0  0
 12 13  2  0  0  0  0
 14  8  2  0  0  0  0
 15 16  1  0  0  0  0
 17 22  1  0  0  0  0
 18 17  2  0  0  0  0
 19 21  1  0  0  0  0
 20 19  2  0  0  0  0
 20 18  1  0  0  0  0
 21 17  1  0  0  0  0
 22 23  1  0  0  0  0
 23 24  1  0  0  0  0
 24 25  1  1  0  0  0
 24 28  1  0  0  0  0
 28 26  2  0  0  0  0
 28 27  1  0  0  0  0
 29 31  2  0  0  0  0
 30 31  1  0  0  0  0
M  END
>  <MODEL>
8

>  <REMARK>
 VINA RESULT:      -7.8      2.727      6.653
  Name = 
  9 active torsions:
  status: ('A' for Active; 'I' for Inactive)
    1  A    between atoms: C_4  and  N_5
    2  A    between atoms: C_6  and  C_16
    3  A    between atoms: C_9  and  C_24
    4  A    between atoms: C_11  and  O_15
    5  A    between atoms: C_11  and  C_21
    6  A    between atoms: C_14  and  C_18
    7  A    between atoms: C_14  and  C_23
    8  A    between atoms: C_14  and  C_30
    9  A    between atoms: O_15  and  C_16
                            x       y       z     vdW  Elec       q    Type
                         _______ _______ _______ _____ _____    ______ ____

>  <TORSDO>
F 9

$$$$
=
 OpenBabel11062414343D

 31 33  0  0  1  0  0  0  0  0999 V2000
  190.1160  176.8960  139.8650 C   0  0  1  0  0  3  0  0  0  0  0  0
  188.8770  177.5610  144.2460 N   0  0  0  0  0  2  0  0  0  0  0  0
  189.3860  177.9680  141.9440 N   0  0  0  0  0  0  0  0  0  0  0  0
  191.1750  177.1570  143.1940 C   0  0  1  0  0  3  0  0  0  0  0  0
  191.6830  177.3890  141.7750 C   0  0  0  0  0  2  0  0  0  0  0  0
  190.4700  177.8860  140.9810 C   0  0  1  0  0  3  0  0  0  0  0  0
  189.7540  177.5720  143.1110 C   0  0  0  0  0  0  0  0  0  0  0  0
  185.4750  178.4010  145.5170 C   0  0  0  0  0  0  0  0  0  0  0  0
  186.7230  177.9220  143.0650 C   0  0  0  0  0  3  0  0  0  0  0  0
  187.4750  177.8690  144.2490 C   0  0  0  0  0  0  0  0  0  0  0  0
  184.8700  178.6320  146.7070 F   0  0  0  0  0  0  0  0  0  0  0  0
  185.3570  178.2160  143.1080 C   0  0  0  0  0  3  0  0  0  0  0  0
  184.7330  178.4540  144.3350 C   0  0  0  0  0  3  0  0  0  0  0  0
  186.8420  178.1070  145.4740 C   0  0  0  0  0  3  0  0  0  0  0  0
  190.4440  174.8770  142.8560 O   0  0  0  0  0  1  0  0  0  0  0  0
  191.3110  175.6890  143.5940 C   0  0  0  0  0  2  0  0  0  0  0  0
  187.2930  177.8600  137.9220 C   0  0  0  0  0  0  0  0  0  0  0  0
  188.2280  178.6360  137.2650 C   0  0  0  0  0  3  0  0  0  0  0  0
  189.1230  177.4760  138.9050 C   0  0  0  0  0  0  0  0  0  0  0  0
  189.4290  178.3820  137.9090 C   0  0  0  0  0  3  0  0  0  0  0  0
  187.8460  177.1830  138.8940 O   0  0  0  0  0  0  0  0  0  0  0  0
  185.8420  177.8140  137.5980 C   0  0  0  0  0  2  0  0  0  0  0  0
  185.2190  178.9660  138.0820 O   0  0  0  0  0  0  0  0  0  0  0  0
  184.8100  178.6360  139.3750 C   0  0  1  0  0  3  0  0  0  0  0  0
  184.9300  179.7530  140.2030 O   0  0  0  0  0  1  0  0  0  0  0  0
  182.5750  178.7000  138.5560 O   0  0  0  0  0  0  0  0  0  0  0  0
  182.9690  177.1730  140.2200 O   0  0  0  0  0  1  0  0  0  0  0  0
  183.3940  178.1740  139.3550 C   0  0  0  0  0  0  0  0  0  0  0  0
  192.4090  177.0800  139.1840 O   0  0  0  0  0  0  0  0  0  0  0  0
  191.2690  175.2380  138.3500 N   0  0  0  0  0  1  0  0  0  0  0  0
  191.3340  176.4260  139.1290 C   0  0  0  0  0  0  0  0  0  0  0  0
  1 31  1  6  0  0  0
  2 10  1  0  0  0  0
  3  7  2  0  0  0  0
  4 16  1  6  0  0  0
  5  4  1  0  0  0  0
  6  1  1  6  0  0  0
  6  5  1  0  0  0  0
  6  3  1  0  0  0  0
  7  4  1  0  0  0  0
  7  2  1  0  0  0  0
  8 11  1  0  0  0  0
  9 12  2  0  0  0  0
  9 10  1  0  0  0  0
 10 14  2  0  0  0  0
 12 13  1  0  0  0  0
 13  8  2  0  0  0  0
 14  8  1  0  0  0  0
 15 16  1  0  0  0  0
 17 21  1  0  0  0  0
 18 20  1  0  0  0  0
 18 17  2  0  0  0  0
 19  1  1  0  0  0  0
 20 19  2  0  0  0  0
 21 19  1  0  0  0  0
 22 17  1  0  0  0  0
 22 23  1  0  0  0  0
 23 24  1  0  0  0  0
 24 25  1  1  0  0  0
 26 28  2  0  0  0  0
 28 24  1  0  0  0  0
 28 27  1  0  0  0  0
 30 31  1  0  0  0  0
 31 29  2  0  0  0  0
M  END
>  <MODEL>
9

>  <REMARK>
 VINA RESULT:      -7.7      3.117      6.227
  Name = 
  9 active torsions:
  status: ('A' for Active; 'I' for Inactive)
    1  A    between atoms: C_4  and  N_5
    2  A    between atoms: C_6  and  C_16
    3  A    between atoms: C_9  and  C_24
    4  A    between atoms: C_11  and  O_15
    5  A    between atoms: C_11  and  C_21
    6  A    between atoms: C_14  and  C_18
    7  A    between atoms: C_14  and  C_23
    8  A    between atoms: C_14  and  C_30
    9  A    between atoms: O_15  and  C_16
                            x       y       z     vdW  Elec       q    Type
                         _______ _______ _______ _____ _____    ______ ____

>  <TORSDO>
F 9

$$$$
