=
 OpenBabel11062416213D

 29 32  0  0  1  0  0  0  0  0999 V2000
  179.7030  179.1210  139.7720 C   0  0  0  0  0  3  0  0  0  0  0  0
  184.5520  178.1900  140.8280 C   0  0  2  0  0  3  0  0  0  0  0  0
  182.8950  178.8200  143.1160 C   0  0  0  0  0  3  0  0  0  0  0  0
  180.2590  175.6270  138.0350 C   0  0  0  0  0  0  0  0  0  0  0  0
  182.1090  177.1790  138.7830 C   0  0  0  0  0  2  0  0  0  0  0  0
  180.1380  174.2280  137.5260 C   0  0  0  0  0  3  0  0  0  0  0  0
  182.2950  174.7320  137.8570 C   0  0  0  0  0  0  0  0  0  0  0  0
  183.0160  178.2450  140.6750 C   0  0  2  0  0  3  0  0  0  0  0  0
  183.7760  174.5980  137.9200 C   0  0  0  0  0  1  0  0  0  0  0  0
  180.0520  177.6860  141.5760 N   0  0  0  0  0  0  0  0  0  0  0  0
  182.2570  178.6190  141.9530 C   0  0  0  0  0  0  0  0  0  0  0  0
  185.0610  179.0570  141.9740 C   0  0  0  0  0  2  0  0  0  0  0  0
  179.4930  177.8060  140.4260 C   0  0  0  0  0  0  0  0  0  0  0  0
  179.0860  176.5130  138.3240 C   0  0  0  0  0  2  0  0  0  0  0  0
  178.9330  176.6770  139.7600 N   0  0  0  0  0  2  0  0  0  0  0  0
  181.5410  175.9130  138.2270 C   0  0  1  0  0  3  0  0  0  0  0  0
  180.7760  178.8920  141.9290 C   0  0  1  0  0  3  0  0  0  0  0  0
  182.5400  176.9680  140.1590 N   0  0  0  0  0  2  0  0  0  0  0  0
  184.3720  178.6220  143.2560 C   0  0  1  0  0  3  0  0  0  0  0  0
  181.5250  173.7760  137.4610 N   0  0  0  0  0  0  0  0  0  0  0  0
  180.4360  179.9130  140.8440 C   0  0  0  0  0  3  0  0  0  0  0  0
  187.0690  178.6860  139.5340 N   0  0  0  0  0  1  0  0  0  0  0  0
  185.0060  177.7000  138.2200 O   0  0  0  0  0  0  0  0  0  0  0  0
  184.8970  180.0450  138.9040 O   0  0  0  0  0  0  0  0  0  0  0  0
  185.3560  178.6740  139.3090 S   0  0  0  0  0  0  0  0  0  0  0  0
  184.8810  179.4290  144.4410 C   0  0  0  0  0  2  0  0  0  0  0  0
  184.4900  178.5770  146.6050 O   0  0  0  0  0  0  0  0  0  0  0  0
  186.3660  177.6330  145.5540 C   0  0  0  0  0  1  0  0  0  0  0  0
  185.1890  178.5430  145.6050 C   0  0  0  0  0  0  0  0  0  0  0  0
  1 13  1  0  0  0  0
  1 21  2  0  0  0  0
  2 25  1  6  0  0  0
  2 12  1  0  0  0  0
  3 19  1  0  0  0  0
  4 16  1  0  0  0  0
  4 14  1  0  0  0  0
  5 18  1  0  0  0  0
  6  4  2  0  0  0  0
  7  9  1  0  0  0  0
  7 16  1  0  0  0  0
  8 18  1  1  0  0  0
  8  2  1  0  0  0  0
  8 11  1  0  0  0  0
 10 17  1  0  0  0  0
 11  3  2  0  0  0  0
 12 19  1  0  0  0  0
 13 10  2  0  0  0  0
 14 15  1  0  0  0  0
 15 13  1  0  0  0  0
 16  5  1  1  0  0  0
 17 21  1  6  0  0  0
 17 11  1  0  0  0  0
 19 26  1  1  0  0  0
 20  6  1  0  0  0  0
 20  7  2  0  0  0  0
 23 25  2  0  0  0  0
 24 25  2  0  0  0  0
 25 22  1  0  0  0  0
 26 29  1  0  0  0  0
 28 29  1  0  0  0  0
 29 27  2  0  0  0  0
M  END
>  <MODEL>
1

>  <REMARK>
 VINA RESULT:      -7.2      0.000      0.000
  Name = 
  3 active torsions:
  status: ('A' for Active; 'I' for Inactive)
    1  A    between atoms: C_2  and  S_21
    2  A    between atoms: C_22  and  C_26
    3  A    between atoms: C_26  and  C_27
                            x       y       z     vdW  Elec       q    Type
                         _______ _______ _______ _____ _____    ______ ____

>  <TORSDO>
F 3

$$$$
=
 OpenBabel11062416213D

 29 32  0  0  1  0  0  0  0  0999 V2000
  187.0770  178.2480  135.7480 C   0  0  0  0  0  3  0  0  0  0  0  0
  190.6080  175.4230  137.9960 C   0  0  2  0  0  3  0  0  0  0  0  0
  189.5030  177.5410  139.6310 C   0  0  0  0  0  3  0  0  0  0  0  0
  185.6840  174.6040  135.1870 C   0  0  0  0  0  0  0  0  0  0  0  0
  188.0610  175.1570  135.8460 C   0  0  0  0  0  2  0  0  0  0  0  0
  184.8340  173.3820  135.0660 C   0  0  0  0  0  3  0  0  0  0  0  0
  186.9080  172.8050  135.6840 C   0  0  0  0  0  0  0  0  0  0  0  0
  189.3540  176.1900  137.5200 C   0  0  2  0  0  3  0  0  0  0  0  0
  188.0750  171.9740  136.0850 C   0  0  0  0  0  1  0  0  0  0  0  0
  186.5420  177.5500  137.9080 N   0  0  0  0  0  0  0  0  0  0  0  0
  188.8890  177.3060  138.4620 C   0  0  0  0  0  0  0  0  0  0  0  0
  191.4780  176.2450  138.9400 C   0  0  0  0  0  2  0  0  0  0  0  0
  186.1680  177.5350  136.6790 C   0  0  0  0  0  0  0  0  0  0  0  0
  185.1760  175.9970  134.9730 C   0  0  0  0  0  2  0  0  0  0  0  0
  185.1010  176.6950  136.2460 N   0  0  0  0  0  2  0  0  0  0  0  0
  186.9090  174.2490  135.5530 C   0  0  1  0  0  3  0  0  0  0  0  0
  187.7970  178.2610  138.0580 C   0  0  1  0  0  3  0  0  0  0  0  0
  188.2720  175.2420  137.2850 N   0  0  0  0  0  2  0  0  0  0  0  0
  190.6300  176.6860  140.1210 C   0  0  1  0  0  3  0  0  0  0  0  0
  185.7520  172.3020  135.4140 N   0  0  0  0  0  0  0  0  0  0  0  0
  188.0950  178.8730  136.6900 C   0  0  0  0  0  3  0  0  0  0  0  0
  193.2570  174.8700  137.0320 N   0  0  0  0  0  1  0  0  0  0  0  0
  191.1660  173.4970  136.2000 O   0  0  0  0  0  0  0  0  0  0  0  0
  191.3750  175.8120  135.4410 O   0  0  0  0  0  0  0  0  0  0  0  0
  191.5840  174.8830  136.6020 S   0  0  0  0  0  0  0  0  0  0  0  0
  191.4660  177.4730  141.1190 C   0  0  0  0  0  2  0  0  0  0  0  0
  191.8790  177.4600  143.4410 O   0  0  0  0  0  0  0  0  0  0  0  0
  190.2400  175.9170  142.7740 C   0  0  0  0  0  1  0  0  0  0  0  0
  191.2380  176.9910  142.5150 C   0  0  0  0  0  0  0  0  0  0  0  0
  1 13  1  0  0  0  0
  1 21  2  0  0  0  0
  2 25  1  6  0  0  0
  2 12  1  0  0  0  0
  3 19  1  0  0  0  0
  4 16  1  0  0  0  0
  5 18  1  0  0  0  0
  6  4  2  0  0  0  0
  6 20  1  0  0  0  0
  7  9  1  0  0  0  0
  8 18  1  1  0  0  0
  8  2  1  0  0  0  0
  8 11  1  0  0  0  0
 10 17  1  0  0  0  0
 11  3  2  0  0  0  0
 12 19  1  0  0  0  0
 13 10  2  0  0  0  0
 14  4  1  0  0  0  0
 14 15  1  0  0  0  0
 15 13  1  0  0  0  0
 16  7  1  0  0  0  0
 16  5  1  1  0  0  0
 17 21  1  6  0  0  0
 17 11  1  0  0  0  0
 19 26  1  1  0  0  0
 20  7  2  0  0  0  0
 23 25  2  0  0  0  0
 24 25  2  0  0  0  0
 25 22  1  0  0  0  0
 26 29  1  0  0  0  0
 29 28  1  0  0  0  0
 29 27  2  0  0  0  0
M  END
>  <MODEL>
2

>  <REMARK>
 VINA RESULT:      -6.2      6.227      7.168
  Name = 
  3 active torsions:
  status: ('A' for Active; 'I' for Inactive)
    1  A    between atoms: C_2  and  S_21
    2  A    between atoms: C_22  and  C_26
    3  A    between atoms: C_26  and  C_27
                            x       y       z     vdW  Elec       q    Type
                         _______ _______ _______ _____ _____    ______ ____

>  <TORSDO>
F 3

$$$$
=
 OpenBabel11062416213D

 29 32  0  0  1  0  0  0  0  0999 V2000
  190.9640  175.1530  135.6590 C   0  0  0  0  0  3  0  0  0  0  0  0
  186.0360  175.5390  136.6910 C   0  0  2  0  0  3  0  0  0  0  0  0
  186.9420  172.8780  135.9990 C   0  0  0  0  0  3  0  0  0  0  0  0
  191.0050  176.9190  139.1830 C   0  0  0  0  0  0  0  0  0  0  0  0
  188.9880  176.7670  137.6660 C   0  0  0  0  0  2  0  0  0  0  0  0
  191.2950  177.3470  140.5840 C   0  0  0  0  0  2  0  0  0  0  0  0
  189.1260  177.6680  140.1260 C   0  0  0  0  0  0  0  0  0  0  0  0
  187.5490  175.2390  136.6020 C   0  0  2  0  0  3  0  0  0  0  0  0
  187.6940  178.0360  140.2930 C   0  0  0  0  0  1  0  0  0  0  0  0
  190.1310  173.5050  137.0840 N   0  0  0  0  0  0  0  0  0  0  0  0
  187.8950  173.8020  136.1980 C   0  0  0  0  0  0  0  0  0  0  0  0
  185.1990  174.6050  135.8240 C   0  0  0  0  0  2  0  0  0  0  0  0
  190.9990  174.4440  136.9630 C   0  0  0  0  0  0  0  0  0  0  0  0
  192.0260  176.3160  138.2680 C   0  0  0  0  0  2  0  0  0  0  0  0
  191.7500  174.9000  138.0850 N   0  0  0  0  0  2  0  0  0  0  0  0
  189.7170  177.1130  138.9250 C   0  0  0  0  0  0  0  0  0  0  0  0
  189.3130  173.3980  135.8910 C   0  0  1  0  0  3  0  0  0  0  0  0
  188.1790  175.5740  137.8730 N   0  0  0  0  0  2  0  0  0  0  0  0
  185.4930  173.1710  136.2300 C   0  0  1  0  0  3  0  0  0  0  0  0
  189.9960  177.8060  141.0680 N   0  0  0  0  0  0  0  0  0  0  0  0
  189.9360  174.3540  134.8730 C   0  0  0  0  0  3  0  0  0  0  0  0
  186.8500  177.7620  135.0620 N   0  0  0  0  0  1  0  0  0  0  0  0
  184.3170  177.3380  135.6640 O   0  0  0  0  0  0  0  0  0  0  0  0
  185.7930  178.1120  137.4540 O   0  0  0  0  0  0  0  0  0  0  0  0
  185.7010  177.2340  136.2400 S   0  0  0  0  0  0  0  0  0  0  0  0
  184.6450  172.2000  135.4240 C   0  0  0  0  0  2  0  0  0  0  0  0
  183.3750  171.7230  137.3530 O   0  0  0  0  0  0  0  0  0  0  0  0
  183.6900  169.8610  135.9570 C   0  0  0  0  0  1  0  0  0  0  0  0
  183.8600  171.2950  136.3190 C   0  0  0  0  0  0  0  0  0  0  0  0
  1 13  1  0  0  0  0
  2 25  1  6  0  0  0
  3 11  2  0  0  0  0
  3 19  1  0  0  0  0
  4  6  1  0  0  0  0
  5 18  1  0  0  0  0
  5 16  1  0  0  0  0
  6 20  1  0  0  0  0
  7  9  1  0  0  0  0
  7 20  2  0  0  0  0
  8 11  1  1  0  0  0
  8  2  1  0  0  0  0
  8 18  1  0  0  0  0
 12 19  1  0  0  0  0
 12  2  1  0  0  0  0
 13 10  2  0  0  0  0
 13 15  1  0  0  0  0
 14  4  1  0  0  0  0
 15 14  1  0  0  0  0
 16  4  2  0  0  0  0
 16  7  1  0  0  0  0
 17 21  1  6  0  0  0
 17 11  1  0  0  0  0
 17 10  1  0  0  0  0
 19 26  1  6  0  0  0
 21  1  2  0  0  0  0
 22 25  1  0  0  0  0
 23 25  2  0  0  0  0
 25 24  2  0  0  0  0
 26 29  1  0  0  0  0
 28 29  1  0  0  0  0
 29 27  2  0  0  0  0
M  END
>  <MODEL>
3

>  <REMARK>
 VINA RESULT:      -6.0      5.839      9.678
  Name = 
  3 active torsions:
  status: ('A' for Active; 'I' for Inactive)
    1  A    between atoms: C_2  and  S_21
    2  A    between atoms: C_22  and  C_26
    3  A    between atoms: C_26  and  C_27
                            x       y       z     vdW  Elec       q    Type
                         _______ _______ _______ _____ _____    ______ ____

>  <TORSDO>
F 3

$$$$
=
 OpenBabel11062416213D

 29 32  0  0  1  0  0  0  0  0999 V2000
  180.5850  179.1530  138.2730 C   0  0  0  0  0  3  0  0  0  0  0  0
  185.0930  177.9160  140.1820 C   0  0  2  0  0  3  0  0  0  0  0  0
  183.1460  178.8260  142.1200 C   0  0  0  0  0  3  0  0  0  0  0  0
  181.1070  175.5170  136.8420 C   0  0  0  0  0  0  0  0  0  0  0  0
  182.9390  176.9660  137.8090 C   0  0  0  0  0  2  0  0  0  0  0  0
  180.9470  174.1010  136.3940 C   0  0  0  0  0  3  0  0  0  0  0  0
  183.0570  174.4550  137.0580 C   0  0  0  0  0  0  0  0  0  0  0  0
  183.6140  178.0810  139.7680 C   0  0  2  0  0  3  0  0  0  0  0  0
  184.4890  174.2100  137.3780 C   0  0  0  0  0  1  0  0  0  0  0  0
  180.5050  177.8180  140.1840 N   0  0  0  0  0  0  0  0  0  0  0  0
  182.6930  178.5980  140.8780 C   0  0  0  0  0  0  0  0  0  0  0  0
  185.4830  178.8150  141.3500 C   0  0  0  0  0  2  0  0  0  0  0  0
  180.1550  177.9050  138.9510 C   0  0  0  0  0  0  0  0  0  0  0  0
  179.9850  176.5100  136.8810 C   0  0  0  0  0  2  0  0  0  0  0  0
  179.6140  176.7810  138.2600 N   0  0  0  0  0  2  0  0  0  0  0  0
  182.3600  175.7140  137.2320 C   0  0  1  0  0  3  0  0  0  0  0  0
  181.2660  178.9840  140.5890 C   0  0  1  0  0  3  0  0  0  0  0  0
  183.1180  176.8140  139.2470 N   0  0  0  0  0  2  0  0  0  0  0  0
  184.5560  178.5220  142.5180 C   0  0  1  0  0  3  0  0  0  0  0  0
  182.2800  173.5390  136.5880 N   0  0  0  0  0  0  0  0  0  0  0  0
  181.1990  179.9550  139.4100 C   0  0  0  0  0  3  0  0  0  0  0  0
  187.7570  178.6260  139.3710 N   0  0  0  0  0  1  0  0  0  0  0  0
  186.2540  177.0100  137.9280 O   0  0  0  0  0  0  0  0  0  0  0  0
  185.6410  179.3770  137.9840 O   0  0  0  0  0  0  0  0  0  0  0  0
  186.1750  178.2330  138.7970 S   0  0  0  0  0  0  0  0  0  0  0  0
  184.9340  179.3630  143.7270 C   0  0  0  0  0  2  0  0  0  0  0  0
  186.3090  177.6940  144.6690 O   0  0  0  0  0  0  0  0  0  0  0  0
  184.7910  178.6270  146.1980 C   0  0  0  0  0  1  0  0  0  0  0  0
  185.4170  178.5060  144.8530 C   0  0  0  0  0  0  0  0  0  0  0  0
  1 13  1  0  0  0  0
  1 21  2  0  0  0  0
  2 25  1  6  0  0  0
  2 12  1  0  0  0  0
  3 19  1  0  0  0  0
  4 14  1  0  0  0  0
  4 16  1  0  0  0  0
  5 18  1  0  0  0  0
  6 20  1  0  0  0  0
  6  4  2  0  0  0  0
  7 16  1  0  0  0  0
  7  9  1  0  0  0  0
  8 18  1  1  0  0  0
  8  2  1  0  0  0  0
  8 11  1  0  0  0  0
 10 17  1  0  0  0  0
 11  3  2  0  0  0  0
 12 19  1  0  0  0  0
 13 10  2  0  0  0  0
 14 15  1  0  0  0  0
 15 13  1  0  0  0  0
 16  5  1  1  0  0  0
 17 21  1  6  0  0  0
 17 11  1  0  0  0  0
 19 26  1  1  0  0  0
 20  7  2  0  0  0  0
 23 25  2  0  0  0  0
 24 25  2  0  0  0  0
 25 22  1  0  0  0  0
 26 29  1  0  0  0  0
 27 29  2  0  0  0  0
 29 28  1  0  0  0  0
M  END
>  <MODEL>
4

>  <REMARK>
 VINA RESULT:      -5.6      1.307      1.371
  Name = 
  3 active torsions:
  status: ('A' for Active; 'I' for Inactive)
    1  A    between atoms: C_2  and  S_21
    2  A    between atoms: C_22  and  C_26
    3  A    between atoms: C_26  and  C_27
                            x       y       z     vdW  Elec       q    Type
                         _______ _______ _______ _____ _____    ______ ____

>  <TORSDO>
F 3

$$$$
=
 OpenBabel11062416213D

 29 32  0  0  1  0  0  0  0  0999 V2000
  187.7830  178.6830  137.3000 C   0  0  0  0  0  3  0  0  0  0  0  0
  182.8460  178.1300  138.2030 C   0  0  2  0  0  3  0  0  0  0  0  0
  183.9470  176.3150  136.2350 C   0  0  0  0  0  3  0  0  0  0  0  0
  187.7090  178.2970  141.2230 C   0  0  0  0  0  0  0  0  0  0  0  0
  185.7020  178.8440  139.7860 C   0  0  0  0  0  2  0  0  0  0  0  0
  187.9750  177.9310  142.6460 C   0  0  0  0  0  2  0  0  0  0  0  0
  185.7850  178.3010  142.3520 C   0  0  0  0  0  0  0  0  0  0  0  0
  184.3760  178.0250  138.0220 C   0  0  2  0  0  3  0  0  0  0  0  0
  184.3300  178.4270  142.6370 C   0  0  0  0  0  1  0  0  0  0  0  0
  187.0850  176.4780  137.6000 N   0  0  0  0  0  0  0  0  0  0  0  0
  184.8280  177.0520  136.9280 C   0  0  0  0  0  0  0  0  0  0  0  0
  182.0770  177.7490  136.9430 C   0  0  0  0  0  2  0  0  0  0  0  0
  187.8790  177.3930  138.0280 C   0  0  0  0  0  0  0  0  0  0  0  0
  188.7680  178.3440  140.1640 C   0  0  0  0  0  2  0  0  0  0  0  0
  188.6000  177.2300  139.2470 N   0  0  0  0  0  2  0  0  0  0  0  0
  186.4100  178.5130  141.0610 C   0  0  0  0  0  0  0  0  0  0  0  0
  186.2710  176.9690  136.5050 C   0  0  1  0  0  3  0  0  0  0  0  0
  184.9870  177.6730  139.2970 N   0  0  0  0  0  2  0  0  0  0  0  0
  182.4800  176.3420  136.5340 C   0  0  1  0  0  3  0  0  0  0  0  0
  186.6470  177.9740  143.2530 N   0  0  0  0  0  0  0  0  0  0  0  0
  186.8140  178.3590  136.1740 C   0  0  0  0  0  3  0  0  0  0  0  0
  181.3190  180.4720  137.5380 N   0  0  0  0  0  1  0  0  0  0  0  0
  181.6810  179.7170  140.0390 O   0  0  0  0  0  0  0  0  0  0  0  0
  183.6060  180.6350  138.8430 O   0  0  0  0  0  0  0  0  0  0  0  0
  182.3810  179.7780  138.7110 S   0  0  0  0  0  0  0  0  0  0  0  0
  181.7040  175.8960  135.3050 C   0  0  0  0  0  2  0  0  0  0  0  0
  180.6310  173.9190  134.5950 O   0  0  0  0  0  0  0  0  0  0  0  0
  180.8240  174.0920  136.9290 C   0  0  0  0  0  1  0  0  0  0  0  0
  181.0300  174.5830  135.5380 C   0  0  0  0  0  0  0  0  0  0  0  0
  1 13  1  0  0  0  0
  2 25  1  6  0  0  0
  3 19  1  0  0  0  0
  3 11  2  0  0  0  0
  4  6  1  0  0  0  0
  5 16  1  0  0  0  0
  6 20  1  0  0  0  0
  7  9  1  0  0  0  0
  7 20  2  0  0  0  0
  8 11  1  6  0  0  0
  8  2  1  0  0  0  0
  8 18  1  0  0  0  0
 10 13  2  0  0  0  0
 12  2  1  0  0  0  0
 13 15  1  0  0  0  0
 14  4  1  0  0  0  0
 15 14  1  0  0  0  0
 16  4  2  0  0  0  0
 16  7  1  0  0  0  0
 17 21  1  1  0  0  0
 17 11  1  0  0  0  0
 17 10  1  0  0  0  0
 18  5  1  0  0  0  0
 19 26  1  6  0  0  0
 19 12  1  0  0  0  0
 21  1  2  0  0  0  0
 22 25  1  0  0  0  0
 25 24  2  0  0  0  0
 25 23  2  0  0  0  0
 26 29  1  0  0  0  0
 27 29  2  0  0  0  0
 29 28  1  0  0  0  0
M  END
>  <MODEL>
5

>  <REMARK>
 VINA RESULT:      -5.4      3.220      7.749
  Name = 
  3 active torsions:
  status: ('A' for Active; 'I' for Inactive)
    1  A    between atoms: C_2  and  S_21
    2  A    between atoms: C_22  and  C_26
    3  A    between atoms: C_26  and  C_27
                            x       y       z     vdW  Elec       q    Type
                         _______ _______ _______ _____ _____    ______ ____

>  <TORSDO>
F 3

$$$$
=
 OpenBabel11062416213D

 29 32  0  0  1  0  0  0  0  0999 V2000
  187.3240  177.9780  135.3500 C   0  0  0  0  0  3  0  0  0  0  0  0
  183.8670  177.6600  139.0170 C   0  0  2  0  0  3  0  0  0  0  0  0
  183.5280  175.7810  136.8410 C   0  0  0  0  0  3  0  0  0  0  0  0
  189.5770  177.6250  138.5650 C   0  0  0  0  0  0  0  0  0  0  0  0
  187.1280  178.2530  138.5780 C   0  0  0  0  0  2  0  0  0  0  0  0
  190.6220  177.2590  139.5670 C   0  0  0  0  0  2  0  0  0  0  0  0
  188.6970  177.7260  140.6140 C   0  0  0  0  0  0  0  0  0  0  0  0
  184.9880  177.4840  137.9690 C   0  0  2  0  0  3  0  0  0  0  0  0
  187.7000  177.9210  141.7000 C   0  0  0  0  0  1  0  0  0  0  0  0
  186.8680  175.8100  136.0770 N   0  0  0  0  0  0  0  0  0  0  0  0
  184.6720  176.4820  136.8530 C   0  0  0  0  0  0  0  0  0  0  0  0
  182.4890  177.3050  138.4700 C   0  0  0  0  0  2  0  0  0  0  0  0
  187.7900  176.6910  135.9220 C   0  0  0  0  0  0  0  0  0  0  0  0
  189.8030  177.6160  137.0840 C   0  0  0  0  0  2  0  0  0  0  0  0
  189.0870  176.5030  136.4830 N   0  0  0  0  0  2  0  0  0  0  0  0
  188.4420  177.9000  139.1970 C   0  0  0  0  0  0  0  0  0  0  0  0
  185.5800  176.3300  135.6610 C   0  0  1  0  0  3  0  0  0  0  0  0
  186.2240  177.1130  138.6470 N   0  0  0  0  0  2  0  0  0  0  0  0
  182.5260  175.8780  137.9490 C   0  0  1  0  0  3  0  0  0  0  0  0
  189.9150  177.3670  140.8400 N   0  0  0  0  0  0  0  0  0  0  0  0
  185.8660  177.6910  135.0270 C   0  0  0  0  0  3  0  0  0  0  0  0
  182.2160  179.8610  139.8450 N   0  0  0  0  0  1  0  0  0  0  0  0
  184.5490  179.3780  140.9740 O   0  0  0  0  0  0  0  0  0  0  0  0
  184.5560  180.2450  138.6880 O   0  0  0  0  0  0  0  0  0  0  0  0
  183.8480  179.3310  139.6460 S   0  0  0  0  0  0  0  0  0  0  0  0
  181.1580  175.4590  137.4330 C   0  0  0  0  0  2  0  0  0  0  0  0
  180.4340  173.2810  137.9730 O   0  0  0  0  0  0  0  0  0  0  0  0
  179.9970  174.8570  139.6590 C   0  0  0  0  0  1  0  0  0  0  0  0
  180.5290  174.4430  138.3310 C   0  0  0  0  0  0  0  0  0  0  0  0
  1 13  1  0  0  0  0
  2 25  1  6  0  0  0
  3 11  2  0  0  0  0
  3 19  1  0  0  0  0
  4 16  2  0  0  0  0
  4  6  1  0  0  0  0
  5 18  1  0  0  0  0
  5 16  1  0  0  0  0
  6 20  1  0  0  0  0
  7 20  2  0  0  0  0
  7  9  1  0  0  0  0
  8 11  1  6  0  0  0
  8 18  1  0  0  0  0
  8  2  1  0  0  0  0
 12  2  1  0  0  0  0
 13 10  2  0  0  0  0
 13 15  1  0  0  0  0
 14  4  1  0  0  0  0
 15 14  1  0  0  0  0
 16  7  1  0  0  0  0
 17 21  1  1  0  0  0
 17 10  1  0  0  0  0
 17 11  1  0  0  0  0
 19 26  1  6  0  0  0
 19 12  1  0  0  0  0
 21  1  2  0  0  0  0
 24 25  2  0  0  0  0
 25 22  1  0  0  0  0
 25 23  2  0  0  0  0
 26 29  1  0  0  0  0
 27 29  2  0  0  0  0
 29 28  1  0  0  0  0
M  END
>  <MODEL>
6

>  <REMARK>
 VINA RESULT:      -5.4      3.682      7.642
  Name = 
  3 active torsions:
  status: ('A' for Active; 'I' for Inactive)
    1  A    between atoms: C_2  and  S_21
    2  A    between atoms: C_22  and  C_26
    3  A    between atoms: C_26  and  C_27
                            x       y       z     vdW  Elec       q    Type
                         _______ _______ _______ _____ _____    ______ ____

>  <TORSDO>
F 3

$$$$
=
 OpenBabel11062416213D

 29 32  0  0  1  0  0  0  0  0999 V2000
  184.3890  177.7670  141.1160 C   0  0  0  0  0  3  0  0  0  0  0  0
  183.3590  177.1700  136.2080 C   0  0  2  0  0  3  0  0  0  0  0  0
  181.7750  179.1800  137.5610 C   0  0  0  0  0  3  0  0  0  0  0  0
  187.9560  178.1460  139.4820 C   0  0  0  0  0  0  0  0  0  0  0  0
  185.9400  177.1430  138.3330 C   0  0  0  0  0  2  0  0  0  0  0  0
  189.3380  178.5700  139.1040 C   0  0  0  0  0  2  0  0  0  0  0  0
  188.2950  177.7040  137.3210 C   0  0  0  0  0  0  0  0  0  0  0  0
  183.7440  177.6240  137.6330 C   0  0  2  0  0  3  0  0  0  0  0  0
  188.0360  177.2470  135.9290 C   0  0  0  0  0  1  0  0  0  0  0  0
  184.2070  179.7530  139.9060 N   0  0  0  0  0  0  0  0  0  0  0  0
  182.8080  178.6700  138.2480 C   0  0  0  0  0  0  0  0  0  0  0  0
  181.8750  177.3570  135.9120 C   0  0  0  0  0  2  0  0  0  0  0  0
  184.9790  179.0480  140.6530 C   0  0  0  0  0  0  0  0  0  0  0  0
  187.3700  178.3390  140.8470 C   0  0  0  0  0  2  0  0  0  0  0  0
  186.3560  179.3800  140.8060 N   0  0  0  0  0  2  0  0  0  0  0  0
  187.3500  177.6350  138.4180 C   0  0  0  0  0  0  0  0  0  0  0  0
  182.9390  179.0810  139.6910 C   0  0  1  0  0  3  0  0  0  0  0  0
  185.1170  178.1150  137.6260 N   0  0  0  0  0  2  0  0  0  0  0  0
  181.5160  178.8170  136.1320 C   0  0  1  0  0  3  0  0  0  0  0  0
  189.4160  178.2250  137.6870 N   0  0  0  0  0  0  0  0  0  0  0  0
  182.9610  177.8520  140.6000 C   0  0  0  0  0  3  0  0  0  0  0  0
  183.7140  174.5980  137.4390 N   0  0  0  0  0  1  0  0  0  0  0  0
  182.8710  174.8390  134.9520 O   0  0  0  0  0  0  0  0  0  0  0  0
  185.2110  175.3810  135.4130 O   0  0  0  0  0  0  0  0  0  0  0  0
  183.8100  175.4620  135.9460 S   0  0  0  0  0  0  0  0  0  0  0  0
  180.0520  179.0650  135.8040 C   0  0  0  0  0  2  0  0  0  0  0  0
  178.9310  181.0620  136.3700 O   0  0  0  0  0  0  0  0  0  0  0  0
  180.4990  181.3270  134.6420 C   0  0  0  0  0  1  0  0  0  0  0  0
  179.7700  180.5260  135.6640 C   0  0  0  0  0  0  0  0  0  0  0  0
  2 25  1  1  0  0  0
  2  8  1  0  0  0  0
  3 11  2  0  0  0  0
  4 14  1  0  0  0  0
  5 16  1  0  0  0  0
  6  4  1  0  0  0  0
  7 20  2  0  0  0  0
  7 16  1  0  0  0  0
  8 18  1  6  0  0  0
  8 11  1  0  0  0  0
  9  7  1  0  0  0  0
 10 13  2  0  0  0  0
 11 17  1  0  0  0  0
 12 19  1  0  0  0  0
 12  2  1  0  0  0  0
 13 15  1  0  0  0  0
 13  1  1  0  0  0  0
 15 14  1  0  0  0  0
 16  4  2  0  0  0  0
 17 10  1  0  0  0  0
 17 21  1  1  0  0  0
 18  5  1  0  0  0  0
 19 26  1  1  0  0  0
 19  3  1  0  0  0  0
 20  6  1  0  0  0  0
 21  1  2  0  0  0  0
 23 25  2  0  0  0  0
 24 25  2  0  0  0  0
 25 22  1  0  0  0  0
 28 29  1  0  0  0  0
 29 26  1  0  0  0  0
 29 27  2  0  0  0  0
M  END
>  <MODEL>
7

>  <REMARK>
 VINA RESULT:      -5.3      4.008      7.148
  Name = 
  3 active torsions:
  status: ('A' for Active; 'I' for Inactive)
    1  A    between atoms: C_2  and  S_21
    2  A    between atoms: C_22  and  C_26
    3  A    between atoms: C_26  and  C_27
                            x       y       z     vdW  Elec       q    Type
                         _______ _______ _______ _____ _____    ______ ____

>  <TORSDO>
F 3

$$$$
=
 OpenBabel11062416213D

 29 32  0  0  1  0  0  0  0  0999 V2000
  183.8970  180.3380  144.2950 C   0  0  0  0  0  3  0  0  0  0  0  0
  187.2490  177.4960  141.8080 C   0  0  2  0  0  3  0  0  0  0  0  0
  187.2840  177.2010  144.6870 C   0  0  0  0  0  3  0  0  0  0  0  0
  181.6110  178.4920  141.6680 C   0  0  0  0  0  0  0  0  0  0  0  0
  184.1290  178.6620  141.5250 C   0  0  0  0  0  2  0  0  0  0  0  0
  180.5180  177.7560  140.9650 C   0  0  0  0  0  3  0  0  0  0  0  0
  182.4900  177.2690  140.0220 C   0  0  0  0  0  0  0  0  0  0  0  0
  186.1160  178.1110  142.6590 C   0  0  2  0  0  3  0  0  0  0  0  0
  183.5040  176.6630  139.1170 C   0  0  0  0  0  1  0  0  0  0  0  0
  183.9940  178.1120  144.9840 N   0  0  0  0  0  0  0  0  0  0  0  0
  186.2690  177.9100  144.1710 C   0  0  0  0  0  0  0  0  0  0  0  0
  188.5520  177.3440  142.5840 C   0  0  0  0  0  2  0  0  0  0  0  0
  183.2270  179.0330  144.5230 C   0  0  0  0  0  0  0  0  0  0  0  0
  181.3890  179.3720  142.8600 C   0  0  0  0  0  2  0  0  0  0  0  0
  181.9160  178.7310  144.0530 N   0  0  0  0  0  2  0  0  0  0  0  0
  182.7730  178.1950  141.1010 C   0  0  1  0  0  3  0  0  0  0  0  0
  185.3510  178.5990  145.1450 C   0  0  1  0  0  3  0  0  0  0  0  0
  184.8350  177.5850  142.2050 N   0  0  0  0  0  2  0  0  0  0  0  0
  188.2860  176.5030  143.8210 C   0  0  1  0  0  3  0  0  0  0  0  0
  181.2300  177.0110  139.9310 N   0  0  0  0  0  0  0  0  0  0  0  0
  185.2900  180.0990  144.8580 C   0  0  0  0  0  3  0  0  0  0  0  0
  188.3940  177.5310  139.1730 N   0  0  0  0  0  1  0  0  0  0  0  0
  186.2220  178.9080  139.7580 O   0  0  0  0  0  0  0  0  0  0  0  0
  188.3440  179.6900  140.6890 O   0  0  0  0  0  0  0  0  0  0  0  0
  187.5370  178.4730  140.3410 S   0  0  0  0  0  0  0  0  0  0  0  0
  189.5690  176.2820  144.6080 C   0  0  0  0  0  2  0  0  0  0  0  0
  190.1430  178.4990  145.1720 O   0  0  0  0  0  0  0  0  0  0  0  0
  189.6600  177.1550  147.0360 C   0  0  0  0  0  1  0  0  0  0  0  0
  189.8080  177.3970  145.5750 C   0  0  0  0  0  0  0  0  0  0  0  0
  1 13  1  0  0  0  0
  1 21  2  0  0  0  0
  2 25  1  6  0  0  0
  2 12  1  0  0  0  0
  2  8  1  0  0  0  0
  4 14  1  0  0  0  0
  5 18  1  0  0  0  0
  6  4  2  0  0  0  0
  7 16  1  0  0  0  0
  8 18  1  6  0  0  0
  8 11  1  0  0  0  0
  9  7  1  0  0  0  0
 10 17  1  0  0  0  0
 11  3  2  0  0  0  0
 11 17  1  0  0  0  0
 12 19  1  0  0  0  0
 13 10  2  0  0  0  0
 14 15  1  0  0  0  0
 15 13  1  0  0  0  0
 16  5  1  1  0  0  0
 16  4  1  0  0  0  0
 17 21  1  6  0  0  0
 19 26  1  1  0  0  0
 19  3  1  0  0  0  0
 20  7  2  0  0  0  0
 20  6  1  0  0  0  0
 22 25  1  0  0  0  0
 23 25  2  0  0  0  0
 25 24  2  0  0  0  0
 26 29  1  0  0  0  0
 27 29  2  0  0  0  0
 29 28  1  0  0  0  0
M  END
>  <MODEL>
8

>  <REMARK>
 VINA RESULT:      -5.2      2.612      4.514
  Name = 
  3 active torsions:
  status: ('A' for Active; 'I' for Inactive)
    1  A    between atoms: C_2  and  S_21
    2  A    between atoms: C_22  and  C_26
    3  A    between atoms: C_26  and  C_27
                            x       y       z     vdW  Elec       q    Type
                         _______ _______ _______ _____ _____    ______ ____

>  <TORSDO>
F 3

$$$$
=
 OpenBabel11062416213D

 29 32  0  0  1  0  0  0  0  0999 V2000
  179.8280  175.5690  136.4370 C   0  0  0  0  0  3  0  0  0  0  0  0
  184.1740  176.8550  138.6630 C   0  0  2  0  0  3  0  0  0  0  0  0
  181.7950  177.3370  140.2400 C   0  0  0  0  0  3  0  0  0  0  0  0
  181.9230  172.2460  136.1130 C   0  0  0  0  0  0  0  0  0  0  0  0
  182.8930  174.5210  136.6420 C   0  0  0  0  0  2  0  0  0  0  0  0
  182.3950  170.8300  136.0890 C   0  0  0  0  0  3  0  0  0  0  0  0
  184.0900  172.1860  136.6430 C   0  0  0  0  0  0  0  0  0  0  0  0
  182.8160  176.2780  138.2050 C   0  0  2  0  0  3  0  0  0  0  0  0
  185.4480  172.6500  137.0340 C   0  0  0  0  0  1  0  0  0  0  0  0
  180.0390  174.8630  138.6490 N   0  0  0  0  0  0  0  0  0  0  0  0
  181.6320  176.6310  139.1120 C   0  0  0  0  0  0  0  0  0  0  0  0
  184.0230  178.1010  139.5280 C   0  0  0  0  0  2  0  0  0  0  0  0
  179.8440  174.4760  137.4390 C   0  0  0  0  0  0  0  0  0  0  0  0
  180.5050  172.6560  135.8550 C   0  0  0  0  0  2  0  0  0  0  0  0
  179.8840  173.0930  137.0950 N   0  0  0  0  0  2  0  0  0  0  0  0
  182.9350  173.0390  136.4430 C   0  0  1  0  0  3  0  0  0  0  0  0
  180.2180  176.3010  138.7110 C   0  0  1  0  0  3  0  0  0  0  0  0
  182.9320  174.8320  138.0640 N   0  0  0  0  0  2  0  0  0  0  0  0
  183.1480  177.7610  140.7220 C   0  0  1  0  0  3  0  0  0  0  0  0
  183.8060  170.9430  136.4490 N   0  0  0  0  0  0  0  0  0  0  0  0
  179.9240  176.8170  137.3020 C   0  0  0  0  0  3  0  0  0  0  0  0
  186.1820  178.6120  137.5960 N   0  0  0  0  0  1  0  0  0  0  0  0
  186.1030  176.0530  136.9640 O   0  0  0  0  0  0  0  0  0  0  0  0
  184.3540  177.5000  136.0520 O   0  0  0  0  0  0  0  0  0  0  0  0
  185.2090  177.2250  137.2560 S   0  0  0  0  0  0  0  0  0  0  0  0
  183.0040  178.9620  141.6430 C   0  0  0  0  0  2  0  0  0  0  0  0
  184.8050  178.2690  142.9990 O   0  0  0  0  0  0  0  0  0  0  0  0
  182.9400  179.0020  144.2240 C   0  0  0  0  0  1  0  0  0  0  0  0
  183.6710  178.7180  142.9580 C   0  0  0  0  0  0  0  0  0  0  0  0
  1 21  2  0  0  0  0
  1 13  1  0  0  0  0
  2 25  1  6  0  0  0
  2 12  1  0  0  0  0
  3 19  1  0  0  0  0
  4 16  1  0  0  0  0
  5 18  1  0  0  0  0
  6  4  2  0  0  0  0
  6 20  1  0  0  0  0
  7  9  1  0  0  0  0
  8 18  1  1  0  0  0
  8  2  1  0  0  0  0
  8 11  1  0  0  0  0
 10 17  1  0  0  0  0
 11  3  2  0  0  0  0
 12 19  1  0  0  0  0
 13 10  2  0  0  0  0
 14  4  1  0  0  0  0
 14 15  1  0  0  0  0
 15 13  1  0  0  0  0
 16  5  1  1  0  0  0
 16  7  1  0  0  0  0
 17 21  1  6  0  0  0
 17 11  1  0  0  0  0
 19 26  1  1  0  0  0
 20  7  2  0  0  0  0
 23 25  2  0  0  0  0
 24 25  2  0  0  0  0
 25 22  1  0  0  0  0
 26 29  1  0  0  0  0
 29 27  2  0  0  0  0
 29 28  1  0  0  0  0
M  END
>  <MODEL>
9

>  <REMARK>
 VINA RESULT:      -5.2      2.257      3.650
  Name = 
  3 active torsions:
  status: ('A' for Active; 'I' for Inactive)
    1  A    between atoms: C_2  and  S_21
    2  A    between atoms: C_22  and  C_26
    3  A    between atoms: C_26  and  C_27
                            x       y       z     vdW  Elec       q    Type
                         _______ _______ _______ _____ _____    ______ ____

>  <TORSDO>
F 3

$$$$
