=
 OpenBabel11062417443D

 39 38  0  0  1  0  0  0  0  0999 V2000
  188.3720  177.9370  143.2690 C   0  0  1  0  0  3  0  0  0  0  0  0
  186.9780  179.0690  141.6740 O   0  0  0  0  0  0  0  0  0  0  0  0
  187.8660  178.1980  141.8820 C   0  0  0  0  0  0  0  0  0  0  0  0
  188.3800  177.4260  140.7990 N   0  0  0  0  0  2  0  0  0  0  0  0
  187.9500  177.6480  139.4800 N   0  0  0  0  0  2  0  0  0  0  0  0
  189.1330  179.3490  138.3810 O   0  0  0  0  0  1  0  0  0  0  0  0
  189.1090  177.9770  138.6480 C   0  0  1  0  0  0  0  0  0  0  0  0
  190.3930  177.6000  139.3830 C   0  0  0  0  0  1  0  0  0  0  0  0
  188.9820  177.2350  137.3360 C   0  0  0  0  0  0  0  0  0  0  0  0
  189.1610  177.8410  136.2900 O   0  0  0  0  0  0  0  0  0  0  0  0
  188.6040  175.7840  137.2650 C   0  0  0  0  0  2  0  0  0  0  0  0
  189.5380  175.0570  136.4220 N   0  0  0  0  0  2  0  0  0  0  0  0
  193.3510  174.3440  137.6550 C   0  0  0  0  0  1  0  0  0  0  0  0
  190.8520  174.8120  136.8440 C   0  0  0  0  0  0  0  0  0  0  0  0
  191.9820  174.6020  137.2100 C   0  0  0  0  0  0  0  0  0  0  0  0
  186.5550  177.2630  144.8610 C   0  0  0  0  0  3  0  0  0  0  0  0
  187.5380  176.9290  144.0160 C   0  0  0  0  0  3  0  0  0  0  0  0
  186.1850  178.6810  145.1520 C   0  0  0  0  0  2  0  0  0  0  0  0
  184.6760  178.8170  145.1680 C   0  0  0  0  0  2  0  0  0  0  0  0
  184.2170  179.7520  144.0590 C   0  0  0  0  0  2  0  0  0  0  0  0
  183.0420  179.1610  143.2830 C   0  0  1  0  0  3  0  0  0  0  0  0
  182.8580  178.6150  140.7660 N   0  0  0  0  0  0  0  0  0  0  0  0
  180.9640  179.4200  139.6260 O   0  0  0  0  0  0  0  0  0  0  0  0
  184.4850  177.6630  142.1410 O   0  0  0  0  0  0  0  0  0  0  0  0
  181.6980  179.4540  140.6490 C   0  0  0  0  0  3  0  0  0  0  0  0
  183.5010  178.4430  142.0420 C   0  0  0  0  0  0  0  0  0  0  0  0
  184.5240  177.5030  137.4960 C   0  0  0  0  0  1  0  0  0  0  0  0
  183.3130  177.8430  139.6790 N   0  0  0  0  0  2  0  0  0  0  0  0
  184.9720  179.3260  138.9510 O   0  0  0  0  0  0  0  0  0  0  0  0
  184.2850  178.2940  138.7310 C   0  0  0  0  0  0  0  0  0  0  0  0
  182.3080  178.3010  144.1020 O   0  0  0  0  0  0  0  0  0  0  0  0
  180.9870  178.7390  143.9870 C   0  0  0  0  0  1  0  0  0  0  0  0
  189.8540  177.5670  143.2740 C   0  0  0  0  0  2  0  0  0  0  0  0
  190.5850  178.0820  144.5110 C   0  0  0  0  0  2  0  0  0  0  0  0
  191.0060  176.9920  145.3200 O   0  0  0  0  0  0  0  0  0  0  0  0
  190.7850  176.9570  146.6990 C   0  0  0  0  0  0  0  0  0  0  0  0
  191.7560  176.8760  147.5020 O   0  0  0  0  0  0  0  0  0  0  0  0
  189.0340  177.8660  148.1390 C   0  0  0  0  0  2  0  0  0  0  0  0
  189.4070  177.0090  147.1980 C   0  0  0  0  0  3  0  0  0  0  0  0
  1 33  1  6  0  0  0
  1 17  1  0  0  0  0
  2  3  2  0  0  0  0
  3  1  1  0  0  0  0
  4  3  1  0  0  0  0
  5  4  1  0  0  0  0
  6  7  1  0  0  0  0
  7  8  1  1  0  0  0
  7  5  1  0  0  0  0
  9  7  1  0  0  0  0
 10  9  2  0  0  0  0
 11  9  1  0  0  0  0
 12 14  1  0  0  0  0
 12 11  1  0  0  0  0
 14 15  3  0  0  0  0
 15 13  1  0  0  0  0
 16 18  1  0  0  0  0
 17 16  2  0  0  0  0
 18 19  1  0  0  0  0
 20 19  1  0  0  0  0
 21 20  1  1  0  0  0
 21 31  1  0  0  0  0
 22 26  1  0  0  0  0
 23 25  2  0  0  0  0
 25 22  1  0  0  0  0
 26 24  2  0  0  0  0
 26 21  1  0  0  0  0
 27 30  1  0  0  0  0
 28 22  1  0  0  0  0
 30 29  2  0  0  0  0
 30 28  1  0  0  0  0
 32 31  1  0  0  0  0
 33 34  1  0  0  0  0
 34 35  1  0  0  0  0
 35 36  1  0  0  0  0
 36 39  1  0  0  0  0
 36 37  2  0  0  0  0
 39 38  2  0  0  0  0
M  END
>  <MODEL>
1

>  <REMARK>
 VINA RESULT:      -6.5      0.000      0.000
  Name = 
  20 active torsions:
  status: ('A' for Active; 'I' for Inactive)
    1  A    between atoms: O_3  and  C_11
    2  A    between atoms: O_3  and  C_12
    3  A    between atoms: N_4  and  N_13
    4  A    between atoms: C_7  and  C_20
    5  A    between atoms: C_7  and  C_35
    6  A    between atoms: C_10  and  O_17
    7  A    between atoms: C_10  and  C_26
    8  A    between atoms: C_10  and  C_39
    9  A    between atoms: C_11  and  C_19
   10  A    between atoms: C_12  and  C_38
   11  A    between atoms: N_14  and  C_24
   12  A    between atoms: N_14  and  N_36
   13  A    between atoms: N_16  and  C_22
   14  A    between atoms: N_16  and  C_27
   15  A    between atoms: C_22  and  C_28
   16  A    between atoms: C_24  and  C_28
   17  A    between atoms: C_26  and  C_35
   18  A    between atoms: C_29  and  C_32
   19  A    between atoms: C_32  and  C_33
   20  A    between atoms: C_32  and  C_38
                            x       y       z     vdW  Elec       q    Type
                         _______ _______ _______ _____ _____    ______ ____

>  <TORSDO>
F 20

$$$$
=
 OpenBabel11062417443D

 39 38  0  0  1  0  0  0  0  0999 V2000
  189.5920  177.3970  138.1650 C   0  0  1  0  0  3  0  0  0  0  0  0
  188.9490  179.2810  139.5080 O   0  0  0  0  0  0  0  0  0  0  0  0
  189.3610  178.0890  139.4750 C   0  0  0  0  0  0  0  0  0  0  0  0
  189.6440  177.3940  140.6860 N   0  0  0  0  0  2  0  0  0  0  0  0
  189.4240  177.9960  141.9370 N   0  0  0  0  0  2  0  0  0  0  0  0
  191.7190  177.5090  141.9680 O   0  0  0  0  0  1  0  0  0  0  0  0
  190.6150  177.8140  142.7700 C   0  0  1  0  0  0  0  0  0  0  0  0
  190.9090  179.1030  143.5350 C   0  0  0  0  0  1  0  0  0  0  0  0
  190.3700  176.6550  143.7100 C   0  0  0  0  0  0  0  0  0  0  0  0
  189.2370  176.2100  143.8240 O   0  0  0  0  0  0  0  0  0  0  0  0
  191.4610  176.0510  144.5440 C   0  0  0  0  0  2  0  0  0  0  0  0
  191.6070  176.7770  145.7940 N   0  0  0  0  0  2  0  0  0  0  0  0
  188.3910  177.4820  148.1880 C   0  0  0  0  0  1  0  0  0  0  0  0
  190.5000  177.0220  146.6190 C   0  0  0  0  0  0  0  0  0  0  0  0
  189.5470  177.2310  147.3270 C   0  0  0  0  0  0  0  0  0  0  0  0
  187.9710  178.2190  136.4370 C   0  0  0  0  0  3  0  0  0  0  0  0
  189.1940  178.2380  136.9810 C   0  0  0  0  0  3  0  0  0  0  0  0
  186.8690  177.3540  136.9550 C   0  0  0  0  0  2  0  0  0  0  0  0
  185.8100  178.2190  137.6090 C   0  0  0  0  0  2  0  0  0  0  0  0
  185.8320  178.0310  139.1190 C   0  0  0  0  0  2  0  0  0  0  0  0
  184.7560  178.8730  139.8000 C   0  0  1  0  0  3  0  0  0  0  0  0
  184.2160  179.0750  142.3170 N   0  0  0  0  0  0  0  0  0  0  0  0
  181.9760  178.7580  142.9660 O   0  0  0  0  0  0  0  0  0  0  0  0
  186.2960  179.6480  141.4300 O   0  0  0  0  0  0  0  0  0  0  0  0
  182.8660  178.6420  142.0820 C   0  0  0  0  0  3  0  0  0  0  0  0
  185.1320  179.2170  141.2170 C   0  0  0  0  0  0  0  0  0  0  0  0
  185.5620  179.1160  145.9080 C   0  0  0  0  0  1  0  0  0  0  0  0
  184.6360  179.4930  143.5950 N   0  0  0  0  0  2  0  0  0  0  0  0
  185.8940  177.5900  144.1190 O   0  0  0  0  0  0  0  0  0  0  0  0
  185.3700  178.6670  144.5040 C   0  0  0  0  0  0  0  0  0  0  0  0
  184.5140  180.0330  139.0620 O   0  0  0  0  0  0  0  0  0  0  0  0
  183.1340  180.0430  138.8510 C   0  0  0  0  0  1  0  0  0  0  0  0
  191.0230  176.8770  138.0410 C   0  0  0  0  0  2  0  0  0  0  0  0
  191.1050  175.3560  138.1140 C   0  0  0  0  0  2  0  0  0  0  0  0
  192.2030  174.8860  137.3430 O   0  0  0  0  0  0  0  0  0  0  0  0
  193.4540  175.5080  137.3670 C   0  0  0  0  0  0  0  0  0  0  0  0
  193.9840  175.8400  138.4630 O   0  0  0  0  0  0  0  0  0  0  0  0
  193.4830  176.1760  135.0180 C   0  0  0  0  0  2  0  0  0  0  0  0
  194.1380  175.7730  136.0980 C   0  0  0  0  0  3  0  0  0  0  0  0
  1 17  1  6  0  0  0
  1  3  1  0  0  0  0
  3  2  2  0  0  0  0
  3  4  1  0  0  0  0
  4  5  1  0  0  0  0
  5  7  1  0  0  0  0
  6  7  1  0  0  0  0
  7  8  1  1  0  0  0
  7  9  1  0  0  0  0
  9 10  2  0  0  0  0
  9 11  1  0  0  0  0
 11 12  1  0  0  0  0
 12 14  1  0  0  0  0
 14 15  3  0  0  0  0
 15 13  1  0  0  0  0
 16 18  1  0  0  0  0
 16 17  2  0  0  0  0
 18 19  1  0  0  0  0
 19 20  1  0  0  0  0
 21 20  1  6  0  0  0
 21 26  1  0  0  0  0
 22 28  1  0  0  0  0
 25 22  1  0  0  0  0
 25 23  2  0  0  0  0
 26 24  2  0  0  0  0
 26 22  1  0  0  0  0
 28 30  1  0  0  0  0
 29 30  2  0  0  0  0
 30 27  1  0  0  0  0
 31 21  1  0  0  0  0
 32 31  1  0  0  0  0
 33 34  1  0  0  0  0
 33  1  1  0  0  0  0
 35 36  1  0  0  0  0
 35 34  1  0  0  0  0
 36 37  2  0  0  0  0
 38 39  2  0  0  0  0
 39 36  1  0  0  0  0
M  END
>  <MODEL>
2

>  <REMARK>
 VINA RESULT:      -6.1      2.231      7.105
  Name = 
  20 active torsions:
  status: ('A' for Active; 'I' for Inactive)
    1  A    between atoms: O_3  and  C_11
    2  A    between atoms: O_3  and  C_12
    3  A    between atoms: N_4  and  N_13
    4  A    between atoms: C_7  and  C_20
    5  A    between atoms: C_7  and  C_35
    6  A    between atoms: C_10  and  O_17
    7  A    between atoms: C_10  and  C_26
    8  A    between atoms: C_10  and  C_39
    9  A    between atoms: C_11  and  C_19
   10  A    between atoms: C_12  and  C_38
   11  A    between atoms: N_14  and  C_24
   12  A    between atoms: N_14  and  N_36
   13  A    between atoms: N_16  and  C_22
   14  A    between atoms: N_16  and  C_27
   15  A    between atoms: C_22  and  C_28
   16  A    between atoms: C_24  and  C_28
   17  A    between atoms: C_26  and  C_35
   18  A    between atoms: C_29  and  C_32
   19  A    between atoms: C_32  and  C_33
   20  A    between atoms: C_32  and  C_38
                            x       y       z     vdW  Elec       q    Type
                         _______ _______ _______ _____ _____    ______ ____

>  <TORSDO>
F 20

$$$$
=
 OpenBabel11062417443D

 39 38  0  0  1  0  0  0  0  0999 V2000
  190.3780  177.4630  139.0120 C   0  0  1  0  0  3  0  0  0  0  0  0
  192.5380  177.3190  140.0510 O   0  0  0  0  0  0  0  0  0  0  0  0
  191.2900  177.4270  140.2020 C   0  0  0  0  0  0  0  0  0  0  0  0
  190.7270  177.4840  141.5100 N   0  0  0  0  0  2  0  0  0  0  0  0
  191.5450  177.4710  142.6530 N   0  0  0  0  0  2  0  0  0  0  0  0
  189.6600  176.2070  143.2430 O   0  0  0  0  0  1  0  0  0  0  0  0
  190.8680  176.7280  143.7170 C   0  0  1  0  0  0  0  0  0  0  0  0
  191.7510  175.5710  144.1780 C   0  0  0  0  0  1  0  0  0  0  0  0
  190.5670  177.6810  144.8510 C   0  0  0  0  0  0  0  0  0  0  0  0
  190.3260  178.8520  144.5970 O   0  0  0  0  0  0  0  0  0  0  0  0
  190.5900  177.2540  146.2900 C   0  0  0  0  0  2  0  0  0  0  0  0
  189.3020  176.7040  146.6780 N   0  0  0  0  0  2  0  0  0  0  0  0
  185.8590  178.7620  145.9840 C   0  0  0  0  0  1  0  0  0  0  0  0
  188.1160  177.4110  146.4390 C   0  0  0  0  0  0  0  0  0  0  0  0
  187.0950  178.0210  146.2340 C   0  0  0  0  0  0  0  0  0  0  0  0
  190.6180  175.2880  137.7870 C   0  0  0  0  0  3  0  0  0  0  0  0
  189.9130  176.0950  138.5890 C   0  0  0  0  0  3  0  0  0  0  0  0
  191.9490  175.6700  137.2250 C   0  0  0  0  0  2  0  0  0  0  0  0
  192.9530  174.5720  137.5110 C   0  0  0  0  0  2  0  0  0  0  0  0
  193.5380  174.0370  136.2110 C   0  0  0  0  0  2  0  0  0  0  0  0
  194.5490  172.9240  136.4720 C   0  0  1  0  0  3  0  0  0  0  0  0
  196.3720  174.2140  137.7670 N   0  0  0  0  0  0  0  0  0  0  0  0
  197.7160  175.7030  136.5360 O   0  0  0  0  0  0  0  0  0  0  0  0
  195.1430  172.4790  138.7260 O   0  0  0  0  0  0  0  0  0  0  0  0
  196.6780  174.9930  136.5990 C   0  0  0  0  0  3  0  0  0  0  0  0
  195.3630  173.1900  137.7100 C   0  0  0  0  0  0  0  0  0  0  0  0
  197.7220  175.3920  141.1570 C   0  0  0  0  0  1  0  0  0  0  0  0
  197.1330  174.3380  138.9460 N   0  0  0  0  0  2  0  0  0  0  0  0
  195.5790  175.6050  140.1560 O   0  0  0  0  0  0  0  0  0  0  0  0
  196.7470  175.1440  140.0640 C   0  0  0  0  0  0  0  0  0  0  0  0
  193.8960  171.6940  136.5720 O   0  0  0  0  0  0  0  0  0  0  0  0
  194.6920  170.8050  135.8470 C   0  0  0  0  0  1  0  0  0  0  0  0
  189.2090  178.4240  139.2220 C   0  0  0  0  0  2  0  0  0  0  0  0
  187.9360  177.7130  139.6730 C   0  0  0  0  0  2  0  0  0  0  0  0
  186.8000  178.5230  139.4030 O   0  0  0  0  0  0  0  0  0  0  0  0
  185.9130  178.9230  140.4050 C   0  0  0  0  0  0  0  0  0  0  0  0
  184.9080  179.6350  140.1260 O   0  0  0  0  0  0  0  0  0  0  0  0
  185.1920  178.1430  142.6050 C   0  0  0  0  0  2  0  0  0  0  0  0
  186.1710  178.5090  141.7880 C   0  0  0  0  0  3  0  0  0  0  0  0
  1 17  1  1  0  0  0
  1 33  1  0  0  0  0
  1  3  1  0  0  0  0
  2  3  2  0  0  0  0
  3  4  1  0  0  0  0
  4  5  1  0  0  0  0
  5  7  1  0  0  0  0
  6  7  1  0  0  0  0
  7  8  1  1  0  0  0
  7  9  1  0  0  0  0
  9 11  1  0  0  0  0
 10  9  2  0  0  0  0
 11 12  1  0  0  0  0
 13 15  1  0  0  0  0
 14 12  1  0  0  0  0
 15 14  3  0  0  0  0
 16 17  2  0  0  0  0
 18 19  1  0  0  0  0
 18 16  1  0  0  0  0
 20 19  1  0  0  0  0
 21 20  1  1  0  0  0
 21 31  1  0  0  0  0
 21 26  1  0  0  0  0
 22 28  1  0  0  0  0
 23 25  2  0  0  0  0
 25 22  1  0  0  0  0
 26 22  1  0  0  0  0
 26 24  2  0  0  0  0
 28 30  1  0  0  0  0
 30 29  2  0  0  0  0
 30 27  1  0  0  0  0
 32 31  1  0  0  0  0
 33 34  1  0  0  0  0
 35 34  1  0  0  0  0
 35 36  1  0  0  0  0
 36 39  1  0  0  0  0
 37 36  2  0  0  0  0
 39 38  2  0  0  0  0
M  END
>  <MODEL>
3

>  <REMARK>
 VINA RESULT:      -6.0      3.903     10.585
  Name = 
  20 active torsions:
  status: ('A' for Active; 'I' for Inactive)
    1  A    between atoms: O_3  and  C_11
    2  A    between atoms: O_3  and  C_12
    3  A    between atoms: N_4  and  N_13
    4  A    between atoms: C_7  and  C_20
    5  A    between atoms: C_7  and  C_35
    6  A    between atoms: C_10  and  O_17
    7  A    between atoms: C_10  and  C_26
    8  A    between atoms: C_10  and  C_39
    9  A    between atoms: C_11  and  C_19
   10  A    between atoms: C_12  and  C_38
   11  A    between atoms: N_14  and  C_24
   12  A    between atoms: N_14  and  N_36
   13  A    between atoms: N_16  and  C_22
   14  A    between atoms: N_16  and  C_27
   15  A    between atoms: C_22  and  C_28
   16  A    between atoms: C_24  and  C_28
   17  A    between atoms: C_26  and  C_35
   18  A    between atoms: C_29  and  C_32
   19  A    between atoms: C_32  and  C_33
   20  A    between atoms: C_32  and  C_38
                            x       y       z     vdW  Elec       q    Type
                         _______ _______ _______ _____ _____    ______ ____

>  <TORSDO>
F 20

$$$$
=
 OpenBabel11062417443D

 39 38  0  0  1  0  0  0  0  0999 V2000
  184.8770  178.3310  140.8920 C   0  0  1  0  0  3  0  0  0  0  0  0
  184.5170  179.9890  139.1930 O   0  0  0  0  0  0  0  0  0  0  0  0
  185.1480  178.9600  139.5590 C   0  0  0  0  0  0  0  0  0  0  0  0
  186.1090  178.3630  138.6920 N   0  0  0  0  0  2  0  0  0  0  0  0
  186.4090  178.9290  137.4410 N   0  0  0  0  0  2  0  0  0  0  0  0
  187.5500  178.3280  135.4820 O   0  0  0  0  0  1  0  0  0  0  0  0
  187.5780  178.2500  136.8780 C   0  0  1  0  0  0  0  0  0  0  0  0
  188.8540  178.9240  137.3780 C   0  0  0  0  0  1  0  0  0  0  0  0
  187.5260  176.7930  137.2780 C   0  0  0  0  0  0  0  0  0  0  0  0
  188.1400  176.4260  138.2690 O   0  0  0  0  0  0  0  0  0  0  0  0
  186.7790  175.7650  136.4800 C   0  0  0  0  0  2  0  0  0  0  0  0
  186.8580  174.4650  137.1250 N   0  0  0  0  0  2  0  0  0  0  0  0
  183.6630  171.9430  137.1450 C   0  0  0  0  0  1  0  0  0  0  0  0
  185.7590  173.5950  137.1320 C   0  0  0  0  0  0  0  0  0  0  0  0
  184.8120  172.8480  137.1390 C   0  0  0  0  0  0  0  0  0  0  0  0
  185.9520  178.8500  143.0970 C   0  0  0  0  0  3  0  0  0  0  0  0
  185.2180  179.2350  142.0470 C   0  0  0  0  0  3  0  0  0  0  0  0
  186.5090  177.4710  143.2320 C   0  0  0  0  0  2  0  0  0  0  0  0
  188.0210  177.5230  143.1300 C   0  0  0  0  0  2  0  0  0  0  0  0
  188.4650  177.2660  141.6970 C   0  0  0  0  0  2  0  0  0  0  0  0
  189.9800  177.1010  141.6050 C   0  0  1  0  0  3  0  0  0  0  0  0
  191.2180  177.2110  143.8680 N   0  0  0  0  0  0  0  0  0  0  0  0
  192.2240  179.2590  144.4460 O   0  0  0  0  0  0  0  0  0  0  0  0
  190.4210  175.2110  142.9690 O   0  0  0  0  0  0  0  0  0  0  0  0
  191.4220  178.6250  143.7100 C   0  0  0  0  0  3  0  0  0  0  0  0
  190.5460  176.4580  142.8430 C   0  0  0  0  0  0  0  0  0  0  0  0
  192.0700  175.9840  147.4000 C   0  0  0  0  0  1  0  0  0  0  0  0
  191.7800  176.5100  144.9530 N   0  0  0  0  0  2  0  0  0  0  0  0
  190.1440  177.0700  146.5310 O   0  0  0  0  0  0  0  0  0  0  0  0
  191.2740  176.5700  146.2900 C   0  0  0  0  0  0  0  0  0  0  0  0
  190.3150  176.3600  140.4710 O   0  0  0  0  0  0  0  0  0  0  0  0
  191.2750  177.1290  139.8110 C   0  0  0  0  0  1  0  0  0  0  0  0
  183.4490  177.7960  140.9890 C   0  0  0  0  0  2  0  0  0  0  0  0
  183.0660  176.9240  139.7970 C   0  0  0  0  0  2  0  0  0  0  0  0
  182.1130  177.5950  138.9840 O   0  0  0  0  0  0  0  0  0  0  0  0
  182.0910  177.4610  137.5930 C   0  0  0  0  0  0  0  0  0  0  0  0
  181.0550  177.7610  136.9370 O   0  0  0  0  0  0  0  0  0  0  0  0
  183.2260  176.3860  135.7170 C   0  0  0  0  0  2  0  0  0  0  0  0
  183.2880  176.9610  136.9100 C   0  0  0  0  0  3  0  0  0  0  0  0
  1 33  1  6  0  0  0
  1 17  1  0  0  0  0
  2  3  2  0  0  0  0
  3  1  1  0  0  0  0
  4  3  1  0  0  0  0
  5  4  1  0  0  0  0
  6  7  1  0  0  0  0
  7  9  1  0  0  0  0
  7  8  1  1  0  0  0
  7  5  1  0  0  0  0
  9 10  2  0  0  0  0
 11 12  1  0  0  0  0
 11  9  1  0  0  0  0
 12 14  1  0  0  0  0
 14 15  3  0  0  0  0
 15 13  1  0  0  0  0
 16 18  1  0  0  0  0
 17 16  2  0  0  0  0
 19 18  1  0  0  0  0
 20 19  1  0  0  0  0
 21 20  1  1  0  0  0
 21 26  1  0  0  0  0
 22 28  1  0  0  0  0
 25 22  1  0  0  0  0
 25 23  2  0  0  0  0
 26 24  2  0  0  0  0
 26 22  1  0  0  0  0
 28 30  1  0  0  0  0
 30 29  2  0  0  0  0
 30 27  1  0  0  0  0
 31 21  1  0  0  0  0
 32 31  1  0  0  0  0
 34 33  1  0  0  0  0
 35 34  1  0  0  0  0
 36 35  1  0  0  0  0
 37 36  2  0  0  0  0
 38 39  2  0  0  0  0
 39 36  1  0  0  0  0
M  END
>  <MODEL>
4

>  <REMARK>
 VINA RESULT:      -5.9      2.552      7.976
  Name = 
  20 active torsions:
  status: ('A' for Active; 'I' for Inactive)
    1  A    between atoms: O_3  and  C_11
    2  A    between atoms: O_3  and  C_12
    3  A    between atoms: N_4  and  N_13
    4  A    between atoms: C_7  and  C_20
    5  A    between atoms: C_7  and  C_35
    6  A    between atoms: C_10  and  O_17
    7  A    between atoms: C_10  and  C_26
    8  A    between atoms: C_10  and  C_39
    9  A    between atoms: C_11  and  C_19
   10  A    between atoms: C_12  and  C_38
   11  A    between atoms: N_14  and  C_24
   12  A    between atoms: N_14  and  N_36
   13  A    between atoms: N_16  and  C_22
   14  A    between atoms: N_16  and  C_27
   15  A    between atoms: C_22  and  C_28
   16  A    between atoms: C_24  and  C_28
   17  A    between atoms: C_26  and  C_35
   18  A    between atoms: C_29  and  C_32
   19  A    between atoms: C_32  and  C_33
   20  A    between atoms: C_32  and  C_38
                            x       y       z     vdW  Elec       q    Type
                         _______ _______ _______ _____ _____    ______ ____

>  <TORSDO>
F 20

$$$$
=
 OpenBabel11062417443D

 39 38  0  0  1  0  0  0  0  0999 V2000
  189.5450  176.8870  137.8090 C   0  0  1  0  0  3  0  0  0  0  0  0
  191.0040  175.6100  139.2270 O   0  0  0  0  0  0  0  0  0  0  0  0
  190.3000  176.6470  139.0820 C   0  0  0  0  0  0  0  0  0  0  0  0
  190.1880  177.5920  140.1440 N   0  0  0  0  0  2  0  0  0  0  0  0
  190.8920  177.4180  141.3470 N   0  0  0  0  0  2  0  0  0  0  0  0
  188.8270  178.2220  142.1150 O   0  0  0  0  0  1  0  0  0  0  0  0
  189.9470  177.4620  142.4640 C   0  0  1  0  0  0  0  0  0  0  0  0
  189.4880  176.0460  142.8050 C   0  0  0  0  0  1  0  0  0  0  0  0
  190.6260  178.1230  143.6420 C   0  0  0  0  0  0  0  0  0  0  0  0
  190.2780  179.2450  143.9780 O   0  0  0  0  0  0  0  0  0  0  0  0
  191.7460  177.4680  144.3970 C   0  0  0  0  0  2  0  0  0  0  0  0
  191.2190  176.5880  145.4260 N   0  0  0  0  0  2  0  0  0  0  0  0
  188.5700  177.9630  148.1940 C   0  0  0  0  0  1  0  0  0  0  0  0
  190.3070  177.0600  146.3800 C   0  0  0  0  0  0  0  0  0  0  0  0
  189.5230  177.4680  147.2010 C   0  0  0  0  0  0  0  0  0  0  0  0
  187.8000  178.6500  137.4450 C   0  0  0  0  0  3  0  0  0  0  0  0
  189.0750  178.3100  137.6660 C   0  0  0  0  0  3  0  0  0  0  0  0
  186.7050  177.6410  137.3140 C   0  0  0  0  0  2  0  0  0  0  0  0
  185.3770  178.2880  137.6540 C   0  0  0  0  0  2  0  0  0  0  0  0
  184.9070  177.8400  139.0300 C   0  0  0  0  0  2  0  0  0  0  0  0
  184.1920  178.9680  139.7690 C   0  0  1  0  0  3  0  0  0  0  0  0
  184.0290  179.0550  142.3440 N   0  0  0  0  0  0  0  0  0  0  0  0
  181.8880  178.8350  143.2950 O   0  0  0  0  0  0  0  0  0  0  0  0
  185.9960  179.5550  141.1940 O   0  0  0  0  0  0  0  0  0  0  0  0
  182.6330  178.7180  142.2870 C   0  0  0  0  0  3  0  0  0  0  0  0
  184.7870  179.2070  141.1310 C   0  0  0  0  0  0  0  0  0  0  0  0
  185.9040  178.8130  145.6800 C   0  0  0  0  0  1  0  0  0  0  0  0
  184.6530  179.3730  143.5660 N   0  0  0  0  0  2  0  0  0  0  0  0
  185.9050  177.4050  143.7670 O   0  0  0  0  0  0  0  0  0  0  0  0
  185.4860  178.4670  144.2970 C   0  0  0  0  0  0  0  0  0  0  0  0
  184.2250  180.1390  139.0080 O   0  0  0  0  0  0  0  0  0  0  0  0
  182.8870  180.4990  138.8460 C   0  0  0  0  0  1  0  0  0  0  0  0
  190.3310  176.4200  136.5860 C   0  0  0  0  0  2  0  0  0  0  0  0
  189.6770  175.2340  135.8830 C   0  0  0  0  0  2  0  0  0  0  0  0
  189.2750  174.2600  136.8360 O   0  0  0  0  0  0  0  0  0  0  0  0
  188.1320  173.4750  136.6650 C   0  0  0  0  0  0  0  0  0  0  0  0
  188.2110  172.2150  136.6760 O   0  0  0  0  0  0  0  0  0  0  0  0
  185.8290  173.9710  137.3100 C   0  0  0  0  0  2  0  0  0  0  0  0
  186.8390  174.1390  136.4680 C   0  0  0  0  0  3  0  0  0  0  0  0
  1 33  1  6  0  0  0
  1  3  1  0  0  0  0
  3  2  2  0  0  0  0
  3  4  1  0  0  0  0
  4  5  1  0  0  0  0
  5  7  1  0  0  0  0
  6  7  1  0  0  0  0
  7  8  1  1  0  0  0
  7  9  1  0  0  0  0
  9 10  2  0  0  0  0
  9 11  1  0  0  0  0
 11 12  1  0  0  0  0
 12 14  1  0  0  0  0
 14 15  3  0  0  0  0
 15 13  1  0  0  0  0
 16 17  2  0  0  0  0
 17  1  1  0  0  0  0
 18 16  1  0  0  0  0
 18 19  1  0  0  0  0
 19 20  1  0  0  0  0
 21 20  1  6  0  0  0
 21 26  1  0  0  0  0
 22 28  1  0  0  0  0
 25 22  1  0  0  0  0
 25 23  2  0  0  0  0
 26 24  2  0  0  0  0
 26 22  1  0  0  0  0
 28 30  1  0  0  0  0
 29 30  2  0  0  0  0
 30 27  1  0  0  0  0
 31 21  1  0  0  0  0
 32 31  1  0  0  0  0
 34 33  1  0  0  0  0
 34 35  1  0  0  0  0
 36 37  2  0  0  0  0
 36 35  1  0  0  0  0
 39 36  1  0  0  0  0
 39 38  2  0  0  0  0
M  END
>  <MODEL>
5

>  <REMARK>
 VINA RESULT:      -5.9      2.268      7.212
  Name = 
  20 active torsions:
  status: ('A' for Active; 'I' for Inactive)
    1  A    between atoms: O_3  and  C_11
    2  A    between atoms: O_3  and  C_12
    3  A    between atoms: N_4  and  N_13
    4  A    between atoms: C_7  and  C_20
    5  A    between atoms: C_7  and  C_35
    6  A    between atoms: C_10  and  O_17
    7  A    between atoms: C_10  and  C_26
    8  A    between atoms: C_10  and  C_39
    9  A    between atoms: C_11  and  C_19
   10  A    between atoms: C_12  and  C_38
   11  A    between atoms: N_14  and  C_24
   12  A    between atoms: N_14  and  N_36
   13  A    between atoms: N_16  and  C_22
   14  A    between atoms: N_16  and  C_27
   15  A    between atoms: C_22  and  C_28
   16  A    between atoms: C_24  and  C_28
   17  A    between atoms: C_26  and  C_35
   18  A    between atoms: C_29  and  C_32
   19  A    between atoms: C_32  and  C_33
   20  A    between atoms: C_32  and  C_38
                            x       y       z     vdW  Elec       q    Type
                         _______ _______ _______ _____ _____    ______ ____

>  <TORSDO>
F 20

$$$$
=
 OpenBabel11062417443D

 39 38  0  0  1  0  0  0  0  0999 V2000
  188.0550  177.8830  144.0580 C   0  0  1  0  0  3  0  0  0  0  0  0
  188.1270  175.7000  143.0590 O   0  0  0  0  0  0  0  0  0  0  0  0
  188.4240  176.9230  142.9670 C   0  0  0  0  0  0  0  0  0  0  0  0
  189.1440  177.4030  141.8350 N   0  0  0  0  0  2  0  0  0  0  0  0
  189.4950  176.5430  140.7800 N   0  0  0  0  0  2  0  0  0  0  0  0
  189.6770  178.5600  139.5960 O   0  0  0  0  0  1  0  0  0  0  0  0
  190.2510  177.2980  139.7790 C   0  0  1  0  0  0  0  0  0  0  0  0
  191.6910  177.4810  140.2530 C   0  0  0  0  0  1  0  0  0  0  0  0
  190.1900  176.5500  138.4660 C   0  0  0  0  0  0  0  0  0  0  0  0
  189.3740  176.8910  137.6230 O   0  0  0  0  0  0  0  0  0  0  0  0
  191.0710  175.3710  138.1710 C   0  0  0  0  0  2  0  0  0  0  0  0
  190.6930  174.7590  136.9080 N   0  0  0  0  0  2  0  0  0  0  0  0
  187.6840  172.0240  136.7280 C   0  0  0  0  0  1  0  0  0  0  0  0
  189.6570  173.8170  136.8440 C   0  0  0  0  0  0  0  0  0  0  0  0
  188.7660  173.0060  136.7910 C   0  0  0  0  0  0  0  0  0  0  0  0
  185.6340  177.9130  144.7110 C   0  0  0  0  0  3  0  0  0  0  0  0
  186.8700  177.4240  144.8660 C   0  0  0  0  0  3  0  0  0  0  0  0
  185.3050  178.9750  143.7130 C   0  0  0  0  0  2  0  0  0  0  0  0
  184.9830  178.3340  142.3780 C   0  0  0  0  0  2  0  0  0  0  0  0
  185.7900  178.9900  141.2680 C   0  0  0  0  0  2  0  0  0  0  0  0
  185.3270  178.5200  139.8910 C   0  0  1  0  0  3  0  0  0  0  0  0
  182.7910  178.5690  139.4110 N   0  0  0  0  0  0  0  0  0  0  0  0
  181.6470  176.5140  139.4570 O   0  0  0  0  0  0  0  0  0  0  0  0
  184.1590  180.4350  139.1180 O   0  0  0  0  0  0  0  0  0  0  0  0
  182.6820  177.1740  139.7350 C   0  0  0  0  0  3  0  0  0  0  0  0
  184.0700  179.2260  139.4560 C   0  0  0  0  0  0  0  0  0  0  0  0
  179.3810  180.2950  139.0920 C   0  0  0  0  0  1  0  0  0  0  0  0
  181.6860  179.2920  138.9200 N   0  0  0  0  0  2  0  0  0  0  0  0
  180.6930  179.7410  140.9920 O   0  0  0  0  0  0  0  0  0  0  0  0
  180.6040  179.7500  139.7360 C   0  0  0  0  0  0  0  0  0  0  0  0
  186.3430  178.7070  138.9510 O   0  0  0  0  0  0  0  0  0  0  0  0
  186.0060  177.8670  137.8880 C   0  0  0  0  0  1  0  0  0  0  0  0
  189.2520  178.2240  144.9440 C   0  0  0  0  0  2  0  0  0  0  0  0
  189.7270  177.0360  145.7750 C   0  0  0  0  0  2  0  0  0  0  0  0
  191.0790  176.7290  145.4640 O   0  0  0  0  0  0  0  0  0  0  0  0
  191.8730  175.9280  146.2890 C   0  0  0  0  0  0  0  0  0  0  0  0
  192.3980  174.8700  145.8420 O   0  0  0  0  0  0  0  0  0  0  0  0
  192.9200  175.6880  148.4820 C   0  0  0  0  0  2  0  0  0  0  0  0
  192.0800  176.3310  147.6830 C   0  0  0  0  0  3  0  0  0  0  0  0
  1 17  1  1  0  0  0
  1 33  1  0  0  0  0
  3  2  2  0  0  0  0
  3  1  1  0  0  0  0
  4  3  1  0  0  0  0
  5  4  1  0  0  0  0
  6  7  1  0  0  0  0
  7  8  1  1  0  0  0
  7  5  1  0  0  0  0
  9  7  1  0  0  0  0
 10  9  2  0  0  0  0
 11  9  1  0  0  0  0
 12 11  1  0  0  0  0
 13 15  1  0  0  0  0
 14 12  1  0  0  0  0
 15 14  3  0  0  0  0
 16 17  2  0  0  0  0
 18 16  1  0  0  0  0
 19 18  1  0  0  0  0
 20 19  1  0  0  0  0
 21 20  1  1  0  0  0
 22 26  1  0  0  0  0
 22 25  1  0  0  0  0
 23 25  2  0  0  0  0
 24 26  2  0  0  0  0
 26 21  1  0  0  0  0
 27 30  1  0  0  0  0
 28 22  1  0  0  0  0
 28 30  1  0  0  0  0
 30 29  2  0  0  0  0
 31 21  1  0  0  0  0
 32 31  1  0  0  0  0
 33 34  1  0  0  0  0
 35 34  1  0  0  0  0
 35 36  1  0  0  0  0
 36 39  1  0  0  0  0
 37 36  2  0  0  0  0
 39 38  2  0  0  0  0
M  END
>  <MODEL>
6

>  <REMARK>
 VINA RESULT:      -5.9      1.908      3.274
  Name = 
  20 active torsions:
  status: ('A' for Active; 'I' for Inactive)
    1  A    between atoms: O_3  and  C_11
    2  A    between atoms: O_3  and  C_12
    3  A    between atoms: N_4  and  N_13
    4  A    between atoms: C_7  and  C_20
    5  A    between atoms: C_7  and  C_35
    6  A    between atoms: C_10  and  O_17
    7  A    between atoms: C_10  and  C_26
    8  A    between atoms: C_10  and  C_39
    9  A    between atoms: C_11  and  C_19
   10  A    between atoms: C_12  and  C_38
   11  A    between atoms: N_14  and  C_24
   12  A    between atoms: N_14  and  N_36
   13  A    between atoms: N_16  and  C_22
   14  A    between atoms: N_16  and  C_27
   15  A    between atoms: C_22  and  C_28
   16  A    between atoms: C_24  and  C_28
   17  A    between atoms: C_26  and  C_35
   18  A    between atoms: C_29  and  C_32
   19  A    between atoms: C_32  and  C_33
   20  A    between atoms: C_32  and  C_38
                            x       y       z     vdW  Elec       q    Type
                         _______ _______ _______ _____ _____    ______ ____

>  <TORSDO>
F 20

$$$$
=
 OpenBabel11062417443D

 39 38  0  0  1  0  0  0  0  0999 V2000
  187.5670  178.1990  145.5510 C   0  0  1  0  0  3  0  0  0  0  0  0
  187.3710  176.4090  143.9620 O   0  0  0  0  0  0  0  0  0  0  0  0
  187.8750  177.5300  144.2450 C   0  0  0  0  0  0  0  0  0  0  0  0
  188.7720  178.1640  143.3350 N   0  0  0  0  0  2  0  0  0  0  0  0
  189.0740  177.5830  142.0920 N   0  0  0  0  0  2  0  0  0  0  0  0
  191.2400  177.9640  142.9080 O   0  0  0  0  0  1  0  0  0  0  0  0
  190.4640  177.1220  142.1060 C   0  0  1  0  0  0  0  0  0  0  0  0
  190.5310  175.7070  142.6750 C   0  0  0  0  0  1  0  0  0  0  0  0
  191.0010  177.1770  140.6930 C   0  0  0  0  0  0  0  0  0  0  0  0
  192.1670  177.4970  140.5120 O   0  0  0  0  0  0  0  0  0  0  0  0
  190.1450  176.8910  139.4950 C   0  0  0  0  0  2  0  0  0  0  0  0
  190.5690  175.6610  138.8480 N   0  0  0  0  0  2  0  0  0  0  0  0
  189.7490  174.9610  134.9230 C   0  0  0  0  0  1  0  0  0  0  0  0
  190.2870  175.4220  137.4960 C   0  0  0  0  0  0  0  0  0  0  0  0
  190.0450  175.2140  136.3330 C   0  0  0  0  0  0  0  0  0  0  0  0
  185.0940  178.2440  145.9650 C   0  0  0  0  0  3  0  0  0  0  0  0
  186.2960  177.6950  146.1810 C   0  0  0  0  0  3  0  0  0  0  0  0
  184.8940  179.4240  145.0710 C   0  0  0  0  0  2  0  0  0  0  0  0
  183.5330  179.3340  144.4100 C   0  0  0  0  0  2  0  0  0  0  0  0
  183.5450  178.2740  143.3180 C   0  0  0  0  0  2  0  0  0  0  0  0
  183.1180  178.8560  141.9730 C   0  0  1  0  0  3  0  0  0  0  0  0
  184.0970  179.3060  139.6270 N   0  0  0  0  0  0  0  0  0  0  0  0
  182.5710  179.7150  137.8840 O   0  0  0  0  0  0  0  0  0  0  0  0
  185.4080  178.5830  141.4170 O   0  0  0  0  0  0  0  0  0  0  0  0
  182.7900  179.6210  139.1200 C   0  0  0  0  0  3  0  0  0  0  0  0
  184.2650  178.9070  140.9990 C   0  0  0  0  0  0  0  0  0  0  0  0
  186.9350  178.0560  137.3710 C   0  0  0  0  0  1  0  0  0  0  0  0
  185.2170  179.2510  138.7740 N   0  0  0  0  0  2  0  0  0  0  0  0
  184.8470  177.0890  137.9560 O   0  0  0  0  0  0  0  0  0  0  0  0
  185.6170  178.0800  138.0550 C   0  0  0  0  0  0  0  0  0  0  0  0
  182.0580  178.1170  141.4430 O   0  0  0  0  0  0  0  0  0  0  0  0
  180.9170  178.6360  142.0560 C   0  0  0  0  0  1  0  0  0  0  0  0
  188.7490  178.1300  146.5170 C   0  0  0  0  0  2  0  0  0  0  0  0
  189.3930  176.7480  146.5620 C   0  0  0  0  0  2  0  0  0  0  0  0
  190.6660  176.7800  145.9300 O   0  0  0  0  0  0  0  0  0  0  0  0
  191.7810  176.1280  146.4620 C   0  0  0  0  0  0  0  0  0  0  0  0
  192.3790  175.2360  145.7990 O   0  0  0  0  0  0  0  0  0  0  0  0
  192.8280  175.6140  148.6080 C   0  0  0  0  0  2  0  0  0  0  0  0
  192.2420  176.4920  147.8060 C   0  0  0  0  0  3  0  0  0  0  0  0
  1 17  1  1  0  0  0
  1 33  1  0  0  0  0
  2  3  2  0  0  0  0
  3  1  1  0  0  0  0
  4  3  1  0  0  0  0
  5  7  1  0  0  0  0
  5  4  1  0  0  0  0
  7  8  1  1  0  0  0
  7  6  1  0  0  0  0
  9  7  1  0  0  0  0
 10  9  2  0  0  0  0
 11  9  1  0  0  0  0
 12 11  1  0  0  0  0
 13 15  1  0  0  0  0
 14 12  1  0  0  0  0
 15 14  3  0  0  0  0
 16 17  2  0  0  0  0
 18 16  1  0  0  0  0
 19 18  1  0  0  0  0
 20 19  1  0  0  0  0
 21 20  1  1  0  0  0
 22 26  1  0  0  0  0
 23 25  2  0  0  0  0
 25 22  1  0  0  0  0
 26 24  2  0  0  0  0
 26 21  1  0  0  0  0
 27 30  1  0  0  0  0
 28 22  1  0  0  0  0
 29 30  2  0  0  0  0
 30 28  1  0  0  0  0
 31 21  1  0  0  0  0
 31 32  1  0  0  0  0
 33 34  1  0  0  0  0
 35 36  1  0  0  0  0
 35 34  1  0  0  0  0
 36 39  1  0  0  0  0
 37 36  2  0  0  0  0
 39 38  2  0  0  0  0
M  END
>  <MODEL>
7

>  <REMARK>
 VINA RESULT:      -5.8      2.005      2.799
  Name = 
  20 active torsions:
  status: ('A' for Active; 'I' for Inactive)
    1  A    between atoms: O_3  and  C_11
    2  A    between atoms: O_3  and  C_12
    3  A    between atoms: N_4  and  N_13
    4  A    between atoms: C_7  and  C_20
    5  A    between atoms: C_7  and  C_35
    6  A    between atoms: C_10  and  O_17
    7  A    between atoms: C_10  and  C_26
    8  A    between atoms: C_10  and  C_39
    9  A    between atoms: C_11  and  C_19
   10  A    between atoms: C_12  and  C_38
   11  A    between atoms: N_14  and  C_24
   12  A    between atoms: N_14  and  N_36
   13  A    between atoms: N_16  and  C_22
   14  A    between atoms: N_16  and  C_27
   15  A    between atoms: C_22  and  C_28
   16  A    between atoms: C_24  and  C_28
   17  A    between atoms: C_26  and  C_35
   18  A    between atoms: C_29  and  C_32
   19  A    between atoms: C_32  and  C_33
   20  A    between atoms: C_32  and  C_38
                            x       y       z     vdW  Elec       q    Type
                         _______ _______ _______ _____ _____    ______ ____

>  <TORSDO>
F 20

$$$$
=
 OpenBabel11062417443D

 39 38  0  0  1  0  0  0  0  0999 V2000
  182.8570  178.9690  142.7100 C   0  0  1  0  0  3  0  0  0  0  0  0
  180.5310  179.4380  142.3380 O   0  0  0  0  0  0  0  0  0  0  0  0
  181.5820  178.8720  141.9280 C   0  0  0  0  0  0  0  0  0  0  0  0
  181.5600  178.1040  140.7270 N   0  0  0  0  0  2  0  0  0  0  0  0
  180.3920  178.0010  139.9520 N   0  0  0  0  0  2  0  0  0  0  0  0
  182.1510  177.9260  138.4020 O   0  0  0  0  0  1  0  0  0  0  0  0
  180.7600  177.9720  138.5350 C   0  0  1  0  0  0  0  0  0  0  0  0
  180.1660  176.7300  137.8750 C   0  0  0  0  0  1  0  0  0  0  0  0
  180.2570  179.2400  137.8830 C   0  0  0  0  0  0  0  0  0  0  0  0
  179.0550  179.3970  137.7340 O   0  0  0  0  0  0  0  0  0  0  0  0
  181.1840  180.3050  137.3730 C   0  0  0  0  0  2  0  0  0  0  0  0
  180.8880  181.5800  138.0040 N   0  0  0  0  0  2  0  0  0  0  0  0
  180.7990  185.0170  135.8250 C   0  0  0  0  0  1  0  0  0  0  0  0
  180.8570  182.7650  137.2550 C   0  0  0  0  0  0  0  0  0  0  0  0
  180.8310  183.7830  136.6100 C   0  0  0  0  0  0  0  0  0  0  0  0
  183.6500  178.7580  145.0790 C   0  0  0  0  0  3  0  0  0  0  0  0
  182.6750  178.6440  144.1680 C   0  0  0  0  0  3  0  0  0  0  0  0
  185.0270  179.2220  144.7360 C   0  0  0  0  0  2  0  0  0  0  0  0
  185.9420  179.0180  145.9270 C   0  0  0  0  0  2  0  0  0  0  0  0
  186.3520  177.5570  146.0360 C   0  0  0  0  0  2  0  0  0  0  0  0
  187.8150  177.4190  146.4500 C   0  0  1  0  0  3  0  0  0  0  0  0
  190.0990  176.8300  145.4010 N   0  0  0  0  0  0  0  0  0  0  0  0
  191.9520  176.7170  146.8470 O   0  0  0  0  0  0  0  0  0  0  0  0
  188.2080  177.2910  144.1140 O   0  0  0  0  0  0  0  0  0  0  0  0
  190.7010  176.7560  146.7030 C   0  0  0  0  0  3  0  0  0  0  0  0
  188.7100  177.1780  145.2640 C   0  0  0  0  0  0  0  0  0  0  0  0
  192.0560  177.5800  142.1890 C   0  0  0  0  0  1  0  0  0  0  0  0
  190.8730  176.6970  144.2310 N   0  0  0  0  0  2  0  0  0  0  0  0
  191.5190  178.9410  144.0600 O   0  0  0  0  0  0  0  0  0  0  0  0
  191.4600  177.8000  143.5320 C   0  0  0  0  0  0  0  0  0  0  0  0
  188.2260  178.5550  147.1510 O   0  0  0  0  0  0  0  0  0  0  0  0
  188.2360  178.1650  148.4910 C   0  0  0  0  0  1  0  0  0  0  0  0
  183.9760  178.1450  142.0760 C   0  0  0  0  0  2  0  0  0  0  0  0
  184.8580  178.9680  141.1420 C   0  0  0  0  0  2  0  0  0  0  0  0
  186.2280  178.6660  141.3670 O   0  0  0  0  0  0  0  0  0  0  0  0
  187.1480  178.5440  140.3220 C   0  0  0  0  0  0  0  0  0  0  0  0
  186.7690  178.6270  139.1210 O   0  0  0  0  0  0  0  0  0  0  0  0
  189.1350  177.1320  140.4630 C   0  0  0  0  0  2  0  0  0  0  0  0
  188.5590  178.3120  140.6440 C   0  0  0  0  0  3  0  0  0  0  0  0
  1 33  1  6  0  0  0
  1 17  1  0  0  0  0
  3  2  2  0  0  0  0
  3  1  1  0  0  0  0
  4  3  1  0  0  0  0
  5  4  1  0  0  0  0
  6  7  1  0  0  0  0
  7  8  1  6  0  0  0
  7  5  1  0  0  0  0
  9  7  1  0  0  0  0
 10  9  2  0  0  0  0
 11  9  1  0  0  0  0
 11 12  1  0  0  0  0
 13 15  1  0  0  0  0
 14 12  1  0  0  0  0
 15 14  3  0  0  0  0
 17 16  2  0  0  0  0
 18 16  1  0  0  0  0
 18 19  1  0  0  0  0
 19 20  1  0  0  0  0
 21 20  1  6  0  0  0
 21 31  1  0  0  0  0
 22 25  1  0  0  0  0
 24 26  2  0  0  0  0
 25 23  2  0  0  0  0
 26 22  1  0  0  0  0
 26 21  1  0  0  0  0
 27 30  1  0  0  0  0
 28 22  1  0  0  0  0
 30 29  2  0  0  0  0
 30 28  1  0  0  0  0
 31 32  1  0  0  0  0
 34 35  1  0  0  0  0
 34 33  1  0  0  0  0
 36 39  1  0  0  0  0
 36 35  1  0  0  0  0
 37 36  2  0  0  0  0
 38 39  2  0  0  0  0
M  END
>  <MODEL>
8

>  <REMARK>
 VINA RESULT:      -5.7      2.892      8.484
  Name = 
  20 active torsions:
  status: ('A' for Active; 'I' for Inactive)
    1  A    between atoms: O_3  and  C_11
    2  A    between atoms: O_3  and  C_12
    3  A    between atoms: N_4  and  N_13
    4  A    between atoms: C_7  and  C_20
    5  A    between atoms: C_7  and  C_35
    6  A    between atoms: C_10  and  O_17
    7  A    between atoms: C_10  and  C_26
    8  A    between atoms: C_10  and  C_39
    9  A    between atoms: C_11  and  C_19
   10  A    between atoms: C_12  and  C_38
   11  A    between atoms: N_14  and  C_24
   12  A    between atoms: N_14  and  N_36
   13  A    between atoms: N_16  and  C_22
   14  A    between atoms: N_16  and  C_27
   15  A    between atoms: C_22  and  C_28
   16  A    between atoms: C_24  and  C_28
   17  A    between atoms: C_26  and  C_35
   18  A    between atoms: C_29  and  C_32
   19  A    between atoms: C_32  and  C_33
   20  A    between atoms: C_32  and  C_38
                            x       y       z     vdW  Elec       q    Type
                         _______ _______ _______ _____ _____    ______ ____

>  <TORSDO>
F 20

$$$$
=
 OpenBabel11062417443D

 39 38  0  0  1  0  0  0  0  0999 V2000
  184.5170  178.2670  140.9650 C   0  0  1  0  0  3  0  0  0  0  0  0
  184.5530  180.0480  139.3530 O   0  0  0  0  0  0  0  0  0  0  0  0
  185.0100  178.9280  139.7130 C   0  0  0  0  0  0  0  0  0  0  0  0
  185.9840  178.2610  138.9130 N   0  0  0  0  0  2  0  0  0  0  0  0
  186.4890  178.8500  137.7420 N   0  0  0  0  0  2  0  0  0  0  0  0
  188.7020  179.6110  137.5870 O   0  0  0  0  0  1  0  0  0  0  0  0
  187.8940  178.4700  137.5830 C   0  0  1  0  0  0  0  0  0  0  0  0
  188.3160  177.5690  138.7400 C   0  0  0  0  0  1  0  0  0  0  0  0
  188.0540  177.7740  136.2500 C   0  0  0  0  0  0  0  0  0  0  0  0
  189.0700  177.9630  135.5980 O   0  0  0  0  0  0  0  0  0  0  0  0
  186.9910  176.8850  135.6730 C   0  0  0  0  0  2  0  0  0  0  0  0
  187.0000  175.5890  136.3310 N   0  0  0  0  0  2  0  0  0  0  0  0
  183.5420  173.8480  137.5840 C   0  0  0  0  0  1  0  0  0  0  0  0
  185.8090  174.9920  136.7630 C   0  0  0  0  0  0  0  0  0  0  0  0
  184.7840  174.4760  137.1340 C   0  0  0  0  0  0  0  0  0  0  0  0
  185.8290  178.7270  143.0510 C   0  0  0  0  0  3  0  0  0  0  0  0
  184.8420  179.0520  142.2080 C   0  0  0  0  0  3  0  0  0  0  0  0
  186.7130  177.5410  142.8420 C   0  0  0  0  0  2  0  0  0  0  0  0
  186.9460  176.8430  144.1670 C   0  0  0  0  0  2  0  0  0  0  0  0
  187.5520  177.8080  145.1750 C   0  0  0  0  0  2  0  0  0  0  0  0
  189.0200  177.4840  145.4420 C   0  0  1  0  0  3  0  0  0  0  0  0
  190.8710  176.9910  143.7110 N   0  0  0  0  0  0  0  0  0  0  0  0
  192.0850  174.9930  143.9730 O   0  0  0  0  0  0  0  0  0  0  0  0
  189.7630  179.0410  143.8140 O   0  0  0  0  0  0  0  0  0  0  0  0
  191.0780  175.6860  144.2740 C   0  0  0  0  0  3  0  0  0  0  0  0
  189.8970  177.8810  144.2850 C   0  0  0  0  0  0  0  0  0  0  0  0
  192.6090  177.4980  140.3300 C   0  0  0  0  0  1  0  0  0  0  0  0
  191.6950  177.4790  142.6780 N   0  0  0  0  0  2  0  0  0  0  0  0
  190.5210  176.5180  140.8960 O   0  0  0  0  0  0  0  0  0  0  0  0
  191.5520  177.1160  141.3020 C   0  0  0  0  0  0  0  0  0  0  0  0
  189.4460  178.1100  146.6160 O   0  0  0  0  0  0  0  0  0  0  0  0
  189.9150  177.0730  147.4240 C   0  0  0  0  0  1  0  0  0  0  0  0
  183.0310  177.9240  140.8790 C   0  0  0  0  0  2  0  0  0  0  0  0
  182.7010  177.0300  139.6870 C   0  0  0  0  0  2  0  0  0  0  0  0
  181.7040  177.6400  138.8780 O   0  0  0  0  0  0  0  0  0  0  0  0
  182.0090  178.2870  137.6780 C   0  0  0  0  0  0  0  0  0  0  0  0
  181.4690  179.3900  137.3890 O   0  0  0  0  0  0  0  0  0  0  0  0
  182.5700  177.0760  135.6320 C   0  0  0  0  0  2  0  0  0  0  0  0
  182.9620  177.6600  136.7560 C   0  0  0  0  0  3  0  0  0  0  0  0
  1 33  1  6  0  0  0
  1 17  1  0  0  0  0
  2  3  2  0  0  0  0
  3  1  1  0  0  0  0
  4  3  1  0  0  0  0
  5  4  1  0  0  0  0
  7  6  1  0  0  0  0
  7  5  1  0  0  0  0
  7  8  1  1  0  0  0
  9  7  1  0  0  0  0
 10  9  2  0  0  0  0
 11  9  1  0  0  0  0
 11 12  1  0  0  0  0
 12 14  1  0  0  0  0
 14 15  3  0  0  0  0
 15 13  1  0  0  0  0
 17 16  2  0  0  0  0
 18 16  1  0  0  0  0
 18 19  1  0  0  0  0
 19 20  1  0  0  0  0
 21 20  1  6  0  0  0
 21 31  1  0  0  0  0
 22 25  1  0  0  0  0
 22 26  1  0  0  0  0
 23 25  2  0  0  0  0
 24 26  2  0  0  0  0
 26 21  1  0  0  0  0
 27 30  1  0  0  0  0
 28 22  1  0  0  0  0
 29 30  2  0  0  0  0
 30 28  1  0  0  0  0
 31 32  1  0  0  0  0
 34 33  1  0  0  0  0
 35 34  1  0  0  0  0
 36 35  1  0  0  0  0
 37 36  2  0  0  0  0
 38 39  2  0  0  0  0
 39 36  1  0  0  0  0
M  END
>  <MODEL>
9

>  <REMARK>
 VINA RESULT:      -5.7      2.464      7.492
  Name = 
  20 active torsions:
  status: ('A' for Active; 'I' for Inactive)
    1  A    between atoms: O_3  and  C_11
    2  A    between atoms: O_3  and  C_12
    3  A    between atoms: N_4  and  N_13
    4  A    between atoms: C_7  and  C_20
    5  A    between atoms: C_7  and  C_35
    6  A    between atoms: C_10  and  O_17
    7  A    between atoms: C_10  and  C_26
    8  A    between atoms: C_10  and  C_39
    9  A    between atoms: C_11  and  C_19
   10  A    between atoms: C_12  and  C_38
   11  A    between atoms: N_14  and  C_24
   12  A    between atoms: N_14  and  N_36
   13  A    between atoms: N_16  and  C_22
   14  A    between atoms: N_16  and  C_27
   15  A    between atoms: C_22  and  C_28
   16  A    between atoms: C_24  and  C_28
   17  A    between atoms: C_26  and  C_35
   18  A    between atoms: C_29  and  C_32
   19  A    between atoms: C_32  and  C_33
   20  A    between atoms: C_32  and  C_38
                            x       y       z     vdW  Elec       q    Type
                         _______ _______ _______ _____ _____    ______ ____

>  <TORSDO>
F 20

$$$$
