=
 OpenBabel11062413543D

 25 27  0  0  1  0  0  0  0  0999 V2000
  192.2960  177.0750  141.8660 F   0  0  0  0  0  0  0  0  0  0  0  0
  188.9110  178.4450  139.9330 C   0  0  0  0  0  2  0  0  0  0  0  0
  189.9270  177.7460  139.1250 N   0  0  1  0  0  0  0  0  0  0  0  0
  191.1990  177.7150  139.8640 C   0  0  0  0  0  2  0  0  0  0  0  0
  189.9900  177.7030  142.0680 C   0  0  2  0  0  3  0  0  0  0  0  0
  188.6830  177.7720  141.2870 C   0  0  0  0  0  2  0  0  0  0  0  0
  191.0740  177.0200  141.2230 C   0  0  2  0  0  3  0  0  0  0  0  0
  187.6920  175.8000  143.3710 O   0  0  0  0  0  1  0  0  0  0  0  0
  187.0530  177.8440  145.7050 N   0  0  0  0  0  1  0  0  0  0  0  0
  188.2270  177.0970  145.2940 C   0  0  1  0  0  3  0  0  0  0  0  0
  190.4910  177.6690  144.5740 C   0  0  0  0  0  2  0  0  0  0  0  0
  189.7430  177.0180  143.4170 C   0  0  1  0  0  3  0  0  0  0  0  0
  188.2730  176.9980  143.7870 C   0  0  1  0  0  3  0  0  0  0  0  0
  189.4840  177.8440  145.6990 C   0  0  2  0  0  3  0  0  0  0  0  0
  190.0270  177.3350  146.9990 C   0  0  0  0  0  0  0  0  0  0  0  0
  189.3570  177.4560  148.0130 O   0  0  0  0  0  0  0  0  0  0  0  0
  191.3740  176.6810  147.0670 C   0  0  0  0  0  3  0  0  0  0  0  0
  191.2280  175.3100  147.2820 O   0  0  0  0  0  1  0  0  0  0  0  0
  192.1240  177.2400  148.1020 O   0  0  0  0  0  1  0  0  0  0  0  0
  189.4860  176.3870  138.7650 C   0  0  1  0  0  3  0  0  0  0  0  0
  189.4740  174.7070  136.9250 C   0  0  1  0  0  3  0  0  0  0  0  0
  189.6700  173.4800  136.2340 N   0  0  0  0  0  1  0  0  0  0  0  0
  188.2610  176.4260  137.8500 C   0  0  0  0  0  2  0  0  0  0  0  0
  188.3040  175.2310  137.0310 N   0  0  0  0  0  2  0  0  0  0  0  0
  190.7840  175.4910  137.8360 S   0  0  0  0  0  0  0  0  0  0  0  0
  2  6  1  0  0  0  0
  3  4  1  1  0  0  0
  3  2  1  0  0  0  0
  4  7  1  0  0  0  0
  5  6  1  6  0  0  0
  5 12  1  0  0  0  0
  7  1  1  1  0  0  0
  7  5  1  0  0  0  0
 10 14  1  0  0  0  0
 10  9  1  6  0  0  0
 11 14  1  0  0  0  0
 12 13  1  0  0  0  0
 12 11  1  1  0  0  0
 13  8  1  1  0  0  0
 13 10  1  0  0  0  0
 14 15  1  1  0  0  0
 15 17  1  0  0  0  0
 15 16  2  0  0  0  0
 17 18  1  0  0  0  0
 17 19  1  0  0  0  0
 20 23  1  6  0  0  0
 20  3  1  0  0  0  0
 21 22  1  1  0  0  0
 21 24  1  0  0  0  0
 21 25  1  0  0  0  0
 24 23  1  0  0  0  0
 25 20  1  0  0  0  0
M  END
>  <MODEL>
1

>  <REMARK>
 VINA RESULT:      -7.1      0.000      0.000
  Name = 
  4 active torsions:
  status: ('A' for Active; 'I' for Inactive)
    1  A    between atoms: C_1  and  C_3
    2  A    between atoms: C_1  and  C_23
    3  A    between atoms: N_6  and  C_9
    4  A    between atoms: C_12  and  C_19
                            x       y       z     vdW  Elec       q    Type
                         _______ _______ _______ _____ _____    ______ ____

>  <TORSDO>
F 4

$$$$
=
 OpenBabel11062413543D

 25 27  0  0  1  0  0  0  0  0999 V2000
  181.1590  179.1020  143.9910 F   0  0  0  0  0  0  0  0  0  0  0  0
  181.7580  178.1280  140.0210 C   0  0  0  0  0  2  0  0  0  0  0  0
  180.5580  178.9120  140.3610 N   0  0  1  0  0  0  0  0  0  0  0  0
  180.2950  178.7990  141.8040 C   0  0  0  0  0  2  0  0  0  0  0  0
  182.7440  178.5120  142.2910 C   0  0  2  0  0  3  0  0  0  0  0  0
  182.9950  178.5960  140.7900 C   0  0  0  0  0  2  0  0  0  0  0  0
  181.4700  179.2850  142.6580 C   0  0  2  0  0  3  0  0  0  0  0  0
  185.7060  179.6130  141.5060 O   0  0  0  0  0  1  0  0  0  0  0  0
  187.1920  177.2910  143.0670 N   0  0  0  0  0  1  0  0  0  0  0  0
  186.2830  178.3580  143.4450 C   0  0  1  0  0  3  0  0  0  0  0  0
  184.0710  178.4790  144.4750 C   0  0  0  0  0  2  0  0  0  0  0  0
  183.9900  178.9940  143.0430 C   0  0  1  0  0  3  0  0  0  0  0  0
  185.2730  178.5870  142.3450 C   0  0  1  0  0  3  0  0  0  0  0  0
  185.4830  177.9480  144.6670 C   0  0  2  0  0  3  0  0  0  0  0  0
  186.0970  178.4780  145.9260 C   0  0  0  0  0  0  0  0  0  0  0  0
  185.7100  179.5460  146.3740 O   0  0  0  0  0  0  0  0  0  0  0  0
  187.1740  177.7150  146.6370 C   0  0  0  0  0  3  0  0  0  0  0  0
  187.1840  178.0540  147.9900 O   0  0  0  0  0  1  0  0  0  0  0  0
  188.4170  178.0050  146.0720 O   0  0  0  0  0  1  0  0  0  0  0  0
  180.7030  180.3210  139.9550 C   0  0  1  0  0  3  0  0  0  0  0  0
  179.4950  182.2460  138.9330 C   0  0  1  0  0  3  0  0  0  0  0  0
  178.9590  183.5530  138.7690 N   0  0  0  0  0  1  0  0  0  0  0  0
  180.8380  180.4490  138.4370 C   0  0  0  0  0  2  0  0  0  0  0  0
  180.3070  181.7470  138.0710 N   0  0  0  0  0  2  0  0  0  0  0  0
  179.2280  181.3020  140.4160 S   0  0  0  0  0  0  0  0  0  0  0  0
  2  6  1  0  0  0  0
  3  2  1  1  0  0  0
  3  4  1  0  0  0  0
  4  7  1  0  0  0  0
  5  6  1  6  0  0  0
  5  7  1  0  0  0  0
  5 12  1  0  0  0  0
  7  1  1  1  0  0  0
 10  9  1  6  0  0  0
 10 14  1  0  0  0  0
 11 14  1  0  0  0  0
 12 11  1  1  0  0  0
 13  8  1  6  0  0  0
 13 12  1  0  0  0  0
 13 10  1  0  0  0  0
 14 15  1  1  0  0  0
 15 16  2  0  0  0  0
 15 17  1  0  0  0  0
 17 18  1  0  0  0  0
 19 17  1  0  0  0  0
 20 23  1  6  0  0  0
 20  3  1  0  0  0  0
 20 25  1  0  0  0  0
 21 22  1  1  0  0  0
 21 25  1  0  0  0  0
 24 23  1  0  0  0  0
 24 21  1  0  0  0  0
M  END
>  <MODEL>
2

>  <REMARK>
 VINA RESULT:      -6.6      7.102      8.154
  Name = 
  4 active torsions:
  status: ('A' for Active; 'I' for Inactive)
    1  A    between atoms: C_1  and  C_3
    2  A    between atoms: C_1  and  C_23
    3  A    between atoms: N_6  and  C_9
    4  A    between atoms: C_12  and  C_19
                            x       y       z     vdW  Elec       q    Type
                         _______ _______ _______ _____ _____    ______ ____

>  <TORSDO>
F 4

$$$$
=
 OpenBabel11062413543D

 25 27  0  0  1  0  0  0  0  0999 V2000
  190.4830  179.3940  142.7640 F   0  0  0  0  0  0  0  0  0  0  0  0
  191.7670  175.7390  144.2020 C   0  0  0  0  0  2  0  0  0  0  0  0
  191.6130  176.8410  145.1690 N   0  0  1  0  0  0  0  0  0  0  0  0
  191.5680  178.1210  144.4450 C   0  0  0  0  0  2  0  0  0  0  0  0
  190.5390  177.0190  142.4340 C   0  0  2  0  0  3  0  0  0  0  0  0
  190.6250  175.6950  143.1850 C   0  0  0  0  0  2  0  0  0  0  0  0
  190.4250  178.1830  143.4270 C   0  0  2  0  0  3  0  0  0  0  0  0
  190.1720  176.2340  139.2960 O   0  0  0  0  0  1  0  0  0  0  0  0
  189.0530  179.0930  138.5130 N   0  0  0  0  0  1  0  0  0  0  0  0
  188.6190  178.0350  139.4070 C   0  0  1  0  0  3  0  0  0  0  0  0
  188.2020  177.8420  141.8070 C   0  0  0  0  0  2  0  0  0  0  0  0
  189.3840  176.9590  141.4270 C   0  0  1  0  0  3  0  0  0  0  0  0
  189.8190  177.3640  140.0330 C   0  0  1  0  0  3  0  0  0  0  0  0
  187.8240  178.6230  140.5580 C   0  0  2  0  0  3  0  0  0  0  0  0
  186.3500  178.5510  140.2970 C   0  0  0  0  0  0  0  0  0  0  0  0
  185.9520  178.4990  139.1440 O   0  0  0  0  0  0  0  0  0  0  0  0
  185.3680  178.5400  141.4290 C   0  0  0  0  0  3  0  0  0  0  0  0
  184.0850  178.2870  140.9450 O   0  0  0  0  0  1  0  0  0  0  0  0
  185.3860  179.7700  142.0880 O   0  0  0  0  0  1  0  0  0  0  0  0
  190.4130  176.6590  146.0040 C   0  0  1  0  0  3  0  0  0  0  0  0
  188.7150  177.8770  147.3620 C   0  0  1  0  0  3  0  0  0  0  0  0
  187.4490  178.3230  147.8320 N   0  0  0  0  0  1  0  0  0  0  0  0
  190.7460  176.8090  147.4900 C   0  0  0  0  0  2  0  0  0  0  0  0
  189.5470  177.2900  148.1470 N   0  0  0  0  0  2  0  0  0  0  0  0
  189.1490  177.9310  145.6380 S   0  0  0  0  0  0  0  0  0  0  0  0
  3  2  1  6  0  0  0
  3 20  1  0  0  0  0
  4  3  1  0  0  0  0
  5  6  1  1  0  0  0
  5  7  1  0  0  0  0
  6  2  1  0  0  0  0
  7  1  1  6  0  0  0
  7  4  1  0  0  0  0
 10  9  1  6  0  0  0
 10 13  1  0  0  0  0
 10 14  1  0  0  0  0
 12 11  1  1  0  0  0
 12  5  1  0  0  0  0
 13  8  1  6  0  0  0
 13 12  1  0  0  0  0
 14 15  1  6  0  0  0
 14 11  1  0  0  0  0
 15 17  1  0  0  0  0
 16 15  2  0  0  0  0
 17 19  1  0  0  0  0
 18 17  1  0  0  0  0
 20 23  1  1  0  0  0
 21 22  1  6  0  0  0
 21 24  1  0  0  0  0
 23 24  1  0  0  0  0
 25 20  1  0  0  0  0
 25 21  1  0  0  0  0
M  END
>  <MODEL>
3

>  <REMARK>
 VINA RESULT:      -6.4      4.078      7.342
  Name = 
  4 active torsions:
  status: ('A' for Active; 'I' for Inactive)
    1  A    between atoms: C_1  and  C_3
    2  A    between atoms: C_1  and  C_23
    3  A    between atoms: N_6  and  C_9
    4  A    between atoms: C_12  and  C_19
                            x       y       z     vdW  Elec       q    Type
                         _______ _______ _______ _____ _____    ______ ____

>  <TORSDO>
F 4

$$$$
=
 OpenBabel11062413543D

 25 27  0  0  1  0  0  0  0  0999 V2000
  191.9440  176.6960  140.2440 F   0  0  0  0  0  0  0  0  0  0  0  0
  188.3660  178.5470  139.3280 C   0  0  0  0  0  2  0  0  0  0  0  0
  189.0420  177.7950  138.2570 N   0  0  1  0  0  0  0  0  0  0  0  0
  190.4490  177.5780  138.6290 C   0  0  0  0  0  2  0  0  0  0  0  0
  189.8650  177.5580  141.0740 C   0  0  2  0  0  3  0  0  0  0  0  0
  188.4180  177.8180  140.6720 C   0  0  0  0  0  2  0  0  0  0  0  0
  190.6000  176.8160  139.9490 C   0  0  2  0  0  3  0  0  0  0  0  0
  187.7280  175.9910  142.9640 O   0  0  0  0  0  1  0  0  0  0  0  0
  188.2070  177.9190  145.4330 N   0  0  0  0  0  1  0  0  0  0  0  0
  189.0430  177.0120  144.6660 C   0  0  1  0  0  3  0  0  0  0  0  0
  191.0620  177.2310  143.3080 C   0  0  0  0  0  2  0  0  0  0  0  0
  189.8960  176.8200  142.4170 C   0  0  1  0  0  3  0  0  0  0  0  0
  188.6240  177.0290  143.2140 C   0  0  1  0  0  3  0  0  0  0  0  0
  190.4830  177.4900  144.6900 C   0  0  2  0  0  3  0  0  0  0  0  0
  191.2740  176.7880  145.7510 C   0  0  0  0  0  0  0  0  0  0  0  0
  192.1070  175.9590  145.4230 O   0  0  0  0  0  0  0  0  0  0  0  0
  191.0540  177.0940  147.2030 C   0  0  0  0  0  3  0  0  0  0  0  0
  192.1950  176.7690  147.9360 O   0  0  0  0  0  1  0  0  0  0  0  0
  189.9650  176.3650  147.6840 O   0  0  0  0  0  1  0  0  0  0  0  0
  188.3610  176.5180  137.9840 C   0  0  1  0  0  3  0  0  0  0  0  0
  187.6960  174.9510  136.1630 C   0  0  1  0  0  3  0  0  0  0  0  0
  187.5650  173.7480  135.4170 N   0  0  0  0  0  1  0  0  0  0  0  0
  186.9670  176.7480  137.3960 C   0  0  0  0  0  2  0  0  0  0  0  0
  186.6620  175.6020  136.5640 N   0  0  0  0  0  2  0  0  0  0  0  0
  189.2740  175.5270  136.7460 S   0  0  0  0  0  0  0  0  0  0  0  0
  2  6  1  0  0  0  0
  3  4  1  1  0  0  0
  3  2  1  0  0  0  0
  4  7  1  0  0  0  0
  5  6  1  6  0  0  0
  5 12  1  0  0  0  0
  7  1  1  1  0  0  0
  7  5  1  0  0  0  0
 10 14  1  0  0  0  0
 10  9  1  1  0  0  0
 11 14  1  0  0  0  0
 12 13  1  0  0  0  0
 12 11  1  1  0  0  0
 13  8  1  1  0  0  0
 13 10  1  0  0  0  0
 14 15  1  1  0  0  0
 15 17  1  0  0  0  0
 16 15  2  0  0  0  0
 17 19  1  0  0  0  0
 17 18  1  0  0  0  0
 20 23  1  6  0  0  0
 20  3  1  0  0  0  0
 21 22  1  1  0  0  0
 21 24  1  0  0  0  0
 21 25  1  0  0  0  0
 24 23  1  0  0  0  0
 25 20  1  0  0  0  0
M  END
>  <MODEL>
4

>  <REMARK>
 VINA RESULT:      -6.4      1.294      1.646
  Name = 
  4 active torsions:
  status: ('A' for Active; 'I' for Inactive)
    1  A    between atoms: C_1  and  C_3
    2  A    between atoms: C_1  and  C_23
    3  A    between atoms: N_6  and  C_9
    4  A    between atoms: C_12  and  C_19
                            x       y       z     vdW  Elec       q    Type
                         _______ _______ _______ _____ _____    ______ ____

>  <TORSDO>
F 4

$$$$
=
 OpenBabel11062413543D

 25 27  0  0  1  0  0  0  0  0999 V2000
  188.2520  175.6000  143.7010 F   0  0  0  0  0  0  0  0  0  0  0  0
  191.8690  177.3440  142.7280 C   0  0  0  0  0  2  0  0  0  0  0  0
  191.1070  176.6960  141.6460 N   0  0  1  0  0  0  0  0  0  0  0  0
  190.1010  175.7950  142.2310 C   0  0  0  0  0  2  0  0  0  0  0  0
  189.9030  177.2430  144.2760 C   0  0  2  0  0  3  0  0  0  0  0  0
  190.9710  178.1460  143.6710 C   0  0  0  0  0  2  0  0  0  0  0  0
  189.1290  176.5220  143.1630 C   0  0  2  0  0  3  0  0  0  0  0  0
  190.0310  178.3020  147.3520 O   0  0  0  0  0  1  0  0  0  0  0  0
  187.3760  176.7870  148.1860 N   0  0  0  0  0  1  0  0  0  0  0  0
  187.7020  177.8250  147.2250 C   0  0  1  0  0  3  0  0  0  0  0  0
  187.5410  178.0670  144.7990 C   0  0  0  0  0  2  0  0  0  0  0  0
  189.0090  178.0660  145.2100 C   0  0  1  0  0  3  0  0  0  0  0  0
  189.0740  177.5760  146.6430 C   0  0  1  0  0  3  0  0  0  0  0  0
  186.7380  177.7690  146.0550 C   0  0  2  0  0  3  0  0  0  0  0  0
  185.6140  178.7460  146.2260 C   0  0  0  0  0  0  0  0  0  0  0  0
  185.6040  179.4760  147.2040 O   0  0  0  0  0  0  0  0  0  0  0  0
  184.5120  178.8350  145.2140 C   0  0  0  0  0  3  0  0  0  0  0  0
  184.7890  179.8480  144.2960 O   0  0  0  0  0  1  0  0  0  0  0  0
  183.2990  179.0990  145.8520 O   0  0  0  0  0  1  0  0  0  0  0  0
  190.4780  177.6920  140.7600 C   0  0  1  0  0  3  0  0  0  0  0  0
  188.7130  178.0020  139.0290 C   0  0  1  0  0  3  0  0  0  0  0  0
  187.5720  178.5270  138.3630 N   0  0  0  0  0  1  0  0  0  0  0  0
  190.9410  177.5160  139.3130 C   0  0  0  0  0  2  0  0  0  0  0  0
  189.8680  177.9910  138.4630 N   0  0  0  0  0  2  0  0  0  0  0  0
  188.6580  177.5060  140.7350 S   0  0  0  0  0  0  0  0  0  0  0  0
  2  6  1  0  0  0  0
  3  4  1  1  0  0  0
  3  2  1  0  0  0  0
  4  7  1  0  0  0  0
  5  6  1  6  0  0  0
  5 12  1  0  0  0  0
  7  1  1  1  0  0  0
  7  5  1  0  0  0  0
 10  9  1  1  0  0  0
 11 14  1  0  0  0  0
 12 11  1  6  0  0  0
 12 13  1  0  0  0  0
 13 10  1  0  0  0  0
 13  8  1  1  0  0  0
 14 15  1  1  0  0  0
 14 10  1  0  0  0  0
 15 16  2  0  0  0  0
 17 19  1  0  0  0  0
 17 15  1  0  0  0  0
 18 17  1  0  0  0  0
 20 23  1  6  0  0  0
 20  3  1  0  0  0  0
 21 22  1  1  0  0  0
 21 25  1  0  0  0  0
 24 21  1  0  0  0  0
 24 23  1  0  0  0  0
 25 20  1  0  0  0  0
M  END
>  <MODEL>
5

>  <REMARK>
 VINA RESULT:      -6.3      2.787      4.486
  Name = 
  4 active torsions:
  status: ('A' for Active; 'I' for Inactive)
    1  A    between atoms: C_1  and  C_3
    2  A    between atoms: C_1  and  C_23
    3  A    between atoms: N_6  and  C_9
    4  A    between atoms: C_12  and  C_19
                            x       y       z     vdW  Elec       q    Type
                         _______ _______ _______ _____ _____    ______ ____

>  <TORSDO>
F 4

$$$$
=
 OpenBabel11062413543D

 25 27  0  0  1  0  0  0  0  0999 V2000
  191.1810  179.0600  143.3790 F   0  0  0  0  0  0  0  0  0  0  0  0
  188.2880  176.1680  143.9670 C   0  0  0  0  0  2  0  0  0  0  0  0
  188.2640  177.3520  144.8450 N   0  0  1  0  0  0  0  0  0  0  0  0
  189.5660  178.0330  144.7790 C   0  0  0  0  0  2  0  0  0  0  0  0
  189.9200  177.2620  142.4130 C   0  0  2  0  0  3  0  0  0  0  0  0
  188.5850  176.5320  142.5110 C   0  0  0  0  0  2  0  0  0  0  0  0
  189.9310  178.4720  143.3580 C   0  0  2  0  0  3  0  0  0  0  0  0
  188.4160  178.9480  140.0690 O   0  0  0  0  0  1  0  0  0  0  0  0
  188.2540  176.4580  138.1170 N   0  0  0  0  0  1  0  0  0  0  0  0
  189.3360  177.2050  138.7340 C   0  0  1  0  0  3  0  0  0  0  0  0
  191.1680  176.6760  140.2610 C   0  0  0  0  0  2  0  0  0  0  0  0
  190.1950  177.6260  140.9500 C   0  0  1  0  0  3  0  0  0  0  0  0
  188.9280  177.6520  140.1190 C   0  0  1  0  0  3  0  0  0  0  0  0
  190.5420  176.3050  138.9260 C   0  0  2  0  0  3  0  0  0  0  0  0
  191.5230  176.4600  137.8040 C   0  0  0  0  0  0  0  0  0  0  0  0
  191.1200  176.8000  136.7030 O   0  0  0  0  0  0  0  0  0  0  0  0
  192.9850  176.2050  138.0190 C   0  0  0  0  0  3  0  0  0  0  0  0
  193.7370  176.9540  137.1150 O   0  0  0  0  0  1  0  0  0  0  0  0
  193.2620  174.8480  137.8480 O   0  0  0  0  0  1  0  0  0  0  0  0
  187.1660  178.2650  144.4870 C   0  0  1  0  0  3  0  0  0  0  0  0
  184.7260  178.6810  144.7860 C   0  0  1  0  0  3  0  0  0  0  0  0
  183.5140  179.3520  145.1060 N   0  0  0  0  0  1  0  0  0  0  0  0
  186.2590  177.6500  143.4190 C   0  0  0  0  0  2  0  0  0  0  0  0
  184.9380  178.2140  143.6060 N   0  0  0  0  0  2  0  0  0  0  0  0
  186.0890  178.6100  145.9260 S   0  0  0  0  0  0  0  0  0  0  0  0
  3  2  1  6  0  0  0
  4  3  1  0  0  0  0
  5  6  1  6  0  0  0
  5  7  1  0  0  0  0
  6  2  1  0  0  0  0
  7  1  1  1  0  0  0
  7  4  1  0  0  0  0
 10  9  1  1  0  0  0
 10 14  1  0  0  0  0
 10 13  1  0  0  0  0
 12 11  1  6  0  0  0
 12  5  1  0  0  0  0
 13  8  1  6  0  0  0
 13 12  1  0  0  0  0
 14 15  1  6  0  0  0
 14 11  1  0  0  0  0
 15 17  1  0  0  0  0
 16 15  2  0  0  0  0
 18 17  1  0  0  0  0
 19 17  1  0  0  0  0
 20 23  1  6  0  0  0
 20  3  1  0  0  0  0
 20 25  1  0  0  0  0
 21 22  1  6  0  0  0
 21 25  1  0  0  0  0
 23 24  1  0  0  0  0
 24 21  1  0  0  0  0
M  END
>  <MODEL>
6

>  <REMARK>
 VINA RESULT:      -6.3      4.048      7.317
  Name = 
  4 active torsions:
  status: ('A' for Active; 'I' for Inactive)
    1  A    between atoms: C_1  and  C_3
    2  A    between atoms: C_1  and  C_23
    3  A    between atoms: N_6  and  C_9
    4  A    between atoms: C_12  and  C_19
                            x       y       z     vdW  Elec       q    Type
                         _______ _______ _______ _____ _____    ______ ____

>  <TORSDO>
F 4

$$$$
=
 OpenBabel11062413543D

 25 27  0  0  1  0  0  0  0  0999 V2000
  187.2550  178.8950  140.7010 F   0  0  0  0  0  0  0  0  0  0  0  0
  183.4400  178.9420  142.2880 C   0  0  0  0  0  2  0  0  0  0  0  0
  183.5720  178.9470  140.8200 N   0  0  1  0  0  0  0  0  0  0  0  0
  184.9400  179.3480  140.4560 C   0  0  0  0  0  2  0  0  0  0  0  0
  185.8590  178.3660  142.5800 C   0  0  2  0  0  3  0  0  0  0  0  0
  184.4320  177.9890  142.9570 C   0  0  0  0  0  2  0  0  0  0  0  0
  186.0040  178.4230  141.0530 C   0  0  2  0  0  3  0  0  0  0  0  0
  186.3240  177.1640  145.5700 O   0  0  0  0  0  1  0  0  0  0  0  0
  189.2700  178.3130  145.7810 N   0  0  0  0  0  1  0  0  0  0  0  0
  188.6000  177.3730  144.9010 C   0  0  1  0  0  3  0  0  0  0  0  0
  188.1560  177.2460  142.5010 C   0  0  0  0  0  2  0  0  0  0  0  0
  186.8370  177.3950  143.2520 C   0  0  1  0  0  3  0  0  0  0  0  0
  187.1720  177.8110  144.6710 C   0  0  1  0  0  3  0  0  0  0  0  0
  189.2620  177.3790  143.5360 C   0  0  2  0  0  3  0  0  0  0  0  0
  190.2620  176.2710  143.4090 C   0  0  0  0  0  0  0  0  0  0  0  0
  189.9090  175.2020  142.9380 O   0  0  0  0  0  0  0  0  0  0  0  0
  191.6820  176.4630  143.8490 C   0  0  0  0  0  3  0  0  0  0  0  0
  191.8350  176.0310  145.1660 O   0  0  0  0  0  1  0  0  0  0  0  0
  192.0320  177.8110  143.7540 O   0  0  0  0  0  1  0  0  0  0  0  0
  183.2310  177.6340  140.2450 C   0  0  1  0  0  3  0  0  0  0  0  0
  182.2190  176.5190  138.2600 C   0  0  1  0  0  3  0  0  0  0  0  0
  182.0770  175.6520  137.1420 N   0  0  0  0  0  1  0  0  0  0  0  0
  181.7290  177.3610  140.3410 C   0  0  0  0  0  2  0  0  0  0  0  0
  181.3850  176.4860  139.2380 N   0  0  0  0  0  2  0  0  0  0  0  0
  183.6460  177.5600  138.4640 S   0  0  0  0  0  0  0  0  0  0  0  0
  2  6  1  0  0  0  0
  3  4  1  1  0  0  0
  3  2  1  0  0  0  0
  4  7  1  0  0  0  0
  5  6  1  6  0  0  0
  5 12  1  0  0  0  0
  7  1  1  1  0  0  0
  7  5  1  0  0  0  0
 10  9  1  1  0  0  0
 11 14  1  0  0  0  0
 12 11  1  6  0  0  0
 12 13  1  0  0  0  0
 13 10  1  0  0  0  0
 13  8  1  1  0  0  0
 14 15  1  1  0  0  0
 14 10  1  0  0  0  0
 15 17  1  0  0  0  0
 16 15  2  0  0  0  0
 17 18  1  0  0  0  0
 19 17  1  0  0  0  0
 20 23  1  6  0  0  0
 20  3  1  0  0  0  0
 21 22  1  1  0  0  0
 21 25  1  0  0  0  0
 21 24  1  0  0  0  0
 24 23  1  0  0  0  0
 25 20  1  0  0  0  0
M  END
>  <MODEL>
7

>  <REMARK>
 VINA RESULT:      -6.2      4.325      5.150
  Name = 
  4 active torsions:
  status: ('A' for Active; 'I' for Inactive)
    1  A    between atoms: C_1  and  C_3
    2  A    between atoms: C_1  and  C_23
    3  A    between atoms: N_6  and  C_9
    4  A    between atoms: C_12  and  C_19
                            x       y       z     vdW  Elec       q    Type
                         _______ _______ _______ _____ _____    ______ ____

>  <TORSDO>
F 4

$$$$
=
 OpenBabel11062413543D

 25 27  0  0  1  0  0  0  0  0999 V2000
  186.4840  179.1460  141.7300 F   0  0  0  0  0  0  0  0  0  0  0  0
  182.3820  179.0660  141.2390 C   0  0  0  0  0  2  0  0  0  0  0  0
  183.2180  178.7370  140.0710 N   0  0  1  0  0  0  0  0  0  0  0  0
  184.5900  179.2170  140.3050 C   0  0  0  0  0  2  0  0  0  0  0  0
  184.3440  178.9010  142.7870 C   0  0  2  0  0  3  0  0  0  0  0  0
  182.9140  178.4400  142.5290 C   0  0  0  0  0  2  0  0  0  0  0  0
  185.2210  178.6100  141.5610 C   0  0  2  0  0  3  0  0  0  0  0  0
  183.3650  178.6830  145.8840 O   0  0  0  0  0  1  0  0  0  0  0  0
  185.9760  180.0800  147.0080 N   0  0  0  0  0  1  0  0  0  0  0  0
  185.7090  178.8700  146.2530 C   0  0  1  0  0  3  0  0  0  0  0  0
  186.3650  178.0000  144.0660 C   0  0  0  0  0  2  0  0  0  0  0  0
  184.8630  178.2570  144.0770 C   0  0  1  0  0  3  0  0  0  0  0  0
  184.5600  179.1010  145.3000 C   0  0  1  0  0  3  0  0  0  0  0  0
  186.9060  178.5250  145.3860 C   0  0  2  0  0  3  0  0  0  0  0  0
  187.7900  177.5160  146.0520 C   0  0  0  0  0  0  0  0  0  0  0  0
  187.4000  176.9600  147.0670 O   0  0  0  0  0  0  0  0  0  0  0  0
  189.1380  177.1820  145.4870 C   0  0  0  0  0  3  0  0  0  0  0  0
  189.9920  176.7660  146.5080 O   0  0  0  0  0  1  0  0  0  0  0  0
  189.6780  178.3010  144.8510 O   0  0  0  0  0  1  0  0  0  0  0  0
  183.2020  177.2920  139.7870 C   0  0  1  0  0  3  0  0  0  0  0  0
  182.7220  175.6040  138.0170 C   0  0  1  0  0  3  0  0  0  0  0  0
  182.9070  174.5110  137.1270 N   0  0  0  0  0  1  0  0  0  0  0  0
  181.7720  176.7470  139.7710 C   0  0  0  0  0  2  0  0  0  0  0  0
  181.7610  175.6100  138.8730 N   0  0  0  0  0  2  0  0  0  0  0  0
  183.9000  176.9300  138.1340 S   0  0  0  0  0  0  0  0  0  0  0  0
  2  6  1  0  0  0  0
  3  4  1  1  0  0  0
  3  2  1  0  0  0  0
  4  7  1  0  0  0  0
  5  6  1  6  0  0  0
  5 12  1  0  0  0  0
  7  1  1  1  0  0  0
  7  5  1  0  0  0  0
 10  9  1  6  0  0  0
 11 14  1  0  0  0  0
 12 11  1  6  0  0  0
 12 13  1  0  0  0  0
 13  8  1  1  0  0  0
 13 10  1  0  0  0  0
 14 15  1  1  0  0  0
 14 10  1  0  0  0  0
 15 16  2  0  0  0  0
 17 15  1  0  0  0  0
 17 18  1  0  0  0  0
 19 17  1  0  0  0  0
 20 23  1  6  0  0  0
 20  3  1  0  0  0  0
 21 22  1  1  0  0  0
 21 25  1  0  0  0  0
 21 24  1  0  0  0  0
 24 23  1  0  0  0  0
 25 20  1  0  0  0  0
M  END
>  <MODEL>
8

>  <REMARK>
 VINA RESULT:      -6.1      4.713      5.379
  Name = 
  4 active torsions:
  status: ('A' for Active; 'I' for Inactive)
    1  A    between atoms: C_1  and  C_3
    2  A    between atoms: C_1  and  C_23
    3  A    between atoms: N_6  and  C_9
    4  A    between atoms: C_12  and  C_19
                            x       y       z     vdW  Elec       q    Type
                         _______ _______ _______ _____ _____    ______ ____

>  <TORSDO>
F 4

$$$$
=
 OpenBabel11062413543D

 25 27  0  0  1  0  0  0  0  0999 V2000
  191.0740  175.9960  138.8030 F   0  0  0  0  0  0  0  0  0  0  0  0
  187.8310  177.9930  137.2000 C   0  0  0  0  0  2  0  0  0  0  0  0
  188.0700  176.6070  136.7580 N   0  0  1  0  0  0  0  0  0  0  0  0
  189.4520  176.2230  137.0890 C   0  0  0  0  0  2  0  0  0  0  0  0
  189.4670  177.7550  139.0810 C   0  0  2  0  0  3  0  0  0  0  0  0
  188.0490  178.1680  138.7040 C   0  0  0  0  0  2  0  0  0  0  0  0
  189.7510  176.3300  138.5870 C   0  0  2  0  0  3  0  0  0  0  0  0
  191.9190  177.4530  141.2010 O   0  0  0  0  0  1  0  0  0  0  0  0
  190.4210  175.2470  142.9130 N   0  0  0  0  0  1  0  0  0  0  0  0
  190.1510  176.6310  142.5670 C   0  0  1  0  0  3  0  0  0  0  0  0
  188.3680  177.8160  141.3890 C   0  0  0  0  0  2  0  0  0  0  0  0
  189.6630  177.9290  140.5920 C   0  0  1  0  0  3  0  0  0  0  0  0
  190.6330  176.9150  141.1630 C   0  0  1  0  0  3  0  0  0  0  0  0
  188.6540  176.8770  142.5500 C   0  0  2  0  0  3  0  0  0  0  0  0
  188.1810  177.4580  143.8480 C   0  0  0  0  0  0  0  0  0  0  0  0
  188.9520  178.1290  144.5150 O   0  0  0  0  0  0  0  0  0  0  0  0
  186.7810  177.2260  144.3290 C   0  0  0  0  0  3  0  0  0  0  0  0
  185.9150  178.1450  143.7370 O   0  0  0  0  0  1  0  0  0  0  0  0
  186.7260  177.3580  145.7180 O   0  0  0  0  0  1  0  0  0  0  0  0
  187.1000  175.6760  137.3590 C   0  0  1  0  0  3  0  0  0  0  0  0
  185.5940  173.7540  136.8590 C   0  0  1  0  0  3  0  0  0  0  0  0
  184.9980  172.4660  136.9440 N   0  0  0  0  0  1  0  0  0  0  0  0
  185.6660  176.0480  136.9780 C   0  0  0  0  0  2  0  0  0  0  0  0
  184.8920  174.8230  136.9900 N   0  0  0  0  0  2  0  0  0  0  0  0
  187.3570  173.9670  136.7560 S   0  0  0  0  0  0  0  0  0  0  0  0
  2  6  1  0  0  0  0
  3  4  1  1  0  0  0
  3  2  1  0  0  0  0
  3 20  1  0  0  0  0
  4  7  1  0  0  0  0
  5  6  1  1  0  0  0
  5 12  1  0  0  0  0
  7  1  1  6  0  0  0
  7  5  1  0  0  0  0
 10  9  1  6  0  0  0
 11 14  1  0  0  0  0
 12 13  1  0  0  0  0
 12 11  1  1  0  0  0
 13  8  1  1  0  0  0
 13 10  1  0  0  0  0
 14 10  1  0  0  0  0
 14 15  1  1  0  0  0
 15 17  1  0  0  0  0
 15 16  2  0  0  0  0
 17 19  1  0  0  0  0
 18 17  1  0  0  0  0
 20 23  1  6  0  0  0
 21 22  1  1  0  0  0
 21 24  1  0  0  0  0
 23 24  1  0  0  0  0
 25 21  1  0  0  0  0
 25 20  1  0  0  0  0
M  END
>  <MODEL>
9

>  <REMARK>
 VINA RESULT:      -6.1      2.841      4.004
  Name = 
  4 active torsions:
  status: ('A' for Active; 'I' for Inactive)
    1  A    between atoms: C_1  and  C_3
    2  A    between atoms: C_1  and  C_23
    3  A    between atoms: N_6  and  C_9
    4  A    between atoms: C_12  and  C_19
                            x       y       z     vdW  Elec       q    Type
                         _______ _______ _______ _____ _____    ______ ____

>  <TORSDO>
F 4

$$$$
