=
 OpenBabel11062418093D

 25 27  0  0  1  0  0  0  0  0999 V2000
  187.7960  178.2710  139.8900 C   0  0  0  0  0  0  0  0  0  0  0  0
  186.0330  178.2460  142.8900 C   0  0  0  0  0  0  0  0  0  0  0  0
  188.3610  177.6340  142.9710 C   0  0  0  0  0  0  0  0  0  0  0  0
  187.2490  178.1190  142.2810 C   0  0  0  0  0  0  0  0  0  0  0  0
  185.6020  178.8670  140.8400 C   0  0  0  0  0  3  0  0  0  0  0  0
  185.8430  177.9040  144.1900 N   0  0  0  0  0  0  0  0  0  0  0  0
  185.0250  178.7040  141.9960 N   0  0  0  0  0  0  0  0  0  0  0  0
  189.2320  179.0950  138.1390 C   0  0  0  0  0  1  0  0  0  0  0  0
  187.0380  178.5520  140.9120 C   0  0  0  0  0  0  0  0  0  0  0  0
  188.1690  177.2820  144.3210 C   0  0  0  0  0  3  0  0  0  0  0  0
  188.5610  177.9820  138.8710 C   0  0  0  0  0  0  0  0  0  0  0  0
  186.8980  177.4270  144.9150 C   0  0  0  0  0  3  0  0  0  0  0  0
  190.2910  174.8070  137.8750 O   0  0  0  0  0  0  0  0  0  0  0  0
  189.4900  173.1870  136.4460 O   0  0  0  0  0  0  0  0  0  0  0  0
  188.6890  176.5580  138.4180 C   0  0  1  0  0  3  0  0  0  0  0  0
  187.9920  174.9990  136.9220 C   0  0  0  0  0  2  0  0  0  0  0  0
  188.1660  176.3830  137.1210 O   0  0  0  0  0  0  0  0  0  0  0  0
  189.3070  174.2830  137.0340 C   0  0  0  0  0  0  0  0  0  0  0  0
  190.1590  176.1180  138.4310 C   0  0  0  0  0  2  0  0  0  0  0  0
  191.9310  177.3170  142.1350 O   0  0  0  0  0  0  0  0  0  0  0  0
  190.9380  177.5520  142.8710 C   0  0  0  0  0  0  0  0  0  0  0  0
  189.6220  177.4970  142.3010 N   0  0  0  0  0  2  0  0  0  0  0  0
  191.1770  177.9270  144.2960 C   0  0  0  0  0  2  0  0  0  0  0  0
  191.6180  176.7080  145.0820 C   0  0  0  0  0  2  0  0  0  0  0  0
  191.7510  177.0480  146.4270 O   0  0  0  0  0  1  0  0  0  0  0  0
  1  9  2  0  0  0  0
  2  6  2  0  0  0  0
  3 10  1  0  0  0  0
  4  2  1  0  0  0  0
  4  3  2  0  0  0  0
  5  9  1  0  0  0  0
  5  7  2  0  0  0  0
  6 12  1  0  0  0  0
  7  2  1  0  0  0  0
  8 11  1  0  0  0  0
  9  4  1  0  0  0  0
 10 12  2  0  0  0  0
 11  1  2  0  0  0  0
 13 19  1  0  0  0  0
 14 18  2  0  0  0  0
 15 19  1  0  0  0  0
 15 11  1  6  0  0  0
 16 18  1  0  0  0  0
 16 17  1  0  0  0  0
 17 15  1  0  0  0  0
 18 13  1  0  0  0  0
 20 21  2  0  0  0  0
 21 23  1  0  0  0  0
 22 21  1  0  0  0  0
 22  3  1  0  0  0  0
 23 24  1  0  0  0  0
 24 25  1  0  0  0  0
M  END
>  <MODEL>
1

>  <REMARK>
 VINA RESULT:      -7.4      0.000      0.000
  Name = 
  4 active torsions:
  status: ('A' for Active; 'I' for Inactive)
    1  A    between atoms: C_6  and  C_24
    2  A    between atoms: C_7  and  C_10
    3  A    between atoms: C_7  and  C_17
    4  A    between atoms: C_8  and  N_16
                            x       y       z     vdW  Elec       q    Type
                         _______ _______ _______ _____ _____    ______ ____

>  <TORSDO>
F 4

$$$$
=
 OpenBabel11062418093D

 25 27  0  0  1  0  0  0  0  0999 V2000
  184.0250  178.8930  141.5970 C   0  0  0  0  0  0  0  0  0  0  0  0
  184.8870  178.5200  144.9470 C   0  0  0  0  0  0  0  0  0  0  0  0
  186.5500  177.9340  143.3070 C   0  0  0  0  0  0  0  0  0  0  0  0
  185.3100  178.4750  143.6500 C   0  0  0  0  0  0  0  0  0  0  0  0
  183.1820  179.3540  143.8660 C   0  0  0  0  0  3  0  0  0  0  0  0
  185.6440  178.0370  145.9650 N   0  0  0  0  0  0  0  0  0  0  0  0
  183.5760  179.0590  145.0710 N   0  0  0  0  0  0  0  0  0  0  0  0
  183.8640  179.9200  139.4240 C   0  0  0  0  0  1  0  0  0  0  0  0
  184.2270  179.0520  142.8750 C   0  0  0  0  0  0  0  0  0  0  0  0
  187.3400  177.4350  144.3600 C   0  0  0  0  0  3  0  0  0  0  0  0
  183.8290  178.7260  140.3160 C   0  0  0  0  0  0  0  0  0  0  0  0
  186.8690  177.4980  145.6880 C   0  0  0  0  0  3  0  0  0  0  0  0
  183.6640  175.9290  137.8240 O   0  0  0  0  0  0  0  0  0  0  0  0
  182.0920  174.2470  137.7370 O   0  0  0  0  0  0  0  0  0  0  0  0
  183.5050  177.3610  139.7860 C   0  0  1  0  0  3  0  0  0  0  0  0
  181.9090  175.7580  139.5900 C   0  0  0  0  0  2  0  0  0  0  0  0
  182.1130  177.1440  139.7440 O   0  0  0  0  0  0  0  0  0  0  0  0
  182.5320  175.2740  138.3130 C   0  0  0  0  0  0  0  0  0  0  0  0
  184.0860  177.1780  138.3760 C   0  0  0  0  0  2  0  0  0  0  0  0
  188.4550  177.6710  140.1690 O   0  0  0  0  0  0  0  0  0  0  0  0
  188.2940  177.7930  141.4110 C   0  0  0  0  0  0  0  0  0  0  0  0
  186.9610  177.8870  141.9330 N   0  0  0  0  0  2  0  0  0  0  0  0
  189.5030  177.8880  142.2820 C   0  0  0  0  0  2  0  0  0  0  0  0
  190.4980  176.8110  141.8990 C   0  0  0  0  0  2  0  0  0  0  0  0
  190.1780  175.6270  142.5610 O   0  0  0  0  0  1  0  0  0  0  0  0
  1  9  2  0  0  0  0
  2  7  1  0  0  0  0
  2  6  2  0  0  0  0
  3  4  2  0  0  0  0
  3 10  1  0  0  0  0
  4  2  1  0  0  0  0
  5  7  2  0  0  0  0
  8 11  1  0  0  0  0
  9  4  1  0  0  0  0
  9  5  1  0  0  0  0
 10 12  2  0  0  0  0
 11  1  2  0  0  0  0
 12  6  1  0  0  0  0
 13 18  1  0  0  0  0
 13 19  1  0  0  0  0
 14 18  2  0  0  0  0
 15 11  1  6  0  0  0
 16 17  1  0  0  0  0
 17 15  1  0  0  0  0
 18 16  1  0  0  0  0
 19 15  1  0  0  0  0
 20 21  2  0  0  0  0
 21 22  1  0  0  0  0
 21 23  1  0  0  0  0
 22  3  1  0  0  0  0
 24 23  1  0  0  0  0
 24 25  1  0  0  0  0
M  END
>  <MODEL>
2

>  <REMARK>
 VINA RESULT:      -6.9      3.174      4.516
  Name = 
  4 active torsions:
  status: ('A' for Active; 'I' for Inactive)
    1  A    between atoms: C_6  and  C_24
    2  A    between atoms: C_7  and  C_10
    3  A    between atoms: C_7  and  C_17
    4  A    between atoms: C_8  and  N_16
                            x       y       z     vdW  Elec       q    Type
                         _______ _______ _______ _____ _____    ______ ____

>  <TORSDO>
F 4

$$$$
=
 OpenBabel11062418093D

 25 27  0  0  1  0  0  0  0  0999 V2000
  184.1850  178.9260  140.6620 C   0  0  0  0  0  0  0  0  0  0  0  0
  185.8960  178.1520  143.5920 C   0  0  0  0  0  0  0  0  0  0  0  0
  187.1940  178.3500  141.5730 C   0  0  0  0  0  0  0  0  0  0  0  0
  185.9900  178.4710  142.2670 C   0  0  0  0  0  0  0  0  0  0  0  0
  183.8420  178.7040  143.0920 C   0  0  0  0  0  3  0  0  0  0  0  0
  186.9630  177.6970  144.2970 N   0  0  0  0  0  0  0  0  0  0  0  0
  184.5710  178.2950  144.0900 N   0  0  0  0  0  0  0  0  0  0  0  0
  183.2850  180.2750  138.8800 C   0  0  0  0  0  1  0  0  0  0  0  0
  184.6530  178.8820  141.8780 C   0  0  0  0  0  0  0  0  0  0  0  0
  188.3050  177.8820  142.3020 C   0  0  0  0  0  3  0  0  0  0  0  0
  183.7230  178.9650  139.4410 C   0  0  0  0  0  0  0  0  0  0  0  0
  188.1690  177.5610  143.6690 C   0  0  0  0  0  3  0  0  0  0  0  0
  182.9210  175.3530  138.8280 O   0  0  0  0  0  0  0  0  0  0  0  0
  183.8630  173.9790  137.2360 O   0  0  0  0  0  0  0  0  0  0  0  0
  183.5770  177.6910  138.6620 C   0  0  1  0  0  3  0  0  0  0  0  0
  184.5660  176.2720  137.1910 C   0  0  0  0  0  2  0  0  0  0  0  0
  184.8230  177.2340  138.1880 O   0  0  0  0  0  0  0  0  0  0  0  0
  183.7920  175.1190  137.7610 C   0  0  0  0  0  0  0  0  0  0  0  0
  182.9370  176.5980  139.5290 C   0  0  0  0  0  2  0  0  0  0  0  0
  187.9970  178.4940  137.9840 O   0  0  0  0  0  0  0  0  0  0  0  0
  188.1520  178.1520  139.1850 C   0  0  0  0  0  0  0  0  0  0  0  0
  187.2590  178.6780  140.1770 N   0  0  0  0  0  2  0  0  0  0  0  0
  189.2910  177.2510  139.5310 C   0  0  0  0  0  2  0  0  0  0  0  0
  189.8580  176.6320  138.2690 C   0  0  0  0  0  2  0  0  0  0  0  0
  190.5890  175.4920  138.6010 O   0  0  0  0  0  1  0  0  0  0  0  0
  1  9  2  0  0  0  0
  2  7  1  0  0  0  0
  2  6  2  0  0  0  0
  3  4  2  0  0  0  0
  3 10  1  0  0  0  0
  4  2  1  0  0  0  0
  5  7  2  0  0  0  0
  8 11  1  0  0  0  0
  9  4  1  0  0  0  0
  9  5  1  0  0  0  0
 10 12  2  0  0  0  0
 11  1  2  0  0  0  0
 12  6  1  0  0  0  0
 13 19  1  0  0  0  0
 14 18  2  0  0  0  0
 15 11  1  1  0  0  0
 15 19  1  0  0  0  0
 16 18  1  0  0  0  0
 16 17  1  0  0  0  0
 17 15  1  0  0  0  0
 18 13  1  0  0  0  0
 20 21  2  0  0  0  0
 21 23  1  0  0  0  0
 21 22  1  0  0  0  0
 22  3  1  0  0  0  0
 24 25  1  0  0  0  0
 24 23  1  0  0  0  0
M  END
>  <MODEL>
3

>  <REMARK>
 VINA RESULT:      -6.7      2.666      4.677
  Name = 
  4 active torsions:
  status: ('A' for Active; 'I' for Inactive)
    1  A    between atoms: C_6  and  C_24
    2  A    between atoms: C_7  and  C_10
    3  A    between atoms: C_7  and  C_17
    4  A    between atoms: C_8  and  N_16
                            x       y       z     vdW  Elec       q    Type
                         _______ _______ _______ _____ _____    ______ ____

>  <TORSDO>
F 4

$$$$
=
 OpenBabel11062418093D

 25 27  0  0  1  0  0  0  0  0999 V2000
  186.4660  178.3270  138.4200 C   0  0  0  0  0  0  0  0  0  0  0  0
  183.9010  178.5470  140.7620 C   0  0  0  0  0  0  0  0  0  0  0  0
  186.1610  178.6300  141.5880 C   0  0  0  0  0  0  0  0  0  0  0  0
  185.2460  178.6120  140.5350 C   0  0  0  0  0  0  0  0  0  0  0  0
  184.0140  178.5150  138.5800 C   0  0  0  0  0  3  0  0  0  0  0  0
  183.3870  178.4900  142.0170 N   0  0  0  0  0  0  0  0  0  0  0  0
  183.1510  178.4840  139.5540 N   0  0  0  0  0  0  0  0  0  0  0  0
  188.1860  179.0640  136.9030 C   0  0  0  0  0  1  0  0  0  0  0  0
  185.3900  178.6290  139.0910 C   0  0  0  0  0  0  0  0  0  0  0  0
  185.6320  178.5760  142.8930 C   0  0  0  0  0  3  0  0  0  0  0  0
  187.5490  178.0210  137.7570 C   0  0  0  0  0  0  0  0  0  0  0  0
  184.2370  178.5070  143.0870 C   0  0  0  0  0  3  0  0  0  0  0  0
  190.1020  175.2990  138.1230 O   0  0  0  0  0  0  0  0  0  0  0  0
  190.0280  173.1990  137.1780 O   0  0  0  0  0  0  0  0  0  0  0  0
  188.0810  176.6200  137.8120 C   0  0  1  0  0  3  0  0  0  0  0  0
  188.1090  174.5870  136.8010 C   0  0  0  0  0  2  0  0  0  0  0  0
  187.9310  175.9660  136.5720 O   0  0  0  0  0  0  0  0  0  0  0  0
  189.4810  174.3180  137.3470 C   0  0  0  0  0  0  0  0  0  0  0  0
  189.5660  176.6210  138.2020 C   0  0  0  0  0  2  0  0  0  0  0  0
  189.7680  177.9400  141.3510 O   0  0  0  0  0  0  0  0  0  0  0  0
  188.5910  177.7820  141.7670 C   0  0  0  0  0  0  0  0  0  0  0  0
  187.5700  178.6840  141.3190 N   0  0  0  0  0  2  0  0  0  0  0  0
  188.3210  176.6920  142.7500 C   0  0  0  0  0  2  0  0  0  0  0  0
  189.0010  177.0060  144.0670 C   0  0  0  0  0  2  0  0  0  0  0  0
  188.0400  177.1070  145.0720 O   0  0  0  0  0  1  0  0  0  0  0  0
  1  9  2  0  0  0  0
  2  6  2  0  0  0  0
  3 10  1  0  0  0  0
  4  2  1  0  0  0  0
  4  3  2  0  0  0  0
  5  9  1  0  0  0  0
  5  7  2  0  0  0  0
  6 12  1  0  0  0  0
  7  2  1  0  0  0  0
  8 11  1  0  0  0  0
  9  4  1  0  0  0  0
 10 12  2  0  0  0  0
 11  1  2  0  0  0  0
 13 19  1  0  0  0  0
 14 18  2  0  0  0  0
 15 11  1  6  0  0  0
 15 19  1  0  0  0  0
 16 18  1  0  0  0  0
 17 16  1  0  0  0  0
 17 15  1  0  0  0  0
 18 13  1  0  0  0  0
 20 21  2  0  0  0  0
 21 23  1  0  0  0  0
 22  3  1  0  0  0  0
 22 21  1  0  0  0  0
 23 24  1  0  0  0  0
 24 25  1  0  0  0  0
M  END
>  <MODEL>
4

>  <REMARK>
 VINA RESULT:      -6.6      1.831      2.427
  Name = 
  4 active torsions:
  status: ('A' for Active; 'I' for Inactive)
    1  A    between atoms: C_6  and  C_24
    2  A    between atoms: C_7  and  C_10
    3  A    between atoms: C_7  and  C_17
    4  A    between atoms: C_8  and  N_16
                            x       y       z     vdW  Elec       q    Type
                         _______ _______ _______ _____ _____    ______ ____

>  <TORSDO>
F 4

$$$$
=
 OpenBabel11062418093D

 25 27  0  0  1  0  0  0  0  0999 V2000
  187.8270  177.1860  137.5090 C   0  0  0  0  0  0  0  0  0  0  0  0
  185.6770  174.5070  136.9510 C   0  0  0  0  0  0  0  0  0  0  0  0
  184.6940  176.5780  137.6890 C   0  0  0  0  0  0  0  0  0  0  0  0
  185.7900  175.8350  137.2490 C   0  0  0  0  0  0  0  0  0  0  0  0
  187.8050  174.8830  136.6320 C   0  0  0  0  0  3  0  0  0  0  0  0
  184.4990  173.8430  137.0720 N   0  0  0  0  0  0  0  0  0  0  0  0
  186.9210  173.9290  136.5750 N   0  0  0  0  0  0  0  0  0  0  0  0
  189.0360  179.2210  137.0630 C   0  0  0  0  0  1  0  0  0  0  0  0
  187.1860  176.1600  137.0230 C   0  0  0  0  0  0  0  0  0  0  0  0
  183.4690  175.8930  137.8120 C   0  0  0  0  0  3  0  0  0  0  0  0
  188.4610  178.2160  138.0020 C   0  0  0  0  0  0  0  0  0  0  0  0
  183.3910  174.5210  137.4950 C   0  0  0  0  0  3  0  0  0  0  0  0
  189.7700  177.3150  141.3990 O   0  0  0  0  0  0  0  0  0  0  0  0
  188.7550  177.7280  143.4250 O   0  0  0  0  0  0  0  0  0  0  0  0
  188.6570  178.3270  139.4850 C   0  0  1  0  0  3  0  0  0  0  0  0
  187.6350  178.6040  141.4930 C   0  0  0  0  0  2  0  0  0  0  0  0
  187.4450  178.1340  140.1780 O   0  0  0  0  0  0  0  0  0  0  0  0
  188.7300  177.8340  142.1730 C   0  0  0  0  0  0  0  0  0  0  0  0
  189.6850  177.2960  139.9720 C   0  0  0  0  0  2  0  0  0  0  0  0
  184.7430  179.8630  139.3460 O   0  0  0  0  0  0  0  0  0  0  0  0
  184.4410  178.6500  139.2050 C   0  0  0  0  0  0  0  0  0  0  0  0
  184.8460  177.9680  138.0100 N   0  0  0  0  0  2  0  0  0  0  0  0
  183.6280  177.9870  140.2680 C   0  0  0  0  0  2  0  0  0  0  0  0
  183.7240  178.7790  141.5570 C   0  0  0  0  0  2  0  0  0  0  0  0
  184.4270  178.0370  142.5050 O   0  0  0  0  0  1  0  0  0  0  0  0
  1 11  2  0  0  0  0
  2  6  2  0  0  0  0
  2  4  1  0  0  0  0
  3 10  1  0  0  0  0
  3 22  1  0  0  0  0
  4  3  2  0  0  0  0
  5  9  1  0  0  0  0
  6 12  1  0  0  0  0
  7  5  2  0  0  0  0
  7  2  1  0  0  0  0
  8 11  1  0  0  0  0
  9  4  1  0  0  0  0
  9  1  2  0  0  0  0
 12 10  2  0  0  0  0
 13 18  1  0  0  0  0
 15 11  1  6  0  0  0
 15 19  1  0  0  0  0
 15 17  1  0  0  0  0
 16 18  1  0  0  0  0
 17 16  1  0  0  0  0
 18 14  2  0  0  0  0
 19 13  1  0  0  0  0
 21 20  2  0  0  0  0
 21 23  1  0  0  0  0
 22 21  1  0  0  0  0
 23 24  1  0  0  0  0
 24 25  1  0  0  0  0
M  END
>  <MODEL>
5

>  <REMARK>
 VINA RESULT:      -6.3      3.551      6.417
  Name = 
  4 active torsions:
  status: ('A' for Active; 'I' for Inactive)
    1  A    between atoms: C_6  and  C_24
    2  A    between atoms: C_7  and  C_10
    3  A    between atoms: C_7  and  C_17
    4  A    between atoms: C_8  and  N_16
                            x       y       z     vdW  Elec       q    Type
                         _______ _______ _______ _____ _____    ______ ____

>  <TORSDO>
F 4

$$$$
=
 OpenBabel11062418093D

 25 27  0  0  1  0  0  0  0  0999 V2000
  185.2030  178.7010  140.2910 C   0  0  0  0  0  0  0  0  0  0  0  0
  187.9530  177.8760  142.2580 C   0  0  0  0  0  0  0  0  0  0  0  0
  188.3410  178.2290  139.9070 C   0  0  0  0  0  0  0  0  0  0  0  0
  187.5070  178.2600  141.0260 C   0  0  0  0  0  0  0  0  0  0  0  0
  185.8550  178.3500  142.6420 C   0  0  0  0  0  3  0  0  0  0  0  0
  189.2230  177.4410  142.4570 N   0  0  0  0  0  0  0  0  0  0  0  0
  186.9300  177.9320  143.2450 N   0  0  0  0  0  0  0  0  0  0  0  0
  183.6370  180.0860  139.0930 C   0  0  0  0  0  1  0  0  0  0  0  0
  186.1150  178.6240  141.2190 C   0  0  0  0  0  0  0  0  0  0  0  0
  189.6610  177.7820  140.1100 C   0  0  0  0  0  3  0  0  0  0  0  0
  184.2950  178.7740  139.3550 C   0  0  0  0  0  0  0  0  0  0  0  0
  190.0850  177.3930  141.3980 C   0  0  0  0  0  3  0  0  0  0  0  0
  182.8990  176.7110  136.5510 O   0  0  0  0  0  0  0  0  0  0  0  0
  181.9000  174.6420  136.7220 O   0  0  0  0  0  0  0  0  0  0  0  0
  183.8860  177.5320  138.6200 C   0  0  1  0  0  3  0  0  0  0  0  0
  182.7850  175.5510  138.7580 C   0  0  0  0  0  2  0  0  0  0  0  0
  182.8550  176.8500  139.2980 O   0  0  0  0  0  0  0  0  0  0  0  0
  182.4690  175.6070  137.2920 C   0  0  0  0  0  0  0  0  0  0  0  0
  183.4110  177.8760  137.2010 C   0  0  0  0  0  2  0  0  0  0  0  0
  186.9060  178.3140  136.5190 O   0  0  0  0  0  0  0  0  0  0  0  0
  187.4030  177.7820  137.5460 C   0  0  0  0  0  0  0  0  0  0  0  0
  187.8400  178.6240  138.6220 N   0  0  0  0  0  2  0  0  0  0  0  0
  187.5630  176.2980  137.5760 C   0  0  0  0  0  2  0  0  0  0  0  0
  188.5790  175.8690  136.5360 C   0  0  0  0  0  2  0  0  0  0  0  0
  189.7690  176.5680  136.7350 O   0  0  0  0  0  1  0  0  0  0  0  0
  1  9  2  0  0  0  0
  2  6  2  0  0  0  0
  2  7  1  0  0  0  0
  3 10  1  0  0  0  0
  3  4  2  0  0  0  0
  4  9  1  0  0  0  0
  4  2  1  0  0  0  0
  5  7  2  0  0  0  0
  8 11  1  0  0  0  0
  9  5  1  0  0  0  0
 10 12  2  0  0  0  0
 11  1  2  0  0  0  0
 12  6  1  0  0  0  0
 13 19  1  0  0  0  0
 13 18  1  0  0  0  0
 14 18  2  0  0  0  0
 15 17  1  0  0  0  0
 15 11  1  1  0  0  0
 16 17  1  0  0  0  0
 18 16  1  0  0  0  0
 19 15  1  0  0  0  0
 20 21  2  0  0  0  0
 21 23  1  0  0  0  0
 21 22  1  0  0  0  0
 22  3  1  0  0  0  0
 24 25  1  0  0  0  0
 24 23  1  0  0  0  0
M  END
>  <MODEL>
6

>  <REMARK>
 VINA RESULT:      -6.3      3.112      5.684
  Name = 
  4 active torsions:
  status: ('A' for Active; 'I' for Inactive)
    1  A    between atoms: C_6  and  C_24
    2  A    between atoms: C_7  and  C_10
    3  A    between atoms: C_7  and  C_17
    4  A    between atoms: C_8  and  N_16
                            x       y       z     vdW  Elec       q    Type
                         _______ _______ _______ _____ _____    ______ ____

>  <TORSDO>
F 4

$$$$
=
 OpenBabel11062418093D

 25 27  0  0  1  0  0  0  0  0999 V2000
  189.0940  175.1920  136.5240 C   0  0  0  0  0  0  0  0  0  0  0  0
  186.1930  173.3950  137.2050 C   0  0  0  0  0  0  0  0  0  0  0  0
  185.9660  175.7650  136.8460 C   0  0  0  0  0  0  0  0  0  0  0  0
  186.7310  174.5980  136.8500 C   0  0  0  0  0  0  0  0  0  0  0  0
  188.2840  172.8850  136.8310 C   0  0  0  0  0  3  0  0  0  0  0  0
  184.8930  173.2730  137.5780 N   0  0  0  0  0  0  0  0  0  0  0  0
  187.1550  172.3470  137.1940 N   0  0  0  0  0  0  0  0  0  0  0  0
  190.7950  176.2950  135.2230 C   0  0  0  0  0  1  0  0  0  0  0  0
  188.1240  174.3210  136.5530 C   0  0  0  0  0  0  0  0  0  0  0  0
  184.6160  175.6420  137.2280 C   0  0  0  0  0  3  0  0  0  0  0  0
  190.0600  176.0710  136.5010 C   0  0  0  0  0  0  0  0  0  0  0  0
  184.0960  174.3820  137.5900 C   0  0  0  0  0  3  0  0  0  0  0  0
  192.1990  176.9610  139.4490 O   0  0  0  0  0  0  0  0  0  0  0  0
  191.4780  177.7390  141.4950 O   0  0  0  0  0  0  0  0  0  0  0  0
  190.4520  176.7770  137.7640 C   0  0  1  0  0  3  0  0  0  0  0  0
  189.7770  177.4280  139.8320 C   0  0  0  0  0  2  0  0  0  0  0  0
  189.5670  176.4730  138.8180 O   0  0  0  0  0  0  0  0  0  0  0  0
  191.1920  177.3620  140.3300 C   0  0  0  0  0  0  0  0  0  0  0  0
  191.8790  176.3900  138.1790 C   0  0  0  0  0  2  0  0  0  0  0  0
  187.4330  179.1400  136.8420 O   0  0  0  0  0  0  0  0  0  0  0  0
  186.8130  178.1550  137.3210 C   0  0  0  0  0  0  0  0  0  0  0  0
  186.5620  177.0190  136.4830 N   0  0  0  0  0  2  0  0  0  0  0  0
  186.3210  178.2360  138.7280 C   0  0  0  0  0  2  0  0  0  0  0  0
  184.9460  178.8740  138.7550 C   0  0  0  0  0  2  0  0  0  0  0  0
  184.8650  179.7530  139.8350 O   0  0  0  0  0  1  0  0  0  0  0  0
  1  9  2  0  0  0  0
  2  6  2  0  0  0  0
  3  4  2  0  0  0  0
  3 10  1  0  0  0  0
  4  2  1  0  0  0  0
  5  7  2  0  0  0  0
  6 12  1  0  0  0  0
  7  2  1  0  0  0  0
  8 11  1  0  0  0  0
  9  5  1  0  0  0  0
  9  4  1  0  0  0  0
 10 12  2  0  0  0  0
 11  1  2  0  0  0  0
 13 18  1  0  0  0  0
 15 11  1  6  0  0  0
 15 19  1  0  0  0  0
 15 17  1  0  0  0  0
 16 18  1  0  0  0  0
 17 16  1  0  0  0  0
 18 14  2  0  0  0  0
 19 13  1  0  0  0  0
 20 21  2  0  0  0  0
 21 23  1  0  0  0  0
 22  3  1  0  0  0  0
 22 21  1  0  0  0  0
 23 24  1  0  0  0  0
 24 25  1  0  0  0  0
M  END
>  <MODEL>
7

>  <REMARK>
 VINA RESULT:      -6.3      3.818      6.525
  Name = 
  4 active torsions:
  status: ('A' for Active; 'I' for Inactive)
    1  A    between atoms: C_6  and  C_24
    2  A    between atoms: C_7  and  C_10
    3  A    between atoms: C_7  and  C_17
    4  A    between atoms: C_8  and  N_16
                            x       y       z     vdW  Elec       q    Type
                         _______ _______ _______ _____ _____    ______ ____

>  <TORSDO>
F 4

$$$$
=
 OpenBabel11062418093D

 25 27  0  0  1  0  0  0  0  0999 V2000
  187.4720  177.1840  137.5180 C   0  0  0  0  0  0  0  0  0  0  0  0
  184.7660  175.2180  136.5590 C   0  0  0  0  0  0  0  0  0  0  0  0
  184.3050  177.1280  137.9520 C   0  0  0  0  0  0  0  0  0  0  0  0
  185.1810  176.3580  137.1850 C   0  0  0  0  0  0  0  0  0  0  0  0
  186.8930  175.2780  136.0680 C   0  0  0  0  0  3  0  0  0  0  0  0
  183.4870  174.7720  136.6570 N   0  0  0  0  0  0  0  0  0  0  0  0
  185.8260  174.5580  135.8770 N   0  0  0  0  0  0  0  0  0  0  0  0
  189.0460  179.0070  137.4740 C   0  0  0  0  0  1  0  0  0  0  0  0
  186.5920  176.4760  136.8670 C   0  0  0  0  0  0  0  0  0  0  0  0
  182.9770  176.6700  138.0520 C   0  0  0  0  0  3  0  0  0  0  0  0
  188.3470  177.8940  138.1780 C   0  0  0  0  0  0  0  0  0  0  0  0
  182.5850  175.4870  137.3930 C   0  0  0  0  0  3  0  0  0  0  0  0
  188.5870  178.3250  141.8960 O   0  0  0  0  0  0  0  0  0  0  0  0
  190.1440  177.3690  143.3000 O   0  0  0  0  0  0  0  0  0  0  0  0
  188.6790  177.5330  139.5960 C   0  0  1  0  0  3  0  0  0  0  0  0
  190.2660  176.7120  140.9960 C   0  0  0  0  0  2  0  0  0  0  0  0
  190.0690  177.3890  139.7760 O   0  0  0  0  0  0  0  0  0  0  0  0
  189.6920  177.5040  142.1350 C   0  0  0  0  0  0  0  0  0  0  0  0
  188.1550  178.6050  140.5630 C   0  0  0  0  0  2  0  0  0  0  0  0
  185.1800  179.7260  140.4070 O   0  0  0  0  0  0  0  0  0  0  0  0
  184.6170  178.6820  139.9880 C   0  0  0  0  0  0  0  0  0  0  0  0
  184.7740  178.3140  138.6100 N   0  0  0  0  0  2  0  0  0  0  0  0
  183.7680  177.8990  140.9330 C   0  0  0  0  0  2  0  0  0  0  0  0
  184.1320  178.2500  142.3620 C   0  0  0  0  0  2  0  0  0  0  0  0
  183.0800  178.9540  142.9480 O   0  0  0  0  0  1  0  0  0  0  0  0
  1 11  2  0  0  0  0
  2  6  2  0  0  0  0
  2  4  1  0  0  0  0
  3 10  1  0  0  0  0
  3 22  1  0  0  0  0
  4  3  2  0  0  0  0
  5  9  1  0  0  0  0
  6 12  1  0  0  0  0
  7  5  2  0  0  0  0
  7  2  1  0  0  0  0
  8 11  1  0  0  0  0
  9  4  1  0  0  0  0
  9  1  2  0  0  0  0
 12 10  2  0  0  0  0
 13 18  1  0  0  0  0
 15 11  1  6  0  0  0
 15 17  1  0  0  0  0
 15 19  1  0  0  0  0
 16 18  1  0  0  0  0
 17 16  1  0  0  0  0
 18 14  2  0  0  0  0
 19 13  1  0  0  0  0
 21 20  2  0  0  0  0
 21 23  1  0  0  0  0
 22 21  1  0  0  0  0
 23 24  1  0  0  0  0
 24 25  1  0  0  0  0
M  END
>  <MODEL>
8

>  <REMARK>
 VINA RESULT:      -6.1      3.726      6.375
  Name = 
  4 active torsions:
  status: ('A' for Active; 'I' for Inactive)
    1  A    between atoms: C_6  and  C_24
    2  A    between atoms: C_7  and  C_10
    3  A    between atoms: C_7  and  C_17
    4  A    between atoms: C_8  and  N_16
                            x       y       z     vdW  Elec       q    Type
                         _______ _______ _______ _____ _____    ______ ____

>  <TORSDO>
F 4

$$$$
=
 OpenBabel11062418093D

 25 27  0  0  1  0  0  0  0  0999 V2000
  190.8580  177.0240  138.3430 C   0  0  0  0  0  0  0  0  0  0  0  0
  193.1610  174.7920  136.9940 C   0  0  0  0  0  0  0  0  0  0  0  0
  190.8320  174.1950  136.8550 C   0  0  0  0  0  0  0  0  0  0  0  0
  191.8440  175.1070  137.1630 C   0  0  0  0  0  0  0  0  0  0  0  0
  193.2610  176.8010  137.8460 C   0  0  0  0  0  3  0  0  0  0  0  0
  193.5550  173.5800  136.5260 N   0  0  0  0  0  0  0  0  0  0  0  0
  194.0270  175.8390  137.4200 N   0  0  0  0  0  0  0  0  0  0  0  0
  189.2390  178.8070  138.4130 C   0  0  0  0  0  1  0  0  0  0  0  0
  191.8380  176.4550  137.7000 C   0  0  0  0  0  0  0  0  0  0  0  0
  191.2360  172.9380  136.3640 C   0  0  0  0  0  3  0  0  0  0  0  0
  189.8710  177.5860  138.9890 C   0  0  0  0  0  0  0  0  0  0  0  0
  192.6080  172.6500  136.2040 C   0  0  0  0  0  3  0  0  0  0  0  0
  188.0110  177.4440  142.2420 O   0  0  0  0  0  0  0  0  0  0  0  0
  188.7050  176.4220  144.1870 O   0  0  0  0  0  0  0  0  0  0  0  0
  189.4450  177.0370  140.3180 C   0  0  1  0  0  3  0  0  0  0  0  0
  190.1450  176.1500  142.2880 C   0  0  0  0  0  2  0  0  0  0  0  0
  190.5250  176.9910  141.2230 O   0  0  0  0  0  0  0  0  0  0  0  0
  188.9310  176.6980  142.9820 C   0  0  0  0  0  0  0  0  0  0  0  0
  188.3210  177.8910  140.9200 C   0  0  0  0  0  2  0  0  0  0  0  0
  187.3300  175.2450  136.4400 O   0  0  0  0  0  0  0  0  0  0  0  0
  188.5300  175.0820  136.1000 C   0  0  0  0  0  0  0  0  0  0  0  0
  189.4560  174.5490  137.0570 N   0  0  0  0  0  2  0  0  0  0  0  0
  188.9480  175.5000  134.7290 C   0  0  0  0  0  2  0  0  0  0  0  0
  189.5460  176.8920  134.7760 C   0  0  0  0  0  2  0  0  0  0  0  0
  188.5460  177.8150  135.0800 O   0  0  0  0  0  1  0  0  0  0  0  0
  1 11  2  0  0  0  0
  2  4  1  0  0  0  0
  2  7  1  0  0  0  0
  3 22  1  0  0  0  0
  3  4  2  0  0  0  0
  4  9  1  0  0  0  0
  6  2  2  0  0  0  0
  7  5  2  0  0  0  0
  8 11  1  0  0  0  0
  9  5  1  0  0  0  0
  9  1  2  0  0  0  0
 10  3  1  0  0  0  0
 12 10  2  0  0  0  0
 12  6  1  0  0  0  0
 13 18  1  0  0  0  0
 15 11  1  6  0  0  0
 15 19  1  0  0  0  0
 15 17  1  0  0  0  0
 16 18  1  0  0  0  0
 17 16  1  0  0  0  0
 18 14  2  0  0  0  0
 19 13  1  0  0  0  0
 21 20  2  0  0  0  0
 21 22  1  0  0  0  0
 23 24  1  0  0  0  0
 23 21  1  0  0  0  0
 24 25  1  0  0  0  0
M  END
>  <MODEL>
9

>  <REMARK>
 VINA RESULT:      -6.0      3.343      7.815
  Name = 
  4 active torsions:
  status: ('A' for Active; 'I' for Inactive)
    1  A    between atoms: C_6  and  C_24
    2  A    between atoms: C_7  and  C_10
    3  A    between atoms: C_7  and  C_17
    4  A    between atoms: C_8  and  N_16
                            x       y       z     vdW  Elec       q    Type
                         _______ _______ _______ _____ _____    ______ ____

>  <TORSDO>
F 4

$$$$
