=
 OpenBabel11062414243D

 45 48  0  0  1  0  0  0  0  0999 V2000
  180.5160  178.4260  140.9840 C   0  0  2  0  0  3  0  0  0  0  0  0
  188.2580  174.9560  137.6030 C   0  0  0  0  0  2  0  0  0  0  0  0
  183.8990  173.3350  136.9480 C   0  0  1  0  0  3  0  0  0  0  0  0
  180.2100  177.9780  139.6880 O   0  0  0  0  0  0  0  0  0  0  0  0
  187.4070  175.1340  136.3490 C   0  0  0  0  0  2  0  0  0  0  0  0
  185.3260  177.1100  137.3860 C   0  0  0  0  0  2  0  0  0  0  0  0
  189.1990  176.0210  137.7110 O   0  0  0  0  0  0  0  0  0  0  0  0
  186.3100  178.4210  140.6650 C   0  0  0  0  0  2  0  0  0  0  0  0
  185.9020  175.0580  136.6540 C   0  0  2  0  0  3  0  0  0  0  0  0
  182.8510  175.9860  135.0170 C   0  0  0  0  0  1  0  0  0  0  0  0
  184.8610  173.1550  138.1170 C   0  0  0  0  0  2  0  0  0  0  0  0
  186.5810  177.9830  137.4260 C   0  0  0  0  0  2  0  0  0  0  0  0
  180.5540  175.8350  137.1050 C   0  0  2  0  0  3  0  0  0  0  0  0
  189.7290  178.2170  138.1060 O   0  0  0  0  0  0  0  0  0  0  0  0
  179.6420  176.7010  139.8240 C   0  0  0  0  0  2  0  0  0  0  0  0
  185.5970  175.8010  137.8060 O   0  0  0  0  0  0  0  0  0  0  0  0
  183.8080  178.4160  140.3940 C   0  0  1  0  0  3  0  0  0  0  0  0
  182.6390  179.2240  139.9960 N   0  0  0  0  0  0  0  0  0  0  0  0
  181.5390  175.5430  140.7290 O   0  0  0  0  0  1  0  0  0  0  0  0
  180.6660  175.5770  139.6400 C   0  0  2  0  0  3  0  0  0  0  0  0
  183.0520  174.5930  137.1180 C   0  0  2  0  0  3  0  0  0  0  0  0
  179.2740  178.9790  141.6660 C   0  0  0  0  0  1  0  0  0  0  0  0
  187.4310  178.7090  139.6830 C   0  0  0  0  0  2  0  0  0  0  0  0
  185.0810  179.2600  140.3480 C   0  0  0  0  0  2  0  0  0  0  0  0
  188.8570  177.3080  138.1480 C   0  0  0  0  0  0  0  0  0  0  0  0
  182.1710  174.4220  138.1970 O   0  0  0  0  0  0  0  0  0  0  0  0
  181.4640  175.6280  138.3340 C   0  0  1  0  0  3  0  0  0  0  0  0
  181.5590  179.5410  140.9280 C   0  0  0  0  0  2  0  0  0  0  0  0
  182.2660  174.8350  135.8190 C   0  0  1  0  0  3  0  0  0  0  0  0
  185.3960  173.5980  136.7670 C   0  0  1  0  0  0  0  0  0  0  0  0
  180.8660  174.9790  136.0140 O   0  0  0  0  0  0  0  0  0  0  0  0
  187.4640  177.6260  138.6130 C   0  0  2  0  0  3  0  0  0  0  0  0
  183.6340  177.7860  141.7760 C   0  0  0  0  0  1  0  0  0  0  0  0
  188.3220  169.7330  136.6440 O   0  0  0  0  0  1  0  0  0  0  0  0
  185.8370  172.4470  134.7220 O   0  0  0  0  0  0  0  0  0  0  0  0
  187.4840  170.3080  134.5940 O   0  0  0  0  0  0  0  0  0  0  0  0
  186.9140  171.5820  136.6150 N   0  0  0  0  0  2  0  0  0  0  0  0
  187.6000  170.5090  135.9650 C   0  0  0  0  0  0  0  0  0  0  0  0
  186.0610  172.5270  135.9590 C   0  0  0  0  0  0  0  0  0  0  0  0
  182.4720  179.7220  138.6590 C   0  0  0  0  0  3  0  0  0  0  0  0
  181.5830  180.6540  138.3410 C   0  0  0  0  0  2  0  0  0  0  0  0
  180.5300  177.3010  136.6840 C   0  0  0  0  0  2  0  0  0  0  0  0
  179.4810  177.5440  135.6120 C   0  0  0  0  0  2  0  0  0  0  0  0
  180.0110  178.3370  134.5940 O   0  0  0  0  0  0  0  0  0  0  0  0
  179.6680  179.6400  134.9530 C   0  0  0  0  0  1  0  0  0  0  0  0
  1 22  1  6  0  0  0
  2  7  1  0  0  0  0
  3 21  1  0  0  0  0
  3 11  1  1  0  0  0
  4 15  1  0  0  0  0
  4  1  1  0  0  0  0
  5  2  1  0  0  0  0
  6 12  1  0  0  0  0
  6 16  1  0  0  0  0
  7 25  1  0  0  0  0
  9  5  1  1  0  0  0
  9 30  1  0  0  0  0
  9 16  1  0  0  0  0
 13 42  1  6  0  0  0
 13 27  1  0  0  0  0
 14 25  2  0  0  0  0
 17 33  1  1  0  0  0
 18 17  1  0  0  0  0
 18 28  1  0  0  0  0
 20 15  1  0  0  0  0
 20 19  1  1  0  0  0
 21 26  1  1  0  0  0
 23  8  1  0  0  0  0
 24 17  1  0  0  0  0
 24  8  1  0  0  0  0
 25 32  1  0  0  0  0
 27 26  1  6  0  0  0
 27 20  1  0  0  0  0
 28  1  1  0  0  0  0
 29 10  1  1  0  0  0
 29 31  1  0  0  0  0
 29 21  1  0  0  0  0
 30 39  1  6  0  0  0
 30  3  1  0  0  0  0
 30 11  1  0  0  0  0
 31 13  1  0  0  0  0
 32 12  1  6  0  0  0
 32 23  1  0  0  0  0
 35 39  2  0  0  0  0
 36 38  2  0  0  0  0
 38 37  1  0  0  0  0
 38 34  1  0  0  0  0
 39 37  1  0  0  0  0
 40 18  1  0  0  0  0
 41 40  2  0  0  0  0
 43 42  1  0  0  0  0
 44 45  1  0  0  0  0
 44 43  1  0  0  0  0
M  END
>  <MODEL>
1

>  <REMARK>
 VINA RESULT:      -3.1      0.000      0.000
  Name = 
  5 active torsions:
  status: ('A' for Active; 'I' for Inactive)
    1  A    between atoms: C_10  and  C_19
    2  A    between atoms: C_10  and  C_24
    3  A    between atoms: O_14  and  C_24
    4  A    between atoms: N_25  and  C_26
    5  A    between atoms: C_41  and  C_42
                            x       y       z     vdW  Elec       q    Type
                         _______ _______ _______ _____ _____    ______ ____

>  <TORSDO>
F 5

$$$$
=
 OpenBabel11062414243D

 45 48  0  0  1  0  0  0  0  0999 V2000
  180.1520  178.6730  138.8130 C   0  0  2  0  0  3  0  0  0  0  0  0
  187.1830  174.1650  135.1180 C   0  0  0  0  0  2  0  0  0  0  0  0
  187.3250  178.2750  137.3890 C   0  0  1  0  0  3  0  0  0  0  0  0
  181.2380  178.8620  139.6840 O   0  0  0  0  0  0  0  0  0  0  0  0
  187.6580  174.3900  136.5510 C   0  0  0  0  0  2  0  0  0  0  0  0
  184.9950  174.9920  137.9130 C   0  0  0  0  0  2  0  0  0  0  0  0
  186.7060  172.8310  134.9650 O   0  0  0  0  0  0  0  0  0  0  0  0
  182.1960  174.2470  135.6660 C   0  0  0  0  0  2  0  0  0  0  0  0
  187.0260  175.6410  137.1830 C   0  0  2  0  0  3  0  0  0  0  0  0
  186.5780  176.9650  140.4840 C   0  0  0  0  0  1  0  0  0  0  0  0
  186.9450  177.9470  135.9490 C   0  0  0  0  0  2  0  0  0  0  0  0
  184.7890  173.5240  137.5400 C   0  0  0  0  0  2  0  0  0  0  0  0
  184.5240  179.2910  140.3180 C   0  0  2  0  0  3  0  0  0  0  0  0
  185.1590  171.1810  135.3480 O   0  0  0  0  0  0  0  0  0  0  0  0
  181.8050  180.1060  139.3610 C   0  0  0  0  0  2  0  0  0  0  0  0
  185.6520  175.6950  136.8940 O   0  0  0  0  0  0  0  0  0  0  0  0
  181.5980  176.0630  137.3030 C   0  0  1  0  0  3  0  0  0  0  0  0
  180.9730  176.3480  138.6090 N   0  0  0  0  0  0  0  0  0  0  0  0
  182.5420  179.6120  137.1310 O   0  0  0  0  0  1  0  0  0  0  0  0
  182.9910  179.9810  138.4000 C   0  0  2  0  0  3  0  0  0  0  0  0
  186.1160  178.1800  138.3150 C   0  0  2  0  0  3  0  0  0  0  0  0
  178.9310  179.4320  139.3080 C   0  0  0  0  0  1  0  0  0  0  0  0
  183.0320  172.9900  135.8160 C   0  0  0  0  0  2  0  0  0  0  0  0
  181.4760  174.5780  136.9650 C   0  0  0  0  0  2  0  0  0  0  0  0
  185.4530  172.4050  135.4280 C   0  0  0  0  0  0  0  0  0  0  0  0
  185.2120  179.2090  138.0110 O   0  0  0  0  0  0  0  0  0  0  0  0
  184.1030  179.0330  138.8560 C   0  0  1  0  0  3  0  0  0  0  0  0
  179.7860  177.1920  138.7350 C   0  0  0  0  0  2  0  0  0  0  0  0
  186.6010  178.3060  139.7690 C   0  0  1  0  0  3  0  0  0  0  0  0
  187.7480  176.9440  136.7590 C   0  0  1  0  0  0  0  0  0  0  0  0
  185.9320  179.3160  140.5100 O   0  0  0  0  0  0  0  0  0  0  0  0
  184.4870  173.3690  136.0560 C   0  0  2  0  0  3  0  0  0  0  0  0
  181.0100  176.9170  136.1800 C   0  0  0  0  0  1  0  0  0  0  0  0
  192.2700  176.2030  138.3430 O   0  0  0  0  0  1  0  0  0  0  0  0
  189.6180  177.1250  135.2850 O   0  0  0  0  0  0  0  0  0  0  0  0
  192.1600  176.7530  136.1240 O   0  0  0  0  0  0  0  0  0  0  0  0
  190.1360  176.5810  137.5060 N   0  0  0  0  0  2  0  0  0  0  0  0
  191.5560  176.5030  137.3520 C   0  0  0  0  0  0  0  0  0  0  0  0
  189.2140  176.9060  136.4580 C   0  0  0  0  0  0  0  0  0  0  0  0
  181.5090  175.8430  139.8410 C   0  0  0  0  0  3  0  0  0  0  0  0
  180.7610  175.2620  140.7710 C   0  0  0  0  0  2  0  0  0  0  0  0
  183.8420  178.3060  141.2640 C   0  0  0  0  0  2  0  0  0  0  0  0
  183.6890  178.9010  142.6530 C   0  0  0  0  0  2  0  0  0  0  0  0
  184.5890  178.3000  143.5340 O   0  0  0  0  0  0  0  0  0  0  0  0
  184.5270  179.0840  144.6850 C   0  0  0  0  0  1  0  0  0  0  0  0
  1 22  1  1  0  0  0
  1  4  1  0  0  0  0
  2  5  1  0  0  0  0
  3 11  1  6  0  0  0
  3 21  1  0  0  0  0
  7  2  1  0  0  0  0
  7 25  1  0  0  0  0
  8 23  1  0  0  0  0
  8 24  1  0  0  0  0
  9  5  1  6  0  0  0
 11 30  1  0  0  0  0
 12  6  1  0  0  0  0
 13 31  1  0  0  0  0
 13 42  1  1  0  0  0
 14 25  2  0  0  0  0
 15  4  1  0  0  0  0
 16  9  1  0  0  0  0
 16  6  1  0  0  0  0
 17 33  1  6  0  0  0
 17 18  1  0  0  0  0
 18 28  1  0  0  0  0
 18 40  1  0  0  0  0
 20 19  1  6  0  0  0
 20 27  1  0  0  0  0
 20 15  1  0  0  0  0
 21 26  1  6  0  0  0
 21 29  1  0  0  0  0
 24 17  1  0  0  0  0
 25 32  1  0  0  0  0
 27 26  1  6  0  0  0
 27 13  1  0  0  0  0
 28  1  1  0  0  0  0
 29 10  1  1  0  0  0
 29 31  1  0  0  0  0
 30 39  1  6  0  0  0
 30  9  1  0  0  0  0
 30  3  1  0  0  0  0
 32 23  1  1  0  0  0
 32 12  1  0  0  0  0
 35 39  2  0  0  0  0
 36 38  2  0  0  0  0
 38 37  1  0  0  0  0
 38 34  1  0  0  0  0
 39 37  1  0  0  0  0
 40 41  2  0  0  0  0
 42 43  1  0  0  0  0
 43 44  1  0  0  0  0
 44 45  1  0  0  0  0
M  END
>  <MODEL>
2

>  <REMARK>
 VINA RESULT:      -1.9      2.237      5.910
  Name = 
  5 active torsions:
  status: ('A' for Active; 'I' for Inactive)
    1  A    between atoms: C_10  and  C_19
    2  A    between atoms: C_10  and  C_24
    3  A    between atoms: O_14  and  C_24
    4  A    between atoms: N_25  and  C_26
    5  A    between atoms: C_41  and  C_42
                            x       y       z     vdW  Elec       q    Type
                         _______ _______ _______ _____ _____    ______ ____

>  <TORSDO>
F 5

$$$$
=
 OpenBabel11062414243D

 45 48  0  0  1  0  0  0  0  0999 V2000
  180.6590  177.5640  139.6270 C   0  0  2  0  0  3  0  0  0  0  0  0
  189.5620  175.6780  138.8640 C   0  0  0  0  0  2  0  0  0  0  0  0
  186.0580  173.9230  136.2740 C   0  0  1  0  0  3  0  0  0  0  0  0
  180.9130  177.4270  138.2520 O   0  0  0  0  0  0  0  0  0  0  0  0
  189.1950  176.0910  137.4420 C   0  0  0  0  0  2  0  0  0  0  0  0
  186.5810  177.5740  137.9700 C   0  0  0  0  0  2  0  0  0  0  0  0
  190.2100  176.7560  139.5350 O   0  0  0  0  0  0  0  0  0  0  0  0
  186.1010  178.1060  141.5660 C   0  0  0  0  0  2  0  0  0  0  0  0
  187.7160  175.8210  137.1230 C   0  0  2  0  0  3  0  0  0  0  0  0
  185.3340  176.8760  134.6600 C   0  0  0  0  0  1  0  0  0  0  0  0
  186.5580  173.5370  137.6620 C   0  0  0  0  0  2  0  0  0  0  0  0
  187.5730  178.5080  138.6630 C   0  0  0  0  0  2  0  0  0  0  0  0
  182.5070  176.0270  135.6280 C   0  0  2  0  0  3  0  0  0  0  0  0
  190.1880  178.8200  140.5330 O   0  0  0  0  0  0  0  0  0  0  0  0
  180.5570  176.1150  137.9010 C   0  0  0  0  0  2  0  0  0  0  0  0
  186.9010  176.2280  138.1920 O   0  0  0  0  0  0  0  0  0  0  0  0
  183.8960  177.9670  140.3580 C   0  0  1  0  0  3  0  0  0  0  0  0
  182.8280  178.7510  139.7110 N   0  0  0  0  0  0  0  0  0  0  0  0
  182.1750  174.9260  139.2150 O   0  0  0  0  0  1  0  0  0  0  0  0
  181.7530  175.1590  137.9050 C   0  0  2  0  0  3  0  0  0  0  0  0
  185.0070  175.0270  136.3530 C   0  0  2  0  0  3  0  0  0  0  0  0
  179.1810  177.8280  139.8740 C   0  0  0  0  0  1  0  0  0  0  0  0
  187.4310  178.7180  141.1690 C   0  0  0  0  0  2  0  0  0  0  0  0
  184.9420  178.8960  140.9750 C   0  0  0  0  0  2  0  0  0  0  0  0
  189.5240  177.8620  140.0540 C   0  0  0  0  0  0  0  0  0  0  0  0
  183.8430  174.5230  136.9530 O   0  0  0  0  0  0  0  0  0  0  0  0
  182.9410  175.5960  137.0440 C   0  0  1  0  0  3  0  0  0  0  0  0
  181.4500  178.7380  140.1990 C   0  0  0  0  0  2  0  0  0  0  0  0
  184.7060  175.5190  134.9280 C   0  0  1  0  0  3  0  0  0  0  0  0
  187.4560  174.3430  136.7390 C   0  0  1  0  0  0  0  0  0  0  0  0
  183.3250  175.4960  134.5940 O   0  0  0  0  0  0  0  0  0  0  0  0
  188.0240  177.9410  140.0010 C   0  0  2  0  0  3  0  0  0  0  0  0
  183.3520  177.0020  141.4110 C   0  0  0  0  0  1  0  0  0  0  0  0
  191.8060  174.3120  134.5980 O   0  0  0  0  0  0  0  0  0  0  0  0
  188.4090  172.3180  135.9090 O   0  0  0  0  0  0  0  0  0  0  0  0
  190.8150  172.2510  134.6800 O   0  0  0  0  0  1  0  0  0  0  0  0
  189.7130  174.2420  135.6050 N   0  0  0  0  0  2  0  0  0  0  0  0
  190.8170  173.6160  134.9450 C   0  0  0  0  0  0  0  0  0  0  0  0
  188.5340  173.5630  136.0530 C   0  0  0  0  0  0  0  0  0  0  0  0
  183.0650  179.5490  138.5410 C   0  0  0  0  0  3  0  0  0  0  0  0
  182.2760  180.5520  138.1790 C   0  0  0  0  0  2  0  0  0  0  0  0
  182.3870  177.5450  135.5310 C   0  0  0  0  0  2  0  0  0  0  0  0
  181.1700  177.9460  134.7160 C   0  0  0  0  0  2  0  0  0  0  0  0
  180.1500  178.3840  135.5610 O   0  0  0  0  0  0  0  0  0  0  0  0
  179.7240  179.5870  135.0000 C   0  0  0  0  0  1  0  0  0  0  0  0
  1 22  1  6  0  0  0
  1 28  1  0  0  0  0
  2  7  1  0  0  0  0
  3 21  1  0  0  0  0
  3 30  1  0  0  0  0
  3 11  1  1  0  0  0
  4  1  1  0  0  0  0
  5  2  1  0  0  0  0
  6 16  1  0  0  0  0
  6 12  1  0  0  0  0
  7 25  1  0  0  0  0
  9  5  1  1  0  0  0
  9 16  1  0  0  0  0
 13 42  1  1  0  0  0
 13 27  1  0  0  0  0
 15 20  1  0  0  0  0
 15  4  1  0  0  0  0
 17 24  1  0  0  0  0
 17 33  1  1  0  0  0
 18 28  1  0  0  0  0
 18 17  1  0  0  0  0
 20 19  1  1  0  0  0
 21 26  1  6  0  0  0
 23  8  1  0  0  0  0
 24  8  1  0  0  0  0
 25 14  2  0  0  0  0
 27 26  1  6  0  0  0
 27 20  1  0  0  0  0
 29 10  1  1  0  0  0
 29 21  1  0  0  0  0
 30 39  1  6  0  0  0
 30  9  1  0  0  0  0
 30 11  1  0  0  0  0
 31 29  1  0  0  0  0
 31 13  1  0  0  0  0
 32 12  1  6  0  0  0
 32 25  1  0  0  0  0
 32 23  1  0  0  0  0
 34 38  2  0  0  0  0
 35 39  2  0  0  0  0
 36 38  1  0  0  0  0
 37 39  1  0  0  0  0
 38 37  1  0  0  0  0
 40 18  1  0  0  0  0
 41 40  2  0  0  0  0
 43 42  1  0  0  0  0
 43 44  1  0  0  0  0
 45 44  1  0  0  0  0
M  END
>  <MODEL>
3

>  <REMARK>
 VINA RESULT:      -0.8      1.856      2.294
  Name = 
  5 active torsions:
  status: ('A' for Active; 'I' for Inactive)
    1  A    between atoms: C_10  and  C_19
    2  A    between atoms: C_10  and  C_24
    3  A    between atoms: O_14  and  C_24
    4  A    between atoms: N_25  and  C_26
    5  A    between atoms: C_41  and  C_42
                            x       y       z     vdW  Elec       q    Type
                         _______ _______ _______ _____ _____    ______ ____

>  <TORSDO>
F 5

$$$$
=
 OpenBabel11062414243D

 45 48  0  0  1  0  0  0  0  0999 V2000
  182.3160  177.4260  136.7140 C   0  0  2  0  0  3  0  0  0  0  0  0
  189.8670  172.5970  134.9620 C   0  0  0  0  0  2  0  0  0  0  0  0
  189.6190  177.1050  136.2570 C   0  0  1  0  0  3  0  0  0  0  0  0
  183.2800  177.8590  137.6400 O   0  0  0  0  0  0  0  0  0  0  0  0
  190.1530  173.1550  136.3530 C   0  0  0  0  0  2  0  0  0  0  0  0
  187.3260  173.8990  137.2280 C   0  0  0  0  0  2  0  0  0  0  0  0
  189.4470  171.2380  135.0570 O   0  0  0  0  0  0  0  0  0  0  0  0
  184.8500  172.5340  134.8950 C   0  0  0  0  0  2  0  0  0  0  0  0
  189.4150  174.4780  136.6120 C   0  0  2  0  0  3  0  0  0  0  0  0
  188.5240  176.4670  139.4590 C   0  0  0  0  0  1  0  0  0  0  0  0
  189.4300  176.4520  134.8930 C   0  0  0  0  0  2  0  0  0  0  0  0
  187.2060  172.3760  137.1710 C   0  0  0  0  0  2  0  0  0  0  0  0
  186.4490  178.5880  138.5400 C   0  0  2  0  0  3  0  0  0  0  0  0
  187.9070  169.6330  135.6170 O   0  0  0  0  0  0  0  0  0  0  0  0
  183.8500  179.0300  137.1160 C   0  0  0  0  0  2  0  0  0  0  0  0
  188.0870  174.3950  136.1610 O   0  0  0  0  0  0  0  0  0  0  0  0
  184.0050  174.6300  136.0040 C   0  0  1  0  0  3  0  0  0  0  0  0
  183.2150  175.1600  137.1310 N   0  0  0  0  0  0  0  0  0  0  0  0
  184.8720  178.1000  135.1540 O   0  0  0  0  0  1  0  0  0  0  0  0
  185.1500  178.7610  136.3510 C   0  0  2  0  0  3  0  0  0  0  0  0
  188.3060  177.1520  137.0340 C   0  0  2  0  0  3  0  0  0  0  0  0
  181.0230  178.2110  136.8820 C   0  0  0  0  0  1  0  0  0  0  0  0
  185.6930  171.3850  135.4180 C   0  0  0  0  0  2  0  0  0  0  0  0
  183.9650  173.1020  135.9950 C   0  0  0  0  0  2  0  0  0  0  0  0
  188.1580  170.8580  135.4550 C   0  0  0  0  0  0  0  0  0  0  0  0
  187.4210  178.0410  136.4050 O   0  0  0  0  0  0  0  0  0  0  0  0
  186.2210  177.9960  137.1340 C   0  0  1  0  0  3  0  0  0  0  0  0
  182.0010  175.9480  136.9260 C   0  0  0  0  0  2  0  0  0  0  0  0
  188.6020  177.6180  138.4690 C   0  0  1  0  0  3  0  0  0  0  0  0
  190.1510  175.6930  135.9940 C   0  0  1  0  0  0  0  0  0  0  0  0
  187.8210  178.7290  138.8840 O   0  0  0  0  0  0  0  0  0  0  0  0
  187.0960  171.8840  135.7350 C   0  0  2  0  0  3  0  0  0  0  0  0
  183.5410  175.1850  134.6570 C   0  0  0  0  0  1  0  0  0  0  0  0
  194.4630  175.9470  138.1980 O   0  0  0  0  0  1  0  0  0  0  0  0
  192.1830  175.4780  134.7600 O   0  0  0  0  0  0  0  0  0  0  0  0
  194.6110  175.6430  135.9340 O   0  0  0  0  0  0  0  0  0  0  0  0
  192.4380  175.8210  137.0640 N   0  0  0  0  0  2  0  0  0  0  0  0
  193.8680  175.8080  137.0970 C   0  0  0  0  0  0  0  0  0  0  0  0
  191.6430  175.6680  135.8820 C   0  0  0  0  0  0  0  0  0  0  0  0
  183.6060  174.9660  138.4990 C   0  0  0  0  0  3  0  0  0  0  0  0
  182.8160  175.2550  139.5250 C   0  0  0  0  0  2  0  0  0  0  0  0
  185.6790  177.8000  139.5960 C   0  0  0  0  0  2  0  0  0  0  0  0
  185.2730  178.6930  140.7550 C   0  0  0  0  0  2  0  0  0  0  0  0
  185.0950  177.9290  141.9090 O   0  0  0  0  0  0  0  0  0  0  0  0
  184.0420  178.5510  142.5800 C   0  0  0  0  0  1  0  0  0  0  0  0
  1 22  1  1  0  0  0
  1 28  1  0  0  0  0
  1  4  1  0  0  0  0
  2  7  1  0  0  0  0
  2  5  1  0  0  0  0
  3 11  1  6  0  0  0
  3 21  1  0  0  0  0
  7 25  1  0  0  0  0
  8 23  1  0  0  0  0
  8 24  1  0  0  0  0
  9  5  1  6  0  0  0
 11 30  1  0  0  0  0
 12  6  1  0  0  0  0
 13 31  1  0  0  0  0
 13 42  1  1  0  0  0
 15  4  1  0  0  0  0
 16  9  1  0  0  0  0
 16  6  1  0  0  0  0
 17 33  1  6  0  0  0
 17 18  1  0  0  0  0
 18 40  1  0  0  0  0
 20 19  1  6  0  0  0
 20 15  1  0  0  0  0
 20 27  1  0  0  0  0
 21 26  1  6  0  0  0
 21 29  1  0  0  0  0
 24 17  1  0  0  0  0
 25 14  2  0  0  0  0
 25 32  1  0  0  0  0
 27 26  1  6  0  0  0
 27 13  1  0  0  0  0
 28 18  1  0  0  0  0
 29 31  1  0  0  0  0
 29 10  1  1  0  0  0
 30 39  1  6  0  0  0
 30  3  1  0  0  0  0
 30  9  1  0  0  0  0
 32 23  1  1  0  0  0
 32 12  1  0  0  0  0
 35 39  2  0  0  0  0
 36 38  2  0  0  0  0
 37 38  1  0  0  0  0
 38 34  1  0  0  0  0
 39 37  1  0  0  0  0
 40 41  2  0  0  0  0
 42 43  1  0  0  0  0
 43 44  1  0  0  0  0
 44 45  1  0  0  0  0
M  END
>  <MODEL>
4

>  <REMARK>
 VINA RESULT:      -0.7      2.787      6.594
  Name = 
  5 active torsions:
  status: ('A' for Active; 'I' for Inactive)
    1  A    between atoms: C_10  and  C_19
    2  A    between atoms: C_10  and  C_24
    3  A    between atoms: O_14  and  C_24
    4  A    between atoms: N_25  and  C_26
    5  A    between atoms: C_41  and  C_42
                            x       y       z     vdW  Elec       q    Type
                         _______ _______ _______ _____ _____    ______ ____

>  <TORSDO>
F 5

$$$$
