=
 OpenBabel11062414493D

 33 37  0  0  1  0  0  0  0  0999 V2000
  180.9290  179.5170  140.2630 C   0  0  1  0  0  3  0  0  0  0  0  0
  183.6380  178.0450  139.8490 C   0  0  0  0  0  2  0  0  0  0  0  0
  179.5930  179.7750  140.5890 O   0  0  0  0  0  1  0  0  0  0  0  0
  181.3600  178.2090  140.8680 C   0  0  0  0  0  0  0  0  0  0  0  0
  182.8130  177.9370  141.1390 C   0  0  2  0  0  3  0  0  0  0  0  0
  183.6740  179.4750  139.3150 C   0  0  0  0  0  2  0  0  0  0  0  0
  181.1270  179.4450  138.7430 C   0  0  2  0  0  3  0  0  0  0  0  0
  180.5410  177.3310  141.0880 O   0  0  0  0  0  0  0  0  0  0  0  0
  182.5670  179.7550  138.2960 C   0  0  0  0  0  2  0  0  0  0  0  0
  182.3460  178.9610  143.4020 C   0  0  0  0  0  2  0  0  0  0  0  0
  185.3970  178.9300  146.5450 C   0  0  0  0  0  3  0  0  0  0  0  0
  183.3650  178.8080  142.2780 C   0  0  1  0  0  3  0  0  0  0  0  0
  186.7730  177.8510  142.3950 C   0  0  0  0  0  2  0  0  0  0  0  0
  184.5870  178.1730  142.9230 C   0  0  2  0  0  3  0  0  0  0  0  0
  186.9430  176.9760  143.6510 C   0  0  0  0  0  2  0  0  0  0  0  0
  184.4320  178.3720  144.3550 N   0  0  0  0  0  0  0  0  0  0  0  0
  183.1320  178.9170  144.6980 C   0  0  0  0  0  2  0  0  0  0  0  0
  187.8470  177.7730  145.8570 C   0  0  0  0  0  0  0  0  0  0  0  0
  185.7530  178.8200  142.4910 O   0  0  0  0  0  0  0  0  0  0  0  0
  187.6820  178.3840  147.1010 C   0  0  0  0  0  3  0  0  0  0  0  0
  185.5350  178.3270  145.2860 C   0  0  0  0  0  0  0  0  0  0  0  0
  189.4070  177.0500  145.4890 Cl  0  0  0  0  0  0  0  0  0  0  0  0
  186.4590  178.9580  147.4470 C   0  0  0  0  0  3  0  0  0  0  0  0
  186.7790  177.7350  144.9400 C   0  0  0  0  0  0  0  0  0  0  0  0
  179.8510  183.8180  136.8450 C   0  0  0  0  0  0  0  0  0  0  0  0
  181.8930  182.2640  138.1040 C   0  0  0  0  0  2  0  0  0  0  0  0
  181.1000  184.4650  137.2600 C   0  0  0  0  0  0  0  0  0  0  0  0
  180.2100  180.3470  138.0550 N   0  0  0  0  0  2  0  0  0  0  0  0
  178.9310  184.4960  136.2440 N   0  0  0  0  0  2  0  0  0  0  0  0
  181.2940  185.7920  137.0550 F   0  0  0  0  0  0  0  0  0  0  0  0
  180.5220  181.7130  137.7670 C   0  0  0  0  0  0  0  0  0  0  0  0
  179.6270  182.4440  137.1710 N   0  0  0  0  0  0  0  0  0  0  0  0
  182.0390  183.7440  137.8680 C   0  0  0  0  0  3  0  0  0  0  0  0
  1  3  1  6  0  0  0
  1  4  1  0  0  0  0
  4  8  2  0  0  0  0
  4  5  1  0  0  0  0
  5  2  1  6  0  0  0
  5 12  1  0  0  0  0
  6  2  1  0  0  0  0
  7 28  1  6  0  0  0
  7  1  1  0  0  0  0
  9  7  1  0  0  0  0
  9  6  1  0  0  0  0
 10 17  1  0  0  0  0
 11 23  1  0  0  0  0
 12 14  1  0  0  0  0
 12 10  1  1  0  0  0
 13 19  1  0  0  0  0
 13 15  1  0  0  0  0
 14 19  1  6  0  0  0
 14 16  1  0  0  0  0
 15 24  1  0  0  0  0
 16 17  1  0  0  0  0
 16 21  1  0  0  0  0
 18 20  1  0  0  0  0
 20 23  2  0  0  0  0
 21 11  2  0  0  0  0
 22 18  1  0  0  0  0
 24 21  1  0  0  0  0
 24 18  2  0  0  0  0
 25 32  1  0  0  0  0
 25 27  1  0  0  0  0
 27 33  2  0  0  0  0
 29 25  2  0  0  0  0
 30 27  1  0  0  0  0
 31 28  1  0  0  0  0
 31 26  1  0  0  0  0
 32 31  2  0  0  0  0
 33 26  1  0  0  0  0
M  END
>  <MODEL>
1

>  <REMARK>
 VINA RESULT:      -9.5      0.000      0.000
  Name = 
  2 active torsions:
  status: ('A' for Active; 'I' for Inactive)
    1  A    between atoms: C_8  and  C_16
    2  A    between atoms: N_19  and  C_27
                            x       y       z     vdW  Elec       q    Type
                         _______ _______ _______ _____ _____    ______ ____

>  <TORSDO>
F 2

$$$$
=
 OpenBabel11062414493D

 33 37  0  0  1  0  0  0  0  0999 V2000
  190.7560  176.1430  143.6530 C   0  0  1  0  0  3  0  0  0  0  0  0
  190.8800  178.6590  145.4770 C   0  0  0  0  0  2  0  0  0  0  0  0
  190.9560  174.8500  143.1570 O   0  0  0  0  0  1  0  0  0  0  0  0
  191.1530  176.2020  145.1020 C   0  0  0  0  0  0  0  0  0  0  0  0
  190.5750  177.2520  146.0090 C   0  0  2  0  0  3  0  0  0  0  0  0
  190.1570  178.9390  144.1620 C   0  0  0  0  0  2  0  0  0  0  0  0
  191.5830  177.1720  142.8730 C   0  0  2  0  0  3  0  0  0  0  0  0
  191.9960  175.4370  145.5430 O   0  0  0  0  0  0  0  0  0  0  0  0
  191.0070  178.5980  142.9350 C   0  0  0  0  0  2  0  0  0  0  0  0
  188.6130  177.8140  147.5000 C   0  0  0  0  0  2  0  0  0  0  0  0
  184.6700  178.6570  145.7860 C   0  0  0  0  0  3  0  0  0  0  0  0
  189.0800  177.0250  146.2820 C   0  0  1  0  0  3  0  0  0  0  0  0
  187.7240  176.8460  143.0140 C   0  0  0  0  0  2  0  0  0  0  0  0
  188.2230  177.5180  145.1270 C   0  0  2  0  0  3  0  0  0  0  0  0
  186.9690  178.1670  142.7760 C   0  0  0  0  0  2  0  0  0  0  0  0
  187.0820  178.1860  145.7320 N   0  0  0  0  0  0  0  0  0  0  0  0
  187.2230  178.3230  147.1690 C   0  0  0  0  0  2  0  0  0  0  0  0
  184.4850  178.4760  143.0020 C   0  0  0  0  0  0  0  0  0  0  0  0
  187.7700  176.4340  144.3630 O   0  0  0  0  0  0  0  0  0  0  0  0
  183.3460  178.7210  143.7690 C   0  0  0  0  0  3  0  0  0  0  0  0
  185.8330  178.4060  145.0410 C   0  0  0  0  0  0  0  0  0  0  0  0
  184.3070  178.3900  141.2550 Cl  0  0  0  0  0  0  0  0  0  0  0  0
  183.4360  178.8150  145.1570 C   0  0  0  0  0  3  0  0  0  0  0  0
  185.7380  178.3190  143.6270 C   0  0  0  0  0  0  0  0  0  0  0  0
  190.1700  177.1290  138.1450 C   0  0  0  0  0  0  0  0  0  0  0  0
  189.7000  178.1590  140.7700 C   0  0  0  0  0  2  0  0  0  0  0  0
  188.9820  177.9500  138.3980 C   0  0  0  0  0  0  0  0  0  0  0  0
  191.7260  176.7770  141.4760 N   0  0  0  0  0  2  0  0  0  0  0  0
  190.4190  176.6830  136.9590 N   0  0  0  0  0  2  0  0  0  0  0  0
  188.1030  178.2220  137.4010 F   0  0  0  0  0  0  0  0  0  0  0  0
  190.8240  177.1930  140.4470 C   0  0  0  0  0  0  0  0  0  0  0  0
  191.0210  176.7660  139.2350 N   0  0  0  0  0  0  0  0  0  0  0  0
  188.7530  178.4080  139.6260 C   0  0  0  0  0  3  0  0  0  0  0  0
  1  3  1  6  0  0  0
  1  4  1  0  0  0  0
  4  8  2  0  0  0  0
  4  5  1  0  0  0  0
  5  2  1  6  0  0  0
  5 12  1  0  0  0  0
  6  2  1  0  0  0  0
  7 28  1  6  0  0  0
  7  9  1  0  0  0  0
  7  1  1  0  0  0  0
  9  6  1  0  0  0  0
 12 10  1  1  0  0  0
 13 19  1  0  0  0  0
 14 19  1  1  0  0  0
 14 16  1  0  0  0  0
 14 12  1  0  0  0  0
 15 13  1  0  0  0  0
 15 24  1  0  0  0  0
 16 17  1  0  0  0  0
 17 10  1  0  0  0  0
 18 24  2  0  0  0  0
 18 20  1  0  0  0  0
 20 23  2  0  0  0  0
 21 16  1  0  0  0  0
 21 11  2  0  0  0  0
 22 18  1  0  0  0  0
 23 11  1  0  0  0  0
 24 21  1  0  0  0  0
 25 27  1  0  0  0  0
 25 32  1  0  0  0  0
 27 33  2  0  0  0  0
 29 25  2  0  0  0  0
 30 27  1  0  0  0  0
 31 26  1  0  0  0  0
 31 28  1  0  0  0  0
 32 31  2  0  0  0  0
 33 26  1  0  0  0  0
M  END
>  <MODEL>
2

>  <REMARK>
 VINA RESULT:      -9.2      6.118      8.668
  Name = 
  2 active torsions:
  status: ('A' for Active; 'I' for Inactive)
    1  A    between atoms: C_8  and  C_16
    2  A    between atoms: N_19  and  C_27
                            x       y       z     vdW  Elec       q    Type
                         _______ _______ _______ _____ _____    ______ ____

>  <TORSDO>
F 2

$$$$
=
 OpenBabel11062414493D

 33 37  0  0  1  0  0  0  0  0999 V2000
  188.2750  177.6840  139.0320 C   0  0  1  0  0  3  0  0  0  0  0  0
  190.9290  176.9220  137.6000 C   0  0  0  0  0  2  0  0  0  0  0  0
  187.1160  178.3740  139.4030 O   0  0  0  0  0  1  0  0  0  0  0  0
  188.8000  178.2270  137.7320 C   0  0  0  0  0  0  0  0  0  0  0  0
  189.6720  177.3810  136.8480 C   0  0  2  0  0  3  0  0  0  0  0  0
  190.5940  175.9600  138.7360 C   0  0  0  0  0  2  0  0  0  0  0  0
  189.3680  177.8180  140.1000 C   0  0  2  0  0  3  0  0  0  0  0  0
  188.5750  179.3840  137.4110 O   0  0  0  0  0  0  0  0  0  0  0  0
  190.3940  176.6710  140.0760 C   0  0  0  0  0  2  0  0  0  0  0  0
  189.5020  174.8710  136.5960 C   0  0  0  0  0  2  0  0  0  0  0  0
  185.6140  172.8620  136.7820 C   0  0  0  0  0  3  0  0  0  0  0  0
  188.8960  176.2170  136.2110 C   0  0  1  0  0  3  0  0  0  0  0  0
  185.5440  177.3480  136.3770 C   0  0  0  0  0  2  0  0  0  0  0  0
  187.4590  176.1700  136.7060 C   0  0  2  0  0  3  0  0  0  0  0  0
  184.8590  176.5370  137.4950 C   0  0  0  0  0  2  0  0  0  0  0  0
  187.1610  174.7660  136.9360 N   0  0  0  0  0  0  0  0  0  0  0  0
  188.3360  173.9250  136.8070 C   0  0  0  0  0  2  0  0  0  0  0  0
  183.3950  174.5260  137.1340 C   0  0  0  0  0  0  0  0  0  0  0  0
  186.5930  176.6700  135.7230 O   0  0  0  0  0  0  0  0  0  0  0  0
  183.2230  173.1570  136.9320 C   0  0  0  0  0  3  0  0  0  0  0  0
  185.8180  174.2360  136.9800 C   0  0  0  0  0  0  0  0  0  0  0  0
  181.9620  175.5180  137.3660 Cl  0  0  0  0  0  0  0  0  0  0  0  0
  184.3280  172.3240  136.7590 C   0  0  0  0  0  3  0  0  0  0  0  0
  184.6900  175.0790  137.1640 C   0  0  0  0  0  0  0  0  0  0  0  0
  189.6280  177.7650  145.0270 C   0  0  0  0  0  0  0  0  0  0  0  0
  191.0640  177.6610  142.5580 C   0  0  0  0  0  2  0  0  0  0  0  0
  191.0690  177.4950  145.0390 C   0  0  0  0  0  0  0  0  0  0  0  0
  188.7870  177.9090  141.4340 N   0  0  0  0  0  2  0  0  0  0  0  0
  188.9680  177.8490  146.1340 N   0  0  0  0  0  2  0  0  0  0  0  0
  191.7260  177.2910  146.2080 F   0  0  0  0  0  0  0  0  0  0  0  0
  189.5560  177.7980  142.6340 C   0  0  0  0  0  0  0  0  0  0  0  0
  188.9410  177.8670  143.7780 N   0  0  0  0  0  0  0  0  0  0  0  0
  191.7310  177.4240  143.8870 C   0  0  0  0  0  3  0  0  0  0  0  0
  1  3  1  1  0  0  0
  1  7  1  0  0  0  0
  2  6  1  0  0  0  0
  4  1  1  0  0  0  0
  5  2  1  1  0  0  0
  5  4  1  0  0  0  0
  6  9  1  0  0  0  0
  7 28  1  1  0  0  0
  8  4  2  0  0  0  0
  9  7  1  0  0  0  0
 10 17  1  0  0  0  0
 11 21  1  0  0  0  0
 12 10  1  1  0  0  0
 12 14  1  0  0  0  0
 12  5  1  0  0  0  0
 13 15  1  0  0  0  0
 14 19  1  6  0  0  0
 14 16  1  0  0  0  0
 16 21  1  0  0  0  0
 17 16  1  0  0  0  0
 18 24  1  0  0  0  0
 18 22  1  0  0  0  0
 19 13  1  0  0  0  0
 20 18  2  0  0  0  0
 21 24  2  0  0  0  0
 23 11  2  0  0  0  0
 23 20  1  0  0  0  0
 24 15  1  0  0  0  0
 25 27  1  0  0  0  0
 25 29  2  0  0  0  0
 26 31  1  0  0  0  0
 26 33  1  0  0  0  0
 27 30  1  0  0  0  0
 28 31  1  0  0  0  0
 31 32  2  0  0  0  0
 32 25  1  0  0  0  0
 33 27  2  0  0  0  0
M  END
>  <MODEL>
3

>  <REMARK>
 VINA RESULT:      -8.1      6.863     10.395
  Name = 
  2 active torsions:
  status: ('A' for Active; 'I' for Inactive)
    1  A    between atoms: C_8  and  C_16
    2  A    between atoms: N_19  and  C_27
                            x       y       z     vdW  Elec       q    Type
                         _______ _______ _______ _____ _____    ______ ____

>  <TORSDO>
F 2

$$$$
=
 OpenBabel11062414493D

 33 37  0  0  1  0  0  0  0  0999 V2000
  186.9590  177.4460  138.8650 C   0  0  1  0  0  3  0  0  0  0  0  0
  187.0430  179.2620  141.3890 C   0  0  0  0  0  2  0  0  0  0  0  0
  187.2320  176.9170  137.5990 O   0  0  0  0  0  1  0  0  0  0  0  0
  188.0440  178.4080  139.2630 C   0  0  0  0  0  0  0  0  0  0  0  0
  188.3050  178.7080  140.7130 C   0  0  2  0  0  3  0  0  0  0  0  0
  185.9350  178.2150  141.4720 C   0  0  0  0  0  2  0  0  0  0  0  0
  185.6150  178.1850  138.8810 C   0  0  2  0  0  3  0  0  0  0  0  0
  188.6840  179.0030  138.4100 O   0  0  0  0  0  0  0  0  0  0  0  0
  184.9770  178.2700  140.2800 C   0  0  0  0  0  2  0  0  0  0  0  0
  190.3280  177.2180  140.9910 C   0  0  0  0  0  2  0  0  0  0  0  0
  191.6810  176.0030  144.9760 C   0  0  0  0  0  3  0  0  0  0  0  0
  188.9040  177.5040  141.4560 C   0  0  1  0  0  3  0  0  0  0  0  0
  187.6010  177.8950  144.7270 C   0  0  0  0  0  2  0  0  0  0  0  0
  189.0120  177.7690  142.9490 C   0  0  2  0  0  3  0  0  0  0  0  0
  188.7640  178.3860  145.6090 C   0  0  0  0  0  2  0  0  0  0  0  0
  190.3010  177.2360  143.3580 N   0  0  0  0  0  0  0  0  0  0  0  0
  191.1070  176.8150  142.2280 C   0  0  0  0  0  2  0  0  0  0  0  0
  190.1460  176.9300  147.1220 C   0  0  0  0  0  0  0  0  0  0  0  0
  187.9940  177.0920  143.6350 O   0  0  0  0  0  0  0  0  0  0  0  0
  191.2090  176.0530  147.3430 C   0  0  0  0  0  3  0  0  0  0  0  0
  190.6160  176.8810  144.7230 C   0  0  0  0  0  0  0  0  0  0  0  0
  189.2290  177.4900  148.5130 Cl  0  0  0  0  0  0  0  0  0  0  0  0
  191.9770  175.5920  146.2750 C   0  0  0  0  0  3  0  0  0  0  0  0
  189.8410  177.3550  145.8140 C   0  0  0  0  0  0  0  0  0  0  0  0
  181.2590  177.9010  136.5810 C   0  0  0  0  0  0  0  0  0  0  0  0
  182.9370  179.4010  138.3440 C   0  0  0  0  0  2  0  0  0  0  0  0
  180.7220  179.0860  137.2570 C   0  0  0  0  0  0  0  0  0  0  0  0
  184.6670  177.5650  137.9630 N   0  0  0  0  0  2  0  0  0  0  0  0
  180.5280  177.2310  135.7540 N   0  0  0  0  0  2  0  0  0  0  0  0
  179.4370  179.4750  137.0580 F   0  0  0  0  0  0  0  0  0  0  0  0
  183.3620  178.0910  137.7090 C   0  0  0  0  0  0  0  0  0  0  0  0
  182.5790  177.4500  136.8920 N   0  0  0  0  0  0  0  0  0  0  0  0
  181.4980  179.7680  138.0960 C   0  0  0  0  0  3  0  0  0  0  0  0
  1  3  1  6  0  0  0
  1  7  1  0  0  0  0
  1  4  1  0  0  0  0
  2  6  1  0  0  0  0
  4  5  1  0  0  0  0
  5  2  1  1  0  0  0
  5 12  1  0  0  0  0
  7 28  1  6  0  0  0
  7  9  1  0  0  0  0
  8  4  2  0  0  0  0
  9  6  1  0  0  0  0
 10 17  1  0  0  0  0
 11 23  1  0  0  0  0
 12 10  1  6  0  0  0
 12 14  1  0  0  0  0
 13 15  1  0  0  0  0
 14 16  1  0  0  0  0
 14 19  1  1  0  0  0
 15 24  1  0  0  0  0
 16 21  1  0  0  0  0
 17 16  1  0  0  0  0
 18 20  1  0  0  0  0
 18 22  1  0  0  0  0
 19 13  1  0  0  0  0
 21 11  2  0  0  0  0
 21 24  1  0  0  0  0
 23 20  2  0  0  0  0
 24 18  2  0  0  0  0
 25 32  1  0  0  0  0
 25 27  1  0  0  0  0
 27 33  2  0  0  0  0
 29 25  2  0  0  0  0
 30 27  1  0  0  0  0
 31 28  1  0  0  0  0
 31 26  1  0  0  0  0
 32 31  2  0  0  0  0
 33 26  1  0  0  0  0
M  END
>  <MODEL>
4

>  <REMARK>
 VINA RESULT:      -7.9      3.922      5.598
  Name = 
  2 active torsions:
  status: ('A' for Active; 'I' for Inactive)
    1  A    between atoms: C_8  and  C_16
    2  A    between atoms: N_19  and  C_27
                            x       y       z     vdW  Elec       q    Type
                         _______ _______ _______ _____ _____    ______ ____

>  <TORSDO>
F 2

$$$$
=
 OpenBabel11062414493D

 33 37  0  0  1  0  0  0  0  0999 V2000
  191.0770  177.1480  138.6140 C   0  0  1  0  0  3  0  0  0  0  0  0
  191.1530  176.3540  141.6210 C   0  0  0  0  0  2  0  0  0  0  0  0
  190.7960  177.1370  137.2440 O   0  0  0  0  0  1  0  0  0  0  0  0
  190.1530  176.2050  139.3340 C   0  0  0  0  0  0  0  0  0  0  0  0
  189.8590  176.3920  140.7960 C   0  0  2  0  0  3  0  0  0  0  0  0
  192.0550  177.5480  141.3200 C   0  0  0  0  0  2  0  0  0  0  0  0
  192.5250  176.7230  138.8880 C   0  0  2  0  0  3  0  0  0  0  0  0
  189.6800  175.2410  138.7520 O   0  0  0  0  0  0  0  0  0  0  0  0
  193.0800  177.2540  140.2220 C   0  0  0  0  0  2  0  0  0  0  0  0
  188.0020  177.8820  139.9450 C   0  0  0  0  0  2  0  0  0  0  0  0
  184.9330  179.4100  142.6730 C   0  0  0  0  0  3  0  0  0  0  0  0
  189.0150  177.6480  141.0620 C   0  0  1  0  0  3  0  0  0  0  0  0
  188.5630  177.5380  144.5740 C   0  0  0  0  0  2  0  0  0  0  0  0
  188.1900  177.5060  142.3320 C   0  0  2  0  0  3  0  0  0  0  0  0
  187.1020  177.1130  144.8180 C   0  0  0  0  0  2  0  0  0  0  0  0
  186.8820  178.0590  142.0240 N   0  0  0  0  0  0  0  0  0  0  0  0
  186.7360  178.3790  140.6170 C   0  0  0  0  0  2  0  0  0  0  0  0
  185.2100  178.6770  145.3560 C   0  0  0  0  0  0  0  0  0  0  0  0
  188.7720  178.2460  143.3710 O   0  0  0  0  0  0  0  0  0  0  0  0
  184.2020  179.5600  144.9680 C   0  0  0  0  0  3  0  0  0  0  0  0
  185.9590  178.5230  143.0340 C   0  0  0  0  0  0  0  0  0  0  0  0
  185.3230  178.2410  147.0560 Cl  0  0  0  0  0  0  0  0  0  0  0  0
  184.0600  179.9240  143.6300 C   0  0  0  0  0  3  0  0  0  0  0  0
  186.0950  178.1470  144.3970 C   0  0  0  0  0  0  0  0  0  0  0  0
  196.0510  175.9380  135.5250 C   0  0  0  0  0  0  0  0  0  0  0  0
  194.3730  174.7970  137.5390 C   0  0  0  0  0  2  0  0  0  0  0  0
  196.2470  174.5410  135.9240 C   0  0  0  0  0  0  0  0  0  0  0  0
  193.4070  177.1440  137.8050 N   0  0  0  0  0  2  0  0  0  0  0  0
  196.7750  176.4610  134.5940 N   0  0  0  0  0  2  0  0  0  0  0  0
  197.2170  173.7860  135.3500 F   0  0  0  0  0  0  0  0  0  0  0  0
  194.3330  176.2650  137.1610 C   0  0  0  0  0  0  0  0  0  0  0  0
  195.0960  176.7420  136.2220 N   0  0  0  0  0  0  0  0  0  0  0  0
  195.4800  174.0190  136.8790 C   0  0  0  0  0  3  0  0  0  0  0  0
  1  3  1  6  0  0  0
  1  7  1  0  0  0  0
  1  4  1  0  0  0  0
  4  5  1  0  0  0  0
  5 12  1  0  0  0  0
  5  2  1  1  0  0  0
  6  2  1  0  0  0  0
  7 28  1  6  0  0  0
  7  9  1  0  0  0  0
  8  4  2  0  0  0  0
  9  6  1  0  0  0  0
 10 17  1  0  0  0  0
 11 21  2  0  0  0  0
 11 23  1  0  0  0  0
 12 10  1  6  0  0  0
 12 14  1  0  0  0  0
 13 15  1  0  0  0  0
 14 19  1  1  0  0  0
 16 14  1  0  0  0  0
 16 21  1  0  0  0  0
 17 16  1  0  0  0  0
 18 22  1  0  0  0  0
 19 13  1  0  0  0  0
 20 18  1  0  0  0  0
 21 24  1  0  0  0  0
 23 20  2  0  0  0  0
 24 15  1  0  0  0  0
 24 18  2  0  0  0  0
 25 27  1  0  0  0  0
 25 32  1  0  0  0  0
 27 33  2  0  0  0  0
 29 25  2  0  0  0  0
 30 27  1  0  0  0  0
 31 26  1  0  0  0  0
 31 28  1  0  0  0  0
 32 31  2  0  0  0  0
 33 26  1  0  0  0  0
M  END
>  <MODEL>
5

>  <REMARK>
 VINA RESULT:      -7.9      7.634     10.639
  Name = 
  2 active torsions:
  status: ('A' for Active; 'I' for Inactive)
    1  A    between atoms: C_8  and  C_16
    2  A    between atoms: N_19  and  C_27
                            x       y       z     vdW  Elec       q    Type
                         _______ _______ _______ _____ _____    ______ ____

>  <TORSDO>
F 2

$$$$
=
 OpenBabel11062414493D

 33 37  0  0  1  0  0  0  0  0999 V2000
  186.0200  177.8200  138.5200 C   0  0  1  0  0  3  0  0  0  0  0  0
  188.9090  178.6110  139.3580 C   0  0  0  0  0  2  0  0  0  0  0  0
  184.8330  177.7030  137.7880 O   0  0  0  0  0  1  0  0  0  0  0  0
  187.1210  178.3290  137.6320 C   0  0  0  0  0  0  0  0  0  0  0  0
  188.5610  178.0570  137.9690 C   0  0  2  0  0  3  0  0  0  0  0  0
  188.1730  177.8660  140.4690 C   0  0  0  0  0  2  0  0  0  0  0  0
  185.8530  178.7840  139.7010 C   0  0  2  0  0  3  0  0  0  0  0  0
  186.8600  179.0230  136.6620 O   0  0  0  0  0  0  0  0  0  0  0  0
  186.8460  178.5280  140.8480 C   0  0  0  0  0  2  0  0  0  0  0  0
  188.4590  176.0330  136.4590 C   0  0  0  0  0  2  0  0  0  0  0  0
  191.9360  173.4060  136.0020 C   0  0  0  0  0  3  0  0  0  0  0  0
  188.9240  176.5730  137.8070 C   0  0  1  0  0  3  0  0  0  0  0  0
  192.0930  176.3840  139.3780 C   0  0  0  0  0  2  0  0  0  0  0  0
  190.4300  176.3630  137.8300 C   0  0  2  0  0  3  0  0  0  0  0  0
  193.1370  176.2480  138.2530 C   0  0  0  0  0  2  0  0  0  0  0  0
  190.7140  175.3890  136.7890 N   0  0  0  0  0  0  0  0  0  0  0  0
  189.5470  175.0900  135.9810 C   0  0  0  0  0  2  0  0  0  0  0  0
  194.1890  174.0910  137.5080 C   0  0  0  0  0  0  0  0  0  0  0  0
  190.8270  175.8430  139.0700 O   0  0  0  0  0  0  0  0  0  0  0  0
  194.1790  172.9200  136.7490 C   0  0  0  0  0  3  0  0  0  0  0  0
  191.9160  174.5880  136.7580 C   0  0  0  0  0  0  0  0  0  0  0  0
  195.6420  174.4750  138.4210 Cl  0  0  0  0  0  0  0  0  0  0  0  0
  193.0570  172.5780  135.9950 C   0  0  0  0  0  3  0  0  0  0  0  0
  193.0640  174.9370  137.5190 C   0  0  0  0  0  0  0  0  0  0  0  0
  182.5440  178.9040  143.3600 C   0  0  0  0  0  0  0  0  0  0  0  0
  185.2910  179.1630  142.6140 C   0  0  0  0  0  2  0  0  0  0  0  0
  183.5650  179.0540  144.4010 C   0  0  0  0  0  0  0  0  0  0  0  0
  184.4940  178.7330  140.2280 N   0  0  0  0  0  2  0  0  0  0  0  0
  181.2950  178.8210  143.6750 N   0  0  0  0  0  2  0  0  0  0  0  0
  183.2210  179.0680  145.7130 F   0  0  0  0  0  0  0  0  0  0  0  0
  184.1860  178.8680  141.6180 C   0  0  0  0  0  0  0  0  0  0  0  0
  182.9440  178.7820  141.9930 N   0  0  0  0  0  0  0  0  0  0  0  0
  184.8460  179.1500  144.0520 C   0  0  0  0  0  3  0  0  0  0  0  0
  1  3  1  6  0  0  0
  1  7  1  0  0  0  0
  2  6  1  0  0  0  0
  4  5  1  0  0  0  0
  4  1  1  0  0  0  0
  5  2  1  1  0  0  0
  6  9  1  0  0  0  0
  7 28  1  1  0  0  0
  7  9  1  0  0  0  0
  8  4  2  0  0  0  0
 11 21  1  0  0  0  0
 12 10  1  6  0  0  0
 12 14  1  0  0  0  0
 12  5  1  0  0  0  0
 14 19  1  1  0  0  0
 15 13  1  0  0  0  0
 16 14  1  0  0  0  0
 17 10  1  0  0  0  0
 17 16  1  0  0  0  0
 18 24  1  0  0  0  0
 18 22  1  0  0  0  0
 19 13  1  0  0  0  0
 20 18  2  0  0  0  0
 21 16  1  0  0  0  0
 21 24  2  0  0  0  0
 23 11  2  0  0  0  0
 23 20  1  0  0  0  0
 24 15  1  0  0  0  0
 25 29  2  0  0  0  0
 25 27  1  0  0  0  0
 26 33  1  0  0  0  0
 27 30  1  0  0  0  0
 28 31  1  0  0  0  0
 31 32  2  0  0  0  0
 31 26  1  0  0  0  0
 32 25  1  0  0  0  0
 33 27  2  0  0  0  0
M  END
>  <MODEL>
6

>  <REMARK>
 VINA RESULT:      -7.8      6.385      8.792
  Name = 
  2 active torsions:
  status: ('A' for Active; 'I' for Inactive)
    1  A    between atoms: C_8  and  C_16
    2  A    between atoms: N_19  and  C_27
                            x       y       z     vdW  Elec       q    Type
                         _______ _______ _______ _____ _____    ______ ____

>  <TORSDO>
F 2

$$$$
=
 OpenBabel11062414493D

 33 37  0  0  1  0  0  0  0  0999 V2000
  182.0190  178.6400  143.4590 C   0  0  1  0  0  3  0  0  0  0  0  0
  182.9190  178.7310  140.4830 C   0  0  0  0  0  2  0  0  0  0  0  0
  181.3210  178.8930  144.6440 O   0  0  0  0  0  1  0  0  0  0  0  0
  181.2360  179.1560  142.2830 C   0  0  0  0  0  0  0  0  0  0  0  0
  181.4530  178.5820  140.9110 C   0  0  2  0  0  3  0  0  0  0  0  0
  183.8520  177.8780  141.3380 C   0  0  0  0  0  2  0  0  0  0  0  0
  183.3960  179.3150  143.4690 C   0  0  2  0  0  3  0  0  0  0  0  0
  180.4620  180.0900  142.4200 O   0  0  0  0  0  0  0  0  0  0  0  0
  184.4190  178.6400  142.5370 C   0  0  0  0  0  2  0  0  0  0  0  0
  179.4250  177.0730  140.9700 C   0  0  0  0  0  2  0  0  0  0  0  0
  178.9570  173.8410  138.0510 C   0  0  0  0  0  3  0  0  0  0  0  0
  180.9400  177.1380  140.7990 C   0  0  1  0  0  3  0  0  0  0  0  0
  183.0160  175.7800  138.2700 C   0  0  0  0  0  2  0  0  0  0  0  0
  181.2160  176.5540  139.4220 C   0  0  2  0  0  3  0  0  0  0  0  0
  182.1470  175.6590  137.0030 C   0  0  0  0  0  2  0  0  0  0  0  0
  180.0180  175.8190  139.0510 N   0  0  0  0  0  0  0  0  0  0  0  0
  178.9310  176.0290  139.9880 C   0  0  0  0  0  2  0  0  0  0  0  0
  181.0370  173.5500  136.2060 C   0  0  0  0  0  0  0  0  0  0  0  0
  182.3010  175.6690  139.4810 O   0  0  0  0  0  0  0  0  0  0  0  0
  179.9820  172.6370  136.2270 C   0  0  0  0  0  3  0  0  0  0  0  0
  180.0060  174.7720  138.0560 C   0  0  0  0  0  0  0  0  0  0  0  0
  182.3080  173.3220  135.0120 Cl  0  0  0  0  0  0  0  0  0  0  0  0
  178.9420  172.7820  137.1430 C   0  0  0  0  0  3  0  0  0  0  0  0
  181.0600  174.6250  137.1150 C   0  0  0  0  0  0  0  0  0  0  0  0
  186.8100  178.2720  146.8760 C   0  0  0  0  0  0  0  0  0  0  0  0
  186.0530  178.1100  144.1240 C   0  0  0  0  0  2  0  0  0  0  0  0
  187.6380  177.5030  145.9430 C   0  0  0  0  0  0  0  0  0  0  0  0
  183.9430  179.3650  144.8200 N   0  0  0  0  0  2  0  0  0  0  0  0
  187.1530  178.3860  148.1160 N   0  0  0  0  0  2  0  0  0  0  0  0
  188.7560  176.8650  146.3720 F   0  0  0  0  0  0  0  0  0  0  0  0
  185.1900  178.7660  145.1840 C   0  0  0  0  0  0  0  0  0  0  0  0
  185.5800  178.8420  146.4220 N   0  0  0  0  0  0  0  0  0  0  0  0
  187.2700  177.4090  144.6670 C   0  0  0  0  0  3  0  0  0  0  0  0
  1  7  1  0  0  0  0
  1  3  1  1  0  0  0
  2  6  1  0  0  0  0
  4  8  2  0  0  0  0
  4  1  1  0  0  0  0
  5  2  1  1  0  0  0
  5  4  1  0  0  0  0
  6  9  1  0  0  0  0
  7 28  1  1  0  0  0
  9  7  1  0  0  0  0
 11 21  1  0  0  0  0
 12  5  1  0  0  0  0
 12 10  1  6  0  0  0
 13 19  1  0  0  0  0
 14 19  1  1  0  0  0
 14 12  1  0  0  0  0
 15 24  1  0  0  0  0
 15 13  1  0  0  0  0
 16 14  1  0  0  0  0
 16 17  1  0  0  0  0
 17 10  1  0  0  0  0
 18 20  2  0  0  0  0
 18 24  1  0  0  0  0
 20 23  1  0  0  0  0
 21 16  1  0  0  0  0
 22 18  1  0  0  0  0
 23 11  2  0  0  0  0
 24 21  2  0  0  0  0
 25 29  2  0  0  0  0
 26 33  1  0  0  0  0
 26 31  1  0  0  0  0
 27 30  1  0  0  0  0
 27 25  1  0  0  0  0
 28 31  1  0  0  0  0
 31 32  2  0  0  0  0
 32 25  1  0  0  0  0
 33 27  2  0  0  0  0
M  END
>  <MODEL>
7

>  <REMARK>
 VINA RESULT:      -7.6      4.877      9.143
  Name = 
  2 active torsions:
  status: ('A' for Active; 'I' for Inactive)
    1  A    between atoms: C_8  and  C_16
    2  A    between atoms: N_19  and  C_27
                            x       y       z     vdW  Elec       q    Type
                         _______ _______ _______ _____ _____    ______ ____

>  <TORSDO>
F 2

$$$$
=
 OpenBabel11062414493D

 33 37  0  0  1  0  0  0  0  0999 V2000
  184.1860  177.8970  138.7600 C   0  0  1  0  0  3  0  0  0  0  0  0
  183.4960  178.6560  141.6970 C   0  0  0  0  0  2  0  0  0  0  0  0
  184.6240  177.9790  137.4340 O   0  0  0  0  0  1  0  0  0  0  0  0
  184.6920  179.0780  139.5410 C   0  0  0  0  0  0  0  0  0  0  0  0
  184.8380  178.9990  141.0350 C   0  0  2  0  0  3  0  0  0  0  0  0
  183.0320  177.2450  141.3460 C   0  0  0  0  0  2  0  0  0  0  0  0
  182.6540  177.8730  138.8400 C   0  0  2  0  0  3  0  0  0  0  0  0
  184.9290  180.1340  138.9770 O   0  0  0  0  0  0  0  0  0  0  0  0
  182.1150  177.2110  140.1210 C   0  0  0  0  0  2  0  0  0  0  0  0
  187.2580  178.3520  140.6900 C   0  0  0  0  0  2  0  0  0  0  0  0
  189.8410  177.4430  144.1090 C   0  0  0  0  0  3  0  0  0  0  0  0
  185.9740  178.0540  141.4570 C   0  0  1  0  0  3  0  0  0  0  0  0
  185.4210  177.6970  144.9380 C   0  0  0  0  0  2  0  0  0  0  0  0
  186.3300  178.2320  142.9250 C   0  0  2  0  0  3  0  0  0  0  0  0
  186.5140  178.5190  145.6450 C   0  0  0  0  0  2  0  0  0  0  0  0
  187.7810  178.1880  142.9930 N   0  0  0  0  0  0  0  0  0  0  0  0
  188.3940  178.1790  141.6780 C   0  0  0  0  0  2  0  0  0  0  0  0
  188.6280  177.5770  146.6250 C   0  0  0  0  0  0  0  0  0  0  0  0
  185.8000  177.1770  143.6820 O   0  0  0  0  0  0  0  0  0  0  0  0
  189.9490  177.1440  146.5020 C   0  0  0  0  0  3  0  0  0  0  0  0
  188.5100  177.8790  144.2010 C   0  0  0  0  0  0  0  0  0  0  0  0
  187.9270  177.6540  148.2350 Cl  0  0  0  0  0  0  0  0  0  0  0  0
  190.5570  177.0800  145.2480 C   0  0  0  0  0  3  0  0  0  0  0  0
  187.8970  177.9510  145.4800 C   0  0  0  0  0  0  0  0  0  0  0  0
  182.1620  174.0360  135.7760 C   0  0  0  0  0  0  0  0  0  0  0  0
  183.3610  175.0460  138.1660 C   0  0  0  0  0  2  0  0  0  0  0  0
  183.1620  173.2280  136.4810 C   0  0  0  0  0  0  0  0  0  0  0  0
  182.0810  177.2000  137.6790 N   0  0  0  0  0  2  0  0  0  0  0  0
  181.5840  173.5820  134.7140 N   0  0  0  0  0  2  0  0  0  0  0  0
  183.5250  172.0090  136.0100 F   0  0  0  0  0  0  0  0  0  0  0  0
  182.4240  175.8640  137.2990 C   0  0  0  0  0  0  0  0  0  0  0  0
  181.8780  175.3610  136.2310 N   0  0  0  0  0  0  0  0  0  0  0  0
  183.7360  173.7110  137.5800 C   0  0  0  0  0  3  0  0  0  0  0  0
  1  3  1  6  0  0  0
  1  7  1  0  0  0  0
  1  4  1  0  0  0  0
  4  5  1  0  0  0  0
  5 12  1  0  0  0  0
  5  2  1  1  0  0  0
  6  2  1  0  0  0  0
  7 28  1  6  0  0  0
  7  9  1  0  0  0  0
  8  4  2  0  0  0  0
  9  6  1  0  0  0  0
 10 17  1  0  0  0  0
 11 21  2  0  0  0  0
 11 23  1  0  0  0  0
 12 10  1  6  0  0  0
 12 14  1  0  0  0  0
 13 15  1  0  0  0  0
 14 16  1  0  0  0  0
 14 19  1  1  0  0  0
 16 21  1  0  0  0  0
 17 16  1  0  0  0  0
 18 22  1  0  0  0  0
 19 13  1  0  0  0  0
 20 18  1  0  0  0  0
 21 24  1  0  0  0  0
 23 20  2  0  0  0  0
 24 15  1  0  0  0  0
 24 18  2  0  0  0  0
 25 32  1  0  0  0  0
 25 27  1  0  0  0  0
 27 33  2  0  0  0  0
 29 25  2  0  0  0  0
 30 27  1  0  0  0  0
 31 28  1  0  0  0  0
 31 26  1  0  0  0  0
 32 31  2  0  0  0  0
 33 26  1  0  0  0  0
M  END
>  <MODEL>
8

>  <REMARK>
 VINA RESULT:      -7.6      4.305      5.907
  Name = 
  2 active torsions:
  status: ('A' for Active; 'I' for Inactive)
    1  A    between atoms: C_8  and  C_16
    2  A    between atoms: N_19  and  C_27
                            x       y       z     vdW  Elec       q    Type
                         _______ _______ _______ _____ _____    ______ ____

>  <TORSDO>
F 2

$$$$
=
 OpenBabel11062414493D

 33 37  0  0  1  0  0  0  0  0999 V2000
  188.1330  177.9110  139.3510 C   0  0  1  0  0  3  0  0  0  0  0  0
  191.1150  177.1670  138.8720 C   0  0  0  0  0  2  0  0  0  0  0  0
  186.9220  178.6120  139.3530 O   0  0  0  0  0  1  0  0  0  0  0  0
  189.0830  178.5340  138.3660 C   0  0  0  0  0  0  0  0  0  0  0  0
  190.2040  177.7280  137.7720 C   0  0  2  0  0  3  0  0  0  0  0  0
  190.3970  176.1320  139.7340 C   0  0  0  0  0  2  0  0  0  0  0  0
  188.7850  177.9220  140.7390 C   0  0  2  0  0  3  0  0  0  0  0  0
  188.9930  179.7190  138.0860 O   0  0  0  0  0  0  0  0  0  0  0  0
  189.7460  176.7440  140.9770 C   0  0  0  0  0  2  0  0  0  0  0  0
  189.9010  175.2480  137.3830 C   0  0  0  0  0  2  0  0  0  0  0  0
  186.1800  173.6890  135.6760 C   0  0  0  0  0  3  0  0  0  0  0  0
  189.6920  176.6450  136.8080 C   0  0  1  0  0  3  0  0  0  0  0  0
  186.7880  178.1460  135.4420 C   0  0  0  0  0  2  0  0  0  0  0  0
  188.1940  176.7680  136.5790 C   0  0  2  0  0  3  0  0  0  0  0  0
  185.5810  177.4390  136.0860 C   0  0  0  0  0  2  0  0  0  0  0  0
  187.6730  175.4110  136.5960 N   0  0  0  0  0  0  0  0  0  0  0  0
  188.6760  174.4420  136.9970 C   0  0  0  0  0  2  0  0  0  0  0  0
  184.2440  175.5970  135.0190 C   0  0  0  0  0  0  0  0  0  0  0  0
  187.9420  177.3430  135.3250 O   0  0  0  0  0  0  0  0  0  0  0  0
  184.0400  174.2510  134.7120 C   0  0  0  0  0  3  0  0  0  0  0  0
  186.4150  175.0360  135.9940 C   0  0  0  0  0  0  0  0  0  0  0  0
  182.9840  176.7470  134.5950 Cl  0  0  0  0  0  0  0  0  0  0  0  0
  185.0020  173.2980  135.0420 C   0  0  0  0  0  3  0  0  0  0  0  0
  185.4290  176.0030  135.6650 C   0  0  0  0  0  0  0  0  0  0  0  0
  187.3390  177.8320  145.4570 C   0  0  0  0  0  0  0  0  0  0  0  0
  189.5390  177.9210  143.6330 C   0  0  0  0  0  2  0  0  0  0  0  0
  188.7080  177.7230  145.9690 C   0  0  0  0  0  0  0  0  0  0  0  0
  187.7730  177.9300  141.7910 N   0  0  0  0  0  2  0  0  0  0  0  0
  186.3340  177.8280  146.2670 N   0  0  0  0  0  2  0  0  0  0  0  0
  188.9420  177.5780  147.2980 F   0  0  0  0  0  0  0  0  0  0  0  0
  188.0910  177.8890  143.1840 C   0  0  0  0  0  0  0  0  0  0  0  0
  187.1160  177.8740  144.0450 N   0  0  0  0  0  0  0  0  0  0  0  0
  189.7290  177.7410  145.1160 C   0  0  0  0  0  3  0  0  0  0  0  0
  1  3  1  1  0  0  0
  1  7  1  0  0  0  0
  2  6  1  0  0  0  0
  4  1  1  0  0  0  0
  5  4  1  0  0  0  0
  5  2  1  1  0  0  0
  6  9  1  0  0  0  0
  7  9  1  0  0  0  0
  7 28  1  1  0  0  0
  8  4  2  0  0  0  0
 11 21  1  0  0  0  0
 12 10  1  1  0  0  0
 12  5  1  0  0  0  0
 13 15  1  0  0  0  0
 14 19  1  6  0  0  0
 14 16  1  0  0  0  0
 14 12  1  0  0  0  0
 16 17  1  0  0  0  0
 17 10  1  0  0  0  0
 18 24  1  0  0  0  0
 19 13  1  0  0  0  0
 20 18  2  0  0  0  0
 20 23  1  0  0  0  0
 21 16  1  0  0  0  0
 22 18  1  0  0  0  0
 23 11  2  0  0  0  0
 24 21  2  0  0  0  0
 24 15  1  0  0  0  0
 25 27  1  0  0  0  0
 25 29  2  0  0  0  0
 26 33  1  0  0  0  0
 27 30  1  0  0  0  0
 28 31  1  0  0  0  0
 31 26  1  0  0  0  0
 31 32  2  0  0  0  0
 32 25  1  0  0  0  0
 33 27  2  0  0  0  0
M  END
>  <MODEL>
9

>  <REMARK>
 VINA RESULT:      -7.4      6.629     10.307
  Name = 
  2 active torsions:
  status: ('A' for Active; 'I' for Inactive)
    1  A    between atoms: C_8  and  C_16
    2  A    between atoms: N_19  and  C_27
                            x       y       z     vdW  Elec       q    Type
                         _______ _______ _______ _____ _____    ______ ____

>  <TORSDO>
F 2

$$$$
