=
 OpenBabel11062414003D

 49 52  0  0  1  0  0  0  0  0999 V2000
  181.7500  179.1360  139.8150 C   0  0  1  0  0  3  0  0  0  0  0  0
  183.0470  174.2680  136.8880 C   0  0  0  0  0  1  0  0  0  0  0  0
  182.0260  177.9320  138.9620 C   0  0  0  0  0  0  0  0  0  0  0  0
  180.1700  176.7470  139.8640 O   0  0  0  0  0  0  0  0  0  0  0  0
  181.1470  176.7470  139.0700 C   0  0  0  0  0  0  0  0  0  0  0  0
  182.8710  175.4250  137.8580 C   0  0  2  0  0  3  0  0  0  0  0  0
  183.0820  177.9070  138.1360 C   0  0  0  0  0  3  0  0  0  0  0  0
  181.3880  175.5440  138.2170 C   0  0  0  0  0  2  0  0  0  0  0  0
  183.3670  176.7390  137.2360 C   0  0  1  0  0  3  0  0  0  0  0  0
  184.7980  176.6760  136.9780 N   0  0  0  0  0  2  0  0  0  0  0  0
  185.3490  176.9400  135.6860 C   0  0  0  0  0  0  0  0  0  0  0  0
  184.6060  177.3130  134.7410 O   0  0  0  0  0  0  0  0  0  0  0  0
  188.6170  175.7900  136.3410 C   0  0  1  0  0  3  0  0  0  0  0  0
  187.5700  177.9100  136.1270 C   0  0  0  0  0  2  0  0  0  0  0  0
  187.2690  175.5800  135.9910 O   0  0  0  0  0  0  0  0  0  0  0  0
  188.8700  177.2750  136.5190 C   0  0  1  0  0  3  0  0  0  0  0  0
  188.7000  176.3820  137.7360 C   0  0  0  0  0  2  0  0  0  0  0  0
  186.8130  176.7920  135.4530 C   0  0  1  0  0  3  0  0  0  0  0  0
  180.8190  180.1670  139.1570 C   0  0  0  0  0  2  0  0  0  0  0  0
  181.5560  181.2910  138.4290 C   0  0  0  0  0  2  0  0  0  0  0  0
  180.5890  182.3920  138.0100 C   0  0  2  0  0  3  0  0  0  0  0  0
  179.3540  181.8400  137.6800 O   0  0  0  0  0  1  0  0  0  0  0  0
  181.1100  183.2810  136.8720 C   0  0  1  0  0  3  0  0  0  0  0  0
  180.3480  183.0210  135.5810 C   0  0  0  0  0  1  0  0  0  0  0  0
  181.1190  185.5430  136.0480 F   0  0  0  0  0  0  0  0  0  0  0  0
  180.1230  185.1400  138.0270 F   0  0  0  0  0  0  0  0  0  0  0  0
  182.3590  185.0550  137.8640 F   0  0  0  0  0  0  0  0  0  0  0  0
  181.1730  184.7810  137.2020 C   0  0  0  0  0  0  0  0  0  0  0  0
  181.3710  178.7590  141.2480 C   0  0  0  0  0  2  0  0  0  0  0  0
  182.5310  179.4520  143.3000 C   0  0  0  0  0  3  0  0  0  0  0  0
  184.9920  178.0940  142.6410 C   0  0  1  0  0  3  0  0  0  0  0  0
  183.6960  179.5220  144.2470 C   0  0  0  0  0  2  0  0  0  0  0  0
  184.6050  178.3040  144.1040 C   0  0  0  0  0  2  0  0  0  0  0  0
  183.7440  177.8850  141.7730 C   0  0  0  0  0  2  0  0  0  0  0  0
  182.5680  178.7550  142.1490 C   0  0  0  0  0  0  0  0  0  0  0  0
  185.8440  179.2490  142.1330 C   0  0  0  0  0  2  0  0  0  0  0  0
  186.9240  178.7500  141.2170 C   0  0  0  0  0  0  0  0  0  0  0  0
  186.6900  178.6380  140.0280 O   0  0  0  0  0  0  0  0  0  0  0  0
  189.1530  178.0770  140.6840 O   0  0  0  0  0  1  0  0  0  0  0  0
  188.2800  178.3690  141.7370 C   0  0  2  0  0  3  0  0  0  0  0  0
  188.1620  177.1650  142.6640 C   0  0  0  0  0  2  0  0  0  0  0  0
  189.3370  177.1020  143.6310 C   0  0  2  0  0  3  0  0  0  0  0  0
  190.3460  176.0650  143.1670 C   0  0  0  0  0  1  0  0  0  0  0  0
  188.8720  176.7480  144.8980 O   0  0  0  0  0  0  0  0  0  0  0  0
  187.9420  177.7360  145.2280 C   0  0  0  0  0  2  0  0  0  0  0  0
  187.3660  177.4570  146.6130 C   0  0  2  0  0  3  0  0  0  0  0  0
  186.5540  178.6330  147.1410 C   0  0  0  0  0  1  0  0  0  0  0  0
  188.3260  176.9860  147.5390 O   0  0  0  0  0  0  0  0  0  0  0  0
  188.7670  178.0580  148.3320 C   0  0  0  0  0  1  0  0  0  0  0  0
  1 19  1  6  0  0  0
  1 29  1  0  0  0  0
  3  5  1  0  0  0  0
  3  1  1  0  0  0  0
  5  4  2  0  0  0  0
  6  2  1  6  0  0  0
  6  8  1  0  0  0  0
  7  3  2  0  0  0  0
  8  5  1  0  0  0  0
  9 10  1  1  0  0  0
  9  6  1  0  0  0  0
  9  7  1  0  0  0  0
 11 10  1  0  0  0  0
 12 11  2  0  0  0  0
 13 16  1  0  0  0  0
 13 17  1  1  0  0  0
 15 13  1  0  0  0  0
 16 14  1  6  0  0  0
 16 17  1  0  0  0  0
 18 11  1  1  0  0  0
 18 15  1  0  0  0  0
 18 14  1  0  0  0  0
 20 19  1  0  0  0  0
 21 22  1  6  0  0  0
 21 20  1  0  0  0  0
 23 24  1  6  0  0  0
 23 28  1  0  0  0  0
 23 21  1  0  0  0  0
 25 28  1  0  0  0  0
 28 27  1  0  0  0  0
 28 26  1  0  0  0  0
 29 35  1  0  0  0  0
 30 32  1  0  0  0  0
 31 36  1  6  0  0  0
 31 33  1  0  0  0  0
 33 32  1  0  0  0  0
 34 35  1  0  0  0  0
 34 31  1  0  0  0  0
 35 30  2  0  0  0  0
 37 40  1  0  0  0  0
 37 36  1  0  0  0  0
 38 37  2  0  0  0  0
 40 39  1  6  0  0  0
 40 41  1  0  0  0  0
 41 42  1  0  0  0  0
 42 43  1  6  0  0  0
 42 44  1  0  0  0  0
 44 45  1  0  0  0  0
 45 46  1  0  0  0  0
 46 47  1  1  0  0  0
 46 48  1  0  0  0  0
 48 49  1  0  0  0  0
M  END
>  <MODEL>
1

>  <REMARK>
 VINA RESULT:      -7.6      0.000      0.000
  Name = 
  19 active torsions:
  status: ('A' for Active; 'I' for Inactive)
    1  A    between atoms: C_1  and  C_9
    2  A    between atoms: C_1  and  C_23
    3  A    between atoms: C_4  and  C_25
    4  A    between atoms: C_4  and  C_45
    5  A    between atoms: C_5  and  C_25
    6  A    between atoms: C_5  and  C_40
    7  A    between atoms: C_8  and  C_11
    8  A    between atoms: C_9  and  C_40
    9  A    between atoms: C_11  and  C_16
   10  A    between atoms: C_12  and  C_25
   11  A    between atoms: C_16  and  C_41
   12  A    between atoms: C_22  and  C_29
   13  A    between atoms: C_22  and  O_31
   14  A    between atoms: C_26  and  O_46
   15  A    between atoms: C_26  and  C_48
   16  A    between atoms: N_28  and  C_49
   17  A    between atoms: C_29  and  O_46
   18  A    between atoms: C_37  and  C_43
   19  A    between atoms: C_41  and  C_48
                            x       y       z     vdW  Elec       q    Type
                         _______ _______ _______ _____ _____    ______ ____

>  <TORSDO>
F 19

$$$$
=
 OpenBabel11062414003D

 49 52  0  0  1  0  0  0  0  0999 V2000
  185.0980  178.9360  138.7840 C   0  0  1  0  0  3  0  0  0  0  0  0
  179.3060  178.6560  138.2190 C   0  0  0  0  0  1  0  0  0  0  0  0
  183.5980  178.8860  138.7610 C   0  0  0  0  0  0  0  0  0  0  0  0
  183.5810  176.5080  138.8440 O   0  0  0  0  0  0  0  0  0  0  0  0
  182.9140  177.5750  138.7920 C   0  0  0  0  0  0  0  0  0  0  0  0
  180.8190  178.7120  138.0810 C   0  0  2  0  0  3  0  0  0  0  0  0
  182.8770  180.0140  138.6740 C   0  0  0  0  0  3  0  0  0  0  0  0
  181.4210  177.4980  138.7910 C   0  0  0  0  0  2  0  0  0  0  0  0
  181.3760  180.0070  138.6920 C   0  0  1  0  0  3  0  0  0  0  0  0
  180.8860  181.1680  137.9630 N   0  0  0  0  0  2  0  0  0  0  0  0
  179.9650  182.0950  138.5440 C   0  0  0  0  0  0  0  0  0  0  0  0
  179.6050  181.9690  139.7440 O   0  0  0  0  0  0  0  0  0  0  0  0
  179.3380  183.9420  135.6060 C   0  0  1  0  0  3  0  0  0  0  0  0
  180.4500  184.3440  137.6650 C   0  0  0  0  0  2  0  0  0  0  0  0
  179.1730  182.8070  136.4230 O   0  0  0  0  0  0  0  0  0  0  0  0
  180.2170  184.9540  136.3160 C   0  0  1  0  0  3  0  0  0  0  0  0
  180.7960  184.0850  135.2130 C   0  0  0  0  0  2  0  0  0  0  0  0
  179.4360  183.2280  137.7340 C   0  0  1  0  0  3  0  0  0  0  0  0
  185.7260  178.2890  140.0290 C   0  0  0  0  0  2  0  0  0  0  0  0
  185.4550  179.0500  141.3270 C   0  0  0  0  0  2  0  0  0  0  0  0
  184.5800  178.2290  142.2660 C   0  0  2  0  0  3  0  0  0  0  0  0
  183.2830  178.7360  142.2730 O   0  0  0  0  0  1  0  0  0  0  0  0
  185.1290  178.1170  143.6950 C   0  0  1  0  0  3  0  0  0  0  0  0
  186.6290  177.8590  143.6850 C   0  0  0  0  0  1  0  0  0  0  0  0
  185.6210  179.3480  145.7040 F   0  0  0  0  0  0  0  0  0  0  0  0
  184.8150  180.4850  143.9360 F   0  0  0  0  0  0  0  0  0  0  0  0
  183.4680  179.1100  145.0890 F   0  0  0  0  0  0  0  0  0  0  0  0
  184.7600  179.2870  144.6230 C   0  0  0  0  0  0  0  0  0  0  0  0
  185.7160  178.4950  137.4580 C   0  0  0  0  0  2  0  0  0  0  0  0
  187.0900  176.4600  137.3700 C   0  0  0  0  0  3  0  0  0  0  0  0
  189.4310  177.7150  138.5020 C   0  0  1  0  0  3  0  0  0  0  0  0
  188.3410  175.6520  137.5770 C   0  0  0  0  0  2  0  0  0  0  0  0
  189.5860  176.5350  137.5440 C   0  0  0  0  0  2  0  0  0  0  0  0
  188.2110  178.5660  138.1240 C   0  0  0  0  0  2  0  0  0  0  0  0
  187.0100  177.7700  137.6690 C   0  0  0  0  0  0  0  0  0  0  0  0
  189.3570  177.2370  139.9460 C   0  0  0  0  0  2  0  0  0  0  0  0
  190.7340  177.0920  140.5280 C   0  0  0  0  0  0  0  0  0  0  0  0
  191.6800  177.5900  139.9460 O   0  0  0  0  0  0  0  0  0  0  0  0
  189.7730  175.8230  142.3090 O   0  0  0  0  0  1  0  0  0  0  0  0
  190.9720  176.3310  141.8000 C   0  0  2  0  0  3  0  0  0  0  0  0
  191.6340  177.2370  142.8320 C   0  0  0  0  0  2  0  0  0  0  0  0
  190.6000  177.8370  143.7760 C   0  0  2  0  0  3  0  0  0  0  0  0
  190.9270  179.2940  144.0600 C   0  0  0  0  0  1  0  0  0  0  0  0
  190.6070  177.1280  144.9770 O   0  0  0  0  0  0  0  0  0  0  0  0
  189.7080  177.8080  145.8010 C   0  0  0  0  0  2  0  0  0  0  0  0
  189.8670  177.3300  147.2410 C   0  0  2  0  0  3  0  0  0  0  0  0
  191.0760  176.4190  147.4100 C   0  0  0  0  0  1  0  0  0  0  0  0
  188.6820  176.7860  147.7890 O   0  0  0  0  0  0  0  0  0  0  0  0
  187.9110  177.8220  148.3420 C   0  0  0  0  0  1  0  0  0  0  0  0
  1 29  1  6  0  0  0
  1 19  1  0  0  0  0
  3  1  1  0  0  0  0
  3  5  1  0  0  0  0
  5  4  2  0  0  0  0
  6  2  1  1  0  0  0
  6  9  1  0  0  0  0
  6  8  1  0  0  0  0
  7  9  1  0  0  0  0
  7  3  2  0  0  0  0
  8  5  1  0  0  0  0
  9 10  1  6  0  0  0
 10 11  1  0  0  0  0
 11 12  2  0  0  0  0
 13 17  1  6  0  0  0
 13 16  1  0  0  0  0
 13 15  1  0  0  0  0
 14 18  1  0  0  0  0
 15 18  1  0  0  0  0
 16 17  1  6  0  0  0
 16 14  1  0  0  0  0
 18 11  1  1  0  0  0
 19 20  1  0  0  0  0
 20 21  1  0  0  0  0
 21 22  1  1  0  0  0
 21 23  1  0  0  0  0
 23 24  1  6  0  0  0
 23 28  1  0  0  0  0
 26 28  1  0  0  0  0
 28 27  1  0  0  0  0
 28 25  1  0  0  0  0
 29 35  1  0  0  0  0
 30 32  1  0  0  0  0
 30 35  2  0  0  0  0
 31 36  1  1  0  0  0
 33 32  1  0  0  0  0
 33 31  1  0  0  0  0
 34 31  1  0  0  0  0
 35 34  1  0  0  0  0
 36 37  1  0  0  0  0
 37 40  1  0  0  0  0
 38 37  2  0  0  0  0
 40 39  1  1  0  0  0
 40 41  1  0  0  0  0
 41 42  1  0  0  0  0
 42 43  1  1  0  0  0
 42 44  1  0  0  0  0
 44 45  1  0  0  0  0
 45 46  1  0  0  0  0
 46 47  1  6  0  0  0
 46 48  1  0  0  0  0
 48 49  1  0  0  0  0
M  END
>  <MODEL>
2

>  <REMARK>
 VINA RESULT:      -7.5      3.095      6.871
  Name = 
  19 active torsions:
  status: ('A' for Active; 'I' for Inactive)
    1  A    between atoms: C_1  and  C_9
    2  A    between atoms: C_1  and  C_23
    3  A    between atoms: C_4  and  C_25
    4  A    between atoms: C_4  and  C_45
    5  A    between atoms: C_5  and  C_25
    6  A    between atoms: C_5  and  C_40
    7  A    between atoms: C_8  and  C_11
    8  A    between atoms: C_9  and  C_40
    9  A    between atoms: C_11  and  C_16
   10  A    between atoms: C_12  and  C_25
   11  A    between atoms: C_16  and  C_41
   12  A    between atoms: C_22  and  C_29
   13  A    between atoms: C_22  and  O_31
   14  A    between atoms: C_26  and  O_46
   15  A    between atoms: C_26  and  C_48
   16  A    between atoms: N_28  and  C_49
   17  A    between atoms: C_29  and  O_46
   18  A    between atoms: C_37  and  C_43
   19  A    between atoms: C_41  and  C_48
                            x       y       z     vdW  Elec       q    Type
                         _______ _______ _______ _____ _____    ______ ____

>  <TORSDO>
F 19

$$$$
=
 OpenBabel11062414003D

 49 52  0  0  1  0  0  0  0  0999 V2000
  182.9390  178.2830  140.6430 C   0  0  1  0  0  3  0  0  0  0  0  0
  185.4850  179.0780  145.8230 C   0  0  0  0  0  1  0  0  0  0  0  0
  183.5830  178.3650  141.9960 C   0  0  0  0  0  0  0  0  0  0  0  0
  181.5560  179.0710  143.0230 O   0  0  0  0  0  0  0  0  0  0  0  0
  182.7750  178.7880  143.1610 C   0  0  0  0  0  0  0  0  0  0  0  0
  184.8860  179.1450  144.4280 C   0  0  2  0  0  3  0  0  0  0  0  0
  184.8880  178.0970  142.1510 C   0  0  0  0  0  3  0  0  0  0  0  0
  183.3860  178.8570  144.5230 C   0  0  0  0  0  2  0  0  0  0  0  0
  185.5580  178.1260  143.4950 C   0  0  1  0  0  3  0  0  0  0  0  0
  186.9660  178.4450  143.3170 N   0  0  0  0  0  2  0  0  0  0  0  0
  187.9850  177.4440  143.3820 C   0  0  0  0  0  0  0  0  0  0  0  0
  187.6780  176.2310  143.5230 O   0  0  0  0  0  0  0  0  0  0  0  0
  191.4740  176.9400  143.4500 C   0  0  1  0  0  3  0  0  0  0  0  0
  189.9350  178.3440  144.5890 C   0  0  0  0  0  2  0  0  0  0  0  0
  190.1930  176.7170  142.9080 O   0  0  0  0  0  0  0  0  0  0  0  0
  191.3760  177.9300  144.5940 C   0  0  1  0  0  3  0  0  0  0  0  0
  191.5190  176.4450  144.8840 C   0  0  0  0  0  2  0  0  0  0  0  0
  189.4190  177.8290  143.2670 C   0  0  1  0  0  3  0  0  0  0  0  0
  182.2840  179.5950  140.1830 C   0  0  0  0  0  2  0  0  0  0  0  0
  182.7170  180.0490  138.7890 C   0  0  0  0  0  2  0  0  0  0  0  0
  181.5070  180.3030  137.8990 C   0  0  2  0  0  3  0  0  0  0  0  0
  180.6020  181.1340  138.5530 O   0  0  0  0  0  1  0  0  0  0  0  0
  180.8160  179.0250  137.4040 C   0  0  1  0  0  3  0  0  0  0  0  0
  179.3400  179.0230  137.7730 C   0  0  0  0  0  1  0  0  0  0  0  0
  182.3310  178.3030  135.6780 F   0  0  0  0  0  0  0  0  0  0  0  0
  180.1640  177.7150  135.5010 F   0  0  0  0  0  0  0  0  0  0  0  0
  180.7740  179.8470  135.1660 F   0  0  0  0  0  0  0  0  0  0  0  0
  181.0290  178.7100  135.9140 C   0  0  0  0  0  0  0  0  0  0  0  0
  183.8500  177.6280  139.6040 C   0  0  0  0  0  2  0  0  0  0  0  0
  181.9150  176.1610  139.2320 C   0  0  0  0  0  3  0  0  0  0  0  0
  183.0100  174.9350  136.8580 C   0  0  1  0  0  3  0  0  0  0  0  0
  181.1270  175.1050  138.5090 C   0  0  0  0  0  2  0  0  0  0  0  0
  181.4950  175.0500  137.0290 C   0  0  0  0  0  2  0  0  0  0  0  0
  183.7210  176.1330  137.5020 C   0  0  0  0  0  2  0  0  0  0  0  0
  183.1180  176.5910  138.8080 C   0  0  0  0  0  0  0  0  0  0  0  0
  183.5200  173.6120  137.4140 C   0  0  0  0  0  2  0  0  0  0  0  0
  184.9850  173.4470  137.1290 C   0  0  0  0  0  0  0  0  0  0  0  0
  185.7200  173.0400  138.0110 O   0  0  0  0  0  0  0  0  0  0  0  0
  185.2580  172.8070  134.8440 O   0  0  0  0  0  1  0  0  0  0  0  0
  185.5690  173.7900  135.7890 C   0  0  2  0  0  3  0  0  0  0  0  0
  187.0810  173.9420  135.9040 C   0  0  0  0  0  2  0  0  0  0  0  0
  187.5300  175.3200  135.4370 C   0  0  2  0  0  3  0  0  0  0  0  0
  189.0420  175.4440  135.5340 C   0  0  0  0  0  1  0  0  0  0  0  0
  186.9430  176.2940  136.2450 O   0  0  0  0  0  0  0  0  0  0  0  0
  187.9430  176.6650  137.1460 C   0  0  0  0  0  2  0  0  0  0  0  0
  187.7730  178.1330  137.5260 C   0  0  2  0  0  3  0  0  0  0  0  0
  189.0250  178.9480  137.2310 C   0  0  0  0  0  1  0  0  0  0  0  0
  187.2850  178.3220  138.8400 O   0  0  0  0  0  0  0  0  0  0  0  0
  188.3680  178.3450  139.7350 C   0  0  0  0  0  1  0  0  0  0  0  0
  1 29  1  6  0  0  0
  1  3  1  0  0  0  0
  3  7  2  0  0  0  0
  3  5  1  0  0  0  0
  4  5  2  0  0  0  0
  5  8  1  0  0  0  0
  6  8  1  0  0  0  0
  6  2  1  1  0  0  0
  7  9  1  0  0  0  0
  9 10  1  6  0  0  0
  9  6  1  0  0  0  0
 10 11  1  0  0  0  0
 11 12  2  0  0  0  0
 13 16  1  0  0  0  0
 13 17  1  1  0  0  0
 15 18  1  0  0  0  0
 15 13  1  0  0  0  0
 16 14  1  6  0  0  0
 16 17  1  0  0  0  0
 18 11  1  1  0  0  0
 18 14  1  0  0  0  0
 19  1  1  0  0  0  0
 20 19  1  0  0  0  0
 21 22  1  1  0  0  0
 21 20  1  0  0  0  0
 23 24  1  6  0  0  0
 23 21  1  0  0  0  0
 25 28  1  0  0  0  0
 26 28  1  0  0  0  0
 27 28  1  0  0  0  0
 28 23  1  0  0  0  0
 31 33  1  0  0  0  0
 31 36  1  1  0  0  0
 31 34  1  0  0  0  0
 32 30  1  0  0  0  0
 33 32  1  0  0  0  0
 34 35  1  0  0  0  0
 35 30  2  0  0  0  0
 35 29  1  0  0  0  0
 37 36  1  0  0  0  0
 37 38  2  0  0  0  0
 40 39  1  6  0  0  0
 40 41  1  0  0  0  0
 40 37  1  0  0  0  0
 42 43  1  1  0  0  0
 42 41  1  0  0  0  0
 42 44  1  0  0  0  0
 44 45  1  0  0  0  0
 45 46  1  0  0  0  0
 46 47  1  1  0  0  0
 46 48  1  0  0  0  0
 48 49  1  0  0  0  0
M  END
>  <MODEL>
3

>  <REMARK>
 VINA RESULT:      -7.5      2.644      7.002
  Name = 
  19 active torsions:
  status: ('A' for Active; 'I' for Inactive)
    1  A    between atoms: C_1  and  C_9
    2  A    between atoms: C_1  and  C_23
    3  A    between atoms: C_4  and  C_25
    4  A    between atoms: C_4  and  C_45
    5  A    between atoms: C_5  and  C_25
    6  A    between atoms: C_5  and  C_40
    7  A    between atoms: C_8  and  C_11
    8  A    between atoms: C_9  and  C_40
    9  A    between atoms: C_11  and  C_16
   10  A    between atoms: C_12  and  C_25
   11  A    between atoms: C_16  and  C_41
   12  A    between atoms: C_22  and  C_29
   13  A    between atoms: C_22  and  O_31
   14  A    between atoms: C_26  and  O_46
   15  A    between atoms: C_26  and  C_48
   16  A    between atoms: N_28  and  C_49
   17  A    between atoms: C_29  and  O_46
   18  A    between atoms: C_37  and  C_43
   19  A    between atoms: C_41  and  C_48
                            x       y       z     vdW  Elec       q    Type
                         _______ _______ _______ _____ _____    ______ ____

>  <TORSDO>
F 19

$$$$
=
 OpenBabel11062414003D

 49 52  0  0  1  0  0  0  0  0999 V2000
  189.7750  177.6940  139.2440 C   0  0  1  0  0  3  0  0  0  0  0  0
  191.6510  173.1780  136.0760 C   0  0  0  0  0  1  0  0  0  0  0  0
  190.2630  176.6080  138.3300 C   0  0  0  0  0  0  0  0  0  0  0  0
  188.0620  175.7670  137.9970 O   0  0  0  0  0  0  0  0  0  0  0  0
  189.2900  175.6610  137.7410 C   0  0  0  0  0  0  0  0  0  0  0  0
  191.1880  174.1770  137.1240 C   0  0  2  0  0  3  0  0  0  0  0  0
  191.5720  176.4640  138.0750 C   0  0  0  0  0  3  0  0  0  0  0  0
  189.7470  174.5840  136.8110 C   0  0  0  0  0  2  0  0  0  0  0  0
  192.0940  175.4180  137.1330 C   0  0  1  0  0  3  0  0  0  0  0  0
  193.4490  175.0600  137.5240 N   0  0  0  0  0  2  0  0  0  0  0  0
  194.5600  175.2110  136.6360 C   0  0  0  0  0  0  0  0  0  0  0  0
  194.4030  175.7350  135.5020 O   0  0  0  0  0  0  0  0  0  0  0  0
  198.0460  174.7780  136.3390 C   0  0  1  0  0  3  0  0  0  0  0  0
  196.1690  173.3470  136.5990 C   0  0  0  0  0  2  0  0  0  0  0  0
  196.8980  175.5810  136.4770 O   0  0  0  0  0  0  0  0  0  0  0  0
  197.6450  173.3150  136.3350 C   0  0  1  0  0  3  0  0  0  0  0  0
  197.9840  174.0140  135.0300 C   0  0  0  0  0  2  0  0  0  0  0  0
  195.9170  174.7630  137.0560 C   0  0  1  0  0  3  0  0  0  0  0  0
  189.0760  178.8540  138.5180 C   0  0  0  0  0  2  0  0  0  0  0  0
  189.0380  178.7000  136.9970 C   0  0  0  0  0  2  0  0  0  0  0  0
  187.6410  178.9800  136.4570 C   0  0  2  0  0  3  0  0  0  0  0  0
  186.7030  178.8560  137.4780 O   0  0  0  0  0  1  0  0  0  0  0  0
  187.2520  178.1160  135.2500 C   0  0  1  0  0  3  0  0  0  0  0  0
  188.4660  177.3980  134.6770 C   0  0  0  0  0  1  0  0  0  0  0  0
  184.9270  177.6040  134.8930 F   0  0  0  0  0  0  0  0  0  0  0  0
  186.3850  175.8910  135.0050 F   0  0  0  0  0  0  0  0  0  0  0  0
  185.8630  177.0370  136.8610 F   0  0  0  0  0  0  0  0  0  0  0  0
  186.0850  177.1470  135.4980 C   0  0  0  0  0  0  0  0  0  0  0  0
  189.0080  177.1420  140.4460 C   0  0  0  0  0  2  0  0  0  0  0  0
  191.0240  177.0630  141.8490 C   0  0  0  0  0  3  0  0  0  0  0  0
  189.7420  178.2310  144.1570 C   0  0  1  0  0  3  0  0  0  0  0  0
  191.8140  177.2790  143.1100 C   0  0  0  0  0  2  0  0  0  0  0  0
  191.2420  178.4260  143.9380 C   0  0  0  0  0  2  0  0  0  0  0  0
  188.9990  178.1700  142.8160 C   0  0  0  0  0  2  0  0  0  0  0  0
  189.7300  177.4160  141.7300 C   0  0  0  0  0  0  0  0  0  0  0  0
  189.4730  176.9960  145.0070 C   0  0  0  0  0  2  0  0  0  0  0  0
  188.9470  177.3850  146.3580 C   0  0  0  0  0  0  0  0  0  0  0  0
  189.5980  177.1110  147.3500 O   0  0  0  0  0  0  0  0  0  0  0  0
  187.2270  178.0950  147.8550 O   0  0  0  0  0  1  0  0  0  0  0  0
  187.6300  178.0870  146.5160 C   0  0  2  0  0  3  0  0  0  0  0  0
  186.5710  177.4040  145.6580 C   0  0  0  0  0  2  0  0  0  0  0  0
  185.8190  178.4180  144.8070 C   0  0  2  0  0  3  0  0  0  0  0  0
  184.4760  178.7460  145.4400 C   0  0  0  0  0  1  0  0  0  0  0  0
  185.6030  177.8840  143.5360 O   0  0  0  0  0  0  0  0  0  0  0  0
  184.3610  178.3850  143.1420 C   0  0  0  0  0  2  0  0  0  0  0  0
  184.2420  178.3270  141.6220 C   0  0  2  0  0  3  0  0  0  0  0  0
  185.4680  178.9080  140.9310 C   0  0  0  0  0  1  0  0  0  0  0  0
  183.0250  178.8540  141.1310 O   0  0  0  0  0  0  0  0  0  0  0  0
  182.5680  178.0520  140.0720 C   0  0  0  0  0  1  0  0  0  0  0  0
  1 19  1  6  0  0  0
  1 29  1  0  0  0  0
  3  1  1  0  0  0  0
  5  4  2  0  0  0  0
  5  3  1  0  0  0  0
  6  2  1  6  0  0  0
  6  9  1  0  0  0  0
  7  3  2  0  0  0  0
  8  6  1  0  0  0  0
  8  5  1  0  0  0  0
  9 10  1  1  0  0  0
  9  7  1  0  0  0  0
 11 10  1  0  0  0  0
 12 11  2  0  0  0  0
 13 17  1  6  0  0  0
 13 15  1  0  0  0  0
 14 18  1  0  0  0  0
 15 18  1  0  0  0  0
 16 17  1  6  0  0  0
 16 13  1  0  0  0  0
 16 14  1  0  0  0  0
 18 11  1  6  0  0  0
 20 19  1  0  0  0  0
 21 20  1  0  0  0  0
 21 22  1  1  0  0  0
 23 24  1  1  0  0  0
 23 28  1  0  0  0  0
 23 21  1  0  0  0  0
 25 28  1  0  0  0  0
 26 28  1  0  0  0  0
 28 27  1  0  0  0  0
 29 35  1  0  0  0  0
 30 32  1  0  0  0  0
 31 36  1  6  0  0  0
 32 33  1  0  0  0  0
 33 31  1  0  0  0  0
 34 31  1  0  0  0  0
 35 30  2  0  0  0  0
 35 34  1  0  0  0  0
 36 37  1  0  0  0  0
 37 40  1  0  0  0  0
 37 38  2  0  0  0  0
 40 39  1  1  0  0  0
 41 40  1  0  0  0  0
 42 43  1  1  0  0  0
 42 41  1  0  0  0  0
 44 42  1  0  0  0  0
 45 44  1  0  0  0  0
 46 47  1  6  0  0  0
 46 45  1  0  0  0  0
 48 46  1  0  0  0  0
 49 48  1  0  0  0  0
M  END
>  <MODEL>
4

>  <REMARK>
 VINA RESULT:      -7.3      4.624      8.080
  Name = 
  19 active torsions:
  status: ('A' for Active; 'I' for Inactive)
    1  A    between atoms: C_1  and  C_9
    2  A    between atoms: C_1  and  C_23
    3  A    between atoms: C_4  and  C_25
    4  A    between atoms: C_4  and  C_45
    5  A    between atoms: C_5  and  C_25
    6  A    between atoms: C_5  and  C_40
    7  A    between atoms: C_8  and  C_11
    8  A    between atoms: C_9  and  C_40
    9  A    between atoms: C_11  and  C_16
   10  A    between atoms: C_12  and  C_25
   11  A    between atoms: C_16  and  C_41
   12  A    between atoms: C_22  and  C_29
   13  A    between atoms: C_22  and  O_31
   14  A    between atoms: C_26  and  O_46
   15  A    between atoms: C_26  and  C_48
   16  A    between atoms: N_28  and  C_49
   17  A    between atoms: C_29  and  O_46
   18  A    between atoms: C_37  and  C_43
   19  A    between atoms: C_41  and  C_48
                            x       y       z     vdW  Elec       q    Type
                         _______ _______ _______ _____ _____    ______ ____

>  <TORSDO>
F 19

$$$$
=
 OpenBabel11062414003D

 49 52  0  0  1  0  0  0  0  0999 V2000
  190.4060  176.3150  138.0050 C   0  0  1  0  0  3  0  0  0  0  0  0
  193.3250  172.2790  134.9810 C   0  0  0  0  0  1  0  0  0  0  0  0
  191.1160  175.3300  137.1220 C   0  0  0  0  0  0  0  0  0  0  0  0
  189.3870  173.7150  137.3700 O   0  0  0  0  0  0  0  0  0  0  0  0
  190.5000  174.0110  136.8620 C   0  0  0  0  0  0  0  0  0  0  0  0
  192.6930  173.2160  135.9970 C   0  0  2  0  0  3  0  0  0  0  0  0
  192.3180  175.6200  136.6010 C   0  0  0  0  0  3  0  0  0  0  0  0
  191.1760  173.0200  135.9700 C   0  0  0  0  0  2  0  0  0  0  0  0
  193.0390  174.6800  135.6790 C   0  0  1  0  0  3  0  0  0  0  0  0
  194.4720  174.9040  135.7960 N   0  0  0  0  0  2  0  0  0  0  0  0
  195.1860  174.6320  137.0040 C   0  0  0  0  0  0  0  0  0  0  0  0
  194.5980  174.1140  137.9900 O   0  0  0  0  0  0  0  0  0  0  0  0
  198.6150  174.2860  136.2600 C   0  0  1  0  0  3  0  0  0  0  0  0
  197.2770  174.1570  138.2170 C   0  0  0  0  0  2  0  0  0  0  0  0
  197.2890  174.6030  135.9060 O   0  0  0  0  0  0  0  0  0  0  0  0
  198.6730  173.9140  137.7290 C   0  0  1  0  0  3  0  0  0  0  0  0
  198.7030  172.8270  136.6680 C   0  0  0  0  0  2  0  0  0  0  0  0
  196.6390  174.9470  137.1000 C   0  0  1  0  0  3  0  0  0  0  0  0
  191.1470  176.6250  139.3160 C   0  0  0  0  0  2  0  0  0  0  0  0
  190.2400  176.6620  140.5460 C   0  0  0  0  0  2  0  0  0  0  0  0
  190.7440  177.6790  141.5620 C   0  0  2  0  0  3  0  0  0  0  0  0
  192.1110  177.5120  141.7650 O   0  0  0  0  0  1  0  0  0  0  0  0
  189.9870  177.6570  142.8970 C   0  0  1  0  0  3  0  0  0  0  0  0
  189.4760  176.2590  143.2130 C   0  0  0  0  0  1  0  0  0  0  0  0
  191.6330  177.3420  144.6250 F   0  0  0  0  0  0  0  0  0  0  0  0
  191.4620  179.3810  143.6830 F   0  0  0  0  0  0  0  0  0  0  0  0
  189.8520  178.6480  145.0630 F   0  0  0  0  0  0  0  0  0  0  0  0
  190.7530  178.2630  144.0840 C   0  0  0  0  0  0  0  0  0  0  0  0
  189.9300  177.5480  137.2360 C   0  0  0  0  0  2  0  0  0  0  0  0
  188.1750  177.7540  135.5290 C   0  0  0  0  0  3  0  0  0  0  0  0
  186.0610  176.8210  137.2590 C   0  0  1  0  0  3  0  0  0  0  0  0
  186.7700  177.6590  135.0030 C   0  0  0  0  0  2  0  0  0  0  0  0
  185.9650  176.6000  135.7500 C   0  0  0  0  0  2  0  0  0  0  0  0
  187.5210  176.7550  137.7270 C   0  0  0  0  0  2  0  0  0  0  0  0
  188.5100  177.3960  136.7830 C   0  0  0  0  0  0  0  0  0  0  0  0
  185.4010  178.1340  137.6590 C   0  0  0  0  0  2  0  0  0  0  0  0
  184.2690  177.8900  138.6140 C   0  0  0  0  0  0  0  0  0  0  0  0
  183.6530  176.8410  138.5510 O   0  0  0  0  0  0  0  0  0  0  0  0
  184.5020  180.1380  139.3900 O   0  0  0  0  0  1  0  0  0  0  0  0
  183.8660  178.9160  139.6340 C   0  0  2  0  0  3  0  0  0  0  0  0
  184.2100  178.4210  141.0340 C   0  0  0  0  0  2  0  0  0  0  0  0
  185.3430  179.2390  141.6400 C   0  0  2  0  0  3  0  0  0  0  0  0
  186.5940  178.3870  141.7770 C   0  0  0  0  0  1  0  0  0  0  0  0
  184.9600  179.6890  142.9040 O   0  0  0  0  0  0  0  0  0  0  0  0
  185.4360  178.7200  143.7900 C   0  0  0  0  0  2  0  0  0  0  0  0
  184.5280  178.6510  145.0140 C   0  0  2  0  0  3  0  0  0  0  0  0
  183.0870  179.0110  144.6760 C   0  0  0  0  0  1  0  0  0  0  0  0
  185.0300  179.3590  146.1300 O   0  0  0  0  0  0  0  0  0  0  0  0
  185.9770  178.5620  146.7940 C   0  0  0  0  0  1  0  0  0  0  0  0
  1 29  1  6  0  0  0
  1 19  1  0  0  0  0
  3  1  1  0  0  0  0
  5  3  1  0  0  0  0
  5  4  2  0  0  0  0
  6  2  1  6  0  0  0
  7  3  2  0  0  0  0
  8  6  1  0  0  0  0
  8  5  1  0  0  0  0
  9 10  1  1  0  0  0
  9  6  1  0  0  0  0
  9  7  1  0  0  0  0
 10 11  1  0  0  0  0
 11 12  2  0  0  0  0
 13 17  1  6  0  0  0
 13 16  1  0  0  0  0
 15 13  1  0  0  0  0
 15 18  1  0  0  0  0
 16 17  1  6  0  0  0
 16 14  1  0  0  0  0
 18 11  1  6  0  0  0
 18 14  1  0  0  0  0
 19 20  1  0  0  0  0
 20 21  1  0  0  0  0
 21 22  1  1  0  0  0
 21 23  1  0  0  0  0
 23 24  1  1  0  0  0
 23 28  1  0  0  0  0
 26 28  1  0  0  0  0
 28 25  1  0  0  0  0
 28 27  1  0  0  0  0
 30 35  2  0  0  0  0
 31 36  1  6  0  0  0
 31 34  1  0  0  0  0
 32 30  1  0  0  0  0
 32 33  1  0  0  0  0
 33 31  1  0  0  0  0
 35 29  1  0  0  0  0
 35 34  1  0  0  0  0
 36 37  1  0  0  0  0
 37 40  1  0  0  0  0
 38 37  2  0  0  0  0
 40 39  1  6  0  0  0
 40 41  1  0  0  0  0
 41 42  1  0  0  0  0
 42 43  1  1  0  0  0
 42 44  1  0  0  0  0
 44 45  1  0  0  0  0
 45 46  1  0  0  0  0
 46 47  1  6  0  0  0
 46 48  1  0  0  0  0
 48 49  1  0  0  0  0
M  END
>  <MODEL>
5

>  <REMARK>
 VINA RESULT:      -7.2      5.521      9.347
  Name = 
  19 active torsions:
  status: ('A' for Active; 'I' for Inactive)
    1  A    between atoms: C_1  and  C_9
    2  A    between atoms: C_1  and  C_23
    3  A    between atoms: C_4  and  C_25
    4  A    between atoms: C_4  and  C_45
    5  A    between atoms: C_5  and  C_25
    6  A    between atoms: C_5  and  C_40
    7  A    between atoms: C_8  and  C_11
    8  A    between atoms: C_9  and  C_40
    9  A    between atoms: C_11  and  C_16
   10  A    between atoms: C_12  and  C_25
   11  A    between atoms: C_16  and  C_41
   12  A    between atoms: C_22  and  C_29
   13  A    between atoms: C_22  and  O_31
   14  A    between atoms: C_26  and  O_46
   15  A    between atoms: C_26  and  C_48
   16  A    between atoms: N_28  and  C_49
   17  A    between atoms: C_29  and  O_46
   18  A    between atoms: C_37  and  C_43
   19  A    between atoms: C_41  and  C_48
                            x       y       z     vdW  Elec       q    Type
                         _______ _______ _______ _____ _____    ______ ____

>  <TORSDO>
F 19

$$$$
=
 OpenBabel11062414003D

 49 52  0  0  1  0  0  0  0  0999 V2000
  188.1070  178.0640  140.0570 C   0  0  1  0  0  3  0  0  0  0  0  0
  189.4150  176.3020  134.6600 C   0  0  0  0  0  1  0  0  0  0  0  0
  188.5570  177.5790  138.7100 C   0  0  0  0  0  0  0  0  0  0  0  0
  189.0560  179.7870  137.9760 O   0  0  0  0  0  0  0  0  0  0  0  0
  189.0270  178.5580  137.7050 C   0  0  0  0  0  0  0  0  0  0  0  0
  188.8100  176.7940  135.9640 C   0  0  2  0  0  3  0  0  0  0  0  0
  188.5010  176.2760  138.3970 C   0  0  0  0  0  3  0  0  0  0  0  0
  189.5000  178.1000  136.3630 C   0  0  0  0  0  2  0  0  0  0  0  0
  188.9820  175.7480  137.0760 C   0  0  1  0  0  3  0  0  0  0  0  0
  188.2490  174.5330  136.7540 N   0  0  0  0  0  2  0  0  0  0  0  0
  186.8220  174.4740  136.7990 C   0  0  0  0  0  0  0  0  0  0  0  0
  186.1480  175.5080  137.0490 O   0  0  0  0  0  0  0  0  0  0  0  0
  184.3240  172.3860  135.4430 C   0  0  1  0  0  3  0  0  0  0  0  0
  185.1160  172.8990  137.6220 C   0  0  0  0  0  2  0  0  0  0  0  0
  185.4220  173.2600  135.3170 O   0  0  0  0  0  0  0  0  0  0  0  0
  184.0190  172.1630  136.9120 C   0  0  1  0  0  3  0  0  0  0  0  0
  183.1620  173.1130  136.0940 C   0  0  0  0  0  2  0  0  0  0  0  0
  186.1180  173.1880  136.5310 C   0  0  1  0  0  3  0  0  0  0  0  0
  186.7070  178.6990  140.0570 C   0  0  0  0  0  2  0  0  0  0  0  0
  185.9430  178.5130  138.7460 C   0  0  0  0  0  2  0  0  0  0  0  0
  184.4490  178.7310  138.9520 C   0  0  2  0  0  3  0  0  0  0  0  0
  184.1830  180.0900  139.0970 O   0  0  0  0  0  1  0  0  0  0  0  0
  183.8560  177.9310  140.1200 C   0  0  1  0  0  3  0  0  0  0  0  0
  183.7810  178.7780  141.3820 C   0  0  0  0  0  1  0  0  0  0  0  0
  181.5510  177.6170  140.7380 F   0  0  0  0  0  0  0  0  0  0  0  0
  182.0750  177.5780  138.5480 F   0  0  0  0  0  0  0  0  0  0  0  0
  182.6790  175.8710  139.8730 F   0  0  0  0  0  0  0  0  0  0  0  0
  182.5140  177.2450  139.8170 C   0  0  0  0  0  0  0  0  0  0  0  0
  188.3340  177.0240  141.1550 C   0  0  0  0  0  2  0  0  0  0  0  0
  190.7490  177.4660  141.2560 C   0  0  0  0  0  3  0  0  0  0  0  0
  190.8430  177.5640  144.1400 C   0  0  1  0  0  3  0  0  0  0  0  0
  192.0580  177.7210  141.9490 C   0  0  0  0  0  2  0  0  0  0  0  0
  191.8490  178.3680  143.3160 C   0  0  0  0  0  2  0  0  0  0  0  0
  189.4910  177.4810  143.4190 C   0  0  0  0  0  2  0  0  0  0  0  0
  189.5900  177.3020  141.9220 C   0  0  0  0  0  0  0  0  0  0  0  0
  191.3920  176.1810  144.4680 C   0  0  0  0  0  2  0  0  0  0  0  0
  191.6960  176.0650  145.9330 C   0  0  0  0  0  0  0  0  0  0  0  0
  192.4260  175.1700  146.3190 O   0  0  0  0  0  0  0  0  0  0  0  0
  191.9310  177.1260  148.0600 O   0  0  0  0  0  1  0  0  0  0  0  0
  191.1070  177.0140  146.9360 C   0  0  2  0  0  3  0  0  0  0  0  0
  189.7200  176.5360  147.3520 C   0  0  0  0  0  2  0  0  0  0  0  0
  188.7110  177.6750  147.3010 C   0  0  2  0  0  3  0  0  0  0  0  0
  188.7400  178.4650  148.5990 C   0  0  0  0  0  1  0  0  0  0  0  0
  187.4320  177.1490  147.1180 O   0  0  0  0  0  0  0  0  0  0  0  0
  187.0920  177.4780  145.8050 C   0  0  0  0  0  2  0  0  0  0  0  0
  185.9850  178.5280  145.8080 C   0  0  2  0  0  3  0  0  0  0  0  0
  184.9740  178.2890  146.9220 C   0  0  0  0  0  1  0  0  0  0  0  0
  185.3820  178.7160  144.5430 O   0  0  0  0  0  0  0  0  0  0  0  0
  184.4250  179.7410  144.6360 C   0  0  0  0  0  1  0  0  0  0  0  0
  1 19  1  6  0  0  0
  1 29  1  0  0  0  0
  3  1  1  0  0  0  0
  5  4  2  0  0  0  0
  5  3  1  0  0  0  0
  6  2  1  6  0  0  0
  6  8  1  0  0  0  0
  6  9  1  0  0  0  0
  7  3  2  0  0  0  0
  8  5  1  0  0  0  0
  9 10  1  6  0  0  0
  9  7  1  0  0  0  0
 10 11  1  0  0  0  0
 11 12  2  0  0  0  0
 13 17  1  6  0  0  0
 13 16  1  0  0  0  0
 15 13  1  0  0  0  0
 15 18  1  0  0  0  0
 16 17  1  1  0  0  0
 16 14  1  0  0  0  0
 18 11  1  1  0  0  0
 18 14  1  0  0  0  0
 20 21  1  0  0  0  0
 20 19  1  0  0  0  0
 21 22  1  1  0  0  0
 21 23  1  0  0  0  0
 23 24  1  1  0  0  0
 26 28  1  0  0  0  0
 28 27  1  0  0  0  0
 28 23  1  0  0  0  0
 28 25  1  0  0  0  0
 29 35  1  0  0  0  0
 30 35  2  0  0  0  0
 30 32  1  0  0  0  0
 31 36  1  6  0  0  0
 32 33  1  0  0  0  0
 33 31  1  0  0  0  0
 34 31  1  0  0  0  0
 35 34  1  0  0  0  0
 36 37  1  0  0  0  0
 37 38  2  0  0  0  0
 37 40  1  0  0  0  0
 40 41  1  0  0  0  0
 40 39  1  1  0  0  0
 42 41  1  0  0  0  0
 42 43  1  1  0  0  0
 44 42  1  0  0  0  0
 45 46  1  0  0  0  0
 45 44  1  0  0  0  0
 46 47  1  1  0  0  0
 48 49  1  0  0  0  0
 48 46  1  0  0  0  0
M  END
>  <MODEL>
6

>  <REMARK>
 VINA RESULT:      -7.1      3.452      6.450
  Name = 
  19 active torsions:
  status: ('A' for Active; 'I' for Inactive)
    1  A    between atoms: C_1  and  C_9
    2  A    between atoms: C_1  and  C_23
    3  A    between atoms: C_4  and  C_25
    4  A    between atoms: C_4  and  C_45
    5  A    between atoms: C_5  and  C_25
    6  A    between atoms: C_5  and  C_40
    7  A    between atoms: C_8  and  C_11
    8  A    between atoms: C_9  and  C_40
    9  A    between atoms: C_11  and  C_16
   10  A    between atoms: C_12  and  C_25
   11  A    between atoms: C_16  and  C_41
   12  A    between atoms: C_22  and  C_29
   13  A    between atoms: C_22  and  O_31
   14  A    between atoms: C_26  and  O_46
   15  A    between atoms: C_26  and  C_48
   16  A    between atoms: N_28  and  C_49
   17  A    between atoms: C_29  and  O_46
   18  A    between atoms: C_37  and  C_43
   19  A    between atoms: C_41  and  C_48
                            x       y       z     vdW  Elec       q    Type
                         _______ _______ _______ _____ _____    ______ ____

>  <TORSDO>
F 19

$$$$
=
 OpenBabel11062414003D

 49 52  0  0  1  0  0  0  0  0999 V2000
  184.7350  178.3130  140.1440 C   0  0  1  0  0  3  0  0  0  0  0  0
  179.1450  178.2840  138.5020 C   0  0  0  0  0  1  0  0  0  0  0  0
  183.2660  178.3420  139.8370 C   0  0  0  0  0  0  0  0  0  0  0  0
  183.0550  175.9940  140.1570 O   0  0  0  0  0  0  0  0  0  0  0  0
  182.4920  177.0820  139.8690 C   0  0  0  0  0  0  0  0  0  0  0  0
  180.6560  178.2420  138.6540 C   0  0  2  0  0  3  0  0  0  0  0  0
  182.6600  179.4890  139.4980 C   0  0  0  0  0  3  0  0  0  0  0  0
  181.0240  177.0870  139.5880 C   0  0  0  0  0  2  0  0  0  0  0  0
  181.1860  179.5670  139.2260 C   0  0  1  0  0  3  0  0  0  0  0  0
  180.9290  180.6620  138.3020 N   0  0  0  0  0  2  0  0  0  0  0  0
  179.9620  181.6770  138.5800 C   0  0  0  0  0  0  0  0  0  0  0  0
  179.3510  181.6920  139.6810 O   0  0  0  0  0  0  0  0  0  0  0  0
  180.7590  184.1770  136.2240 C   0  0  1  0  0  3  0  0  0  0  0  0
  179.5200  184.0770  138.2460 C   0  0  0  0  0  2  0  0  0  0  0  0
  180.7480  182.8400  136.6670 O   0  0  0  0  0  0  0  0  0  0  0  0
  180.0440  185.0520  137.2350 C   0  0  1  0  0  3  0  0  0  0  0  0
  181.5620  185.0310  137.1880 C   0  0  0  0  0  2  0  0  0  0  0  0
  179.6820  182.7370  137.5710 C   0  0  1  0  0  3  0  0  0  0  0  0
  185.6290  178.1580  138.9040 C   0  0  0  0  0  2  0  0  0  0  0  0
  184.9110  177.5620  137.6930 C   0  0  0  0  0  2  0  0  0  0  0  0
  185.9120  177.0600  136.6590 C   0  0  2  0  0  3  0  0  0  0  0  0
  185.4800  175.8490  136.1280 O   0  0  0  0  0  1  0  0  0  0  0  0
  187.3490  176.9440  137.1860 C   0  0  1  0  0  3  0  0  0  0  0  0
  187.8540  175.5120  137.0850 C   0  0  0  0  0  1  0  0  0  0  0  0
  188.3100  179.1500  137.2490 F   0  0  0  0  0  0  0  0  0  0  0  0
  189.6300  177.4360  136.6210 F   0  0  0  0  0  0  0  0  0  0  0  0
  188.0130  178.1630  135.2470 F   0  0  0  0  0  0  0  0  0  0  0  0
  188.3440  177.9430  136.5730 C   0  0  0  0  0  0  0  0  0  0  0  0
  185.1540  179.4350  141.0940 C   0  0  0  0  0  2  0  0  0  0  0  0
  184.0360  179.6180  143.2740 C   0  0  0  0  0  3  0  0  0  0  0  0
  185.7520  177.6930  144.5730 C   0  0  1  0  0  3  0  0  0  0  0  0
  183.8210  179.2900  144.7260 C   0  0  0  0  0  2  0  0  0  0  0  0
  184.3150  177.8850  145.0590 C   0  0  0  0  0  2  0  0  0  0  0  0
  185.8460  177.9040  143.0560 C   0  0  0  0  0  2  0  0  0  0  0  0
  184.9900  179.0310  142.5270 C   0  0  0  0  0  0  0  0  0  0  0  0
  186.7070  178.6070  145.3290 C   0  0  0  0  0  2  0  0  0  0  0  0
  187.6250  177.8070  146.2060 C   0  0  0  0  0  0  0  0  0  0  0  0
  187.3890  177.7270  147.3980 O   0  0  0  0  0  0  0  0  0  0  0  0
  189.8570  177.0550  146.6080 O   0  0  0  0  0  1  0  0  0  0  0  0
  188.8390  177.1180  145.6520 C   0  0  2  0  0  3  0  0  0  0  0  0
  189.3340  177.8550  144.4120 C   0  0  0  0  0  2  0  0  0  0  0  0
  190.6420  177.2610  143.9090 C   0  0  2  0  0  3  0  0  0  0  0  0
  191.6800  178.3550  143.7190 C   0  0  0  0  0  1  0  0  0  0  0  0
  190.4210  176.6290  142.6850 O   0  0  0  0  0  0  0  0  0  0  0  0
  191.0670  177.4320  141.7430 C   0  0  0  0  0  2  0  0  0  0  0  0
  190.2210  177.5200  140.4770 C   0  0  2  0  0  3  0  0  0  0  0  0
  188.7300  177.5470  140.7850 C   0  0  0  0  0  1  0  0  0  0  0  0
  190.5680  176.5600  139.4980 O   0  0  0  0  0  0  0  0  0  0  0  0
  191.9030  176.7620  139.1060 C   0  0  0  0  0  1  0  0  0  0  0  0
  1 19  1  6  0  0  0
  1 29  1  0  0  0  0
  3  5  1  0  0  0  0
  3  1  1  0  0  0  0
  5  4  2  0  0  0  0
  6  2  1  1  0  0  0
  6  9  1  0  0  0  0
  6  8  1  0  0  0  0
  7  3  2  0  0  0  0
  8  5  1  0  0  0  0
  9 10  1  6  0  0  0
  9  7  1  0  0  0  0
 10 11  1  0  0  0  0
 11 12  2  0  0  0  0
 13 15  1  0  0  0  0
 13 17  1  1  0  0  0
 13 16  1  0  0  0  0
 15 18  1  0  0  0  0
 16 17  1  1  0  0  0
 16 14  1  0  0  0  0
 18 14  1  0  0  0  0
 18 11  1  1  0  0  0
 20 19  1  0  0  0  0
 21 22  1  1  0  0  0
 21 23  1  0  0  0  0
 21 20  1  0  0  0  0
 23 24  1  6  0  0  0
 27 28  1  0  0  0  0
 28 26  1  0  0  0  0
 28 23  1  0  0  0  0
 28 25  1  0  0  0  0
 29 35  1  0  0  0  0
 30 32  1  0  0  0  0
 31 33  1  0  0  0  0
 31 36  1  1  0  0  0
 32 33  1  0  0  0  0
 34 31  1  0  0  0  0
 35 34  1  0  0  0  0
 35 30  2  0  0  0  0
 36 37  1  0  0  0  0
 37 38  2  0  0  0  0
 40 37  1  0  0  0  0
 40 39  1  1  0  0  0
 41 40  1  0  0  0  0
 42 43  1  6  0  0  0
 42 41  1  0  0  0  0
 44 42  1  0  0  0  0
 45 44  1  0  0  0  0
 46 47  1  1  0  0  0
 46 45  1  0  0  0  0
 48 46  1  0  0  0  0
 49 48  1  0  0  0  0
M  END
>  <MODEL>
7

>  <REMARK>
 VINA RESULT:      -7.1      3.014      6.773
  Name = 
  19 active torsions:
  status: ('A' for Active; 'I' for Inactive)
    1  A    between atoms: C_1  and  C_9
    2  A    between atoms: C_1  and  C_23
    3  A    between atoms: C_4  and  C_25
    4  A    between atoms: C_4  and  C_45
    5  A    between atoms: C_5  and  C_25
    6  A    between atoms: C_5  and  C_40
    7  A    between atoms: C_8  and  C_11
    8  A    between atoms: C_9  and  C_40
    9  A    between atoms: C_11  and  C_16
   10  A    between atoms: C_12  and  C_25
   11  A    between atoms: C_16  and  C_41
   12  A    between atoms: C_22  and  C_29
   13  A    between atoms: C_22  and  O_31
   14  A    between atoms: C_26  and  O_46
   15  A    between atoms: C_26  and  C_48
   16  A    between atoms: N_28  and  C_49
   17  A    between atoms: C_29  and  O_46
   18  A    between atoms: C_37  and  C_43
   19  A    between atoms: C_41  and  C_48
                            x       y       z     vdW  Elec       q    Type
                         _______ _______ _______ _____ _____    ______ ____

>  <TORSDO>
F 19

$$$$
=
 OpenBabel11062414003D

 49 52  0  0  1  0  0  0  0  0999 V2000
  184.4340  178.9550  139.0930 C   0  0  1  0  0  3  0  0  0  0  0  0
  178.9820  179.0980  137.0450 C   0  0  0  0  0  1  0  0  0  0  0  0
  183.0780  178.9920  138.4500 C   0  0  0  0  0  0  0  0  0  0  0  0
  182.8930  181.3450  138.7550 O   0  0  0  0  0  0  0  0  0  0  0  0
  182.3670  180.2830  138.3300 C   0  0  0  0  0  0  0  0  0  0  0  0
  180.2790  179.0250  137.8330 C   0  0  2  0  0  3  0  0  0  0  0  0
  182.4930  177.8640  138.0220 C   0  0  0  0  0  3  0  0  0  0  0  0
  181.0250  180.3510  137.6750 C   0  0  0  0  0  2  0  0  0  0  0  0
  181.1570  177.8660  137.3350 C   0  0  1  0  0  3  0  0  0  0  0  0
  180.5000  176.5890  137.5690 N   0  0  0  0  0  2  0  0  0  0  0  0
  180.6860  175.4710  136.6990 C   0  0  0  0  0  0  0  0  0  0  0  0
  181.4930  175.5400  135.7340 O   0  0  0  0  0  0  0  0  0  0  0  0
  180.2740  172.0900  137.6130 C   0  0  1  0  0  3  0  0  0  0  0  0
  179.8600  173.3900  135.6700 C   0  0  0  0  0  2  0  0  0  0  0  0
  180.5880  173.4310  137.9070 O   0  0  0  0  0  0  0  0  0  0  0  0
  179.8640  171.9730  136.1570 C   0  0  1  0  0  3  0  0  0  0  0  0
  181.2550  171.5450  136.5910 C   0  0  0  0  0  2  0  0  0  0  0  0
  179.9360  174.2060  136.9380 C   0  0  1  0  0  3  0  0  0  0  0  0
  184.4320  179.3500  140.5790 C   0  0  0  0  0  2  0  0  0  0  0  0
  185.0250  178.2880  141.5040 C   0  0  0  0  0  2  0  0  0  0  0  0
  184.2690  178.2350  142.8250 C   0  0  2  0  0  3  0  0  0  0  0  0
  182.9270  178.5400  142.6180 O   0  0  0  0  0  1  0  0  0  0  0  0
  184.8680  179.1240  143.9240 C   0  0  1  0  0  3  0  0  0  0  0  0
  183.8980  180.2260  144.3250 C   0  0  0  0  0  1  0  0  0  0  0  0
  186.4350  179.0630  145.7510 F   0  0  0  0  0  0  0  0  0  0  0  0
  184.3940  178.1670  146.0750 F   0  0  0  0  0  0  0  0  0  0  0  0
  185.8740  177.1250  144.7500 F   0  0  0  0  0  0  0  0  0  0  0  0
  185.4020  178.3640  145.1500 C   0  0  0  0  0  0  0  0  0  0  0  0
  185.1920  177.6640  138.7790 C   0  0  0  0  0  2  0  0  0  0  0  0
  186.8780  177.9000  137.0080 C   0  0  0  0  0  3  0  0  0  0  0  0
  189.0500  178.4420  138.8300 C   0  0  1  0  0  3  0  0  0  0  0  0
  188.2590  178.1440  136.4670 C   0  0  0  0  0  2  0  0  0  0  0  0
  189.0830  179.0130  137.4130 C   0  0  0  0  0  2  0  0  0  0  0  0
  187.6100  178.3680  139.3540 C   0  0  0  0  0  2  0  0  0  0  0  0
  186.5900  177.9460  138.3220 C   0  0  0  0  0  0  0  0  0  0  0  0
  189.7400  177.0850  138.8850 C   0  0  0  0  0  2  0  0  0  0  0  0
  190.8920  177.1140  139.8470 C   0  0  0  0  0  0  0  0  0  0  0  0
  192.0130  176.8680  139.4400 O   0  0  0  0  0  0  0  0  0  0  0  0
  191.8800  177.8720  141.8850 O   0  0  0  0  0  1  0  0  0  0  0  0
  190.6920  177.4200  141.3030 C   0  0  2  0  0  3  0  0  0  0  0  0
  190.1950  176.1760  142.0320 C   0  0  0  0  0  2  0  0  0  0  0  0
  189.2410  176.5480  143.1590 C   0  0  2  0  0  3  0  0  0  0  0  0
  188.4530  177.7950  142.7940 C   0  0  0  0  0  1  0  0  0  0  0  0
  189.9730  176.7970  144.3200 O   0  0  0  0  0  0  0  0  0  0  0  0
  189.1690  177.6550  145.0740 C   0  0  0  0  0  2  0  0  0  0  0  0
  189.5340  177.5350  146.5510 C   0  0  2  0  0  3  0  0  0  0  0  0
  190.8180  176.7430  146.7600 C   0  0  0  0  0  1  0  0  0  0  0  0
  188.4660  177.0850  147.3610 O   0  0  0  0  0  0  0  0  0  0  0  0
  188.3160  177.9570  148.4520 C   0  0  0  0  0  1  0  0  0  0  0  0
  1 29  1  1  0  0  0
  1 19  1  0  0  0  0
  3  1  1  0  0  0  0
  5  3  1  0  0  0  0
  5  4  2  0  0  0  0
  6  2  1  6  0  0  0
  7  3  2  0  0  0  0
  8  6  1  0  0  0  0
  8  5  1  0  0  0  0
  9 10  1  1  0  0  0
  9  6  1  0  0  0  0
  9  7  1  0  0  0  0
 11 10  1  0  0  0  0
 12 11  2  0  0  0  0
 13 17  1  6  0  0  0
 13 15  1  0  0  0  0
 14 18  1  0  0  0  0
 16 14  1  6  0  0  0
 16 17  1  0  0  0  0
 16 13  1  0  0  0  0
 18 11  1  6  0  0  0
 18 15  1  0  0  0  0
 19 20  1  0  0  0  0
 20 21  1  0  0  0  0
 21 22  1  6  0  0  0
 21 23  1  0  0  0  0
 23 24  1  1  0  0  0
 23 28  1  0  0  0  0
 27 28  1  0  0  0  0
 28 25  1  0  0  0  0
 28 26  1  0  0  0  0
 30 35  2  0  0  0  0
 31 36  1  6  0  0  0
 31 34  1  0  0  0  0
 32 30  1  0  0  0  0
 32 33  1  0  0  0  0
 33 31  1  0  0  0  0
 35 29  1  0  0  0  0
 35 34  1  0  0  0  0
 36 37  1  0  0  0  0
 37 40  1  0  0  0  0
 38 37  2  0  0  0  0
 40 39  1  1  0  0  0
 40 41  1  0  0  0  0
 41 42  1  0  0  0  0
 42 43  1  6  0  0  0
 42 44  1  0  0  0  0
 44 45  1  0  0  0  0
 45 46  1  0  0  0  0
 46 47  1  6  0  0  0
 46 48  1  0  0  0  0
 48 49  1  0  0  0  0
M  END
>  <MODEL>
8

>  <REMARK>
 VINA RESULT:      -7.1      3.713      6.371
  Name = 
  19 active torsions:
  status: ('A' for Active; 'I' for Inactive)
    1  A    between atoms: C_1  and  C_9
    2  A    between atoms: C_1  and  C_23
    3  A    between atoms: C_4  and  C_25
    4  A    between atoms: C_4  and  C_45
    5  A    between atoms: C_5  and  C_25
    6  A    between atoms: C_5  and  C_40
    7  A    between atoms: C_8  and  C_11
    8  A    between atoms: C_9  and  C_40
    9  A    between atoms: C_11  and  C_16
   10  A    between atoms: C_12  and  C_25
   11  A    between atoms: C_16  and  C_41
   12  A    between atoms: C_22  and  C_29
   13  A    between atoms: C_22  and  O_31
   14  A    between atoms: C_26  and  O_46
   15  A    between atoms: C_26  and  C_48
   16  A    between atoms: N_28  and  C_49
   17  A    between atoms: C_29  and  O_46
   18  A    between atoms: C_37  and  C_43
   19  A    between atoms: C_41  and  C_48
                            x       y       z     vdW  Elec       q    Type
                         _______ _______ _______ _____ _____    ______ ____

>  <TORSDO>
F 19

$$$$
=
 OpenBabel11062414003D

 49 52  0  0  1  0  0  0  0  0999 V2000
  184.2690  177.2610  137.0480 C   0  0  1  0  0  3  0  0  0  0  0  0
  189.7930  175.5440  136.3500 C   0  0  0  0  0  1  0  0  0  0  0  0
  185.7180  176.9350  136.8290 C   0  0  0  0  0  0  0  0  0  0  0  0
  185.2750  175.9490  134.7090 O   0  0  0  0  0  0  0  0  0  0  0  0
  186.1290  176.2510  135.5840 C   0  0  0  0  0  0  0  0  0  0  0  0
  188.3160  175.7350  136.6510 C   0  0  2  0  0  3  0  0  0  0  0  0
  186.6330  177.2220  137.7660 C   0  0  0  0  0  3  0  0  0  0  0  0
  187.5670  175.9330  135.3320 C   0  0  0  0  0  2  0  0  0  0  0  0
  188.0960  176.9500  137.5660 C   0  0  1  0  0  3  0  0  0  0  0  0
  188.7220  176.7340  138.8630 N   0  0  0  0  0  2  0  0  0  0  0  0
  189.1850  177.8180  139.6710 C   0  0  0  0  0  0  0  0  0  0  0  0
  188.9940  179.0090  139.3110 O   0  0  0  0  0  0  0  0  0  0  0  0
  189.9110  176.0470  142.6330 C   0  0  1  0  0  3  0  0  0  0  0  0
  189.1830  178.2430  142.0970 C   0  0  0  0  0  2  0  0  0  0  0  0
  189.8790  176.1690  141.2300 O   0  0  0  0  0  0  0  0  0  0  0  0
  189.4030  177.3290  143.2650 C   0  0  1  0  0  3  0  0  0  0  0  0
  188.5000  176.1100  143.1860 C   0  0  0  0  0  2  0  0  0  0  0  0
  189.8840  177.5440  140.9580 C   0  0  1  0  0  3  0  0  0  0  0  0
  183.4300  176.0740  137.5460 C   0  0  0  0  0  2  0  0  0  0  0  0
  184.2280  174.7820  137.7240 C   0  0  0  0  0  2  0  0  0  0  0  0
  183.6470  173.6620  136.8700 C   0  0  2  0  0  3  0  0  0  0  0  0
  182.2940  173.5010  137.1530 O   0  0  0  0  0  1  0  0  0  0  0  0
  184.3940  172.3280  136.9960 C   0  0  1  0  0  3  0  0  0  0  0  0
  183.4730  171.1540  136.6910 C   0  0  0  0  0  1  0  0  0  0  0  0
  185.6500  173.0490  135.0730 F   0  0  0  0  0  0  0  0  0  0  0  0
  186.7750  172.6340  136.9790 F   0  0  0  0  0  0  0  0  0  0  0  0
  185.9140  170.9330  135.7980 F   0  0  0  0  0  0  0  0  0  0  0  0
  185.7050  172.2430  136.1970 C   0  0  0  0  0  0  0  0  0  0  0  0
  184.0770  178.5540  137.8410 C   0  0  0  0  0  2  0  0  0  0  0  0
  181.7870  178.6510  138.7260 C   0  0  0  0  0  3  0  0  0  0  0  0
  182.5370  177.8360  141.3920 C   0  0  1  0  0  3  0  0  0  0  0  0
  180.7320  178.5240  139.7890 C   0  0  0  0  0  2  0  0  0  0  0  0
  181.1400  177.5170  140.8610 C   0  0  0  0  0  2  0  0  0  0  0  0
  183.5710  177.7980  140.2590 C   0  0  0  0  0  2  0  0  0  0  0  0
  183.0860  178.3750  138.9500 C   0  0  0  0  0  0  0  0  0  0  0  0
  182.5490  179.1730  142.1200 C   0  0  0  0  0  2  0  0  0  0  0  0
  183.0320  179.0050  143.5320 C   0  0  0  0  0  0  0  0  0  0  0  0
  182.2330  178.7060  144.4020 O   0  0  0  0  0  0  0  0  0  0  0  0
  185.1810  179.7820  142.8360 O   0  0  0  0  0  1  0  0  0  0  0  0
  184.4720  179.2140  143.9000 C   0  0  2  0  0  3  0  0  0  0  0  0
  185.1060  177.8850  144.2960 C   0  0  0  0  0  2  0  0  0  0  0  0
  185.5230  177.8930  145.7600 C   0  0  2  0  0  3  0  0  0  0  0  0
  185.6860  179.3210  146.2550 C   0  0  0  0  0  1  0  0  0  0  0  0
  186.7400  177.2240  145.8970 O   0  0  0  0  0  0  0  0  0  0  0  0
  187.5600  178.1080  146.6000 C   0  0  0  0  0  2  0  0  0  0  0  0
  188.6620  177.3320  147.3120 C   0  0  2  0  0  3  0  0  0  0  0  0
  188.9750  177.9130  148.6850 C   0  0  0  0  0  1  0  0  0  0  0  0
  189.8160  177.1330  146.5190 O   0  0  0  0  0  0  0  0  0  0  0  0
  190.8850  176.7500  147.3470 C   0  0  0  0  0  1  0  0  0  0  0  0
  1 19  1  1  0  0  0
  1 29  1  0  0  0  0
  3  1  1  0  0  0  0
  3  7  2  0  0  0  0
  4  5  2  0  0  0  0
  5  3  1  0  0  0  0
  6  2  1  6  0  0  0
  6  9  1  0  0  0  0
  8  5  1  0  0  0  0
  8  6  1  0  0  0  0
  9  7  1  0  0  0  0
  9 10  1  1  0  0  0
 10 11  1  0  0  0  0
 12 11  2  0  0  0  0
 13 17  1  6  0  0  0
 13 16  1  0  0  0  0
 15 13  1  0  0  0  0
 16 14  1  6  0  0  0
 17 16  1  0  0  0  0
 18 11  1  6  0  0  0
 18 15  1  0  0  0  0
 18 14  1  0  0  0  0
 19 20  1  0  0  0  0
 21 23  1  0  0  0  0
 21 22  1  1  0  0  0
 21 20  1  0  0  0  0
 23 24  1  6  0  0  0
 25 28  1  0  0  0  0
 27 28  1  0  0  0  0
 28 26  1  0  0  0  0
 28 23  1  0  0  0  0
 29 35  1  0  0  0  0
 30 35  2  0  0  0  0
 30 32  1  0  0  0  0
 31 36  1  6  0  0  0
 32 33  1  0  0  0  0
 33 31  1  0  0  0  0
 34 31  1  0  0  0  0
 35 34  1  0  0  0  0
 36 37  1  0  0  0  0
 37 40  1  0  0  0  0
 37 38  2  0  0  0  0
 40 39  1  6  0  0  0
 40 41  1  0  0  0  0
 41 42  1  0  0  0  0
 42 44  1  0  0  0  0
 42 43  1  6  0  0  0
 44 45  1  0  0  0  0
 45 46  1  0  0  0  0
 46 47  1  1  0  0  0
 48 46  1  0  0  0  0
 48 49  1  0  0  0  0
M  END
>  <MODEL>
9

>  <REMARK>
 VINA RESULT:      -7.0      4.104      6.764
  Name = 
  19 active torsions:
  status: ('A' for Active; 'I' for Inactive)
    1  A    between atoms: C_1  and  C_9
    2  A    between atoms: C_1  and  C_23
    3  A    between atoms: C_4  and  C_25
    4  A    between atoms: C_4  and  C_45
    5  A    between atoms: C_5  and  C_25
    6  A    between atoms: C_5  and  C_40
    7  A    between atoms: C_8  and  C_11
    8  A    between atoms: C_9  and  C_40
    9  A    between atoms: C_11  and  C_16
   10  A    between atoms: C_12  and  C_25
   11  A    between atoms: C_16  and  C_41
   12  A    between atoms: C_22  and  C_29
   13  A    between atoms: C_22  and  O_31
   14  A    between atoms: C_26  and  O_46
   15  A    between atoms: C_26  and  C_48
   16  A    between atoms: N_28  and  C_49
   17  A    between atoms: C_29  and  O_46
   18  A    between atoms: C_37  and  C_43
   19  A    between atoms: C_41  and  C_48
                            x       y       z     vdW  Elec       q    Type
                         _______ _______ _______ _____ _____    ______ ____

>  <TORSDO>
F 19

$$$$
