=
 OpenBabel11062417343D

 47 51  0  0  1  0  0  0  0  0999 V2000
  187.0500  177.9620  143.4000 C   0  0  0  0  0  2  0  0  0  0  0  0
  190.0790  177.3880  144.5010 O   0  0  0  0  0  1  0  0  0  0  0  0
  188.4970  178.1590  141.4640 O   0  0  0  0  0  0  0  0  0  0  0  0
  189.3710  177.1400  141.0300 C   0  0  2  0  0  3  0  0  0  0  0  0
  190.2930  176.7610  142.1850 C   0  0  1  0  0  3  0  0  0  0  0  0
  191.4470  177.6540  142.2420 N   0  0  0  0  0  1  0  0  0  0  0  0
  188.4760  178.1080  142.8720 C   0  0  2  0  0  3  0  0  0  0  0  0
  189.3820  176.9950  143.3560 C   0  0  2  0  0  3  0  0  0  0  0  0
  190.0960  177.5350  139.7340 C   0  0  2  0  0  3  0  0  0  0  0  0
  189.3180  176.9800  136.9660 C   0  0  0  0  0  1  0  0  0  0  0  0
  187.5280  177.5730  138.8690 O   0  0  0  0  0  0  0  0  0  0  0  0
  188.9880  179.3780  138.1020 O   0  0  0  0  0  0  0  0  0  0  0  0
  188.9250  177.9110  138.4280 S   0  0  0  0  0  0  0  0  0  0  0  0
  191.0230  176.4140  139.2820 C   0  0  0  0  0  2  0  0  0  0  0  0
  193.1970  176.2790  138.0330 C   0  0  0  0  0  3  0  0  0  0  0  0
  192.2920  176.9720  138.7340 C   0  0  0  0  0  3  0  0  0  0  0  0
  191.9500  174.4720  137.1020 O   0  0  0  0  0  1  0  0  0  0  0  0
  193.1070  174.8900  137.6690 N   0  0  0  0  0  0  0  0  0  0  0  0
  194.1680  173.9260  137.9700 C   0  0  0  0  0  2  0  0  0  0  0  0
  195.5430  174.5770  138.0750 C   0  0  0  0  0  2  0  0  0  0  0  0
  197.2700  175.1090  139.8470 C   0  0  0  0  0  0  0  0  0  0  0  0
  195.9590  174.6860  139.4690 N   0  0  0  0  0  2  0  0  0  0  0  0
  198.2170  175.4390  138.8800 O   0  0  0  0  0  0  0  0  0  0  0  0
  197.5720  175.1820  141.0660 O   0  0  0  0  0  1  0  0  0  0  0  0
  186.0610  177.5910  142.3020 C   0  0  0  0  0  2  0  0  0  0  0  0
  182.7110  179.0500  142.6620 C   0  0  0  0  0  2  0  0  0  0  0  0
  185.1020  178.7410  142.0460 C   0  0  2  0  0  3  0  0  0  0  0  0
  180.4100  179.7230  142.7930 O   0  0  0  0  0  1  0  0  0  0  0  0
  181.2860  179.2090  139.8350 C   0  0  2  0  0  0  0  0  0  0  0  0
  183.6960  178.1940  141.8590 C   0  0  2  0  0  3  0  0  0  0  0  0
  185.1480  179.1420  140.5760 C   0  0  0  0  0  2  0  0  0  0  0  0
  183.7900  177.3570  139.4660 C   0  0  0  0  0  1  0  0  0  0  0  0
  183.7560  178.5760  140.3740 C   0  0  1  0  0  0  0  0  0  0  0  0
  181.2470  178.6740  142.4080 C   0  0  1  0  0  3  0  0  0  0  0  0
  182.7610  179.6640  139.9230 C   0  0  0  0  0  2  0  0  0  0  0  0
  180.4710  180.3420  139.9470 O   0  0  0  0  0  1  0  0  0  0  0  0
  180.9270  178.2220  140.9740 C   0  0  0  0  0  2  0  0  0  0  0  0
  180.1920  176.5530  137.4120 C   0  0  2  0  0  0  0  0  0  0  0  0
  182.2410  175.9330  136.3060 C   0  0  0  0  0  2  0  0  0  0  0  0
  178.9310  175.7250  137.2820 C   0  0  0  0  0  1  0  0  0  0  0  0
  181.3920  175.6440  137.5270 C   0  0  0  0  0  2  0  0  0  0  0  0
  180.1010  177.4430  138.6520 C   0  0  0  0  0  2  0  0  0  0  0  0
  181.0570  178.5500  138.5290 N   0  0  1  0  0  0  0  0  0  0  0  0
  180.5280  179.5070  137.5420 C   0  0  0  0  0  2  0  0  0  0  0  0
  181.8400  177.2310  135.7840 N   0  0  0  0  0  2  0  0  0  0  0  0
  180.4320  177.3560  136.1310 C   0  0  2  0  0  3  0  0  0  0  0  0
  180.0360  178.8320  136.2490 C   0  0  0  0  0  2  0  0  0  0  0  0
  3  7  1  0  0  0  0
  4  9  1  6  0  0  0
  4  3  1  0  0  0  0
  4  5  1  0  0  0  0
  5  6  1  1  0  0  0
  5  8  1  0  0  0  0
  7  8  1  0  0  0  0
  7  1  1  6  0  0  0
  8  2  1  1  0  0  0
  9 14  1  6  0  0  0
 10 13  1  0  0  0  0
 12 13  2  0  0  0  0
 13 11  2  0  0  0  0
 13  9  1  0  0  0  0
 15 16  2  0  0  0  0
 16 14  1  0  0  0  0
 17 18  1  0  0  0  0
 18 19  1  0  0  0  0
 18 15  1  0  0  0  0
 19 20  1  0  0  0  0
 20 22  1  0  0  0  0
 21 24  1  0  0  0  0
 22 21  1  0  0  0  0
 23 21  2  0  0  0  0
 25  1  1  0  0  0  0
 27 25  1  6  0  0  0
 29 35  1  0  0  0  0
 29 36  1  1  0  0  0
 29 37  1  0  0  0  0
 30 27  1  0  0  0  0
 30 26  1  1  0  0  0
 31 27  1  0  0  0  0
 33 32  1  6  0  0  0
 33 31  1  0  0  0  0
 33 30  1  0  0  0  0
 34 26  1  0  0  0  0
 34 28  1  6  0  0  0
 35 33  1  0  0  0  0
 37 34  1  0  0  0  0
 38 40  1  6  0  0  0
 38 41  1  0  0  0  0
 38 42  1  0  0  0  0
 39 41  1  0  0  0  0
 43 44  1  6  0  0  0
 43 42  1  0  0  0  0
 43 29  1  0  0  0  0
 45 46  1  0  0  0  0
 45 39  1  0  0  0  0
 46 47  1  1  0  0  0
 46 38  1  0  0  0  0
 47 44  1  0  0  0  0
M  END
>  <MODEL>
1

>  <REMARK>
 VINA RESULT:      -7.0      0.000      0.000
  Name = 
  12 active torsions:
  status: ('A' for Active; 'I' for Inactive)
    1  A    between atoms: C_3  and  C_13
    2  A    between atoms: C_3  and  C_34
    3  A    between atoms: C_5  and  C_38
    4  A    between atoms: C_11  and  N_28
    5  A    between atoms: C_13  and  C_15
    6  A    between atoms: C_13  and  S_32
    7  A    between atoms: C_14  and  N_17
    8  A    between atoms: N_17  and  C_45
    9  A    between atoms: N_18  and  C_29
   10  A    between atoms: C_29  and  C_45
   11  A    between atoms: C_36  and  C_38
   12  A    between atoms: C_36  and  C_40
                            x       y       z     vdW  Elec       q    Type
                         _______ _______ _______ _____ _____    ______ ____

>  <TORSDO>
F 12

$$$$
=
 OpenBabel11062417343D

 47 51  0  0  1  0  0  0  0  0999 V2000
  182.9820  178.8540  143.3620 C   0  0  0  0  0  2  0  0  0  0  0  0
  185.5740  179.6950  141.5470 O   0  0  0  0  0  1  0  0  0  0  0  0
  182.1630  179.0060  141.0840 O   0  0  0  0  0  0  0  0  0  0  0  0
  182.7060  178.2780  140.0040 C   0  0  2  0  0  3  0  0  0  0  0  0
  184.2000  178.5740  139.9160 C   0  0  1  0  0  3  0  0  0  0  0  0
  184.4420  179.7930  139.1480 N   0  0  0  0  0  1  0  0  0  0  0  0
  183.2370  179.3370  141.9350 C   0  0  2  0  0  3  0  0  0  0  0  0
  184.5270  178.7870  141.3660 C   0  0  2  0  0  3  0  0  0  0  0  0
  181.9240  178.5300  138.7060 C   0  0  2  0  0  3  0  0  0  0  0  0
  179.4930  179.9920  139.4310 C   0  0  0  0  0  1  0  0  0  0  0  0
  179.4690  177.9170  137.7360 O   0  0  0  0  0  0  0  0  0  0  0  0
  179.8870  177.4310  140.0960 O   0  0  0  0  0  0  0  0  0  0  0  0
  180.1560  178.4050  138.9820 S   0  0  0  0  0  0  0  0  0  0  0  0
  182.3450  177.5360  137.6310 C   0  0  0  0  0  2  0  0  0  0  0  0
  183.5470  175.3390  137.8150 C   0  0  0  0  0  3  0  0  0  0  0  0
  182.6080  176.1960  138.2300 C   0  0  0  0  0  3  0  0  0  0  0  0
  184.0930  175.1570  135.5010 O   0  0  0  0  0  1  0  0  0  0  0  0
  184.4760  175.5540  136.7370 N   0  0  0  0  0  0  0  0  0  0  0  0
  185.8220  176.0910  136.9520 C   0  0  0  0  0  2  0  0  0  0  0  0
  185.9500  177.5490  136.5220 C   0  0  0  0  0  2  0  0  0  0  0  0
  188.1260  178.3650  137.5260 C   0  0  0  0  0  0  0  0  0  0  0  0
  187.3530  177.9330  136.4050 N   0  0  0  0  0  2  0  0  0  0  0  0
  187.5580  178.4360  138.7960 O   0  0  0  0  0  1  0  0  0  0  0  0
  189.3320  178.6860  137.3630 O   0  0  0  0  0  0  0  0  0  0  0  0
  183.8820  179.5490  144.3770 C   0  0  0  0  0  2  0  0  0  0  0  0
  185.8190  178.8490  147.4160 C   0  0  0  0  0  2  0  0  0  0  0  0
  184.4020  178.5470  145.3930 C   0  0  2  0  0  3  0  0  0  0  0  0
  187.3170  178.5660  149.2700 O   0  0  0  0  0  1  0  0  0  0  0  0
  188.4210  177.1910  146.6880 C   0  0  2  0  0  0  0  0  0  0  0  0
  185.7660  178.9950  145.8910 C   0  0  2  0  0  3  0  0  0  0  0  0
  185.0450  177.3640  144.6780 C   0  0  0  0  0  2  0  0  0  0  0  0
  187.2690  178.2720  143.9790 C   0  0  0  0  0  1  0  0  0  0  0  0
  186.4120  177.8170  145.1500 C   0  0  1  0  0  0  0  0  0  0  0  0
  187.2110  179.1230  147.9950 C   0  0  1  0  0  3  0  0  0  0  0  0
  187.0860  176.7550  146.0410 C   0  0  0  0  0  2  0  0  0  0  0  0
  188.6320  176.4050  147.8270 O   0  0  0  0  0  1  0  0  0  0  0  0
  188.3870  178.6810  147.1090 C   0  0  0  0  0  2  0  0  0  0  0  0
  190.9200  178.0390  144.0130 C   0  0  2  0  0  0  0  0  0  0  0  0
  190.3050  176.5790  142.1970 C   0  0  0  0  0  2  0  0  0  0  0  0
  191.8810  179.1930  143.8200 C   0  0  0  0  0  1  0  0  0  0  0  0
  190.0050  177.9290  142.8160 C   0  0  0  0  0  2  0  0  0  0  0  0
  190.0880  178.2620  145.2760 C   0  0  0  0  0  2  0  0  0  0  0  0
  189.5220  176.9840  145.7200 N   0  0  1  0  0  0  0  0  0  0  0  0
  190.6050  176.1840  146.3170 C   0  0  0  0  0  2  0  0  0  0  0  0
  190.9650  175.7650  143.2050 N   0  0  0  0  0  2  0  0  0  0  0  0
  191.6850  176.7130  144.0420 C   0  0  2  0  0  3  0  0  0  0  0  0
  191.8780  176.1470  145.4530 C   0  0  0  0  0  2  0  0  0  0  0  0
  1 25  1  0  0  0  0
  3  7  1  0  0  0  0
  4  9  1  6  0  0  0
  4  3  1  0  0  0  0
  5  6  1  6  0  0  0
  5  4  1  0  0  0  0
  5  8  1  0  0  0  0
  7  1  1  1  0  0  0
  8  2  1  6  0  0  0
  8  7  1  0  0  0  0
  9 14  1  6  0  0  0
  9 13  1  0  0  0  0
 11 13  2  0  0  0  0
 13 10  1  0  0  0  0
 13 12  2  0  0  0  0
 14 16  1  0  0  0  0
 15 16  2  0  0  0  0
 17 18  1  0  0  0  0
 18 19  1  0  0  0  0
 18 15  1  0  0  0  0
 20 19  1  0  0  0  0
 21 23  1  0  0  0  0
 22 20  1  0  0  0  0
 22 21  1  0  0  0  0
 24 21  2  0  0  0  0
 26 34  1  0  0  0  0
 27 25  1  6  0  0  0
 27 30  1  0  0  0  0
 29 37  1  0  0  0  0
 29 36  1  1  0  0  0
 30 26  1  1  0  0  0
 31 33  1  0  0  0  0
 31 27  1  0  0  0  0
 33 32  1  6  0  0  0
 33 30  1  0  0  0  0
 33 35  1  0  0  0  0
 34 28  1  1  0  0  0
 35 29  1  0  0  0  0
 37 34  1  0  0  0  0
 38 40  1  6  0  0  0
 38 46  1  0  0  0  0
 38 42  1  0  0  0  0
 39 41  1  0  0  0  0
 39 45  1  0  0  0  0
 41 38  1  0  0  0  0
 43 42  1  1  0  0  0
 43 44  1  0  0  0  0
 43 29  1  0  0  0  0
 45 46  1  0  0  0  0
 46 47  1  1  0  0  0
 47 44  1  0  0  0  0
M  END
>  <MODEL>
2

>  <REMARK>
 VINA RESULT:      -6.8      3.888      9.292
  Name = 
  12 active torsions:
  status: ('A' for Active; 'I' for Inactive)
    1  A    between atoms: C_3  and  C_13
    2  A    between atoms: C_3  and  C_34
    3  A    between atoms: C_5  and  C_38
    4  A    between atoms: C_11  and  N_28
    5  A    between atoms: C_13  and  C_15
    6  A    between atoms: C_13  and  S_32
    7  A    between atoms: C_14  and  N_17
    8  A    between atoms: N_17  and  C_45
    9  A    between atoms: N_18  and  C_29
   10  A    between atoms: C_29  and  C_45
   11  A    between atoms: C_36  and  C_38
   12  A    between atoms: C_36  and  C_40
                            x       y       z     vdW  Elec       q    Type
                         _______ _______ _______ _____ _____    ______ ____

>  <TORSDO>
F 12

$$$$
=
 OpenBabel11062417343D

 47 51  0  0  1  0  0  0  0  0999 V2000
  184.3870  178.7470  141.9890 C   0  0  0  0  0  2  0  0  0  0  0  0
  185.7560  178.1020  144.8910 O   0  0  0  0  0  1  0  0  0  0  0  0
  186.7760  178.6590  141.5780 O   0  0  0  0  0  0  0  0  0  0  0  0
  187.5870  177.5490  141.8990 C   0  0  2  0  0  3  0  0  0  0  0  0
  187.4200  177.2320  143.3820 C   0  0  1  0  0  3  0  0  0  0  0  0
  188.3160  178.0550  144.1910 N   0  0  0  0  0  1  0  0  0  0  0  0
  185.7930  178.7510  142.5850 C   0  0  2  0  0  3  0  0  0  0  0  0
  185.9900  177.6400  143.5940 C   0  0  2  0  0  3  0  0  0  0  0  0
  189.0390  177.7650  141.4480 C   0  0  2  0  0  3  0  0  0  0  0  0
  190.7920  177.3110  139.1460 C   0  0  0  0  0  1  0  0  0  0  0  0
  188.1500  176.8730  139.0490 O   0  0  0  0  0  0  0  0  0  0  0  0
  188.8970  179.1980  139.1640 O   0  0  0  0  0  0  0  0  0  0  0  0
  189.1620  177.8030  139.6580 S   0  0  0  0  0  0  0  0  0  0  0  0
  189.9350  176.6640  141.9990 C   0  0  0  0  0  2  0  0  0  0  0  0
  192.0750  177.4880  143.0230 C   0  0  0  0  0  3  0  0  0  0  0  0
  191.3660  177.0840  141.9630 C   0  0  0  0  0  3  0  0  0  0  0  0
  191.1870  178.7910  144.8120 O   0  0  0  0  0  1  0  0  0  0  0  0
  191.6010  177.5760  144.3780 N   0  0  0  0  0  0  0  0  0  0  0  0
  191.6380  176.4400  145.3030 C   0  0  0  0  0  2  0  0  0  0  0  0
  191.3530  176.8450  146.7450 C   0  0  0  0  0  2  0  0  0  0  0  0
  189.0550  177.1920  147.7490 C   0  0  0  0  0  0  0  0  0  0  0  0
  190.0520  176.3440  147.1760 N   0  0  0  0  0  2  0  0  0  0  0  0
  189.2930  178.5530  147.9200 O   0  0  0  0  0  0  0  0  0  0  0  0
  187.9520  176.7020  148.1030 O   0  0  0  0  0  1  0  0  0  0  0  0
  184.3900  179.0580  140.4970 C   0  0  0  0  0  2  0  0  0  0  0  0
  181.0340  177.5690  140.5460 C   0  0  0  0  0  2  0  0  0  0  0  0
  182.9760  179.0030  139.9440 C   0  0  2  0  0  3  0  0  0  0  0  0
  178.9880  176.3130  140.5700 O   0  0  0  0  0  1  0  0  0  0  0  0
  180.5330  175.9320  137.8780 C   0  0  2  0  0  0  0  0  0  0  0  0
  182.4670  177.5720  140.0010 C   0  0  2  0  0  3  0  0  0  0  0  0
  183.0130  178.9350  138.4220 C   0  0  0  0  0  2  0  0  0  0  0  0
  183.6070  176.5450  137.9810 C   0  0  0  0  0  1  0  0  0  0  0  0
  182.5290  177.5000  138.4700 C   0  0  1  0  0  0  0  0  0  0  0  0
  180.3760  176.1870  140.4890 C   0  0  1  0  0  3  0  0  0  0  0  0
  181.1750  177.3330  137.7520 C   0  0  0  0  0  2  0  0  0  0  0  0
  179.1530  176.0630  137.6730 O   0  0  0  0  0  1  0  0  0  0  0  0
  180.7720  175.3220  139.2810 C   0  0  0  0  0  2  0  0  0  0  0  0
  182.0910  172.8350  136.4290 C   0  0  2  0  0  0  0  0  0  0  0  0
  184.2120  173.6190  135.5950 C   0  0  0  0  0  2  0  0  0  0  0  0
  181.7820  171.3590  136.5630 C   0  0  0  0  0  1  0  0  0  0  0  0
  183.5210  173.0980  136.8390 C   0  0  0  0  0  2  0  0  0  0  0  0
  181.1460  173.6460  137.3160 C   0  0  0  0  0  2  0  0  0  0  0  0
  181.1130  175.0370  136.8520 N   0  0  1  0  0  0  0  0  0  0  0  0
  180.3290  175.0860  135.6060 C   0  0  0  0  0  2  0  0  0  0  0  0
  183.1830  174.0920  134.6810 N   0  0  0  0  0  2  0  0  0  0  0  0
  182.0220  173.2590  134.9600 C   0  0  2  0  0  3  0  0  0  0  0  0
  180.7300  173.9980  134.5940 C   0  0  0  0  0  2  0  0  0  0  0  0
  3  4  1  0  0  0  0
  3  7  1  0  0  0  0
  4  9  1  1  0  0  0
  4  5  1  0  0  0  0
  5  8  1  0  0  0  0
  5  6  1  1  0  0  0
  7  1  1  6  0  0  0
  7  8  1  0  0  0  0
  8  2  1  1  0  0  0
  9 14  1  6  0  0  0
 10 13  1  0  0  0  0
 11 13  2  0  0  0  0
 12 13  2  0  0  0  0
 13  9  1  0  0  0  0
 15 18  1  0  0  0  0
 16 14  1  0  0  0  0
 16 15  2  0  0  0  0
 18 17  1  0  0  0  0
 18 19  1  0  0  0  0
 19 20  1  0  0  0  0
 20 22  1  0  0  0  0
 21 23  2  0  0  0  0
 21 24  1  0  0  0  0
 22 21  1  0  0  0  0
 25  1  1  0  0  0  0
 27 30  1  0  0  0  0
 27 25  1  1  0  0  0
 29 36  1  6  0  0  0
 29 37  1  0  0  0  0
 30 26  1  6  0  0  0
 31 33  1  0  0  0  0
 31 27  1  0  0  0  0
 33 32  1  6  0  0  0
 33 30  1  0  0  0  0
 34 26  1  0  0  0  0
 34 28  1  6  0  0  0
 35 29  1  0  0  0  0
 35 33  1  0  0  0  0
 37 34  1  0  0  0  0
 38 40  1  1  0  0  0
 38 41  1  0  0  0  0
 38 42  1  0  0  0  0
 39 41  1  0  0  0  0
 43 44  1  6  0  0  0
 43 42  1  0  0  0  0
 43 29  1  0  0  0  0
 45 46  1  0  0  0  0
 45 39  1  0  0  0  0
 46 47  1  1  0  0  0
 46 38  1  0  0  0  0
 47 44  1  0  0  0  0
M  END
>  <MODEL>
3

>  <REMARK>
 VINA RESULT:      -6.8      3.373      5.287
  Name = 
  12 active torsions:
  status: ('A' for Active; 'I' for Inactive)
    1  A    between atoms: C_3  and  C_13
    2  A    between atoms: C_3  and  C_34
    3  A    between atoms: C_5  and  C_38
    4  A    between atoms: C_11  and  N_28
    5  A    between atoms: C_13  and  C_15
    6  A    between atoms: C_13  and  S_32
    7  A    between atoms: C_14  and  N_17
    8  A    between atoms: N_17  and  C_45
    9  A    between atoms: N_18  and  C_29
   10  A    between atoms: C_29  and  C_45
   11  A    between atoms: C_36  and  C_38
   12  A    between atoms: C_36  and  C_40
                            x       y       z     vdW  Elec       q    Type
                         _______ _______ _______ _____ _____    ______ ____

>  <TORSDO>
F 12

$$$$
=
 OpenBabel11062417343D

 47 51  0  0  1  0  0  0  0  0999 V2000
  186.8780  178.0740  143.8660 C   0  0  0  0  0  2  0  0  0  0  0  0
  189.7670  176.8120  144.7470 O   0  0  0  0  0  1  0  0  0  0  0  0
  188.2990  178.2690  141.9100 O   0  0  0  0  0  0  0  0  0  0  0  0
  188.9590  177.1760  141.3070 C   0  0  2  0  0  3  0  0  0  0  0  0
  189.8160  176.4810  142.3610 C   0  0  1  0  0  3  0  0  0  0  0  0
  191.1170  177.1330  142.4840 N   0  0  0  0  0  1  0  0  0  0  0  0
  188.2950  178.0290  143.2990 C   0  0  2  0  0  3  0  0  0  0  0  0
  188.9870  176.7140  143.5920 C   0  0  2  0  0  3  0  0  0  0  0  0
  189.7190  177.6070  140.0440 C   0  0  2  0  0  3  0  0  0  0  0  0
  188.5220  176.9970  137.4420 C   0  0  0  0  0  1  0  0  0  0  0  0
  187.2110  178.3560  139.3440 O   0  0  0  0  0  0  0  0  0  0  0  0
  189.0640  179.4950  138.2290 O   0  0  0  0  0  0  0  0  0  0  0  0
  188.5900  178.1760  138.7710 S   0  0  0  0  0  0  0  0  0  0  0  0
  190.5540  176.4510  139.5070 C   0  0  0  0  0  2  0  0  0  0  0  0
  192.5320  176.4700  137.9610 C   0  0  0  0  0  3  0  0  0  0  0  0
  191.8800  176.9380  139.0310 C   0  0  0  0  0  3  0  0  0  0  0  0
  192.2410  174.1530  137.4770 O   0  0  0  0  0  1  0  0  0  0  0  0
  192.0740  175.4350  137.0730 N   0  0  0  0  0  0  0  0  0  0  0  0
  191.5310  175.7200  135.7430 C   0  0  0  0  0  2  0  0  0  0  0  0
  191.0680  174.4630  135.0130 C   0  0  0  0  0  2  0  0  0  0  0  0
  188.6840  173.8720  135.6280 C   0  0  0  0  0  0  0  0  0  0  0  0
  189.6310  174.5080  134.7660 N   0  0  0  0  0  2  0  0  0  0  0  0
  189.1080  173.1740  136.7560 O   0  0  0  0  0  1  0  0  0  0  0  0
  187.4570  173.9430  135.3620 O   0  0  0  0  0  0  0  0  0  0  0  0
  185.8350  177.6170  142.8540 C   0  0  0  0  0  2  0  0  0  0  0  0
  182.5590  179.2420  143.1800 C   0  0  0  0  0  2  0  0  0  0  0  0
  184.9040  178.7640  142.5000 C   0  0  2  0  0  3  0  0  0  0  0  0
  180.2920  180.0180  143.3290 O   0  0  0  0  0  1  0  0  0  0  0  0
  181.0020  179.1120  140.4220 C   0  0  2  0  0  0  0  0  0  0  0  0
  183.4730  178.2550  142.4460 C   0  0  2  0  0  3  0  0  0  0  0  0
  184.8910  178.9800  140.9920 C   0  0  0  0  0  2  0  0  0  0  0  0
  183.4190  177.1300  140.1730 C   0  0  0  0  0  1  0  0  0  0  0  0
  183.4720  178.4510  140.9240 C   0  0  1  0  0  0  0  0  0  0  0  0
  181.0720  178.8980  143.0400 C   0  0  1  0  0  3  0  0  0  0  0  0
  182.4950  179.5150  140.3870 C   0  0  0  0  0  2  0  0  0  0  0  0
  180.2330  180.2830  140.4290 O   0  0  0  0  0  1  0  0  0  0  0  0
  180.6660  178.2870  141.6890 C   0  0  0  0  0  2  0  0  0  0  0  0
  180.0260  176.1020  138.3960 C   0  0  2  0  0  0  0  0  0  0  0  0
  181.9440  175.7370  136.9850 C   0  0  0  0  0  2  0  0  0  0  0  0
  178.9310  175.0660  138.5400 C   0  0  0  0  0  1  0  0  0  0  0  0
  181.3730  175.4210  138.3520 C   0  0  0  0  0  2  0  0  0  0  0  0
  179.9790  177.0730  139.5750 C   0  0  0  0  0  2  0  0  0  0  0  0
  180.6860  178.3080  139.2190 N   0  0  1  0  0  0  0  0  0  0  0  0
  179.8390  179.0700  138.2850 C   0  0  0  0  0  2  0  0  0  0  0  0
  181.2360  176.8960  136.4640 N   0  0  0  0  0  2  0  0  0  0  0  0
  179.9050  176.8150  137.0460 C   0  0  2  0  0  3  0  0  0  0  0  0
  179.2730  178.2080  137.1420 C   0  0  0  0  0  2  0  0  0  0  0  0
  3  7  1  0  0  0  0
  4  9  1  6  0  0  0
  4  3  1  0  0  0  0
  4  5  1  0  0  0  0
  5  6  1  1  0  0  0
  5  8  1  0  0  0  0
  7  8  1  0  0  0  0
  7  1  1  6  0  0  0
  8  2  1  1  0  0  0
  9 14  1  6  0  0  0
 10 13  1  0  0  0  0
 12 13  2  0  0  0  0
 13 11  2  0  0  0  0
 13  9  1  0  0  0  0
 15 16  2  0  0  0  0
 16 14  1  0  0  0  0
 18 17  1  0  0  0  0
 18 15  1  0  0  0  0
 19 18  1  0  0  0  0
 20 19  1  0  0  0  0
 21 23  1  0  0  0  0
 22 20  1  0  0  0  0
 22 21  1  0  0  0  0
 24 21  2  0  0  0  0
 25  1  1  0  0  0  0
 27 25  1  6  0  0  0
 29 36  1  6  0  0  0
 29 37  1  0  0  0  0
 30 27  1  0  0  0  0
 30 26  1  1  0  0  0
 31 27  1  0  0  0  0
 33 32  1  6  0  0  0
 33 31  1  0  0  0  0
 33 30  1  0  0  0  0
 34 26  1  0  0  0  0
 34 28  1  6  0  0  0
 35 29  1  0  0  0  0
 35 33  1  0  0  0  0
 37 34  1  0  0  0  0
 38 40  1  1  0  0  0
 38 42  1  0  0  0  0
 39 41  1  0  0  0  0
 41 38  1  0  0  0  0
 43 44  1  6  0  0  0
 43 42  1  0  0  0  0
 43 29  1  0  0  0  0
 45 39  1  0  0  0  0
 45 46  1  0  0  0  0
 46 47  1  1  0  0  0
 46 38  1  0  0  0  0
 47 44  1  0  0  0  0
M  END
>  <MODEL>
4

>  <REMARK>
 VINA RESULT:      -6.7      1.937      3.106
  Name = 
  12 active torsions:
  status: ('A' for Active; 'I' for Inactive)
    1  A    between atoms: C_3  and  C_13
    2  A    between atoms: C_3  and  C_34
    3  A    between atoms: C_5  and  C_38
    4  A    between atoms: C_11  and  N_28
    5  A    between atoms: C_13  and  C_15
    6  A    between atoms: C_13  and  S_32
    7  A    between atoms: C_14  and  N_17
    8  A    between atoms: N_17  and  C_45
    9  A    between atoms: N_18  and  C_29
   10  A    between atoms: C_29  and  C_45
   11  A    between atoms: C_36  and  C_38
   12  A    between atoms: C_36  and  C_40
                            x       y       z     vdW  Elec       q    Type
                         _______ _______ _______ _____ _____    ______ ____

>  <TORSDO>
F 12

$$$$
=
 OpenBabel11062417343D

 47 51  0  0  1  0  0  0  0  0999 V2000
  188.6020  177.5030  139.3450 C   0  0  0  0  0  2  0  0  0  0  0  0
  185.9580  179.2190  140.2270 O   0  0  0  0  0  1  0  0  0  0  0  0
  188.8630  177.9310  141.7180 O   0  0  0  0  0  0  0  0  0  0  0  0
  187.9080  177.5650  142.6910 C   0  0  2  0  0  3  0  0  0  0  0  0
  186.5650  178.1830  142.3150 C   0  0  1  0  0  3  0  0  0  0  0  0
  186.4690  179.5540  142.8100 N   0  0  0  0  0  1  0  0  0  0  0  0
  188.1470  178.3040  140.5630 C   0  0  2  0  0  3  0  0  0  0  0  0
  186.6600  178.1660  140.8160 C   0  0  2  0  0  3  0  0  0  0  0  0
  188.3950  177.9010  144.1090 C   0  0  2  0  0  3  0  0  0  0  0  0
  190.4900  175.9400  143.5320 C   0  0  0  0  0  1  0  0  0  0  0  0
  190.9880  178.5670  143.6930 O   0  0  0  0  0  0  0  0  0  0  0  0
  190.4600  177.3970  145.7740 O   0  0  0  0  0  0  0  0  0  0  0  0
  190.1310  177.4970  144.3100 S   0  0  0  0  0  0  0  0  0  0  0  0
  187.5710  177.1470  145.1450 C   0  0  0  0  0  2  0  0  0  0  0  0
  187.3940  178.2740  147.3810 C   0  0  0  0  0  3  0  0  0  0  0  0
  188.0350  177.4730  146.5240 C   0  0  0  0  0  3  0  0  0  0  0  0
  186.0570  180.2440  147.5260 O   0  0  0  0  0  1  0  0  0  0  0  0
  186.1460  178.9480  147.1420 N   0  0  0  0  0  0  0  0  0  0  0  0
  184.9720  178.2640  146.5940 C   0  0  0  0  0  2  0  0  0  0  0  0
  184.5600  178.8030  145.2280 C   0  0  0  0  0  2  0  0  0  0  0  0
  182.4420  178.9480  143.8500 C   0  0  0  0  0  0  0  0  0  0  0  0
  183.1070  178.8630  145.1110 N   0  0  0  0  0  2  0  0  0  0  0  0
  183.1700  178.9780  142.6630 O   0  0  0  0  0  0  0  0  0  0  0  0
  181.1850  179.0000  143.8120 O   0  0  0  0  0  1  0  0  0  0  0  0
  188.4530  178.2870  138.0470 C   0  0  0  0  0  2  0  0  0  0  0  0
  188.4590  174.8780  136.6850 C   0  0  0  0  0  2  0  0  0  0  0  0
  188.5740  177.3580  136.8520 C   0  0  2  0  0  3  0  0  0  0  0  0
  188.6680  172.5790  136.0280 O   0  0  0  0  0  1  0  0  0  0  0  0
  191.3630  174.1220  135.6610 C   0  0  2  0  0  0  0  0  0  0  0  0
  189.2300  176.0580  137.2860 C   0  0  2  0  0  3  0  0  0  0  0  0
  189.8090  177.7160  136.0340 C   0  0  0  0  0  2  0  0  0  0  0  0
  191.6750  176.7290  137.3770 C   0  0  0  0  0  1  0  0  0  0  0  0
  190.4820  176.4330  136.4820 C   0  0  1  0  0  0  0  0  0  0  0  0
  189.1410  173.5290  136.9340 C   0  0  1  0  0  3  0  0  0  0  0  0
  190.8090  175.5170  135.2870 C   0  0  0  0  0  2  0  0  0  0  0  0
  191.1120  173.2510  134.5940 O   0  0  0  0  0  1  0  0  0  0  0  0
  190.6780  173.5620  136.9330 C   0  0  0  0  0  2  0  0  0  0  0  0
  194.8310  173.0190  136.5950 C   0  0  2  0  0  0  0  0  0  0  0  0
  195.3770  174.4310  138.4690 C   0  0  0  0  0  2  0  0  0  0  0  0
  195.6640  171.8050  136.2400 C   0  0  0  0  0  1  0  0  0  0  0  0
  194.6990  173.1290  138.0950 C   0  0  0  0  0  2  0  0  0  0  0  0
  193.4440  172.8980  135.9650 C   0  0  0  0  0  2  0  0  0  0  0  0
  192.8210  174.2250  135.8980 N   0  0  1  0  0  0  0  0  0  0  0  0
  193.4760  174.9870  134.8220 C   0  0  0  0  0  2  0  0  0  0  0  0
  195.4580  175.2500  137.2700 N   0  0  0  0  0  2  0  0  0  0  0  0
  195.5560  174.3000  136.1720 C   0  0  2  0  0  3  0  0  0  0  0  0
  195.0130  174.9140  134.8780 C   0  0  0  0  0  2  0  0  0  0  0  0
  3  4  1  0  0  0  0
  4  9  1  1  0  0  0
  5  4  1  0  0  0  0
  5  6  1  1  0  0  0
  7  1  1  6  0  0  0
  7  8  1  0  0  0  0
  7  3  1  0  0  0  0
  8  2  1  6  0  0  0
  8  5  1  0  0  0  0
  9 13  1  0  0  0  0
  9 14  1  1  0  0  0
 10 13  1  0  0  0  0
 11 13  2  0  0  0  0
 13 12  2  0  0  0  0
 14 16  1  0  0  0  0
 16 15  2  0  0  0  0
 18 15  1  0  0  0  0
 18 17  1  0  0  0  0
 19 18  1  0  0  0  0
 20 19  1  0  0  0  0
 21 22  1  0  0  0  0
 22 20  1  0  0  0  0
 23 21  2  0  0  0  0
 24 21  1  0  0  0  0
 25  1  1  0  0  0  0
 26 34  1  0  0  0  0
 27 30  1  0  0  0  0
 27 25  1  1  0  0  0
 29 36  1  6  0  0  0
 29 43  1  0  0  0  0
 29 37  1  0  0  0  0
 30 26  1  6  0  0  0
 31 33  1  0  0  0  0
 31 27  1  0  0  0  0
 33 30  1  0  0  0  0
 33 32  1  1  0  0  0
 34 28  1  6  0  0  0
 35 29  1  0  0  0  0
 35 33  1  0  0  0  0
 37 34  1  0  0  0  0
 38 40  1  6  0  0  0
 38 41  1  0  0  0  0
 41 39  1  0  0  0  0
 42 38  1  0  0  0  0
 43 44  1  6  0  0  0
 43 42  1  0  0  0  0
 44 47  1  0  0  0  0
 45 39  1  0  0  0  0
 46 47  1  6  0  0  0
 46 38  1  0  0  0  0
 46 45  1  0  0  0  0
M  END
>  <MODEL>
5

>  <REMARK>
 VINA RESULT:      -6.5      4.378     10.971
  Name = 
  12 active torsions:
  status: ('A' for Active; 'I' for Inactive)
    1  A    between atoms: C_3  and  C_13
    2  A    between atoms: C_3  and  C_34
    3  A    between atoms: C_5  and  C_38
    4  A    between atoms: C_11  and  N_28
    5  A    between atoms: C_13  and  C_15
    6  A    between atoms: C_13  and  S_32
    7  A    between atoms: C_14  and  N_17
    8  A    between atoms: N_17  and  C_45
    9  A    between atoms: N_18  and  C_29
   10  A    between atoms: C_29  and  C_45
   11  A    between atoms: C_36  and  C_38
   12  A    between atoms: C_36  and  C_40
                            x       y       z     vdW  Elec       q    Type
                         _______ _______ _______ _____ _____    ______ ____

>  <TORSDO>
F 12

$$$$
=
 OpenBabel11062417343D

 47 51  0  0  1  0  0  0  0  0999 V2000
  181.6130  179.5450  141.0840 C   0  0  0  0  0  2  0  0  0  0  0  0
  181.8710  180.6970  138.0310 O   0  0  0  0  0  1  0  0  0  0  0  0
  181.5620  177.5940  139.6440 O   0  0  0  0  0  0  0  0  0  0  0  0
  182.5720  177.2820  138.7090 C   0  0  2  0  0  3  0  0  0  0  0  0
  182.7560  178.4710  137.7710 C   0  0  1  0  0  3  0  0  0  0  0  0
  181.7940  178.4180  136.6720 N   0  0  0  0  0  1  0  0  0  0  0  0
  181.4470  178.9990  139.6670 C   0  0  2  0  0  3  0  0  0  0  0  0
  182.4380  179.6090  138.6990 C   0  0  2  0  0  3  0  0  0  0  0  0
  182.2920  175.9460  138.0040 C   0  0  2  0  0  3  0  0  0  0  0  0
  180.3260  173.8270  137.5370 C   0  0  0  0  0  1  0  0  0  0  0  0
  180.7150  174.9180  139.9530 O   0  0  0  0  0  0  0  0  0  0  0  0
  179.6280  176.3060  138.2580 O   0  0  0  0  0  0  0  0  0  0  0  0
  180.7000  175.2780  138.4930 S   0  0  0  0  0  0  0  0  0  0  0  0
  183.3890  174.9380  138.3220 C   0  0  0  0  0  2  0  0  0  0  0  0
  184.8550  174.4020  136.3560 C   0  0  0  0  0  3  0  0  0  0  0  0
  183.7680  174.1720  137.1010 C   0  0  0  0  0  3  0  0  0  0  0  0
  185.5200  176.6920  136.3360 O   0  0  0  0  0  1  0  0  0  0  0  0
  185.8550  175.4070  136.6000 N   0  0  0  0  0  0  0  0  0  0  0  0
  187.2170  175.0770  137.0290 C   0  0  0  0  0  2  0  0  0  0  0  0
  188.1900  176.2370  136.8440 C   0  0  0  0  0  2  0  0  0  0  0  0
  188.4900  178.2890  138.2960 C   0  0  0  0  0  0  0  0  0  0  0  0
  188.4890  176.8710  138.1240 N   0  0  0  0  0  2  0  0  0  0  0  0
  188.2000  179.1350  137.2280 O   0  0  0  0  0  0  0  0  0  0  0  0
  188.7590  178.7780  139.4240 O   0  0  0  0  0  1  0  0  0  0  0  0
  183.0740  179.6110  141.5110 C   0  0  0  0  0  2  0  0  0  0  0  0
  184.0500  178.9590  144.9900 C   0  0  0  0  0  2  0  0  0  0  0  0
  183.3430  178.6190  142.6290 C   0  0  2  0  0  3  0  0  0  0  0  0
  184.9340  178.7290  147.2100 O   0  0  0  0  0  1  0  0  0  0  0  0
  186.8780  177.5290  145.0750 C   0  0  2  0  0  0  0  0  0  0  0  0
  184.4500  179.1520  143.5230 C   0  0  2  0  0  3  0  0  0  0  0  0
  184.2670  177.5120  142.1340 C   0  0  0  0  0  2  0  0  0  0  0  0
  186.5150  178.6090  142.1530 C   0  0  0  0  0  1  0  0  0  0  0  0
  185.3850  178.0510  143.0040 C   0  0  1  0  0  0  0  0  0  0  0  0
  185.1730  179.3190  145.9680 C   0  0  1  0  0  3  0  0  0  0  0  0
  185.8420  177.0140  144.0480 C   0  0  0  0  0  2  0  0  0  0  0  0
  186.7980  176.7230  146.2180 O   0  0  0  0  0  1  0  0  0  0  0  0
  186.5950  178.9970  145.4790 C   0  0  0  0  0  2  0  0  0  0  0  0
  190.6320  177.4450  144.9620 C   0  0  2  0  0  0  0  0  0  0  0  0
  191.1890  179.3500  143.5960 C   0  0  0  0  0  2  0  0  0  0  0  0
  191.6780  176.7120  145.7770 C   0  0  0  0  0  1  0  0  0  0  0  0
  190.8860  178.9320  145.0210 C   0  0  0  0  0  2  0  0  0  0  0  0
  189.2390  177.1390  145.5120 C   0  0  0  0  0  2  0  0  0  0  0  0
  188.2330  177.4370  144.4870 N   0  0  1  0  0  0  0  0  0  0  0  0
  188.2930  176.3800  143.4630 C   0  0  0  0  0  2  0  0  0  0  0  0
  190.6760  178.3160  142.7110 N   0  0  0  0  0  2  0  0  0  0  0  0
  190.7680  177.0840  143.4800 C   0  0  2  0  0  3  0  0  0  0  0  0
  189.7270  176.0680  142.9980 C   0  0  0  0  0  2  0  0  0  0  0  0
  1 25  1  0  0  0  0
  3  7  1  0  0  0  0
  4  9  1  6  0  0  0
  4  3  1  0  0  0  0
  5  6  1  6  0  0  0
  5  8  1  0  0  0  0
  5  4  1  0  0  0  0
  7  1  1  1  0  0  0
  8  2  1  6  0  0  0
  8  7  1  0  0  0  0
  9 14  1  1  0  0  0
  9 13  1  0  0  0  0
 10 13  1  0  0  0  0
 12 13  2  0  0  0  0
 13 11  2  0  0  0  0
 15 18  1  0  0  0  0
 15 16  2  0  0  0  0
 16 14  1  0  0  0  0
 17 18  1  0  0  0  0
 18 19  1  0  0  0  0
 20 19  1  0  0  0  0
 20 22  1  0  0  0  0
 21 24  1  0  0  0  0
 22 21  1  0  0  0  0
 23 21  2  0  0  0  0
 26 34  1  0  0  0  0
 27 25  1  6  0  0  0
 27 30  1  0  0  0  0
 29 37  1  0  0  0  0
 29 36  1  1  0  0  0
 30 26  1  1  0  0  0
 31 27  1  0  0  0  0
 31 33  1  0  0  0  0
 33 32  1  6  0  0  0
 33 30  1  0  0  0  0
 33 35  1  0  0  0  0
 34 28  1  1  0  0  0
 35 29  1  0  0  0  0
 37 34  1  0  0  0  0
 38 41  1  0  0  0  0
 38 42  1  0  0  0  0
 38 40  1  1  0  0  0
 39 41  1  0  0  0  0
 43 44  1  6  0  0  0
 43 29  1  0  0  0  0
 43 42  1  0  0  0  0
 45 46  1  0  0  0  0
 45 39  1  0  0  0  0
 46 47  1  6  0  0  0
 46 38  1  0  0  0  0
 47 44  1  0  0  0  0
M  END
>  <MODEL>
6

>  <REMARK>
 VINA RESULT:      -6.4      3.942      8.767
  Name = 
  12 active torsions:
  status: ('A' for Active; 'I' for Inactive)
    1  A    between atoms: C_3  and  C_13
    2  A    between atoms: C_3  and  C_34
    3  A    between atoms: C_5  and  C_38
    4  A    between atoms: C_11  and  N_28
    5  A    between atoms: C_13  and  C_15
    6  A    between atoms: C_13  and  S_32
    7  A    between atoms: C_14  and  N_17
    8  A    between atoms: N_17  and  C_45
    9  A    between atoms: N_18  and  C_29
   10  A    between atoms: C_29  and  C_45
   11  A    between atoms: C_36  and  C_38
   12  A    between atoms: C_36  and  C_40
                            x       y       z     vdW  Elec       q    Type
                         _______ _______ _______ _____ _____    ______ ____

>  <TORSDO>
F 12

$$$$
=
 OpenBabel11062417343D

 47 51  0  0  1  0  0  0  0  0999 V2000
  186.2180  178.6290  145.9650 C   0  0  0  0  0  2  0  0  0  0  0  0
  188.0710  177.9250  148.5700 O   0  0  0  0  0  1  0  0  0  0  0  0
  188.3800  177.9860  145.0740 O   0  0  0  0  0  0  0  0  0  0  0  0
  189.0080  176.7530  145.3510 C   0  0  2  0  0  3  0  0  0  0  0  0
  189.1330  176.5960  146.8640 C   0  0  1  0  0  3  0  0  0  0  0  0
  190.3360  177.2620  147.3560 N   0  0  0  0  0  1  0  0  0  0  0  0
  187.6970  178.3690  146.2460 C   0  0  2  0  0  3  0  0  0  0  0  0
  187.9000  177.3230  147.3210 C   0  0  2  0  0  3  0  0  0  0  0  0
  190.3300  176.6100  144.5800 C   0  0  2  0  0  3  0  0  0  0  0  0
  192.0100  178.1830  142.7710 C   0  0  0  0  0  1  0  0  0  0  0  0
  190.0280  179.2760  144.2040 O   0  0  0  0  0  0  0  0  0  0  0  0
  192.0170  178.5420  145.4210 O   0  0  0  0  0  0  0  0  0  0  0  0
  191.0850  178.2100  144.2880 S   0  0  0  0  0  0  0  0  0  0  0  0
  190.0940  175.9060  143.2500 C   0  0  0  0  0  2  0  0  0  0  0  0
  188.1820  176.8000  141.8900 C   0  0  0  0  0  3  0  0  0  0  0  0
  188.6600  176.0040  142.8520 C   0  0  0  0  0  3  0  0  0  0  0  0
  188.7730  179.0170  141.2400 O   0  0  0  0  0  1  0  0  0  0  0  0
  188.9540  177.6870  141.0610 N   0  0  0  0  0  0  0  0  0  0  0  0
  189.8370  177.2040  139.9960 C   0  0  0  0  0  2  0  0  0  0  0  0
  189.0700  176.6710  138.7910 C   0  0  0  0  0  2  0  0  0  0  0  0
  187.6680  178.4880  137.7220 C   0  0  0  0  0  0  0  0  0  0  0  0
  188.8720  177.7220  137.7980 N   0  0  0  0  0  2  0  0  0  0  0  0
  186.6210  178.2560  138.6100 O   0  0  0  0  0  1  0  0  0  0  0  0
  187.5550  179.3800  136.8420 O   0  0  0  0  0  0  0  0  0  0  0  0
  185.8120  178.2060  144.5590 C   0  0  0  0  0  2  0  0  0  0  0  0
  182.3810  179.3500  143.9300 C   0  0  0  0  0  2  0  0  0  0  0  0
  184.8660  179.2280  143.9530 C   0  0  2  0  0  3  0  0  0  0  0  0
  180.0780  179.7990  143.4200 O   0  0  0  0  0  1  0  0  0  0  0  0
  181.7090  179.1200  140.8400 C   0  0  2  0  0  0  0  0  0  0  0  0
  183.5980  178.5290  143.4890 C   0  0  2  0  0  3  0  0  0  0  0  0
  185.2520  179.5020  142.5040 C   0  0  0  0  0  2  0  0  0  0  0  0
  184.3560  177.5030  141.2970 C   0  0  0  0  0  1  0  0  0  0  0  0
  184.0020  178.7860  142.0310 C   0  0  1  0  0  0  0  0  0  0  0  0
  181.0610  178.8100  143.3680 C   0  0  1  0  0  3  0  0  0  0  0  0
  183.0760  179.7260  141.2360 C   0  0  0  0  0  2  0  0  0  0  0  0
  180.8100  180.1730  140.6260 O   0  0  0  0  0  1  0  0  0  0  0  0
  181.1490  178.2060  141.9570 C   0  0  0  0  0  2  0  0  0  0  0  0
  181.2600  176.2630  138.4410 C   0  0  2  0  0  0  0  0  0  0  0  0
  183.5020  175.4340  138.1400 C   0  0  0  0  0  2  0  0  0  0  0  0
  180.0490  175.4820  137.9740 C   0  0  0  0  0  1  0  0  0  0  0  0
  182.2820  175.3200  139.0300 C   0  0  0  0  0  2  0  0  0  0  0  0
  180.8400  177.2890  139.4940 C   0  0  0  0  0  2  0  0  0  0  0  0
  181.8670  178.3310  139.5970 N   0  0  1  0  0  0  0  0  0  0  0  0
  181.7660  179.1950  138.4080 C   0  0  0  0  0  2  0  0  0  0  0  0
  183.3970  176.6820  137.3990 N   0  0  0  0  0  2  0  0  0  0  0  0
  181.9670  176.9080  137.2460 C   0  0  2  0  0  3  0  0  0  0  0  0
  181.6720  178.4040  137.0920 C   0  0  0  0  0  2  0  0  0  0  0  0
  3  4  1  0  0  0  0
  3  7  1  0  0  0  0
  4  9  1  6  0  0  0
  4  5  1  0  0  0  0
  5  8  1  0  0  0  0
  5  6  1  1  0  0  0
  7  1  1  6  0  0  0
  7  8  1  0  0  0  0
  8  2  1  1  0  0  0
  9 14  1  6  0  0  0
 10 13  1  0  0  0  0
 11 13  2  0  0  0  0
 13  9  1  0  0  0  0
 13 12  2  0  0  0  0
 15 16  2  0  0  0  0
 16 14  1  0  0  0  0
 18 17  1  0  0  0  0
 18 15  1  0  0  0  0
 19 18  1  0  0  0  0
 20 19  1  0  0  0  0
 21 22  1  0  0  0  0
 21 23  1  0  0  0  0
 22 20  1  0  0  0  0
 24 21  2  0  0  0  0
 25  1  1  0  0  0  0
 27 25  1  6  0  0  0
 29 36  1  6  0  0  0
 29 35  1  0  0  0  0
 29 37  1  0  0  0  0
 30 26  1  1  0  0  0
 30 27  1  0  0  0  0
 31 27  1  0  0  0  0
 33 32  1  6  0  0  0
 33 31  1  0  0  0  0
 33 30  1  0  0  0  0
 34 28  1  6  0  0  0
 34 26  1  0  0  0  0
 35 33  1  0  0  0  0
 37 34  1  0  0  0  0
 38 40  1  6  0  0  0
 38 41  1  0  0  0  0
 38 42  1  0  0  0  0
 39 41  1  0  0  0  0
 42 43  1  0  0  0  0
 43 44  1  6  0  0  0
 43 29  1  0  0  0  0
 45 39  1  0  0  0  0
 46 47  1  1  0  0  0
 46 45  1  0  0  0  0
 46 38  1  0  0  0  0
 47 44  1  0  0  0  0
M  END
>  <MODEL>
7

>  <REMARK>
 VINA RESULT:      -6.3      3.413      4.863
  Name = 
  12 active torsions:
  status: ('A' for Active; 'I' for Inactive)
    1  A    between atoms: C_3  and  C_13
    2  A    between atoms: C_3  and  C_34
    3  A    between atoms: C_5  and  C_38
    4  A    between atoms: C_11  and  N_28
    5  A    between atoms: C_13  and  C_15
    6  A    between atoms: C_13  and  S_32
    7  A    between atoms: C_14  and  N_17
    8  A    between atoms: N_17  and  C_45
    9  A    between atoms: N_18  and  C_29
   10  A    between atoms: C_29  and  C_45
   11  A    between atoms: C_36  and  C_38
   12  A    between atoms: C_36  and  C_40
                            x       y       z     vdW  Elec       q    Type
                         _______ _______ _______ _____ _____    ______ ____

>  <TORSDO>
F 12

$$$$
=
 OpenBabel11062417343D

 47 51  0  0  1  0  0  0  0  0999 V2000
  186.4620  177.6410  138.0160 C   0  0  0  0  0  2  0  0  0  0  0  0
  185.8060  179.5330  140.6060 O   0  0  0  0  0  1  0  0  0  0  0  0
  188.4670  177.5980  139.3810 O   0  0  0  0  0  0  0  0  0  0  0  0
  188.4860  177.2060  140.7370 C   0  0  2  0  0  3  0  0  0  0  0  0
  187.4900  178.0660  141.5090 C   0  0  1  0  0  3  0  0  0  0  0  0
  188.1030  179.3260  141.9190 N   0  0  0  0  0  1  0  0  0  0  0  0
  187.2460  178.2700  139.1670 C   0  0  2  0  0  3  0  0  0  0  0  0
  186.4480  178.3020  140.4530 C   0  0  2  0  0  3  0  0  0  0  0  0
  189.9140  177.2110  141.3040 C   0  0  2  0  0  3  0  0  0  0  0  0
  192.7550  177.4340  140.6330 C   0  0  0  0  0  1  0  0  0  0  0  0
  191.1120  175.7320  139.3750 O   0  0  0  0  0  0  0  0  0  0  0  0
  190.8140  178.1170  138.9250 O   0  0  0  0  0  0  0  0  0  0  0  0
  191.1310  177.1040  139.9900 S   0  0  0  0  0  0  0  0  0  0  0  0
  190.1030  176.0510  142.2730 C   0  0  0  0  0  2  0  0  0  0  0  0
  191.4720  177.2680  143.9900 C   0  0  0  0  0  3  0  0  0  0  0  0
  191.3120  176.2670  143.1190 C   0  0  0  0  0  3  0  0  0  0  0  0
  190.8680  179.5750  143.9880 O   0  0  0  0  0  1  0  0  0  0  0  0
  190.5140  178.3010  144.2820 N   0  0  0  0  0  0  0  0  0  0  0  0
  189.2400  178.0290  144.9530 C   0  0  0  0  0  2  0  0  0  0  0  0
  189.3520  176.9320  146.0050 C   0  0  0  0  0  2  0  0  0  0  0  0
  188.8190  177.7720  148.3340 C   0  0  0  0  0  0  0  0  0  0  0  0
  188.4180  177.1690  147.1020 N   0  0  0  0  0  2  0  0  0  0  0  0
  190.1400  178.1620  148.5370 O   0  0  0  0  0  0  0  0  0  0  0  0
  187.9680  177.9490  149.2430 O   0  0  0  0  0  1  0  0  0  0  0  0
  187.0380  178.0090  136.6550 C   0  0  0  0  0  2  0  0  0  0  0  0
  187.3210  174.3590  136.3780 C   0  0  0  0  0  2  0  0  0  0  0  0
  187.1690  176.7710  135.7850 C   0  0  2  0  0  3  0  0  0  0  0  0
  187.7360  171.9950  136.4190 O   0  0  0  0  0  1  0  0  0  0  0  0
  190.2040  173.5700  135.3220 C   0  0  2  0  0  0  0  0  0  0  0  0
  187.9990  175.7270  136.5140 C   0  0  2  0  0  3  0  0  0  0  0  0
  188.2900  176.9620  134.7710 C   0  0  0  0  0  2  0  0  0  0  0  0
  190.3530  176.5950  136.1380 C   0  0  0  0  0  1  0  0  0  0  0  0
  189.1350  175.9400  135.5050 C   0  0  1  0  0  0  0  0  0  0  0  0
  188.1670  173.2140  136.9440 C   0  0  1  0  0  3  0  0  0  0  0  0
  189.4700  174.7310  134.6110 C   0  0  0  0  0  2  0  0  0  0  0  0
  189.9720  172.3960  134.5960 O   0  0  0  0  0  1  0  0  0  0  0  0
  189.6860  173.3740  136.7680 C   0  0  0  0  0  2  0  0  0  0  0  0
  193.5290  174.5500  136.7730 C   0  0  2  0  0  0  0  0  0  0  0  0
  194.1180  176.5270  135.5270 C   0  0  0  0  0  2  0  0  0  0  0  0
  194.2700  174.1480  138.0310 C   0  0  0  0  0  1  0  0  0  0  0  0
  193.3480  176.0490  136.7420 C   0  0  0  0  0  2  0  0  0  0  0  0
  192.1620  173.8670  136.7360 C   0  0  0  0  0  2  0  0  0  0  0  0
  191.6550  173.8620  135.3590 N   0  0  1  0  0  0  0  0  0  0  0  0
  192.4140  172.8580  134.5940 C   0  0  0  0  0  2  0  0  0  0  0  0
  194.3140  175.3840  134.6480 N   0  0  0  0  0  2  0  0  0  0  0  0
  194.3750  174.2330  135.5370 C   0  0  2  0  0  3  0  0  0  0  0  0
  193.9350  172.9620  134.8020 C   0  0  0  0  0  2  0  0  0  0  0  0
  3  4  1  0  0  0  0
  4  9  1  1  0  0  0
  4  5  1  0  0  0  0
  5  6  1  6  0  0  0
  7  1  1  6  0  0  0
  7  3  1  0  0  0  0
  7  8  1  0  0  0  0
  8  2  1  1  0  0  0
  8  5  1  0  0  0  0
  9 14  1  1  0  0  0
 11 13  2  0  0  0  0
 12 13  2  0  0  0  0
 13 10  1  0  0  0  0
 13  9  1  0  0  0  0
 14 16  1  0  0  0  0
 15 18  1  0  0  0  0
 16 15  2  0  0  0  0
 17 18  1  0  0  0  0
 18 19  1  0  0  0  0
 19 20  1  0  0  0  0
 20 22  1  0  0  0  0
 21 23  2  0  0  0  0
 21 24  1  0  0  0  0
 22 21  1  0  0  0  0
 25  1  1  0  0  0  0
 26 34  1  0  0  0  0
 27 30  1  0  0  0  0
 27 25  1  1  0  0  0
 29 36  1  6  0  0  0
 29 43  1  0  0  0  0
 29 37  1  0  0  0  0
 30 26  1  6  0  0  0
 31 33  1  0  0  0  0
 31 27  1  0  0  0  0
 33 32  1  1  0  0  0
 33 30  1  0  0  0  0
 34 28  1  6  0  0  0
 35 29  1  0  0  0  0
 35 33  1  0  0  0  0
 37 34  1  0  0  0  0
 38 40  1  1  0  0  0
 39 41  1  0  0  0  0
 41 38  1  0  0  0  0
 42 38  1  0  0  0  0
 43 44  1  6  0  0  0
 43 42  1  0  0  0  0
 44 47  1  0  0  0  0
 45 39  1  0  0  0  0
 45 46  1  0  0  0  0
 46 47  1  6  0  0  0
 46 38  1  0  0  0  0
M  END
>  <MODEL>
8

>  <REMARK>
 VINA RESULT:      -6.1      4.370      9.417
  Name = 
  12 active torsions:
  status: ('A' for Active; 'I' for Inactive)
    1  A    between atoms: C_3  and  C_13
    2  A    between atoms: C_3  and  C_34
    3  A    between atoms: C_5  and  C_38
    4  A    between atoms: C_11  and  N_28
    5  A    between atoms: C_13  and  C_15
    6  A    between atoms: C_13  and  S_32
    7  A    between atoms: C_14  and  N_17
    8  A    between atoms: N_17  and  C_45
    9  A    between atoms: N_18  and  C_29
   10  A    between atoms: C_29  and  C_45
   11  A    between atoms: C_36  and  C_38
   12  A    between atoms: C_36  and  C_40
                            x       y       z     vdW  Elec       q    Type
                         _______ _______ _______ _____ _____    ______ ____

>  <TORSDO>
F 12

$$$$
=
 OpenBabel11062417343D

 47 51  0  0  1  0  0  0  0  0999 V2000
  183.2280  179.0360  144.4680 C   0  0  0  0  0  2  0  0  0  0  0  0
  184.5650  178.8000  147.4470 O   0  0  0  0  0  1  0  0  0  0  0  0
  185.6200  178.8710  144.1000 O   0  0  0  0  0  0  0  0  0  0  0  0
  186.4180  177.8120  144.5830 C   0  0  2  0  0  3  0  0  0  0  0  0
  186.2350  177.7110  146.0950 C   0  0  1  0  0  3  0  0  0  0  0  0
  187.1300  178.6340  146.7870 N   0  0  0  0  0  1  0  0  0  0  0  0
  184.6290  179.1130  145.0730 C   0  0  2  0  0  3  0  0  0  0  0  0
  184.8060  178.1560  146.2320 C   0  0  2  0  0  3  0  0  0  0  0  0
  187.8770  177.9510  144.1210 C   0  0  2  0  0  3  0  0  0  0  0  0
  188.7510  176.2800  141.8810 C   0  0  0  0  0  1  0  0  0  0  0  0
  186.6390  177.9210  141.7110 O   0  0  0  0  0  0  0  0  0  0  0  0
  188.8540  178.9520  141.8120 O   0  0  0  0  0  0  0  0  0  0  0  0
  188.0040  177.8280  142.3360 S   0  0  0  0  0  0  0  0  0  0  0  0
  188.7420  176.8790  144.7700 C   0  0  0  0  0  2  0  0  0  0  0  0
  191.1530  177.4890  145.1220 C   0  0  0  0  0  3  0  0  0  0  0  0
  189.8750  177.5000  145.5160 C   0  0  0  0  0  3  0  0  0  0  0  0
  192.0480  175.6010  143.9730 O   0  0  0  0  0  1  0  0  0  0  0  0
  191.6640  176.8980  143.9140 N   0  0  0  0  0  0  0  0  0  0  0  0
  191.8600  177.6660  142.6820 C   0  0  0  0  0  2  0  0  0  0  0  0
  191.9610  176.7790  141.4450 C   0  0  0  0  0  2  0  0  0  0  0  0
  191.0320  176.9030  139.0930 C   0  0  0  0  0  0  0  0  0  0  0  0
  191.6100  177.5260  140.2420 N   0  0  0  0  0  2  0  0  0  0  0  0
  190.7760  175.5340  139.0810 O   0  0  0  0  0  1  0  0  0  0  0  0
  190.7520  177.5990  138.0840 O   0  0  0  0  0  0  0  0  0  0  0  0
  183.2030  178.2460  143.1660 C   0  0  0  0  0  2  0  0  0  0  0  0
  180.7160  179.5900  140.8230 C   0  0  0  0  0  2  0  0  0  0  0  0
  182.8650  179.1610  142.0010 C   0  0  2  0  0  3  0  0  0  0  0  0
  179.0050  180.1650  139.2400 O   0  0  0  0  0  1  0  0  0  0  0  0
  181.3230  178.5610  137.8860 C   0  0  2  0  0  0  0  0  0  0  0  0
  181.7670  178.5270  141.1630 C   0  0  2  0  0  3  0  0  0  0  0  0
  183.8600  178.9500  140.8660 C   0  0  0  0  0  2  0  0  0  0  0  0
  183.0740  176.8190  139.8180 C   0  0  0  0  0  1  0  0  0  0  0  0
  182.7770  178.2950  140.0320 C   0  0  1  0  0  0  0  0  0  0  0  0
  179.6500  179.0850  139.8440 C   0  0  1  0  0  3  0  0  0  0  0  0
  182.5140  179.0740  138.7290 C   0  0  0  0  0  2  0  0  0  0  0  0
  180.8750  179.6130  137.0770 O   0  0  0  0  0  1  0  0  0  0  0  0
  180.1530  178.0910  138.7850 C   0  0  0  0  0  2  0  0  0  0  0  0
  181.3810  175.0950  136.4380 C   0  0  2  0  0  0  0  0  0  0  0  0
  183.5520  174.2650  137.0710 C   0  0  0  0  0  2  0  0  0  0  0  0
  180.3030  174.1800  135.8940 C   0  0  0  0  0  1  0  0  0  0  0  0
  182.1240  174.4030  137.5560 C   0  0  0  0  0  2  0  0  0  0  0  0
  180.7500  176.3850  136.9620 C   0  0  0  0  0  2  0  0  0  0  0  0
  181.7750  177.4320  137.0430 N   0  0  1  0  0  0  0  0  0  0  0  0
  182.0780  177.8840  135.6740 C   0  0  0  0  0  2  0  0  0  0  0  0
  183.7500  175.2210  135.9920 N   0  0  0  0  0  2  0  0  0  0  0  0
  182.4430  175.3560  135.3660 C   0  0  2  0  0  3  0  0  0  0  0  0
  182.3090  176.7240  134.6900 C   0  0  0  0  0  2  0  0  0  0  0  0
  3  4  1  0  0  0  0
  3  7  1  0  0  0  0
  4  9  1  1  0  0  0
  4  5  1  0  0  0  0
  5  8  1  0  0  0  0
  5  6  1  1  0  0  0
  7  1  1  6  0  0  0
  7  8  1  0  0  0  0
  8  2  1  1  0  0  0
  9 14  1  1  0  0  0
 10 13  1  0  0  0  0
 11 13  2  0  0  0  0
 12 13  2  0  0  0  0
 13  9  1  0  0  0  0
 14 16  1  0  0  0  0
 15 16  2  0  0  0  0
 18 17  1  0  0  0  0
 18 15  1  0  0  0  0
 19 18  1  0  0  0  0
 20 19  1  0  0  0  0
 21 22  1  0  0  0  0
 22 20  1  0  0  0  0
 23 21  1  0  0  0  0
 24 21  2  0  0  0  0
 25  1  1  0  0  0  0
 27 25  1  1  0  0  0
 29 36  1  6  0  0  0
 29 35  1  0  0  0  0
 29 37  1  0  0  0  0
 30 26  1  6  0  0  0
 30 27  1  0  0  0  0
 31 27  1  0  0  0  0
 33 32  1  6  0  0  0
 33 31  1  0  0  0  0
 33 30  1  0  0  0  0
 34 28  1  6  0  0  0
 34 26  1  0  0  0  0
 35 33  1  0  0  0  0
 37 34  1  0  0  0  0
 38 40  1  6  0  0  0
 38 42  1  0  0  0  0
 38 41  1  0  0  0  0
 39 41  1  0  0  0  0
 42 43  1  0  0  0  0
 43 44  1  6  0  0  0
 43 29  1  0  0  0  0
 45 39  1  0  0  0  0
 46 47  1  1  0  0  0
 46 45  1  0  0  0  0
 46 38  1  0  0  0  0
 47 44  1  0  0  0  0
M  END
>  <MODEL>
9

>  <REMARK>
 VINA RESULT:      -6.0      2.740      4.474
  Name = 
  12 active torsions:
  status: ('A' for Active; 'I' for Inactive)
    1  A    between atoms: C_3  and  C_13
    2  A    between atoms: C_3  and  C_34
    3  A    between atoms: C_5  and  C_38
    4  A    between atoms: C_11  and  N_28
    5  A    between atoms: C_13  and  C_15
    6  A    between atoms: C_13  and  S_32
    7  A    between atoms: C_14  and  N_17
    8  A    between atoms: N_17  and  C_45
    9  A    between atoms: N_18  and  C_29
   10  A    between atoms: C_29  and  C_45
   11  A    between atoms: C_36  and  C_38
   12  A    between atoms: C_36  and  C_40
                            x       y       z     vdW  Elec       q    Type
                         _______ _______ _______ _____ _____    ______ ____

>  <TORSDO>
F 12

$$$$
