=
 OpenBabel11062415043D

 31 38  0  0  1  0  0  0  0  0999 V2000
  190.0640  177.0580  145.3110 C   0  0  0  0  0  3  0  0  0  0  0  0
  187.2360  177.4830  141.3280 O   0  0  0  0  0  0  0  0  0  0  0  0
  187.7700  178.0910  142.4690 C   0  0  1  0  0  3  0  0  0  0  0  0
  186.5690  178.4760  140.5660 C   0  0  0  0  0  2  0  0  0  0  0  0
  189.0560  177.3890  144.4000 C   0  0  0  0  0  0  0  0  0  0  0  0
  189.8970  176.5490  142.1230 C   0  0  2  0  0  3  0  0  0  0  0  0
  185.8000  178.8830  143.7830 C   0  0  0  0  0  2  0  0  0  0  0  0
  191.2790  178.6370  143.1160 O   0  0  0  0  0  0  0  0  0  0  0  0
  191.1940  176.8470  140.0380 C   0  0  0  0  0  0  0  0  0  0  0  0
  186.8400  177.7870  143.6460 C   0  0  2  0  0  3  0  0  0  0  0  0
  187.3980  177.4640  146.1540 C   0  0  0  0  0  3  0  0  0  0  0  0
  189.1340  176.0380  139.6370 N   0  0  0  0  0  0  0  0  0  0  0  0
  191.0110  176.8310  138.5650 C   0  0  0  0  0  3  0  0  0  0  0  0
  190.3560  178.0590  142.2230 C   0  0  2  0  0  0  0  0  0  0  0  0
  193.1150  178.2790  140.4390 O   0  0  0  0  0  0  0  0  0  0  0  0
  188.0490  177.0170  148.5270 C   0  0  0  0  0  1  0  0  0  0  0  0
  187.7570  177.6030  144.8120 C   0  0  0  0  0  0  0  0  0  0  0  0
  189.7240  176.9470  146.6670 C   0  0  0  0  0  3  0  0  0  0  0  0
  190.0810  176.4110  140.6070 C   0  0  0  0  0  0  0  0  0  0  0  0
  191.7920  177.5750  142.3790 C   0  0  1  0  0  3  0  0  0  0  0  0
  185.6750  179.4830  141.3360 C   0  0  0  0  0  2  0  0  0  0  0  0
  192.1360  177.6330  140.8960 C   0  0  0  0  0  0  0  0  0  0  0  0
  189.1220  177.5540  142.9260 C   0  0  1  0  0  0  0  0  0  0  0  0
  188.3980  177.1530  147.0880 C   0  0  0  0  0  0  0  0  0  0  0  0
  184.9190  178.8950  142.5300 C   0  0  0  0  0  2  0  0  0  0  0  0
  189.6620  176.2420  138.3440 N   0  0  0  0  0  0  0  0  0  0  0  0
  188.1960  176.6630  136.2860 C   0  0  0  0  0  2  0  0  0  0  0  0
  187.2920  176.6930  137.5190 C   0  0  0  0  0  2  0  0  0  0  0  0
  188.7360  177.1390  137.6200 C   0  0  0  0  0  0  0  0  0  0  0  0
  187.9060  179.3200  137.1200 O   0  0  0  0  0  1  0  0  0  0  0  0
  188.9400  178.6380  137.7620 C   0  0  0  0  0  2  0  0  0  0  0  0
  1 18  1  0  0  0  0
  3  2  1  6  0  0  0
  3 23  1  0  0  0  0
  3 10  1  0  0  0  0
  4  2  1  0  0  0  0
  4 21  1  0  0  0  0
  5 17  1  0  0  0  0
  5  1  2  0  0  0  0
  6 19  1  6  0  0  0
  6 14  1  0  0  0  0
  6 23  1  0  0  0  0
  9 19  1  0  0  0  0
  9 22  1  0  0  0  0
 10  7  1  1  0  0  0
 10 17  1  0  0  0  0
 11 24  1  0  0  0  0
 12 19  2  0  0  0  0
 13  9  2  0  0  0  0
 14 20  1  0  0  0  0
 14 23  1  0  0  0  0
 14  8  1  6  0  0  0
 15 22  2  0  0  0  0
 17 11  2  0  0  0  0
 18 24  2  0  0  0  0
 20 22  1  6  0  0  0
 20  8  1  0  0  0  0
 21 25  1  0  0  0  0
 23  5  1  1  0  0  0
 24 16  1  0  0  0  0
 25  7  1  0  0  0  0
 26 13  1  0  0  0  0
 26 12  1  0  0  0  0
 27 28  1  0  0  0  0
 27 29  1  0  0  0  0
 28 29  1  0  0  0  0
 29 31  1  0  0  0  0
 29 26  1  0  0  0  0
 30 31  1  0  0  0  0
M  END
>  <MODEL>
1

>  <REMARK>
 VINA RESULT:      -8.3      0.000      0.000
  Name = 
  2 active torsions:
  status: ('A' for Active; 'I' for Inactive)
    1  A    between atoms: C_26  and  C_31
    2  A    between atoms: N_30  and  C_31
                            x       y       z     vdW  Elec       q    Type
                         _______ _______ _______ _____ _____    ______ ____

>  <TORSDO>
F 2

$$$$
=
 OpenBabel11062415043D

 31 38  0  0  1  0  0  0  0  0999 V2000
  185.4180  178.2830  143.2110 C   0  0  0  0  0  3  0  0  0  0  0  0
  181.0950  178.3120  140.8980 O   0  0  0  0  0  0  0  0  0  0  0  0
  182.0560  179.0320  141.6150 C   0  0  1  0  0  3  0  0  0  0  0  0
  180.1180  179.2250  140.4240 C   0  0  0  0  0  2  0  0  0  0  0  0
  184.0970  178.5240  142.8220 C   0  0  0  0  0  0  0  0  0  0  0  0
  183.8660  177.4500  140.5000 C   0  0  2  0  0  3  0  0  0  0  0  0
  180.8490  179.9670  143.5900 C   0  0  0  0  0  2  0  0  0  0  0  0
  185.4600  179.6200  140.5660 O   0  0  0  0  0  0  0  0  0  0  0  0
  184.0830  177.5230  138.0370 C   0  0  0  0  0  0  0  0  0  0  0  0
  181.7630  178.8560  143.1060 C   0  0  2  0  0  3  0  0  0  0  0  0
  183.3940  178.7900  145.1160 C   0  0  0  0  0  3  0  0  0  0  0  0
  182.0950  176.6890  138.6810 N   0  0  0  0  0  2  0  0  0  0  0  0
  183.2630  177.3560  136.8110 C   0  0  0  0  0  2  0  0  0  0  0  0
  184.2590  178.9590  140.2400 C   0  0  2  0  0  0  0  0  0  0  0  0
  185.9210  178.9760  137.3970 O   0  0  0  0  0  0  0  0  0  0  0  0
  185.0530  178.5870  146.9760 C   0  0  0  0  0  1  0  0  0  0  0  0
  183.1100  178.7870  143.7490 C   0  0  0  0  0  0  0  0  0  0  0  0
  185.7240  178.3150  144.5790 C   0  0  0  0  0  3  0  0  0  0  0  0
  183.3600  177.1550  139.0830 C   0  0  0  0  0  0  0  0  0  0  0  0
  185.6330  178.4840  139.7810 C   0  0  1  0  0  3  0  0  0  0  0  0
  179.6210  180.3120  141.4140 C   0  0  0  0  0  2  0  0  0  0  0  0
  185.2760  178.3870  138.3030 C   0  0  0  0  0  0  0  0  0  0  0  0
  183.4910  178.5360  141.4660 C   0  0  1  0  0  0  0  0  0  0  0  0
  184.7170  178.5710  145.5290 C   0  0  0  0  0  0  0  0  0  0  0  0
  179.5020  179.8540  142.8700 C   0  0  0  0  0  2  0  0  0  0  0  0
  181.9820  176.7550  137.2750 N   0  0  2  0  0  0  0  0  0  0  0  0
  180.9830  179.0800  136.8780 C   0  0  0  0  0  2  0  0  0  0  0  0
  180.7720  178.2560  135.6070 C   0  0  0  0  0  2  0  0  0  0  0  0
  180.7950  177.5780  136.9620 C   0  0  0  0  0  0  0  0  0  0  0  0
  179.1830  175.8180  136.9860 O   0  0  0  0  0  1  0  0  0  0  0  0
  179.4430  177.1020  137.4670 C   0  0  0  0  0  2  0  0  0  0  0  0
  1 18  1  0  0  0  0
  3  2  1  6  0  0  0
  3 10  1  0  0  0  0
  4  2  1  0  0  0  0
  4 21  1  0  0  0  0
  5  1  2  0  0  0  0
  5 17  1  0  0  0  0
  6 19  1  6  0  0  0
  6 23  1  0  0  0  0
  9 22  1  0  0  0  0
  9 19  2  0  0  0  0
 10  7  1  1  0  0  0
 10 17  1  0  0  0  0
 11 24  1  0  0  0  0
 12 19  1  0  0  0  0
 13  9  1  0  0  0  0
 14  6  1  0  0  0  0
 14  8  1  6  0  0  0
 14 23  1  0  0  0  0
 15 22  2  0  0  0  0
 17 11  2  0  0  0  0
 18 24  2  0  0  0  0
 20 22  1  6  0  0  0
 20 14  1  0  0  0  0
 20  8  1  0  0  0  0
 21 25  1  0  0  0  0
 23  3  1  0  0  0  0
 23  5  1  1  0  0  0
 24 16  1  0  0  0  0
 25  7  1  0  0  0  0
 26 13  1  6  0  0  0
 26 12  1  0  0  0  0
 27 29  1  0  0  0  0
 28 27  1  0  0  0  0
 28 29  1  0  0  0  0
 29 26  1  0  0  0  0
 29 31  1  0  0  0  0
 30 31  1  0  0  0  0
M  END
>  <MODEL>
2

>  <REMARK>
 VINA RESULT:      -7.9      4.606      6.568
  Name = 
  2 active torsions:
  status: ('A' for Active; 'I' for Inactive)
    1  A    between atoms: C_26  and  C_31
    2  A    between atoms: N_30  and  C_31
                            x       y       z     vdW  Elec       q    Type
                         _______ _______ _______ _____ _____    ______ ____

>  <TORSDO>
F 2

$$$$
=
 OpenBabel11062415043D

 31 38  0  0  1  0  0  0  0  0999 V2000
  182.7790  178.6690  144.4600 C   0  0  0  0  0  3  0  0  0  0  0  0
  187.1450  177.5990  142.5020 O   0  0  0  0  0  0  0  0  0  0  0  0
  186.1030  178.5240  142.6350 C   0  0  1  0  0  3  0  0  0  0  0  0
  188.2080  178.2240  141.8020 C   0  0  0  0  0  2  0  0  0  0  0  0
  183.8860  178.5500  143.6150 C   0  0  0  0  0  0  0  0  0  0  0  0
  185.7530  177.5630  145.0790 C   0  0  2  0  0  3  0  0  0  0  0  0
  185.3300  178.9910  140.3080 C   0  0  0  0  0  2  0  0  0  0  0  0
  185.0580  180.0870  145.7170 O   0  0  0  0  0  0  0  0  0  0  0  0
  187.6210  177.8090  146.6810 C   0  0  0  0  0  0  0  0  0  0  0  0
  185.0480  178.2040  141.5740 C   0  0  2  0  0  3  0  0  0  0  0  0
  182.4770  178.5010  141.6550 C   0  0  0  0  0  3  0  0  0  0  0  0
  188.1440  176.4250  144.9860 N   0  0  0  0  0  0  0  0  0  0  0  0
  189.0620  177.4780  146.8180 C   0  0  0  0  0  3  0  0  0  0  0  0
  185.9290  179.1330  145.1540 C   0  0  2  0  0  0  0  0  0  0  0  0
  187.2620  179.7460  148.1020 O   0  0  0  0  0  0  0  0  0  0  0  0
  179.9940  178.6820  141.8810 C   0  0  0  0  0  1  0  0  0  0  0  0
  183.7430  178.4840  142.2450 C   0  0  0  0  0  0  0  0  0  0  0  0
  181.5030  178.7200  143.8790 C   0  0  0  0  0  3  0  0  0  0  0  0
  187.1490  177.2050  145.6010 C   0  0  0  0  0  0  0  0  0  0  0  0
  185.4440  179.0820  146.5980 C   0  0  1  0  0  3  0  0  0  0  0  0
  187.8370  179.0820  140.5630 C   0  0  0  0  0  2  0  0  0  0  0  0
  186.8290  178.9590  147.2210 C   0  0  0  0  0  0  0  0  0  0  0  0
  185.3300  178.4560  143.9480 C   0  0  1  0  0  0  0  0  0  0  0  0
  181.3520  178.6410  142.4820 C   0  0  0  0  0  0  0  0  0  0  0  0
  186.6740  178.5420  139.7280 C   0  0  0  0  0  2  0  0  0  0  0  0
  189.3510  176.5230  145.7120 N   0  0  0  0  0  0  0  0  0  0  0  0
  191.6770  176.1900  144.6920 C   0  0  0  0  0  2  0  0  0  0  0  0
  190.6550  176.1430  143.5540 C   0  0  0  0  0  2  0  0  0  0  0  0
  190.3960  176.9960  144.7800 C   0  0  0  0  0  0  0  0  0  0  0  0
  191.8160  178.7920  144.1050 O   0  0  0  0  0  1  0  0  0  0  0  0
  190.5320  178.4940  144.5630 C   0  0  0  0  0  2  0  0  0  0  0  0
  3  2  1  1  0  0  0
  3 23  1  0  0  0  0
  4  2  1  0  0  0  0
  5  1  2  0  0  0  0
  6 14  1  0  0  0  0
  6 19  1  6  0  0  0
  9 13  2  0  0  0  0
  9 22  1  0  0  0  0
 10  7  1  6  0  0  0
 10 17  1  0  0  0  0
 10  3  1  0  0  0  0
 11 17  2  0  0  0  0
 11 24  1  0  0  0  0
 12 19  2  0  0  0  0
 12 26  1  0  0  0  0
 14  8  1  6  0  0  0
 14 20  1  0  0  0  0
 16 24  1  0  0  0  0
 17  5  1  0  0  0  0
 18  1  1  0  0  0  0
 19  9  1  0  0  0  0
 20  8  1  1  0  0  0
 20 22  1  0  0  0  0
 21  4  1  0  0  0  0
 22 15  2  0  0  0  0
 23  5  1  6  0  0  0
 23  6  1  0  0  0  0
 23 14  1  0  0  0  0
 24 18  2  0  0  0  0
 25  7  1  0  0  0  0
 25 21  1  0  0  0  0
 26 13  1  0  0  0  0
 27 29  1  0  0  0  0
 28 27  1  0  0  0  0
 28 29  1  0  0  0  0
 29 26  1  0  0  0  0
 30 31  1  0  0  0  0
 31 29  1  0  0  0  0
M  END
>  <MODEL>
3

>  <REMARK>
 VINA RESULT:      -7.7      2.874      6.611
  Name = 
  2 active torsions:
  status: ('A' for Active; 'I' for Inactive)
    1  A    between atoms: C_26  and  C_31
    2  A    between atoms: N_30  and  C_31
                            x       y       z     vdW  Elec       q    Type
                         _______ _______ _______ _____ _____    ______ ____

>  <TORSDO>
F 2

$$$$
=
 OpenBabel11062415043D

 31 38  0  0  1  0  0  0  0  0999 V2000
  180.7420  178.3470  141.1390 C   0  0  0  0  0  3  0  0  0  0  0  0
  185.6270  178.6940  141.3710 O   0  0  0  0  0  0  0  0  0  0  0  0
  184.4640  178.0590  141.8200 C   0  0  1  0  0  3  0  0  0  0  0  0
  186.7450  177.9980  141.8950 C   0  0  0  0  0  2  0  0  0  0  0  0
  182.0740  178.3710  141.5600 C   0  0  0  0  0  0  0  0  0  0  0  0
  183.4650  178.4900  139.4040 C   0  0  2  0  0  3  0  0  0  0  0  0
  184.4650  178.3480  144.2990 C   0  0  0  0  0  2  0  0  0  0  0  0
  182.1860  176.1480  139.7720 O   0  0  0  0  0  0  0  0  0  0  0  0
  184.6070  177.4190  137.4890 C   0  0  0  0  0  0  0  0  0  0  0  0
  183.9030  178.8700  142.9900 C   0  0  2  0  0  3  0  0  0  0  0  0
  181.4470  179.2230  143.7310 C   0  0  0  0  0  3  0  0  0  0  0  0
  185.8990  178.9750  138.4730 N   0  0  0  0  0  2  0  0  0  0  0  0
  185.9480  177.3340  136.8580 C   0  0  0  0  0  2  0  0  0  0  0  0
  183.3420  176.9530  139.7540 C   0  0  2  0  0  0  0  0  0  0  0  0
  183.4680  175.3640  136.8730 O   0  0  0  0  0  0  0  0  0  0  0  0
  179.0420  179.6310  144.2800 C   0  0  0  0  0  1  0  0  0  0  0  0
  182.4200  178.7840  142.8300 C   0  0  0  0  0  0  0  0  0  0  0  0
  179.7510  178.7540  142.0440 C   0  0  0  0  0  3  0  0  0  0  0  0
  184.6380  178.3530  138.4270 C   0  0  0  0  0  0  0  0  0  0  0  0
  182.4090  176.7930  138.5590 C   0  0  1  0  0  3  0  0  0  0  0  0
  186.6820  177.5700  143.3850 C   0  0  0  0  0  2  0  0  0  0  0  0
  183.4980  176.4150  137.5630 C   0  0  0  0  0  0  0  0  0  0  0  0
  183.3120  178.0170  140.8210 C   0  0  1  0  0  0  0  0  0  0  0  0
  180.1010  179.1870  143.3370 C   0  0  0  0  0  0  0  0  0  0  0  0
  185.9800  178.5630  144.3140 C   0  0  0  0  0  2  0  0  0  0  0  0
  186.7510  178.4110  137.5000 N   0  0  2  0  0  0  0  0  0  0  0  0
  188.2000  176.4190  138.2030 C   0  0  0  0  0  2  0  0  0  0  0  0
  189.0570  177.3380  137.3290 C   0  0  0  0  0  2  0  0  0  0  0  0
  187.9580  177.9160  138.1960 C   0  0  0  0  0  0  0  0  0  0  0  0
  189.5910  178.0800  139.9290 O   0  0  0  0  0  1  0  0  0  0  0  0
  188.4350  178.6750  139.4230 C   0  0  0  0  0  2  0  0  0  0  0  0
  1  5  2  0  0  0  0
  1 18  1  0  0  0  0
  2  4  1  0  0  0  0
  3  2  1  6  0  0  0
  3 10  1  0  0  0  0
  4 21  1  0  0  0  0
  5 17  1  0  0  0  0
  6 19  1  1  0  0  0
  6 14  1  0  0  0  0
  6 23  1  0  0  0  0
  7 25  1  0  0  0  0
  9 22  1  0  0  0  0
  9 19  2  0  0  0  0
 10  7  1  1  0  0  0
 13  9  1  0  0  0  0
 14  8  1  6  0  0  0
 14 23  1  0  0  0  0
 15 22  2  0  0  0  0
 17 10  1  0  0  0  0
 17 11  2  0  0  0  0
 18 24  2  0  0  0  0
 19 12  1  0  0  0  0
 20 22  1  6  0  0  0
 20 14  1  0  0  0  0
 20  8  1  0  0  0  0
 21 25  1  0  0  0  0
 23  5  1  1  0  0  0
 23  3  1  0  0  0  0
 24 11  1  0  0  0  0
 24 16  1  0  0  0  0
 26 13  1  1  0  0  0
 26 29  1  0  0  0  0
 26 12  1  0  0  0  0
 28 29  1  0  0  0  0
 28 27  1  0  0  0  0
 29 27  1  0  0  0  0
 29 31  1  0  0  0  0
 31 30  1  0  0  0  0
M  END
>  <MODEL>
4

>  <REMARK>
 VINA RESULT:      -7.6      3.355      6.551
  Name = 
  2 active torsions:
  status: ('A' for Active; 'I' for Inactive)
    1  A    between atoms: C_26  and  C_31
    2  A    between atoms: N_30  and  C_31
                            x       y       z     vdW  Elec       q    Type
                         _______ _______ _______ _____ _____    ______ ____

>  <TORSDO>
F 2

$$$$
=
 OpenBabel11062415043D

 31 38  0  0  1  0  0  0  0  0999 V2000
  182.6690  178.5760  142.6000 C   0  0  0  0  0  3  0  0  0  0  0  0
  187.4100  177.5650  141.8630 O   0  0  0  0  0  0  0  0  0  0  0  0
  186.3450  178.4490  141.6630 C   0  0  1  0  0  3  0  0  0  0  0  0
  188.5970  178.1850  141.3980 C   0  0  0  0  0  2  0  0  0  0  0  0
  183.9540  178.4460  142.0650 C   0  0  0  0  0  0  0  0  0  0  0  0
  185.4240  177.6500  144.0160 C   0  0  2  0  0  3  0  0  0  0  0  0
  186.1600  178.7150  139.1880 C   0  0  0  0  0  2  0  0  0  0  0  0
  184.5290  180.1800  144.2590 O   0  0  0  0  0  0  0  0  0  0  0  0
  186.8310  178.0920  146.0010 C   0  0  0  0  0  0  0  0  0  0  0  0
  185.5940  178.0080  140.4050 C   0  0  2  0  0  3  0  0  0  0  0  0
  183.0760  178.1960  139.8300 C   0  0  0  0  0  3  0  0  0  0  0  0
  187.7920  176.6160  144.6020 N   0  0  0  0  0  0  0  0  0  0  0  0
  188.2010  177.8360  146.5130 C   0  0  0  0  0  3  0  0  0  0  0  0
  185.5370  179.2280  144.0060 C   0  0  2  0  0  0  0  0  0  0  0  0
  186.0820  180.1080  147.1320 O   0  0  0  0  0  0  0  0  0  0  0  0
  180.6100  178.2820  139.4250 C   0  0  0  0  0  1  0  0  0  0  0  0
  184.1560  178.2770  140.7110 C   0  0  0  0  0  0  0  0  0  0  0  0
  181.5760  178.5300  141.7220 C   0  0  0  0  0  3  0  0  0  0  0  0
  186.6560  177.3930  144.8910 C   0  0  0  0  0  0  0  0  0  0  0  0
  184.7100  179.2580  145.2860 C   0  0  1  0  0  3  0  0  0  0  0  0
  188.5230  178.9340  140.0410 C   0  0  0  0  0  2  0  0  0  0  0  0
  185.9000  179.2410  146.2370 C   0  0  0  0  0  0  0  0  0  0  0  0
  185.2720  178.4410  142.7480 C   0  0  1  0  0  0  0  0  0  0  0  0
  181.7780  178.3440  140.3420 C   0  0  0  0  0  0  0  0  0  0  0  0
  187.6160  178.2850  138.9930 C   0  0  0  0  0  2  0  0  0  0  0  0
  188.7780  176.8180  145.5920 N   0  0  0  0  0  0  0  0  0  0  0  0
  191.3000  176.5440  145.2350 C   0  0  0  0  0  2  0  0  0  0  0  0
  190.6090  176.3260  143.8870 C   0  0  0  0  0  2  0  0  0  0  0  0
  190.0090  177.2690  144.9090 C   0  0  0  0  0  0  0  0  0  0  0  0
  191.2940  178.9640  143.8240 O   0  0  0  0  0  1  0  0  0  0  0  0
  190.1390  178.7470  144.5760 C   0  0  0  0  0  2  0  0  0  0  0  0
  3  2  1  1  0  0  0
  3 23  1  0  0  0  0
  4  2  1  0  0  0  0
  5  1  1  0  0  0  0
  6 19  1  6  0  0  0
  9 22  1  0  0  0  0
  9 13  2  0  0  0  0
 10  7  1  6  0  0  0
 10 17  1  0  0  0  0
 10  3  1  0  0  0  0
 11 24  2  0  0  0  0
 11 17  1  0  0  0  0
 12 19  2  0  0  0  0
 12 26  1  0  0  0  0
 14  6  1  0  0  0  0
 14  8  1  1  0  0  0
 14 20  1  0  0  0  0
 16 24  1  0  0  0  0
 17  5  2  0  0  0  0
 18  1  2  0  0  0  0
 19  9  1  0  0  0  0
 20  8  1  6  0  0  0
 20 22  1  0  0  0  0
 21  4  1  0  0  0  0
 22 15  2  0  0  0  0
 23  5  1  6  0  0  0
 23 14  1  0  0  0  0
 23  6  1  0  0  0  0
 24 18  1  0  0  0  0
 25  7  1  0  0  0  0
 25 21  1  0  0  0  0
 26 13  1  0  0  0  0
 28 29  1  0  0  0  0
 28 27  1  0  0  0  0
 29 27  1  0  0  0  0
 29 26  1  0  0  0  0
 30 31  1  0  0  0  0
 31 29  1  0  0  0  0
M  END
>  <MODEL>
5

>  <REMARK>
 VINA RESULT:      -7.6      2.794      6.883
  Name = 
  2 active torsions:
  status: ('A' for Active; 'I' for Inactive)
    1  A    between atoms: C_26  and  C_31
    2  A    between atoms: N_30  and  C_31
                            x       y       z     vdW  Elec       q    Type
                         _______ _______ _______ _____ _____    ______ ____

>  <TORSDO>
F 2

$$$$
=
 OpenBabel11062415043D

 31 38  0  0  1  0  0  0  0  0999 V2000
  186.6530  178.0110  139.3810 C   0  0  0  0  0  3  0  0  0  0  0  0
  189.3320  177.2080  143.4080 O   0  0  0  0  0  0  0  0  0  0  0  0
  189.1290  177.9770  142.2570 C   0  0  1  0  0  3  0  0  0  0  0  0
  190.3510  177.8210  144.1790 C   0  0  0  0  0  2  0  0  0  0  0  0
  187.6920  177.8820  140.3070 C   0  0  0  0  0  0  0  0  0  0  0  0
  186.5400  177.5070  142.5720 C   0  0  2  0  0  3  0  0  0  0  0  0
  191.2660  177.8300  140.9750 C   0  0  0  0  0  2  0  0  0  0  0  0
  186.2080  179.9790  141.5520 O   0  0  0  0  0  0  0  0  0  0  0  0
  185.4700  178.3530  144.6340 C   0  0  0  0  0  0  0  0  0  0  0  0
  189.8520  177.2910  141.0960 C   0  0  2  0  0  3  0  0  0  0  0  0
  189.2440  177.2190  138.5800 C   0  0  0  0  0  3  0  0  0  0  0  0
  186.9730  176.7380  145.0700 N   0  0  0  0  0  2  0  0  0  0  0  0
  185.6070  178.2720  146.1110 C   0  0  0  0  0  2  0  0  0  0  0  0
  186.7790  179.0660  142.4620 C   0  0  2  0  0  0  0  0  0  0  0  0
  184.3610  180.4700  144.2000 O   0  0  0  0  0  0  0  0  0  0  0  0
  188.4980  177.0780  136.1980 C   0  0  0  0  0  1  0  0  0  0  0  0
  188.9620  177.5110  139.9160 C   0  0  0  0  0  0  0  0  0  0  0  0
  186.9310  177.7530  138.0300 C   0  0  0  0  0  3  0  0  0  0  0  0
  186.2930  177.4750  144.0840 C   0  0  0  0  0  0  0  0  0  0  0  0
  185.2770  179.2480  142.2830 C   0  0  1  0  0  3  0  0  0  0  0  0
  191.6030  178.3370  143.4220 C   0  0  0  0  0  2  0  0  0  0  0  0
  184.9710  179.4620  143.7600 C   0  0  0  0  0  0  0  0  0  0  0  0
  187.6830  178.0720  141.7790 C   0  0  1  0  0  0  0  0  0  0  0  0
  188.2220  177.3630  137.6300 C   0  0  0  0  0  0  0  0  0  0  0  0
  192.0470  177.4710  142.2410 C   0  0  0  0  0  2  0  0  0  0  0  0
  186.5670  177.1600  146.3540 N   0  0  2  0  0  0  0  0  0  0  0  0
  187.9590  179.0550  147.3690 C   0  0  0  0  0  2  0  0  0  0  0  0
  187.5770  178.0980  148.5000 C   0  0  0  0  0  2  0  0  0  0  0  0
  187.7790  177.5760  147.0920 C   0  0  0  0  0  0  0  0  0  0  0  0
  190.0710  177.2810  147.6850 O   0  0  0  0  0  1  0  0  0  0  0  0
  189.0530  176.7760  146.8770 C   0  0  0  0  0  2  0  0  0  0  0  0
  1  5  1  0  0  0  0
  2  4  1  0  0  0  0
  3  2  1  1  0  0  0
  6 19  1  1  0  0  0
  7 25  1  0  0  0  0
  9 13  1  0  0  0  0
 10  7  1  6  0  0  0
 10  3  1  0  0  0  0
 11 17  1  0  0  0  0
 12 26  1  0  0  0  0
 14  8  1  1  0  0  0
 14  6  1  0  0  0  0
 16 24  1  0  0  0  0
 17  5  2  0  0  0  0
 17 10  1  0  0  0  0
 18  1  2  0  0  0  0
 19  9  2  0  0  0  0
 19 12  1  0  0  0  0
 20  8  1  6  0  0  0
 20 14  1  0  0  0  0
 20 22  1  0  0  0  0
 21  4  1  0  0  0  0
 22 15  2  0  0  0  0
 22  9  1  0  0  0  0
 23  5  1  6  0  0  0
 23  3  1  0  0  0  0
 23 14  1  0  0  0  0
 23  6  1  0  0  0  0
 24 18  1  0  0  0  0
 24 11  2  0  0  0  0
 25 21  1  0  0  0  0
 26 13  1  6  0  0  0
 26 29  1  0  0  0  0
 27 28  1  0  0  0  0
 29 27  1  0  0  0  0
 29 28  1  0  0  0  0
 31 29  1  0  0  0  0
 31 30  1  0  0  0  0
M  END
>  <MODEL>
6

>  <REMARK>
 VINA RESULT:      -7.0      2.431      7.532
  Name = 
  2 active torsions:
  status: ('A' for Active; 'I' for Inactive)
    1  A    between atoms: C_26  and  C_31
    2  A    between atoms: N_30  and  C_31
                            x       y       z     vdW  Elec       q    Type
                         _______ _______ _______ _____ _____    ______ ____

>  <TORSDO>
F 2

$$$$
=
 OpenBabel11062415043D

 31 38  0  0  1  0  0  0  0  0999 V2000
  191.0730  176.5540  144.8110 C   0  0  0  0  0  3  0  0  0  0  0  0
  186.4850  177.9260  145.8630 O   0  0  0  0  0  0  0  0  0  0  0  0
  187.8530  178.2040  145.9570 C   0  0  1  0  0  3  0  0  0  0  0  0
  185.7680  179.0440  146.3600 C   0  0  0  0  0  2  0  0  0  0  0  0
  189.9220  177.0600  145.4230 C   0  0  0  0  0  0  0  0  0  0  0  0
  188.1110  177.0170  143.6020 C   0  0  2  0  0  3  0  0  0  0  0  0
  188.3230  178.4000  148.4010 C   0  0  0  0  0  2  0  0  0  0  0  0
  190.0720  178.8150  143.1760 O   0  0  0  0  0  0  0  0  0  0  0  0
  186.9370  178.0340  141.6770 C   0  0  0  0  0  0  0  0  0  0  0  0
  188.3970  177.4840  147.1930 C   0  0  2  0  0  3  0  0  0  0  0  0
  190.7410  176.4680  147.6160 C   0  0  0  0  0  3  0  0  0  0  0  0
  185.4990  177.2180  143.2030 N   0  0  0  0  0  2  0  0  0  0  0  0
  185.5740  178.4470  141.2560 C   0  0  0  0  0  2  0  0  0  0  0  0
  188.7570  178.4590  143.5350 C   0  0  2  0  0  0  0  0  0  0  0  0
  188.4620  179.4300  140.4020 O   0  0  0  0  0  0  0  0  0  0  0  0
  192.9780  175.3820  147.8780 C   0  0  0  0  0  1  0  0  0  0  0  0
  189.7650  177.0330  146.7930 C   0  0  0  0  0  0  0  0  0  0  0  0
  192.0760  176.0130  145.6280 C   0  0  0  0  0  3  0  0  0  0  0  0
  186.8430  177.3570  142.8110 C   0  0  0  0  0  0  0  0  0  0  0  0
  189.4030  178.0690  142.2100 C   0  0  1  0  0  3  0  0  0  0  0  0
  186.2870  179.6960  147.6700 C   0  0  0  0  0  2  0  0  0  0  0  0
  188.2790  178.5990  141.3290 C   0  0  0  0  0  0  0  0  0  0  0  0
  188.7110  177.6660  144.8160 C   0  0  1  0  0  0  0  0  0  0  0  0
  191.9140  175.9730  147.0250 C   0  0  0  0  0  0  0  0  0  0  0  0
  186.8550  178.7160  148.6990 C   0  0  0  0  0  2  0  0  0  0  0  0
  184.6550  177.8440  142.2600 N   0  0  2  0  0  0  0  0  0  0  0  0
  183.8670  178.8020  144.5010 C   0  0  0  0  0  2  0  0  0  0  0  0
  184.5840  179.9190  143.7400 C   0  0  0  0  0  2  0  0  0  0  0  0
  183.8360  178.8380  142.9860 C   0  0  0  0  0  0  0  0  0  0  0  0
  181.4960  179.1950  143.2910 O   0  0  0  0  0  1  0  0  0  0  0  0
  182.5270  179.2810  142.3550 C   0  0  0  0  0  2  0  0  0  0  0  0
  1  5  2  0  0  0  0
  1 18  1  0  0  0  0
  2  4  1  0  0  0  0
  3  2  1  6  0  0  0
  3 10  1  0  0  0  0
  4 21  1  0  0  0  0
  5 17  1  0  0  0  0
  6 19  1  1  0  0  0
  6 23  1  0  0  0  0
  7 25  1  0  0  0  0
  9 19  2  0  0  0  0
 10  7  1  1  0  0  0
 13  9  1  0  0  0  0
 14  8  1  6  0  0  0
 14  6  1  0  0  0  0
 14 23  1  0  0  0  0
 15 22  2  0  0  0  0
 17 10  1  0  0  0  0
 17 11  2  0  0  0  0
 18 24  2  0  0  0  0
 19 12  1  0  0  0  0
 20 22  1  6  0  0  0
 20  8  1  0  0  0  0
 20 14  1  0  0  0  0
 21 25  1  0  0  0  0
 22  9  1  0  0  0  0
 23  5  1  1  0  0  0
 23  3  1  0  0  0  0
 24 11  1  0  0  0  0
 24 16  1  0  0  0  0
 26 13  1  6  0  0  0
 26 29  1  0  0  0  0
 26 12  1  0  0  0  0
 28 27  1  0  0  0  0
 29 28  1  0  0  0  0
 29 27  1  0  0  0  0
 31 29  1  0  0  0  0
 31 30  1  0  0  0  0
M  END
>  <MODEL>
7

>  <REMARK>
 VINA RESULT:      -6.9      2.827      5.147
  Name = 
  2 active torsions:
  status: ('A' for Active; 'I' for Inactive)
    1  A    between atoms: C_26  and  C_31
    2  A    between atoms: N_30  and  C_31
                            x       y       z     vdW  Elec       q    Type
                         _______ _______ _______ _____ _____    ______ ____

>  <TORSDO>
F 2

$$$$
=
 OpenBabel11062415043D

 31 38  0  0  1  0  0  0  0  0999 V2000
  190.4520  177.3910  140.1540 C   0  0  0  0  0  3  0  0  0  0  0  0
  187.8220  178.4450  144.1550 O   0  0  0  0  0  0  0  0  0  0  0  0
  187.9380  177.6940  142.9810 C   0  0  1  0  0  3  0  0  0  0  0  0
  186.7050  177.9630  144.8840 C   0  0  0  0  0  2  0  0  0  0  0  0
  189.4200  177.6410  141.0630 C   0  0  0  0  0  0  0  0  0  0  0  0
  190.5590  177.7630  143.3630 C   0  0  2  0  0  3  0  0  0  0  0  0
  185.8780  178.2000  141.6640 C   0  0  0  0  0  2  0  0  0  0  0  0
  190.5470  175.3060  142.2590 O   0  0  0  0  0  0  0  0  0  0  0  0
  191.4410  176.6980  145.4130 C   0  0  0  0  0  0  0  0  0  0  0  0
  187.3520  178.5180  141.8320 C   0  0  2  0  0  3  0  0  0  0  0  0
  188.0260  178.5850  139.3330 C   0  0  0  0  0  3  0  0  0  0  0  0
  190.1820  178.5030  145.8800 N   0  0  0  0  0  2  0  0  0  0  0  0
  191.2810  176.7480  146.8880 C   0  0  0  0  0  2  0  0  0  0  0  0
  190.0950  176.2610  143.1900 C   0  0  2  0  0  0  0  0  0  0  0  0
  192.2360  174.4560  144.9210 O   0  0  0  0  0  0  0  0  0  0  0  0
  188.8440  178.6960  136.9730 C   0  0  0  0  0  1  0  0  0  0  0  0
  188.2290  178.2090  140.6620 C   0  0  0  0  0  0  0  0  0  0  0  0
  190.2490  177.7330  138.8090 C   0  0  0  0  0  3  0  0  0  0  0  0
  190.7700  177.7070  144.8800 C   0  0  0  0  0  0  0  0  0  0  0  0
  191.5580  175.8650  143.0340 C   0  0  1  0  0  3  0  0  0  0  0  0
  185.4090  177.6650  144.0830 C   0  0  0  0  0  2  0  0  0  0  0  0
  191.7930  175.5580  144.5080 C   0  0  0  0  0  0  0  0  0  0  0  0
  189.3650  177.4010  142.5280 C   0  0  1  0  0  0  0  0  0  0  0  0
  189.0390  178.3240  138.3980 C   0  0  0  0  0  0  0  0  0  0  0  0
  185.1270  178.6270  142.9270 C   0  0  0  0  0  2  0  0  0  0  0  0
  190.4900  177.9810  147.1550 N   0  0  2  0  0  0  0  0  0  0  0  0
  188.9980  178.3960  149.1950 C   0  0  0  0  0  2  0  0  0  0  0  0
  188.2450  178.8870  147.9560 C   0  0  0  0  0  2  0  0  0  0  0  0
  189.2120  177.7250  147.8520 C   0  0  0  0  0  0  0  0  0  0  0  0
  187.6960  176.1080  148.7370 O   0  0  0  0  0  1  0  0  0  0  0  0
  188.5650  176.3610  147.6760 C   0  0  0  0  0  2  0  0  0  0  0  0
  1  5  1  0  0  0  0
  2  4  1  0  0  0  0
  3  2  1  1  0  0  0
  6 19  1  1  0  0  0
  7 25  1  0  0  0  0
  9 13  1  0  0  0  0
 10  7  1  6  0  0  0
 10  3  1  0  0  0  0
 11 17  1  0  0  0  0
 12 26  1  0  0  0  0
 14  8  1  1  0  0  0
 14  6  1  0  0  0  0
 16 24  1  0  0  0  0
 17  5  2  0  0  0  0
 17 10  1  0  0  0  0
 18  1  2  0  0  0  0
 19  9  2  0  0  0  0
 19 12  1  0  0  0  0
 20  8  1  6  0  0  0
 20 14  1  0  0  0  0
 20 22  1  0  0  0  0
 21  4  1  0  0  0  0
 22 15  2  0  0  0  0
 22  9  1  0  0  0  0
 23  5  1  6  0  0  0
 23  3  1  0  0  0  0
 23 14  1  0  0  0  0
 23  6  1  0  0  0  0
 24 18  1  0  0  0  0
 24 11  2  0  0  0  0
 25 21  1  0  0  0  0
 26 13  1  6  0  0  0
 26 29  1  0  0  0  0
 28 27  1  0  0  0  0
 29 28  1  0  0  0  0
 29 27  1  0  0  0  0
 31 29  1  0  0  0  0
 31 30  1  0  0  0  0
M  END
>  <MODEL>
8

>  <REMARK>
 VINA RESULT:      -6.7      2.828      6.701
  Name = 
  2 active torsions:
  status: ('A' for Active; 'I' for Inactive)
    1  A    between atoms: C_26  and  C_31
    2  A    between atoms: N_30  and  C_31
                            x       y       z     vdW  Elec       q    Type
                         _______ _______ _______ _____ _____    ______ ____

>  <TORSDO>
F 2

$$$$
=
 OpenBabel11062415043D

 31 38  0  0  1  0  0  0  0  0999 V2000
  191.6610  176.9800  139.6750 C   0  0  0  0  0  3  0  0  0  0  0  0
  187.0670  177.6410  138.0940 O   0  0  0  0  0  0  0  0  0  0  0  0
  188.1240  176.7520  138.3170 C   0  0  1  0  0  3  0  0  0  0  0  0
  185.9260  176.8890  137.7160 C   0  0  0  0  0  2  0  0  0  0  0  0
  190.4510  176.9140  138.9780 C   0  0  0  0  0  0  0  0  0  0  0  0
  188.7860  178.2790  140.3790 C   0  0  2  0  0  3  0  0  0  0  0  0
  188.5880  175.7030  136.1000 C   0  0  0  0  0  2  0  0  0  0  0  0
  189.5780  175.9750  141.5290 O   0  0  0  0  0  0  0  0  0  0  0  0
  187.1470  178.4850  142.2190 C   0  0  0  0  0  0  0  0  0  0  0  0
  189.0280  176.7730  137.0830 C   0  0  2  0  0  3  0  0  0  0  0  0
  191.5900  176.4400  136.9020 C   0  0  0  0  0  3  0  0  0  0  0  0
  186.3950  179.4190  140.3160 N   0  0  0  0  0  0  0  0  0  0  0  0
  185.7340  178.8760  142.4550 C   0  0  0  0  0  3  0  0  0  0  0  0
  188.6330  176.7820  140.8650 C   0  0  2  0  0  0  0  0  0  0  0  0
  187.7050  176.9520  144.0190 O   0  0  0  0  0  0  0  0  0  0  0  0
  194.0830  176.2580  136.8430 C   0  0  0  0  0  1  0  0  0  0  0  0
  190.4130  176.6350  137.6280 C   0  0  0  0  0  0  0  0  0  0  0  0
  192.8500  176.7540  138.9650 C   0  0  0  0  0  3  0  0  0  0  0  0
  187.4680  178.7910  140.9720 C   0  0  0  0  0  0  0  0  0  0  0  0
  189.3040  177.1770  142.1750 C   0  0  1  0  0  3  0  0  0  0  0  0
  186.1370  175.7420  136.6920 C   0  0  0  0  0  2  0  0  0  0  0  0
  188.0120  177.4860  142.9220 C   0  0  0  0  0  0  0  0  0  0  0  0
  189.0630  177.1240  139.4610 C   0  0  1  0  0  0  0  0  0  0  0  0
  192.8150  176.4810  137.5850 C   0  0  0  0  0  0  0  0  0  0  0  0
  187.1770  176.0290  135.6060 C   0  0  0  0  0  2  0  0  0  0  0  0
  185.2950  179.5350  141.1930 N   0  0  0  0  0  0  0  0  0  0  0  0
  183.8100  177.4580  140.9870 C   0  0  0  0  0  2  0  0  0  0  0  0
  182.9230  178.6270  141.4190 C   0  0  0  0  0  2  0  0  0  0  0  0
  184.1400  178.8720  140.5510 C   0  0  0  0  0  0  0  0  0  0  0  0
  183.5940  180.5790  138.9750 O   0  0  0  0  0  1  0  0  0  0  0  0
  183.8390  179.2110  139.1000 C   0  0  0  0  0  2  0  0  0  0  0  0
  3  2  1  6  0  0  0
  3 23  1  0  0  0  0
  4  2  1  0  0  0  0
  5  1  1  0  0  0  0
  6 14  1  0  0  0  0
  6 19  1  6  0  0  0
  9 13  2  0  0  0  0
  9 22  1  0  0  0  0
 10  7  1  6  0  0  0
 10 17  1  0  0  0  0
 10  3  1  0  0  0  0
 11 24  2  0  0  0  0
 11 17  1  0  0  0  0
 12 19  2  0  0  0  0
 12 26  1  0  0  0  0
 14  8  1  1  0  0  0
 14 20  1  0  0  0  0
 16 24  1  0  0  0  0
 17  5  2  0  0  0  0
 18  1  2  0  0  0  0
 19  9  1  0  0  0  0
 20  8  1  1  0  0  0
 20 22  1  0  0  0  0
 21  4  1  0  0  0  0
 22 15  2  0  0  0  0
 23  5  1  6  0  0  0
 23  6  1  0  0  0  0
 23 14  1  0  0  0  0
 24 18  1  0  0  0  0
 25  7  1  0  0  0  0
 25 21  1  0  0  0  0
 26 13  1  0  0  0  0
 27 28  1  0  0  0  0
 29 27  1  0  0  0  0
 29 26  1  0  0  0  0
 29 28  1  0  0  0  0
 30 31  1  0  0  0  0
 31 29  1  0  0  0  0
M  END
>  <MODEL>
9

>  <REMARK>
 VINA RESULT:      -6.4      2.614      6.379
  Name = 
  2 active torsions:
  status: ('A' for Active; 'I' for Inactive)
    1  A    between atoms: C_26  and  C_31
    2  A    between atoms: N_30  and  C_31
                            x       y       z     vdW  Elec       q    Type
                         _______ _______ _______ _____ _____    ______ ____

>  <TORSDO>
F 2

$$$$
