=
 OpenBabel11062417383D

 65 68  0  0  1  0  0  0  0  0999 V2000
  187.0630  175.8320  137.3860 O   0  0  0  0  0  0  0  0  0  0  0  0
  191.7960  175.9350  136.1940 N   0  0  0  0  0  0  0  0  0  0  0  0
  187.9790  171.0980  137.0390 N   0  0  0  0  0  1  0  0  0  0  0  0
  185.5680  173.6870  134.5980 N   0  0  0  0  0  0  0  0  0  0  0  0
  184.8410  176.5040  137.4590 O   0  0  0  0  0  0  0  0  0  0  0  0
  188.8210  176.9110  134.7500 O   0  0  0  0  0  0  0  0  0  0  0  0
  194.3820  173.3660  136.6990 C   0  0  0  0  0  1  0  0  0  0  0  0
  189.0890  173.6890  135.9920 C   0  0  1  0  0  3  0  0  0  0  0  0
  193.0740  176.0350  135.9780 C   0  0  0  0  0  0  0  0  0  0  0  0
  191.3830  173.5450  135.9960 C   0  0  1  0  0  3  0  0  0  0  0  0
  186.9510  173.9270  134.9070 C   0  0  0  0  0  3  0  0  0  0  0  0
  187.1240  172.1800  136.6810 C   0  0  0  0  0  0  0  0  0  0  0  0
  185.4530  177.8260  135.6610 O   0  0  0  0  0  0  0  0  0  0  0  0
  187.6660  173.3060  135.8620 C   0  0  0  0  0  0  0  0  0  0  0  0
  183.3540  173.0920  134.9570 O   0  0  0  0  0  0  0  0  0  0  0  0
  190.0810  172.8070  135.9770 C   0  0  0  0  0  2  0  0  0  0  0  0
  192.4550  173.0090  135.0630 C   0  0  2  0  0  3  0  0  0  0  0  0
  184.9430  173.2310  136.9010 C   0  0  0  0  0  2  0  0  0  0  0  0
  181.3290  173.9960  135.9350 C   0  0  0  0  0  2  0  0  0  0  0  0
  189.5830  175.0250  135.8910 N   0  0  0  0  0  0  0  0  0  0  0  0
  188.8020  176.2260  135.8060 C   0  0  0  0  0  0  0  0  0  0  0  0
  186.1100  176.5730  138.0960 C   0  0  0  0  0  2  0  0  0  0  0  0
  193.7980  177.1070  136.5750 N   0  0  0  0  0  1  0  0  0  0  0  0
  188.0580  176.7430  137.0020 C   0  0  2  0  0  3  0  0  0  0  0  0
  184.5430  177.2350  136.3060 C   0  0  0  0  0  0  0  0  0  0  0  0
  192.6020  171.6290  135.2230 O   0  0  0  0  0  1  0  0  0  0  0  0
  185.9040  172.1670  137.1250 N   0  0  0  0  0  0  0  0  0  0  0  0
  183.1240  177.4130  135.8760 C   0  0  1  0  0  3  0  0  0  0  0  0
  193.7970  173.7130  135.3330 C   0  0  1  0  0  3  0  0  0  0  0  0
  193.7550  175.1350  135.1390 O   0  0  0  0  0  0  0  0  0  0  0  0
  182.0420  175.2080  136.5120 C   0  0  0  0  0  2  0  0  0  0  0  0
  190.9850  174.9310  135.5300 C   0  0  1  0  0  3  0  0  0  0  0  0
  182.2650  172.7990  135.8220 C   0  0  0  0  0  2  0  0  0  0  0  0
  182.5000  176.1110  135.3750 C   0  0  0  0  0  2  0  0  0  0  0  0
  184.6420  173.3400  135.4390 C   0  0  0  0  0  0  0  0  0  0  0  0
  182.3730  177.9720  136.9130 O   0  0  0  0  0  0  0  0  0  0  0  0
  181.1080  178.2280  136.3680 C   0  0  2  0  0  3  0  0  0  0  0  0
  181.1150  179.5640  135.6250 C   0  0  2  0  0  3  0  0  0  0  0  0
  180.9730  180.7270  136.5920 C   0  0  0  0  0  1  0  0  0  0  0  0
  180.0630  179.6080  134.7090 O   0  0  0  0  0  1  0  0  0  0  0  0
  180.0510  178.1910  137.4710 C   0  0  0  0  0  2  0  0  0  0  0  0
  179.8720  176.7860  138.0380 C   0  0  0  0  0  2  0  0  0  0  0  0
  180.1700  176.7630  139.5280 C   0  0  0  0  0  2  0  0  0  0  0  0
  179.7200  178.0620  140.1740 C   0  0  0  0  0  2  0  0  0  0  0  0
  180.6720  178.4600  141.2920 C   0  0  1  0  0  3  0  0  0  0  0  0
  182.1380  179.5790  139.6410 F   0  0  0  0  0  0  0  0  0  0  0  0
  182.0290  178.8080  140.7590 C   0  0  0  0  0  0  0  0  0  0  0  0
  183.0720  178.4930  141.4460 N   0  0  0  0  0  0  0  0  0  0  0  0
  184.3990  178.9200  141.0720 C   0  0  0  0  0  2  0  0  0  0  0  0
  185.2610  179.0480  142.2830 C   0  0  0  0  0  0  0  0  0  0  0  0
  184.7170  179.6060  143.4310 O   0  0  0  0  0  1  0  0  0  0  0  0
  186.5200  178.6000  142.2220 C   0  0  0  0  0  3  0  0  0  0  0  0
  187.4780  178.5610  143.2550 O   0  0  0  0  0  0  0  0  0  0  0  0
  186.6470  177.4280  145.2350 C   0  0  0  0  0  1  0  0  0  0  0  0
  187.9170  176.1750  143.4830 C   0  0  0  0  0  1  0  0  0  0  0  0
  189.0410  177.8270  144.8990 C   0  0  0  0  0  1  0  0  0  0  0  0
  187.7420  177.5090  144.1880 C   0  0  0  0  0  0  0  0  0  0  0  0
  179.8090  179.4380  143.4490 N   0  0  0  0  0  1  0  0  0  0  0  0
  180.0030  180.7470  141.5390 O   0  0  0  0  0  0  0  0  0  0  0  0
  180.1240  179.6110  142.0720 C   0  0  0  0  0  0  0  0  0  0  0  0
  189.0220  177.0230  138.1600 C   0  0  0  0  0  2  0  0  0  0  0  0
  188.4570  178.0820  139.0920 C   0  0  0  0  0  2  0  0  0  0  0  0
  189.4400  178.3890  140.2060 C   0  0  0  0  0  2  0  0  0  0  0  0
  191.0570  177.1400  141.5560 C   0  0  0  0  0  2  0  0  0  0  0  0
  190.0050  177.1180  140.7430 C   0  0  0  0  0  3  0  0  0  0  0  0
  1 22  1  0  0  0  0
  4 11  1  0  0  0  0
  4 35  2  0  0  0  0
  5 22  1  0  0  0  0
  6 21  2  0  0  0  0
  8 16  1  6  0  0  0
  9  2  2  0  0  0  0
  9 23  1  0  0  0  0
 10 16  1  6  0  0  0
 11 14  2  0  0  0  0
 12  3  1  0  0  0  0
 12 27  2  0  0  0  0
 13 25  2  0  0  0  0
 14  8  1  0  0  0  0
 14 12  1  0  0  0  0
 15 35  1  0  0  0  0
 15 33  1  0  0  0  0
 17 26  1  1  0  0  0
 17 29  1  0  0  0  0
 17 10  1  0  0  0  0
 18 27  1  0  0  0  0
 19 31  1  0  0  0  0
 20  8  1  0  0  0  0
 21 20  1  0  0  0  0
 21 24  1  0  0  0  0
 24  1  1  0  0  0  0
 24 61  1  1  0  0  0
 25  5  1  0  0  0  0
 28 25  1  0  0  0  0
 28 36  1  1  0  0  0
 29  7  1  1  0  0  0
 30 29  1  0  0  0  0
 30  9  1  0  0  0  0
 32 20  1  0  0  0  0
 32 10  1  0  0  0  0
 32  2  1  1  0  0  0
 33 19  1  0  0  0  0
 34 28  1  0  0  0  0
 34 31  1  0  0  0  0
 35 18  1  0  0  0  0
 37 36  1  0  0  0  0
 37 41  1  1  0  0  0
 38 37  1  0  0  0  0
 38 39  1  1  0  0  0
 40 38  1  0  0  0  0
 41 42  1  0  0  0  0
 42 43  1  0  0  0  0
 43 44  1  0  0  0  0
 45 44  1  6  0  0  0
 45 60  1  0  0  0  0
 46 47  1  0  0  0  0
 47 45  1  0  0  0  0
 47 48  2  0  0  0  0
 49 48  1  0  0  0  0
 49 50  1  0  0  0  0
 50 51  1  0  0  0  0
 52 50  2  0  0  0  0
 52 53  1  0  0  0  0
 53 57  1  0  0  0  0
 55 57  1  0  0  0  0
 57 56  1  0  0  0  0
 57 54  1  0  0  0  0
 59 60  2  0  0  0  0
 60 58  1  0  0  0  0
 61 62  1  0  0  0  0
 62 63  1  0  0  0  0
 63 65  1  0  0  0  0
 65 64  2  0  0  0  0
M  END
>  <MODEL>
1

>  <REMARK>
 VINA RESULT:      -5.4      0.000      0.000
  Name = 
  18 active torsions:
  status: ('A' for Active; 'I' for Inactive)
    1  A    between atoms: O_3  and  C_46
    2  A    between atoms: O_3  and  C_50
    3  A    between atoms: C_9  and  C_16
    4  A    between atoms: C_9  and  C_37
    5  A    between atoms: C_15  and  C_46
    6  A    between atoms: C_16  and  C_55
    7  A    between atoms: C_24  and  C_55
    8  A    between atoms: C_26  and  C_38
    9  A    between atoms: C_29  and  C_40
   10  A    between atoms: C_29  and  C_44
   11  A    between atoms: C_36  and  C_63
   12  A    between atoms: C_37  and  C_58
   13  A    between atoms: C_38  and  N_41
   14  A    between atoms: C_40  and  C_63
   15  A    between atoms: C_46  and  C_58
   16  A    between atoms: O_51  and  C_62
   17  A    between atoms: O_51  and  C_64
   18  A    between atoms: C_55  and  C_59
                            x       y       z     vdW  Elec       q    Type
                         _______ _______ _______ _____ _____    ______ ____

>  <TORSDO>
F 18

$$$$
=
 OpenBabel11062417383D

 65 68  0  0  1  0  0  0  0  0999 V2000
  186.5920  176.8580  138.7620 O   0  0  0  0  0  0  0  0  0  0  0  0
  191.3100  176.5720  137.5410 N   0  0  0  0  0  0  0  0  0  0  0  0
  186.7360  172.4100  136.8740 N   0  0  0  0  0  1  0  0  0  0  0  0
  184.8460  176.0060  135.4700 N   0  0  0  0  0  0  0  0  0  0  0  0
  184.5070  177.8220  139.1080 O   0  0  0  0  0  0  0  0  0  0  0  0
  188.5740  178.4330  136.5720 O   0  0  0  0  0  0  0  0  0  0  0  0
  193.4300  173.5940  137.1160 C   0  0  0  0  0  1  0  0  0  0  0  0
  188.2800  174.9840  136.6940 C   0  0  1  0  0  3  0  0  0  0  0  0
  192.5930  176.5280  137.3350 C   0  0  0  0  0  0  0  0  0  0  0  0
  190.5190  174.4760  136.5900 C   0  0  1  0  0  3  0  0  0  0  0  0
  186.2400  175.9050  135.8030 C   0  0  0  0  0  3  0  0  0  0  0  0
  186.0790  173.6740  136.9100 C   0  0  0  0  0  0  0  0  0  0  0  0
  185.3750  179.5380  137.8210 O   0  0  0  0  0  0  0  0  0  0  0  0
  186.8180  174.9010  136.4850 C   0  0  0  0  0  0  0  0  0  0  0  0
  182.5560  175.6950  135.6760 O   0  0  0  0  0  0  0  0  0  0  0  0
  189.1160  174.0060  136.3670 C   0  0  0  0  0  2  0  0  0  0  0  0
  191.5160  174.1050  135.5050 C   0  0  2  0  0  3  0  0  0  0  0  0
  184.0920  174.9360  137.5160 C   0  0  0  0  0  2  0  0  0  0  0  0
  180.6780  176.5490  136.9480 C   0  0  0  0  0  2  0  0  0  0  0  0
  188.9870  176.1820  137.0190 N   0  0  0  0  0  0  0  0  0  0  0  0
  188.4140  177.4550  137.3490 C   0  0  0  0  0  0  0  0  0  0  0  0
  185.7520  177.4740  139.6990 C   0  0  0  0  0  2  0  0  0  0  0  0
  193.4640  177.2150  138.2270 N   0  0  0  0  0  1  0  0  0  0  0  0
  187.7310  177.6710  138.6670 C   0  0  2  0  0  3  0  0  0  0  0  0
  184.3640  178.9250  138.2630 C   0  0  0  0  0  0  0  0  0  0  0  0
  191.4330  172.7430  135.2050 O   0  0  0  0  0  1  0  0  0  0  0  0
  184.8610  173.7150  137.3570 N   0  0  0  0  0  0  0  0  0  0  0  0
  183.0050  179.4610  137.9520 C   0  0  1  0  0  3  0  0  0  0  0  0
  192.9460  174.4550  135.9530 C   0  0  1  0  0  3  0  0  0  0  0  0
  193.1410  175.8500  136.2310 O   0  0  0  0  0  0  0  0  0  0  0  0
  181.5620  177.3760  137.8670 C   0  0  0  0  0  2  0  0  0  0  0  0
  190.3650  175.9840  136.6090 C   0  0  1  0  0  3  0  0  0  0  0  0
  181.4100  175.3190  136.4280 C   0  0  0  0  0  2  0  0  0  0  0  0
  182.1920  178.5110  137.0730 C   0  0  0  0  0  2  0  0  0  0  0  0
  183.8530  175.5610  136.1780 C   0  0  0  0  0  0  0  0  0  0  0  0
  182.3260  179.7690  139.1340 O   0  0  0  0  0  0  0  0  0  0  0  0
  181.1420  180.4020  138.7350 C   0  0  2  0  0  3  0  0  0  0  0  0
  181.4030  181.8850  138.4660 C   0  0  2  0  0  3  0  0  0  0  0  0
  181.0080  182.2590  137.0480 C   0  0  0  0  0  1  0  0  0  0  0  0
  182.7540  182.1750  138.6500 O   0  0  0  0  0  1  0  0  0  0  0  0
  180.0610  180.1950  139.7960 C   0  0  0  0  0  2  0  0  0  0  0  0
  179.5360  178.7620  139.7980 C   0  0  0  0  0  2  0  0  0  0  0  0
  179.7640  178.1050  141.1500 C   0  0  0  0  0  2  0  0  0  0  0  0
  181.2080  178.2840  141.5840 C   0  0  0  0  0  2  0  0  0  0  0  0
  181.2890  178.5270  143.0840 C   0  0  1  0  0  3  0  0  0  0  0  0
  182.5070  180.3950  144.1570 F   0  0  0  0  0  0  0  0  0  0  0  0
  182.5600  179.2240  143.4610 C   0  0  0  0  0  0  0  0  0  0  0  0
  183.6850  178.6360  143.2470 N   0  0  0  0  0  0  0  0  0  0  0  0
  184.9390  179.1770  143.7130 C   0  0  0  0  0  2  0  0  0  0  0  0
  185.2890  178.5990  145.0440 C   0  0  0  0  0  0  0  0  0  0  0  0
  184.4300  178.8200  146.1110 O   0  0  0  0  0  1  0  0  0  0  0  0
  186.4070  177.8730  145.1510 C   0  0  0  0  0  3  0  0  0  0  0  0
  186.8900  177.1860  146.2830 O   0  0  0  0  0  0  0  0  0  0  0  0
  188.4900  176.2430  147.8480 C   0  0  0  0  0  1  0  0  0  0  0  0
  189.1830  178.0090  146.2190 C   0  0  0  0  0  1  0  0  0  0  0  0
  187.6800  178.5440  148.0770 C   0  0  0  0  0  1  0  0  0  0  0  0
  188.0480  177.4710  147.0740 C   0  0  0  0  0  0  0  0  0  0  0  0
  179.1890  178.7360  144.4630 N   0  0  0  0  0  1  0  0  0  0  0  0
  179.9780  180.5280  143.2140 O   0  0  0  0  0  0  0  0  0  0  0  0
  180.1150  179.3230  143.5560 C   0  0  0  0  0  0  0  0  0  0  0  0
  188.6950  177.3990  139.8270 C   0  0  0  0  0  2  0  0  0  0  0  0
  188.7370  178.5790  140.7850 C   0  0  0  0  0  2  0  0  0  0  0  0
  188.8060  178.0960  142.2210 C   0  0  0  0  0  2  0  0  0  0  0  0
  189.3520  175.8920  143.1390 C   0  0  0  0  0  2  0  0  0  0  0  0
  189.6620  176.8770  142.3010 C   0  0  0  0  0  3  0  0  0  0  0  0
  1 22  1  0  0  0  0
  3 12  1  0  0  0  0
  4 11  1  0  0  0  0
  4 35  2  0  0  0  0
  5 22  1  0  0  0  0
  6 21  2  0  0  0  0
  8 16  1  6  0  0  0
  8 20  1  0  0  0  0
  9  2  2  0  0  0  0
  9 23  1  0  0  0  0
 10 16  1  6  0  0  0
 10 32  1  0  0  0  0
 11 14  2  0  0  0  0
 12 27  2  0  0  0  0
 13 25  2  0  0  0  0
 14  8  1  0  0  0  0
 14 12  1  0  0  0  0
 15 35  1  0  0  0  0
 15 33  1  0  0  0  0
 17 26  1  1  0  0  0
 17 29  1  0  0  0  0
 17 10  1  0  0  0  0
 19 31  1  0  0  0  0
 20 21  1  0  0  0  0
 21 24  1  0  0  0  0
 24  1  1  0  0  0  0
 24 61  1  1  0  0  0
 25  5  1  0  0  0  0
 27 18  1  0  0  0  0
 28 25  1  0  0  0  0
 28 36  1  1  0  0  0
 29 30  1  0  0  0  0
 29  7  1  1  0  0  0
 30  9  1  0  0  0  0
 32 20  1  0  0  0  0
 32  2  1  1  0  0  0
 33 19  1  0  0  0  0
 34 31  1  0  0  0  0
 34 28  1  0  0  0  0
 35 18  1  0  0  0  0
 37 36  1  0  0  0  0
 37 41  1  1  0  0  0
 38 39  1  6  0  0  0
 38 40  1  0  0  0  0
 38 37  1  0  0  0  0
 41 42  1  0  0  0  0
 42 43  1  0  0  0  0
 43 44  1  0  0  0  0
 45 44  1  6  0  0  0
 45 47  1  0  0  0  0
 45 60  1  0  0  0  0
 47 46  1  0  0  0  0
 48 47  2  0  0  0  0
 48 49  1  0  0  0  0
 49 50  1  0  0  0  0
 50 52  2  0  0  0  0
 50 51  1  0  0  0  0
 52 53  1  0  0  0  0
 53 57  1  0  0  0  0
 55 57  1  0  0  0  0
 57 54  1  0  0  0  0
 57 56  1  0  0  0  0
 59 60  2  0  0  0  0
 60 58  1  0  0  0  0
 61 62  1  0  0  0  0
 62 63  1  0  0  0  0
 63 65  1  0  0  0  0
 65 64  2  0  0  0  0
M  END
>  <MODEL>
2

>  <REMARK>
 VINA RESULT:      -5.4      2.006      2.462
  Name = 
  18 active torsions:
  status: ('A' for Active; 'I' for Inactive)
    1  A    between atoms: O_3  and  C_46
    2  A    between atoms: O_3  and  C_50
    3  A    between atoms: C_9  and  C_16
    4  A    between atoms: C_9  and  C_37
    5  A    between atoms: C_15  and  C_46
    6  A    between atoms: C_16  and  C_55
    7  A    between atoms: C_24  and  C_55
    8  A    between atoms: C_26  and  C_38
    9  A    between atoms: C_29  and  C_40
   10  A    between atoms: C_29  and  C_44
   11  A    between atoms: C_36  and  C_63
   12  A    between atoms: C_37  and  C_58
   13  A    between atoms: C_38  and  N_41
   14  A    between atoms: C_40  and  C_63
   15  A    between atoms: C_46  and  C_58
   16  A    between atoms: O_51  and  C_62
   17  A    between atoms: O_51  and  C_64
   18  A    between atoms: C_55  and  C_59
                            x       y       z     vdW  Elec       q    Type
                         _______ _______ _______ _____ _____    ______ ____

>  <TORSDO>
F 18

$$$$
=
 OpenBabel11062417383D

 65 68  0  0  1  0  0  0  0  0999 V2000
  188.4800  178.7360  140.5280 O   0  0  0  0  0  0  0  0  0  0  0  0
  191.0080  176.6290  136.9210 N   0  0  0  0  0  0  0  0  0  0  0  0
  192.7080  177.9860  142.7490 N   0  0  0  0  0  1  0  0  0  0  0  0
  188.8460  176.2020  143.3670 N   0  0  0  0  0  0  0  0  0  0  0  0
  186.6450  179.2830  141.8430 O   0  0  0  0  0  0  0  0  0  0  0  0
  188.2460  175.8560  138.8370 O   0  0  0  0  0  0  0  0  0  0  0  0
  194.6490  176.4830  136.4060 C   0  0  0  0  0  1  0  0  0  0  0  0
  191.1500  176.8630  140.4350 C   0  0  1  0  0  3  0  0  0  0  0  0
  191.6510  176.1670  135.8910 C   0  0  0  0  0  0  0  0  0  0  0  0
  192.6210  176.4030  138.7300 C   0  0  1  0  0  3  0  0  0  0  0  0
  189.5230  176.2400  142.1000 C   0  0  0  0  0  3  0  0  0  0  0  0
  191.2900  177.8580  142.8020 C   0  0  0  0  0  0  0  0  0  0  0  0
  185.6760  177.4650  140.7900 O   0  0  0  0  0  0  0  0  0  0  0  0
  190.5900  177.0020  141.7970 C   0  0  0  0  0  0  0  0  0  0  0  0
  188.0640  176.9670  145.4130 O   0  0  0  0  0  0  0  0  0  0  0  0
  192.4310  176.6080  140.2000 C   0  0  0  0  0  2  0  0  0  0  0  0
  193.5300  175.2500  138.3410 C   0  0  2  0  0  3  0  0  0  0  0  0
  189.2040  178.5590  143.8350 C   0  0  0  0  0  2  0  0  0  0  0  0
  186.3080  178.3720  146.3160 C   0  0  0  0  0  2  0  0  0  0  0  0
  190.3690  176.7310  139.2460 N   0  0  0  0  0  0  0  0  0  0  0  0
  188.9450  176.8610  139.1330 C   0  0  0  0  0  0  0  0  0  0  0  0
  187.4430  179.6560  140.7280 C   0  0  0  0  0  2  0  0  0  0  0  0
  191.3270  176.6580  134.5940 N   0  0  0  0  0  1  0  0  0  0  0  0
  188.2870  178.2040  139.2440 C   0  0  2  0  0  3  0  0  0  0  0  0
  185.7080  178.2490  141.7790 C   0  0  0  0  0  0  0  0  0  0  0  0
  194.7340  175.3110  139.0480 O   0  0  0  0  0  1  0  0  0  0  0  0
  190.6490  178.5350  143.7060 N   0  0  0  0  0  0  0  0  0  0  0  0
  184.6600  178.1200  142.8350 C   0  0  1  0  0  3  0  0  0  0  0  0
  193.8110  175.2800  136.8280 C   0  0  1  0  0  3  0  0  0  0  0  0
  192.6310  175.1660  136.0170 O   0  0  0  0  0  0  0  0  0  0  0  0
  185.8640  178.8530  144.9440 C   0  0  0  0  0  2  0  0  0  0  0  0
  191.2160  176.0920  138.2540 C   0  0  1  0  0  3  0  0  0  0  0  0
  187.7890  178.0170  146.3310 C   0  0  0  0  0  2  0  0  0  0  0  0
  185.2400  177.6920  144.1820 C   0  0  0  0  0  2  0  0  0  0  0  0
  188.7070  177.1940  144.1930 C   0  0  0  0  0  0  0  0  0  0  0  0
  183.9380  179.3120  142.9460 O   0  0  0  0  0  0  0  0  0  0  0  0
  182.7060  179.0660  142.3270 C   0  0  2  0  0  3  0  0  0  0  0  0
  181.6450  178.7360  143.3770 C   0  0  2  0  0  3  0  0  0  0  0  0
  180.3710  179.5280  143.1330 C   0  0  0  0  0  1  0  0  0  0  0  0
  182.1250  179.0320  144.6520 O   0  0  0  0  0  1  0  0  0  0  0  0
  182.8590  177.9480  141.2960 C   0  0  0  0  0  2  0  0  0  0  0  0
  181.8740  178.1030  140.1410 C   0  0  0  0  0  2  0  0  0  0  0  0
  182.2560  179.2810  139.2600 C   0  0  0  0  0  2  0  0  0  0  0  0
  181.0120  180.0330  138.8200 C   0  0  0  0  0  2  0  0  0  0  0  0
  181.0300  180.2600  137.3150 C   0  0  1  0  0  3  0  0  0  0  0  0
  180.3020  179.1580  135.2220 F   0  0  0  0  0  0  0  0  0  0  0  0
  180.4300  179.1010  136.5780 C   0  0  0  0  0  0  0  0  0  0  0  0
  180.1770  178.0130  137.2180 N   0  0  0  0  0  0  0  0  0  0  0  0
  179.7370  176.8110  136.5520 C   0  0  0  0  0  2  0  0  0  0  0  0
  180.3030  175.6080  137.2290 C   0  0  0  0  0  0  0  0  0  0  0  0
  179.4560  174.8120  137.9870 O   0  0  0  0  0  1  0  0  0  0  0  0
  181.6010  175.3320  137.0620 C   0  0  0  0  0  3  0  0  0  0  0  0
  182.3210  174.2230  137.5500 O   0  0  0  0  0  0  0  0  0  0  0  0
  183.5830  173.9800  135.4890 C   0  0  0  0  0  1  0  0  0  0  0  0
  184.6020  173.3760  137.6920 C   0  0  0  0  0  1  0  0  0  0  0  0
  182.7900  172.0300  136.7410 C   0  0  0  0  0  1  0  0  0  0  0  0
  183.3170  173.4420  136.8830 C   0  0  0  0  0  0  0  0  0  0  0  0
  179.0810  181.8310  137.6150 N   0  0  0  0  0  1  0  0  0  0  0  0
  180.8010  182.3320  136.1360 O   0  0  0  0  0  0  0  0  0  0  0  0
  180.3050  181.5170  136.9590 C   0  0  0  0  0  0  0  0  0  0  0  0
  188.8210  179.1590  138.1700 C   0  0  0  0  0  2  0  0  0  0  0  0
  188.1100  178.9360  136.8450 C   0  0  0  0  0  2  0  0  0  0  0  0
  186.6500  178.5960  137.0750 C   0  0  0  0  0  2  0  0  0  0  0  0
  186.3370  176.3140  136.2420 C   0  0  0  0  0  2  0  0  0  0  0  0
  186.1930  177.6210  136.0430 C   0  0  0  0  0  3  0  0  0  0  0  0
  1 22  1  0  0  0  0
  3 12  1  0  0  0  0
  4 35  2  0  0  0  0
  6 21  2  0  0  0  0
  8 16  1  1  0  0  0
  8 14  1  0  0  0  0
  9 30  1  0  0  0  0
  9  2  2  0  0  0  0
 10 16  1  1  0  0  0
 11  4  1  0  0  0  0
 12 27  2  0  0  0  0
 13 25  2  0  0  0  0
 14 11  2  0  0  0  0
 14 12  1  0  0  0  0
 15 33  1  0  0  0  0
 17 10  1  0  0  0  0
 17 26  1  1  0  0  0
 18 35  1  0  0  0  0
 19 33  1  0  0  0  0
 20  8  1  0  0  0  0
 21 24  1  0  0  0  0
 21 20  1  0  0  0  0
 22  5  1  0  0  0  0
 23  9  1  0  0  0  0
 24 61  1  6  0  0  0
 24  1  1  0  0  0  0
 25  5  1  0  0  0  0
 25 28  1  0  0  0  0
 27 18  1  0  0  0  0
 28 36  1  1  0  0  0
 28 34  1  0  0  0  0
 29  7  1  1  0  0  0
 29 17  1  0  0  0  0
 30 29  1  0  0  0  0
 31 19  1  0  0  0  0
 32  2  1  6  0  0  0
 32 10  1  0  0  0  0
 32 20  1  0  0  0  0
 34 31  1  0  0  0  0
 35 15  1  0  0  0  0
 37 41  1  6  0  0  0
 37 36  1  0  0  0  0
 37 38  1  0  0  0  0
 38 39  1  6  0  0  0
 38 40  1  0  0  0  0
 42 41  1  0  0  0  0
 43 42  1  0  0  0  0
 44 43  1  0  0  0  0
 45 44  1  1  0  0  0
 46 47  1  0  0  0  0
 47 48  2  0  0  0  0
 47 45  1  0  0  0  0
 49 48  1  0  0  0  0
 49 50  1  0  0  0  0
 50 51  1  0  0  0  0
 52 50  2  0  0  0  0
 52 53  1  0  0  0  0
 54 57  1  0  0  0  0
 56 57  1  0  0  0  0
 57 53  1  0  0  0  0
 57 55  1  0  0  0  0
 59 60  2  0  0  0  0
 60 45  1  0  0  0  0
 60 58  1  0  0  0  0
 62 63  1  0  0  0  0
 62 61  1  0  0  0  0
 65 64  2  0  0  0  0
 65 63  1  0  0  0  0
M  END
>  <MODEL>
3

>  <REMARK>
 VINA RESULT:      -3.4      2.818      6.959
  Name = 
  18 active torsions:
  status: ('A' for Active; 'I' for Inactive)
    1  A    between atoms: O_3  and  C_46
    2  A    between atoms: O_3  and  C_50
    3  A    between atoms: C_9  and  C_16
    4  A    between atoms: C_9  and  C_37
    5  A    between atoms: C_15  and  C_46
    6  A    between atoms: C_16  and  C_55
    7  A    between atoms: C_24  and  C_55
    8  A    between atoms: C_26  and  C_38
    9  A    between atoms: C_29  and  C_40
   10  A    between atoms: C_29  and  C_44
   11  A    between atoms: C_36  and  C_63
   12  A    between atoms: C_37  and  C_58
   13  A    between atoms: C_38  and  N_41
   14  A    between atoms: C_40  and  C_63
   15  A    between atoms: C_46  and  C_58
   16  A    between atoms: O_51  and  C_62
   17  A    between atoms: O_51  and  C_64
   18  A    between atoms: C_55  and  C_59
                            x       y       z     vdW  Elec       q    Type
                         _______ _______ _______ _____ _____    ______ ____

>  <TORSDO>
F 18

$$$$
=
 OpenBabel11062417383D

 65 68  0  0  1  0  0  0  0  0999 V2000
  187.7180  178.6180  141.2700 O   0  0  0  0  0  0  0  0  0  0  0  0
  189.8430  177.2280  145.4400 N   0  0  0  0  0  0  0  0  0  0  0  0
  184.5000  180.2640  144.4800 N   0  0  0  0  0  1  0  0  0  0  0  0
  184.2270  177.0950  141.5880 N   0  0  0  0  0  0  0  0  0  0  0  0
  187.0760  178.5240  139.0400 O   0  0  0  0  0  0  0  0  0  0  0  0
  188.4410  175.6770  142.6970 O   0  0  0  0  0  0  0  0  0  0  0  0
  189.4720  178.6280  148.8230 C   0  0  0  0  0  1  0  0  0  0  0  0
  186.6350  178.1530  144.3120 C   0  0  1  0  0  3  0  0  0  0  0  0
  190.5120  176.9170  146.5110 C   0  0  0  0  0  0  0  0  0  0  0  0
  187.7450  178.0880  146.3230 C   0  0  1  0  0  3  0  0  0  0  0  0
  185.2610  177.1930  142.5810 C   0  0  0  0  0  3  0  0  0  0  0  0
  184.7240  179.5290  143.2800 C   0  0  0  0  0  0  0  0  0  0  0  0
  187.7000  176.3040  139.2230 O   0  0  0  0  0  0  0  0  0  0  0  0
  185.5420  178.2800  143.3230 C   0  0  0  0  0  0  0  0  0  0  0  0
  182.7440  177.7980  139.9480 O   0  0  0  0  0  0  0  0  0  0  0  0
  186.4910  178.4580  145.5960 C   0  0  0  0  0  2  0  0  0  0  0  0
  187.5470  177.4110  147.6690 C   0  0  2  0  0  3  0  0  0  0  0  0
  184.4450  179.4050  140.8680 C   0  0  0  0  0  2  0  0  0  0  0  0
  182.7320  178.4130  137.6030 C   0  0  0  0  0  2  0  0  0  0  0  0
  187.8660  177.4660  144.0780 N   0  0  0  0  0  0  0  0  0  0  0  0
  188.3240  176.9240  142.8320 C   0  0  0  0  0  0  0  0  0  0  0  0
  188.0470  178.9980  139.9630 C   0  0  0  0  0  2  0  0  0  0  0  0
  191.9350  176.9600  146.4770 N   0  0  0  0  0  1  0  0  0  0  0  0
  188.7830  177.8270  141.7250 C   0  0  2  0  0  3  0  0  0  0  0  0
  187.0220  177.1890  138.6320 C   0  0  0  0  0  0  0  0  0  0  0  0
  186.6460  178.1340  148.4560 O   0  0  0  0  0  1  0  0  0  0  0  0
  184.2390  180.0050  142.1730 N   0  0  0  0  0  0  0  0  0  0  0  0
  186.2360  176.8060  137.4210 C   0  0  1  0  0  3  0  0  0  0  0  0
  188.8940  177.2800  148.4030 C   0  0  1  0  0  3  0  0  0  0  0  0
  189.8680  176.5030  147.6900 O   0  0  0  0  0  0  0  0  0  0  0  0
  184.2470  178.3780  137.4940 C   0  0  0  0  0  2  0  0  0  0  0  0
  188.3980  177.1000  145.3780 C   0  0  1  0  0  3  0  0  0  0  0  0
  182.2810  178.7650  139.0150 C   0  0  0  0  0  2  0  0  0  0  0  0
  184.7300  176.9420  137.6370 C   0  0  0  0  0  2  0  0  0  0  0  0
  183.8010  178.0550  140.8250 C   0  0  0  0  0  0  0  0  0  0  0  0
  186.6620  177.5470  136.3150 O   0  0  0  0  0  0  0  0  0  0  0  0
  187.6870  176.7950  135.7290 C   0  0  2  0  0  3  0  0  0  0  0  0
  188.7990  177.7180  135.2280 C   0  0  2  0  0  3  0  0  0  0  0  0
  190.1410  177.0070  135.2300 C   0  0  0  0  0  1  0  0  0  0  0  0
  188.8850  178.8490  136.0410 O   0  0  0  0  0  1  0  0  0  0  0  0
  187.1160  175.9280  134.6070 C   0  0  0  0  0  2  0  0  0  0  0  0
  185.6030  175.7720  134.7260 C   0  0  0  0  0  2  0  0  0  0  0  0
  185.2220  174.3110  134.8990 C   0  0  0  0  0  2  0  0  0  0  0  0
  186.4520  173.4290  134.7730 C   0  0  0  0  0  2  0  0  0  0  0  0
  186.4980  172.4110  135.9020 C   0  0  1  0  0  3  0  0  0  0  0  0
  188.0510  171.6160  137.6570 F   0  0  0  0  0  0  0  0  0  0  0  0
  187.7320  172.5690  136.7370 C   0  0  0  0  0  0  0  0  0  0  0  0
  188.5480  173.5290  136.4740 N   0  0  0  0  0  0  0  0  0  0  0  0
  189.8240  173.6600  137.1350 C   0  0  0  0  0  2  0  0  0  0  0  0
  190.9310  173.3090  136.1980 C   0  0  0  0  0  0  0  0  0  0  0  0
  190.7050  172.3320  135.2390 O   0  0  0  0  0  1  0  0  0  0  0  0
  192.0910  173.9660  136.3050 C   0  0  0  0  0  3  0  0  0  0  0  0
  193.2350  173.8440  135.4900 O   0  0  0  0  0  0  0  0  0  0  0  0
  195.4880  173.9750  134.5940 C   0  0  0  0  0  1  0  0  0  0  0  0
  194.3880  175.9880  135.5890 C   0  0  0  0  0  1  0  0  0  0  0  0
  195.0590  174.1040  137.0030 C   0  0  0  0  0  1  0  0  0  0  0  0
  194.5100  174.4750  135.6410 C   0  0  0  0  0  0  0  0  0  0  0  0
  185.3380  173.3050  137.9540 N   0  0  0  0  0  1  0  0  0  0  0  0
  184.1970  171.9880  136.4180 O   0  0  0  0  0  0  0  0  0  0  0  0
  185.2840  172.5220  136.7670 C   0  0  0  0  0  0  0  0  0  0  0  0
  189.9550  178.6990  142.1890 C   0  0  0  0  0  2  0  0  0  0  0  0
  191.2850  178.0470  141.8490 C   0  0  0  0  0  2  0  0  0  0  0  0
  191.2530  177.4730  140.4460 C   0  0  0  0  0  2  0  0  0  0  0  0
  192.9010  176.6080  138.8530 C   0  0  0  0  0  2  0  0  0  0  0  0
  192.5800  176.8770  140.1160 C   0  0  0  0  0  3  0  0  0  0  0  0
  1 24  1  0  0  0  0
  2  9  2  0  0  0  0
  4 11  1  0  0  0  0
  5 22  1  0  0  0  0
  6 21  2  0  0  0  0
  8 16  1  1  0  0  0
  9 30  1  0  0  0  0
 10 16  1  6  0  0  0
 10 17  1  0  0  0  0
 11 14  2  0  0  0  0
 12 14  1  0  0  0  0
 12  3  1  0  0  0  0
 14  8  1  0  0  0  0
 15 35  1  0  0  0  0
 17 29  1  0  0  0  0
 17 26  1  1  0  0  0
 18 27  1  0  0  0  0
 19 33  1  0  0  0  0
 20  8  1  0  0  0  0
 20 32  1  0  0  0  0
 21 20  1  0  0  0  0
 22  1  1  0  0  0  0
 23  9  1  0  0  0  0
 24 61  1  1  0  0  0
 24 21  1  0  0  0  0
 25  5  1  0  0  0  0
 25 13  2  0  0  0  0
 27 12  2  0  0  0  0
 28 36  1  6  0  0  0
 28 34  1  0  0  0  0
 28 25  1  0  0  0  0
 29  7  1  6  0  0  0
 30 29  1  0  0  0  0
 31 19  1  0  0  0  0
 31 34  1  0  0  0  0
 32  2  1  6  0  0  0
 32 10  1  0  0  0  0
 33 15  1  0  0  0  0
 35 18  1  0  0  0  0
 35  4  2  0  0  0  0
 37 41  1  6  0  0  0
 37 36  1  0  0  0  0
 38 39  1  1  0  0  0
 38 37  1  0  0  0  0
 38 40  1  0  0  0  0
 41 42  1  0  0  0  0
 42 43  1  0  0  0  0
 44 43  1  0  0  0  0
 45 44  1  6  0  0  0
 45 47  1  0  0  0  0
 45 60  1  0  0  0  0
 47 46  1  0  0  0  0
 48 47  2  0  0  0  0
 48 49  1  0  0  0  0
 50 52  2  0  0  0  0
 50 49  1  0  0  0  0
 51 50  1  0  0  0  0
 53 57  1  0  0  0  0
 53 52  1  0  0  0  0
 54 57  1  0  0  0  0
 55 57  1  0  0  0  0
 57 56  1  0  0  0  0
 59 60  2  0  0  0  0
 60 58  1  0  0  0  0
 62 61  1  0  0  0  0
 63 62  1  0  0  0  0
 64 65  2  0  0  0  0
 65 63  1  0  0  0  0
M  END
>  <MODEL>
4

>  <REMARK>
 VINA RESULT:      -3.1      2.947      9.069
  Name = 
  18 active torsions:
  status: ('A' for Active; 'I' for Inactive)
    1  A    between atoms: O_3  and  C_46
    2  A    between atoms: O_3  and  C_50
    3  A    between atoms: C_9  and  C_16
    4  A    between atoms: C_9  and  C_37
    5  A    between atoms: C_15  and  C_46
    6  A    between atoms: C_16  and  C_55
    7  A    between atoms: C_24  and  C_55
    8  A    between atoms: C_26  and  C_38
    9  A    between atoms: C_29  and  C_40
   10  A    between atoms: C_29  and  C_44
   11  A    between atoms: C_36  and  C_63
   12  A    between atoms: C_37  and  C_58
   13  A    between atoms: C_38  and  N_41
   14  A    between atoms: C_40  and  C_63
   15  A    between atoms: C_46  and  C_58
   16  A    between atoms: O_51  and  C_62
   17  A    between atoms: O_51  and  C_64
   18  A    between atoms: C_55  and  C_59
                            x       y       z     vdW  Elec       q    Type
                         _______ _______ _______ _____ _____    ______ ____

>  <TORSDO>
F 18

$$$$
