=
 OpenBabel11062414123D

 32 35  0  0  1  0  0  0  0  0999 V2000
  189.4990  176.7300  140.6640 N   0  0  0  0  0  2  0  0  0  0  0  0
  189.9220  177.7650  147.1050 C   0  0  0  0  0  2  0  0  0  0  0  0
  188.8530  177.1640  142.9880 C   0  0  0  0  0  0  0  0  0  0  0  0
  186.3730  178.5810  141.7120 C   0  0  2  0  0  3  0  0  0  0  0  0
  187.8790  176.7430  144.0780 C   0  0  1  0  0  3  0  0  0  0  0  0
  185.8230  179.7610  141.2160 O   0  0  0  0  0  1  0  0  0  0  0  0
  190.0500  177.6990  143.2910 C   0  0  0  0  0  3  0  0  0  0  0  0
  190.4830  177.9030  144.6830 C   0  0  0  0  0  3  0  0  0  0  0  0
  187.6690  176.8350  146.6500 C   0  0  0  0  0  2  0  0  0  0  0  0
  188.6190  177.3000  147.7650 C   0  0  2  0  0  3  0  0  0  0  0  0
  188.3210  177.1830  145.4040 N   0  0  0  0  0  0  0  0  0  0  0  0
  187.9900  178.4570  148.5150 C   0  0  0  0  0  1  0  0  0  0  0  0
  189.6280  177.6470  145.6650 C   0  0  0  0  0  0  0  0  0  0  0  0
  188.3970  177.0800  141.5590 C   0  0  1  0  0  3  0  0  0  0  0  0
  186.4370  177.2000  143.8080 C   0  0  0  0  0  2  0  0  0  0  0  0
  186.3470  178.6160  143.2400 C   0  0  0  0  0  2  0  0  0  0  0  0
  187.7870  178.4150  141.1510 C   0  0  0  0  0  2  0  0  0  0  0  0
  189.5460  177.6180  139.4950 C   0  0  2  0  0  3  0  0  0  0  0  0
  188.6970  177.1050  138.3220 C   0  0  2  0  0  3  0  0  0  0  0  0
  189.4900  176.2110  137.3710 C   0  0  2  0  0  3  0  0  0  0  0  0
  188.7050  175.0120  136.9960 C   0  0  0  0  0  2  0  0  0  0  0  0
  189.7010  174.9620  137.9840 O   0  0  0  0  0  0  0  0  0  0  0  0
  186.8190  178.3750  137.2550 C   0  0  0  0  0  3  0  0  0  0  0  0
  188.1180  178.2700  137.5660 C   0  0  0  0  0  3  0  0  0  0  0  0
  185.3170  176.7280  136.4590 O   0  0  0  0  0  1  0  0  0  0  0  0
  184.6520  177.9980  138.3500 C   0  0  0  0  0  1  0  0  0  0  0  0
  185.8000  177.3400  137.6150 C   0  0  2  0  0  3  0  0  0  0  0  0
  190.9130  177.9500  139.1000 N   0  0  0  0  0  2  0  0  0  0  0  0
  191.8010  177.3800  140.0990 C   0  0  0  0  0  2  0  0  0  0  0  0
  193.1580  177.0900  139.4800 C   0  0  0  0  0  2  0  0  0  0  0  0
  193.0060  176.4330  138.1190 C   0  0  0  0  0  2  0  0  0  0  0  0
  193.9930  176.9020  137.2520 O   0  0  0  0  0  1  0  0  0  0  0  0
  2 10  1  0  0  0  0
  3  7  2  0  0  0  0
  3  5  1  0  0  0  0
  4  6  1  6  0  0  0
  4 16  1  0  0  0  0
  5 15  1  6  0  0  0
  5 11  1  0  0  0  0
  7  8  1  0  0  0  0
  8 13  2  0  0  0  0
  9 10  1  0  0  0  0
 10 12  1  6  0  0  0
 11 13  1  0  0  0  0
 11  9  1  0  0  0  0
 13  2  1  0  0  0  0
 14  1  1  6  0  0  0
 14  3  1  0  0  0  0
 16 15  1  0  0  0  0
 17 14  1  0  0  0  0
 17  4  1  0  0  0  0
 18 28  1  6  0  0  0
 18  1  1  0  0  0  0
 19 24  1  6  0  0  0
 19 18  1  0  0  0  0
 20 22  1  0  0  0  0
 20 19  1  1  0  0  0
 21 20  1  0  0  0  0
 21 22  1  0  0  0  0
 23 24  2  0  0  0  0
 23 27  1  0  0  0  0
 25 27  1  0  0  0  0
 27 26  1  6  0  0  0
 28 29  1  0  0  0  0
 30 29  1  0  0  0  0
 31 30  1  0  0  0  0
 32 31  1  0  0  0  0
M  END
>  <MODEL>
1

>  <REMARK>
 VINA RESULT:      -6.6      0.000      0.000
  Name = 
  10 active torsions:
  status: ('A' for Active; 'I' for Inactive)
    1  A    between atoms: C_3  and  C_13
    2  A    between atoms: C_4  and  C_13
    3  A    between atoms: C_4  and  N_21
    4  A    between atoms: C_4  and  N_30
    5  A    between atoms: C_6  and  C_8
    6  A    between atoms: C_6  and  C_18
    7  A    between atoms: C_13  and  C_28
    8  A    between atoms: C_18  and  N_30
    9  A    between atoms: C_19  and  C_32
   10  A    between atoms: N_21  and  C_26
                            x       y       z     vdW  Elec       q    Type
                         _______ _______ _______ _____ _____    ______ ____

>  <TORSDO>
F 10

$$$$
=
 OpenBabel11062414123D

 32 35  0  0  1  0  0  0  0  0999 V2000
  189.7270  177.4050  140.3930 N   0  0  0  0  0  2  0  0  0  0  0  0
  189.8720  178.0560  146.8970 C   0  0  0  0  0  2  0  0  0  0  0  0
  188.9830  177.5500  142.7240 C   0  0  0  0  0  0  0  0  0  0  0  0
  186.2960  178.5600  141.4840 C   0  0  2  0  0  3  0  0  0  0  0  0
  188.0940  176.8790  143.7610 C   0  0  1  0  0  3  0  0  0  0  0  0
  185.5390  179.6470  141.0520 O   0  0  0  0  0  1  0  0  0  0  0  0
  190.0540  178.2770  143.0900 C   0  0  0  0  0  3  0  0  0  0  0  0
  190.4250  178.4630  144.5030 C   0  0  0  0  0  3  0  0  0  0  0  0
  187.8400  176.7530  146.3280 C   0  0  0  0  0  2  0  0  0  0  0  0
  188.6720  177.3100  147.4930 C   0  0  2  0  0  3  0  0  0  0  0  0
  188.4300  177.3030  145.1230 N   0  0  0  0  0  0  0  0  0  0  0  0
  187.8280  178.2750  148.3010 C   0  0  0  0  0  1  0  0  0  0  0  0
  189.6220  177.9840  145.4450 C   0  0  0  0  0  0  0  0  0  0  0  0
  188.5690  177.4800  141.2820 C   0  0  1  0  0  3  0  0  0  0  0  0
  186.5950  177.0750  143.4850 C   0  0  0  0  0  2  0  0  0  0  0  0
  186.2450  178.4850  143.0090 C   0  0  0  0  0  2  0  0  0  0  0  0
  187.7220  178.7010  140.9470 C   0  0  0  0  0  2  0  0  0  0  0  0
  189.3290  177.4890  138.9820 C   0  0  2  0  0  3  0  0  0  0  0  0
  190.2010  176.6180  138.0640 C   0  0  2  0  0  3  0  0  0  0  0  0
  189.5580  175.2690  137.7510 C   0  0  2  0  0  3  0  0  0  0  0  0
  189.0640  175.2300  136.3550 C   0  0  0  0  0  2  0  0  0  0  0  0
  188.2000  175.4690  137.4360 O   0  0  0  0  0  0  0  0  0  0  0  0
  192.6550  176.1190  137.9920 C   0  0  0  0  0  3  0  0  0  0  0  0
  191.5500  176.4080  138.6930 C   0  0  0  0  0  3  0  0  0  0  0  0
  192.5260  174.6140  136.1690 O   0  0  0  0  0  1  0  0  0  0  0  0
  193.9780  176.4790  135.9530 C   0  0  0  0  0  1  0  0  0  0  0  0
  192.6660  175.9610  136.5030 C   0  0  2  0  0  3  0  0  0  0  0  0
  189.2180  178.8680  138.5130 N   0  0  0  0  0  2  0  0  0  0  0  0
  188.9600  178.8180  137.0840 C   0  0  0  0  0  2  0  0  0  0  0  0
  187.4620  178.8310  136.8280 C   0  0  0  0  0  2  0  0  0  0  0  0
  187.1350  178.2090  135.4810 C   0  0  0  0  0  2  0  0  0  0  0  0
  186.0590  177.3320  135.6130 O   0  0  0  0  0  1  0  0  0  0  0  0
  2 10  1  0  0  0  0
  3  7  2  0  0  0  0
  3  5  1  0  0  0  0
  4  6  1  1  0  0  0
  4 16  1  0  0  0  0
  5 15  1  6  0  0  0
  5 11  1  0  0  0  0
  7  8  1  0  0  0  0
  8 13  2  0  0  0  0
  9 10  1  0  0  0  0
 10 12  1  6  0  0  0
 11 13  1  0  0  0  0
 11  9  1  0  0  0  0
 13  2  1  0  0  0  0
 14  1  1  6  0  0  0
 14  3  1  0  0  0  0
 16 15  1  0  0  0  0
 17 14  1  0  0  0  0
 17  4  1  0  0  0  0
 18 28  1  6  0  0  0
 18  1  1  0  0  0  0
 19 24  1  1  0  0  0
 19 18  1  0  0  0  0
 20 19  1  6  0  0  0
 21 22  1  0  0  0  0
 21 20  1  0  0  0  0
 22 20  1  0  0  0  0
 23 24  2  0  0  0  0
 25 27  1  0  0  0  0
 27 26  1  1  0  0  0
 27 23  1  0  0  0  0
 29 28  1  0  0  0  0
 30 29  1  0  0  0  0
 31 32  1  0  0  0  0
 31 30  1  0  0  0  0
M  END
>  <MODEL>
2

>  <REMARK>
 VINA RESULT:      -6.5      1.221      3.728
  Name = 
  10 active torsions:
  status: ('A' for Active; 'I' for Inactive)
    1  A    between atoms: C_3  and  C_13
    2  A    between atoms: C_4  and  C_13
    3  A    between atoms: C_4  and  N_21
    4  A    between atoms: C_4  and  N_30
    5  A    between atoms: C_6  and  C_8
    6  A    between atoms: C_6  and  C_18
    7  A    between atoms: C_13  and  C_28
    8  A    between atoms: C_18  and  N_30
    9  A    between atoms: C_19  and  C_32
   10  A    between atoms: N_21  and  C_26
                            x       y       z     vdW  Elec       q    Type
                         _______ _______ _______ _____ _____    ______ ____

>  <TORSDO>
F 10

$$$$
=
 OpenBabel11062414123D

 32 35  0  0  1  0  0  0  0  0999 V2000
  183.9750  179.1030  142.0890 N   0  0  0  0  0  2  0  0  0  0  0  0
  190.2630  177.4130  141.4960 C   0  0  0  0  0  2  0  0  0  0  0  0
  186.1910  178.1990  142.6190 C   0  0  0  0  0  0  0  0  0  0  0  0
  185.3930  178.8030  145.5810 C   0  0  2  0  0  3  0  0  0  0  0  0
  186.9030  176.9870  143.2010 C   0  0  1  0  0  3  0  0  0  0  0  0
  185.3870  179.7190  146.6310 O   0  0  0  0  0  1  0  0  0  0  0  0
  186.8060  179.0130  141.7420 C   0  0  0  0  0  3  0  0  0  0  0  0
  188.1900  178.7790  141.2980 C   0  0  0  0  0  3  0  0  0  0  0  0
  189.2410  175.8920  143.1680 C   0  0  0  0  0  2  0  0  0  0  0  0
  190.5360  176.2040  142.4000 C   0  0  2  0  0  3  0  0  0  0  0  0
  188.3270  176.9730  142.8580 N   0  0  0  0  0  0  0  0  0  0  0  0
  191.6370  176.5470  143.3840 C   0  0  0  0  0  1  0  0  0  0  0  0
  188.8850  177.7950  141.8570 C   0  0  0  0  0  0  0  0  0  0  0  0
  184.8220  178.5350  143.1370 C   0  0  1  0  0  3  0  0  0  0  0  0
  186.7100  176.8470  144.7200 C   0  0  0  0  0  2  0  0  0  0  0  0
  186.7830  178.1800  145.4650 C   0  0  0  0  0  2  0  0  0  0  0  0
  184.9550  179.5120  144.2980 C   0  0  0  0  0  2  0  0  0  0  0  0
  182.8280  178.2340  141.7940 C   0  0  2  0  0  3  0  0  0  0  0  0
  182.4570  178.2210  140.3030 C   0  0  2  0  0  3  0  0  0  0  0  0
  182.5480  176.8260  139.6880 C   0  0  2  0  0  3  0  0  0  0  0  0
  181.3770  176.5530  138.8220 C   0  0  0  0  0  2  0  0  0  0  0  0
  181.4570  176.0560  140.1330 O   0  0  0  0  0  0  0  0  0  0  0  0
  182.8900  180.0560  138.6530 C   0  0  0  0  0  3  0  0  0  0  0  0
  183.3470  179.1710  139.5490 C   0  0  0  0  0  3  0  0  0  0  0  0
  181.2890  180.0940  136.9090 O   0  0  0  0  0  1  0  0  0  0  0  0
  180.9320  181.5350  138.7610 C   0  0  0  0  0  1  0  0  0  0  0  0
  181.4440  180.1900  138.2920 C   0  0  2  0  0  3  0  0  0  0  0  0
  181.6830  178.5080  142.6580 N   0  0  0  0  0  2  0  0  0  0  0  0
  180.7760  179.3640  141.9130 C   0  0  0  0  0  2  0  0  0  0  0  0
  179.3370  178.9930  142.2300 C   0  0  0  0  0  2  0  0  0  0  0  0
  178.9310  179.5100  143.5990 C   0  0  0  0  0  2  0  0  0  0  0  0
  178.9310  178.4630  144.5200 O   0  0  0  0  0  1  0  0  0  0  0  0
  2 13  1  0  0  0  0
  2 10  1  0  0  0  0
  3 14  1  0  0  0  0
  3  5  1  0  0  0  0
  4  6  1  1  0  0  0
  5 15  1  1  0  0  0
  7  3  2  0  0  0  0
  8  7  1  0  0  0  0
  8 13  2  0  0  0  0
 10  9  1  0  0  0  0
 10 12  1  1  0  0  0
 11  9  1  0  0  0  0
 11  5  1  0  0  0  0
 13 11  1  0  0  0  0
 14  1  1  6  0  0  0
 14 17  1  0  0  0  0
 15 16  1  0  0  0  0
 16  4  1  0  0  0  0
 17  4  1  0  0  0  0
 18  1  1  6  0  0  0
 18 28  1  0  0  0  0
 19 24  1  6  0  0  0
 19 18  1  0  0  0  0
 20 22  1  0  0  0  0
 20 19  1  1  0  0  0
 21 20  1  0  0  0  0
 21 22  1  0  0  0  0
 23 24  2  0  0  0  0
 25 27  1  0  0  0  0
 27 23  1  0  0  0  0
 27 26  1  6  0  0  0
 29 30  1  0  0  0  0
 29 28  1  0  0  0  0
 30 31  1  0  0  0  0
 31 32  1  0  0  0  0
M  END
>  <MODEL>
3

>  <REMARK>
 VINA RESULT:      -6.5      4.116      7.235
  Name = 
  10 active torsions:
  status: ('A' for Active; 'I' for Inactive)
    1  A    between atoms: C_3  and  C_13
    2  A    between atoms: C_4  and  C_13
    3  A    between atoms: C_4  and  N_21
    4  A    between atoms: C_4  and  N_30
    5  A    between atoms: C_6  and  C_8
    6  A    between atoms: C_6  and  C_18
    7  A    between atoms: C_13  and  C_28
    8  A    between atoms: C_18  and  N_30
    9  A    between atoms: C_19  and  C_32
   10  A    between atoms: N_21  and  C_26
                            x       y       z     vdW  Elec       q    Type
                         _______ _______ _______ _____ _____    ______ ____

>  <TORSDO>
F 10

$$$$
=
 OpenBabel11062414123D

 32 35  0  0  1  0  0  0  0  0999 V2000
  187.2260  179.2100  141.3410 N   0  0  0  0  0  2  0  0  0  0  0  0
  189.7660  176.6780  146.8070 C   0  0  0  0  0  2  0  0  0  0  0  0
  188.8210  178.1920  142.9000 C   0  0  0  0  0  0  0  0  0  0  0  0
  190.1080  176.9870  140.3170 C   0  0  2  0  0  3  0  0  0  0  0  0
  190.2530  178.2820  143.4060 C   0  0  1  0  0  3  0  0  0  0  0  0
  190.1450  175.9320  139.4070 O   0  0  0  0  0  1  0  0  0  0  0  0
  187.8430  177.6690  143.6620 C   0  0  0  0  0  3  0  0  0  0  0  0
  188.1010  177.1600  145.0190 C   0  0  0  0  0  3  0  0  0  0  0  0
  191.6480  177.5610  145.4560 C   0  0  0  0  0  2  0  0  0  0  0  0
  191.2830  176.8950  146.7920 C   0  0  2  0  0  3  0  0  0  0  0  0
  190.4310  177.5610  144.6690 N   0  0  0  0  0  0  0  0  0  0  0  0
  191.9870  175.5580  146.9000 C   0  0  0  0  0  1  0  0  0  0  0  0
  189.3510  177.1230  145.4640 C   0  0  0  0  0  0  0  0  0  0  0  0
  188.5450  178.5920  141.4780 C   0  0  1  0  0  3  0  0  0  0  0  0
  191.2890  177.8220  142.3680 C   0  0  0  0  0  2  0  0  0  0  0  0
  190.8550  176.5830  141.5870 C   0  0  0  0  0  2  0  0  0  0  0  0
  188.6490  177.3630  140.5850 C   0  0  0  0  0  2  0  0  0  0  0  0
  186.2530  178.2780  140.7560 C   0  0  2  0  0  3  0  0  0  0  0  0
  185.6440  178.7970  139.4450 C   0  0  2  0  0  3  0  0  0  0  0  0
  184.1980  179.2590  139.6130 C   0  0  2  0  0  3  0  0  0  0  0  0
  183.5660  179.5090  138.2970 C   0  0  0  0  0  2  0  0  0  0  0  0
  184.0660  180.5580  139.0850 O   0  0  0  0  0  0  0  0  0  0  0  0
  186.7050  177.6510  137.4860 C   0  0  0  0  0  3  0  0  0  0  0  0
  185.7190  177.7280  138.3900 C   0  0  0  0  0  3  0  0  0  0  0  0
  187.4590  179.7360  136.6560 O   0  0  0  0  0  1  0  0  0  0  0  0
  189.0350  177.9660  136.7750 C   0  0  0  0  0  1  0  0  0  0  0  0
  187.8350  178.6290  137.4170 C   0  0  2  0  0  3  0  0  0  0  0  0
  185.2410  177.8500  141.7180 N   0  0  0  0  0  2  0  0  0  0  0  0
  184.9720  178.9800  142.5920 C   0  0  0  0  0  2  0  0  0  0  0  0
  183.8350  178.6400  143.5410 C   0  0  0  0  0  2  0  0  0  0  0  0
  183.8450  179.5570  144.7520 C   0  0  0  0  0  2  0  0  0  0  0  0
  184.0540  178.8090  145.9110 O   0  0  0  0  0  1  0  0  0  0  0  0
  3  5  1  0  0  0  0
  3  7  2  0  0  0  0
  4  6  1  6  0  0  0
  4 17  1  0  0  0  0
  4 16  1  0  0  0  0
  5 15  1  6  0  0  0
  5 11  1  0  0  0  0
  7  8  1  0  0  0  0
  8 13  2  0  0  0  0
  9 10  1  0  0  0  0
 10  2  1  0  0  0  0
 10 12  1  6  0  0  0
 11  9  1  0  0  0  0
 11 13  1  0  0  0  0
 13  2  1  0  0  0  0
 14  1  1  1  0  0  0
 14  3  1  0  0  0  0
 16 15  1  0  0  0  0
 17 14  1  0  0  0  0
 18  1  1  1  0  0  0
 18 28  1  0  0  0  0
 19 24  1  6  0  0  0
 19 18  1  0  0  0  0
 20 19  1  6  0  0  0
 21 22  1  0  0  0  0
 21 20  1  0  0  0  0
 22 20  1  0  0  0  0
 23 24  2  0  0  0  0
 25 27  1  0  0  0  0
 27 26  1  6  0  0  0
 27 23  1  0  0  0  0
 28 29  1  0  0  0  0
 29 30  1  0  0  0  0
 30 31  1  0  0  0  0
 31 32  1  0  0  0  0
M  END
>  <MODEL>
4

>  <REMARK>
 VINA RESULT:      -6.1      2.218      5.449
  Name = 
  10 active torsions:
  status: ('A' for Active; 'I' for Inactive)
    1  A    between atoms: C_3  and  C_13
    2  A    between atoms: C_4  and  C_13
    3  A    between atoms: C_4  and  N_21
    4  A    between atoms: C_4  and  N_30
    5  A    between atoms: C_6  and  C_8
    6  A    between atoms: C_6  and  C_18
    7  A    between atoms: C_13  and  C_28
    8  A    between atoms: C_18  and  N_30
    9  A    between atoms: C_19  and  C_32
   10  A    between atoms: N_21  and  C_26
                            x       y       z     vdW  Elec       q    Type
                         _______ _______ _______ _____ _____    ______ ____

>  <TORSDO>
F 10

$$$$
=
 OpenBabel11062414123D

 32 35  0  0  1  0  0  0  0  0999 V2000
  183.7050  178.2540  143.0750 N   0  0  0  0  0  2  0  0  0  0  0  0
  182.0250  176.9530  136.8920 C   0  0  0  0  0  2  0  0  0  0  0  0
  182.5940  178.4050  140.8950 C   0  0  0  0  0  0  0  0  0  0  0  0
  180.2570  179.7030  142.5180 C   0  0  2  0  0  3  0  0  0  0  0  0
  182.1940  179.3820  139.7990 C   0  0  1  0  0  3  0  0  0  0  0  0
  179.0790  179.5110  143.2360 O   0  0  0  0  0  1  0  0  0  0  0  0
  182.7960  177.1020  140.6280 C   0  0  0  0  0  3  0  0  0  0  0  0
  182.6430  176.5520  139.2710 C   0  0  0  0  0  3  0  0  0  0  0  0
  181.5650  179.3560  137.2950 C   0  0  0  0  0  2  0  0  0  0  0  0
  181.5440  178.2490  136.2290 C   0  0  2  0  0  3  0  0  0  0  0  0
  181.8670  178.6930  138.5470 N   0  0  0  0  0  0  0  0  0  0  0  0
  180.1290  178.0630  135.7210 C   0  0  0  0  0  1  0  0  0  0  0  0
  182.1960  177.3430  138.3040 C   0  0  0  0  0  0  0  0  0  0  0  0
  182.6440  178.9070  142.3100 C   0  0  1  0  0  3  0  0  0  0  0  0
  181.0490  180.3190  140.2170 C   0  0  0  0  0  2  0  0  0  0  0  0
  179.9550  179.6190  141.0220 C   0  0  0  0  0  2  0  0  0  0  0  0
  181.2920  178.6710  142.9700 C   0  0  0  0  0  2  0  0  0  0  0  0
  184.8660  179.1370  143.2470 C   0  0  2  0  0  3  0  0  0  0  0  0
  186.1840  178.4840  142.8030 C   0  0  2  0  0  3  0  0  0  0  0  0
  186.1790  178.1030  141.3240 C   0  0  2  0  0  3  0  0  0  0  0  0
  187.3740  178.6460  140.6360 C   0  0  0  0  0  2  0  0  0  0  0  0
  186.1220  179.2760  140.5480 O   0  0  0  0  0  0  0  0  0  0  0  0
  187.6690  176.9600  144.1250 C   0  0  0  0  0  3  0  0  0  0  0  0
  186.4570  177.2670  143.6440 C   0  0  0  0  0  3  0  0  0  0  0  0
  189.6780  177.1800  142.8930 O   0  0  0  0  0  1  0  0  0  0  0  0
  189.6880  177.9140  145.1500 C   0  0  0  0  0  1  0  0  0  0  0  0
  188.8890  177.7870  143.8700 C   0  0  2  0  0  3  0  0  0  0  0  0
  184.9420  179.7030  144.5920 N   0  0  0  0  0  2  0  0  0  0  0  0
  184.0010  178.9700  145.4220 C   0  0  0  0  0  2  0  0  0  0  0  0
  184.7460  178.2530  146.5370 C   0  0  0  0  0  2  0  0  0  0  0  0
  185.9800  179.0330  146.9560 C   0  0  0  0  0  2  0  0  0  0  0  0
  186.9810  178.1530  147.3660 O   0  0  0  0  0  1  0  0  0  0  0  0
  2 13  1  0  0  0  0
  3 14  1  0  0  0  0
  4 17  1  0  0  0  0
  4  6  1  1  0  0  0
  5 15  1  1  0  0  0
  5  3  1  0  0  0  0
  7  3  2  0  0  0  0
  8  7  1  0  0  0  0
  9 11  1  0  0  0  0
 10 12  1  1  0  0  0
 10  2  1  0  0  0  0
 10  9  1  0  0  0  0
 11  5  1  0  0  0  0
 13 11  1  0  0  0  0
 13  8  2  0  0  0  0
 14 17  1  0  0  0  0
 14  1  1  1  0  0  0
 15 16  1  0  0  0  0
 16  4  1  0  0  0  0
 18  1  1  1  0  0  0
 18 28  1  0  0  0  0
 19 18  1  0  0  0  0
 19 24  1  1  0  0  0
 20 19  1  1  0  0  0
 21 20  1  0  0  0  0
 22 21  1  0  0  0  0
 22 20  1  0  0  0  0
 24 23  2  0  0  0  0
 25 27  1  0  0  0  0
 27 23  1  0  0  0  0
 27 26  1  1  0  0  0
 28 29  1  0  0  0  0
 29 30  1  0  0  0  0
 30 31  1  0  0  0  0
 31 32  1  0  0  0  0
M  END
>  <MODEL>
5

>  <REMARK>
 VINA RESULT:      -5.7      3.964      8.803
  Name = 
  10 active torsions:
  status: ('A' for Active; 'I' for Inactive)
    1  A    between atoms: C_3  and  C_13
    2  A    between atoms: C_4  and  C_13
    3  A    between atoms: C_4  and  N_21
    4  A    between atoms: C_4  and  N_30
    5  A    between atoms: C_6  and  C_8
    6  A    between atoms: C_6  and  C_18
    7  A    between atoms: C_13  and  C_28
    8  A    between atoms: C_18  and  N_30
    9  A    between atoms: C_19  and  C_32
   10  A    between atoms: N_21  and  C_26
                            x       y       z     vdW  Elec       q    Type
                         _______ _______ _______ _____ _____    ______ ____

>  <TORSDO>
F 10

$$$$
=
 OpenBabel11062414123D

 32 35  0  0  1  0  0  0  0  0999 V2000
  185.7320  179.3790  140.3610 N   0  0  0  0  0  2  0  0  0  0  0  0
  179.6500  178.9530  138.0010 C   0  0  0  0  0  2  0  0  0  0  0  0
  183.7600  178.5310  139.1770 C   0  0  0  0  0  0  0  0  0  0  0  0
  185.8540  177.1030  137.3440 C   0  0  2  0  0  3  0  0  0  0  0  0
  182.9180  177.2840  138.9550 C   0  0  1  0  0  3  0  0  0  0  0  0
  186.6540  177.1680  136.2060 O   0  0  0  0  0  1  0  0  0  0  0  0
  183.2350  179.7610  139.0340 C   0  0  0  0  0  3  0  0  0  0  0  0
  181.8260  179.9690  138.6610 C   0  0  0  0  0  3  0  0  0  0  0  0
  180.5420  176.6460  138.1720 C   0  0  0  0  0  2  0  0  0  0  0  0
  179.2980  177.4730  137.8100 C   0  0  2  0  0  3  0  0  0  0  0  0
  181.6060  177.6050  138.3870 N   0  0  0  0  0  0  0  0  0  0  0  0
  178.9310  177.2240  136.3610 C   0  0  0  0  0  1  0  0  0  0  0  0
  181.0810  178.9130  138.3570 C   0  0  0  0  0  0  0  0  0  0  0  0
  185.2280  178.3580  139.4430 C   0  0  1  0  0  3  0  0  0  0  0  0
  183.6310  176.2190  138.1060 C   0  0  0  0  0  2  0  0  0  0  0  0
  184.4130  176.8040  136.9310 C   0  0  0  0  0  2  0  0  0  0  0  0
  185.9850  178.4140  138.1220 C   0  0  0  0  0  2  0  0  0  0  0  0
  186.0360  178.8130  141.6810 C   0  0  2  0  0  3  0  0  0  0  0  0
  187.3810  178.0710  141.7170 C   0  0  2  0  0  3  0  0  0  0  0  0
  187.8600  177.7940  143.1400 C   0  0  2  0  0  3  0  0  0  0  0  0
  188.4120  176.4240  143.2550 C   0  0  0  0  0  2  0  0  0  0  0  0
  187.1090  176.7320  143.6800 O   0  0  0  0  0  0  0  0  0  0  0  0
  189.2440  178.3290  140.0620 C   0  0  0  0  0  3  0  0  0  0  0  0
  188.4200  178.8640  140.9730 C   0  0  0  0  0  3  0  0  0  0  0  0
  190.2600  176.2110  140.3580 O   0  0  0  0  0  1  0  0  0  0  0  0
  189.4300  176.7390  138.1990 C   0  0  0  0  0  1  0  0  0  0  0  0
  189.2320  176.8780  139.6930 C   0  0  2  0  0  3  0  0  0  0  0  0
  184.9360  178.0130  142.2130 N   0  0  0  0  0  2  0  0  0  0  0  0
  184.0140  178.9280  142.8650 C   0  0  0  0  0  2  0  0  0  0  0  0
  184.6710  179.5360  144.0940 C   0  0  0  0  0  2  0  0  0  0  0  0
  184.4200  178.6810  145.3240 C   0  0  0  0  0  2  0  0  0  0  0  0
  185.1490  179.1790  146.4040 O   0  0  0  0  0  1  0  0  0  0  0  0
  2 13  1  0  0  0  0
  3 14  1  0  0  0  0
  4  6  1  6  0  0  0
  4 17  1  0  0  0  0
  5 15  1  6  0  0  0
  5  3  1  0  0  0  0
  7  3  2  0  0  0  0
  8  7  1  0  0  0  0
  9 11  1  0  0  0  0
 10 12  1  6  0  0  0
 10  2  1  0  0  0  0
 10  9  1  0  0  0  0
 11  5  1  0  0  0  0
 13 11  1  0  0  0  0
 13  8  2  0  0  0  0
 14  1  1  1  0  0  0
 16  4  1  0  0  0  0
 16 15  1  0  0  0  0
 17 14  1  0  0  0  0
 18  1  1  6  0  0  0
 18 19  1  0  0  0  0
 18 28  1  0  0  0  0
 19 24  1  1  0  0  0
 20 19  1  6  0  0  0
 20 21  1  0  0  0  0
 20 22  1  0  0  0  0
 21 22  1  0  0  0  0
 23 24  2  0  0  0  0
 27 26  1  6  0  0  0
 27 23  1  0  0  0  0
 27 25  1  0  0  0  0
 28 29  1  0  0  0  0
 29 30  1  0  0  0  0
 30 31  1  0  0  0  0
 31 32  1  0  0  0  0
M  END
>  <MODEL>
6

>  <REMARK>
 VINA RESULT:      -5.7      3.300      8.285
  Name = 
  10 active torsions:
  status: ('A' for Active; 'I' for Inactive)
    1  A    between atoms: C_3  and  C_13
    2  A    between atoms: C_4  and  C_13
    3  A    between atoms: C_4  and  N_21
    4  A    between atoms: C_4  and  N_30
    5  A    between atoms: C_6  and  C_8
    6  A    between atoms: C_6  and  C_18
    7  A    between atoms: C_13  and  C_28
    8  A    between atoms: C_18  and  N_30
    9  A    between atoms: C_19  and  C_32
   10  A    between atoms: N_21  and  C_26
                            x       y       z     vdW  Elec       q    Type
                         _______ _______ _______ _____ _____    ______ ____

>  <TORSDO>
F 10

$$$$
=
 OpenBabel11062414123D

 32 35  0  0  1  0  0  0  0  0999 V2000
  184.7830  178.2030  140.6880 N   0  0  0  0  0  2  0  0  0  0  0  0
  190.9380  177.7870  142.8510 C   0  0  0  0  0  2  0  0  0  0  0  0
  186.6950  177.9050  142.1930 C   0  0  0  0  0  0  0  0  0  0  0  0
  184.7180  178.8950  144.4050 C   0  0  2  0  0  3  0  0  0  0  0  0
  187.2530  177.0070  143.2870 C   0  0  1  0  0  3  0  0  0  0  0  0
  184.1870  179.9770  145.1040 O   0  0  0  0  0  1  0  0  0  0  0  0
  187.5070  178.6430  141.4150 C   0  0  0  0  0  3  0  0  0  0  0  0
  188.9710  178.6220  141.5740 C   0  0  0  0  0  3  0  0  0  0  0  0
  189.5230  176.4420  144.3800 C   0  0  0  0  0  2  0  0  0  0  0  0
  190.9700  176.8630  144.0740 C   0  0  2  0  0  3  0  0  0  0  0  0
  188.6880  177.2260  143.4930 N   0  0  0  0  0  0  0  0  0  0  0  0
  191.5390  177.6140  145.2610 C   0  0  0  0  0  1  0  0  0  0  0  0
  189.4960  177.9350  142.5800 C   0  0  0  0  0  0  0  0  0  0  0  0
  185.2030  178.0410  142.0790 C   0  0  1  0  0  3  0  0  0  0  0  0
  186.4900  177.1300  144.6150 C   0  0  0  0  0  2  0  0  0  0  0  0
  186.1030  178.5670  144.9610 C   0  0  0  0  0  2  0  0  0  0  0  0
  184.7460  179.2320  142.9120 C   0  0  0  0  0  2  0  0  0  0  0  0
  183.5660  179.0190  140.5850 C   0  0  2  0  0  3  0  0  0  0  0  0
  182.2940  178.1740  140.4140 C   0  0  2  0  0  3  0  0  0  0  0  0
  181.3650  178.2620  141.6230 C   0  0  2  0  0  3  0  0  0  0  0  0
  180.0210  178.7400  141.2220 C   0  0  0  0  0  2  0  0  0  0  0  0
  180.9680  179.6010  141.8010 O   0  0  0  0  0  0  0  0  0  0  0  0
  182.0620  175.9720  139.2410 C   0  0  0  0  0  3  0  0  0  0  0  0
  182.6670  176.7400  140.1580 C   0  0  0  0  0  3  0  0  0  0  0  0
  179.9120  175.5090  138.3640 O   0  0  0  0  0  1  0  0  0  0  0  0
  181.4440  176.6620  136.9660 C   0  0  0  0  0  1  0  0  0  0  0  0
  180.9390  176.4530  138.3770 C   0  0  2  0  0  3  0  0  0  0  0  0
  183.6840  180.0720  139.5790 N   0  0  0  0  0  2  0  0  0  0  0  0
  182.5690  179.9160  138.6590 C   0  0  0  0  0  2  0  0  0  0  0  0
  181.8840  181.2560  138.4450 C   0  0  0  0  0  2  0  0  0  0  0  0
  180.3730  181.1000  138.4480 C   0  0  0  0  0  2  0  0  0  0  0  0
  179.8140  181.9120  139.4360 O   0  0  0  0  0  1  0  0  0  0  0  0
  2 10  1  0  0  0  0
  3  5  1  0  0  0  0
  4 16  1  0  0  0  0
  4  6  1  1  0  0  0
  5 11  1  0  0  0  0
  5 15  1  1  0  0  0
  7  8  1  0  0  0  0
  7  3  2  0  0  0  0
  8 13  2  0  0  0  0
 10  9  1  0  0  0  0
 10 12  1  1  0  0  0
 11  9  1  0  0  0  0
 13  2  1  0  0  0  0
 13 11  1  0  0  0  0
 14  1  1  6  0  0  0
 14  3  1  0  0  0  0
 14 17  1  0  0  0  0
 15 16  1  0  0  0  0
 17  4  1  0  0  0  0
 18 28  1  6  0  0  0
 18  1  1  0  0  0  0
 19 24  1  1  0  0  0
 19 18  1  0  0  0  0
 20 19  1  6  0  0  0
 20 22  1  0  0  0  0
 21 20  1  0  0  0  0
 21 22  1  0  0  0  0
 23 24  2  0  0  0  0
 25 27  1  0  0  0  0
 27 26  1  6  0  0  0
 27 23  1  0  0  0  0
 29 28  1  0  0  0  0
 30 31  1  0  0  0  0
 30 29  1  0  0  0  0
 31 32  1  0  0  0  0
M  END
>  <MODEL>
7

>  <REMARK>
 VINA RESULT:      -5.7      4.312      6.712
  Name = 
  10 active torsions:
  status: ('A' for Active; 'I' for Inactive)
    1  A    between atoms: C_3  and  C_13
    2  A    between atoms: C_4  and  C_13
    3  A    between atoms: C_4  and  N_21
    4  A    between atoms: C_4  and  N_30
    5  A    between atoms: C_6  and  C_8
    6  A    between atoms: C_6  and  C_18
    7  A    between atoms: C_13  and  C_28
    8  A    between atoms: C_18  and  N_30
    9  A    between atoms: C_19  and  C_32
   10  A    between atoms: N_21  and  C_26
                            x       y       z     vdW  Elec       q    Type
                         _______ _______ _______ _____ _____    ______ ____

>  <TORSDO>
F 10

$$$$
=
 OpenBabel11062414123D

 32 35  0  0  1  0  0  0  0  0999 V2000
  184.6920  179.4640  140.4870 N   0  0  0  0  0  2  0  0  0  0  0  0
  189.1220  177.0880  144.6670 C   0  0  0  0  0  2  0  0  0  0  0  0
  186.8070  178.6050  141.3820 C   0  0  0  0  0  0  0  0  0  0  0  0
  187.3160  177.6670  138.4420 C   0  0  2  0  0  3  0  0  0  0  0  0
  188.3060  178.8600  141.4160 C   0  0  1  0  0  3  0  0  0  0  0  0
  187.1740  176.6590  137.4920 O   0  0  0  0  0  1  0  0  0  0  0  0
  186.1910  177.9340  142.3730 C   0  0  0  0  0  3  0  0  0  0  0  0
  186.9270  177.4150  143.5370 C   0  0  0  0  0  3  0  0  0  0  0  0
  190.3580  178.2520  142.8600 C   0  0  0  0  0  2  0  0  0  0  0  0
  190.5200  177.4990  144.1900 C   0  0  2  0  0  3  0  0  0  0  0  0
  188.9600  178.1240  142.5000 N   0  0  0  0  0  0  0  0  0  0  0  0
  191.3640  176.2590  143.9690 C   0  0  0  0  0  1  0  0  0  0  0  0
  188.2500  177.5230  143.5600 C   0  0  0  0  0  0  0  0  0  0  0  0
  186.0440  179.0170  140.1550 C   0  0  1  0  0  3  0  0  0  0  0  0
  188.9960  178.5740  140.0720 C   0  0  0  0  0  2  0  0  0  0  0  0
  188.4730  177.3180  139.3780 C   0  0  0  0  0  2  0  0  0  0  0  0
  185.9900  177.8440  139.1850 C   0  0  0  0  0  2  0  0  0  0  0  0
  183.6990  178.4140  140.2290 C   0  0  2  0  0  3  0  0  0  0  0  0
  182.6520  178.8270  139.1830 C   0  0  2  0  0  3  0  0  0  0  0  0
  182.6370  177.8980  137.9710 C   0  0  2  0  0  3  0  0  0  0  0  0
  181.3690  177.1350  137.9060 C   0  0  0  0  0  2  0  0  0  0  0  0
  182.5470  176.5650  138.4150 O   0  0  0  0  0  0  0  0  0  0  0  0
  181.9290  181.1200  138.4810 C   0  0  0  0  0  3  0  0  0  0  0  0
  182.9070  180.2410  138.7390 C   0  0  0  0  0  3  0  0  0  0  0  0
  179.9750  180.4180  137.3450 O   0  0  0  0  0  1  0  0  0  0  0  0
  179.7200  182.0030  139.0930 C   0  0  0  0  0  1  0  0  0  0  0  0
  180.4740  180.7900  138.5940 C   0  0  2  0  0  3  0  0  0  0  0  0
  183.0970  177.9010  141.4570 N   0  0  0  0  0  2  0  0  0  0  0  0
  182.0990  178.8670  141.8850 C   0  0  0  0  0  2  0  0  0  0  0  0
  182.0410  178.9130  143.4030 C   0  0  0  0  0  2  0  0  0  0  0  0
  183.3670  179.3730  143.9840 C   0  0  0  0  0  2  0  0  0  0  0  0
  183.4500  179.0050  145.3260 O   0  0  0  0  0  1  0  0  0  0  0  0
  3  5  1  0  0  0  0
  3  7  2  0  0  0  0
  4  6  1  6  0  0  0
  4 17  1  0  0  0  0
  4 16  1  0  0  0  0
  5 15  1  6  0  0  0
  5 11  1  0  0  0  0
  7  8  1  0  0  0  0
  8 13  2  0  0  0  0
  9 10  1  0  0  0  0
 10 12  1  6  0  0  0
 10  2  1  0  0  0  0
 11  9  1  0  0  0  0
 11 13  1  0  0  0  0
 13  2  1  0  0  0  0
 14  1  1  1  0  0  0
 14  3  1  0  0  0  0
 16 15  1  0  0  0  0
 17 14  1  0  0  0  0
 18  1  1  1  0  0  0
 18 28  1  0  0  0  0
 19 24  1  6  0  0  0
 19 18  1  0  0  0  0
 20 22  1  0  0  0  0
 20 19  1  1  0  0  0
 21 20  1  0  0  0  0
 21 22  1  0  0  0  0
 23 27  1  0  0  0  0
 23 24  2  0  0  0  0
 25 27  1  0  0  0  0
 27 26  1  6  0  0  0
 28 29  1  0  0  0  0
 29 30  1  0  0  0  0
 30 31  1  0  0  0  0
 31 32  1  0  0  0  0
M  END
>  <MODEL>
8

>  <REMARK>
 VINA RESULT:      -5.7      3.284      6.461
  Name = 
  10 active torsions:
  status: ('A' for Active; 'I' for Inactive)
    1  A    between atoms: C_3  and  C_13
    2  A    between atoms: C_4  and  C_13
    3  A    between atoms: C_4  and  N_21
    4  A    between atoms: C_4  and  N_30
    5  A    between atoms: C_6  and  C_8
    6  A    between atoms: C_6  and  C_18
    7  A    between atoms: C_13  and  C_28
    8  A    between atoms: C_18  and  N_30
    9  A    between atoms: C_19  and  C_32
   10  A    between atoms: N_21  and  C_26
                            x       y       z     vdW  Elec       q    Type
                         _______ _______ _______ _____ _____    ______ ____

>  <TORSDO>
F 10

$$$$
=
 OpenBabel11062414123D

 32 35  0  0  1  0  0  0  0  0999 V2000
  184.3070  179.1270  141.5030 N   0  0  0  0  0  2  0  0  0  0  0  0
  190.6310  177.4980  141.7970 C   0  0  0  0  0  2  0  0  0  0  0  0
  186.4270  178.2090  142.3210 C   0  0  0  0  0  0  0  0  0  0  0  0
  185.1800  178.6650  145.1530 C   0  0  2  0  0  3  0  0  0  0  0  0
  187.0560  176.9740  142.9480 C   0  0  1  0  0  3  0  0  0  0  0  0
  185.0040  179.5290  146.2320 O   0  0  0  0  0  1  0  0  0  0  0  0
  187.1580  179.0680  141.5880 C   0  0  0  0  0  3  0  0  0  0  0  0
  188.5960  178.8620  141.3500 C   0  0  0  0  0  3  0  0  0  0  0  0
  189.3860  175.8930  143.2190 C   0  0  0  0  0  2  0  0  0  0  0  0
  190.7780  176.2490  142.6730 C   0  0  2  0  0  3  0  0  0  0  0  0
  188.5170  176.9840  142.8250 N   0  0  0  0  0  0  0  0  0  0  0  0
  191.7130  176.5480  143.8280 C   0  0  0  0  0  1  0  0  0  0  0  0
  189.2100  177.8560  141.9600 C   0  0  0  0  0  0  0  0  0  0  0  0
  184.9910  178.5130  142.6400 C   0  0  1  0  0  3  0  0  0  0  0  0
  186.6360  176.7600  144.4110 C   0  0  0  0  0  2  0  0  0  0  0  0
  186.5790  178.0550  145.2200 C   0  0  0  0  0  2  0  0  0  0  0  0
  184.9340  179.4330  143.8530 C   0  0  0  0  0  2  0  0  0  0  0  0
  183.9300  178.1250  140.4970 C   0  0  2  0  0  3  0  0  0  0  0  0
  183.9280  178.6880  139.0670 C   0  0  2  0  0  3  0  0  0  0  0  0
  185.3070  178.6270  138.4130 C   0  0  2  0  0  3  0  0  0  0  0  0
  185.3290  177.6270  137.3200 C   0  0  0  0  0  2  0  0  0  0  0  0
  185.8460  177.3390  138.5940 O   0  0  0  0  0  0  0  0  0  0  0  0
  182.2080  180.4620  138.6570 C   0  0  0  0  0  3  0  0  0  0  0  0
  183.4290  180.1060  139.0790 C   0  0  0  0  0  3  0  0  0  0  0  0
  180.8570  179.8470  136.8130 O   0  0  0  0  0  1  0  0  0  0  0  0
  179.9730  179.4980  138.9880 C   0  0  0  0  0  1  0  0  0  0  0  0
  181.2090  179.4890  138.1140 C   0  0  2  0  0  3  0  0  0  0  0  0
  182.6870  177.4360  140.8340 N   0  0  0  0  0  2  0  0  0  0  0  0
  182.4810  176.4030  139.8320 C   0  0  0  0  0  2  0  0  0  0  0  0
  181.0300  175.9550  139.8420 C   0  0  0  0  0  2  0  0  0  0  0  0
  180.7470  175.0030  138.6920 C   0  0  0  0  0  2  0  0  0  0  0  0
  179.3720  174.8080  138.5650 O   0  0  0  0  0  1  0  0  0  0  0  0
  2 13  1  0  0  0  0
  2 10  1  0  0  0  0
  3 14  1  0  0  0  0
  3  5  1  0  0  0  0
  4 16  1  0  0  0  0
  4  6  1  1  0  0  0
  5 15  1  1  0  0  0
  7  3  2  0  0  0  0
  8  7  1  0  0  0  0
  8 13  2  0  0  0  0
 10  9  1  0  0  0  0
 10 12  1  1  0  0  0
 11  5  1  0  0  0  0
 11  9  1  0  0  0  0
 13 11  1  0  0  0  0
 14  1  1  6  0  0  0
 14 17  1  0  0  0  0
 15 16  1  0  0  0  0
 17  4  1  0  0  0  0
 18 28  1  1  0  0  0
 18  1  1  0  0  0  0
 19 24  1  1  0  0  0
 19 18  1  0  0  0  0
 20 22  1  0  0  0  0
 20 19  1  1  0  0  0
 21 20  1  0  0  0  0
 21 22  1  0  0  0  0
 23 24  2  0  0  0  0
 25 27  1  0  0  0  0
 27 23  1  0  0  0  0
 27 26  1  1  0  0  0
 29 30  1  0  0  0  0
 29 28  1  0  0  0  0
 31 30  1  0  0  0  0
 32 31  1  0  0  0  0
M  END
>  <MODEL>
9

>  <REMARK>
 VINA RESULT:      -5.6      3.255      6.176
  Name = 
  10 active torsions:
  status: ('A' for Active; 'I' for Inactive)
    1  A    between atoms: C_3  and  C_13
    2  A    between atoms: C_4  and  C_13
    3  A    between atoms: C_4  and  N_21
    4  A    between atoms: C_4  and  N_30
    5  A    between atoms: C_6  and  C_8
    6  A    between atoms: C_6  and  C_18
    7  A    between atoms: C_13  and  C_28
    8  A    between atoms: C_18  and  N_30
    9  A    between atoms: C_19  and  C_32
   10  A    between atoms: N_21  and  C_26
                            x       y       z     vdW  Elec       q    Type
                         _______ _______ _______ _____ _____    ______ ____

>  <TORSDO>
F 10

$$$$
