=
 OpenBabel11062412213D

 43 46  0  0  1  0  0  0  0  0999 V2000
  189.3820  176.4240  143.0690 C   0  0  1  0  0  3  0  0  0  0  0  0
  188.2490  178.1350  139.5090 O   0  0  0  0  0  1  0  0  0  0  0  0
  188.9240  178.0110  140.7270 C   0  0  1  0  0  3  0  0  0  0  0  0
  190.8340  176.6690  143.0180 C   0  0  2  0  0  0  0  0  0  0  0  0
  187.9590  177.6910  141.8390 C   0  0  1  0  0  3  0  0  0  0  0  0
  188.7040  177.6560  143.0130 O   0  0  0  0  0  0  0  0  0  0  0  0
  190.1720  176.0410  141.8480 N   0  0  2  0  0  0  0  0  0  0  0  0
  191.6350  175.6690  143.8340 C   0  0  0  0  0  1  0  0  0  0  0  0
  189.9280  176.8660  140.6330 C   0  0  2  0  0  3  0  0  0  0  0  0
  186.8240  178.7240  141.9340 C   0  0  0  0  0  2  0  0  0  0  0  0
  185.3880  179.4970  143.6830 F   0  0  0  0  0  0  0  0  0  0  0  0
  186.1180  177.3900  143.7900 F   0  0  0  0  0  0  0  0  0  0  0  0
  185.6890  178.3790  142.9190 C   0  0  0  0  0  0  0  0  0  0  0  0
  184.5360  177.9120  142.2490 O   0  0  0  0  0  0  0  0  0  0  0  0
  183.4230  178.6410  142.7050 C   0  0  0  0  0  2  0  0  0  0  0  0
  182.3130  178.5630  141.6860 C   0  0  0  0  0  2  0  0  0  0  0  0
  182.7760  177.8810  140.4870 N   0  0  0  0  0  0  0  0  0  0  0  0
  180.0840  177.1940  140.3630 S   0  0  0  0  0  0  0  0  0  0  0  0
  179.6100  173.4820  138.6440 C   0  0  0  0  0  1  0  0  0  0  0  0
  182.1390  176.2220  138.8800 N   0  0  0  0  0  0  0  0  0  0  0  0
  181.8680  176.7650  140.2050 C   0  0  1  0  0  3  0  0  0  0  0  0
  180.1590  174.8230  138.9820 C   0  0  0  0  0  0  0  0  0  0  0  0
  181.8590  174.6940  136.7550 Cl  0  0  0  0  0  0  0  0  0  0  0  0
  179.5740  175.5180  139.9580 C   0  0  0  0  0  3  0  0  0  0  0  0
  181.3830  175.3240  138.3200 C   0  0  0  0  0  0  0  0  0  0  0  0
  182.7750  178.8350  139.3820 C   0  0  0  0  0  2  0  0  0  0  0  0
  184.1560  179.3340  139.1210 C   0  0  0  0  0  0  0  0  0  0  0  0
  185.1850  178.4490  139.0480 F   0  0  0  0  0  0  0  0  0  0  0  0
  184.3520  180.5620  138.8210 N   0  0  0  0  0  2  0  0  0  0  0  0
  191.3790  178.1000  142.8430 C   0  0  0  0  0  2  0  0  0  0  0  0
  191.0930  179.9690  144.2970 O   0  0  0  0  0  1  0  0  0  0  0  0
  191.7100  178.7320  144.1850 C   0  0  0  0  0  2  0  0  0  0  0  0
  191.1920  177.2330  139.8510 C   0  0  0  0  0  2  0  0  0  0  0  0
  191.2950  176.6070  138.4540 C   0  0  1  0  0  3  0  0  0  0  0  0
  192.7300  176.2920  138.0550 C   0  0  0  0  0  2  0  0  0  0  0  0
  193.6380  176.8130  138.9630 O   0  0  0  0  0  1  0  0  0  0  0  0
  190.4240  175.4380  138.2780 N   0  0  0  0  0  2  0  0  0  0  0  0
  187.2280  175.7110  136.2350 C   0  0  0  0  0  2  0  0  0  0  0  0
  187.4470  177.0380  135.8080 O   0  0  0  0  0  0  0  0  0  0  0  0
  188.0770  175.4090  137.4690 C   0  0  0  0  0  2  0  0  0  0  0  0
  189.5500  175.6180  137.1200 C   0  0  0  0  0  3  0  0  0  0  0  0
  189.7810  176.9570  136.4060 C   0  0  0  0  0  2  0  0  0  0  0  0
  188.7540  177.0980  135.2840 C   0  0  0  0  0  2  0  0  0  0  0  0
  1  6  1  6  0  0  0
  3  2  1  6  0  0  0
  3  5  1  0  0  0  0
  4  1  1  0  0  0  0
  4  8  1  1  0  0  0
  5 10  1  1  0  0  0
  5  6  1  0  0  0  0
  7  4  1  0  0  0  0
  7  1  1  0  0  0  0
  9  3  1  0  0  0  0
  9  7  1  0  0  0  0
 10 13  1  0  0  0  0
 13 11  1  0  0  0  0
 13 12  1  0  0  0  0
 14 15  1  0  0  0  0
 14 13  1  0  0  0  0
 16 15  1  0  0  0  0
 17 16  1  0  0  0  0
 19 22  1  0  0  0  0
 20 21  1  0  0  0  0
 21 18  1  0  0  0  0
 21 17  1  0  0  0  0
 22 24  2  0  0  0  0
 23 25  1  0  0  0  0
 24 18  1  0  0  0  0
 25 20  2  0  0  0  0
 25 22  1  0  0  0  0
 26 17  1  0  0  0  0
 27 26  1  0  0  0  0
 28 27  1  0  0  0  0
 29 27  2  0  0  0  0
 30  4  1  0  0  0  0
 30 32  1  0  0  0  0
 32 31  1  0  0  0  0
 33  9  1  0  0  0  0
 34 33  1  0  0  0  0
 35 34  1  0  0  0  0
 35 36  1  0  0  0  0
 37 34  1  0  0  0  0
 38 40  1  0  0  0  0
 39 38  1  0  0  0  0
 41 40  1  0  0  0  0
 41 37  1  0  0  0  0
 42 41  1  0  0  0  0
 43 39  1  0  0  0  0
 43 42  1  0  0  0  0
M  END
>  <MODEL>
1

>  <REMARK>
 VINA RESULT:      -6.8      0.000      0.000
  Name = 
  16 active torsions:
  status: ('A' for Active; 'I' for Inactive)
    1  A    between atoms: C_1  and  C_15
    2  A    between atoms: C_1  and  C_42
    3  A    between atoms: O_2  and  C_21
    4  A    between atoms: O_2  and  C_27
    5  A    between atoms: C_9  and  C_18
    6  A    between atoms: C_13  and  N_22
    7  A    between atoms: C_17  and  CA_38
    8  A    between atoms: C_17  and  C_41
    9  A    between atoms: C_18  and  N_26
   10  A    between atoms: C_19  and  CA_38
   11  A    between atoms: C_20  and  N_26
   12  A    between atoms: C_20  and  C_27
   13  A    between atoms: C_21  and  C_34
   14  A    between atoms: N_22  and  CA_38
   15  A    between atoms: C_24  and  N_26
   16  A    between atoms: C_28  and  C_34
                            x       y       z     vdW  Elec       q    Type
                         _______ _______ _______ _____ _____    ______ ____

>  <TORSDO>
F 16

$$$$
=
 OpenBabel11062412213D

 43 46  0  0  1  0  0  0  0  0999 V2000
  181.3440  179.1040  140.7970 C   0  0  1  0  0  3  0  0  0  0  0  0
  185.3400  178.7530  139.9050 O   0  0  0  0  0  1  0  0  0  0  0  0
  184.0200  178.3410  140.1110 C   0  0  1  0  0  3  0  0  0  0  0  0
  180.7710  178.2550  139.7380 C   0  0  2  0  0  0  0  0  0  0  0  0
  183.5050  178.8460  141.4350 C   0  0  1  0  0  3  0  0  0  0  0  0
  182.2220  178.3330  141.5830 O   0  0  0  0  0  0  0  0  0  0  0  0
  181.7420  179.3130  139.3620 N   0  0  2  0  0  0  0  0  0  0  0  0
  179.3420  178.6290  139.3830 C   0  0  0  0  0  1  0  0  0  0  0  0
  183.1340  178.9180  139.0120 C   0  0  2  0  0  3  0  0  0  0  0  0
  184.4090  178.4250  142.6050 C   0  0  0  0  0  2  0  0  0  0  0  0
  182.6240  178.2630  144.1870 F   0  0  0  0  0  0  0  0  0  0  0  0
  183.7830  180.1690  144.1170 F   0  0  0  0  0  0  0  0  0  0  0  0
  183.8930  178.7920  144.0110 C   0  0  0  0  0  0  0  0  0  0  0  0
  184.7640  178.3360  145.0260 O   0  0  0  0  0  0  0  0  0  0  0  0
  186.0870  178.6250  144.6480 C   0  0  0  0  0  2  0  0  0  0  0  0
  186.8890  177.3480  144.5890 C   0  0  0  0  0  2  0  0  0  0  0  0
  188.1520  177.5780  143.9040 N   0  0  0  0  0  0  0  0  0  0  0  0
  190.9230  177.4060  144.0830 S   0  0  0  0  0  0  0  0  0  0  0  0
  192.0560  176.0140  147.7900 C   0  0  0  0  0  1  0  0  0  0  0  0
  189.1130  177.5780  146.1000 N   0  0  0  0  0  0  0  0  0  0  0  0
  189.2390  177.0600  144.7430 C   0  0  1  0  0  3  0  0  0  0  0  0
  191.2850  176.6830  146.7060 C   0  0  0  0  0  0  0  0  0  0  0  0
  189.7230  178.0040  148.6240 Cl  0  0  0  0  0  0  0  0  0  0  0  0
  191.7110  176.5430  145.4500 C   0  0  0  0  0  3  0  0  0  0  0  0
  190.0270  177.3970  147.0080 C   0  0  0  0  0  0  0  0  0  0  0  0
  188.1180  176.8800  142.6220 C   0  0  0  0  0  2  0  0  0  0  0  0
  188.2980  177.8440  141.4990 C   0  0  0  0  0  0  0  0  0  0  0  0
  188.3320  179.1780  141.7590 F   0  0  0  0  0  0  0  0  0  0  0  0
  188.5660  177.4200  140.3210 N   0  0  0  0  0  2  0  0  0  0  0  0
  181.2230  176.7890  139.5830 C   0  0  0  0  0  2  0  0  0  0  0  0
  180.0200  174.7630  139.2120 O   0  0  0  0  0  1  0  0  0  0  0  0
  180.1580  175.8290  140.0890 C   0  0  0  0  0  2  0  0  0  0  0  0
  183.2670  178.1780  137.6770 C   0  0  0  0  0  2  0  0  0  0  0  0
  184.4130  177.1620  137.6110 C   0  0  1  0  0  3  0  0  0  0  0  0
  183.9240  175.7200  137.6470 C   0  0  0  0  0  2  0  0  0  0  0  0
  184.1700  175.0690  136.4480 O   0  0  0  0  0  1  0  0  0  0  0  0
  185.3240  177.3870  136.4820 N   0  0  0  0  0  2  0  0  0  0  0  0
  188.9650  176.3970  136.9570 C   0  0  0  0  0  2  0  0  0  0  0  0
  189.5050  177.5560  136.3610 O   0  0  0  0  0  0  0  0  0  0  0  0
  187.5100  176.2120  136.5250 C   0  0  0  0  0  2  0  0  0  0  0  0
  186.7100  177.4450  136.9420 C   0  0  0  0  0  3  0  0  0  0  0  0
  187.4160  178.7460  136.5330 C   0  0  0  0  0  2  0  0  0  0  0  0
  188.8800  178.6660  136.9630 C   0  0  0  0  0  2  0  0  0  0  0  0
  1  6  1  1  0  0  0
  3  2  1  6  0  0  0
  3  5  1  0  0  0  0
  4  8  1  6  0  0  0
  4  1  1  0  0  0  0
  5  6  1  0  0  0  0
  5 10  1  1  0  0  0
  7  4  1  0  0  0  0
  7  1  1  0  0  0  0
  9  7  1  0  0  0  0
  9  3  1  0  0  0  0
 10 13  1  0  0  0  0
 13 12  1  0  0  0  0
 13 11  1  0  0  0  0
 13 14  1  0  0  0  0
 15 14  1  0  0  0  0
 16 15  1  0  0  0  0
 17 16  1  0  0  0  0
 17 21  1  0  0  0  0
 18 21  1  0  0  0  0
 18 24  1  0  0  0  0
 20 25  2  0  0  0  0
 21 20  1  0  0  0  0
 22 25  1  0  0  0  0
 22 19  1  0  0  0  0
 24 22  2  0  0  0  0
 25 23  1  0  0  0  0
 26 17  1  0  0  0  0
 27 28  1  0  0  0  0
 27 26  1  0  0  0  0
 29 27  2  0  0  0  0
 30  4  1  0  0  0  0
 30 32  1  0  0  0  0
 31 32  1  0  0  0  0
 33  9  1  0  0  0  0
 34 35  1  0  0  0  0
 34 33  1  0  0  0  0
 36 35  1  0  0  0  0
 37 41  1  0  0  0  0
 37 34  1  0  0  0  0
 39 38  1  0  0  0  0
 39 43  1  0  0  0  0
 40 41  1  0  0  0  0
 40 38  1  0  0  0  0
 42 41  1  0  0  0  0
 42 43  1  0  0  0  0
M  END
>  <MODEL>
2

>  <REMARK>
 VINA RESULT:      -6.7      3.816      8.285
  Name = 
  16 active torsions:
  status: ('A' for Active; 'I' for Inactive)
    1  A    between atoms: C_1  and  C_15
    2  A    between atoms: C_1  and  C_42
    3  A    between atoms: O_2  and  C_21
    4  A    between atoms: O_2  and  C_27
    5  A    between atoms: C_9  and  C_18
    6  A    between atoms: C_13  and  N_22
    7  A    between atoms: C_17  and  CA_38
    8  A    between atoms: C_17  and  C_41
    9  A    between atoms: C_18  and  N_26
   10  A    between atoms: C_19  and  CA_38
   11  A    between atoms: C_20  and  N_26
   12  A    between atoms: C_20  and  C_27
   13  A    between atoms: C_21  and  C_34
   14  A    between atoms: N_22  and  CA_38
   15  A    between atoms: C_24  and  N_26
   16  A    between atoms: C_28  and  C_34
                            x       y       z     vdW  Elec       q    Type
                         _______ _______ _______ _____ _____    ______ ____

>  <TORSDO>
F 16

$$$$
=
 OpenBabel11062412213D

 43 46  0  0  1  0  0  0  0  0999 V2000
  188.9290  175.3620  137.6210 C   0  0  1  0  0  3  0  0  0  0  0  0
  187.1090  178.6050  139.3710 O   0  0  0  0  0  1  0  0  0  0  0  0
  187.8580  177.8960  138.4270 C   0  0  1  0  0  3  0  0  0  0  0  0
  188.5580  175.5910  136.2130 C   0  0  2  0  0  0  0  0  0  0  0  0
  188.9290  177.0790  139.1030 C   0  0  1  0  0  3  0  0  0  0  0  0
  189.6610  176.4690  138.0910 O   0  0  0  0  0  0  0  0  0  0  0  0
  187.4950  175.6210  137.2490 N   0  0  2  0  0  0  0  0  0  0  0  0
  188.5270  174.3140  135.3910 C   0  0  0  0  0  1  0  0  0  0  0  0
  186.9420  176.9370  137.6730 C   0  0  2  0  0  3  0  0  0  0  0  0
  189.8340  177.9410  139.9990 C   0  0  0  0  0  2  0  0  0  0  0  0
  191.5460  178.0360  141.6650 F   0  0  0  0  0  0  0  0  0  0  0  0
  191.9180  176.7750  139.8610 F   0  0  0  0  0  0  0  0  0  0  0  0
  190.9410  177.1810  140.7560 C   0  0  0  0  0  0  0  0  0  0  0  0
  190.4370  176.0360  141.4140 O   0  0  0  0  0  0  0  0  0  0  0  0
  190.7030  176.1530  142.7900 C   0  0  0  0  0  2  0  0  0  0  0  0
  189.4080  176.1170  143.5620 C   0  0  0  0  0  2  0  0  0  0  0  0
  189.3080  177.2790  144.4320 N   0  0  0  0  0  0  0  0  0  0  0  0
  187.1500  177.3180  142.6780 S   0  0  0  0  0  0  0  0  0  0  0  0
  184.1250  179.6960  144.1470 C   0  0  0  0  0  1  0  0  0  0  0  0
  187.1710  177.8850  145.3330 N   0  0  0  0  0  0  0  0  0  0  0  0
  188.0350  177.9570  144.1610 C   0  0  1  0  0  3  0  0  0  0  0  0
  185.2960  178.7800  144.0790 C   0  0  0  0  0  0  0  0  0  0  0  0
  185.0170  178.2090  146.8100 Cl  0  0  0  0  0  0  0  0  0  0  0  0
  185.8130  178.5030  142.8810 C   0  0  0  0  0  3  0  0  0  0  0  0
  185.9300  178.2750  145.3150 C   0  0  0  0  0  0  0  0  0  0  0  0
  189.3620  176.8260  145.8190 C   0  0  0  0  0  2  0  0  0  0  0  0
  190.6860  177.1530  146.4230 C   0  0  0  0  0  0  0  0  0  0  0  0
  190.9300  176.8260  147.7190 F   0  0  0  0  0  0  0  0  0  0  0  0
  191.6360  177.6010  145.6910 N   0  0  0  0  0  2  0  0  0  0  0  0
  188.9100  176.9210  135.5190 C   0  0  0  0  0  2  0  0  0  0  0  0
  191.2360  176.4260  135.3260 O   0  0  0  0  0  1  0  0  0  0  0  0
  190.1050  176.7590  134.5940 C   0  0  0  0  0  2  0  0  0  0  0  0
  186.0770  177.6310  136.6180 C   0  0  0  0  0  2  0  0  0  0  0  0
  184.5840  177.2830  136.6730 C   0  0  1  0  0  3  0  0  0  0  0  0
  184.1560  176.3490  135.5490 C   0  0  0  0  0  2  0  0  0  0  0  0
  182.7850  176.3930  135.3440 O   0  0  0  0  0  1  0  0  0  0  0  0
  184.1560  176.7730  137.9810 N   0  0  0  0  0  2  0  0  0  0  0  0
  182.0940  179.7940  139.0240 C   0  0  0  0  0  2  0  0  0  0  0  0
  181.4530  179.1590  140.1100 O   0  0  0  0  0  0  0  0  0  0  0  0
  182.6540  178.7490  138.0600 C   0  0  0  0  0  2  0  0  0  0  0  0
  183.6430  177.8600  138.8140 C   0  0  0  0  0  3  0  0  0  0  0  0
  183.0610  177.3630  140.1450 C   0  0  0  0  0  2  0  0  0  0  0  0
  182.4580  178.5520  140.8900 C   0  0  0  0  0  2  0  0  0  0  0  0
  1  6  1  1  0  0  0
  3  5  1  0  0  0  0
  3  2  1  1  0  0  0
  4  8  1  6  0  0  0
  4  7  1  0  0  0  0
  4  1  1  0  0  0  0
  5 10  1  6  0  0  0
  6  5  1  0  0  0  0
  7  1  1  0  0  0  0
  7  9  1  0  0  0  0
  9  3  1  0  0  0  0
 10 13  1  0  0  0  0
 12 13  1  0  0  0  0
 13 14  1  0  0  0  0
 13 11  1  0  0  0  0
 14 15  1  0  0  0  0
 15 16  1  0  0  0  0
 16 17  1  0  0  0  0
 17 26  1  0  0  0  0
 18 24  1  0  0  0  0
 18 21  1  0  0  0  0
 21 17  1  0  0  0  0
 21 20  1  0  0  0  0
 22 19  1  0  0  0  0
 22 25  1  0  0  0  0
 24 22  2  0  0  0  0
 25 20  2  0  0  0  0
 25 23  1  0  0  0  0
 26 27  1  0  0  0  0
 27 28  1  0  0  0  0
 29 27  2  0  0  0  0
 30  4  1  0  0  0  0
 32 31  1  0  0  0  0
 32 30  1  0  0  0  0
 33 34  1  0  0  0  0
 33  9  1  0  0  0  0
 34 37  1  0  0  0  0
 35 34  1  0  0  0  0
 36 35  1  0  0  0  0
 37 41  1  0  0  0  0
 38 39  1  0  0  0  0
 39 43  1  0  0  0  0
 40 41  1  0  0  0  0
 40 38  1  0  0  0  0
 41 42  1  0  0  0  0
 42 43  1  0  0  0  0
M  END
>  <MODEL>
3

>  <REMARK>
 VINA RESULT:      -6.6      3.607      7.677
  Name = 
  16 active torsions:
  status: ('A' for Active; 'I' for Inactive)
    1  A    between atoms: C_1  and  C_15
    2  A    between atoms: C_1  and  C_42
    3  A    between atoms: O_2  and  C_21
    4  A    between atoms: O_2  and  C_27
    5  A    between atoms: C_9  and  C_18
    6  A    between atoms: C_13  and  N_22
    7  A    between atoms: C_17  and  CA_38
    8  A    between atoms: C_17  and  C_41
    9  A    between atoms: C_18  and  N_26
   10  A    between atoms: C_19  and  CA_38
   11  A    between atoms: C_20  and  N_26
   12  A    between atoms: C_20  and  C_27
   13  A    between atoms: C_21  and  C_34
   14  A    between atoms: N_22  and  CA_38
   15  A    between atoms: C_24  and  N_26
   16  A    between atoms: C_28  and  C_34
                            x       y       z     vdW  Elec       q    Type
                         _______ _______ _______ _____ _____    ______ ____

>  <TORSDO>
F 16

$$$$
=
 OpenBabel11062412213D

 43 46  0  0  1  0  0  0  0  0999 V2000
  192.1130  174.5190  137.6820 C   0  0  1  0  0  3  0  0  0  0  0  0
  188.4420  176.3110  138.1300 O   0  0  0  0  0  1  0  0  0  0  0  0
  189.6890  176.0440  137.5580 C   0  0  1  0  0  3  0  0  0  0  0  0
  192.1080  174.2910  136.2260 C   0  0  2  0  0  0  0  0  0  0  0  0
  190.7760  176.1040  138.6010 C   0  0  1  0  0  3  0  0  0  0  0  0
  191.9780  175.8980  137.9340 O   0  0  0  0  0  0  0  0  0  0  0  0
  190.9400  173.8430  137.0260 N   0  0  2  0  0  0  0  0  0  0  0  0
  192.9970  173.1330  135.8030 C   0  0  0  0  0  1  0  0  0  0  0  0
  189.6830  174.6380  136.9670 C   0  0  2  0  0  3  0  0  0  0  0  0
  190.7830  177.4460  139.3520 C   0  0  0  0  0  2  0  0  0  0  0  0
  190.5530  176.0260  141.2620 F   0  0  0  0  0  0  0  0  0  0  0  0
  189.3300  177.8920  141.1980 F   0  0  0  0  0  0  0  0  0  0  0  0
  190.5670  177.3580  140.8760 C   0  0  0  0  0  0  0  0  0  0  0  0
  191.5580  178.0690  141.5890 O   0  0  0  0  0  0  0  0  0  0  0  0
  191.7150  177.4780  142.8550 C   0  0  0  0  0  2  0  0  0  0  0  0
  191.4630  178.5060  143.9300 C   0  0  0  0  0  2  0  0  0  0  0  0
  191.0360  177.8550  145.1600 N   0  0  0  0  0  0  0  0  0  0  0  0
  188.6410  176.7530  144.2750 S   0  0  0  0  0  0  0  0  0  0  0  0
  185.4680  178.2580  146.4240 C   0  0  0  0  0  1  0  0  0  0  0  0
  189.1790  177.9060  146.6730 N   0  0  0  0  0  0  0  0  0  0  0  0
  189.5800  177.9830  145.2730 C   0  0  1  0  0  3  0  0  0  0  0  0
  186.8340  177.7990  146.0570 C   0  0  0  0  0  0  0  0  0  0  0  0
  187.5780  177.8320  148.7610 Cl  0  0  0  0  0  0  0  0  0  0  0  0
  187.0600  177.4350  144.7940 C   0  0  0  0  0  3  0  0  0  0  0  0
  187.9340  177.8420  147.0440 C   0  0  0  0  0  0  0  0  0  0  0  0
  191.4250  176.4500  145.0980 C   0  0  0  0  0  2  0  0  0  0  0  0
  191.9800  176.0040  146.4090 C   0  0  0  0  0  0  0  0  0  0  0  0
  192.4380  174.7320  146.5440 F   0  0  0  0  0  0  0  0  0  0  0  0
  192.1640  176.8490  147.3520 N   0  0  0  0  0  2  0  0  0  0  0  0
  191.8940  175.4660  135.2530 C   0  0  0  0  0  2  0  0  0  0  0  0
  194.0970  176.3310  135.5510 O   0  0  0  0  0  1  0  0  0  0  0  0
  193.2000  175.8800  134.5940 C   0  0  0  0  0  2  0  0  0  0  0  0
  188.9360  174.5460  135.6330 C   0  0  0  0  0  2  0  0  0  0  0  0
  187.7030  173.6340  135.6430 C   0  0  1  0  0  3  0  0  0  0  0  0
  187.8970  172.3740  134.8090 C   0  0  0  0  0  2  0  0  0  0  0  0
  188.1220  171.2640  135.6090 O   0  0  0  0  0  1  0  0  0  0  0  0
  187.2320  173.3100  136.9950 N   0  0  0  0  0  2  0  0  0  0  0  0
  183.8870  174.9990  136.3450 C   0  0  0  0  0  2  0  0  0  0  0  0
  183.1890  173.8130  136.0340 O   0  0  0  0  0  0  0  0  0  0  0  0
  185.3930  174.7760  136.2020 C   0  0  0  0  0  2  0  0  0  0  0  0
  185.8170  173.6480  137.1410 C   0  0  0  0  0  3  0  0  0  0  0  0
  184.9000  172.4240  137.0110 C   0  0  0  0  0  2  0  0  0  0  0  0
  183.4470  172.8920  137.0700 C   0  0  0  0  0  2  0  0  0  0  0  0
  1  6  1  6  0  0  0
  3  2  1  1  0  0  0
  3  5  1  0  0  0  0
  4  8  1  6  0  0  0
  4  7  1  0  0  0  0
  4  1  1  0  0  0  0
  5 10  1  6  0  0  0
  6  5  1  0  0  0  0
  7  1  1  0  0  0  0
  9  7  1  0  0  0  0
  9  3  1  0  0  0  0
 10 13  1  0  0  0  0
 13 12  1  0  0  0  0
 13 11  1  0  0  0  0
 13 14  1  0  0  0  0
 14 15  1  0  0  0  0
 15 16  1  0  0  0  0
 16 17  1  0  0  0  0
 17 21  1  0  0  0  0
 18 24  1  0  0  0  0
 18 21  1  0  0  0  0
 20 25  2  0  0  0  0
 21 20  1  0  0  0  0
 22 19  1  0  0  0  0
 22 25  1  0  0  0  0
 24 22  2  0  0  0  0
 25 23  1  0  0  0  0
 26 17  1  0  0  0  0
 26 27  1  0  0  0  0
 27 28  1  0  0  0  0
 27 29  2  0  0  0  0
 30  4  1  0  0  0  0
 32 30  1  0  0  0  0
 32 31  1  0  0  0  0
 33 34  1  0  0  0  0
 33  9  1  0  0  0  0
 34 37  1  0  0  0  0
 35 36  1  0  0  0  0
 35 34  1  0  0  0  0
 37 41  1  0  0  0  0
 39 38  1  0  0  0  0
 39 43  1  0  0  0  0
 40 38  1  0  0  0  0
 40 41  1  0  0  0  0
 42 43  1  0  0  0  0
 42 41  1  0  0  0  0
M  END
>  <MODEL>
4

>  <REMARK>
 VINA RESULT:      -6.6      4.440      7.991
  Name = 
  16 active torsions:
  status: ('A' for Active; 'I' for Inactive)
    1  A    between atoms: C_1  and  C_15
    2  A    between atoms: C_1  and  C_42
    3  A    between atoms: O_2  and  C_21
    4  A    between atoms: O_2  and  C_27
    5  A    between atoms: C_9  and  C_18
    6  A    between atoms: C_13  and  N_22
    7  A    between atoms: C_17  and  CA_38
    8  A    between atoms: C_17  and  C_41
    9  A    between atoms: C_18  and  N_26
   10  A    between atoms: C_19  and  CA_38
   11  A    between atoms: C_20  and  N_26
   12  A    between atoms: C_20  and  C_27
   13  A    between atoms: C_21  and  C_34
   14  A    between atoms: N_22  and  CA_38
   15  A    between atoms: C_24  and  N_26
   16  A    between atoms: C_28  and  C_34
                            x       y       z     vdW  Elec       q    Type
                         _______ _______ _______ _____ _____    ______ ____

>  <TORSDO>
F 16

$$$$
=
 OpenBabel11062412213D

 43 46  0  0  1  0  0  0  0  0999 V2000
  188.8980  176.6800  142.7540 C   0  0  1  0  0  3  0  0  0  0  0  0
  188.0410  178.6280  139.2370 O   0  0  0  0  0  1  0  0  0  0  0  0
  188.6890  178.3730  140.4500 C   0  0  1  0  0  3  0  0  0  0  0  0
  190.3700  176.7010  142.7040 C   0  0  2  0  0  0  0  0  0  0  0  0
  187.6860  178.1790  141.5580 C   0  0  1  0  0  3  0  0  0  0  0  0
  188.4160  178.0020  142.7280 O   0  0  0  0  0  0  0  0  0  0  0  0
  189.6200  176.2100  141.5210 N   0  0  2  0  0  0  0  0  0  0  0  0
  191.0080  175.5700  143.4940 C   0  0  0  0  0  1  0  0  0  0  0  0
  189.5060  177.0910  140.3270 C   0  0  2  0  0  3  0  0  0  0  0  0
  186.7220  179.3710  141.6810 C   0  0  0  0  0  2  0  0  0  0  0  0
  184.8650  179.7120  143.1480 F   0  0  0  0  0  0  0  0  0  0  0  0
  185.1700  177.6640  142.3120 F   0  0  0  0  0  0  0  0  0  0  0  0
  185.2600  179.0150  142.0160 C   0  0  0  0  0  0  0  0  0  0  0  0
  184.3910  179.2920  140.9360 O   0  0  0  0  0  0  0  0  0  0  0  0
  183.5310  178.1950  140.7560 C   0  0  0  0  0  2  0  0  0  0  0  0
  182.6600  178.4260  139.5460 C   0  0  0  0  0  2  0  0  0  0  0  0
  181.7760  179.5600  139.7710 N   0  0  0  0  0  0  0  0  0  0  0  0
  179.6520  179.7440  137.9840 S   0  0  0  0  0  0  0  0  0  0  0  0
  180.4870  182.4690  135.0110 C   0  0  0  0  0  1  0  0  0  0  0  0
  181.6200  181.5550  138.4520 N   0  0  0  0  0  0  0  0  0  0  0  0
  181.3890  180.1160  138.4700 C   0  0  1  0  0  3  0  0  0  0  0  0
  180.4700  181.7740  136.3270 C   0  0  0  0  0  0  0  0  0  0  0  0
  181.6300  184.0220  137.5350 Cl  0  0  0  0  0  0  0  0  0  0  0  0
  179.8330  180.6060  136.4160 C   0  0  0  0  0  3  0  0  0  0  0  0
  181.2250  182.3180  137.4750 C   0  0  0  0  0  0  0  0  0  0  0  0
  180.6000  179.0930  140.4990 C   0  0  0  0  0  2  0  0  0  0  0  0
  180.4430  179.8470  141.7760 C   0  0  0  0  0  0  0  0  0  0  0  0
  181.2380  179.5430  142.8350 F   0  0  0  0  0  0  0  0  0  0  0  0
  179.6730  180.8680  141.8330 N   0  0  0  0  0  2  0  0  0  0  0  0
  191.1270  178.0350  142.5600 C   0  0  0  0  0  2  0  0  0  0  0  0
  191.1000  179.8650  144.0900 O   0  0  0  0  0  1  0  0  0  0  0  0
  191.5630  178.5690  143.9150 C   0  0  0  0  0  2  0  0  0  0  0  0
  190.8120  177.2780  139.5490 C   0  0  0  0  0  2  0  0  0  0  0  0
  190.7830  176.7690  138.1020 C   0  0  1  0  0  3  0  0  0  0  0  0
  192.1690  176.4280  137.5720 C   0  0  0  0  0  2  0  0  0  0  0  0
  192.5760  175.1670  137.9820 O   0  0  0  0  0  1  0  0  0  0  0  0
  189.8460  175.6580  137.8980 N   0  0  0  0  0  2  0  0  0  0  0  0
  186.5010  176.2120  136.1750 C   0  0  0  0  0  2  0  0  0  0  0  0
  186.7140  177.5770  135.8880 O   0  0  0  0  0  0  0  0  0  0  0  0
  187.4410  175.7550  137.2910 C   0  0  0  0  0  2  0  0  0  0  0  0
  188.8840  175.9840  136.8450 C   0  0  0  0  0  3  0  0  0  0  0  0
  189.0870  177.3950  136.2750 C   0  0  0  0  0  2  0  0  0  0  0  0
  187.9750  177.6800  135.2670 C   0  0  0  0  0  2  0  0  0  0  0  0
  1  6  1  6  0  0  0
  3  2  1  6  0  0  0
  3  5  1  0  0  0  0
  4  1  1  0  0  0  0
  4  8  1  1  0  0  0
  5 10  1  1  0  0  0
  5  6  1  0  0  0  0
  7  4  1  0  0  0  0
  7  1  1  0  0  0  0
  9  3  1  0  0  0  0
  9  7  1  0  0  0  0
 10 13  1  0  0  0  0
 13 12  1  0  0  0  0
 13 11  1  0  0  0  0
 14 13  1  0  0  0  0
 15 14  1  0  0  0  0
 16 17  1  0  0  0  0
 16 15  1  0  0  0  0
 17 26  1  0  0  0  0
 18 21  1  0  0  0  0
 19 22  1  0  0  0  0
 20 21  1  0  0  0  0
 21 17  1  0  0  0  0
 22 24  2  0  0  0  0
 22 25  1  0  0  0  0
 24 18  1  0  0  0  0
 25 23  1  0  0  0  0
 25 20  2  0  0  0  0
 26 27  1  0  0  0  0
 27 29  2  0  0  0  0
 27 28  1  0  0  0  0
 30  4  1  0  0  0  0
 30 32  1  0  0  0  0
 32 31  1  0  0  0  0
 33  9  1  0  0  0  0
 34 33  1  0  0  0  0
 35 36  1  0  0  0  0
 35 34  1  0  0  0  0
 37 34  1  0  0  0  0
 38 40  1  0  0  0  0
 39 38  1  0  0  0  0
 41 40  1  0  0  0  0
 41 37  1  0  0  0  0
 42 41  1  0  0  0  0
 43 39  1  0  0  0  0
 43 42  1  0  0  0  0
M  END
>  <MODEL>
5

>  <REMARK>
 VINA RESULT:      -6.5      2.604      3.437
  Name = 
  16 active torsions:
  status: ('A' for Active; 'I' for Inactive)
    1  A    between atoms: C_1  and  C_15
    2  A    between atoms: C_1  and  C_42
    3  A    between atoms: O_2  and  C_21
    4  A    between atoms: O_2  and  C_27
    5  A    between atoms: C_9  and  C_18
    6  A    between atoms: C_13  and  N_22
    7  A    between atoms: C_17  and  CA_38
    8  A    between atoms: C_17  and  C_41
    9  A    between atoms: C_18  and  N_26
   10  A    between atoms: C_19  and  CA_38
   11  A    between atoms: C_20  and  N_26
   12  A    between atoms: C_20  and  C_27
   13  A    between atoms: C_21  and  C_34
   14  A    between atoms: N_22  and  CA_38
   15  A    between atoms: C_24  and  N_26
   16  A    between atoms: C_28  and  C_34
                            x       y       z     vdW  Elec       q    Type
                         _______ _______ _______ _____ _____    ______ ____

>  <TORSDO>
F 16

$$$$
=
 OpenBabel11062412213D

 43 46  0  0  1  0  0  0  0  0999 V2000
  189.4360  176.4180  143.1240 C   0  0  1  0  0  3  0  0  0  0  0  0
  188.3220  178.0750  139.5320 O   0  0  0  0  0  1  0  0  0  0  0  0
  189.0010  177.9620  140.7490 C   0  0  1  0  0  3  0  0  0  0  0  0
  190.8930  176.6280  143.0600 C   0  0  2  0  0  0  0  0  0  0  0  0
  188.0350  177.6900  141.8730 C   0  0  1  0  0  3  0  0  0  0  0  0
  188.7850  177.6640  143.0440 O   0  0  0  0  0  0  0  0  0  0  0  0
  190.2100  175.9900  141.9070 N   0  0  2  0  0  0  0  0  0  0  0  0
  191.6750  175.6280  143.8950 C   0  0  0  0  0  1  0  0  0  0  0  0
  189.9780  176.7930  140.6760 C   0  0  2  0  0  3  0  0  0  0  0  0
  186.9250  178.7500  141.9510 C   0  0  0  0  0  2  0  0  0  0  0  0
  185.2730  179.4610  143.5260 F   0  0  0  0  0  0  0  0  0  0  0  0
  186.0370  177.3700  143.6900 F   0  0  0  0  0  0  0  0  0  0  0  0
  185.6900  178.3630  142.7890 C   0  0  0  0  0  0  0  0  0  0  0  0
  184.6360  177.8810  141.9800 O   0  0  0  0  0  0  0  0  0  0  0  0
  184.5520  178.6790  140.8260 C   0  0  0  0  0  2  0  0  0  0  0  0
  183.1130  178.7820  140.3820 C   0  0  0  0  0  2  0  0  0  0  0  0
  182.9250  178.0840  139.1200 N   0  0  0  0  0  0  0  0  0  0  0  0
  180.1500  178.2730  139.0630 S   0  0  0  0  0  0  0  0  0  0  0  0
  178.9500  181.2630  136.4980 C   0  0  0  0  0  1  0  0  0  0  0  0
  181.9810  180.1600  138.3850 N   0  0  0  0  0  0  0  0  0  0  0  0
  181.8110  178.7130  138.4010 C   0  0  1  0  0  3  0  0  0  0  0  0
  179.7570  180.4700  137.4650 C   0  0  0  0  0  0  0  0  0  0  0  0
  181.4170  182.6860  137.9060 Cl  0  0  0  0  0  0  0  0  0  0  0  0
  179.3150  179.2610  137.8140 C   0  0  0  0  0  3  0  0  0  0  0  0
  181.0630  180.9700  137.9440 C   0  0  0  0  0  0  0  0  0  0  0  0
  184.1580  178.1850  138.3450 C   0  0  0  0  0  2  0  0  0  0  0  0
  184.2680  177.0490  137.3860 C   0  0  0  0  0  0  0  0  0  0  0  0
  184.4480  175.7880  137.8600 F   0  0  0  0  0  0  0  0  0  0  0  0
  184.0460  177.2330  136.1390 N   0  0  0  0  0  2  0  0  0  0  0  0
  191.4690  178.0420  142.8500 C   0  0  0  0  0  2  0  0  0  0  0  0
  191.0730  180.0050  144.1450 O   0  0  0  0  0  1  0  0  0  0  0  0
  191.6740  178.7560  144.1770 C   0  0  0  0  0  2  0  0  0  0  0  0
  191.2460  177.1130  139.8790 C   0  0  0  0  0  2  0  0  0  0  0  0
  191.3160  176.4720  138.4870 C   0  0  1  0  0  3  0  0  0  0  0  0
  192.7040  175.9420  138.1530 C   0  0  0  0  0  2  0  0  0  0  0  0
  193.6690  176.9310  138.2680 O   0  0  0  0  0  1  0  0  0  0  0  0
  190.2870  175.4480  138.2690 N   0  0  0  0  0  2  0  0  0  0  0  0
  187.3660  175.7640  135.8540 C   0  0  0  0  0  2  0  0  0  0  0  0
  187.5340  177.1440  135.6090 O   0  0  0  0  0  0  0  0  0  0  0  0
  188.0720  175.3700  137.1520 C   0  0  0  0  0  2  0  0  0  0  0  0
  189.5560  175.7100  137.0300 C   0  0  0  0  0  3  0  0  0  0  0  0
  189.7720  177.1370  136.5050 C   0  0  0  0  0  2  0  0  0  0  0  0
  188.8890  177.3460  135.2770 C   0  0  0  0  0  2  0  0  0  0  0  0
  1  6  1  6  0  0  0
  3  2  1  6  0  0  0
  3  5  1  0  0  0  0
  4  1  1  0  0  0  0
  4  8  1  1  0  0  0
  5 10  1  1  0  0  0
  5  6  1  0  0  0  0
  7  4  1  0  0  0  0
  7  1  1  0  0  0  0
  9  3  1  0  0  0  0
  9  7  1  0  0  0  0
 10 13  1  0  0  0  0
 13 11  1  0  0  0  0
 13 12  1  0  0  0  0
 14 13  1  0  0  0  0
 15 14  1  0  0  0  0
 16 15  1  0  0  0  0
 17 16  1  0  0  0  0
 19 22  1  0  0  0  0
 20 21  1  0  0  0  0
 21 18  1  0  0  0  0
 21 17  1  0  0  0  0
 22 24  2  0  0  0  0
 22 25  1  0  0  0  0
 23 25  1  0  0  0  0
 24 18  1  0  0  0  0
 25 20  2  0  0  0  0
 26 17  1  0  0  0  0
 27 28  1  0  0  0  0
 27 26  1  0  0  0  0
 29 27  2  0  0  0  0
 30  4  1  0  0  0  0
 30 32  1  0  0  0  0
 31 32  1  0  0  0  0
 33  9  1  0  0  0  0
 34 33  1  0  0  0  0
 35 36  1  0  0  0  0
 35 34  1  0  0  0  0
 37 34  1  0  0  0  0
 38 40  1  0  0  0  0
 39 38  1  0  0  0  0
 41 40  1  0  0  0  0
 41 37  1  0  0  0  0
 42 41  1  0  0  0  0
 43 39  1  0  0  0  0
 43 42  1  0  0  0  0
M  END
>  <MODEL>
6

>  <REMARK>
 VINA RESULT:      -6.5      2.082      2.603
  Name = 
  16 active torsions:
  status: ('A' for Active; 'I' for Inactive)
    1  A    between atoms: C_1  and  C_15
    2  A    between atoms: C_1  and  C_42
    3  A    between atoms: O_2  and  C_21
    4  A    between atoms: O_2  and  C_27
    5  A    between atoms: C_9  and  C_18
    6  A    between atoms: C_13  and  N_22
    7  A    between atoms: C_17  and  CA_38
    8  A    between atoms: C_17  and  C_41
    9  A    between atoms: C_18  and  N_26
   10  A    between atoms: C_19  and  CA_38
   11  A    between atoms: C_20  and  N_26
   12  A    between atoms: C_20  and  C_27
   13  A    between atoms: C_21  and  C_34
   14  A    between atoms: N_22  and  CA_38
   15  A    between atoms: C_24  and  N_26
   16  A    between atoms: C_28  and  C_34
                            x       y       z     vdW  Elec       q    Type
                         _______ _______ _______ _____ _____    ______ ____

>  <TORSDO>
F 16

$$$$
=
 OpenBabel11062412213D

 43 46  0  0  1  0  0  0  0  0999 V2000
  191.6700  174.5810  137.9160 C   0  0  1  0  0  3  0  0  0  0  0  0
  188.2570  176.8050  138.4600 O   0  0  0  0  0  1  0  0  0  0  0  0
  189.4690  176.4170  137.8820 C   0  0  1  0  0  3  0  0  0  0  0  0
  191.6620  174.4590  136.4480 C   0  0  2  0  0  0  0  0  0  0  0  0
  190.5350  176.2600  138.9360 C   0  0  1  0  0  3  0  0  0  0  0  0
  191.7120  175.9440  138.2660 O   0  0  0  0  0  0  0  0  0  0  0  0
  190.4310  174.1140  137.2020 N   0  0  2  0  0  0  0  0  0  0  0  0
  192.3990  173.2270  135.9500 C   0  0  0  0  0  1  0  0  0  0  0  0
  189.2900  175.0700  137.1900 C   0  0  2  0  0  3  0  0  0  0  0  0
  190.7040  177.5320  139.7820 C   0  0  0  0  0  2  0  0  0  0  0  0
  191.9280  177.8690  141.8080 F   0  0  0  0  0  0  0  0  0  0  0  0
  190.7980  175.9580  141.5800 F   0  0  0  0  0  0  0  0  0  0  0  0
  190.7590  177.3150  141.3080 C   0  0  0  0  0  0  0  0  0  0  0  0
  189.6330  177.8680  141.9580 O   0  0  0  0  0  0  0  0  0  0  0  0
  188.9980  176.8550  142.6980 C   0  0  0  0  0  2  0  0  0  0  0  0
  187.5250  177.1620  142.8190 C   0  0  0  0  0  2  0  0  0  0  0  0
  187.2480  177.8080  144.0930 N   0  0  0  0  0  0  0  0  0  0  0  0
  185.3120  179.3060  145.4140 S   0  0  0  0  0  0  0  0  0  0  0  0
  181.5990  178.6700  143.7520 C   0  0  0  0  0  1  0  0  0  0  0  0
  185.2160  178.2650  142.9080 N   0  0  0  0  0  0  0  0  0  0  0  0
  185.7980  177.9940  144.2170 C   0  0  1  0  0  3  0  0  0  0  0  0
  183.0720  178.8050  143.9090 C   0  0  0  0  0  0  0  0  0  0  0  0
  183.3710  178.8390  141.1210 Cl  0  0  0  0  0  0  0  0  0  0  0  0
  183.5610  179.0110  145.1320 C   0  0  0  0  0  3  0  0  0  0  0  0
  183.9720  178.6150  142.7520 C   0  0  0  0  0  0  0  0  0  0  0  0
  187.7480  176.9520  145.1650 C   0  0  0  0  0  2  0  0  0  0  0  0
  188.6840  177.7100  146.0450 C   0  0  0  0  0  0  0  0  0  0  0  0
  189.7210  178.3910  145.4900 F   0  0  0  0  0  0  0  0  0  0  0  0
  188.4310  177.8430  147.2920 N   0  0  0  0  0  2  0  0  0  0  0  0
  191.6210  175.7180  135.5600 C   0  0  0  0  0  2  0  0  0  0  0  0
  193.9280  176.2280  135.8880 O   0  0  0  0  0  1  0  0  0  0  0  0
  192.9730  175.9800  134.9140 C   0  0  0  0  0  2  0  0  0  0  0  0
  188.5620  175.1710  135.8460 C   0  0  0  0  0  2  0  0  0  0  0  0
  187.2740  174.3450  135.7440 C   0  0  1  0  0  3  0  0  0  0  0  0
  187.4100  173.1590  134.7990 C   0  0  0  0  0  2  0  0  0  0  0  0
  187.2630  171.9540  135.4700 O   0  0  0  0  0  1  0  0  0  0  0  0
  186.7460  173.9300  137.0490 N   0  0  0  0  0  2  0  0  0  0  0  0
  183.7420  176.2450  136.7690 C   0  0  0  0  0  2  0  0  0  0  0  0
  182.8910  175.2980  136.1590 O   0  0  0  0  0  0  0  0  0  0  0  0
  185.2020  175.8220  136.6070 C   0  0  0  0  0  2  0  0  0  0  0  0
  185.3930  174.4470  137.2450 C   0  0  0  0  0  3  0  0  0  0  0  0
  184.3090  173.4560  136.7960 C   0  0  0  0  0  2  0  0  0  0  0  0
  182.9430  174.1260  136.9380 C   0  0  0  0  0  2  0  0  0  0  0  0
  1  6  1  6  0  0  0
  3  2  1  1  0  0  0
  3  5  1  0  0  0  0
  4  8  1  6  0  0  0
  4  7  1  0  0  0  0
  4  1  1  0  0  0  0
  5 10  1  6  0  0  0
  6  5  1  0  0  0  0
  7  1  1  0  0  0  0
  9  7  1  0  0  0  0
  9  3  1  0  0  0  0
 10 13  1  0  0  0  0
 13 12  1  0  0  0  0
 13 11  1  0  0  0  0
 13 14  1  0  0  0  0
 14 15  1  0  0  0  0
 15 16  1  0  0  0  0
 16 17  1  0  0  0  0
 17 21  1  0  0  0  0
 17 26  1  0  0  0  0
 19 22  1  0  0  0  0
 20 21  1  0  0  0  0
 21 18  1  0  0  0  0
 22 24  2  0  0  0  0
 23 25  1  0  0  0  0
 24 18  1  0  0  0  0
 25 20  2  0  0  0  0
 25 22  1  0  0  0  0
 26 27  1  0  0  0  0
 27 29  2  0  0  0  0
 28 27  1  0  0  0  0
 30  4  1  0  0  0  0
 32 30  1  0  0  0  0
 32 31  1  0  0  0  0
 33  9  1  0  0  0  0
 34 33  1  0  0  0  0
 34 37  1  0  0  0  0
 35 36  1  0  0  0  0
 35 34  1  0  0  0  0
 37 41  1  0  0  0  0
 39 38  1  0  0  0  0
 39 43  1  0  0  0  0
 40 38  1  0  0  0  0
 40 41  1  0  0  0  0
 42 43  1  0  0  0  0
 42 41  1  0  0  0  0
M  END
>  <MODEL>
7

>  <REMARK>
 VINA RESULT:      -6.1      3.330      6.389
  Name = 
  16 active torsions:
  status: ('A' for Active; 'I' for Inactive)
    1  A    between atoms: C_1  and  C_15
    2  A    between atoms: C_1  and  C_42
    3  A    between atoms: O_2  and  C_21
    4  A    between atoms: O_2  and  C_27
    5  A    between atoms: C_9  and  C_18
    6  A    between atoms: C_13  and  N_22
    7  A    between atoms: C_17  and  CA_38
    8  A    between atoms: C_17  and  C_41
    9  A    between atoms: C_18  and  N_26
   10  A    between atoms: C_19  and  CA_38
   11  A    between atoms: C_20  and  N_26
   12  A    between atoms: C_20  and  C_27
   13  A    between atoms: C_21  and  C_34
   14  A    between atoms: N_22  and  CA_38
   15  A    between atoms: C_24  and  N_26
   16  A    between atoms: C_28  and  C_34
                            x       y       z     vdW  Elec       q    Type
                         _______ _______ _______ _____ _____    ______ ____

>  <TORSDO>
F 16

$$$$
=
 OpenBabel11062412213D

 43 46  0  0  1  0  0  0  0  0999 V2000
  188.4250  176.7100  143.1270 C   0  0  1  0  0  3  0  0  0  0  0  0
  186.6070  178.8560  140.1300 O   0  0  0  0  0  1  0  0  0  0  0  0
  187.4980  178.5940  141.1760 C   0  0  1  0  0  3  0  0  0  0  0  0
  189.8350  177.0440  142.8590 C   0  0  2  0  0  0  0  0  0  0  0  0
  186.7630  178.0600  142.3780 C   0  0  1  0  0  3  0  0  0  0  0  0
  187.7110  177.8960  143.3820 O   0  0  0  0  0  0  0  0  0  0  0  0
  188.9890  176.5570  141.7410 N   0  0  2  0  0  0  0  0  0  0  0  0
  190.8020  175.9820  143.3560 C   0  0  0  0  0  1  0  0  0  0  0  0
  188.5010  177.5350  140.7300 C   0  0  2  0  0  3  0  0  0  0  0  0
  185.6340  179.0000  142.8300 C   0  0  0  0  0  2  0  0  0  0  0  0
  183.7890  178.0860  144.0450 F   0  0  0  0  0  0  0  0  0  0  0  0
  184.2270  177.2420  142.0250 F   0  0  0  0  0  0  0  0  0  0  0  0
  184.2100  178.4130  142.7650 C   0  0  0  0  0  0  0  0  0  0  0  0
  183.3000  179.3090  142.1590 O   0  0  0  0  0  0  0  0  0  0  0  0
  182.0040  179.0120  142.6160 C   0  0  0  0  0  2  0  0  0  0  0  0
  181.1420  178.5830  141.4550 C   0  0  0  0  0  2  0  0  0  0  0  0
  181.8200  178.8540  140.1960 N   0  0  0  0  0  0  0  0  0  0  0  0
  180.9770  176.7330  138.6070 S   0  0  0  0  0  0  0  0  0  0  0  0
  184.1570  174.3200  137.5970 C   0  0  0  0  0  1  0  0  0  0  0  0
  183.4720  177.7780  138.8330 N   0  0  0  0  0  0  0  0  0  0  0  0
  182.2610  177.5790  139.6200 C   0  0  1  0  0  3  0  0  0  0  0  0
  183.3520  175.5150  137.9660 C   0  0  0  0  0  0  0  0  0  0  0  0
  185.4910  177.1820  137.2530 Cl  0  0  0  0  0  0  0  0  0  0  0  0
  182.0640  175.3420  138.2660 C   0  0  0  0  0  3  0  0  0  0  0  0
  183.9900  176.8430  138.0920 C   0  0  0  0  0  0  0  0  0  0  0  0
  180.8840  179.5250  139.3000 C   0  0  0  0  0  2  0  0  0  0  0  0
  181.6170  180.3910  138.3320 C   0  0  0  0  0  0  0  0  0  0  0  0
  181.5610  180.1070  137.0040 F   0  0  0  0  0  0  0  0  0  0  0  0
  182.1700  181.4750  138.7270 N   0  0  0  0  0  2  0  0  0  0  0  0
  190.2950  178.5140  142.8130 C   0  0  0  0  0  2  0  0  0  0  0  0
  191.3470  180.0090  144.3440 O   0  0  0  0  0  1  0  0  0  0  0  0
  191.4590  178.7560  143.7600 C   0  0  0  0  0  2  0  0  0  0  0  0
  189.5890  178.0840  139.8030 C   0  0  0  0  0  2  0  0  0  0  0  0
  189.7280  177.3520  138.4620 C   0  0  1  0  0  3  0  0  0  0  0  0
  189.4140  178.2450  137.2700 C   0  0  0  0  0  2  0  0  0  0  0  0
  188.7300  179.3880  137.6550 O   0  0  0  0  0  1  0  0  0  0  0  0
  191.0240  176.6820  138.3000 N   0  0  0  0  0  2  0  0  0  0  0  0
  189.3590  173.5970  136.8250 C   0  0  0  0  0  2  0  0  0  0  0  0
  190.3390  173.3680  135.8350 O   0  0  0  0  0  0  0  0  0  0  0  0
  189.4400  175.0410  137.3210 C   0  0  0  0  0  2  0  0  0  0  0  0
  190.8360  175.2920  137.8880 C   0  0  0  0  0  3  0  0  0  0  0  0
  191.9350  174.8040  136.9320 C   0  0  0  0  0  2  0  0  0  0  0  0
  191.5930  173.3860  136.4770 C   0  0  0  0  0  2  0  0  0  0  0  0
  1  6  1  6  0  0  0
  3  2  1  6  0  0  0
  3  5  1  0  0  0  0
  4  1  1  0  0  0  0
  4  8  1  1  0  0  0
  5 10  1  1  0  0  0
  5  6  1  0  0  0  0
  7  4  1  0  0  0  0
  7  1  1  0  0  0  0
  9  3  1  0  0  0  0
  9  7  1  0  0  0  0
 12 13  1  0  0  0  0
 13 10  1  0  0  0  0
 13 11  1  0  0  0  0
 14 15  1  0  0  0  0
 14 13  1  0  0  0  0
 16 15  1  0  0  0  0
 17 16  1  0  0  0  0
 18 21  1  0  0  0  0
 19 22  1  0  0  0  0
 20 21  1  0  0  0  0
 21 17  1  0  0  0  0
 22 25  1  0  0  0  0
 22 24  2  0  0  0  0
 23 25  1  0  0  0  0
 24 18  1  0  0  0  0
 25 20  2  0  0  0  0
 26 17  1  0  0  0  0
 27 29  2  0  0  0  0
 27 26  1  0  0  0  0
 28 27  1  0  0  0  0
 30  4  1  0  0  0  0
 30 32  1  0  0  0  0
 32 31  1  0  0  0  0
 33  9  1  0  0  0  0
 34 33  1  0  0  0  0
 35 36  1  0  0  0  0
 35 34  1  0  0  0  0
 37 34  1  0  0  0  0
 38 40  1  0  0  0  0
 39 43  1  0  0  0  0
 39 38  1  0  0  0  0
 40 41  1  0  0  0  0
 41 37  1  0  0  0  0
 42 41  1  0  0  0  0
 43 42  1  0  0  0  0
M  END
>  <MODEL>
8

>  <REMARK>
 VINA RESULT:      -6.0      2.066      2.583
  Name = 
  16 active torsions:
  status: ('A' for Active; 'I' for Inactive)
    1  A    between atoms: C_1  and  C_15
    2  A    between atoms: C_1  and  C_42
    3  A    between atoms: O_2  and  C_21
    4  A    between atoms: O_2  and  C_27
    5  A    between atoms: C_9  and  C_18
    6  A    between atoms: C_13  and  N_22
    7  A    between atoms: C_17  and  CA_38
    8  A    between atoms: C_17  and  C_41
    9  A    between atoms: C_18  and  N_26
   10  A    between atoms: C_19  and  CA_38
   11  A    between atoms: C_20  and  N_26
   12  A    between atoms: C_20  and  C_27
   13  A    between atoms: C_21  and  C_34
   14  A    between atoms: N_22  and  CA_38
   15  A    between atoms: C_24  and  N_26
   16  A    between atoms: C_28  and  C_34
                            x       y       z     vdW  Elec       q    Type
                         _______ _______ _______ _____ _____    ______ ____

>  <TORSDO>
F 16

$$$$
=
 OpenBabel11062412213D

 43 46  0  0  1  0  0  0  0  0999 V2000
  189.0530  176.8420  136.9040 C   0  0  1  0  0  3  0  0  0  0  0  0
  192.6860  176.5550  138.8040 O   0  0  0  0  0  1  0  0  0  0  0  0
  191.4380  176.1390  138.3300 C   0  0  1  0  0  3  0  0  0  0  0  0
  189.0440  175.5610  136.1770 C   0  0  2  0  0  0  0  0  0  0  0  0
  190.3630  177.1150  138.7350 C   0  0  1  0  0  3  0  0  0  0  0  0
  189.1580  176.5880  138.2850 O   0  0  0  0  0  0  0  0  0  0  0  0
  190.2330  176.4430  136.0610 N   0  0  2  0  0  0  0  0  0  0  0  0
  188.1790  175.5920  134.9280 C   0  0  0  0  0  1  0  0  0  0  0  0
  191.4700  176.0820  136.8060 C   0  0  2  0  0  3  0  0  0  0  0  0
  190.3340  177.3450  140.2550 C   0  0  0  0  0  2  0  0  0  0  0  0
  187.9600  177.1020  140.3990 F   0  0  0  0  0  0  0  0  0  0  0  0
  188.7910  179.1710  140.3130 F   0  0  0  0  0  0  0  0  0  0  0  0
  189.0120  177.9010  140.8200 C   0  0  0  0  0  0  0  0  0  0  0  0
  189.0360  177.9830  142.2310 O   0  0  0  0  0  0  0  0  0  0  0  0
  189.1100  176.6820  142.7570 C   0  0  0  0  0  2  0  0  0  0  0  0
  187.8810  176.3980  143.5840 C   0  0  0  0  0  2  0  0  0  0  0  0
  187.6290  177.4960  144.5060 N   0  0  0  0  0  0  0  0  0  0  0  0
  185.6830  179.0590  145.7330 S   0  0  0  0  0  0  0  0  0  0  0  0
  182.1320  178.8520  143.6570 C   0  0  0  0  0  1  0  0  0  0  0  0
  185.7770  178.2020  143.1580 N   0  0  0  0  0  0  0  0  0  0  0  0
  186.1930  177.7950  144.4950 C   0  0  1  0  0  3  0  0  0  0  0  0
  183.5860  178.8520  143.9730 C   0  0  0  0  0  0  0  0  0  0  0  0
  184.1860  179.0490  141.2410 Cl  0  0  0  0  0  0  0  0  0  0  0  0
  183.9550  178.9320  145.2520 C   0  0  0  0  0  3  0  0  0  0  0  0
  184.5890  178.6660  142.9030 C   0  0  0  0  0  0  0  0  0  0  0  0
  188.0580  177.0880  145.8400 C   0  0  0  0  0  2  0  0  0  0  0  0
  189.2040  177.9240  146.2990 C   0  0  0  0  0  0  0  0  0  0  0  0
  189.9470  178.6010  145.3850 F   0  0  0  0  0  0  0  0  0  0  0  0
  189.3980  178.1230  147.5480 N   0  0  0  0  0  2  0  0  0  0  0  0
  189.2180  174.2310  136.9360 C   0  0  0  0  0  2  0  0  0  0  0  0
  188.2130  172.0990  136.5730 O   0  0  0  0  0  1  0  0  0  0  0  0
  187.9360  173.4140  136.9160 C   0  0  0  0  0  2  0  0  0  0  0  0
  192.2020  174.8520  136.2620 C   0  0  0  0  0  2  0  0  0  0  0  0
  193.1890  175.1360  135.1230 C   0  0  1  0  0  3  0  0  0  0  0  0
  193.4890  176.6200  134.9620 C   0  0  0  0  0  2  0  0  0  0  0  0
  194.7400  176.9450  135.4650 O   0  0  0  0  0  1  0  0  0  0  0  0
  194.4250  174.3500  135.2180 N   0  0  0  0  0  2  0  0  0  0  0  0
  194.8510  171.4250  137.6110 C   0  0  0  0  0  2  0  0  0  0  0  0
  195.9020  172.0030  138.3550 O   0  0  0  0  0  0  0  0  0  0  0  0
  194.7270  172.1130  136.2520 C   0  0  0  0  0  2  0  0  0  0  0  0
  194.4640  173.6020  136.4740 C   0  0  0  0  0  3  0  0  0  0  0  0
  195.4400  174.2070  137.4930 C   0  0  0  0  0  2  0  0  0  0  0  0
  195.4900  173.3000  138.7210 C   0  0  0  0  0  2  0  0  0  0  0  0
  1  6  1  1  0  0  0
  3  5  1  0  0  0  0
  3  2  1  6  0  0  0
  4  8  1  6  0  0  0
  4  1  1  0  0  0  0
  4 30  1  0  0  0  0
  5 10  1  1  0  0  0
  6  5  1  0  0  0  0
  7  4  1  0  0  0  0
  7  9  1  0  0  0  0
  7  1  1  0  0  0  0
  9  3  1  0  0  0  0
 10 13  1  0  0  0  0
 11 13  1  0  0  0  0
 12 13  1  0  0  0  0
 13 14  1  0  0  0  0
 14 15  1  0  0  0  0
 15 16  1  0  0  0  0
 16 17  1  0  0  0  0
 17 26  1  0  0  0  0
 19 22  1  0  0  0  0
 20 21  1  0  0  0  0
 21 17  1  0  0  0  0
 21 18  1  0  0  0  0
 22 24  2  0  0  0  0
 23 25  1  0  0  0  0
 24 18  1  0  0  0  0
 25 20  2  0  0  0  0
 25 22  1  0  0  0  0
 26 27  1  0  0  0  0
 27 29  2  0  0  0  0
 28 27  1  0  0  0  0
 31 32  1  0  0  0  0
 32 30  1  0  0  0  0
 33  9  1  0  0  0  0
 34 37  1  0  0  0  0
 34 33  1  0  0  0  0
 35 34  1  0  0  0  0
 35 36  1  0  0  0  0
 37 41  1  0  0  0  0
 38 39  1  0  0  0  0
 39 43  1  0  0  0  0
 40 41  1  0  0  0  0
 40 38  1  0  0  0  0
 41 42  1  0  0  0  0
 42 43  1  0  0  0  0
M  END
>  <MODEL>
9

>  <REMARK>
 VINA RESULT:      -6.0      3.693      6.799
  Name = 
  16 active torsions:
  status: ('A' for Active; 'I' for Inactive)
    1  A    between atoms: C_1  and  C_15
    2  A    between atoms: C_1  and  C_42
    3  A    between atoms: O_2  and  C_21
    4  A    between atoms: O_2  and  C_27
    5  A    between atoms: C_9  and  C_18
    6  A    between atoms: C_13  and  N_22
    7  A    between atoms: C_17  and  CA_38
    8  A    between atoms: C_17  and  C_41
    9  A    between atoms: C_18  and  N_26
   10  A    between atoms: C_19  and  CA_38
   11  A    between atoms: C_20  and  N_26
   12  A    between atoms: C_20  and  C_27
   13  A    between atoms: C_21  and  C_34
   14  A    between atoms: N_22  and  CA_38
   15  A    between atoms: C_24  and  N_26
   16  A    between atoms: C_28  and  C_34
                            x       y       z     vdW  Elec       q    Type
                         _______ _______ _______ _____ _____    ______ ____

>  <TORSDO>
F 16

$$$$
