=
 OpenBabel11062417583D

 40 43  0  0  1  0  0  0  0  0999 V2000
  185.3980  177.3120  137.7110 O   0  0  0  0  0  0  0  0  0  0  0  0
  182.0190  175.2400  138.7930 N   0  0  0  0  0  2  0  0  0  0  0  0
  187.6630  176.7460  136.5210 O   0  0  0  0  0  0  0  0  0  0  0  0
  183.8140  176.3330  135.4510 C   0  0  2  0  0  3  0  0  0  0  0  0
  180.6670  174.7440  138.6120 C   0  0  0  0  0  2  0  0  0  0  0  0
  181.2820  177.3270  139.9260 N   0  0  0  0  0  2  0  0  0  0  0  0
  184.5430  179.1650  139.0630 N   0  0  0  0  0  2  0  0  0  0  0  0
  185.4980  175.9450  137.2850 C   0  0  2  0  0  3  0  0  0  0  0  0
  188.5880  174.6930  137.1380 N   0  0  0  0  0  0  0  0  0  0  0  0
  188.8880  176.0710  136.7040 C   0  0  1  0  0  0  0  0  0  0  0  0
  184.4610  177.8010  138.6310 C   0  0  0  0  0  0  0  0  0  0  0  0
  181.3180  175.8700  135.0930 C   0  0  2  0  0  3  0  0  0  0  0  0
  183.6810  179.7550  140.0930 C   0  0  0  0  0  2  0  0  0  0  0  0
  189.5270  173.6790  136.6740 C   0  0  0  0  0  1  0  0  0  0  0  0
  186.2310  175.8150  134.8190 C   0  0  0  0  0  2  0  0  0  0  0  0
  185.0290  176.7360  134.5980 C   0  0  0  0  0  2  0  0  0  0  0  0
  182.1980  179.6370  139.7340 C   0  0  0  0  0  2  0  0  0  0  0  0
  180.8090  174.8420  136.0780 C   0  0  0  0  0  0  0  0  0  0  0  0
  180.0600  175.2830  137.3180 C   0  0  0  0  0  2  0  0  0  0  0  0
  182.3130  176.5280  139.3280 C   0  0  0  0  0  0  0  0  0  0  0  0
  183.4370  177.0880  139.0040 C   0  0  0  0  0  0  0  0  0  0  0  0
  180.9240  173.5850  135.7430 N   0  0  0  0  0  0  0  0  0  0  0  0
  181.5230  178.5930  140.6280 C   0  0  0  0  0  2  0  0  0  0  0  0
  187.3030  174.4160  136.5470 C   0  0  0  0  0  2  0  0  0  0  0  0
  186.6760  175.7630  136.2950 C   0  0  1  0  0  0  0  0  0  0  0  0
  184.1920  175.4560  136.6460 C   0  0  0  0  0  2  0  0  0  0  0  0
  182.7550  175.6560  134.5940 C   0  0  0  0  0  2  0  0  0  0  0  0
  180.1150  177.8850  134.6530 O   0  0  0  0  0  0  0  0  0  0  0  0
  181.5890  177.9970  136.4010 O   0  0  0  0  0  1  0  0  0  0  0  0
  180.9660  177.3020  135.3730 C   0  0  0  0  0  0  0  0  0  0  0  0
  179.1530  172.0720  136.2260 N   0  0  0  0  0  2  0  0  0  0  0  0
  181.3160  171.4810  137.0590 C   0  0  0  0  0  1  0  0  0  0  0  0
  180.3800  172.4350  136.4090 C   0  0  0  0  0  0  0  0  0  0  0  0
  189.6420  176.1580  135.3500 C   0  0  0  0  0  2  0  0  0  0  0  0
  189.4900  177.4880  134.6210 C   0  0  0  0  0  1  0  0  0  0  0  0
  189.7000  176.8010  137.7930 C   0  0  0  0  0  2  0  0  0  0  0  0
  187.9360  177.2970  139.2910 F   0  0  0  0  0  0  0  0  0  0  0  0
  188.9520  177.8900  138.5670 C   0  0  0  0  0  0  0  0  0  0  0  0
  189.8030  178.5280  139.4490 F   0  0  0  0  0  0  0  0  0  0  0  0
  188.4000  178.8170  137.7020 F   0  0  0  0  0  0  0  0  0  0  0  0
  1 11  1  0  0  0  0
  2 20  1  0  0  0  0
  3 10  1  0  0  0  0
  4 27  1  6  0  0  0
  4 26  1  0  0  0  0
  5  2  1  0  0  0  0
  6 23  1  0  0  0  0
  7 13  1  0  0  0  0
  8 26  1  6  0  0  0
  8  1  1  0  0  0  0
 10 34  1  6  0  0  0
 10  9  1  0  0  0  0
 10 36  1  0  0  0  0
 11 21  2  0  0  0  0
 11  7  1  0  0  0  0
 12 30  1  1  0  0  0
 12 18  1  0  0  0  0
 14  9  1  0  0  0  0
 16 15  1  0  0  0  0
 16  4  1  0  0  0  0
 17 13  1  0  0  0  0
 17 23  1  0  0  0  0
 18 19  1  0  0  0  0
 19  5  1  0  0  0  0
 20  6  1  0  0  0  0
 21 20  2  0  0  0  0
 22 18  2  0  0  0  0
 22 33  1  0  0  0  0
 24  9  1  0  0  0  0
 25 15  1  6  0  0  0
 25  3  1  0  0  0  0
 25 24  1  0  0  0  0
 25  8  1  0  0  0  0
 27 12  1  0  0  0  0
 28 30  2  0  0  0  0
 30 29  1  0  0  0  0
 31 33  2  0  0  0  0
 33 32  1  0  0  0  0
 35 34  1  0  0  0  0
 36 38  1  0  0  0  0
 38 37  1  0  0  0  0
 38 39  1  0  0  0  0
 40 38  1  0  0  0  0
M  END
>  <MODEL>
1

>  <REMARK>
 VINA RESULT:      -4.8      0.000      0.000
  Name = 
  5 active torsions:
  status: ('A' for Active; 'I' for Inactive)
    1  A    between atoms: C_4  and  C_13
    2  A    between atoms: C_4  and  C_32
    3  A    between atoms: C_13  and  C_22
    4  A    between atoms: C_15  and  C_36
    5  A    between atoms: C_30  and  N_31
                            x       y       z     vdW  Elec       q    Type
                         _______ _______ _______ _____ _____    ______ ____

>  <TORSDO>
F 5

$$$$
=
 OpenBabel11062417583D

 40 43  0  0  1  0  0  0  0  0999 V2000
  183.7660  175.7620  137.3330 O   0  0  0  0  0  0  0  0  0  0  0  0
  180.5480  177.8110  135.8040 N   0  0  0  0  0  2  0  0  0  0  0  0
  186.3660  176.0790  137.3650 O   0  0  0  0  0  0  0  0  0  0  0  0
  183.3000  178.3710  138.5780 C   0  0  2  0  0  3  0  0  0  0  0  0
  179.4460  178.7530  135.8540 C   0  0  0  0  0  2  0  0  0  0  0  0
  179.1580  175.8880  136.5510 N   0  0  0  0  0  2  0  0  0  0  0  0
  182.2170  173.9210  137.7870 N   0  0  0  0  0  2  0  0  0  0  0  0
  184.2060  176.9680  136.6910 C   0  0  2  0  0  3  0  0  0  0  0  0
  187.2640  176.8700  135.3600 N   0  0  0  0  0  0  0  0  0  0  0  0
  187.5130  176.0260  136.5450 C   0  0  1  0  0  0  0  0  0  0  0  0
  182.4930  175.1920  137.1880 C   0  0  0  0  0  0  0  0  0  0  0  0
  181.2120  179.7990  138.9950 C   0  0  2  0  0  3  0  0  0  0  0  0
  180.9590  173.1870  137.6190 C   0  0  0  0  0  2  0  0  0  0  0  0
  188.4400  177.5480  134.8250 C   0  0  0  0  0  1  0  0  0  0  0  0
  185.8240  178.2680  138.2180 C   0  0  0  0  0  2  0  0  0  0  0  0
  184.6780  178.1570  139.2270 C   0  0  0  0  0  2  0  0  0  0  0  0
  179.7510  174.0080  138.0770 C   0  0  0  0  0  2  0  0  0  0  0  0
  180.5170  180.1370  137.6960 C   0  0  0  0  0  0  0  0  0  0  0  0
  179.3030  179.3460  137.2550 C   0  0  0  0  0  2  0  0  0  0  0  0
  180.4380  176.4580  136.2390 C   0  0  0  0  0  0  0  0  0  0  0  0
  181.5130  175.8480  136.6350 C   0  0  0  0  0  0  0  0  0  0  0  0
  180.9210  181.2040  137.0620 N   0  0  0  0  0  0  0  0  0  0  0  0
  178.9400  174.4710  136.8630 C   0  0  0  0  0  2  0  0  0  0  0  0
  186.3480  177.8750  135.8380 C   0  0  0  0  0  2  0  0  0  0  0  0
  185.6820  177.2720  137.0480 C   0  0  1  0  0  0  0  0  0  0  0  0
  183.3170  178.1620  137.0630 C   0  0  0  0  0  2  0  0  0  0  0  0
  182.7460  179.7430  138.9310 C   0  0  0  0  0  2  0  0  0  0  0  0
  179.9950  179.0280  140.8990 O   0  0  0  0  0  1  0  0  0  0  0  0
  180.6780  177.3880  139.4550 O   0  0  0  0  0  0  0  0  0  0  0  0
  180.5870  178.7220  139.8320 C   0  0  0  0  0  0  0  0  0  0  0  0
  179.3960  182.7170  136.0390 N   0  0  0  0  0  2  0  0  0  0  0  0
  181.0140  181.6990  134.6000 C   0  0  0  0  0  1  0  0  0  0  0  0
  180.3310  181.8320  135.9130 C   0  0  0  0  0  0  0  0  0  0  0  0
  188.7010  176.5010  137.4230 C   0  0  0  0  0  2  0  0  0  0  0  0
  189.8230  175.4800  137.5810 C   0  0  0  0  0  1  0  0  0  0  0  0
  187.7460  174.5650  136.1090 C   0  0  0  0  0  2  0  0  0  0  0  0
  186.8600  172.4360  135.5740 F   0  0  0  0  0  0  0  0  0  0  0  0
  186.5070  173.6660  136.0960 C   0  0  0  0  0  0  0  0  0  0  0  0
  186.0330  173.4770  137.3800 F   0  0  0  0  0  0  0  0  0  0  0  0
  185.5100  174.2130  135.3100 F   0  0  0  0  0  0  0  0  0  0  0  0
  2  5  1  0  0  0  0
  2 20  1  0  0  0  0
  4 26  1  6  0  0  0
  4 27  1  0  0  0  0
  4 16  1  0  0  0  0
  5 19  1  0  0  0  0
  6 23  1  0  0  0  0
  8 25  1  0  0  0  0
  8 26  1  1  0  0  0
  8  1  1  0  0  0  0
  9 24  1  0  0  0  0
  9 10  1  0  0  0  0
 10 36  1  6  0  0  0
 10  3  1  0  0  0  0
 10 34  1  0  0  0  0
 11  1  1  0  0  0  0
 11  7  1  0  0  0  0
 12 30  1  6  0  0  0
 13  7  1  0  0  0  0
 13 17  1  0  0  0  0
 14  9  1  0  0  0  0
 15 16  1  0  0  0  0
 18 12  1  0  0  0  0
 19 18  1  0  0  0  0
 20  6  1  0  0  0  0
 20 21  2  0  0  0  0
 21 11  2  0  0  0  0
 22 18  2  0  0  0  0
 23 17  1  0  0  0  0
 25 24  1  6  0  0  0
 25  3  1  0  0  0  0
 25 15  1  0  0  0  0
 27 12  1  0  0  0  0
 29 30  2  0  0  0  0
 30 28  1  0  0  0  0
 32 33  1  0  0  0  0
 33 31  2  0  0  0  0
 33 22  1  0  0  0  0
 34 35  1  0  0  0  0
 37 38  1  0  0  0  0
 38 36  1  0  0  0  0
 38 39  1  0  0  0  0
 40 38  1  0  0  0  0
M  END
>  <MODEL>
2

>  <REMARK>
 VINA RESULT:      -4.7      2.940      5.308
  Name = 
  5 active torsions:
  status: ('A' for Active; 'I' for Inactive)
    1  A    between atoms: C_4  and  C_13
    2  A    between atoms: C_4  and  C_32
    3  A    between atoms: C_13  and  C_22
    4  A    between atoms: C_15  and  C_36
    5  A    between atoms: C_30  and  N_31
                            x       y       z     vdW  Elec       q    Type
                         _______ _______ _______ _____ _____    ______ ____

>  <TORSDO>
F 5

$$$$
=
 OpenBabel11062417583D

 40 43  0  0  1  0  0  0  0  0999 V2000
  188.2010  174.6260  136.0080 O   0  0  0  0  0  0  0  0  0  0  0  0
  190.1390  175.7420  139.4550 N   0  0  0  0  0  2  0  0  0  0  0  0
  185.8190  173.7310  135.3850 O   0  0  0  0  0  0  0  0  0  0  0  0
  187.1110  177.0300  137.2750 C   0  0  2  0  0  3  0  0  0  0  0  0
  190.6010  176.6860  140.4580 C   0  0  0  0  0  2  0  0  0  0  0  0
  192.1820  175.9750  138.0550 N   0  0  0  0  0  2  0  0  0  0  0  0
  190.3800  174.7360  134.8970 N   0  0  0  0  0  2  0  0  0  0  0  0
  187.3130  174.5230  137.1310 C   0  0  2  0  0  3  0  0  0  0  0  0
  184.9450  172.1840  136.8990 N   0  0  0  0  0  0  0  0  0  0  0  0
  184.9850  172.5980  135.4820 C   0  0  1  0  0  0  0  0  0  0  0  0
  189.5940  174.7650  136.0940 C   0  0  0  0  0  0  0  0  0  0  0  0
  188.1170  178.8960  138.7170 C   0  0  2  0  0  3  0  0  0  0  0  0
  191.8460  174.7730  134.8740 C   0  0  0  0  0  2  0  0  0  0  0  0
  183.6790  171.6090  137.3400 C   0  0  0  0  0  1  0  0  0  0  0  0
  185.0620  175.6620  136.6130 C   0  0  0  0  0  2  0  0  0  0  0  0
  185.9500  176.8640  136.2810 C   0  0  0  0  0  2  0  0  0  0  0  0
  192.3980  176.0180  135.5720 C   0  0  0  0  0  2  0  0  0  0  0  0
  188.7280  178.3350  139.9820 C   0  0  0  0  0  0  0  0  0  0  0  0
  190.2240  178.1150  140.0720 C   0  0  0  0  0  2  0  0  0  0  0  0
  190.8490  175.4790  138.2470 C   0  0  0  0  0  0  0  0  0  0  0  0
  190.1810  175.0530  137.2200 C   0  0  0  0  0  0  0  0  0  0  0  0
  187.9390  178.1870  141.0120 N   0  0  0  0  0  0  0  0  0  0  0  0
  193.0330  175.6300  136.9110 C   0  0  0  0  0  2  0  0  0  0  0  0
  185.1530  173.4120  137.6240 C   0  0  0  0  0  2  0  0  0  0  0  0
  185.8500  174.3370  136.6590 C   0  0  1  0  0  0  0  0  0  0  0  0
  187.4200  175.7480  138.0490 C   0  0  0  0  0  2  0  0  0  0  0  0
  186.8450  178.1880  138.2250 C   0  0  0  0  0  2  0  0  0  0  0  0
  189.2900  180.5060  137.4010 O   0  0  0  0  0  1  0  0  0  0  0  0
  189.6910  178.3210  136.8460 O   0  0  0  0  0  0  0  0  0  0  0  0
  189.0700  179.2880  137.6270 C   0  0  0  0  0  0  0  0  0  0  0  0
  188.9780  178.6440  143.1020 N   0  0  0  0  0  2  0  0  0  0  0  0
  187.6020  176.6900  143.0020 C   0  0  0  0  0  1  0  0  0  0  0  0
  188.2930  177.8380  142.3590 C   0  0  0  0  0  0  0  0  0  0  0  0
  183.6070  173.0170  134.9050 C   0  0  0  0  0  2  0  0  0  0  0  0
  182.5620  171.9060  134.8840 C   0  0  0  0  0  1  0  0  0  0  0  0
  185.5810  171.4660  134.6210 C   0  0  0  0  0  2  0  0  0  0  0  0
  187.9320  171.7450  134.6010 F   0  0  0  0  0  0  0  0  0  0  0  0
  186.9340  170.9180  135.0820 C   0  0  0  0  0  0  0  0  0  0  0  0
  187.0060  170.9040  136.4620 F   0  0  0  0  0  0  0  0  0  0  0  0
  187.1410  169.6410  134.5940 F   0  0  0  0  0  0  0  0  0  0  0  0
  1 11  1  0  0  0  0
  1  8  1  0  0  0  0
  2  5  1  0  0  0  0
  3 10  1  0  0  0  0
  3 25  1  0  0  0  0
  4 16  1  1  0  0  0
  4 26  1  0  0  0  0
  4 27  1  0  0  0  0
  6 20  1  0  0  0  0
  7 11  1  0  0  0  0
  8 26  1  6  0  0  0
  9 14  1  0  0  0  0
  9 24  1  0  0  0  0
 10 36  1  6  0  0  0
 10  9  1  0  0  0  0
 11 21  2  0  0  0  0
 12 30  1  6  0  0  0
 12 18  1  0  0  0  0
 13  7  1  0  0  0  0
 13 17  1  0  0  0  0
 16 15  1  0  0  0  0
 17 23  1  0  0  0  0
 18 19  1  0  0  0  0
 18 22  2  0  0  0  0
 19  5  1  0  0  0  0
 20  2  1  0  0  0  0
 21 20  2  0  0  0  0
 22 33  1  0  0  0  0
 23  6  1  0  0  0  0
 25 15  1  6  0  0  0
 25  8  1  0  0  0  0
 25 24  1  0  0  0  0
 27 12  1  0  0  0  0
 28 30  1  0  0  0  0
 29 30  2  0  0  0  0
 33 32  1  0  0  0  0
 33 31  2  0  0  0  0
 34 10  1  0  0  0  0
 35 34  1  0  0  0  0
 36 38  1  0  0  0  0
 37 38  1  0  0  0  0
 38 39  1  0  0  0  0
 40 38  1  0  0  0  0
M  END
>  <MODEL>
3

>  <REMARK>
 VINA RESULT:      -3.0      4.166      8.143
  Name = 
  5 active torsions:
  status: ('A' for Active; 'I' for Inactive)
    1  A    between atoms: C_4  and  C_13
    2  A    between atoms: C_4  and  C_32
    3  A    between atoms: C_13  and  C_22
    4  A    between atoms: C_15  and  C_36
    5  A    between atoms: C_30  and  N_31
                            x       y       z     vdW  Elec       q    Type
                         _______ _______ _______ _____ _____    ______ ____

>  <TORSDO>
F 5

$$$$
=
 OpenBabel11062417583D

 40 43  0  0  1  0  0  0  0  0999 V2000
  186.6830  178.3840  139.9360 O   0  0  0  0  0  0  0  0  0  0  0  0
  184.9850  175.5170  137.5290 N   0  0  0  0  0  2  0  0  0  0  0  0
  188.8300  178.5700  141.4250 O   0  0  0  0  0  0  0  0  0  0  0  0
  188.2410  177.7500  137.5390 C   0  0  2  0  0  3  0  0  0  0  0  0
  184.7220  174.8460  136.2690 C   0  0  0  0  0  2  0  0  0  0  0  0
  183.0540  177.0680  137.2990 N   0  0  0  0  0  2  0  0  0  0  0  0
  184.5890  179.6320  139.7120 N   0  0  0  0  0  2  0  0  0  0  0  0
  187.5170  177.2160  139.8920 C   0  0  2  0  0  3  0  0  0  0  0  0
  189.3420  176.6340  142.6240 N   0  0  0  0  0  0  0  0  0  0  0  0
  189.4050  178.1080  142.6280 C   0  0  1  0  0  0  0  0  0  0  0  0
  185.3500  178.4360  139.5040 C   0  0  0  0  0  0  0  0  0  0  0  0
  187.6350  176.9460  135.1810 C   0  0  2  0  0  3  0  0  0  0  0  0
  183.1640  179.7670  139.3920 C   0  0  0  0  0  2  0  0  0  0  0  0
  190.4530  175.9650  143.2920 C   0  0  0  0  0  1  0  0  0  0  0  0
  189.9640  177.8670  139.4170 C   0  0  0  0  0  2  0  0  0  0  0  0
  189.3520  178.5770  138.2060 C   0  0  0  0  0  2  0  0  0  0  0  0
  182.8780  179.4760  137.9170 C   0  0  0  0  0  2  0  0  0  0  0  0
  186.9050  175.6230  135.2280 C   0  0  0  0  0  0  0  0  0  0  0  0
  185.3960  175.5810  135.1120 C   0  0  0  0  0  2  0  0  0  0  0  0
  184.2500  176.6540  137.9760 C   0  0  0  0  0  0  0  0  0  0  0  0
  184.8250  177.4760  138.7990 C   0  0  0  0  0  0  0  0  0  0  0  0
  187.6340  174.5390  135.2340 N   0  0  0  0  0  0  0  0  0  0  0  0
  182.1620  178.1300  137.7760 C   0  0  0  0  0  2  0  0  0  0  0  0
  189.3880  176.2890  141.2260 C   0  0  0  0  0  2  0  0  0  0  0  0
  188.9140  177.5160  140.4910 C   0  0  1  0  0  0  0  0  0  0  0  0
  187.6610  176.6780  138.4620 C   0  0  0  0  0  2  0  0  0  0  0  0
  188.7350  177.1360  136.2370 C   0  0  0  0  0  2  0  0  0  0  0  0
  187.3580  179.2600  134.6580 O   0  0  0  0  0  0  0  0  0  0  0  0
  185.4130  178.1080  135.0230 O   0  0  0  0  0  1  0  0  0  0  0  0
  186.7980  178.1660  134.9310 C   0  0  0  0  0  0  0  0  0  0  0  0
  186.0510  172.8820  134.5940 N   0  0  0  0  0  2  0  0  0  0  0  0
  188.2010  172.0920  135.2850 C   0  0  0  0  0  1  0  0  0  0  0  0
  187.1990  173.1760  135.1110 C   0  0  0  0  0  0  0  0  0  0  0  0
  190.8470  178.6800  142.6720 C   0  0  0  0  0  2  0  0  0  0  0  0
  191.2330  179.3340  143.9940 C   0  0  0  0  0  1  0  0  0  0  0  0
  188.5940  178.6670  143.8140 C   0  0  0  0  0  2  0  0  0  0  0  0
  187.6970  176.7520  144.8780 F   0  0  0  0  0  0  0  0  0  0  0  0
  187.3290  177.8880  144.1830 C   0  0  0  0  0  0  0  0  0  0  0  0
  186.5100  178.6510  144.9940 F   0  0  0  0  0  0  0  0  0  0  0  0
  186.6350  177.5100  143.0490 F   0  0  0  0  0  0  0  0  0  0  0  0
  2 20  1  0  0  0  0
  3 10  1  0  0  0  0
  4 27  1  6  0  0  0
  4 16  1  0  0  0  0
  4 26  1  0  0  0  0
  5  2  1  0  0  0  0
  6 23  1  0  0  0  0
  6 20  1  0  0  0  0
  8 26  1  6  0  0  0
  8  1  1  0  0  0  0
  8 25  1  0  0  0  0
  9 10  1  0  0  0  0
  9 14  1  0  0  0  0
 10 34  1  1  0  0  0
 10 36  1  0  0  0  0
 11  7  1  0  0  0  0
 11  1  1  0  0  0  0
 12 30  1  1  0  0  0
 12 18  1  0  0  0  0
 12 27  1  0  0  0  0
 13  7  1  0  0  0  0
 16 15  1  0  0  0  0
 17 13  1  0  0  0  0
 18 22  2  0  0  0  0
 19 18  1  0  0  0  0
 19  5  1  0  0  0  0
 20 21  2  0  0  0  0
 21 11  2  0  0  0  0
 23 17  1  0  0  0  0
 24  9  1  0  0  0  0
 25 15  1  6  0  0  0
 25 24  1  0  0  0  0
 25  3  1  0  0  0  0
 28 30  2  0  0  0  0
 30 29  1  0  0  0  0
 31 33  2  0  0  0  0
 33 22  1  0  0  0  0
 33 32  1  0  0  0  0
 34 35  1  0  0  0  0
 36 38  1  0  0  0  0
 38 37  1  0  0  0  0
 38 39  1  0  0  0  0
 40 38  1  0  0  0  0
M  END
>  <MODEL>
4

>  <REMARK>
 VINA RESULT:      -2.6      3.294      5.489
  Name = 
  5 active torsions:
  status: ('A' for Active; 'I' for Inactive)
    1  A    between atoms: C_4  and  C_13
    2  A    between atoms: C_4  and  C_32
    3  A    between atoms: C_13  and  C_22
    4  A    between atoms: C_15  and  C_36
    5  A    between atoms: C_30  and  N_31
                            x       y       z     vdW  Elec       q    Type
                         _______ _______ _______ _____ _____    ______ ____

>  <TORSDO>
F 5

$$$$
=
 OpenBabel11062417583D

 40 43  0  0  1  0  0  0  0  0999 V2000
  184.9900  173.9450  135.6580 O   0  0  0  0  0  0  0  0  0  0  0  0
  187.9830  174.9500  138.2900 N   0  0  0  0  0  2  0  0  0  0  0  0
  182.4140  174.3800  135.4720 O   0  0  0  0  0  0  0  0  0  0  0  0
  185.6000  176.8080  135.7490 C   0  0  2  0  0  3  0  0  0  0  0  0
  189.0800  175.7610  138.7850 C   0  0  0  0  0  2  0  0  0  0  0  0
  189.4620  173.4760  136.9380 N   0  0  0  0  0  2  0  0  0  0  0  0
  186.5900  172.4090  134.6220 N   0  0  0  0  0  2  0  0  0  0  0  0
  184.4690  174.7720  136.7100 C   0  0  2  0  0  3  0  0  0  0  0  0
  181.2680  174.2640  137.5020 N   0  0  0  0  0  0  0  0  0  0  0  0
  181.1730  174.0350  136.0470 C   0  0  1  0  0  0  0  0  0  0  0  0
  186.2370  173.3040  135.6840 C   0  0  0  0  0  0  0  0  0  0  0  0
  187.7190  178.1630  136.2440 C   0  0  2  0  0  3  0  0  0  0  0  0
  187.8200  171.6100  134.5940 C   0  0  0  0  0  2  0  0  0  0  0  0
  180.0320  174.7000  138.1420 C   0  0  0  0  0  1  0  0  0  0  0  0
  183.0520  176.6900  135.7350 C   0  0  0  0  0  2  0  0  0  0  0  0
  184.3160  176.9710  134.9190 C   0  0  0  0  0  2  0  0  0  0  0  0
  189.0720  172.4850  134.6850 C   0  0  0  0  0  2  0  0  0  0  0  0
  188.2450  177.8640  137.6300 C   0  0  0  0  0  0  0  0  0  0  0  0
  189.3960  176.8980  137.8150 C   0  0  0  0  0  2  0  0  0  0  0  0
  188.1510  173.9190  137.3200 C   0  0  0  0  0  0  0  0  0  0  0  0
  187.1370  173.6010  136.5760 C   0  0  0  0  0  0  0  0  0  0  0  0
  187.7600  178.5670  138.6170 N   0  0  0  0  0  0  0  0  0  0  0  0
  189.7220  172.3280  136.0630 C   0  0  0  0  0  2  0  0  0  0  0  0
  182.2330  175.3260  137.6230 C   0  0  0  0  0  2  0  0  0  0  0  0
  183.0480  175.2780  136.3560 C   0  0  1  0  0  0  0  0  0  0  0  0
  185.3940  175.9600  137.0050 C   0  0  0  0  0  2  0  0  0  0  0  0
  186.1890  178.1660  136.1000 C   0  0  0  0  0  2  0  0  0  0  0  0
  188.0150  176.4560  134.6010 O   0  0  0  0  0  1  0  0  0  0  0  0
  189.6120  178.0960  134.5940 O   0  0  0  0  0  0  0  0  0  0  0  0
  188.4490  177.5280  135.0970 C   0  0  0  0  0  0  0  0  0  0  0  0
  189.4000  178.9640  140.2950 N   0  0  0  0  0  2  0  0  0  0  0  0
  187.1770  178.5190  141.0610 C   0  0  0  0  0  1  0  0  0  0  0  0
  188.1990  178.5990  139.9840 C   0  0  0  0  0  0  0  0  0  0  0  0
  180.1030  174.9070  135.3380 C   0  0  0  0  0  2  0  0  0  0  0  0
  178.9660  174.1200  134.6950 C   0  0  0  0  0  1  0  0  0  0  0  0
  180.8910  172.5450  135.7670 C   0  0  0  0  0  2  0  0  0  0  0  0
  181.6470  170.3140  136.0040 F   0  0  0  0  0  0  0  0  0  0  0  0
  182.1010  171.6100  135.8490 C   0  0  0  0  0  0  0  0  0  0  0  0
  182.8440  171.6770  134.6860 F   0  0  0  0  0  0  0  0  0  0  0  0
  182.9010  171.9330  136.9290 F   0  0  0  0  0  0  0  0  0  0  0  0
  1 11  1  0  0  0  0
  1  8  1  0  0  0  0
  2  5  1  0  0  0  0
  3 10  1  0  0  0  0
  3 25  1  0  0  0  0
  4 16  1  1  0  0  0
  4 27  1  0  0  0  0
  4 26  1  0  0  0  0
  6 20  1  0  0  0  0
  7 11  1  0  0  0  0
  8 26  1  6  0  0  0
  9 24  1  0  0  0  0
  9 14  1  0  0  0  0
 10 34  1  6  0  0  0
 10  9  1  0  0  0  0
 11 21  2  0  0  0  0
 12 30  1  6  0  0  0
 12 18  1  0  0  0  0
 13  7  1  0  0  0  0
 13 17  1  0  0  0  0
 16 15  1  0  0  0  0
 17 23  1  0  0  0  0
 18 19  1  0  0  0  0
 18 22  2  0  0  0  0
 19  5  1  0  0  0  0
 20  2  1  0  0  0  0
 21 20  2  0  0  0  0
 22 33  1  0  0  0  0
 23  6  1  0  0  0  0
 25 15  1  6  0  0  0
 25  8  1  0  0  0  0
 25 24  1  0  0  0  0
 27 12  1  0  0  0  0
 28 30  1  0  0  0  0
 29 30  2  0  0  0  0
 33 31  2  0  0  0  0
 33 32  1  0  0  0  0
 35 34  1  0  0  0  0
 36 38  1  0  0  0  0
 36 10  1  0  0  0  0
 38 37  1  0  0  0  0
 38 40  1  0  0  0  0
 39 38  1  0  0  0  0
M  END
>  <MODEL>
5

>  <REMARK>
 VINA RESULT:      -2.0      3.324      8.127
  Name = 
  5 active torsions:
  status: ('A' for Active; 'I' for Inactive)
    1  A    between atoms: C_4  and  C_13
    2  A    between atoms: C_4  and  C_32
    3  A    between atoms: C_13  and  C_22
    4  A    between atoms: C_15  and  C_36
    5  A    between atoms: C_30  and  N_31
                            x       y       z     vdW  Elec       q    Type
                         _______ _______ _______ _____ _____    ______ ____

>  <TORSDO>
F 5

$$$$
