=
 OpenBabel11062415543D

 41 45  0  0  1  0  0  0  0  0999 V2000
  185.5050  178.7850  145.9630 C   0  0  0  0  0  0  0  0  0  0  0  0
  185.6740  179.0820  147.2770 F   0  0  0  0  0  0  0  0  0  0  0  0
  186.5210  178.2790  145.2450 C   0  0  0  0  0  0  0  0  0  0  0  0
  186.3240  177.9000  143.8010 C   0  0  2  0  0  3  0  0  0  0  0  0
  185.2120  178.7410  143.1590 C   0  0  2  0  0  3  0  0  0  0  0  0
  184.2670  179.0550  145.3620 O   0  0  0  0  0  0  0  0  0  0  0  0
  183.9620  178.6570  144.0250 C   0  0  0  0  0  2  0  0  0  0  0  0
  186.0230  176.5500  143.7200 F   0  0  0  0  0  0  0  0  0  0  0  0
  184.9030  178.2780  141.7450 C   0  0  0  0  0  2  0  0  0  0  0  0
  185.7650  178.5190  139.0260 O   0  0  0  0  0  1  0  0  0  0  0  0
  180.7130  178.4080  139.2370 C   0  0  0  0  0  0  0  0  0  0  0  0
  184.2800  179.2660  139.3530 P   0  0  1  0  0  0  0  0  0  0  0  0
  183.9090  179.1610  141.1350 N   0  0  0  0  0  0  0  0  0  0  0  0
  184.1520  180.7100  138.9280 O   0  0  0  0  0  0  0  0  0  0  0  0
  182.9890  178.4780  140.2980 C   0  0  1  0  0  0  0  0  0  0  0  0
  180.8730  177.0940  139.0340 C   0  0  0  0  0  3  0  0  0  0  0  0
  181.6330  179.1660  140.1700 C   0  0  0  0  0  2  0  0  0  0  0  0
  182.0030  176.3400  139.6150 C   0  0  0  0  0  3  0  0  0  0  0  0
  183.0010  176.9700  140.2320 C   0  0  0  0  0  3  0  0  0  0  0  0
  179.5990  179.0650  138.6200 N   0  0  0  0  0  2  0  0  0  0  0  0
  180.3840  181.1020  134.9640 C   0  0  0  0  0  2  0  0  0  0  0  0
  180.5100  181.9260  136.2540 C   0  0  0  0  0  2  0  0  0  0  0  0
  179.6550  179.8250  137.3750 C   0  0  0  0  0  3  0  0  0  0  0  0
  180.5200  181.0770  137.5320 C   0  0  0  0  0  2  0  0  0  0  0  0
  180.1040  178.9320  136.2050 C   0  0  0  0  0  2  0  0  0  0  0  0
  180.9160  179.6840  135.1460 C   0  0  0  0  0  2  0  0  0  0  0  0
  187.8410  178.0030  145.8870 C   0  0  0  0  0  2  0  0  0  0  0  0
  188.6780  177.0970  145.0010 C   0  0  0  0  0  2  0  0  0  0  0  0
  190.3660  177.5590  143.1330 N   0  0  0  0  0  2  0  0  0  0  0  0
  189.8240  176.6330  142.1810 C   0  0  0  0  0  0  0  0  0  0  0  0
  188.6880  176.1170  142.3580 O   0  0  0  0  0  0  0  0  0  0  0  0
  189.8140  177.8720  144.4200 C   0  0  0  0  0  0  0  0  0  0  0  0
  190.3350  178.7920  145.1020 O   0  0  0  0  0  0  0  0  0  0  0  0
  190.5420  176.3030  141.0300 O   0  0  0  0  0  0  0  0  0  0  0  0
  190.5580  177.1340  139.8750 C   0  0  0  0  0  2  0  0  0  0  0  0
  190.0370  176.3820  138.6580 C   0  0  2  0  0  3  0  0  0  0  0  0
  190.7410  175.1850  138.5270 O   0  0  0  0  0  1  0  0  0  0  0  0
  190.2200  177.2190  137.4030 C   0  0  1  0  0  3  0  0  0  0  0  0
  188.9420  177.1970  136.5870 C   0  0  1  0  0  3  0  0  0  0  0  0
  189.2760  178.4030  137.4390 C   0  0  0  0  0  2  0  0  0  0  0  0
  189.2480  177.4720  135.2550 O   0  0  0  0  0  1  0  0  0  0  0  0
  1  2  1  0  0  0  0
  3 27  1  0  0  0  0
  3  1  2  0  0  0  0
  4  8  1  1  0  0  0
  4  3  1  0  0  0  0
  5  9  1  6  0  0  0
  5  4  1  0  0  0  0
  5  7  1  0  0  0  0
  6  1  1  0  0  0  0
  7  6  1  0  0  0  0
 10 12  1  0  0  0  0
 11 17  1  0  0  0  0
 12 14  2  6  0  0  0
 12 15  1  0  0  0  0
 12 13  1  0  0  0  0
 13  9  1  0  0  0  0
 15 17  1  6  0  0  0
 15 13  1  0  0  0  0
 16 11  2  0  0  0  0
 16 18  1  0  0  0  0
 18 19  2  0  0  0  0
 19 15  1  0  0  0  0
 20 11  1  0  0  0  0
 21 26  1  0  0  0  0
 21 22  1  0  0  0  0
 22 24  1  0  0  0  0
 23 24  1  0  0  0  0
 23 20  1  0  0  0  0
 25 23  1  0  0  0  0
 26 25  1  0  0  0  0
 28 27  1  0  0  0  0
 29 32  1  0  0  0  0
 30 31  2  0  0  0  0
 30 29  1  0  0  0  0
 32 28  1  0  0  0  0
 32 33  2  0  0  0  0
 34 30  1  0  0  0  0
 35 34  1  0  0  0  0
 36 37  1  6  0  0  0
 36 35  1  0  0  0  0
 38 40  1  0  0  0  0
 38 36  1  1  0  0  0
 39 41  1  6  0  0  0
 39 38  1  0  0  0  0
 39 40  1  0  0  0  0
M  END
>  <MODEL>
1

>  <REMARK>
 VINA RESULT:      -8.2      0.000      0.000
  Name = 
  11 active torsions:
  status: ('A' for Active; 'I' for Inactive)
    1  A    between atoms: N_3  and  C_4
    2  A    between atoms: N_3  and  C_22
    3  A    between atoms: C_6  and  C_14
    4  A    between atoms: C_6  and  N_15
    5  A    between atoms: C_7  and  C_30
    6  A    between atoms: C_7  and  C_31
    7  A    between atoms: C_8  and  C_13
    8  A    between atoms: C_8  and  C_20
    9  A    between atoms: C_10  and  C_31
   10  A    between atoms: O_16  and  C_20
   11  A    between atoms: O_16  and  C_27
                            x       y       z     vdW  Elec       q    Type
                         _______ _______ _______ _____ _____    ______ ____

>  <TORSDO>
F 11

$$$$
=
 OpenBabel11062415543D

 41 45  0  0  1  0  0  0  0  0999 V2000
  184.8120  178.5660  145.9620 C   0  0  0  0  0  0  0  0  0  0  0  0
  185.1080  178.4400  147.2810 F   0  0  0  0  0  0  0  0  0  0  0  0
  185.7660  178.3920  145.0330 C   0  0  0  0  0  0  0  0  0  0  0  0
  185.4340  178.4790  143.5670 C   0  0  2  0  0  3  0  0  0  0  0  0
  184.2250  179.3950  143.3320 C   0  0  2  0  0  3  0  0  0  0  0  0
  183.5070  178.9200  145.5910 O   0  0  0  0  0  0  0  0  0  0  0  0
  183.0780  178.9470  144.2290 C   0  0  0  0  0  2  0  0  0  0  0  0
  185.1830  177.2070  143.0790 F   0  0  0  0  0  0  0  0  0  0  0  0
  183.7860  179.3850  141.8770 C   0  0  0  0  0  2  0  0  0  0  0  0
  181.2750  180.2270  140.7940 O   0  0  0  0  0  0  0  0  0  0  0  0
  182.8990  176.0880  138.3830 C   0  0  0  0  0  0  0  0  0  0  0  0
  181.5310  178.5540  140.7330 P   0  0  1  0  0  0  0  0  0  0  0  0
  183.0950  178.1330  141.5710 N   0  0  0  0  0  0  0  0  0  0  0  0
  180.4360  177.6900  141.3150 O   0  0  0  0  0  1  0  0  0  0  0  0
  183.0670  177.8300  140.1850 C   0  0  1  0  0  0  0  0  0  0  0  0
  183.4180  176.9680  137.5160 C   0  0  0  0  0  3  0  0  0  0  0  0
  182.9610  176.3400  139.8740 C   0  0  0  0  0  2  0  0  0  0  0  0
  183.9790  178.2640  137.9510 C   0  0  0  0  0  3  0  0  0  0  0  0
  183.8410  178.6810  139.2090 C   0  0  0  0  0  3  0  0  0  0  0  0
  182.3590  174.8630  137.8730 N   0  0  0  0  0  2  0  0  0  0  0  0
  184.4480  171.5740  136.1540 C   0  0  0  0  0  2  0  0  0  0  0  0
  185.2940  172.6140  136.9040 C   0  0  0  0  0  2  0  0  0  0  0  0
  183.1070  173.8680  137.1090 C   0  0  0  0  0  3  0  0  0  0  0  0
  184.4680  173.5900  137.7500 C   0  0  0  0  0  2  0  0  0  0  0  0
  182.2720  172.5930  136.9000 C   0  0  0  0  0  2  0  0  0  0  0  0
  183.1190  171.3160  136.8550 C   0  0  0  0  0  2  0  0  0  0  0  0
  187.1580  178.0250  145.4330 C   0  0  0  0  0  2  0  0  0  0  0  0
  187.8650  177.3190  144.2910 C   0  0  0  0  0  2  0  0  0  0  0  0
  189.7900  178.0470  142.7680 N   0  0  0  0  0  2  0  0  0  0  0  0
  189.1310  177.7800  141.5210 C   0  0  0  0  0  0  0  0  0  0  0  0
  187.8910  177.5600  141.4820 O   0  0  0  0  0  0  0  0  0  0  0  0
  189.2090  177.9310  144.0740 C   0  0  0  0  0  0  0  0  0  0  0  0
  189.8730  178.3100  145.0740 O   0  0  0  0  0  0  0  0  0  0  0  0
  189.8540  177.7790  140.3270 O   0  0  0  0  0  0  0  0  0  0  0  0
  189.4420  177.0380  139.1850 C   0  0  0  0  0  2  0  0  0  0  0  0
  189.0180  177.9700  138.0580 C   0  0  2  0  0  3  0  0  0  0  0  0
  189.0600  179.2870  138.5150 O   0  0  0  0  0  1  0  0  0  0  0  0
  187.6080  177.6360  137.6000 C   0  0  1  0  0  3  0  0  0  0  0  0
  187.6540  177.0400  136.2060 C   0  0  1  0  0  3  0  0  0  0  0  0
  187.4750  176.1390  137.4100 C   0  0  0  0  0  2  0  0  0  0  0  0
  186.4200  177.2340  135.5870 O   0  0  0  0  0  1  0  0  0  0  0  0
  1  2  1  0  0  0  0
  3 27  1  0  0  0  0
  3  1  2  0  0  0  0
  4  8  1  1  0  0  0
  4  3  1  0  0  0  0
  5  9  1  6  0  0  0
  5  4  1  0  0  0  0
  5  7  1  0  0  0  0
  6  1  1  0  0  0  0
  7  6  1  0  0  0  0
 11 17  1  0  0  0  0
 12 10  2  6  0  0  0
 12 14  1  0  0  0  0
 12 13  1  0  0  0  0
 13  9  1  0  0  0  0
 15 19  1  6  0  0  0
 15 12  1  0  0  0  0
 15 13  1  0  0  0  0
 16 18  1  0  0  0  0
 16 11  2  0  0  0  0
 17 15  1  0  0  0  0
 18 19  2  0  0  0  0
 20 11  1  0  0  0  0
 21 26  1  0  0  0  0
 21 22  1  0  0  0  0
 22 24  1  0  0  0  0
 23 24  1  0  0  0  0
 23 20  1  0  0  0  0
 25 23  1  0  0  0  0
 26 25  1  0  0  0  0
 28 27  1  0  0  0  0
 29 32  1  0  0  0  0
 30 29  1  0  0  0  0
 31 30  2  0  0  0  0
 32 28  1  0  0  0  0
 32 33  2  0  0  0  0
 34 30  1  0  0  0  0
 35 34  1  0  0  0  0
 36 37  1  1  0  0  0
 36 35  1  0  0  0  0
 38 36  1  1  0  0  0
 39 41  1  6  0  0  0
 39 40  1  0  0  0  0
 39 38  1  0  0  0  0
 40 38  1  0  0  0  0
M  END
>  <MODEL>
2

>  <REMARK>
 VINA RESULT:      -8.2      2.738      4.048
  Name = 
  11 active torsions:
  status: ('A' for Active; 'I' for Inactive)
    1  A    between atoms: N_3  and  C_4
    2  A    between atoms: N_3  and  C_22
    3  A    between atoms: C_6  and  C_14
    4  A    between atoms: C_6  and  N_15
    5  A    between atoms: C_7  and  C_30
    6  A    between atoms: C_7  and  C_31
    7  A    between atoms: C_8  and  C_13
    8  A    between atoms: C_8  and  C_20
    9  A    between atoms: C_10  and  C_31
   10  A    between atoms: O_16  and  C_20
   11  A    between atoms: O_16  and  C_27
                            x       y       z     vdW  Elec       q    Type
                         _______ _______ _______ _____ _____    ______ ____

>  <TORSDO>
F 11

$$$$
=
 OpenBabel11062415543D

 41 45  0  0  1  0  0  0  0  0999 V2000
  183.6600  174.3510  135.4330 C   0  0  0  0  0  0  0  0  0  0  0  0
  184.0740  173.3660  134.5950 F   0  0  0  0  0  0  0  0  0  0  0  0
  184.4560  175.4000  135.6930 C   0  0  0  0  0  0  0  0  0  0  0  0
  183.9810  176.5200  136.5800 C   0  0  2  0  0  3  0  0  0  0  0  0
  182.9400  176.0180  137.5890 C   0  0  2  0  0  3  0  0  0  0  0  0
  182.4060  174.2310  136.0510 O   0  0  0  0  0  0  0  0  0  0  0  0
  181.8390  175.2770  136.8410 C   0  0  0  0  0  2  0  0  0  0  0  0
  183.4510  177.5320  135.7950 F   0  0  0  0  0  0  0  0  0  0  0  0
  182.3450  177.1590  138.3990 C   0  0  0  0  0  2  0  0  0  0  0  0
  182.1130  179.9980  138.1200 O   0  0  0  0  0  0  0  0  0  0  0  0
  183.0730  178.8040  142.9400 C   0  0  0  0  0  0  0  0  0  0  0  0
  183.1810  179.5050  139.3390 P   0  0  1  0  0  0  0  0  0  0  0  0
  183.3450  177.6890  139.3260 N   0  0  0  0  0  0  0  0  0  0  0  0
  184.5670  180.1050  139.2930 O   0  0  0  0  0  1  0  0  0  0  0  0
  182.7820  178.2230  140.5130 C   0  0  1  0  0  0  0  0  0  0  0  0
  181.7400  178.8390  143.0680 C   0  0  0  0  0  3  0  0  0  0  0  0
  183.7190  178.1880  141.7180 C   0  0  0  0  0  2  0  0  0  0  0  0
  180.8340  178.3830  141.9930 C   0  0  0  0  0  3  0  0  0  0  0  0
  181.3070  178.0690  140.7880 C   0  0  0  0  0  3  0  0  0  0  0  0
  183.8770  179.2850  144.0250 N   0  0  0  0  0  2  0  0  0  0  0  0
  186.8280  177.4530  146.4880 C   0  0  0  0  0  2  0  0  0  0  0  0
  187.0960  177.4560  144.9760 C   0  0  0  0  0  2  0  0  0  0  0  0
  184.7820  178.4680  144.8270 C   0  0  0  0  0  3  0  0  0  0  0  0
  186.1680  178.3860  144.1850 C   0  0  0  0  0  2  0  0  0  0  0  0
  184.8260  178.9630  146.2830 C   0  0  0  0  0  2  0  0  0  0  0  0
  186.1900  178.7590  146.9510 C   0  0  0  0  0  2  0  0  0  0  0  0
  185.7940  175.5190  135.0390 C   0  0  0  0  0  2  0  0  0  0  0  0
  186.4780  176.8030  135.4710 C   0  0  0  0  0  2  0  0  0  0  0  0
  188.6160  177.2080  136.8210 N   0  0  0  0  0  2  0  0  0  0  0  0
  188.0280  178.0570  137.8190 C   0  0  0  0  0  0  0  0  0  0  0  0
  186.7770  178.1510  137.9290 O   0  0  0  0  0  0  0  0  0  0  0  0
  187.9170  176.5330  135.7660 C   0  0  0  0  0  0  0  0  0  0  0  0
  188.5470  175.7280  135.0330 O   0  0  0  0  0  0  0  0  0  0  0  0
  188.8390  178.7800  138.6960 O   0  0  0  0  0  0  0  0  0  0  0  0
  189.6270  178.1510  139.7000 C   0  0  0  0  0  2  0  0  0  0  0  0
  188.7690  177.7550  140.8940 C   0  0  2  0  0  3  0  0  0  0  0  0
  187.7290  178.6750  141.0320 O   0  0  0  0  0  1  0  0  0  0  0  0
  189.6060  177.7390  142.1620 C   0  0  1  0  0  3  0  0  0  0  0  0
  189.9510  176.3070  142.5240 C   0  0  1  0  0  3  0  0  0  0  0  0
  190.9840  177.1900  141.8560 C   0  0  0  0  0  2  0  0  0  0  0  0
  190.2190  176.2360  143.8910 O   0  0  0  0  0  1  0  0  0  0  0  0
  1  3  2  0  0  0  0
  1  6  1  0  0  0  0
  2  1  1  0  0  0  0
  3  4  1  0  0  0  0
  4  8  1  6  0  0  0
  4  5  1  0  0  0  0
  5  9  1  6  0  0  0
  6  7  1  0  0  0  0
  7  5  1  0  0  0  0
  9 13  1  0  0  0  0
 11 16  2  0  0  0  0
 11 20  1  0  0  0  0
 12 10  2  6  0  0  0
 12 15  1  0  0  0  0
 13 12  1  0  0  0  0
 13 15  1  0  0  0  0
 14 12  1  0  0  0  0
 15 19  1  1  0  0  0
 15 17  1  0  0  0  0
 17 11  1  0  0  0  0
 18 16  1  0  0  0  0
 19 18  2  0  0  0  0
 20 23  1  0  0  0  0
 21 26  1  0  0  0  0
 22 21  1  0  0  0  0
 23 25  1  0  0  0  0
 24 23  1  0  0  0  0
 24 22  1  0  0  0  0
 25 26  1  0  0  0  0
 27 28  1  0  0  0  0
 27  3  1  0  0  0  0
 28 32  1  0  0  0  0
 29 30  1  0  0  0  0
 30 31  2  0  0  0  0
 30 34  1  0  0  0  0
 32 29  1  0  0  0  0
 33 32  2  0  0  0  0
 34 35  1  0  0  0  0
 35 36  1  0  0  0  0
 36 37  1  1  0  0  0
 38 36  1  6  0  0  0
 38 39  1  0  0  0  0
 39 41  1  1  0  0  0
 40 38  1  0  0  0  0
 40 39  1  0  0  0  0
M  END
>  <MODEL>
3

>  <REMARK>
 VINA RESULT:      -8.0      3.574      7.737
  Name = 
  11 active torsions:
  status: ('A' for Active; 'I' for Inactive)
    1  A    between atoms: N_3  and  C_4
    2  A    between atoms: N_3  and  C_22
    3  A    between atoms: C_6  and  C_14
    4  A    between atoms: C_6  and  N_15
    5  A    between atoms: C_7  and  C_30
    6  A    between atoms: C_7  and  C_31
    7  A    between atoms: C_8  and  C_13
    8  A    between atoms: C_8  and  C_20
    9  A    between atoms: C_10  and  C_31
   10  A    between atoms: O_16  and  C_20
   11  A    between atoms: O_16  and  C_27
                            x       y       z     vdW  Elec       q    Type
                         _______ _______ _______ _____ _____    ______ ____

>  <TORSDO>
F 11

$$$$
=
 OpenBabel11062415543D

 41 45  0  0  1  0  0  0  0  0999 V2000
  192.6060  176.9750  139.4490 C   0  0  0  0  0  0  0  0  0  0  0  0
  193.8310  177.0650  140.0290 F   0  0  0  0  0  0  0  0  0  0  0  0
  191.4940  177.1240  140.1860 C   0  0  0  0  0  0  0  0  0  0  0  0
  190.1350  177.0770  139.5390 C   0  0  2  0  0  3  0  0  0  0  0  0
  190.1610  176.2180  138.2680 C   0  0  2  0  0  3  0  0  0  0  0  0
  192.5250  176.6840  138.0790 O   0  0  0  0  0  0  0  0  0  0  0  0
  191.2890  176.7000  137.3650 C   0  0  0  0  0  2  0  0  0  0  0  0
  189.7230  178.3680  139.2480 F   0  0  0  0  0  0  0  0  0  0  0  0
  188.8350  176.2730  137.5250 C   0  0  0  0  0  2  0  0  0  0  0  0
  188.2210  177.5570  135.0420 O   0  0  0  0  0  0  0  0  0  0  0  0
  184.3670  178.1010  138.2720 C   0  0  0  0  0  0  0  0  0  0  0  0
  187.5170  178.2920  136.3970 P   0  0  1  0  0  0  0  0  0  0  0  0
  188.0900  177.4690  137.9190 N   0  0  0  0  0  0  0  0  0  0  0  0
  187.7490  179.7770  136.5460 O   0  0  0  0  0  1  0  0  0  0  0  0
  186.6950  177.3650  137.6800 C   0  0  1  0  0  0  0  0  0  0  0  0
  183.8920  177.0030  137.6710 C   0  0  0  0  0  3  0  0  0  0  0  0
  185.8390  178.2290  138.6020 C   0  0  0  0  0  2  0  0  0  0  0  0
  184.7770  175.9150  137.2060 C   0  0  0  0  0  3  0  0  0  0  0  0
  186.1010  176.0570  137.2200 C   0  0  0  0  0  3  0  0  0  0  0  0
  183.4400  179.1170  138.6740 N   0  0  0  0  0  2  0  0  0  0  0  0
  179.8160  178.9200  140.9010 C   0  0  0  0  0  2  0  0  0  0  0  0
  180.9850  178.0630  141.4080 C   0  0  0  0  0  2  0  0  0  0  0  0
  182.1500  178.8730  139.3130 C   0  0  0  0  0  3  0  0  0  0  0  0
  182.3310  178.4080  140.7590 C   0  0  0  0  0  2  0  0  0  0  0  0
  181.2330  180.1010  139.1900 C   0  0  0  0  0  2  0  0  0  0  0  0
  180.2910  180.2750  140.3860 C   0  0  0  0  0  2  0  0  0  0  0  0
  191.5850  177.4240  141.6470 C   0  0  0  0  0  2  0  0  0  0  0  0
  190.4830  176.7020  142.4010 C   0  0  0  0  0  2  0  0  0  0  0  0
  190.0400  176.9110  144.9140 N   0  0  0  0  0  2  0  0  0  0  0  0
  188.6760  177.3480  144.8100 C   0  0  0  0  0  0  0  0  0  0  0  0
  188.0540  177.2650  143.7180 O   0  0  0  0  0  0  0  0  0  0  0  0
  190.8870  176.5160  143.8260 C   0  0  0  0  0  0  0  0  0  0  0  0
  192.0260  176.0450  144.0790 O   0  0  0  0  0  0  0  0  0  0  0  0
  188.0110  177.8550  145.9290 O   0  0  0  0  0  0  0  0  0  0  0  0
  186.6220  177.6420  146.1520 C   0  0  0  0  0  2  0  0  0  0  0  0
  185.8420  178.9390  145.9870 C   0  0  2  0  0  3  0  0  0  0  0  0
  185.6500  179.5180  147.2410 O   0  0  0  0  0  1  0  0  0  0  0  0
  184.4930  178.6640  145.3420 C   0  0  1  0  0  3  0  0  0  0  0  0
  184.2540  179.6590  144.2220 C   0  0  1  0  0  3  0  0  0  0  0  0
  184.6940  178.2470  143.9000 C   0  0  0  0  0  2  0  0  0  0  0  0
  182.8810  179.7760  144.0040 O   0  0  0  0  0  1  0  0  0  0  0  0
  1  2  1  0  0  0  0
  1  3  2  0  0  0  0
  3 27  1  0  0  0  0
  4  8  1  6  0  0  0
  4  3  1  0  0  0  0
  5  9  1  6  0  0  0
  5  4  1  0  0  0  0
  6  1  1  0  0  0  0
  7  6  1  0  0  0  0
  7  5  1  0  0  0  0
  9 13  1  0  0  0  0
 11 17  1  0  0  0  0
 11 20  1  0  0  0  0
 12 10  2  6  0  0  0
 12 14  1  0  0  0  0
 12 15  1  0  0  0  0
 12 13  1  0  0  0  0
 15 19  1  6  0  0  0
 15 13  1  0  0  0  0
 15 17  1  0  0  0  0
 16 11  2  0  0  0  0
 18 19  2  0  0  0  0
 18 16  1  0  0  0  0
 20 23  1  0  0  0  0
 21 22  1  0  0  0  0
 23 24  1  0  0  0  0
 24 22  1  0  0  0  0
 25 23  1  0  0  0  0
 25 26  1  0  0  0  0
 26 21  1  0  0  0  0
 27 28  1  0  0  0  0
 28 32  1  0  0  0  0
 30 29  1  0  0  0  0
 30 34  1  0  0  0  0
 31 30  2  0  0  0  0
 32 33  2  0  0  0  0
 32 29  1  0  0  0  0
 34 35  1  0  0  0  0
 36 35  1  0  0  0  0
 36 37  1  1  0  0  0
 38 36  1  1  0  0  0
 39 41  1  6  0  0  0
 39 38  1  0  0  0  0
 40 39  1  0  0  0  0
 40 38  1  0  0  0  0
M  END
>  <MODEL>
4

>  <REMARK>
 VINA RESULT:      -8.0      2.872      6.541
  Name = 
  11 active torsions:
  status: ('A' for Active; 'I' for Inactive)
    1  A    between atoms: N_3  and  C_4
    2  A    between atoms: N_3  and  C_22
    3  A    between atoms: C_6  and  C_14
    4  A    between atoms: C_6  and  N_15
    5  A    between atoms: C_7  and  C_30
    6  A    between atoms: C_7  and  C_31
    7  A    between atoms: C_8  and  C_13
    8  A    between atoms: C_8  and  C_20
    9  A    between atoms: C_10  and  C_31
   10  A    between atoms: O_16  and  C_20
   11  A    between atoms: O_16  and  C_27
                            x       y       z     vdW  Elec       q    Type
                         _______ _______ _______ _____ _____    ______ ____

>  <TORSDO>
F 11

$$$$
=
 OpenBabel11062415543D

 41 45  0  0  1  0  0  0  0  0999 V2000
  190.7450  176.7610  143.5740 C   0  0  0  0  0  0  0  0  0  0  0  0
  191.0920  176.3730  144.8280 F   0  0  0  0  0  0  0  0  0  0  0  0
  189.4550  176.9500  143.2550 C   0  0  0  0  0  0  0  0  0  0  0  0
  189.0680  177.4310  141.8820 C   0  0  2  0  0  3  0  0  0  0  0  0
  190.1120  177.0100  140.8380 C   0  0  2  0  0  3  0  0  0  0  0  0
  191.7530  176.9200  142.6110 O   0  0  0  0  0  0  0  0  0  0  0  0
  191.4920  177.4490  141.3100 C   0  0  0  0  0  2  0  0  0  0  0  0
  188.9270  178.8090  141.9020 F   0  0  0  0  0  0  0  0  0  0  0  0
  189.8120  177.6050  139.4720 C   0  0  0  0  0  2  0  0  0  0  0  0
  189.0170  179.6010  137.5810 O   0  0  0  0  0  0  0  0  0  0  0  0
  187.5060  175.0350  136.0160 C   0  0  0  0  0  0  0  0  0  0  0  0
  187.9660  178.2770  137.6760 P   0  0  1  0  0  0  0  0  0  0  0  0
  188.5040  177.1480  139.0030 N   0  0  0  0  0  0  0  0  0  0  0  0
  186.5060  178.5990  137.8930 O   0  0  0  0  0  1  0  0  0  0  0  0
  188.5380  176.5880  137.7000 C   0  0  1  0  0  0  0  0  0  0  0  0
  188.6610  175.0400  135.3370 C   0  0  0  0  0  3  0  0  0  0  0  0
  187.4350  175.5670  137.4310 C   0  0  0  0  0  2  0  0  0  0  0  0
  189.8910  175.6520  135.8820 C   0  0  0  0  0  3  0  0  0  0  0  0
  189.8590  176.3690  137.0050 C   0  0  0  0  0  3  0  0  0  0  0  0
  186.3560  174.4380  135.4030 N   0  0  0  0  0  2  0  0  0  0  0  0
  183.5050  171.5990  136.7960 C   0  0  0  0  0  2  0  0  0  0  0  0
  182.9620  172.9730  136.3760 C   0  0  0  0  0  2  0  0  0  0  0  0
  185.4050  173.5600  136.0790 C   0  0  0  0  0  3  0  0  0  0  0  0
  183.9750  173.8280  135.6050 C   0  0  0  0  0  2  0  0  0  0  0  0
  185.8170  172.0850  135.9320 C   0  0  0  0  0  2  0  0  0  0  0  0
  184.6230  171.1270  135.8730 C   0  0  0  0  0  2  0  0  0  0  0  0
  188.3840  176.7700  144.2810 C   0  0  0  0  0  2  0  0  0  0  0  0
  187.1150  177.4810  143.8480 C   0  0  0  0  0  2  0  0  0  0  0  0
  185.0560  178.5340  144.9460 N   0  0  0  0  0  2  0  0  0  0  0  0
  184.2590  178.6300  143.7570 C   0  0  0  0  0  0  0  0  0  0  0  0
  184.5960  178.0250  142.7050 O   0  0  0  0  0  0  0  0  0  0  0  0
  186.3510  177.9260  145.0510 C   0  0  0  0  0  0  0  0  0  0  0  0
  186.8830  177.8120  146.1860 O   0  0  0  0  0  0  0  0  0  0  0  0
  183.0840  179.3850  143.7540 O   0  0  0  0  0  0  0  0  0  0  0  0
  181.7930  178.7870  143.7760 C   0  0  0  0  0  2  0  0  0  0  0  0
  180.8410  179.5180  142.8390 C   0  0  2  0  0  3  0  0  0  0  0  0
  179.6570  179.7970  143.5210 O   0  0  0  0  0  1  0  0  0  0  0  0
  180.5370  178.6600  141.6220 C   0  0  1  0  0  3  0  0  0  0  0  0
  180.5860  179.5180  140.3720 C   0  0  1  0  0  3  0  0  0  0  0  0
  181.7510  178.6140  140.7160 C   0  0  0  0  0  2  0  0  0  0  0  0
  179.8130  178.9170  139.3790 O   0  0  0  0  0  1  0  0  0  0  0  0
  1  2  1  0  0  0  0
  3  1  2  0  0  0  0
  3 27  1  0  0  0  0
  4  8  1  1  0  0  0
  4  3  1  0  0  0  0
  5  9  1  6  0  0  0
  5  7  1  0  0  0  0
  5  4  1  0  0  0  0
  6  1  1  0  0  0  0
  7  6  1  0  0  0  0
 11 17  1  0  0  0  0
 12 10  2  6  0  0  0
 12 15  1  0  0  0  0
 12 14  1  0  0  0  0
 12 13  1  0  0  0  0
 13  9  1  0  0  0  0
 15 19  1  6  0  0  0
 15 13  1  0  0  0  0
 16 18  1  0  0  0  0
 16 11  2  0  0  0  0
 17 15  1  0  0  0  0
 18 19  2  0  0  0  0
 20 11  1  0  0  0  0
 20 23  1  0  0  0  0
 22 21  1  0  0  0  0
 24 23  1  0  0  0  0
 24 22  1  0  0  0  0
 25 23  1  0  0  0  0
 26 25  1  0  0  0  0
 26 21  1  0  0  0  0
 28 27  1  0  0  0  0
 28 32  1  0  0  0  0
 29 32  1  0  0  0  0
 30 29  1  0  0  0  0
 31 30  2  0  0  0  0
 32 33  2  0  0  0  0
 34 30  1  0  0  0  0
 34 35  1  0  0  0  0
 36 37  1  1  0  0  0
 36 35  1  0  0  0  0
 38 36  1  1  0  0  0
 39 41  1  6  0  0  0
 39 40  1  0  0  0  0
 39 38  1  0  0  0  0
 40 38  1  0  0  0  0
M  END
>  <MODEL>
5

>  <REMARK>
 VINA RESULT:      -7.9      3.466      7.481
  Name = 
  11 active torsions:
  status: ('A' for Active; 'I' for Inactive)
    1  A    between atoms: N_3  and  C_4
    2  A    between atoms: N_3  and  C_22
    3  A    between atoms: C_6  and  C_14
    4  A    between atoms: C_6  and  N_15
    5  A    between atoms: C_7  and  C_30
    6  A    between atoms: C_7  and  C_31
    7  A    between atoms: C_8  and  C_13
    8  A    between atoms: C_8  and  C_20
    9  A    between atoms: C_10  and  C_31
   10  A    between atoms: O_16  and  C_20
   11  A    between atoms: O_16  and  C_27
                            x       y       z     vdW  Elec       q    Type
                         _______ _______ _______ _____ _____    ______ ____

>  <TORSDO>
F 11

$$$$
=
 OpenBabel11062415543D

 41 45  0  0  1  0  0  0  0  0999 V2000
  192.6760  176.8460  139.3650 C   0  0  0  0  0  0  0  0  0  0  0  0
  193.8790  176.9130  139.9920 F   0  0  0  0  0  0  0  0  0  0  0  0
  191.5440  177.1030  140.0390 C   0  0  0  0  0  0  0  0  0  0  0  0
  190.2130  177.0810  139.3370 C   0  0  2  0  0  3  0  0  0  0  0  0
  190.2440  176.1340  138.1290 C   0  0  2  0  0  3  0  0  0  0  0  0
  192.6370  176.4640  138.0160 O   0  0  0  0  0  0  0  0  0  0  0  0
  191.4330  176.4930  137.2470 C   0  0  0  0  0  2  0  0  0  0  0  0
  189.8840  178.3670  138.9400 F   0  0  0  0  0  0  0  0  0  0  0  0
  188.9560  176.2050  137.3260 C   0  0  0  0  0  2  0  0  0  0  0  0
  188.3930  177.8360  135.0420 O   0  0  0  0  0  0  0  0  0  0  0  0
  184.3210  177.5770  138.0300 C   0  0  0  0  0  0  0  0  0  0  0  0
  187.5530  178.2870  136.4420 P   0  0  1  0  0  0  0  0  0  0  0  0
  188.0960  177.2660  137.8510 N   0  0  0  0  0  0  0  0  0  0  0  0
  187.6580  179.7400  136.8430 O   0  0  0  0  0  1  0  0  0  0  0  0
  186.7310  177.1080  137.4980 C   0  0  1  0  0  0  0  0  0  0  0  0
  183.9700  176.5630  137.2280 C   0  0  0  0  0  3  0  0  0  0  0  0
  185.7550  177.7490  138.4810 C   0  0  0  0  0  2  0  0  0  0  0  0
  184.9650  175.6290  136.6600 C   0  0  0  0  0  3  0  0  0  0  0  0
  186.2710  175.8560  136.7920 C   0  0  0  0  0  3  0  0  0  0  0  0
  183.2930  178.4470  138.5200 N   0  0  0  0  0  2  0  0  0  0  0  0
  181.1680  178.6280  142.2050 C   0  0  0  0  0  2  0  0  0  0  0  0
  182.7010  178.6850  142.2890 C   0  0  0  0  0  2  0  0  0  0  0  0
  182.5950  178.2900  139.7920 C   0  0  0  0  0  3  0  0  0  0  0  0
  183.3850  178.9250  140.9370 C   0  0  0  0  0  2  0  0  0  0  0  0
  181.1520  178.8160  139.6970 C   0  0  0  0  0  2  0  0  0  0  0  0
  180.6380  179.4130  141.0110 C   0  0  0  0  0  2  0  0  0  0  0  0
  191.5910  177.5000  141.4790 C   0  0  0  0  0  2  0  0  0  0  0  0
  190.5660  176.7130  142.2750 C   0  0  0  0  0  2  0  0  0  0  0  0
  189.5420  177.8080  144.3500 N   0  0  0  0  0  2  0  0  0  0  0  0
  190.4660  177.2630  145.3040 C   0  0  0  0  0  0  0  0  0  0  0  0
  191.5310  176.7070  144.9240 O   0  0  0  0  0  0  0  0  0  0  0  0
  189.6040  177.6510  142.9260 C   0  0  0  0  0  0  0  0  0  0  0  0
  188.7900  178.2840  142.2050 O   0  0  0  0  0  0  0  0  0  0  0  0
  190.2050  177.3580  146.6720 O   0  0  0  0  0  0  0  0  0  0  0  0
  189.0450  176.7920  147.2690 C   0  0  0  0  0  2  0  0  0  0  0  0
  188.0510  177.8770  147.6580 C   0  0  2  0  0  3  0  0  0  0  0  0
  187.9310  177.9080  149.0480 O   0  0  0  0  0  1  0  0  0  0  0  0
  186.6920  177.5940  147.0370 C   0  0  1  0  0  3  0  0  0  0  0  0
  185.9430  178.8980  146.8420 C   0  0  1  0  0  3  0  0  0  0  0  0
  186.6180  178.2290  145.6640 C   0  0  0  0  0  2  0  0  0  0  0  0
  184.5740  178.6340  146.8000 O   0  0  0  0  0  1  0  0  0  0  0  0
  1  2  1  0  0  0  0
  1  3  2  0  0  0  0
  3 27  1  0  0  0  0
  4  8  1  6  0  0  0
  4  3  1  0  0  0  0
  5  9  1  6  0  0  0
  5  4  1  0  0  0  0
  6  1  1  0  0  0  0
  7  6  1  0  0  0  0
  7  5  1  0  0  0  0
  9 13  1  0  0  0  0
 11 17  1  0  0  0  0
 11 20  1  0  0  0  0
 12 10  2  6  0  0  0
 12 14  1  0  0  0  0
 12 15  1  0  0  0  0
 12 13  1  0  0  0  0
 15 19  1  6  0  0  0
 15 13  1  0  0  0  0
 15 17  1  0  0  0  0
 16 11  2  0  0  0  0
 18 19  2  0  0  0  0
 18 16  1  0  0  0  0
 20 23  1  0  0  0  0
 21 22  1  0  0  0  0
 23 24  1  0  0  0  0
 24 22  1  0  0  0  0
 25 23  1  0  0  0  0
 25 26  1  0  0  0  0
 26 21  1  0  0  0  0
 27 28  1  0  0  0  0
 28 32  1  0  0  0  0
 29 30  1  0  0  0  0
 30 34  1  0  0  0  0
 31 30  2  0  0  0  0
 32 29  1  0  0  0  0
 33 32  2  0  0  0  0
 34 35  1  0  0  0  0
 35 36  1  0  0  0  0
 36 37  1  1  0  0  0
 38 36  1  1  0  0  0
 39 41  1  6  0  0  0
 39 38  1  0  0  0  0
 40 39  1  0  0  0  0
 40 38  1  0  0  0  0
M  END
>  <MODEL>
6

>  <REMARK>
 VINA RESULT:      -7.8      3.036      6.905
  Name = 
  11 active torsions:
  status: ('A' for Active; 'I' for Inactive)
    1  A    between atoms: N_3  and  C_4
    2  A    between atoms: N_3  and  C_22
    3  A    between atoms: C_6  and  C_14
    4  A    between atoms: C_6  and  N_15
    5  A    between atoms: C_7  and  C_30
    6  A    between atoms: C_7  and  C_31
    7  A    between atoms: C_8  and  C_13
    8  A    between atoms: C_8  and  C_20
    9  A    between atoms: C_10  and  C_31
   10  A    between atoms: O_16  and  C_20
   11  A    between atoms: O_16  and  C_27
                            x       y       z     vdW  Elec       q    Type
                         _______ _______ _______ _____ _____    ______ ____

>  <TORSDO>
F 11

$$$$
=
 OpenBabel11062415543D

 41 45  0  0  1  0  0  0  0  0999 V2000
  180.1370  178.2910  143.4340 C   0  0  0  0  0  0  0  0  0  0  0  0
  179.6630  178.0910  144.6900 F   0  0  0  0  0  0  0  0  0  0  0  0
  181.3860  178.7460  143.2440 C   0  0  0  0  0  0  0  0  0  0  0  0
  181.9350  178.9200  141.8530 C   0  0  2  0  0  3  0  0  0  0  0  0
  180.8070  179.1910  140.8480 C   0  0  2  0  0  3  0  0  0  0  0  0
  179.2870  178.0520  142.3440 O   0  0  0  0  0  0  0  0  0  0  0  0
  179.7420  178.1120  140.9910 C   0  0  0  0  0  2  0  0  0  0  0  0
  182.6430  177.7840  141.4960 F   0  0  0  0  0  0  0  0  0  0  0  0
  181.3250  179.2300  139.4190 C   0  0  0  0  0  2  0  0  0  0  0  0
  181.1610  179.7090  136.6020 O   0  0  0  0  0  1  0  0  0  0  0  0
  184.0250  175.6390  137.5020 C   0  0  0  0  0  0  0  0  0  0  0  0
  181.3220  178.0750  137.0210 P   0  0  1  0  0  0  0  0  0  0  0  0
  181.2790  177.8900  138.8340 N   0  0  0  0  0  0  0  0  0  0  0  0
  180.3050  177.1310  136.4240 O   0  0  0  0  0  0  0  0  0  0  0  0
  182.5020  177.4990  138.2290 C   0  0  1  0  0  0  0  0  0  0  0  0
  185.0370  176.5160  137.4590 C   0  0  0  0  0  3  0  0  0  0  0  0
  182.7240  175.9900  138.1910 C   0  0  0  0  0  2  0  0  0  0  0  0
  184.9080  177.8920  137.9800 C   0  0  0  0  0  3  0  0  0  0  0  0
  183.7260  178.3700  138.3660 C   0  0  0  0  0  3  0  0  0  0  0  0
  184.2310  174.3300  136.9560 N   0  0  0  0  0  2  0  0  0  0  0  0
  181.6220  171.0360  136.2670 C   0  0  0  0  0  2  0  0  0  0  0  0
  181.2350  172.3710  135.6140 C   0  0  0  0  0  2  0  0  0  0  0  0
  183.2220  173.2780  136.8920 C   0  0  0  0  0  3  0  0  0  0  0  0
  182.3550  173.4190  135.6400 C   0  0  0  0  0  2  0  0  0  0  0  0
  183.8670  171.8870  137.0180 C   0  0  0  0  0  2  0  0  0  0  0  0
  183.1290  170.8030  136.2260 C   0  0  0  0  0  2  0  0  0  0  0  0
  182.2840  179.0080  144.4090 C   0  0  0  0  0  2  0  0  0  0  0  0
  183.6820  179.3540  143.9280 C   0  0  0  0  0  2  0  0  0  0  0  0
  185.9090  178.1640  144.3490 N   0  0  0  0  0  2  0  0  0  0  0  0
  186.4000  178.2410  143.0020 C   0  0  0  0  0  0  0  0  0  0  0  0
  185.8430  178.9880  142.1550 O   0  0  0  0  0  0  0  0  0  0  0  0
  184.6940  178.7450  144.8410 C   0  0  0  0  0  0  0  0  0  0  0  0
  184.4480  178.6960  146.0740 O   0  0  0  0  0  0  0  0  0  0  0  0
  187.5180  177.5000  142.6160 O   0  0  0  0  0  0  0  0  0  0  0  0
  188.1170  176.5250  143.4620 C   0  0  0  0  0  2  0  0  0  0  0  0
  189.6360  176.6070  143.3930 C   0  0  2  0  0  3  0  0  0  0  0  0
  190.1060  175.6320  142.5140 O   0  0  0  0  0  1  0  0  0  0  0  0
  190.2380  176.3820  144.7710 C   0  0  1  0  0  3  0  0  0  0  0  0
  191.0100  177.6160  145.1950 C   0  0  1  0  0  3  0  0  0  0  0  0
  189.6300  177.3550  145.7580 C   0  0  0  0  0  2  0  0  0  0  0  0
  191.9700  177.2500  146.1380 O   0  0  0  0  0  1  0  0  0  0  0  0
  1  2  1  0  0  0  0
  3  1  2  0  0  0  0
  3 27  1  0  0  0  0
  4  8  1  6  0  0  0
  4  3  1  0  0  0  0
  5  9  1  6  0  0  0
  5  7  1  0  0  0  0
  5  4  1  0  0  0  0
  6  1  1  0  0  0  0
  7  6  1  0  0  0  0
 10 12  1  0  0  0  0
 11 17  1  0  0  0  0
 12 14  2  6  0  0  0
 12 15  1  0  0  0  0
 12 13  1  0  0  0  0
 13  9  1  0  0  0  0
 15 17  1  6  0  0  0
 15 19  1  0  0  0  0
 15 13  1  0  0  0  0
 16 11  2  0  0  0  0
 16 18  1  0  0  0  0
 18 19  2  0  0  0  0
 20 11  1  0  0  0  0
 22 24  1  0  0  0  0
 22 21  1  0  0  0  0
 23 20  1  0  0  0  0
 23 25  1  0  0  0  0
 24 23  1  0  0  0  0
 26 21  1  0  0  0  0
 26 25  1  0  0  0  0
 28 27  1  0  0  0  0
 28 32  1  0  0  0  0
 29 32  1  0  0  0  0
 30 29  1  0  0  0  0
 31 30  2  0  0  0  0
 32 33  2  0  0  0  0
 34 30  1  0  0  0  0
 34 35  1  0  0  0  0
 36 37  1  6  0  0  0
 36 35  1  0  0  0  0
 38 36  1  6  0  0  0
 38 39  1  0  0  0  0
 38 40  1  0  0  0  0
 39 40  1  0  0  0  0
 39 41  1  1  0  0  0
M  END
>  <MODEL>
7

>  <REMARK>
 VINA RESULT:      -7.8      3.559      6.106
  Name = 
  11 active torsions:
  status: ('A' for Active; 'I' for Inactive)
    1  A    between atoms: N_3  and  C_4
    2  A    between atoms: N_3  and  C_22
    3  A    between atoms: C_6  and  C_14
    4  A    between atoms: C_6  and  N_15
    5  A    between atoms: C_7  and  C_30
    6  A    between atoms: C_7  and  C_31
    7  A    between atoms: C_8  and  C_13
    8  A    between atoms: C_8  and  C_20
    9  A    between atoms: C_10  and  C_31
   10  A    between atoms: O_16  and  C_20
   11  A    between atoms: O_16  and  C_27
                            x       y       z     vdW  Elec       q    Type
                         _______ _______ _______ _____ _____    ______ ____

>  <TORSDO>
F 11

$$$$
=
 OpenBabel11062415543D

 41 45  0  0  1  0  0  0  0  0999 V2000
  180.8630  174.8430  137.6020 C   0  0  0  0  0  0  0  0  0  0  0  0
  180.3780  173.8800  136.7760 F   0  0  0  0  0  0  0  0  0  0  0  0
  182.1050  175.3230  137.4270 C   0  0  0  0  0  0  0  0  0  0  0  0
  182.6290  176.4280  138.3060 C   0  0  2  0  0  3  0  0  0  0  0  0
  181.9520  176.4020  139.6830 C   0  0  2  0  0  3  0  0  0  0  0  0
  180.0620  175.2940  138.6610 O   0  0  0  0  0  0  0  0  0  0  0  0
  180.4400  176.3900  139.4940 C   0  0  0  0  0  2  0  0  0  0  0  0
  182.4200  177.6470  137.6820 F   0  0  0  0  0  0  0  0  0  0  0  0
  182.3640  177.5910  140.5340 C   0  0  0  0  0  2  0  0  0  0  0  0
  183.4400  180.1070  139.6930 O   0  0  0  0  0  0  0  0  0  0  0  0
  185.7120  178.5880  143.9490 C   0  0  0  0  0  0  0  0  0  0  0  0
  184.5460  179.1160  140.5090 P   0  0  1  0  0  0  0  0  0  0  0  0
  183.7850  177.4990  140.8700 N   0  0  0  0  0  0  0  0  0  0  0  0
  185.8640  178.8730  139.8110 O   0  0  0  0  0  1  0  0  0  0  0  0
  184.1420  178.2540  142.0170 C   0  0  1  0  0  0  0  0  0  0  0  0
  184.7780  179.3370  144.5490 C   0  0  0  0  0  3  0  0  0  0  0  0
  185.3630  177.7190  142.7590 C   0  0  0  0  0  2  0  0  0  0  0  0
  183.3990  179.4400  144.0290 C   0  0  0  0  0  3  0  0  0  0  0  0
  183.0720  178.9200  142.8470 C   0  0  0  0  0  3  0  0  0  0  0  0
  187.0310  178.5600  144.5100 N   0  0  0  0  0  2  0  0  0  0  0  0
  188.4390  176.7540  148.1000 C   0  0  0  0  0  2  0  0  0  0  0  0
  189.4030  176.7560  146.9040 C   0  0  0  0  0  2  0  0  0  0  0  0
  187.4410  177.7510  145.6530 C   0  0  0  0  0  3  0  0  0  0  0  0
  188.9660  177.6780  145.7580 C   0  0  0  0  0  2  0  0  0  0  0  0
  186.7760  178.2490  146.9480 C   0  0  0  0  0  2  0  0  0  0  0  0
  187.6500  178.0560  148.1910 C   0  0  0  0  0  2  0  0  0  0  0  0
  182.9580  174.8330  136.3030 C   0  0  0  0  0  2  0  0  0  0  0  0
  184.4200  175.1280  136.5850 C   0  0  0  0  0  2  0  0  0  0  0  0
  186.2930  176.5770  135.6120 N   0  0  0  0  0  2  0  0  0  0  0  0
  187.3380  176.1080  136.4790 C   0  0  0  0  0  0  0  0  0  0  0  0
  187.1740  175.0810  137.1890 O   0  0  0  0  0  0  0  0  0  0  0  0
  184.9470  176.0850  135.5680 C   0  0  0  0  0  0  0  0  0  0  0  0
  184.1690  176.5120  134.6760 O   0  0  0  0  0  0  0  0  0  0  0  0
  188.5620  176.7770  136.5320 O   0  0  0  0  0  0  0  0  0  0  0  0
  189.3260  176.8770  137.7280 C   0  0  0  0  0  2  0  0  0  0  0  0
  188.7650  177.9600  138.6400 C   0  0  2  0  0  3  0  0  0  0  0  0
  188.7010  179.1610  137.9350 O   0  0  0  0  0  1  0  0  0  0  0  0
  189.6550  178.1340  139.8600 C   0  0  1  0  0  3  0  0  0  0  0  0
  189.0720  177.3620  141.0280 C   0  0  1  0  0  3  0  0  0  0  0  0
  190.2440  176.7950  140.2560 C   0  0  0  0  0  2  0  0  0  0  0  0
  189.5320  177.9240  142.2190 O   0  0  0  0  0  1  0  0  0  0  0  0
  1  6  1  0  0  0  0
  2  1  1  0  0  0  0
  3  1  2  0  0  0  0
  3  4  1  0  0  0  0
  4  8  1  6  0  0  0
  4  5  1  0  0  0  0
  5  9  1  1  0  0  0
  6  7  1  0  0  0  0
  7  5  1  0  0  0  0
  9 13  1  0  0  0  0
 11 20  1  0  0  0  0
 11 16  2  0  0  0  0
 12 10  2  6  0  0  0
 12 13  1  0  0  0  0
 12 15  1  0  0  0  0
 13 15  1  0  0  0  0
 14 12  1  0  0  0  0
 15 17  1  1  0  0  0
 15 19  1  0  0  0  0
 17 11  1  0  0  0  0
 18 16  1  0  0  0  0
 19 18  2  0  0  0  0
 20 23  1  0  0  0  0
 21 26  1  0  0  0  0
 22 21  1  0  0  0  0
 23 24  1  0  0  0  0
 23 25  1  0  0  0  0
 24 22  1  0  0  0  0
 25 26  1  0  0  0  0
 27 28  1  0  0  0  0
 27  3  1  0  0  0  0
 29 30  1  0  0  0  0
 30 34  1  0  0  0  0
 30 31  2  0  0  0  0
 32 29  1  0  0  0  0
 32 28  1  0  0  0  0
 33 32  2  0  0  0  0
 34 35  1  0  0  0  0
 35 36  1  0  0  0  0
 36 37  1  6  0  0  0
 38 36  1  6  0  0  0
 38 40  1  0  0  0  0
 38 39  1  0  0  0  0
 39 41  1  1  0  0  0
 40 39  1  0  0  0  0
M  END
>  <MODEL>
8

>  <REMARK>
 VINA RESULT:      -7.7      3.337      8.243
  Name = 
  11 active torsions:
  status: ('A' for Active; 'I' for Inactive)
    1  A    between atoms: N_3  and  C_4
    2  A    between atoms: N_3  and  C_22
    3  A    between atoms: C_6  and  C_14
    4  A    between atoms: C_6  and  N_15
    5  A    between atoms: C_7  and  C_30
    6  A    between atoms: C_7  and  C_31
    7  A    between atoms: C_8  and  C_13
    8  A    between atoms: C_8  and  C_20
    9  A    between atoms: C_10  and  C_31
   10  A    between atoms: O_16  and  C_20
   11  A    between atoms: O_16  and  C_27
                            x       y       z     vdW  Elec       q    Type
                         _______ _______ _______ _____ _____    ______ ____

>  <TORSDO>
F 11

$$$$
=
 OpenBabel11062415543D

 41 45  0  0  1  0  0  0  0  0999 V2000
  191.2540  176.6600  144.8700 C   0  0  0  0  0  0  0  0  0  0  0  0
  191.6230  176.1590  146.0770 F   0  0  0  0  0  0  0  0  0  0  0  0
  190.3420  177.6420  144.7940 C   0  0  0  0  0  0  0  0  0  0  0  0
  189.9670  178.2370  143.4620 C   0  0  2  0  0  3  0  0  0  0  0  0
  190.1660  177.2190  142.3310 C   0  0  2  0  0  3  0  0  0  0  0  0
  191.8110  176.1060  143.7080 O   0  0  0  0  0  0  0  0  0  0  0  0
  191.5780  176.6550  142.4110 C   0  0  0  0  0  2  0  0  0  0  0  0
  190.7310  179.3710  143.2370 F   0  0  0  0  0  0  0  0  0  0  0  0
  189.9280  177.8430  140.9650 C   0  0  0  0  0  2  0  0  0  0  0  0
  189.0570  179.3770  138.7110 O   0  0  0  0  0  1  0  0  0  0  0  0
  190.9710  174.9580  137.1640 C   0  0  0  0  0  0  0  0  0  0  0  0
  188.9310  177.7000  138.5010 P   0  0  1  0  0  0  0  0  0  0  0  0
  189.3840  176.8440  140.0460 N   0  0  0  0  0  0  0  0  0  0  0  0
  187.5830  177.1850  138.0530 O   0  0  0  0  0  0  0  0  0  0  0  0
  190.2370  176.5700  138.9450 C   0  0  1  0  0  0  0  0  0  0  0  0
  192.1080  175.6560  137.0330 C   0  0  0  0  0  3  0  0  0  0  0  0
  190.0610  175.1740  138.3540 C   0  0  0  0  0  2  0  0  0  0  0  0
  192.4800  176.7350  137.9720 C   0  0  0  0  0  3  0  0  0  0  0  0
  191.6210  177.1680  138.8930 C   0  0  0  0  0  3  0  0  0  0  0  0
  190.6790  173.9420  136.1970 N   0  0  0  0  0  2  0  0  0  0  0  0
  186.6440  173.6860  134.8580 C   0  0  0  0  0  2  0  0  0  0  0  0
  187.1180  172.5990  135.8340 C   0  0  0  0  0  2  0  0  0  0  0  0
  189.3740  173.7180  135.5820 C   0  0  0  0  0  3  0  0  0  0  0  0
  188.4580  172.9160  136.5090 C   0  0  0  0  0  2  0  0  0  0  0  0
  188.7450  175.0450  135.1230 C   0  0  0  0  0  2  0  0  0  0  0  0
  187.2160  175.0540  135.2160 C   0  0  0  0  0  2  0  0  0  0  0  0
  189.7440  178.2230  146.0340 C   0  0  0  0  0  2  0  0  0  0  0  0
  188.9050  177.1810  146.7510 C   0  0  0  0  0  2  0  0  0  0  0  0
  186.7540  178.2580  147.6270 N   0  0  0  0  0  2  0  0  0  0  0  0
  185.9410  177.9710  146.4790 C   0  0  0  0  0  0  0  0  0  0  0  0
  186.3320  177.1590  145.5990 O   0  0  0  0  0  0  0  0  0  0  0  0
  188.1080  177.8330  147.8320 C   0  0  0  0  0  0  0  0  0  0  0  0
  188.6600  178.0620  148.9400 O   0  0  0  0  0  0  0  0  0  0  0  0
  184.6910  178.5750  146.3320 O   0  0  0  0  0  0  0  0  0  0  0  0
  183.9270  178.4670  145.1360 C   0  0  0  0  0  2  0  0  0  0  0  0
  184.4320  179.4410  144.0810 C   0  0  2  0  0  3  0  0  0  0  0  0
  183.5370  180.5060  143.9770 O   0  0  0  0  0  1  0  0  0  0  0  0
  184.5510  178.7440  142.7350 C   0  0  1  0  0  3  0  0  0  0  0  0
  185.6680  179.3800  141.9310 C   0  0  1  0  0  3  0  0  0  0  0  0
  185.8980  178.0590  142.6330 C   0  0  0  0  0  2  0  0  0  0  0  0
  185.4410  179.1490  140.5740 O   0  0  0  0  0  1  0  0  0  0  0  0
  1  2  1  0  0  0  0
  3  1  2  0  0  0  0
  3 27  1  0  0  0  0
  4  8  1  6  0  0  0
  4  3  1  0  0  0  0
  5  9  1  6  0  0  0
  5  7  1  0  0  0  0
  5  4  1  0  0  0  0
  6  1  1  0  0  0  0
  7  6  1  0  0  0  0
 11 17  1  0  0  0  0
 12 14  2  6  0  0  0
 12 10  1  0  0  0  0
 12 15  1  0  0  0  0
 12 13  1  0  0  0  0
 13  9  1  0  0  0  0
 15 17  1  6  0  0  0
 15 13  1  0  0  0  0
 16 11  2  0  0  0  0
 16 18  1  0  0  0  0
 18 19  2  0  0  0  0
 19 15  1  0  0  0  0
 20 11  1  0  0  0  0
 21 26  1  0  0  0  0
 21 22  1  0  0  0  0
 22 24  1  0  0  0  0
 23 20  1  0  0  0  0
 23 24  1  0  0  0  0
 25 26  1  0  0  0  0
 25 23  1  0  0  0  0
 27 28  1  0  0  0  0
 28 32  1  0  0  0  0
 29 32  1  0  0  0  0
 30 29  1  0  0  0  0
 31 30  2  0  0  0  0
 32 33  2  0  0  0  0
 34 30  1  0  0  0  0
 35 34  1  0  0  0  0
 36 37  1  6  0  0  0
 36 35  1  0  0  0  0
 38 36  1  1  0  0  0
 39 41  1  6  0  0  0
 39 40  1  0  0  0  0
 39 38  1  0  0  0  0
 40 38  1  0  0  0  0
M  END
>  <MODEL>
9

>  <REMARK>
 VINA RESULT:      -7.7      4.505      7.736
  Name = 
  11 active torsions:
  status: ('A' for Active; 'I' for Inactive)
    1  A    between atoms: N_3  and  C_4
    2  A    between atoms: N_3  and  C_22
    3  A    between atoms: C_6  and  C_14
    4  A    between atoms: C_6  and  N_15
    5  A    between atoms: C_7  and  C_30
    6  A    between atoms: C_7  and  C_31
    7  A    between atoms: C_8  and  C_13
    8  A    between atoms: C_8  and  C_20
    9  A    between atoms: C_10  and  C_31
   10  A    between atoms: O_16  and  C_20
   11  A    between atoms: O_16  and  C_27
                            x       y       z     vdW  Elec       q    Type
                         _______ _______ _______ _____ _____    ______ ____

>  <TORSDO>
F 11

$$$$
