=
 OpenBabel11062416193D

 29 32  0  0  1  0  0  0  0  0999 V2000
  190.0980  177.9360  143.4130 C   0  0  2  0  0  3  0  0  0  0  0  0
  188.0820  176.2590  143.3820 S   0  0  0  0  0  0  0  0  0  0  0  0
  189.3750  177.3110  141.1250 C   0  0  0  0  0  0  0  0  0  0  0  0
  188.8310  176.7390  144.9890 C   0  0  1  0  0  3  0  0  0  0  0  0
  191.4210  178.5920  142.9790 C   0  0  0  0  0  2  0  0  0  0  0  0
  190.0750  177.4960  144.8060 N   0  0  0  0  0  0  0  0  0  0  0  0
  189.5690  176.8330  142.5380 C   0  0  1  0  0  3  0  0  0  0  0  0
  190.4500  177.5310  140.3600 C   0  0  0  0  0  3  0  0  0  0  0  0
  191.8330  177.3890  140.8660 C   0  0  0  0  0  3  0  0  0  0  0  0
  192.2190  177.7930  142.0440 N   0  0  0  0  0  0  0  0  0  0  0  0
  186.0340  178.9130  147.4190 C   0  0  0  0  0  3  0  0  0  0  0  0
  187.2600  178.5000  147.9500 C   0  0  0  0  0  3  0  0  0  0  0  0
  185.7150  178.6220  146.0890 C   0  0  0  0  0  3  0  0  0  0  0  0
  186.6230  177.9210  145.2910 C   0  0  0  0  0  3  0  0  0  0  0  0
  188.1670  177.7980  147.1520 C   0  0  0  0  0  3  0  0  0  0  0  0
  187.8550  177.5100  145.8190 C   0  0  0  0  0  0  0  0  0  0  0  0
  191.1310  176.5900  145.0080 N   0  0  0  0  0  2  0  0  0  0  0  0
  191.6860  176.8740  146.3210 C   0  0  0  0  0  2  0  0  0  0  0  0
  192.2160  175.5950  146.9430 C   0  0  0  0  0  2  0  0  0  0  0  0
  192.8920  175.8900  148.1260 O   0  0  0  0  0  1  0  0  0  0  0  0
  188.0110  177.5210  140.5490 C   0  0  0  0  0  2  0  0  0  0  0  0
  187.4340  178.8490  141.0120 C   0  0  0  0  0  2  0  0  0  0  0  0
  183.9640  178.5480  142.4880 C   0  0  0  0  0  3  0  0  0  0  0  0
  185.3540  178.6190  142.3710 C   0  0  0  0  0  3  0  0  0  0  0  0
  183.7500  178.7500  140.0840 C   0  0  0  0  0  3  0  0  0  0  0  0
  185.1410  178.8250  139.9630 C   0  0  0  0  0  0  0  0  0  0  0  0
  185.7100  178.9700  138.7030 O   0  0  0  0  0  1  0  0  0  0  0  0
  183.1610  178.6120  141.3440 C   0  0  0  0  0  3  0  0  0  0  0  0
  185.9500  178.7520  141.1110 C   0  0  0  0  0  0  0  0  0  0  0  0
  1  5  1  6  0  0  0
  1  6  1  0  0  0  0
  2  4  1  0  0  0  0
  4 16  1  6  0  0  0
  6  4  1  0  0  0  0
  6 17  1  0  0  0  0
  7  3  1  6  0  0  0
  7  2  1  0  0  0  0
  7  1  1  0  0  0  0
  8  9  1  0  0  0  0
  8  3  2  0  0  0  0
  9 10  2  0  0  0  0
 10  5  1  0  0  0  0
 11 12  1  0  0  0  0
 13 11  2  0  0  0  0
 14 16  2  0  0  0  0
 14 13  1  0  0  0  0
 15 12  2  0  0  0  0
 16 15  1  0  0  0  0
 17 18  1  0  0  0  0
 18 19  1  0  0  0  0
 19 20  1  0  0  0  0
 21 22  1  0  0  0  0
 21  3  1  0  0  0  0
 22 29  1  0  0  0  0
 24 23  1  0  0  0  0
 25 28  1  0  0  0  0
 26 25  2  0  0  0  0
 26 29  1  0  0  0  0
 27 26  1  0  0  0  0
 28 23  2  0  0  0  0
 29 24  2  0  0  0  0
M  END
>  <MODEL>
1

>  <REMARK>
 VINA RESULT:      -8.6      0.000      0.000
  Name = 
  7 active torsions:
  status: ('A' for Active; 'I' for Inactive)
    1  A    between atoms: C_8  and  C_17
    2  A    between atoms: C_8  and  C_28
    3  A    between atoms: N_9  and  C_13
    4  A    between atoms: N_9  and  N_20
    5  A    between atoms: C_12  and  C_28
    6  A    between atoms: C_13  and  C_24
    7  A    between atoms: C_14  and  C_27
                            x       y       z     vdW  Elec       q    Type
                         _______ _______ _______ _____ _____    ______ ____

>  <TORSDO>
F 7

$$$$
=
 OpenBabel11062416193D

 29 32  0  0  1  0  0  0  0  0999 V2000
  189.4790  178.2250  143.8620 C   0  0  2  0  0  3  0  0  0  0  0  0
  187.9060  176.2120  143.2720 S   0  0  0  0  0  0  0  0  0  0  0  0
  189.9840  177.1960  141.6640 C   0  0  0  0  0  0  0  0  0  0  0  0
  187.7580  177.0200  144.9140 C   0  0  1  0  0  3  0  0  0  0  0  0
  190.7730  179.0560  143.9410 C   0  0  0  0  0  2  0  0  0  0  0  0
  188.8540  177.9660  145.1570 N   0  0  0  0  0  0  0  0  0  0  0  0
  189.5440  176.9430  143.0790 C   0  0  1  0  0  3  0  0  0  0  0  0
  191.2620  177.5150  141.4290 C   0  0  0  0  0  3  0  0  0  0  0  0
  192.2530  177.6960  142.5120 C   0  0  0  0  0  3  0  0  0  0  0  0
  191.9970  178.3090  143.6340 N   0  0  0  0  0  0  0  0  0  0  0  0
  183.9630  178.9980  145.2770 C   0  0  0  0  0  3  0  0  0  0  0  0
  184.5000  178.7270  144.0150 C   0  0  0  0  0  3  0  0  0  0  0  0
  184.6580  178.6200  146.4290 C   0  0  0  0  0  3  0  0  0  0  0  0
  185.8900  177.9700  146.3190 C   0  0  0  0  0  3  0  0  0  0  0  0
  185.7330  178.0780  143.9050 C   0  0  0  0  0  3  0  0  0  0  0  0
  186.4310  177.6930  145.0550 C   0  0  0  0  0  0  0  0  0  0  0  0
  189.7820  177.3050  145.9800 N   0  0  0  0  0  2  0  0  0  0  0  0
  189.0810  176.9400  147.2000 C   0  0  0  0  0  2  0  0  0  0  0  0
  189.2080  178.0570  148.2190 C   0  0  0  0  0  2  0  0  0  0  0  0
  188.0750  178.0860  149.0310 O   0  0  0  0  0  1  0  0  0  0  0  0
  189.0370  177.0750  140.5150 C   0  0  0  0  0  2  0  0  0  0  0  0
  188.8520  178.4210  139.8310 C   0  0  0  0  0  2  0  0  0  0  0  0
  189.1840  177.7390  136.1240 C   0  0  0  0  0  3  0  0  0  0  0  0
  189.5030  177.9520  137.4680 C   0  0  0  0  0  3  0  0  0  0  0  0
  186.8350  178.0460  136.6310 C   0  0  0  0  0  3  0  0  0  0  0  0
  187.1500  178.2570  137.9770 C   0  0  0  0  0  0  0  0  0  0  0  0
  186.1280  178.5070  138.8860 O   0  0  0  0  0  1  0  0  0  0  0  0
  187.8500  177.7860  135.7050 C   0  0  0  0  0  3  0  0  0  0  0  0
  188.4910  178.2180  138.3980 C   0  0  0  0  0  0  0  0  0  0  0  0
  1  5  1  1  0  0  0
  1  6  1  0  0  0  0
  2  4  1  0  0  0  0
  4 16  1  6  0  0  0
  4  6  1  0  0  0  0
  6 17  1  0  0  0  0
  7  3  1  6  0  0  0
  7  2  1  0  0  0  0
  7  1  1  0  0  0  0
  8  3  2  0  0  0  0
  8  9  1  0  0  0  0
  9 10  2  0  0  0  0
 10  5  1  0  0  0  0
 11 13  1  0  0  0  0
 12 11  2  0  0  0  0
 14 13  2  0  0  0  0
 15 12  1  0  0  0  0
 15 16  2  0  0  0  0
 16 14  1  0  0  0  0
 17 18  1  0  0  0  0
 18 19  1  0  0  0  0
 19 20  1  0  0  0  0
 21  3  1  0  0  0  0
 22 21  1  0  0  0  0
 23 24  1  0  0  0  0
 24 29  2  0  0  0  0
 25 26  2  0  0  0  0
 26 29  1  0  0  0  0
 26 27  1  0  0  0  0
 28 23  2  0  0  0  0
 28 25  1  0  0  0  0
 29 22  1  0  0  0  0
M  END
>  <MODEL>
2

>  <REMARK>
 VINA RESULT:      -8.5      2.198      3.417
  Name = 
  7 active torsions:
  status: ('A' for Active; 'I' for Inactive)
    1  A    between atoms: C_8  and  C_17
    2  A    between atoms: C_8  and  C_28
    3  A    between atoms: N_9  and  C_13
    4  A    between atoms: N_9  and  N_20
    5  A    between atoms: C_12  and  C_28
    6  A    between atoms: C_13  and  C_24
    7  A    between atoms: C_14  and  C_27
                            x       y       z     vdW  Elec       q    Type
                         _______ _______ _______ _____ _____    ______ ____

>  <TORSDO>
F 7

$$$$
=
 OpenBabel11062416193D

 29 32  0  0  1  0  0  0  0  0999 V2000
  190.0410  177.9790  143.5390 C   0  0  2  0  0  3  0  0  0  0  0  0
  188.0230  176.3120  143.3800 S   0  0  0  0  0  0  0  0  0  0  0  0
  189.4770  177.3380  141.2110 C   0  0  0  0  0  0  0  0  0  0  0  0
  188.6600  176.8010  145.0320 C   0  0  1  0  0  3  0  0  0  0  0  0
  191.3960  178.6240  143.1940 C   0  0  0  0  0  2  0  0  0  0  0  0
  189.9190  177.5510  144.9300 N   0  0  0  0  0  0  0  0  0  0  0  0
  189.5680  176.8720  142.6380 C   0  0  1  0  0  3  0  0  0  0  0  0
  190.6040  177.5460  140.5220 C   0  0  0  0  0  3  0  0  0  0  0  0
  191.9470  177.4010  141.1240 C   0  0  0  0  0  3  0  0  0  0  0  0
  192.2530  177.8130  142.3230 N   0  0  0  0  0  0  0  0  0  0  0  0
  185.7080  179.0940  147.1480 C   0  0  0  0  0  3  0  0  0  0  0  0
  185.5500  178.8260  145.7850 C   0  0  0  0  0  3  0  0  0  0  0  0
  186.8270  178.6110  147.8310 C   0  0  0  0  0  3  0  0  0  0  0  0
  187.7890  177.8590  147.1510 C   0  0  0  0  0  3  0  0  0  0  0  0
  186.5120  178.0750  145.1040 C   0  0  0  0  0  3  0  0  0  0  0  0
  187.6320  177.5850  145.7840 C   0  0  0  0  0  0  0  0  0  0  0  0
  190.9520  176.6410  145.2130 N   0  0  0  0  0  2  0  0  0  0  0  0
  191.2310  176.7470  146.6350 C   0  0  0  0  0  2  0  0  0  0  0  0
  192.1250  175.6010  147.0710 C   0  0  0  0  0  2  0  0  0  0  0  0
  192.9650  176.0220  148.1020 O   0  0  0  0  0  1  0  0  0  0  0  0
  188.1590  177.5500  140.5390 C   0  0  0  0  0  2  0  0  0  0  0  0
  188.3400  178.3120  139.2360 C   0  0  0  0  0  2  0  0  0  0  0  0
  187.5140  175.9320  136.4130 C   0  0  0  0  0  3  0  0  0  0  0  0
  188.2070  176.5960  137.4290 C   0  0  0  0  0  3  0  0  0  0  0  0
  185.5770  177.3280  136.8170 C   0  0  0  0  0  3  0  0  0  0  0  0
  186.2650  177.9940  137.8370 C   0  0  0  0  0  0  0  0  0  0  0  0
  185.6290  179.0100  138.5390 O   0  0  0  0  0  1  0  0  0  0  0  0
  186.2000  176.2980  136.1060 C   0  0  0  0  0  3  0  0  0  0  0  0
  187.5900  177.6320  138.1410 C   0  0  0  0  0  0  0  0  0  0  0  0
  1  5  1  6  0  0  0
  1  6  1  0  0  0  0
  2  4  1  0  0  0  0
  4 16  1  6  0  0  0
  6  4  1  0  0  0  0
  6 17  1  0  0  0  0
  7  3  1  6  0  0  0
  7  2  1  0  0  0  0
  7  1  1  0  0  0  0
  8  9  1  0  0  0  0
  8  3  2  0  0  0  0
  9 10  2  0  0  0  0
 10  5  1  0  0  0  0
 11 13  1  0  0  0  0
 12 11  2  0  0  0  0
 14 13  2  0  0  0  0
 15 16  2  0  0  0  0
 15 12  1  0  0  0  0
 16 14  1  0  0  0  0
 17 18  1  0  0  0  0
 18 19  1  0  0  0  0
 19 20  1  0  0  0  0
 21  3  1  0  0  0  0
 22 21  1  0  0  0  0
 23 24  1  0  0  0  0
 24 29  2  0  0  0  0
 25 26  2  0  0  0  0
 26 29  1  0  0  0  0
 26 27  1  0  0  0  0
 28 23  2  0  0  0  0
 28 25  1  0  0  0  0
 29 22  1  0  0  0  0
M  END
>  <MODEL>
3

>  <REMARK>
 VINA RESULT:      -8.1      1.681      2.623
  Name = 
  7 active torsions:
  status: ('A' for Active; 'I' for Inactive)
    1  A    between atoms: C_8  and  C_17
    2  A    between atoms: C_8  and  C_28
    3  A    between atoms: N_9  and  C_13
    4  A    between atoms: N_9  and  N_20
    5  A    between atoms: C_12  and  C_28
    6  A    between atoms: C_13  and  C_24
    7  A    between atoms: C_14  and  C_27
                            x       y       z     vdW  Elec       q    Type
                         _______ _______ _______ _____ _____    ______ ____

>  <TORSDO>
F 7

$$$$
=
 OpenBabel11062416193D

 29 32  0  0  1  0  0  0  0  0999 V2000
  189.4680  178.1750  143.9750 C   0  0  2  0  0  3  0  0  0  0  0  0
  187.8440  176.2630  143.2130 S   0  0  0  0  0  0  0  0  0  0  0  0
  189.9630  177.3130  141.7040 C   0  0  0  0  0  0  0  0  0  0  0  0
  187.7040  176.9380  144.9150 C   0  0  1  0  0  3  0  0  0  0  0  0
  190.7840  178.9590  144.1290 C   0  0  0  0  0  2  0  0  0  0  0  0
  188.8240  177.8300  145.2400 N   0  0  0  0  0  0  0  0  0  0  0  0
  189.5030  176.9590  143.0910 C   0  0  1  0  0  3  0  0  0  0  0  0
  191.2510  177.6130  141.5030 C   0  0  0  0  0  3  0  0  0  0  0  0
  192.2370  177.6770  142.6040 C   0  0  0  0  0  3  0  0  0  0  0  0
  191.9890  178.2040  143.7700 N   0  0  0  0  0  0  0  0  0  0  0  0
  183.9610  178.9870  145.4090 C   0  0  0  0  0  3  0  0  0  0  0  0
  184.4590  178.7240  144.1290 C   0  0  0  0  0  3  0  0  0  0  0  0
  184.6800  178.5790  146.5360 C   0  0  0  0  0  3  0  0  0  0  0  0
  185.8950  177.9060  146.3830 C   0  0  0  0  0  3  0  0  0  0  0  0
  185.6750  178.0520  143.9760 C   0  0  0  0  0  3  0  0  0  0  0  0
  186.3950  177.6360  145.1010 C   0  0  0  0  0  0  0  0  0  0  0  0
  189.7260  177.0780  146.0130 N   0  0  0  0  0  2  0  0  0  0  0  0
  189.0970  176.8610  147.3050 C   0  0  0  0  0  2  0  0  0  0  0  0
  189.1660  178.1320  148.1300 C   0  0  0  0  0  2  0  0  0  0  0  0
  188.1510  178.1290  149.0880 O   0  0  0  0  0  1  0  0  0  0  0  0
  189.0220  177.3130  140.5420 C   0  0  0  0  0  2  0  0  0  0  0  0
  189.7800  177.5150  139.2400 C   0  0  0  0  0  2  0  0  0  0  0  0
  187.4620  176.2360  136.5370 C   0  0  0  0  0  3  0  0  0  0  0  0
  188.0080  177.0260  137.5520 C   0  0  0  0  0  3  0  0  0  0  0  0
  189.3040  174.6800  136.7530 C   0  0  0  0  0  3  0  0  0  0  0  0
  189.8570  175.4690  137.7670 C   0  0  0  0  0  0  0  0  0  0  0  0
  191.0500  175.0780  138.3630 O   0  0  0  0  0  1  0  0  0  0  0  0
  188.1090  175.0630  136.1380 C   0  0  0  0  0  3  0  0  0  0  0  0
  189.2030  176.6450  138.1750 C   0  0  0  0  0  0  0  0  0  0  0  0
  1  5  1  1  0  0  0
  1  6  1  0  0  0  0
  2  4  1  0  0  0  0
  4 16  1  6  0  0  0
  4  6  1  0  0  0  0
  6 17  1  0  0  0  0
  7  3  1  6  0  0  0
  7  2  1  0  0  0  0
  7  1  1  0  0  0  0
  8  3  2  0  0  0  0
  8  9  1  0  0  0  0
  9 10  2  0  0  0  0
 10  5  1  0  0  0  0
 11 13  1  0  0  0  0
 12 11  2  0  0  0  0
 14 13  2  0  0  0  0
 15 12  1  0  0  0  0
 15 16  2  0  0  0  0
 16 14  1  0  0  0  0
 17 18  1  0  0  0  0
 18 19  1  0  0  0  0
 19 20  1  0  0  0  0
 21  3  1  0  0  0  0
 22 21  1  0  0  0  0
 23 24  1  0  0  0  0
 24 29  2  0  0  0  0
 25 26  2  0  0  0  0
 26 29  1  0  0  0  0
 26 27  1  0  0  0  0
 28 23  2  0  0  0  0
 28 25  1  0  0  0  0
 29 22  1  0  0  0  0
M  END
>  <MODEL>
4

>  <REMARK>
 VINA RESULT:      -8.1      2.609      3.941
  Name = 
  7 active torsions:
  status: ('A' for Active; 'I' for Inactive)
    1  A    between atoms: C_8  and  C_17
    2  A    between atoms: C_8  and  C_28
    3  A    between atoms: N_9  and  C_13
    4  A    between atoms: N_9  and  N_20
    5  A    between atoms: C_12  and  C_28
    6  A    between atoms: C_13  and  C_24
    7  A    between atoms: C_14  and  C_27
                            x       y       z     vdW  Elec       q    Type
                         _______ _______ _______ _____ _____    ______ ____

>  <TORSDO>
F 7

$$$$
=
 OpenBabel11062416193D

 29 32  0  0  1  0  0  0  0  0999 V2000
  190.1410  176.4420  142.0990 C   0  0  2  0  0  3  0  0  0  0  0  0
  188.6540  178.2570  140.9290 S   0  0  0  0  0  0  0  0  0  0  0  0
  188.4010  177.3940  143.5860 C   0  0  0  0  0  0  0  0  0  0  0  0
  190.0720  177.5300  140.0170 C   0  0  1  0  0  3  0  0  0  0  0  0
  190.9340  175.7460  143.2200 C   0  0  0  0  0  2  0  0  0  0  0  0
  190.9190  176.7090  140.8920 N   0  0  0  0  0  0  0  0  0  0  0  0
  189.3750  177.6800  142.4770 C   0  0  1  0  0  3  0  0  0  0  0  0
  188.8660  177.1890  144.8240 C   0  0  0  0  0  3  0  0  0  0  0  0
  190.3110  177.1640  145.1400 C   0  0  0  0  0  3  0  0  0  0  0  0
  191.2080  176.5910  144.3870 N   0  0  0  0  0  0  0  0  0  0  0  0
  188.6500  175.2470  136.6680 C   0  0  0  0  0  3  0  0  0  0  0  0
  187.8390  176.2250  137.2520 C   0  0  0  0  0  3  0  0  0  0  0  0
  189.9320  175.0110  137.1700 C   0  0  0  0  0  3  0  0  0  0  0  0
  190.4050  175.7540  138.2550 C   0  0  0  0  0  3  0  0  0  0  0  0
  188.3100  176.9680  138.3370 C   0  0  0  0  0  3  0  0  0  0  0  0
  189.5960  176.7390  138.8410 C   0  0  0  0  0  0  0  0  0  0  0  0
  192.0270  177.5010  141.2380 N   0  0  0  0  0  2  0  0  0  0  0  0
  192.7600  177.7620  140.0100 C   0  0  0  0  0  2  0  0  0  0  0  0
  193.8840  176.7550  139.8570 C   0  0  0  0  0  2  0  0  0  0  0  0
  193.9230  176.2860  138.5440 O   0  0  0  0  0  1  0  0  0  0  0  0
  186.9260  177.3590  143.3440 C   0  0  0  0  0  2  0  0  0  0  0  0
  186.1940  178.1930  144.3830 C   0  0  0  0  0  2  0  0  0  0  0  0
  183.2140  178.6230  142.0920 C   0  0  0  0  0  3  0  0  0  0  0  0
  184.5090  178.3670  142.5510 C   0  0  0  0  0  3  0  0  0  0  0  0
  182.5100  179.1300  144.3530 C   0  0  0  0  0  3  0  0  0  0  0  0
  183.8040  178.8700  144.8180 C   0  0  0  0  0  0  0  0  0  0  0  0
  184.0790  178.9910  146.1740 O   0  0  0  0  0  1  0  0  0  0  0  0
  182.2150  179.0060  142.9920 C   0  0  0  0  0  3  0  0  0  0  0  0
  184.8110  178.4940  143.9120 C   0  0  0  0  0  0  0  0  0  0  0  0
  1  7  1  0  0  0  0
  1  5  1  1  0  0  0
  3  8  2  0  0  0  0
  4 16  1  6  0  0  0
  4  6  1  0  0  0  0
  4  2  1  0  0  0  0
  5 10  1  0  0  0  0
  6 17  1  0  0  0  0
  6  1  1  0  0  0  0
  7  2  1  6  0  0  0
  7  3  1  0  0  0  0
  8  9  1  0  0  0  0
 10  9  2  0  0  0  0
 11 13  2  0  0  0  0
 11 12  1  0  0  0  0
 12 15  2  0  0  0  0
 13 14  1  0  0  0  0
 14 16  2  0  0  0  0
 15 16  1  0  0  0  0
 18 17  1  0  0  0  0
 19 18  1  0  0  0  0
 20 19  1  0  0  0  0
 21  3  1  0  0  0  0
 21 22  1  0  0  0  0
 23 24  2  0  0  0  0
 23 28  1  0  0  0  0
 24 29  1  0  0  0  0
 25 26  1  0  0  0  0
 26 27  1  0  0  0  0
 28 25  2  0  0  0  0
 29 22  1  0  0  0  0
 29 26  2  0  0  0  0
M  END
>  <MODEL>
5

>  <REMARK>
 VINA RESULT:      -7.8      2.976      5.977
  Name = 
  7 active torsions:
  status: ('A' for Active; 'I' for Inactive)
    1  A    between atoms: C_8  and  C_17
    2  A    between atoms: C_8  and  C_28
    3  A    between atoms: N_9  and  C_13
    4  A    between atoms: N_9  and  N_20
    5  A    between atoms: C_12  and  C_28
    6  A    between atoms: C_13  and  C_24
    7  A    between atoms: C_14  and  C_27
                            x       y       z     vdW  Elec       q    Type
                         _______ _______ _______ _____ _____    ______ ____

>  <TORSDO>
F 7

$$$$
=
 OpenBabel11062416193D

 29 32  0  0  1  0  0  0  0  0999 V2000
  188.7570  177.1970  139.7390 C   0  0  2  0  0  3  0  0  0  0  0  0
  187.0040  178.6010  141.0920 S   0  0  0  0  0  0  0  0  0  0  0  0
  189.1010  177.0960  142.1920 C   0  0  0  0  0  0  0  0  0  0  0  0
  186.9790  178.6560  139.2570 C   0  0  1  0  0  3  0  0  0  0  0  0
  190.1170  176.5760  139.3710 C   0  0  0  0  0  2  0  0  0  0  0  0
  188.1570  178.0000  138.6760 N   0  0  0  0  0  0  0  0  0  0  0  0
  188.6890  177.9600  141.0330 C   0  0  1  0  0  3  0  0  0  0  0  0
  190.3920  176.7770  142.3390 C   0  0  0  0  0  3  0  0  0  0  0  0
  191.4300  177.1840  141.3680 C   0  0  0  0  0  3  0  0  0  0  0  0
  191.2640  177.1580  140.0740 N   0  0  0  0  0  0  0  0  0  0  0  0
  183.3400  176.9080  137.7910 C   0  0  0  0  0  3  0  0  0  0  0  0
  183.3260  177.7150  138.9340 C   0  0  0  0  0  3  0  0  0  0  0  0
  184.5410  176.6720  137.1170 C   0  0  0  0  0  3  0  0  0  0  0  0
  185.7280  177.2420  137.5840 C   0  0  0  0  0  3  0  0  0  0  0  0
  184.5130  178.2840  139.4010 C   0  0  0  0  0  3  0  0  0  0  0  0
  185.7170  178.0540  138.7270 C   0  0  0  0  0  0  0  0  0  0  0  0
  189.0550  179.0220  138.3240 N   0  0  0  0  0  2  0  0  0  0  0  0
  188.9460  179.2040  136.8860 C   0  0  0  0  0  2  0  0  0  0  0  0
  189.0760  177.8640  136.1870 C   0  0  0  0  0  2  0  0  0  0  0  0
  188.1320  177.7710  135.1640 O   0  0  0  0  0  1  0  0  0  0  0  0
  188.1080  176.6070  143.1970 C   0  0  0  0  0  2  0  0  0  0  0  0
  188.6320  176.8090  144.6100 C   0  0  0  0  0  2  0  0  0  0  0  0
  185.4250  178.5530  145.6050 C   0  0  0  0  0  3  0  0  0  0  0  0
  186.4080  177.9160  144.8420 C   0  0  0  0  0  3  0  0  0  0  0  0
  186.8300  178.3700  147.5700 C   0  0  0  0  0  3  0  0  0  0  0  0
  187.8150  177.7300  146.8100 C   0  0  0  0  0  0  0  0  0  0  0  0
  188.9920  177.3210  147.4250 O   0  0  0  0  0  1  0  0  0  0  0  0
  185.6360  178.7810  146.9690 C   0  0  0  0  0  3  0  0  0  0  0  0
  187.6070  177.5070  145.4380 C   0  0  0  0  0  0  0  0  0  0  0  0
  1  5  1  6  0  0  0
  1  7  1  0  0  0  0
  3  8  2  0  0  0  0
  3 21  1  0  0  0  0
  4 16  1  6  0  0  0
  4  2  1  0  0  0  0
  5 10  1  0  0  0  0
  6  4  1  0  0  0  0
  6  1  1  0  0  0  0
  7  2  1  1  0  0  0
  7  3  1  0  0  0  0
  9  8  1  0  0  0  0
 10  9  2  0  0  0  0
 11 12  1  0  0  0  0
 12 15  2  0  0  0  0
 13 14  1  0  0  0  0
 13 11  2  0  0  0  0
 14 16  2  0  0  0  0
 16 15  1  0  0  0  0
 17  6  1  0  0  0  0
 18 17  1  0  0  0  0
 19 18  1  0  0  0  0
 20 19  1  0  0  0  0
 21 22  1  0  0  0  0
 22 29  1  0  0  0  0
 23 28  1  0  0  0  0
 24 29  1  0  0  0  0
 24 23  2  0  0  0  0
 26 27  1  0  0  0  0
 26 25  1  0  0  0  0
 28 25  2  0  0  0  0
 29 26  2  0  0  0  0
M  END
>  <MODEL>
6

>  <REMARK>
 VINA RESULT:      -7.7      2.590      6.996
  Name = 
  7 active torsions:
  status: ('A' for Active; 'I' for Inactive)
    1  A    between atoms: C_8  and  C_17
    2  A    between atoms: C_8  and  C_28
    3  A    between atoms: N_9  and  C_13
    4  A    between atoms: N_9  and  N_20
    5  A    between atoms: C_12  and  C_28
    6  A    between atoms: C_13  and  C_24
    7  A    between atoms: C_14  and  C_27
                            x       y       z     vdW  Elec       q    Type
                         _______ _______ _______ _____ _____    ______ ____

>  <TORSDO>
F 7

$$$$
=
 OpenBabel11062416193D

 29 32  0  0  1  0  0  0  0  0999 V2000
  189.4690  176.5380  138.6890 C   0  0  2  0  0  3  0  0  0  0  0  0
  187.5330  178.2440  139.1540 S   0  0  0  0  0  0  0  0  0  0  0  0
  189.5830  177.5620  140.9440 C   0  0  0  0  0  0  0  0  0  0  0  0
  187.6790  177.4790  137.4910 C   0  0  1  0  0  3  0  0  0  0  0  0
  190.8850  175.9350  138.7250 C   0  0  0  0  0  2  0  0  0  0  0  0
  188.9360  176.7340  137.3430 N   0  0  0  0  0  0  0  0  0  0  0  0
  189.2440  177.7860  139.4960 C   0  0  1  0  0  3  0  0  0  0  0  0
  190.8680  177.4500  141.3000 C   0  0  0  0  0  3  0  0  0  0  0  0
  191.9740  177.4710  140.3180 C   0  0  0  0  0  3  0  0  0  0  0  0
  191.9320  176.8620  139.1660 N   0  0  0  0  0  0  0  0  0  0  0  0
  184.2710  174.9800  136.7250 C   0  0  0  0  0  3  0  0  0  0  0  0
  184.1000  176.3330  137.0330 C   0  0  0  0  0  3  0  0  0  0  0  0
  185.5560  174.4350  136.6600 C   0  0  0  0  0  3  0  0  0  0  0  0
  186.6700  175.2430  136.9010 C   0  0  0  0  0  3  0  0  0  0  0  0
  185.2140  177.1410  137.2760 C   0  0  0  0  0  3  0  0  0  0  0  0
  186.5030  176.6010  137.2070 C   0  0  0  0  0  0  0  0  0  0  0  0
  189.8150  177.5670  136.6280 N   0  0  0  0  0  2  0  0  0  0  0  0
  189.6210  177.2750  135.2180 C   0  0  0  0  0  2  0  0  0  0  0  0
  190.2600  175.9430  134.8750 C   0  0  0  0  0  2  0  0  0  0  0  0
  191.6040  175.9530  135.2470 O   0  0  0  0  0  1  0  0  0  0  0  0
  188.5230  177.4860  141.9950 C   0  0  0  0  0  2  0  0  0  0  0  0
  188.8940  176.4620  143.0550 C   0  0  0  0  0  2  0  0  0  0  0  0
  186.6190  177.6180  145.8490 C   0  0  0  0  0  3  0  0  0  0  0  0
  187.0750  177.2010  144.5950 C   0  0  0  0  0  3  0  0  0  0  0  0
  188.8760  177.4830  146.7170 C   0  0  0  0  0  3  0  0  0  0  0  0
  189.3360  177.0620  145.4640 C   0  0  0  0  0  0  0  0  0  0  0  0
  190.6870  176.7840  145.2910 O   0  0  0  0  0  1  0  0  0  0  0  0
  187.5200  177.7600  146.9100 C   0  0  0  0  0  3  0  0  0  0  0  0
  188.4330  176.9270  144.3950 C   0  0  0  0  0  0  0  0  0  0  0  0
  1  5  1  6  0  0  0
  1  7  1  0  0  0  0
  3  8  2  0  0  0  0
  3 21  1  0  0  0  0
  4 16  1  1  0  0  0
  4  2  1  0  0  0  0
  5 10  1  0  0  0  0
  6  4  1  0  0  0  0
  6  1  1  0  0  0  0
  7  2  1  1  0  0  0
  7  3  1  0  0  0  0
  9  8  1  0  0  0  0
 10  9  2  0  0  0  0
 11 12  1  0  0  0  0
 12 15  2  0  0  0  0
 13 11  2  0  0  0  0
 13 14  1  0  0  0  0
 14 16  2  0  0  0  0
 16 15  1  0  0  0  0
 17  6  1  0  0  0  0
 18 17  1  0  0  0  0
 19 18  1  0  0  0  0
 19 20  1  0  0  0  0
 21 22  1  0  0  0  0
 22 29  1  0  0  0  0
 23 28  1  0  0  0  0
 24 23  2  0  0  0  0
 25 28  2  0  0  0  0
 26 25  1  0  0  0  0
 27 26  1  0  0  0  0
 29 24  1  0  0  0  0
 29 26  2  0  0  0  0
M  END
>  <MODEL>
7

>  <REMARK>
 VINA RESULT:      -7.0      3.599      7.591
  Name = 
  7 active torsions:
  status: ('A' for Active; 'I' for Inactive)
    1  A    between atoms: C_8  and  C_17
    2  A    between atoms: C_8  and  C_28
    3  A    between atoms: N_9  and  C_13
    4  A    between atoms: N_9  and  N_20
    5  A    between atoms: C_12  and  C_28
    6  A    between atoms: C_13  and  C_24
    7  A    between atoms: C_14  and  C_27
                            x       y       z     vdW  Elec       q    Type
                         _______ _______ _______ _____ _____    ______ ____

>  <TORSDO>
F 7

$$$$
=
 OpenBabel11062416193D

 29 32  0  0  1  0  0  0  0  0999 V2000
  190.3440  176.6810  140.8410 C   0  0  2  0  0  3  0  0  0  0  0  0
  188.8350  178.1680  139.2950 S   0  0  0  0  0  0  0  0  0  0  0  0
  188.9870  178.3380  142.0910 C   0  0  0  0  0  0  0  0  0  0  0  0
  189.9990  176.9680  138.5340 C   0  0  1  0  0  3  0  0  0  0  0  0
  191.2610  176.3150  142.0220 C   0  0  0  0  0  2  0  0  0  0  0  0
  190.9140  176.3920  139.5280 N   0  0  0  0  0  0  0  0  0  0  0  0
  189.7690  178.0710  140.8350 C   0  0  1  0  0  3  0  0  0  0  0  0
  189.6460  178.5140  143.2420 C   0  0  0  0  0  3  0  0  0  0  0  0
  191.1160  178.3910  143.3470 C   0  0  0  0  0  3  0  0  0  0  0  0
  191.8120  177.4650  142.7460 N   0  0  0  0  0  0  0  0  0  0  0  0
  187.9050  173.8770  136.4110 C   0  0  0  0  0  3  0  0  0  0  0  0
  189.2560  173.7200  136.7370 C   0  0  0  0  0  3  0  0  0  0  0  0
  187.2280  175.0420  136.7810 C   0  0  0  0  0  3  0  0  0  0  0  0
  187.9010  176.0490  137.4780 C   0  0  0  0  0  3  0  0  0  0  0  0
  189.9290  174.7270  137.4330 C   0  0  0  0  0  3  0  0  0  0  0  0
  189.2540  175.8930  137.8090 C   0  0  0  0  0  0  0  0  0  0  0  0
  192.1310  177.0840  139.4040 N   0  0  0  0  0  2  0  0  0  0  0  0
  192.6800  176.7450  138.1020 C   0  0  0  0  0  2  0  0  0  0  0  0
  193.6090  175.5510  138.2300 C   0  0  0  0  0  2  0  0  0  0  0  0
  194.6640  175.6740  137.3260 O   0  0  0  0  0  1  0  0  0  0  0  0
  187.4960  178.4360  142.0800 C   0  0  0  0  0  2  0  0  0  0  0  0
  186.8820  177.3510  142.9500 C   0  0  0  0  0  2  0  0  0  0  0  0
  183.5880  178.8340  144.0760 C   0  0  0  0  0  3  0  0  0  0  0  0
  184.5960  178.3020  143.2680 C   0  0  0  0  0  3  0  0  0  0  0  0
  185.0300  178.6340  146.0120 C   0  0  0  0  0  3  0  0  0  0  0  0
  186.0410  178.0980  145.2070 C   0  0  0  0  0  0  0  0  0  0  0  0
  187.2500  177.7320  145.7850 O   0  0  0  0  0  1  0  0  0  0  0  0
  183.8040  179.0010  145.4470 C   0  0  0  0  0  3  0  0  0  0  0  0
  185.8280  177.9370  143.8270 C   0  0  0  0  0  0  0  0  0  0  0  0
  1  5  1  1  0  0  0
  3  8  2  0  0  0  0
  4 16  1  1  0  0  0
  4  2  1  0  0  0  0
  4  6  1  0  0  0  0
  5 10  1  0  0  0  0
  6  1  1  0  0  0  0
  7  2  1  6  0  0  0
  7  1  1  0  0  0  0
  7  3  1  0  0  0  0
  8  9  1  0  0  0  0
 10  9  2  0  0  0  0
 11 12  2  0  0  0  0
 11 13  1  0  0  0  0
 12 15  1  0  0  0  0
 13 14  2  0  0  0  0
 14 16  1  0  0  0  0
 15 16  2  0  0  0  0
 17  6  1  0  0  0  0
 18 19  1  0  0  0  0
 18 17  1  0  0  0  0
 20 19  1  0  0  0  0
 21  3  1  0  0  0  0
 21 22  1  0  0  0  0
 22 29  1  0  0  0  0
 23 28  1  0  0  0  0
 24 29  1  0  0  0  0
 24 23  2  0  0  0  0
 26 27  1  0  0  0  0
 26 25  1  0  0  0  0
 28 25  2  0  0  0  0
 29 26  2  0  0  0  0
M  END
>  <MODEL>
8

>  <REMARK>
 VINA RESULT:      -7.0      3.440      6.532
  Name = 
  7 active torsions:
  status: ('A' for Active; 'I' for Inactive)
    1  A    between atoms: C_8  and  C_17
    2  A    between atoms: C_8  and  C_28
    3  A    between atoms: N_9  and  C_13
    4  A    between atoms: N_9  and  N_20
    5  A    between atoms: C_12  and  C_28
    6  A    between atoms: C_13  and  C_24
    7  A    between atoms: C_14  and  C_27
                            x       y       z     vdW  Elec       q    Type
                         _______ _______ _______ _____ _____    ______ ____

>  <TORSDO>
F 7

$$$$
=
 OpenBabel11062416193D

 29 32  0  0  1  0  0  0  0  0999 V2000
  189.8600  176.4550  142.1030 C   0  0  2  0  0  3  0  0  0  0  0  0
  188.4040  178.2980  140.9370 S   0  0  0  0  0  0  0  0  0  0  0  0
  188.1180  177.4130  143.5840 C   0  0  0  0  0  0  0  0  0  0  0  0
  189.8230  177.5630  140.0310 C   0  0  1  0  0  3  0  0  0  0  0  0
  190.6350  175.7400  143.2250 C   0  0  0  0  0  2  0  0  0  0  0  0
  190.6520  176.7240  140.9050 N   0  0  0  0  0  0  0  0  0  0  0  0
  189.1060  177.6980  142.4870 C   0  0  1  0  0  3  0  0  0  0  0  0
  188.5700  177.1900  144.8240 C   0  0  0  0  0  3  0  0  0  0  0  0
  190.0110  177.1460  145.1520 C   0  0  0  0  0  3  0  0  0  0  0  0
  190.9090  176.5700  144.4020 N   0  0  0  0  0  0  0  0  0  0  0  0
  188.4040  175.3300  136.6470 C   0  0  0  0  0  3  0  0  0  0  0  0
  187.6120  176.3350  137.2130 C   0  0  0  0  0  3  0  0  0  0  0  0
  189.6650  175.0510  137.1790 C   0  0  0  0  0  3  0  0  0  0  0  0
  190.1370  175.7780  138.2760 C   0  0  0  0  0  3  0  0  0  0  0  0
  188.0830  177.0610  138.3100 C   0  0  0  0  0  3  0  0  0  0  0  0
  189.3480  176.7890  138.8430 C   0  0  0  0  0  0  0  0  0  0  0  0
  191.7660  177.5010  141.2690 N   0  0  0  0  0  2  0  0  0  0  0  0
  192.4470  177.8650  140.0380 C   0  0  0  0  0  2  0  0  0  0  0  0
  193.4460  176.7860  139.6630 C   0  0  0  0  0  2  0  0  0  0  0  0
  193.5400  176.6900  138.2750 O   0  0  0  0  0  1  0  0  0  0  0  0
  186.6450  177.3970  143.3280 C   0  0  0  0  0  2  0  0  0  0  0  0
  186.0040  178.6840  143.8210 C   0  0  0  0  0  2  0  0  0  0  0  0
  182.2560  178.6320  144.3440 C   0  0  0  0  0  3  0  0  0  0  0  0
  183.6310  178.6270  144.5950 C   0  0  0  0  0  3  0  0  0  0  0  0
  182.6880  178.7250  141.9630 C   0  0  0  0  0  3  0  0  0  0  0  0
  184.0650  178.7240  142.2090 C   0  0  0  0  0  0  0  0  0  0  0  0
  184.9490  178.7760  141.1380 O   0  0  0  0  0  1  0  0  0  0  0  0
  181.7840  178.6800  143.0290 C   0  0  0  0  0  3  0  0  0  0  0  0
  184.5410  178.6670  143.5300 C   0  0  0  0  0  0  0  0  0  0  0  0
  1  7  1  0  0  0  0
  1  5  1  1  0  0  0
  3  8  2  0  0  0  0
  4 16  1  6  0  0  0
  4  6  1  0  0  0  0
  4  2  1  0  0  0  0
  5 10  1  0  0  0  0
  6 17  1  0  0  0  0
  6  1  1  0  0  0  0
  7  2  1  6  0  0  0
  7  3  1  0  0  0  0
  8  9  1  0  0  0  0
 10  9  2  0  0  0  0
 11 13  2  0  0  0  0
 11 12  1  0  0  0  0
 12 15  2  0  0  0  0
 13 14  1  0  0  0  0
 14 16  2  0  0  0  0
 15 16  1  0  0  0  0
 18 17  1  0  0  0  0
 19 18  1  0  0  0  0
 20 19  1  0  0  0  0
 21  3  1  0  0  0  0
 21 22  1  0  0  0  0
 23 24  1  0  0  0  0
 25 26  2  0  0  0  0
 25 28  1  0  0  0  0
 26 29  1  0  0  0  0
 27 26  1  0  0  0  0
 28 23  2  0  0  0  0
 29 22  1  0  0  0  0
 29 24  2  0  0  0  0
M  END
>  <MODEL>
9

>  <REMARK>
 VINA RESULT:      -7.0      2.722      5.756
  Name = 
  7 active torsions:
  status: ('A' for Active; 'I' for Inactive)
    1  A    between atoms: C_8  and  C_17
    2  A    between atoms: C_8  and  C_28
    3  A    between atoms: N_9  and  C_13
    4  A    between atoms: N_9  and  N_20
    5  A    between atoms: C_12  and  C_28
    6  A    between atoms: C_13  and  C_24
    7  A    between atoms: C_14  and  C_27
                            x       y       z     vdW  Elec       q    Type
                         _______ _______ _______ _____ _____    ______ ____

>  <TORSDO>
F 7

$$$$
