=
 OpenBabel11062413193D

 30 32  0  0  1  0  0  0  0  0999 V2000
  190.0100  177.7390  141.7210 C   0  0  1  0  0  3  0  0  0  0  0  0
  190.0670  177.6800  144.2200 C   0  0  2  0  0  3  0  0  0  0  0  0
  187.8760  177.7320  144.8860 C   0  0  2  0  0  3  0  0  0  0  0  0
  188.6500  177.4630  142.3870 C   0  0  0  0  0  2  0  0  0  0  0  0
  190.0510  178.2190  145.6210 C   0  0  0  0  0  2  0  0  0  0  0  0
  188.6720  178.0000  146.1030 N   0  0  0  0  0  0  0  0  0  0  0  0
  191.2160  178.3170  143.0030 S   0  0  0  0  0  0  0  0  0  0  0  0
  188.7660  178.1200  143.7300 C   0  0  2  0  0  3  0  0  0  0  0  0
  183.7560  179.0090  144.6530 C   0  0  0  0  0  0  0  0  0  0  0  0
  185.9300  178.6810  143.5280 C   0  0  0  0  0  2  0  0  0  0  0  0
  182.5290  178.6900  144.3560 C   0  0  0  0  0  0  0  0  0  0  0  0
  185.5660  177.8780  145.8940 C   0  0  0  0  0  2  0  0  0  0  0  0
  181.3610  178.3890  144.0740 O   0  0  0  0  0  0  0  0  0  0  0  0
  184.3070  178.7340  146.0140 C   0  0  0  0  0  2  0  0  0  0  0  0
  184.6750  179.5490  143.6050 C   0  0  0  0  0  2  0  0  0  0  0  0
  186.5590  178.5170  144.9200 C   0  0  0  0  0  3  0  0  0  0  0  0
  188.6550  176.7940  146.9410 C   0  0  1  0  0  3  0  0  0  0  0  0
  189.9580  176.3260  147.1450 O   0  0  0  0  0  1  0  0  0  0  0  0
  187.8780  178.4710  148.4540 O   0  0  0  0  0  1  0  0  0  0  0  0
  188.0310  177.0930  148.2980 C   0  0  0  0  0  2  0  0  0  0  0  0
  190.5020  176.4620  141.0570 C   0  0  0  0  0  2  0  0  0  0  0  0
  191.4550  176.7570  139.9440 C   0  0  0  0  0  0  0  0  0  0  0  0
  192.4890  177.4330  140.1780 O   0  0  0  0  0  0  0  0  0  0  0  0
  191.2120  176.2750  138.6200 N   0  0  0  0  0  2  0  0  0  0  0  0
  190.0940  175.4900  138.3020 N   0  0  0  0  0  2  0  0  0  0  0  0
  189.2210  176.2880  137.4580 C   0  0  0  0  0  2  0  0  0  0  0  0
  187.9900  178.1240  138.6630 C   0  0  0  0  0  0  0  0  0  0  0  0
  188.9840  179.0780  138.3030 N   0  0  0  0  0  1  0  0  0  0  0  0
  187.0110  178.4810  139.3680 O   0  0  0  0  0  0  0  0  0  0  0  0
  188.0950  176.7650  138.2420 N   0  0  0  0  0  2  0  0  0  0  0  0
  1 21  1  1  0  0  0
  1  4  1  0  0  0  0
  1  7  1  0  0  0  0
  2  5  1  1  0  0  0
  3 16  1  1  0  0  0
  3  6  1  0  0  0  0
  5  6  1  0  0  0  0
  6 17  1  0  0  0  0
  7  2  1  0  0  0  0
  8  4  1  6  0  0  0
  8  2  1  0  0  0  0
  8  3  1  0  0  0  0
  9 14  1  0  0  0  0
 10 15  1  0  0  0  0
 10 16  1  0  0  0  0
 11  9  2  0  0  0  0
 12 14  1  0  0  0  0
 13 11  2  0  0  0  0
 15  9  1  0  0  0  0
 16 12  1  0  0  0  0
 17 18  1  1  0  0  0
 17 20  1  0  0  0  0
 20 19  1  0  0  0  0
 22 23  2  0  0  0  0
 22 21  1  0  0  0  0
 24 22  1  0  0  0  0
 25 24  1  0  0  0  0
 26 30  1  0  0  0  0
 26 25  1  0  0  0  0
 27 29  2  0  0  0  0
 28 27  1  0  0  0  0
 30 27  1  0  0  0  0
M  END
>  <MODEL>
1

>  <REMARK>
 VINA RESULT:      -7.7      0.000      0.000
  Name = 
  8 active torsions:
  status: ('A' for Active; 'I' for Inactive)
    1  A    between atoms: C_4  and  C_25
    2  A    between atoms: N_5  and  C_7
    3  A    between atoms: N_5  and  N_26
    4  A    between atoms: C_6  and  C_21
    5  A    between atoms: C_7  and  N_29
    6  A    between atoms: C_10  and  C_24
    7  A    between atoms: C_13  and  C_21
    8  A    between atoms: N_22  and  C_25
                            x       y       z     vdW  Elec       q    Type
                         _______ _______ _______ _____ _____    ______ ____

>  <TORSDO>
F 8

$$$$
=
 OpenBabel11062413193D

 30 32  0  0  1  0  0  0  0  0999 V2000
  189.6290  176.9600  144.4140 C   0  0  1  0  0  3  0  0  0  0  0  0
  189.7210  176.8940  141.9150 C   0  0  2  0  0  3  0  0  0  0  0  0
  188.1720  178.4260  141.2040 C   0  0  2  0  0  3  0  0  0  0  0  0
  188.8920  178.1170  143.7150 C   0  0  0  0  0  2  0  0  0  0  0  0
  189.3240  176.4970  140.5240 C   0  0  0  0  0  2  0  0  0  0  0  0
  188.5320  177.6330  140.0090 N   0  0  0  0  0  0  0  0  0  0  0  0
  190.0480  175.6560  143.1670 S   0  0  0  0  0  0  0  0  0  0  0  0
  188.5010  177.5440  142.3840 C   0  0  2  0  0  3  0  0  0  0  0  0
  183.8650  178.5300  140.8970 C   0  0  0  0  0  0  0  0  0  0  0  0
  186.0630  178.6070  139.7740 C   0  0  0  0  0  2  0  0  0  0  0  0
  182.7680  177.8590  140.6890 C   0  0  0  0  0  0  0  0  0  0  0  0
  185.8930  178.1210  142.2450 C   0  0  0  0  0  2  0  0  0  0  0  0
  181.7240  177.2230  140.4920 O   0  0  0  0  0  0  0  0  0  0  0  0
  184.4510  178.6270  142.2680 C   0  0  0  0  0  2  0  0  0  0  0  0
  184.6230  179.1180  139.7510 C   0  0  0  0  0  2  0  0  0  0  0  0
  186.6960  178.8350  141.1550 C   0  0  0  0  0  3  0  0  0  0  0  0
  189.3960  178.4570  139.1520 C   0  0  1  0  0  3  0  0  0  0  0  0
  190.6980  177.9440  139.1400 O   0  0  0  0  0  1  0  0  0  0  0  0
  188.6080  179.7890  137.3330 O   0  0  0  0  0  1  0  0  0  0  0  0
  188.8710  178.4750  137.7220 C   0  0  0  0  0  2  0  0  0  0  0  0
  190.8900  177.5030  145.0680 C   0  0  0  0  0  2  0  0  0  0  0  0
  191.2600  176.7110  146.2800 C   0  0  0  0  0  0  0  0  0  0  0  0
  192.1510  175.8280  146.1950 O   0  0  0  0  0  0  0  0  0  0  0  0
  190.6220  176.9500  147.5380 N   0  0  0  0  0  2  0  0  0  0  0  0
  189.6450  177.9420  147.7060 N   0  0  0  0  0  2  0  0  0  0  0  0
  188.3680  177.2740  147.8990 C   0  0  0  0  0  2  0  0  0  0  0  0
  186.2970  178.3800  146.9910 C   0  0  0  0  0  0  0  0  0  0  0  0
  186.2680  177.4940  145.8760 N   0  0  0  0  0  1  0  0  0  0  0  0
  185.4220  179.2770  147.0950 O   0  0  0  0  0  0  0  0  0  0  0  0
  187.3130  178.2670  147.9870 N   0  0  0  0  0  2  0  0  0  0  0  0
  1 21  1  6  0  0  0
  2  5  1  6  0  0  0
  2  8  1  0  0  0  0
  2  7  1  0  0  0  0
  3 16  1  6  0  0  0
  3  8  1  0  0  0  0
  4  1  1  0  0  0  0
  6  5  1  0  0  0  0
  6  3  1  0  0  0  0
  7  1  1  0  0  0  0
  8  4  1  1  0  0  0
  9 14  1  0  0  0  0
 10 16  1  0  0  0  0
 11  9  2  0  0  0  0
 12 14  1  0  0  0  0
 13 11  2  0  0  0  0
 15 10  1  0  0  0  0
 15  9  1  0  0  0  0
 16 12  1  0  0  0  0
 17 18  1  6  0  0  0
 17  6  1  0  0  0  0
 19 20  1  0  0  0  0
 20 17  1  0  0  0  0
 21 22  1  0  0  0  0
 22 24  1  0  0  0  0
 23 22  2  0  0  0  0
 24 25  1  0  0  0  0
 25 26  1  0  0  0  0
 26 30  1  0  0  0  0
 27 29  2  0  0  0  0
 27 30  1  0  0  0  0
 28 27  1  0  0  0  0
M  END
>  <MODEL>
2

>  <REMARK>
 VINA RESULT:      -7.6      2.214      6.521
  Name = 
  8 active torsions:
  status: ('A' for Active; 'I' for Inactive)
    1  A    between atoms: C_4  and  C_25
    2  A    between atoms: N_5  and  C_7
    3  A    between atoms: N_5  and  N_26
    4  A    between atoms: C_6  and  C_21
    5  A    between atoms: C_7  and  N_29
    6  A    between atoms: C_10  and  C_24
    7  A    between atoms: C_13  and  C_21
    8  A    between atoms: N_22  and  C_25
                            x       y       z     vdW  Elec       q    Type
                         _______ _______ _______ _____ _____    ______ ____

>  <TORSDO>
F 8

$$$$
=
 OpenBabel11062413193D

 30 32  0  0  1  0  0  0  0  0999 V2000
  185.7650  178.2650  142.8730 C   0  0  1  0  0  3  0  0  0  0  0  0
  188.0470  177.3770  143.3800 C   0  0  2  0  0  3  0  0  0  0  0  0
  189.3480  177.9710  141.5900 C   0  0  2  0  0  3  0  0  0  0  0  0
  186.8790  178.7990  141.9550 C   0  0  0  0  0  2  0  0  0  0  0  0
  189.2010  176.4190  143.3450 C   0  0  0  0  0  2  0  0  0  0  0  0
  190.1400  176.9800  142.3520 N   0  0  0  0  0  0  0  0  0  0  0  0
  186.4080  176.8260  143.8470 S   0  0  0  0  0  0  0  0  0  0  0  0
  187.9100  177.7090  141.9660 C   0  0  2  0  0  3  0  0  0  0  0  0
  189.5380  176.6570  137.4800 C   0  0  0  0  0  0  0  0  0  0  0  0
  190.5050  176.6260  139.7510 C   0  0  0  0  0  2  0  0  0  0  0  0
  189.2370  175.7320  136.6130 C   0  0  0  0  0  0  0  0  0  0  0  0
  188.2950  177.7610  139.3050 C   0  0  0  0  0  2  0  0  0  0  0  0
  188.9520  174.8540  135.7880 O   0  0  0  0  0  0  0  0  0  0  0  0
  188.5650  177.7450  137.8020 C   0  0  0  0  0  2  0  0  0  0  0  0
  190.8130  176.5850  138.2560 C   0  0  0  0  0  2  0  0  0  0  0  0
  189.6100  177.8280  140.0870 C   0  0  0  0  0  3  0  0  0  0  0  0
  191.2070  177.6930  143.0660 C   0  0  1  0  0  3  0  0  0  0  0  0
  190.7570  178.9520  143.4790 O   0  0  0  0  0  1  0  0  0  0  0  0
  191.7710  177.7710  145.3860 O   0  0  0  0  0  1  0  0  0  0  0  0
  191.6450  176.9090  144.2960 C   0  0  0  0  0  2  0  0  0  0  0  0
  185.3120  179.3820  143.8000 C   0  0  0  0  0  2  0  0  0  0  0  0
  184.2090  178.9290  144.7020 C   0  0  0  0  0  0  0  0  0  0  0  0
  183.1290  178.5220  144.2030 O   0  0  0  0  0  0  0  0  0  0  0  0
  184.3690  178.9420  146.1230 N   0  0  0  0  0  2  0  0  0  0  0  0
  185.5600  179.3530  146.7400 N   0  0  0  0  0  2  0  0  0  0  0  0
  186.2370  178.1630  147.2280 C   0  0  0  0  0  2  0  0  0  0  0  0
  188.6440  177.9260  147.9250 C   0  0  0  0  0  0  0  0  0  0  0  0
  188.8600  176.8990  146.9630 N   0  0  0  0  0  1  0  0  0  0  0  0
  189.5860  178.2790  148.6810 O   0  0  0  0  0  0  0  0  0  0  0  0
  187.3690  178.5550  148.0480 N   0  0  0  0  0  2  0  0  0  0  0  0
  1 21  1  1  0  0  0
  1  7  1  0  0  0  0
  2  5  1  6  0  0  0
  2  7  1  0  0  0  0
  3 16  1  6  0  0  0
  3  8  1  0  0  0  0
  3  6  1  0  0  0  0
  4  1  1  0  0  0  0
  6 17  1  0  0  0  0
  6  5  1  0  0  0  0
  8  4  1  1  0  0  0
  8  2  1  0  0  0  0
  9 14  1  0  0  0  0
  9 15  1  0  0  0  0
 10 16  1  0  0  0  0
 11  9  2  0  0  0  0
 12 16  1  0  0  0  0
 13 11  2  0  0  0  0
 14 12  1  0  0  0  0
 15 10  1  0  0  0  0
 17 18  1  1  0  0  0
 17 20  1  0  0  0  0
 20 19  1  0  0  0  0
 21 22  1  0  0  0  0
 22 24  1  0  0  0  0
 23 22  2  0  0  0  0
 24 25  1  0  0  0  0
 25 26  1  0  0  0  0
 26 30  1  0  0  0  0
 27 30  1  0  0  0  0
 27 29  2  0  0  0  0
 28 27  1  0  0  0  0
M  END
>  <MODEL>
3

>  <REMARK>
 VINA RESULT:      -7.2      2.559      7.608
  Name = 
  8 active torsions:
  status: ('A' for Active; 'I' for Inactive)
    1  A    between atoms: C_4  and  C_25
    2  A    between atoms: N_5  and  C_7
    3  A    between atoms: N_5  and  N_26
    4  A    between atoms: C_6  and  C_21
    5  A    between atoms: C_7  and  N_29
    6  A    between atoms: C_10  and  C_24
    7  A    between atoms: C_13  and  C_21
    8  A    between atoms: N_22  and  C_25
                            x       y       z     vdW  Elec       q    Type
                         _______ _______ _______ _____ _____    ______ ____

>  <TORSDO>
F 8

$$$$
=
 OpenBabel11062413193D

 30 32  0  0  1  0  0  0  0  0999 V2000
  185.7460  178.6420  142.7420 C   0  0  1  0  0  3  0  0  0  0  0  0
  187.2420  178.3000  140.7670 C   0  0  2  0  0  3  0  0  0  0  0  0
  189.0320  177.1060  141.5530 C   0  0  2  0  0  3  0  0  0  0  0  0
  186.8670  177.6100  142.9580 C   0  0  0  0  0  2  0  0  0  0  0  0
  188.3850  178.5640  139.8320 C   0  0  0  0  0  2  0  0  0  0  0  0
  189.4300  177.5930  140.2140 N   0  0  0  0  0  0  0  0  0  0  0  0
  186.0810  179.5970  141.1900 S   0  0  0  0  0  0  0  0  0  0  0  0
  187.9500  178.0500  142.0180 C   0  0  2  0  0  3  0  0  0  0  0  0
  191.6860  176.8550  144.9520 C   0  0  0  0  0  0  0  0  0  0  0  0
  190.2530  178.2380  143.4920 C   0  0  0  0  0  2  0  0  0  0  0  0
  191.7980  176.7210  146.2430 C   0  0  0  0  0  0  0  0  0  0  0  0
  190.3260  175.7280  143.2260 C   0  0  0  0  0  2  0  0  0  0  0  0
  191.9070  176.5940  147.4690 O   0  0  0  0  0  0  0  0  0  0  0  0
  191.6000  175.6550  144.0660 C   0  0  0  0  0  2  0  0  0  0  0  0
  191.5230  178.2080  144.3400 C   0  0  0  0  0  2  0  0  0  0  0  0
  190.2420  177.0700  142.4940 C   0  0  0  0  0  3  0  0  0  0  0  0
  189.3840  176.4610  139.2790 C   0  0  1  0  0  3  0  0  0  0  0  0
  188.6630  176.8100  138.1310 O   0  0  0  0  0  1  0  0  0  0  0  0
  190.7410  174.8710  138.1240 O   0  0  0  0  0  1  0  0  0  0  0  0
  190.7910  176.0540  138.8620 C   0  0  0  0  0  2  0  0  0  0  0  0
  184.4150  177.9130  142.6480 C   0  0  0  0  0  2  0  0  0  0  0  0
  183.3480  178.6240  143.4140 C   0  0  0  0  0  0  0  0  0  0  0  0
  182.3650  179.1120  142.8010 O   0  0  0  0  0  0  0  0  0  0  0  0
  183.4230  178.7490  144.8370 N   0  0  0  0  0  2  0  0  0  0  0  0
  184.4750  178.1980  145.5830 N   0  0  0  0  0  2  0  0  0  0  0  0
  185.3120  179.2950  146.0400 C   0  0  0  0  0  2  0  0  0  0  0  0
  187.1330  178.2520  147.4310 C   0  0  0  0  0  0  0  0  0  0  0  0
  187.8610  177.8800  146.2660 N   0  0  0  0  0  1  0  0  0  0  0  0
  187.5810  177.9530  148.5680 O   0  0  0  0  0  0  0  0  0  0  0  0
  185.8950  178.9550  147.3250 N   0  0  0  0  0  2  0  0  0  0  0  0
  1 21  1  6  0  0  0
  1  4  1  0  0  0  0
  2  5  1  6  0  0  0
  2  7  1  0  0  0  0
  2  8  1  0  0  0  0
  3  8  1  0  0  0  0
  3 16  1  1  0  0  0
  5  6  1  0  0  0  0
  6  3  1  0  0  0  0
  7  1  1  0  0  0  0
  8  4  1  1  0  0  0
  9 11  2  0  0  0  0
 10 15  1  0  0  0  0
 11 13  2  0  0  0  0
 12 14  1  0  0  0  0
 14  9  1  0  0  0  0
 15  9  1  0  0  0  0
 16 12  1  0  0  0  0
 16 10  1  0  0  0  0
 17 18  1  6  0  0  0
 17  6  1  0  0  0  0
 19 20  1  0  0  0  0
 20 17  1  0  0  0  0
 21 22  1  0  0  0  0
 22 24  1  0  0  0  0
 23 22  2  0  0  0  0
 24 25  1  0  0  0  0
 25 26  1  0  0  0  0
 26 30  1  0  0  0  0
 27 29  2  0  0  0  0
 28 27  1  0  0  0  0
 30 27  1  0  0  0  0
M  END
>  <MODEL>
4

>  <REMARK>
 VINA RESULT:      -7.2      2.422      7.875
  Name = 
  8 active torsions:
  status: ('A' for Active; 'I' for Inactive)
    1  A    between atoms: C_4  and  C_25
    2  A    between atoms: N_5  and  C_7
    3  A    between atoms: N_5  and  N_26
    4  A    between atoms: C_6  and  C_21
    5  A    between atoms: C_7  and  N_29
    6  A    between atoms: C_10  and  C_24
    7  A    between atoms: C_13  and  C_21
    8  A    between atoms: N_22  and  C_25
                            x       y       z     vdW  Elec       q    Type
                         _______ _______ _______ _____ _____    ______ ____

>  <TORSDO>
F 8

$$$$
=
 OpenBabel11062413193D

 30 32  0  0  1  0  0  0  0  0999 V2000
  190.9150  176.8950  138.8810 C   0  0  1  0  0  3  0  0  0  0  0  0
  191.4320  177.0630  141.3230 C   0  0  2  0  0  3  0  0  0  0  0  0
  189.3990  177.1900  142.3720 C   0  0  2  0  0  3  0  0  0  0  0  0
  189.7040  176.6900  139.8080 C   0  0  0  0  0  2  0  0  0  0  0  0
  191.6670  177.7270  142.6470 C   0  0  0  0  0  2  0  0  0  0  0  0
  190.4030  177.5620  143.3930 N   0  0  0  0  0  0  0  0  0  0  0  0
  192.3300  177.5790  139.8620 S   0  0  0  0  0  0  0  0  0  0  0  0
  190.0580  177.4660  141.0420 C   0  0  2  0  0  3  0  0  0  0  0  0
  185.3130  178.5890  142.4370 C   0  0  0  0  0  0  0  0  0  0  0  0
  187.4750  178.4450  141.2530 C   0  0  0  0  0  2  0  0  0  0  0  0
  184.0770  178.3690  142.0910 C   0  0  0  0  0  0  0  0  0  0  0  0
  187.0960  177.1830  143.4060 C   0  0  0  0  0  2  0  0  0  0  0  0
  182.9020  178.1610  141.7620 O   0  0  0  0  0  0  0  0  0  0  0  0
  185.8600  178.0280  143.7090 C   0  0  0  0  0  2  0  0  0  0  0  0
  186.2430  179.3090  141.5150 C   0  0  0  0  0  2  0  0  0  0  0  0
  188.1030  177.9830  142.5760 C   0  0  0  0  0  3  0  0  0  0  0  0
  190.5520  176.4370  144.3250 C   0  0  1  0  0  3  0  0  0  0  0  0
  191.7620  175.7740  144.0960 O   0  0  0  0  0  1  0  0  0  0  0  0
  191.8430  177.0460  146.2410 O   0  0  0  0  0  1  0  0  0  0  0  0
  190.5360  176.9300  145.7660 C   0  0  0  0  0  2  0  0  0  0  0  0
  191.2900  175.5600  138.2560 C   0  0  0  0  0  2  0  0  0  0  0  0
  191.9510  175.7450  136.9290 C   0  0  0  0  0  0  0  0  0  0  0  0
  193.2060  175.7340  136.8550 O   0  0  0  0  0  0  0  0  0  0  0  0
  191.1760  175.9240  135.7400 N   0  0  0  0  0  2  0  0  0  0  0  0
  189.7730  175.9120  135.7510 N   0  0  0  0  0  2  0  0  0  0  0  0
  189.3200  177.2780  135.5460 C   0  0  0  0  0  2  0  0  0  0  0  0
  187.8710  178.5690  137.1490 C   0  0  0  0  0  0  0  0  0  0  0  0
  188.9060  179.5220  137.3740 N   0  0  0  0  0  1  0  0  0  0  0  0
  186.7760  178.6850  137.7570 O   0  0  0  0  0  0  0  0  0  0  0  0
  188.0650  177.4810  136.2480 N   0  0  0  0  0  2  0  0  0  0  0  0
  1 21  1  1  0  0  0
  1  4  1  0  0  0  0
  1  7  1  0  0  0  0
  2  5  1  1  0  0  0
  3 16  1  1  0  0  0
  3  6  1  0  0  0  0
  5  6  1  0  0  0  0
  6 17  1  0  0  0  0
  7  2  1  0  0  0  0
  8  4  1  6  0  0  0
  8  2  1  0  0  0  0
  8  3  1  0  0  0  0
  9 14  1  0  0  0  0
 10 15  1  0  0  0  0
 10 16  1  0  0  0  0
 11  9  2  0  0  0  0
 12 14  1  0  0  0  0
 13 11  2  0  0  0  0
 15  9  1  0  0  0  0
 16 12  1  0  0  0  0
 17 18  1  6  0  0  0
 17 20  1  0  0  0  0
 20 19  1  0  0  0  0
 22 21  1  0  0  0  0
 23 22  2  0  0  0  0
 24 25  1  0  0  0  0
 24 22  1  0  0  0  0
 26 25  1  0  0  0  0
 26 30  1  0  0  0  0
 27 28  1  0  0  0  0
 27 29  2  0  0  0  0
 30 27  1  0  0  0  0
M  END
>  <MODEL>
5

>  <REMARK>
 VINA RESULT:      -7.0      2.345      2.983
  Name = 
  8 active torsions:
  status: ('A' for Active; 'I' for Inactive)
    1  A    between atoms: C_4  and  C_25
    2  A    between atoms: N_5  and  C_7
    3  A    between atoms: N_5  and  N_26
    4  A    between atoms: C_6  and  C_21
    5  A    between atoms: C_7  and  N_29
    6  A    between atoms: C_10  and  C_24
    7  A    between atoms: C_13  and  C_21
    8  A    between atoms: N_22  and  C_25
                            x       y       z     vdW  Elec       q    Type
                         _______ _______ _______ _____ _____    ______ ____

>  <TORSDO>
F 8

$$$$
=
 OpenBabel11062413193D

 30 32  0  0  1  0  0  0  0  0999 V2000
  189.9170  177.7280  141.4970 C   0  0  1  0  0  3  0  0  0  0  0  0
  190.1430  177.6580  143.9870 C   0  0  2  0  0  3  0  0  0  0  0  0
  188.0010  177.7030  144.7980 C   0  0  2  0  0  3  0  0  0  0  0  0
  188.6060  177.4470  142.2520 C   0  0  0  0  0  2  0  0  0  0  0  0
  190.2190  178.1910  145.3870 C   0  0  0  0  0  2  0  0  0  0  0  0
  188.8770  177.9670  145.9600 N   0  0  0  0  0  0  0  0  0  0  0  0
  191.2060  178.3020  142.6980 S   0  0  0  0  0  0  0  0  0  0  0  0
  188.8100  178.0980  143.5870 C   0  0  2  0  0  3  0  0  0  0  0  0
  183.8850  179.0120  144.7380 C   0  0  0  0  0  0  0  0  0  0  0  0
  186.0450  178.7890  143.5630 C   0  0  0  0  0  2  0  0  0  0  0  0
  182.6530  178.7290  144.4250 C   0  0  0  0  0  0  0  0  0  0  0  0
  185.7030  177.7570  145.8410 C   0  0  0  0  0  2  0  0  0  0  0  0
  181.4810  178.4610  144.1280 O   0  0  0  0  0  0  0  0  0  0  0  0
  184.4490  178.6020  146.0590 C   0  0  0  0  0  2  0  0  0  0  0  0
  184.7950  179.6490  143.7390 C   0  0  0  0  0  2  0  0  0  0  0  0
  186.6880  178.4850  144.9240 C   0  0  0  0  0  3  0  0  0  0  0  0
  188.9170  176.7570  146.7920 C   0  0  1  0  0  3  0  0  0  0  0  0
  190.2430  176.3880  147.0480 O   0  0  0  0  0  1  0  0  0  0  0  0
  188.3460  178.3380  148.4890 O   0  0  0  0  0  1  0  0  0  0  0  0
  188.2170  176.9980  148.1230 C   0  0  0  0  0  2  0  0  0  0  0  0
  190.3650  176.4550  140.7960 C   0  0  0  0  0  2  0  0  0  0  0  0
  190.1780  176.5520  139.3160 C   0  0  0  0  0  0  0  0  0  0  0  0
  189.0170  176.5080  138.8350 O   0  0  0  0  0  0  0  0  0  0  0  0
  191.2990  176.7050  138.4410 N   0  0  0  0  0  2  0  0  0  0  0  0
  192.6150  176.7940  138.9180 N   0  0  0  0  0  2  0  0  0  0  0  0
  193.4270  175.8720  138.1420 C   0  0  0  0  0  2  0  0  0  0  0  0
  195.3180  174.2870  138.6460 C   0  0  0  0  0  0  0  0  0  0  0  0
  194.9350  173.4310  137.5750 N   0  0  0  0  0  1  0  0  0  0  0  0
  196.3020  173.9800  139.3670 O   0  0  0  0  0  0  0  0  0  0  0  0
  194.5920  175.4860  138.9180 N   0  0  0  0  0  2  0  0  0  0  0  0
  1 21  1  1  0  0  0
  1  4  1  0  0  0  0
  1  7  1  0  0  0  0
  2  5  1  1  0  0  0
  3 16  1  1  0  0  0
  3  6  1  0  0  0  0
  5  6  1  0  0  0  0
  6 17  1  0  0  0  0
  7  2  1  0  0  0  0
  8  4  1  6  0  0  0
  8  2  1  0  0  0  0
  8  3  1  0  0  0  0
  9 14  1  0  0  0  0
 10 15  1  0  0  0  0
 10 16  1  0  0  0  0
 11  9  2  0  0  0  0
 12 14  1  0  0  0  0
 13 11  2  0  0  0  0
 15  9  1  0  0  0  0
 16 12  1  0  0  0  0
 17 18  1  1  0  0  0
 17 20  1  0  0  0  0
 20 19  1  0  0  0  0
 22 21  1  0  0  0  0
 23 22  2  0  0  0  0
 24 25  1  0  0  0  0
 24 22  1  0  0  0  0
 26 30  1  0  0  0  0
 26 25  1  0  0  0  0
 27 30  1  0  0  0  0
 27 29  2  0  0  0  0
 28 27  1  0  0  0  0
M  END
>  <MODEL>
6

>  <REMARK>
 VINA RESULT:      -7.0      1.888      3.327
  Name = 
  8 active torsions:
  status: ('A' for Active; 'I' for Inactive)
    1  A    between atoms: C_4  and  C_25
    2  A    between atoms: N_5  and  C_7
    3  A    between atoms: N_5  and  N_26
    4  A    between atoms: C_6  and  C_21
    5  A    between atoms: C_7  and  N_29
    6  A    between atoms: C_10  and  C_24
    7  A    between atoms: C_13  and  C_21
    8  A    between atoms: N_22  and  C_25
                            x       y       z     vdW  Elec       q    Type
                         _______ _______ _______ _____ _____    ______ ____

>  <TORSDO>
F 8

$$$$
=
 OpenBabel11062413193D

 30 32  0  0  1  0  0  0  0  0999 V2000
  190.8030  176.9390  139.1060 C   0  0  1  0  0  3  0  0  0  0  0  0
  191.2830  177.0790  141.5570 C   0  0  2  0  0  3  0  0  0  0  0  0
  189.2370  177.2400  142.5740 C   0  0  2  0  0  3  0  0  0  0  0  0
  189.5730  176.7520  140.0120 C   0  0  0  0  0  2  0  0  0  0  0  0
  191.5110  177.7300  142.8900 C   0  0  0  0  0  2  0  0  0  0  0  0
  190.2320  177.5850  143.6140 N   0  0  0  0  0  0  0  0  0  0  0  0
  192.2150  177.5880  140.1140 S   0  0  0  0  0  0  0  0  0  0  0  0
  189.9220  177.5120  141.2580 C   0  0  2  0  0  3  0  0  0  0  0  0
  185.1720  178.6990  142.6280 C   0  0  0  0  0  0  0  0  0  0  0  0
  187.3220  178.4870  141.4320 C   0  0  0  0  0  2  0  0  0  0  0  0
  183.9300  178.4850  142.2990 C   0  0  0  0  0  0  0  0  0  0  0  0
  186.9440  177.2980  143.6270 C   0  0  0  0  0  2  0  0  0  0  0  0
  182.7490  178.2840  141.9870 O   0  0  0  0  0  0  0  0  0  0  0  0
  185.7220  178.1700  143.9130 C   0  0  0  0  0  2  0  0  0  0  0  0
  186.1050  179.3760  141.6770 C   0  0  0  0  0  2  0  0  0  0  0  0
  187.9550  178.0580  142.7640 C   0  0  0  0  0  3  0  0  0  0  0  0
  190.3440  176.4500  144.5400 C   0  0  1  0  0  3  0  0  0  0  0  0
  191.6790  176.0510  144.6600 O   0  0  0  0  0  1  0  0  0  0  0  0
  189.4740  178.1840  145.9350 O   0  0  0  0  0  1  0  0  0  0  0  0
  189.8270  176.8340  145.9210 C   0  0  0  0  0  2  0  0  0  0  0  0
  191.1610  175.6010  138.4780 C   0  0  0  0  0  2  0  0  0  0  0  0
  191.1780  175.6860  136.9860 C   0  0  0  0  0  0  0  0  0  0  0  0
  190.3990  176.4810  136.4020 O   0  0  0  0  0  0  0  0  0  0  0  0
  192.0770  174.8850  136.2140 N   0  0  0  0  0  2  0  0  0  0  0  0
  192.9930  174.0040  136.8060 N   0  0  0  0  0  2  0  0  0  0  0  0
  194.3280  174.5190  136.5510 C   0  0  0  0  0  2  0  0  0  0  0  0
  195.4300  174.4890  138.8140 C   0  0  0  0  0  0  0  0  0  0  0  0
  195.6060  173.0770  138.7500 N   0  0  0  0  0  1  0  0  0  0  0  0
  195.8110  175.1180  139.8350 O   0  0  0  0  0  0  0  0  0  0  0  0
  194.8190  175.1980  137.7370 N   0  0  0  0  0  2  0  0  0  0  0  0
  1 21  1  1  0  0  0
  1  4  1  0  0  0  0
  1  7  1  0  0  0  0
  2  5  1  1  0  0  0
  3 16  1  1  0  0  0
  3  6  1  0  0  0  0
  5  6  1  0  0  0  0
  6 17  1  0  0  0  0
  7  2  1  0  0  0  0
  8  4  1  6  0  0  0
  8  2  1  0  0  0  0
  8  3  1  0  0  0  0
  9 14  1  0  0  0  0
 10 15  1  0  0  0  0
 10 16  1  0  0  0  0
 11  9  2  0  0  0  0
 12 14  1  0  0  0  0
 13 11  2  0  0  0  0
 15  9  1  0  0  0  0
 16 12  1  0  0  0  0
 17 18  1  1  0  0  0
 17 20  1  0  0  0  0
 20 19  1  0  0  0  0
 22 21  1  0  0  0  0
 23 22  2  0  0  0  0
 24 25  1  0  0  0  0
 24 22  1  0  0  0  0
 26 25  1  0  0  0  0
 26 30  1  0  0  0  0
 27 29  2  0  0  0  0
 28 27  1  0  0  0  0
 30 27  1  0  0  0  0
M  END
>  <MODEL>
7

>  <REMARK>
 VINA RESULT:      -6.8      2.733      4.202
  Name = 
  8 active torsions:
  status: ('A' for Active; 'I' for Inactive)
    1  A    between atoms: C_4  and  C_25
    2  A    between atoms: N_5  and  C_7
    3  A    between atoms: N_5  and  N_26
    4  A    between atoms: C_6  and  C_21
    5  A    between atoms: C_7  and  N_29
    6  A    between atoms: C_10  and  C_24
    7  A    between atoms: C_13  and  C_21
    8  A    between atoms: N_22  and  C_25
                            x       y       z     vdW  Elec       q    Type
                         _______ _______ _______ _____ _____    ______ ____

>  <TORSDO>
F 8

$$$$
=
 OpenBabel11062413193D

 30 32  0  0  1  0  0  0  0  0999 V2000
  184.8000  178.2630  143.1350 C   0  0  1  0  0  3  0  0  0  0  0  0
  184.3460  179.2730  140.8920 C   0  0  2  0  0  3  0  0  0  0  0  0
  182.1710  178.7400  140.4090 C   0  0  2  0  0  3  0  0  0  0  0  0
  183.3140  178.2930  142.7350 C   0  0  0  0  0  2  0  0  0  0  0  0
  184.2060  179.3280  139.3990 C   0  0  0  0  0  2  0  0  0  0  0  0
  182.7550  179.2340  139.1430 N   0  0  0  0  0  0  0  0  0  0  0  0
  185.8430  178.6520  141.6540 S   0  0  0  0  0  0  0  0  0  0  0  0
  183.3430  178.2700  141.2350 C   0  0  2  0  0  3  0  0  0  0  0  0
  179.6230  175.2560  140.5860 C   0  0  0  0  0  0  0  0  0  0  0  0
  181.7980  176.2500  139.9710 C   0  0  0  0  0  2  0  0  0  0  0  0
  179.2720  174.1920  141.2500 C   0  0  0  0  0  0  0  0  0  0  0  0
  180.0690  177.6000  141.2200 C   0  0  0  0  0  2  0  0  0  0  0  0
  178.9360  173.1810  141.8800 O   0  0  0  0  0  0  0  0  0  0  0  0
  178.9890  176.5780  140.8730 C   0  0  0  0  0  2  0  0  0  0  0  0
  180.7500  175.2020  139.6050 C   0  0  0  0  0  2  0  0  0  0  0  0
  181.1480  177.6320  140.1340 C   0  0  0  0  0  3  0  0  0  0  0  0
  182.2350  180.5850  138.8910 C   0  0  1  0  0  3  0  0  0  0  0  0
  183.2900  181.4870  138.7180 O   0  0  0  0  0  1  0  0  0  0  0  0
  181.4450  179.3630  136.9970 O   0  0  0  0  0  1  0  0  0  0  0  0
  181.3730  180.6010  137.6350 C   0  0  0  0  0  2  0  0  0  0  0  0
  185.0340  179.2810  144.2400 C   0  0  0  0  0  2  0  0  0  0  0  0
  185.2240  178.6150  145.5640 C   0  0  0  0  0  0  0  0  0  0  0  0
  184.2930  178.6400  146.4090 O   0  0  0  0  0  0  0  0  0  0  0  0
  186.4450  177.9410  145.8800 N   0  0  0  0  0  2  0  0  0  0  0  0
  187.5080  177.8490  144.9700 N   0  0  0  0  0  2  0  0  0  0  0  0
  188.7050  177.5120  145.7220 C   0  0  0  0  0  2  0  0  0  0  0  0
  190.7120  177.6820  144.2120 C   0  0  0  0  0  0  0  0  0  0  0  0
  190.4890  176.3690  143.7070 N   0  0  0  0  0  1  0  0  0  0  0  0
  191.6970  178.3480  143.8000 O   0  0  0  0  0  0  0  0  0  0  0  0
  189.8360  178.2480  145.1850 N   0  0  0  0  0  2  0  0  0  0  0  0
  1 21  1  1  0  0  0
  2  5  1  6  0  0  0
  2  8  1  0  0  0  0
  2  7  1  0  0  0  0
  3 16  1  6  0  0  0
  3  8  1  0  0  0  0
  4  1  1  0  0  0  0
  6  5  1  0  0  0  0
  6  3  1  0  0  0  0
  7  1  1  0  0  0  0
  8  4  1  1  0  0  0
  9 14  1  0  0  0  0
  9 11  2  0  0  0  0
 10 16  1  0  0  0  0
 11 13  2  0  0  0  0
 14 12  1  0  0  0  0
 15 10  1  0  0  0  0
 15  9  1  0  0  0  0
 16 12  1  0  0  0  0
 17 18  1  6  0  0  0
 17  6  1  0  0  0  0
 19 20  1  0  0  0  0
 20 17  1  0  0  0  0
 21 22  1  0  0  0  0
 22 24  1  0  0  0  0
 22 23  2  0  0  0  0
 25 26  1  0  0  0  0
 25 24  1  0  0  0  0
 27 30  1  0  0  0  0
 28 27  1  0  0  0  0
 29 27  2  0  0  0  0
 30 26  1  0  0  0  0
M  END
>  <MODEL>
8

>  <REMARK>
 VINA RESULT:      -6.7      4.299      8.110
  Name = 
  8 active torsions:
  status: ('A' for Active; 'I' for Inactive)
    1  A    between atoms: C_4  and  C_25
    2  A    between atoms: N_5  and  C_7
    3  A    between atoms: N_5  and  N_26
    4  A    between atoms: C_6  and  C_21
    5  A    between atoms: C_7  and  N_29
    6  A    between atoms: C_10  and  C_24
    7  A    between atoms: C_13  and  C_21
    8  A    between atoms: N_22  and  C_25
                            x       y       z     vdW  Elec       q    Type
                         _______ _______ _______ _____ _____    ______ ____

>  <TORSDO>
F 8

$$$$
=
 OpenBabel11062413193D

 30 32  0  0  1  0  0  0  0  0999 V2000
  193.0100  175.8280  137.7220 C   0  0  1  0  0  3  0  0  0  0  0  0
  190.7130  176.4810  138.4660 C   0  0  2  0  0  3  0  0  0  0  0  0
  190.9920  177.4820  140.5080 C   0  0  2  0  0  3  0  0  0  0  0  0
  192.9740  176.7850  138.9270 C   0  0  0  0  0  2  0  0  0  0  0  0
  189.4050  176.3610  139.1910 C   0  0  0  0  0  2  0  0  0  0  0  0
  189.5400  177.2290  140.3780 N   0  0  0  0  0  0  0  0  0  0  0  0
  191.3110  175.1540  137.4220 S   0  0  0  0  0  0  0  0  0  0  0  0
  191.6550  176.4940  139.5800 C   0  0  2  0  0  3  0  0  0  0  0  0
  191.1930  177.1040  144.8050 C   0  0  0  0  0  0  0  0  0  0  0  0
  191.1180  178.5670  142.8180 C   0  0  0  0  0  2  0  0  0  0  0  0
  190.5390  177.0760  145.9320 C   0  0  0  0  0  0  0  0  0  0  0  0
  190.8360  176.0680  142.5930 C   0  0  0  0  0  2  0  0  0  0  0  0
  189.9190  177.0490  147.0030 O   0  0  0  0  0  0  0  0  0  0  0  0
  191.3830  175.8570  144.0030 C   0  0  0  0  0  2  0  0  0  0  0  0
  191.6660  178.4010  144.2340 C   0  0  0  0  0  2  0  0  0  0  0  0
  191.4370  177.3290  141.9660 C   0  0  0  0  0  3  0  0  0  0  0  0
  188.8710  178.5080  140.1030 C   0  0  1  0  0  3  0  0  0  0  0  0
  188.5380  178.6000  138.7470 O   0  0  0  0  0  1  0  0  0  0  0  0
  187.7520  177.9750  142.1450 O   0  0  0  0  0  1  0  0  0  0  0  0
  187.5940  178.6320  140.9240 C   0  0  0  0  0  2  0  0  0  0  0  0
  193.5080  176.5900  136.5030 C   0  0  0  0  0  2  0  0  0  0  0  0
  194.0500  175.6620  135.4640 C   0  0  0  0  0  0  0  0  0  0  0  0
  193.2690  175.1560  134.6180 O   0  0  0  0  0  0  0  0  0  0  0  0
  195.4450  175.3490  135.4120 N   0  0  0  0  0  2  0  0  0  0  0  0
  196.3710  175.9060  136.3060 N   0  0  0  0  0  2  0  0  0  0  0  0
  197.2210  174.8290  136.7870 C   0  0  0  0  0  2  0  0  0  0  0  0
  196.9710  174.6580  139.2860 C   0  0  0  0  0  0  0  0  0  0  0  0
  195.8140  173.8400  139.1510 N   0  0  0  0  0  1  0  0  0  0  0  0
  197.3800  174.9740  140.4330 O   0  0  0  0  0  0  0  0  0  0  0  0
  197.6680  175.1320  138.1340 N   0  0  0  0  0  2  0  0  0  0  0  0
  1 21  1  6  0  0  0
  1  4  1  0  0  0  0
  2  5  1  1  0  0  0
  2  8  1  0  0  0  0
  3 16  1  1  0  0  0
  5  6  1  0  0  0  0
  6  3  1  0  0  0  0
  7  1  1  0  0  0  0
  7  2  1  0  0  0  0
  8  4  1  6  0  0  0
  8  3  1  0  0  0  0
  9 11  2  0  0  0  0
 10 15  1  0  0  0  0
 11 13  2  0  0  0  0
 12 14  1  0  0  0  0
 14  9  1  0  0  0  0
 15  9  1  0  0  0  0
 16 12  1  0  0  0  0
 16 10  1  0  0  0  0
 17 18  1  6  0  0  0
 17  6  1  0  0  0  0
 17 20  1  0  0  0  0
 20 19  1  0  0  0  0
 22 21  1  0  0  0  0
 23 22  2  0  0  0  0
 24 22  1  0  0  0  0
 24 25  1  0  0  0  0
 25 26  1  0  0  0  0
 26 30  1  0  0  0  0
 27 29  2  0  0  0  0
 28 27  1  0  0  0  0
 30 27  1  0  0  0  0
M  END
>  <MODEL>
9

>  <REMARK>
 VINA RESULT:      -6.7      3.788      7.169
  Name = 
  8 active torsions:
  status: ('A' for Active; 'I' for Inactive)
    1  A    between atoms: C_4  and  C_25
    2  A    between atoms: N_5  and  C_7
    3  A    between atoms: N_5  and  N_26
    4  A    between atoms: C_6  and  C_21
    5  A    between atoms: C_7  and  N_29
    6  A    between atoms: C_10  and  C_24
    7  A    between atoms: C_13  and  C_21
    8  A    between atoms: N_22  and  C_25
                            x       y       z     vdW  Elec       q    Type
                         _______ _______ _______ _____ _____    ______ ____

>  <TORSDO>
F 8

$$$$
