=
 OpenBabel11062417533D

 39 41  0  0  1  0  0  0  0  0999 V2000
  190.6270  176.7540  141.5480 C   0  0  2  0  0  3  0  0  0  0  0  0
  191.5010  177.5050  140.5600 C   0  0  0  0  0  2  0  0  0  0  0  0
  190.3380  176.6810  140.0460 C   0  0  2  0  0  3  0  0  0  0  0  0
  189.1980  177.5950  139.6020 C   0  0  0  0  0  2  0  0  0  0  0  0
  186.5800  177.7760  137.0400 C   0  0  0  0  0  0  0  0  0  0  0  0
  188.7840  177.8980  135.8070 C   0  0  0  0  0  2  0  0  0  0  0  0
  187.3200  178.3320  135.8460 C   0  0  0  0  0  2  0  0  0  0  0  0
  189.4210  178.1280  137.1710 C   0  0  0  0  0  2  0  0  0  0  0  0
  187.2350  177.3430  138.1350 C   0  0  0  0  0  3  0  0  0  0  0  0
  188.7350  177.2340  138.2020 C   0  0  2  0  0  3  0  0  0  0  0  0
  184.5580  177.1770  135.9600 O   0  0  0  0  0  1  0  0  0  0  0  0
  185.0860  177.8670  137.0520 C   0  0  1  0  0  3  0  0  0  0  0  0
  184.5540  177.3100  138.2950 N   0  0  0  0  0  2  0  0  0  0  0  0
  183.4410  178.1160  138.8120 C   0  0  0  0  0  0  0  0  0  0  0  0
  182.9430  177.5210  140.1410 C   0  0  0  0  0  2  0  0  0  0  0  0
  181.9520  178.3250  140.7090 O   0  0  0  0  0  1  0  0  0  0  0  0
  184.9790  179.5070  140.0370 O   0  0  0  0  0  1  0  0  0  0  0  0
  183.9710  179.5300  139.0690 C   0  0  0  0  0  2  0  0  0  0  0  0
  182.3960  178.1490  137.8560 O   0  0  0  0  0  0  0  0  0  0  0  0
  182.0360  179.4100  137.7020 O   0  0  0  0  0  1  0  0  0  0  0  0
  189.7810  177.6580  142.2080 O   0  0  0  0  0  0  0  0  0  0  0  0
  189.5560  177.1000  143.4720 C   0  0  2  0  0  3  0  0  0  0  0  0
  188.1860  176.5120  143.5380 C   0  0  0  0  0  3  0  0  0  0  0  0
  186.6760  177.0660  145.5920 C   0  0  0  0  0  3  0  0  0  0  0  0
  187.4220  176.7810  144.5600 C   0  0  0  0  0  0  0  0  0  0  0  0
  186.4700  178.4820  146.0300 C   0  0  2  0  0  3  0  0  0  0  0  0
  186.6130  178.5970  147.4750 N   0  0  0  0  0  2  0  0  0  0  0  0
  187.7710  177.8050  147.8540 C   0  0  0  0  0  1  0  0  0  0  0  0
  184.1780  178.9240  146.4000 O   0  0  0  0  0  0  0  0  0  0  0  0
  185.1080  178.9490  145.6060 C   0  0  0  0  0  0  0  0  0  0  0  0
  184.3490  178.4420  143.2900 C   0  0  0  0  0  2  0  0  0  0  0  0
  184.8880  179.5070  144.2310 C   0  0  0  0  0  3  0  0  0  0  0  0
  183.4060  179.4530  143.8990 C   0  0  0  0  0  2  0  0  0  0  0  0
  189.7540  178.1370  144.5780 C   0  0  2  0  0  3  0  0  0  0  0  0
  190.5950  179.3200  144.1040 C   0  0  0  0  0  1  0  0  0  0  0  0
  190.3840  177.4830  145.7990 C   0  0  0  0  0  2  0  0  0  0  0  0
  191.5930  176.6440  145.4120 C   0  0  0  0  0  2  0  0  0  0  0  0
  192.0540  175.8020  146.5870 C   0  0  0  0  0  2  0  0  0  0  0  0
  192.2080  176.6140  147.7100 O   0  0  0  0  0  1  0  0  0  0  0  0
  1 21  1  1  0  0  0
  2  1  1  0  0  0  0
  3  4  1  1  0  0  0
  3  2  1  0  0  0  0
  3  1  1  0  0  0  0
  5 12  1  0  0  0  0
  5  9  2  0  0  0  0
  6  7  1  0  0  0  0
  6  8  1  0  0  0  0
  7  5  1  0  0  0  0
  8 10  1  0  0  0  0
  9 10  1  0  0  0  0
 10  4  1  1  0  0  0
 12 11  1  6  0  0  0
 12 13  1  0  0  0  0
 13 14  1  0  0  0  0
 14 18  1  0  0  0  0
 14 15  1  0  0  0  0
 15 16  1  0  0  0  0
 18 17  1  0  0  0  0
 19 14  1  0  0  0  0
 20 19  1  0  0  0  0
 21 22  1  0  0  0  0
 22 23  1  6  0  0  0
 22 34  1  0  0  0  0
 23 25  2  0  0  0  0
 25 24  2  0  0  0  0
 26 24  1  1  0  0  0
 26 27  1  0  0  0  0
 27 28  1  0  0  0  0
 30 26  1  0  0  0  0
 30 29  2  0  0  0  0
 31 33  1  0  0  0  0
 31 32  1  0  0  0  0
 32 30  1  0  0  0  0
 33 32  1  0  0  0  0
 34 35  1  6  0  0  0
 34 36  1  0  0  0  0
 37 36  1  0  0  0  0
 37 38  1  0  0  0  0
 38 39  1  0  0  0  0
M  END
>  <MODEL>
1

>  <REMARK>
 VINA RESULT:      -7.4      0.000      0.000
  Name = 
  19 active torsions:
  status: ('A' for Active; 'I' for Inactive)
    1  A    between atoms: C_1  and  C_6
    2  A    between atoms: C_1  and  O_21
    3  A    between atoms: C_1  and  N_32
    4  A    between atoms: C_1  and  C_36
    5  A    between atoms: C_2  and  C_31
    6  A    between atoms: C_4  and  C_12
    7  A    between atoms: C_5  and  C_35
    8  A    between atoms: C_8  and  C_16
    9  A    between atoms: N_10  and  C_12
   10  A    between atoms: C_12  and  C_34
   11  A    between atoms: C_14  and  O_19
   12  A    between atoms: C_16  and  C_26
   13  A    between atoms: C_17  and  C_26
   14  A    between atoms: C_17  and  C_31
   15  A    between atoms: O_19  and  C_31
   16  A    between atoms: C_20  and  C_24
   17  A    between atoms: C_20  and  C_30
   18  A    between atoms: C_28  and  C_34
   19  A    between atoms: N_32  and  C_35
                            x       y       z     vdW  Elec       q    Type
                         _______ _______ _______ _____ _____    ______ ____

>  <TORSDO>
F 19

$$$$
=
 OpenBabel11062417533D

 39 41  0  0  1  0  0  0  0  0999 V2000
  188.2600  178.4400  140.3230 C   0  0  2  0  0  3  0  0  0  0  0  0
  188.6500  177.4160  141.3740 C   0  0  0  0  0  2  0  0  0  0  0  0
  187.7130  178.5470  141.7500 C   0  0  2  0  0  3  0  0  0  0  0  0
  186.2850  178.0240  141.8940 C   0  0  0  0  0  2  0  0  0  0  0  0
  187.4590  177.8310  145.3630 C   0  0  0  0  0  0  0  0  0  0  0  0
  185.0400  178.5590  145.4760 C   0  0  0  0  0  2  0  0  0  0  0  0
  186.4270  178.6430  146.1100 C   0  0  0  0  0  2  0  0  0  0  0  0
  185.1480  178.8070  143.9770 C   0  0  0  0  0  2  0  0  0  0  0  0
  187.2720  177.4630  144.0810 C   0  0  0  0  0  3  0  0  0  0  0  0
  185.9790  177.6930  143.3430 C   0  0  2  0  0  3  0  0  0  0  0  0
  188.5740  177.0570  147.3060 O   0  0  0  0  0  1  0  0  0  0  0  0
  188.7770  177.5780  146.0270 C   0  0  1  0  0  3  0  0  0  0  0  0
  189.5740  176.6460  145.2310 N   0  0  0  0  0  2  0  0  0  0  0  0
  190.9160  177.1790  144.9660 C   0  0  0  0  0  0  0  0  0  0  0  0
  191.6360  176.2850  143.9420 C   0  0  0  0  0  2  0  0  0  0  0  0
  190.7270  175.4760  143.2550 O   0  0  0  0  0  1  0  0  0  0  0  0
  192.0000  179.1670  144.1470 O   0  0  0  0  0  1  0  0  0  0  0  0
  190.7520  178.5810  144.3730 C   0  0  0  0  0  2  0  0  0  0  0  0
  191.6490  177.2410  146.1780 O   0  0  0  0  0  0  0  0  0  0  0  0
  192.1270  176.0330  146.4170 O   0  0  0  0  0  1  0  0  0  0  0  0
  187.3280  177.8750  139.4390 O   0  0  0  0  0  0  0  0  0  0  0  0
  187.6760  178.3600  138.1730 C   0  0  2  0  0  3  0  0  0  0  0  0
  186.5310  178.2000  137.2290 C   0  0  0  0  0  3  0  0  0  0  0  0
  184.2190  177.4430  138.1720 C   0  0  0  0  0  3  0  0  0  0  0  0
  185.3710  177.8220  137.6890 C   0  0  0  0  0  0  0  0  0  0  0  0
  183.6090  178.1390  139.3480 C   0  0  2  0  0  3  0  0  0  0  0  0
  182.4290  177.4210  139.8130 N   0  0  0  0  0  2  0  0  0  0  0  0
  182.5110  176.0730  139.2750 C   0  0  0  0  0  1  0  0  0  0  0  0
  184.0460  180.4510  139.1310 O   0  0  0  0  0  0  0  0  0  0  0  0
  183.2420  179.5450  138.9700 C   0  0  0  0  0  0  0  0  0  0  0  0
  180.9830  180.5310  139.3190 C   0  0  0  0  0  2  0  0  0  0  0  0
  181.9140  179.8410  138.3360 C   0  0  0  0  0  3  0  0  0  0  0  0
  181.7120  181.3450  138.2760 C   0  0  0  0  0  2  0  0  0  0  0  0
  188.9230  177.6590  137.6350 C   0  0  2  0  0  3  0  0  0  0  0  0
  189.2190  178.0530  136.1900 C   0  0  0  0  0  1  0  0  0  0  0  0
  188.7670  176.1500  137.7600 C   0  0  0  0  0  2  0  0  0  0  0  0
  189.8800  175.4180  137.0240 C   0  0  0  0  0  2  0  0  0  0  0  0
  191.1340  175.3610  137.8760 C   0  0  0  0  0  2  0  0  0  0  0  0
  191.7320  174.1090  137.7410 O   0  0  0  0  0  1  0  0  0  0  0  0
  1 21  1  6  0  0  0
  1  2  1  0  0  0  0
  1  3  1  0  0  0  0
  2  3  1  0  0  0  0
  3  4  1  6  0  0  0
  5 12  1  0  0  0  0
  5  7  1  0  0  0  0
  6  7  1  0  0  0  0
  8  6  1  0  0  0  0
  9  5  2  0  0  0  0
 10  4  1  6  0  0  0
 10  8  1  0  0  0  0
 10  9  1  0  0  0  0
 12 11  1  1  0  0  0
 13 12  1  0  0  0  0
 14 13  1  0  0  0  0
 14 19  1  0  0  0  0
 15 14  1  0  0  0  0
 16 15  1  0  0  0  0
 17 18  1  0  0  0  0
 18 14  1  0  0  0  0
 19 20  1  0  0  0  0
 22 23  1  6  0  0  0
 22 21  1  0  0  0  0
 23 25  2  0  0  0  0
 25 24  2  0  0  0  0
 26 24  1  6  0  0  0
 26 27  1  0  0  0  0
 28 27  1  0  0  0  0
 30 29  2  0  0  0  0
 30 26  1  0  0  0  0
 32 30  1  0  0  0  0
 32 31  1  0  0  0  0
 33 32  1  0  0  0  0
 33 31  1  0  0  0  0
 34 35  1  6  0  0  0
 34 36  1  0  0  0  0
 34 22  1  0  0  0  0
 37 36  1  0  0  0  0
 37 38  1  0  0  0  0
 39 38  1  0  0  0  0
M  END
>  <MODEL>
2

>  <REMARK>
 VINA RESULT:      -7.0      2.186      8.229
  Name = 
  19 active torsions:
  status: ('A' for Active; 'I' for Inactive)
    1  A    between atoms: C_1  and  C_6
    2  A    between atoms: C_1  and  O_21
    3  A    between atoms: C_1  and  N_32
    4  A    between atoms: C_1  and  C_36
    5  A    between atoms: C_2  and  C_31
    6  A    between atoms: C_4  and  C_12
    7  A    between atoms: C_5  and  C_35
    8  A    between atoms: C_8  and  C_16
    9  A    between atoms: N_10  and  C_12
   10  A    between atoms: C_12  and  C_34
   11  A    between atoms: C_14  and  O_19
   12  A    between atoms: C_16  and  C_26
   13  A    between atoms: C_17  and  C_26
   14  A    between atoms: C_17  and  C_31
   15  A    between atoms: O_19  and  C_31
   16  A    between atoms: C_20  and  C_24
   17  A    between atoms: C_20  and  C_30
   18  A    between atoms: C_28  and  C_34
   19  A    between atoms: N_32  and  C_35
                            x       y       z     vdW  Elec       q    Type
                         _______ _______ _______ _____ _____    ______ ____

>  <TORSDO>
F 19

$$$$
=
 OpenBabel11062417533D

 39 41  0  0  1  0  0  0  0  0999 V2000
  187.0250  177.4060  143.5550 C   0  0  2  0  0  3  0  0  0  0  0  0
  187.7570  176.0820  143.4390 C   0  0  0  0  0  2  0  0  0  0  0  0
  188.0470  177.1810  142.4360 C   0  0  2  0  0  3  0  0  0  0  0  0
  189.4090  177.8110  142.7220 C   0  0  0  0  0  2  0  0  0  0  0  0
  190.6970  176.6870  139.4780 C   0  0  0  0  0  0  0  0  0  0  0  0
  192.7150  177.3640  140.8420 C   0  0  0  0  0  2  0  0  0  0  0  0
  192.0900  177.2710  139.4520 C   0  0  0  0  0  2  0  0  0  0  0  0
  191.7250  178.0060  141.8050 C   0  0  0  0  0  2  0  0  0  0  0  0
  189.9590  176.6790  140.6040 C   0  0  0  0  0  3  0  0  0  0  0  0
  190.5020  177.1020  141.9430 C   0  0  2  0  0  3  0  0  0  0  0  0
  190.3240  174.9040  137.9620 O   0  0  0  0  0  1  0  0  0  0  0  0
  190.0840  176.2610  138.1800 C   0  0  1  0  0  3  0  0  0  0  0  0
  188.6440  176.5150  138.1920 N   0  0  0  0  0  2  0  0  0  0  0  0
  188.2680  177.5270  137.1970 C   0  0  0  0  0  0  0  0  0  0  0  0
  189.4560  177.7950  136.2570 C   0  0  0  0  0  2  0  0  0  0  0  0
  189.1610  177.3980  134.9500 O   0  0  0  0  0  1  0  0  0  0  0  0
  185.8970  177.1300  137.0630 O   0  0  0  0  0  1  0  0  0  0  0  0
  187.1040  176.9620  136.3780 C   0  0  0  0  0  2  0  0  0  0  0  0
  187.8740  178.7170  137.8570 O   0  0  0  0  0  0  0  0  0  0  0  0
  188.9630  179.4290  138.0800 O   0  0  0  0  0  1  0  0  0  0  0  0
  187.5590  178.1470  144.6200 O   0  0  0  0  0  0  0  0  0  0  0  0
  186.8910  177.6890  145.7620 C   0  0  2  0  0  3  0  0  0  0  0  0
  185.8280  178.6580  146.1580 C   0  0  0  0  0  3  0  0  0  0  0  0
  184.2780  179.6510  144.3090 C   0  0  0  0  0  3  0  0  0  0  0  0
  185.0470  179.1620  145.2420 C   0  0  0  0  0  0  0  0  0  0  0  0
  183.5880  178.7550  143.3280 C   0  0  2  0  0  3  0  0  0  0  0  0
  183.9730  179.0940  141.9650 N   0  0  0  0  0  2  0  0  0  0  0  0
  184.2390  177.8430  141.2730 C   0  0  0  0  0  1  0  0  0  0  0  0
  181.5740  178.5850  144.5540 O   0  0  0  0  0  0  0  0  0  0  0  0
  182.1000  178.8790  143.4910 C   0  0  0  0  0  0  0  0  0  0  0  0
  180.5320  178.2990  141.6460 C   0  0  0  0  0  2  0  0  0  0  0  0
  181.2550  179.4190  142.3750 C   0  0  0  0  0  3  0  0  0  0  0  0
  179.7930  179.1310  142.6680 C   0  0  0  0  0  2  0  0  0  0  0  0
  187.8650  177.4530  146.9160 C   0  0  2  0  0  3  0  0  0  0  0  0
  187.5650  178.3580  148.1080 C   0  0  0  0  0  1  0  0  0  0  0  0
  189.2970  177.6510  146.4380 C   0  0  0  0  0  2  0  0  0  0  0  0
  190.2550  176.7230  147.1700 C   0  0  0  0  0  2  0  0  0  0  0  0
  191.5890  176.6600  146.4500 C   0  0  0  0  0  2  0  0  0  0  0  0
  192.5400  176.0730  147.2840 O   0  0  0  0  0  1  0  0  0  0  0  0
  1 21  1  1  0  0  0
  2  1  1  0  0  0  0
  3  4  1  1  0  0  0
  3  2  1  0  0  0  0
  3  1  1  0  0  0  0
  5  9  2  0  0  0  0
  6  8  1  0  0  0  0
  7  5  1  0  0  0  0
  7  6  1  0  0  0  0
  8 10  1  0  0  0  0
  9 10  1  0  0  0  0
 10  4  1  6  0  0  0
 12 11  1  1  0  0  0
 12 13  1  0  0  0  0
 12  5  1  0  0  0  0
 14 19  1  0  0  0  0
 14 13  1  0  0  0  0
 15 14  1  0  0  0  0
 16 15  1  0  0  0  0
 18 17  1  0  0  0  0
 18 14  1  0  0  0  0
 19 20  1  0  0  0  0
 21 22  1  0  0  0  0
 22 23  1  1  0  0  0
 22 34  1  0  0  0  0
 24 25  2  0  0  0  0
 25 23  2  0  0  0  0
 26 30  1  0  0  0  0
 26 24  1  1  0  0  0
 27 26  1  0  0  0  0
 28 27  1  0  0  0  0
 30 29  2  0  0  0  0
 31 32  1  0  0  0  0
 31 33  1  0  0  0  0
 32 33  1  0  0  0  0
 32 30  1  0  0  0  0
 34 35  1  1  0  0  0
 36 34  1  0  0  0  0
 36 37  1  0  0  0  0
 38 37  1  0  0  0  0
 38 39  1  0  0  0  0
M  END
>  <MODEL>
3

>  <REMARK>
 VINA RESULT:      -6.8      2.277      4.778
  Name = 
  19 active torsions:
  status: ('A' for Active; 'I' for Inactive)
    1  A    between atoms: C_1  and  C_6
    2  A    between atoms: C_1  and  O_21
    3  A    between atoms: C_1  and  N_32
    4  A    between atoms: C_1  and  C_36
    5  A    between atoms: C_2  and  C_31
    6  A    between atoms: C_4  and  C_12
    7  A    between atoms: C_5  and  C_35
    8  A    between atoms: C_8  and  C_16
    9  A    between atoms: N_10  and  C_12
   10  A    between atoms: C_12  and  C_34
   11  A    between atoms: C_14  and  O_19
   12  A    between atoms: C_16  and  C_26
   13  A    between atoms: C_17  and  C_26
   14  A    between atoms: C_17  and  C_31
   15  A    between atoms: O_19  and  C_31
   16  A    between atoms: C_20  and  C_24
   17  A    between atoms: C_20  and  C_30
   18  A    between atoms: C_28  and  C_34
   19  A    between atoms: N_32  and  C_35
                            x       y       z     vdW  Elec       q    Type
                         _______ _______ _______ _____ _____    ______ ____

>  <TORSDO>
F 19

$$$$
=
 OpenBabel11062417533D

 39 41  0  0  1  0  0  0  0  0999 V2000
  188.4480  177.7170  143.4130 C   0  0  2  0  0  3  0  0  0  0  0  0
  187.7270  176.3820  143.3950 C   0  0  0  0  0  2  0  0  0  0  0  0
  186.9480  177.6420  143.7190 C   0  0  2  0  0  3  0  0  0  0  0  0
  186.0680  178.0370  142.5360 C   0  0  0  0  0  2  0  0  0  0  0  0
  182.4640  178.7120  142.4790 C   0  0  0  0  0  0  0  0  0  0  0  0
  183.2550  179.2980  144.8080 C   0  0  0  0  0  2  0  0  0  0  0  0
  182.1110  178.7650  143.9470 C   0  0  0  0  0  2  0  0  0  0  0  0
  184.5470  178.5790  144.4430 C   0  0  0  0  0  2  0  0  0  0  0  0
  183.7440  178.7070  142.0630 C   0  0  0  0  0  3  0  0  0  0  0  0
  184.9100  178.9040  142.9950 C   0  0  2  0  0  3  0  0  0  0  0  0
  180.2830  179.3370  141.7930 O   0  0  0  0  0  1  0  0  0  0  0  0
  181.3570  178.4990  141.4930 C   0  0  1  0  0  3  0  0  0  0  0  0
  181.8310  178.7640  140.1350 N   0  0  0  0  0  2  0  0  0  0  0  0
  181.5110  177.6550  139.2290 C   0  0  0  0  0  0  0  0  0  0  0  0
  180.1130  177.8670  138.6220 C   0  0  0  0  0  2  0  0  0  0  0  0
  180.1390  178.8590  137.6390 O   0  0  0  0  0  1  0  0  0  0  0  0
  183.3920  178.7700  138.2190 O   0  0  0  0  0  1  0  0  0  0  0  0
  182.5480  177.6620  138.1010 C   0  0  0  0  0  2  0  0  0  0  0  0
  181.5670  176.4300  139.9400 O   0  0  0  0  0  0  0  0  0  0  0  0
  181.4300  175.4530  139.0620 O   0  0  0  0  0  1  0  0  0  0  0  0
  188.7010  178.1330  142.0970 O   0  0  0  0  0  0  0  0  0  0  0  0
  189.8030  177.3790  141.6760 C   0  0  2  0  0  3  0  0  0  0  0  0
  191.0710  178.0670  142.0570 C   0  0  0  0  0  3  0  0  0  0  0  0
  191.7600  178.1340  144.5720 C   0  0  0  0  0  3  0  0  0  0  0  0
  191.4260  178.1070  143.3110 C   0  0  0  0  0  0  0  0  0  0  0  0
  191.7810  176.8830  145.3920 C   0  0  2  0  0  3  0  0  0  0  0  0
  191.1520  175.7850  144.6690 N   0  0  0  0  0  2  0  0  0  0  0  0
  192.1450  174.7310  144.5480 C   0  0  0  0  0  1  0  0  0  0  0  0
  191.6400  176.9040  147.7520 O   0  0  0  0  0  0  0  0  0  0  0  0
  191.0680  177.1190  146.6930 C   0  0  0  0  0  0  0  0  0  0  0  0
  188.7120  176.7190  147.3900 C   0  0  0  0  0  2  0  0  0  0  0  0
  189.6750  177.6760  146.7070 C   0  0  0  0  0  3  0  0  0  0  0  0
  189.2450  177.9140  148.1450 C   0  0  0  0  0  2  0  0  0  0  0  0
  189.7560  177.1250  140.1700 C   0  0  2  0  0  3  0  0  0  0  0  0
  191.1540  176.9770  139.5740 C   0  0  0  0  0  1  0  0  0  0  0  0
  188.9910  178.2430  139.4760 C   0  0  0  0  0  2  0  0  0  0  0  0
  188.4710  177.7950  138.1180 C   0  0  0  0  0  2  0  0  0  0  0  0
  186.9700  177.9920  138.0310 C   0  0  0  0  0  2  0  0  0  0  0  0
  186.5140  178.6130  139.1940 O   0  0  0  0  0  1  0  0  0  0  0  0
  1 21  1  6  0  0  0
  1  3  1  0  0  0  0
  2  1  1  0  0  0  0
  2  3  1  0  0  0  0
  3  4  1  6  0  0  0
  5  7  1  0  0  0  0
  7  6  1  0  0  0  0
  8  6  1  0  0  0  0
  9  5  2  0  0  0  0
  9 10  1  0  0  0  0
 10  4  1  6  0  0  0
 10  8  1  0  0  0  0
 12 11  1  1  0  0  0
 12  5  1  0  0  0  0
 13 12  1  0  0  0  0
 14 19  1  0  0  0  0
 14 13  1  0  0  0  0
 15 14  1  0  0  0  0
 16 15  1  0  0  0  0
 18 17  1  0  0  0  0
 18 14  1  0  0  0  0
 20 19  1  0  0  0  0
 22 23  1  6  0  0  0
 22 21  1  0  0  0  0
 23 25  2  0  0  0  0
 25 24  2  0  0  0  0
 26 24  1  6  0  0  0
 26 30  1  0  0  0  0
 27 26  1  0  0  0  0
 28 27  1  0  0  0  0
 30 32  1  0  0  0  0
 30 29  2  0  0  0  0
 31 33  1  0  0  0  0
 32 31  1  0  0  0  0
 32 33  1  0  0  0  0
 34 35  1  6  0  0  0
 34 22  1  0  0  0  0
 36 34  1  0  0  0  0
 37 36  1  0  0  0  0
 38 37  1  0  0  0  0
 38 39  1  0  0  0  0
M  END
>  <MODEL>
4

>  <REMARK>
 VINA RESULT:      -6.8      2.104      6.021
  Name = 
  19 active torsions:
  status: ('A' for Active; 'I' for Inactive)
    1  A    between atoms: C_1  and  C_6
    2  A    between atoms: C_1  and  O_21
    3  A    between atoms: C_1  and  N_32
    4  A    between atoms: C_1  and  C_36
    5  A    between atoms: C_2  and  C_31
    6  A    between atoms: C_4  and  C_12
    7  A    between atoms: C_5  and  C_35
    8  A    between atoms: C_8  and  C_16
    9  A    between atoms: N_10  and  C_12
   10  A    between atoms: C_12  and  C_34
   11  A    between atoms: C_14  and  O_19
   12  A    between atoms: C_16  and  C_26
   13  A    between atoms: C_17  and  C_26
   14  A    between atoms: C_17  and  C_31
   15  A    between atoms: O_19  and  C_31
   16  A    between atoms: C_20  and  C_24
   17  A    between atoms: C_20  and  C_30
   18  A    between atoms: C_28  and  C_34
   19  A    between atoms: N_32  and  C_35
                            x       y       z     vdW  Elec       q    Type
                         _______ _______ _______ _____ _____    ______ ____

>  <TORSDO>
F 19

$$$$
=
 OpenBabel11062417533D

 39 41  0  0  1  0  0  0  0  0999 V2000
  190.6640  176.6370  141.4220 C   0  0  2  0  0  3  0  0  0  0  0  0
  191.6130  177.4390  140.5490 C   0  0  0  0  0  2  0  0  0  0  0  0
  190.4660  176.6870  139.9040 C   0  0  2  0  0  3  0  0  0  0  0  0
  189.3750  177.6610  139.4650 C   0  0  0  0  0  2  0  0  0  0  0  0
  186.9880  176.5340  136.9200 C   0  0  0  0  0  0  0  0  0  0  0  0
  188.1400  178.5680  135.9560 C   0  0  0  0  0  2  0  0  0  0  0  0
  186.8540  177.7460  136.0280 C   0  0  0  0  0  2  0  0  0  0  0  0
  188.6690  178.8120  137.3630 C   0  0  0  0  0  2  0  0  0  0  0  0
  187.9510  176.4530  137.8580 C   0  0  0  0  0  3  0  0  0  0  0  0
  189.0490  177.4740  137.9950 C   0  0  2  0  0  3  0  0  0  0  0  0
  186.4010  174.2830  137.3750 O   0  0  0  0  0  1  0  0  0  0  0  0
  185.9220  175.4850  136.8520 C   0  0  1  0  0  3  0  0  0  0  0  0
  184.7400  175.9150  137.5970 N   0  0  0  0  0  2  0  0  0  0  0  0
  183.5220  175.7980  136.7860 C   0  0  0  0  0  0  0  0  0  0  0  0
  183.3040  177.0950  135.9870 C   0  0  0  0  0  2  0  0  0  0  0  0
  182.4980  177.9910  136.6960 O   0  0  0  0  0  1  0  0  0  0  0  0
  182.6330  174.5340  134.9390 O   0  0  0  0  0  1  0  0  0  0  0  0
  183.7250  174.6390  135.8060 C   0  0  0  0  0  2  0  0  0  0  0  0
  182.4130  175.5390  137.6300 O   0  0  0  0  0  0  0  0  0  0  0  0
  182.8510  175.5480  138.8760 O   0  0  0  0  0  1  0  0  0  0  0  0
  189.7980  177.5090  142.0990 O   0  0  0  0  0  0  0  0  0  0  0  0
  189.6780  176.9840  143.3910 C   0  0  2  0  0  3  0  0  0  0  0  0
  188.3870  176.2490  143.5290 C   0  0  0  0  0  3  0  0  0  0  0  0
  186.4450  177.3560  144.8730 C   0  0  0  0  0  3  0  0  0  0  0  0
  187.4090  176.7920  144.1990 C   0  0  0  0  0  0  0  0  0  0  0  0
  186.0180  178.7610  144.5820 C   0  0  2  0  0  3  0  0  0  0  0  0
  185.3050  179.3260  145.7200 N   0  0  0  0  0  2  0  0  0  0  0  0
  185.2000  178.2780  146.7210 C   0  0  0  0  0  1  0  0  0  0  0  0
  184.0540  178.2240  143.3820 O   0  0  0  0  0  0  0  0  0  0  0  0
  185.1420  178.7810  143.3620 C   0  0  0  0  0  0  0  0  0  0  0  0
  186.4050  178.6560  141.2210 C   0  0  0  0  0  2  0  0  0  0  0  0
  185.5640  179.5320  142.1340 C   0  0  0  0  0  3  0  0  0  0  0  0
  184.9440  178.8800  140.9100 C   0  0  0  0  0  2  0  0  0  0  0  0
  189.7910  178.0830  144.4470 C   0  0  2  0  0  3  0  0  0  0  0  0
  190.7340  179.2010  144.0070 C   0  0  0  0  0  1  0  0  0  0  0  0
  190.2430  177.4880  145.7730 C   0  0  0  0  0  2  0  0  0  0  0  0
  191.5650  176.7500  145.6230 C   0  0  0  0  0  2  0  0  0  0  0  0
  191.9010  175.9960  146.8960 C   0  0  0  0  0  2  0  0  0  0  0  0
  192.1200  176.9050  147.9310 O   0  0  0  0  0  1  0  0  0  0  0  0
  1 21  1  1  0  0  0
  2  1  1  0  0  0  0
  3  4  1  1  0  0  0
  3  2  1  0  0  0  0
  3  1  1  0  0  0  0
  5  9  2  0  0  0  0
  6  7  1  0  0  0  0
  6  8  1  0  0  0  0
  7  5  1  0  0  0  0
  8 10  1  0  0  0  0
  9 10  1  0  0  0  0
 10  4  1  1  0  0  0
 12  5  1  0  0  0  0
 12 11  1  1  0  0  0
 12 13  1  0  0  0  0
 14 13  1  0  0  0  0
 14 19  1  0  0  0  0
 15 16  1  0  0  0  0
 15 14  1  0  0  0  0
 17 18  1  0  0  0  0
 18 14  1  0  0  0  0
 19 20  1  0  0  0  0
 21 22  1  0  0  0  0
 22 23  1  6  0  0  0
 22 34  1  0  0  0  0
 23 25  2  0  0  0  0
 25 24  2  0  0  0  0
 26 24  1  1  0  0  0
 26 27  1  0  0  0  0
 27 28  1  0  0  0  0
 30 29  2  0  0  0  0
 30 26  1  0  0  0  0
 31 32  1  0  0  0  0
 32 30  1  0  0  0  0
 33 31  1  0  0  0  0
 33 32  1  0  0  0  0
 34 35  1  6  0  0  0
 34 36  1  0  0  0  0
 37 36  1  0  0  0  0
 37 38  1  0  0  0  0
 38 39  1  0  0  0  0
M  END
>  <MODEL>
5

>  <REMARK>
 VINA RESULT:      -6.7      1.749      2.500
  Name = 
  19 active torsions:
  status: ('A' for Active; 'I' for Inactive)
    1  A    between atoms: C_1  and  C_6
    2  A    between atoms: C_1  and  O_21
    3  A    between atoms: C_1  and  N_32
    4  A    between atoms: C_1  and  C_36
    5  A    between atoms: C_2  and  C_31
    6  A    between atoms: C_4  and  C_12
    7  A    between atoms: C_5  and  C_35
    8  A    between atoms: C_8  and  C_16
    9  A    between atoms: N_10  and  C_12
   10  A    between atoms: C_12  and  C_34
   11  A    between atoms: C_14  and  O_19
   12  A    between atoms: C_16  and  C_26
   13  A    between atoms: C_17  and  C_26
   14  A    between atoms: C_17  and  C_31
   15  A    between atoms: O_19  and  C_31
   16  A    between atoms: C_20  and  C_24
   17  A    between atoms: C_20  and  C_30
   18  A    between atoms: C_28  and  C_34
   19  A    between atoms: N_32  and  C_35
                            x       y       z     vdW  Elec       q    Type
                         _______ _______ _______ _____ _____    ______ ____

>  <TORSDO>
F 19

$$$$
=
 OpenBabel11062417533D

 39 41  0  0  1  0  0  0  0  0999 V2000
  182.9020  178.4900  142.6940 C   0  0  2  0  0  3  0  0  0  0  0  0
  182.3210  179.6100  143.5380 C   0  0  0  0  0  2  0  0  0  0  0  0
  183.2180  178.5760  144.1900 C   0  0  2  0  0  3  0  0  0  0  0  0
  184.5890  179.1790  144.4870 C   0  0  0  0  0  2  0  0  0  0  0  0
  187.7210  177.3740  145.1040 C   0  0  0  0  0  0  0  0  0  0  0  0
  186.9020  178.1580  147.3640 C   0  0  0  0  0  2  0  0  0  0  0  0
  188.1110  177.8450  146.4850 C   0  0  0  0  0  2  0  0  0  0  0  0
  185.9250  179.0370  146.5940 C   0  0  0  0  0  2  0  0  0  0  0  0
  186.5030  177.6300  144.5910 C   0  0  0  0  0  3  0  0  0  0  0  0
  185.3940  178.2620  145.3900 C   0  0  2  0  0  3  0  0  0  0  0  0
  188.1860  176.0440  143.1990 O   0  0  0  0  0  1  0  0  0  0  0  0
  188.7780  176.7520  144.2450 C   0  0  1  0  0  3  0  0  0  0  0  0
  189.6650  177.7830  143.7070 N   0  0  0  0  0  2  0  0  0  0  0  0
  191.0760  177.4590  143.9530 C   0  0  0  0  0  0  0  0  0  0  0  0
  191.7000  176.8590  142.6820 C   0  0  0  0  0  2  0  0  0  0  0  0
  191.2310  177.5100  141.5380 O   0  0  0  0  0  1  0  0  0  0  0  0
  190.9890  179.8650  144.0010 O   0  0  0  0  0  1  0  0  0  0  0  0
  191.8000  178.7650  144.2930 C   0  0  0  0  0  2  0  0  0  0  0  0
  191.1710  176.5480  145.0350 O   0  0  0  0  0  0  0  0  0  0  0  0
  191.8460  177.1450  146.0010 O   0  0  0  0  0  1  0  0  0  0  0  0
  183.9460  178.9920  141.9010 O   0  0  0  0  0  0  0  0  0  0  0  0
  183.9020  178.2480  140.7160 C   0  0  2  0  0  3  0  0  0  0  0  0
  184.5820  178.9940  139.6160 C   0  0  0  0  0  3  0  0  0  0  0  0
  185.7290  177.6440  137.7010 C   0  0  0  0  0  3  0  0  0  0  0  0
  185.1590  178.3300  138.6540 C   0  0  0  0  0  0  0  0  0  0  0  0
  184.9910  176.5580  136.9830 C   0  0  2  0  0  3  0  0  0  0  0  0
  185.8070  175.3550  136.8950 N   0  0  0  0  0  2  0  0  0  0  0  0
  184.9990  174.2540  137.3930 C   0  0  0  0  0  1  0  0  0  0  0  0
  185.4560  177.5330  134.8810 O   0  0  0  0  0  0  0  0  0  0  0  0
  184.6130  177.0280  135.6080 C   0  0  0  0  0  0  0  0  0  0  0  0
  182.2630  176.4800  136.2220 C   0  0  0  0  0  2  0  0  0  0  0  0
  183.2180  176.8290  135.0920 C   0  0  0  0  0  3  0  0  0  0  0  0
  182.3080  177.8910  135.6850 C   0  0  0  0  0  2  0  0  0  0  0  0
  182.4630  177.9060  140.3300 C   0  0  2  0  0  3  0  0  0  0  0  0
  182.3380  176.4760  139.8090 C   0  0  0  0  0  1  0  0  0  0  0  0
  181.9510  178.9010  139.2980 C   0  0  0  0  0  2  0  0  0  0  0  0
  180.8250  179.7520  139.8660 C   0  0  0  0  0  2  0  0  0  0  0  0
  180.7210  181.0670  139.1150 C   0  0  0  0  0  2  0  0  0  0  0  0
  181.9520  181.3700  138.5350 O   0  0  0  0  0  1  0  0  0  0  0  0
  1 21  1  6  0  0  0
  1  2  1  0  0  0  0
  1  3  1  0  0  0  0
  2  3  1  0  0  0  0
  3  4  1  6  0  0  0
  5  7  1  0  0  0  0
  7  6  1  0  0  0  0
  8  6  1  0  0  0  0
  9  5  2  0  0  0  0
  9 10  1  0  0  0  0
 10  4  1  6  0  0  0
 10  8  1  0  0  0  0
 12 11  1  6  0  0  0
 12  5  1  0  0  0  0
 13 14  1  0  0  0  0
 13 12  1  0  0  0  0
 14 18  1  0  0  0  0
 14 19  1  0  0  0  0
 15 14  1  0  0  0  0
 16 15  1  0  0  0  0
 17 18  1  0  0  0  0
 19 20  1  0  0  0  0
 22 23  1  6  0  0  0
 22 21  1  0  0  0  0
 24 25  2  0  0  0  0
 25 23  2  0  0  0  0
 26 24  1  6  0  0  0
 27 26  1  0  0  0  0
 27 28  1  0  0  0  0
 29 30  2  0  0  0  0
 30 26  1  0  0  0  0
 32 30  1  0  0  0  0
 32 33  1  0  0  0  0
 32 31  1  0  0  0  0
 33 31  1  0  0  0  0
 34 35  1  6  0  0  0
 34 22  1  0  0  0  0
 36 37  1  0  0  0  0
 36 34  1  0  0  0  0
 38 37  1  0  0  0  0
 39 38  1  0  0  0  0
M  END
>  <MODEL>
6

>  <REMARK>
 VINA RESULT:      -6.7      2.275      9.576
  Name = 
  19 active torsions:
  status: ('A' for Active; 'I' for Inactive)
    1  A    between atoms: C_1  and  C_6
    2  A    between atoms: C_1  and  O_21
    3  A    between atoms: C_1  and  N_32
    4  A    between atoms: C_1  and  C_36
    5  A    between atoms: C_2  and  C_31
    6  A    between atoms: C_4  and  C_12
    7  A    between atoms: C_5  and  C_35
    8  A    between atoms: C_8  and  C_16
    9  A    between atoms: N_10  and  C_12
   10  A    between atoms: C_12  and  C_34
   11  A    between atoms: C_14  and  O_19
   12  A    between atoms: C_16  and  C_26
   13  A    between atoms: C_17  and  C_26
   14  A    between atoms: C_17  and  C_31
   15  A    between atoms: O_19  and  C_31
   16  A    between atoms: C_20  and  C_24
   17  A    between atoms: C_20  and  C_30
   18  A    between atoms: C_28  and  C_34
   19  A    between atoms: N_32  and  C_35
                            x       y       z     vdW  Elec       q    Type
                         _______ _______ _______ _____ _____    ______ ____

>  <TORSDO>
F 19

$$$$
=
 OpenBabel11062417533D

 39 41  0  0  1  0  0  0  0  0999 V2000
  187.9260  176.5470  143.3520 C   0  0  2  0  0  3  0  0  0  0  0  0
  189.3580  176.0590  143.2320 C   0  0  0  0  0  2  0  0  0  0  0  0
  188.6750  176.6640  142.0210 C   0  0  2  0  0  3  0  0  0  0  0  0
  189.2190  178.0650  141.7520 C   0  0  0  0  0  2  0  0  0  0  0  0
  190.2740  176.6980  138.5170 C   0  0  0  0  0  0  0  0  0  0  0  0
  188.3350  178.2460  138.0300 C   0  0  0  0  0  2  0  0  0  0  0  0
  189.0800  176.9730  137.6330 C   0  0  0  0  0  2  0  0  0  0  0  0
  188.0840  178.2430  139.5320 C   0  0  0  0  0  2  0  0  0  0  0  0
  190.3850  177.2480  139.7410 C   0  0  0  0  0  3  0  0  0  0  0  0
  189.4250  178.2830  140.2640 C   0  0  2  0  0  3  0  0  0  0  0  0
  190.6010  174.4810  137.7440 O   0  0  0  0  0  1  0  0  0  0  0  0
  191.2620  175.6660  138.0700 C   0  0  1  0  0  3  0  0  0  0  0  0
  192.0120  176.1510  136.9110 N   0  0  0  0  0  2  0  0  0  0  0  0
  193.4130  175.7150  136.9570 C   0  0  0  0  0  0  0  0  0  0  0  0
  193.7280  175.1240  138.3420 C   0  0  0  0  0  2  0  0  0  0  0  0
  194.5360  175.9880  139.0850 O   0  0  0  0  0  1  0  0  0  0  0  0
  194.7130  173.8380  136.1920 O   0  0  0  0  0  1  0  0  0  0  0  0
  193.5950  174.6250  135.8980 C   0  0  0  0  0  2  0  0  0  0  0  0
  194.2610  176.8170  136.6790 O   0  0  0  0  0  0  0  0  0  0  0  0
  194.4320  176.8680  135.3710 O   0  0  0  0  0  1  0  0  0  0  0  0
  187.9000  177.7610  144.0550 O   0  0  0  0  0  0  0  0  0  0  0  0
  187.0240  177.5510  145.1260 C   0  0  2  0  0  3  0  0  0  0  0  0
  186.0580  178.6840  145.2290 C   0  0  0  0  0  3  0  0  0  0  0  0
  184.6100  179.2970  143.1470 C   0  0  0  0  0  3  0  0  0  0  0  0
  185.3300  179.0000  144.1950 C   0  0  0  0  0  0  0  0  0  0  0  0
  183.8380  178.2440  142.4170 C   0  0  2  0  0  3  0  0  0  0  0  0
  184.3650  178.0620  141.0710 N   0  0  0  0  0  2  0  0  0  0  0  0
  184.7840  179.3710  140.5970 C   0  0  0  0  0  1  0  0  0  0  0  0
  181.7120  178.3200  141.3860 O   0  0  0  0  0  0  0  0  0  0  0  0
  182.3880  178.6320  142.3550 C   0  0  0  0  0  0  0  0  0  0  0  0
  180.3740  179.8820  143.1150 C   0  0  0  0  0  2  0  0  0  0  0  0
  181.7430  179.3500  143.5040 C   0  0  0  0  0  3  0  0  0  0  0  0
  180.4840  178.6060  143.9160 C   0  0  0  0  0  2  0  0  0  0  0  0
  187.7870  177.3690  146.4380 C   0  0  2  0  0  3  0  0  0  0  0  0
  187.1350  178.1360  147.5860 C   0  0  0  0  0  1  0  0  0  0  0  0
  189.2370  177.7950  146.2600 C   0  0  0  0  0  2  0  0  0  0  0  0
  190.1770  176.8860  147.0370 C   0  0  0  0  0  2  0  0  0  0  0  0
  191.5020  176.7450  146.3120 C   0  0  0  0  0  2  0  0  0  0  0  0
  192.4190  176.0960  147.1390 O   0  0  0  0  0  1  0  0  0  0  0  0
  1 21  1  1  0  0  0
  2  1  1  0  0  0  0
  3  4  1  1  0  0  0
  3  2  1  0  0  0  0
  3  1  1  0  0  0  0
  5  9  2  0  0  0  0
  6  8  1  0  0  0  0
  7  6  1  0  0  0  0
  7  5  1  0  0  0  0
  8 10  1  0  0  0  0
  9 10  1  0  0  0  0
 10  4  1  1  0  0  0
 12 11  1  6  0  0  0
 12  5  1  0  0  0  0
 13 14  1  0  0  0  0
 13 12  1  0  0  0  0
 14 15  1  0  0  0  0
 15 16  1  0  0  0  0
 18 17  1  0  0  0  0
 18 14  1  0  0  0  0
 19 14  1  0  0  0  0
 20 19  1  0  0  0  0
 21 22  1  0  0  0  0
 22 23  1  1  0  0  0
 22 34  1  0  0  0  0
 24 25  2  0  0  0  0
 25 23  2  0  0  0  0
 26 24  1  6  0  0  0
 27 26  1  0  0  0  0
 28 27  1  0  0  0  0
 29 30  2  0  0  0  0
 30 26  1  0  0  0  0
 30 32  1  0  0  0  0
 31 32  1  0  0  0  0
 31 33  1  0  0  0  0
 32 33  1  0  0  0  0
 34 35  1  1  0  0  0
 36 34  1  0  0  0  0
 36 37  1  0  0  0  0
 38 37  1  0  0  0  0
 38 39  1  0  0  0  0
M  END
>  <MODEL>
7

>  <REMARK>
 VINA RESULT:      -6.6      3.449      6.269
  Name = 
  19 active torsions:
  status: ('A' for Active; 'I' for Inactive)
    1  A    between atoms: C_1  and  C_6
    2  A    between atoms: C_1  and  O_21
    3  A    between atoms: C_1  and  N_32
    4  A    between atoms: C_1  and  C_36
    5  A    between atoms: C_2  and  C_31
    6  A    between atoms: C_4  and  C_12
    7  A    between atoms: C_5  and  C_35
    8  A    between atoms: C_8  and  C_16
    9  A    between atoms: N_10  and  C_12
   10  A    between atoms: C_12  and  C_34
   11  A    between atoms: C_14  and  O_19
   12  A    between atoms: C_16  and  C_26
   13  A    between atoms: C_17  and  C_26
   14  A    between atoms: C_17  and  C_31
   15  A    between atoms: O_19  and  C_31
   16  A    between atoms: C_20  and  C_24
   17  A    between atoms: C_20  and  C_30
   18  A    between atoms: C_28  and  C_34
   19  A    between atoms: N_32  and  C_35
                            x       y       z     vdW  Elec       q    Type
                         _______ _______ _______ _____ _____    ______ ____

>  <TORSDO>
F 19

$$$$
=
 OpenBabel11062417533D

 39 41  0  0  1  0  0  0  0  0999 V2000
  188.5920  177.6950  143.8200 C   0  0  2  0  0  3  0  0  0  0  0  0
  187.9240  176.3540  143.5720 C   0  0  0  0  0  2  0  0  0  0  0  0
  187.0700  177.5560  143.9240 C   0  0  2  0  0  3  0  0  0  0  0  0
  186.3290  178.0580  142.6860 C   0  0  0  0  0  2  0  0  0  0  0  0
  182.7330  178.6850  142.3420 C   0  0  0  0  0  0  0  0  0  0  0  0
  183.3040  179.1600  144.7580 C   0  0  0  0  0  2  0  0  0  0  0  0
  182.2510  178.6570  143.7730 C   0  0  0  0  0  2  0  0  0  0  0  0
  184.6360  178.4790  144.4750 C   0  0  0  0  0  2  0  0  0  0  0  0
  184.0450  178.7190  142.0420 C   0  0  0  0  0  3  0  0  0  0  0  0
  185.1200  178.8840  143.0840 C   0  0  2  0  0  3  0  0  0  0  0  0
  180.4450  178.7980  141.7320 O   0  0  0  0  0  1  0  0  0  0  0  0
  181.7220  178.5080  141.2510 C   0  0  1  0  0  3  0  0  0  0  0  0
  182.0380  179.3820  140.1220 N   0  0  0  0  0  2  0  0  0  0  0  0
  182.2890  178.6110  138.8990 C   0  0  0  0  0  0  0  0  0  0  0  0
  181.2650  179.0000  137.8200 C   0  0  0  0  0  2  0  0  0  0  0  0
  181.2510  180.3820  137.6160 O   0  0  0  0  0  1  0  0  0  0  0  0
  184.1760  180.0980  139.0730 O   0  0  0  0  0  1  0  0  0  0  0  0
  183.6930  178.9700  138.4030 C   0  0  0  0  0  2  0  0  0  0  0  0
  182.2090  177.2260  139.1880 O   0  0  0  0  0  0  0  0  0  0  0  0
  182.1080  176.5840  138.0380 O   0  0  0  0  0  1  0  0  0  0  0  0
  188.9920  178.2530  142.5960 O   0  0  0  0  0  0  0  0  0  0  0  0
  190.3820  178.0910  142.5510 C   0  0  2  0  0  3  0  0  0  0  0  0
  190.7340  176.9240  141.6890 C   0  0  0  0  0  3  0  0  0  0  0  0
  189.6210  176.7120  139.3390 C   0  0  0  0  0  3  0  0  0  0  0  0
  190.1840  176.8070  140.5130 C   0  0  0  0  0  0  0  0  0  0  0  0
  189.6250  177.8650  138.3860 C   0  0  2  0  0  3  0  0  0  0  0  0
  188.6980  178.8980  138.8260 N   0  0  0  0  0  2  0  0  0  0  0  0
  187.4150  178.2530  139.0500 C   0  0  0  0  0  1  0  0  0  0  0  0
  189.0820  178.1920  136.1090 O   0  0  0  0  0  0  0  0  0  0  0  0
  189.2500  177.3860  137.0130 C   0  0  0  0  0  0  0  0  0  0  0  0
  187.6920  175.5200  136.4750 C   0  0  0  0  0  2  0  0  0  0  0  0
  189.1370  175.9180  136.7220 C   0  0  0  0  0  3  0  0  0  0  0  0
  188.6260  175.7250  135.3050 C   0  0  0  0  0  2  0  0  0  0  0  0
  190.9660  177.9250  143.9530 C   0  0  2  0  0  3  0  0  0  0  0  0
  191.8760  179.0910  144.3320 C   0  0  0  0  0  1  0  0  0  0  0  0
  191.7140  176.6030  144.0530 C   0  0  0  0  0  2  0  0  0  0  0  0
  191.6520  176.0400  145.4650 C   0  0  0  0  0  2  0  0  0  0  0  0
  190.9610  177.0170  146.3980 C   0  0  0  0  0  2  0  0  0  0  0  0
  191.5030  176.9000  147.6780 O   0  0  0  0  0  1  0  0  0  0  0  0
  1 21  1  6  0  0  0
  1  3  1  0  0  0  0
  2  1  1  0  0  0  0
  2  3  1  0  0  0  0
  3  4  1  6  0  0  0
  5  7  1  0  0  0  0
  7  6  1  0  0  0  0
  8  6  1  0  0  0  0
  9  5  2  0  0  0  0
  9 10  1  0  0  0  0
 10  4  1  6  0  0  0
 10  8  1  0  0  0  0
 12 11  1  1  0  0  0
 12  5  1  0  0  0  0
 13 12  1  0  0  0  0
 14 19  1  0  0  0  0
 14 13  1  0  0  0  0
 15 14  1  0  0  0  0
 16 15  1  0  0  0  0
 18 14  1  0  0  0  0
 18 17  1  0  0  0  0
 20 19  1  0  0  0  0
 22 23  1  6  0  0  0
 22 21  1  0  0  0  0
 22 34  1  0  0  0  0
 24 25  2  0  0  0  0
 25 23  2  0  0  0  0
 26 27  1  0  0  0  0
 26 24  1  1  0  0  0
 27 28  1  0  0  0  0
 29 30  2  0  0  0  0
 30 26  1  0  0  0  0
 31 32  1  0  0  0  0
 32 30  1  0  0  0  0
 33 31  1  0  0  0  0
 33 32  1  0  0  0  0
 34 36  1  0  0  0  0
 34 35  1  6  0  0  0
 36 37  1  0  0  0  0
 37 38  1  0  0  0  0
 38 39  1  0  0  0  0
M  END
>  <MODEL>
8

>  <REMARK>
 VINA RESULT:      -6.6      2.334      6.030
  Name = 
  19 active torsions:
  status: ('A' for Active; 'I' for Inactive)
    1  A    between atoms: C_1  and  C_6
    2  A    between atoms: C_1  and  O_21
    3  A    between atoms: C_1  and  N_32
    4  A    between atoms: C_1  and  C_36
    5  A    between atoms: C_2  and  C_31
    6  A    between atoms: C_4  and  C_12
    7  A    between atoms: C_5  and  C_35
    8  A    between atoms: C_8  and  C_16
    9  A    between atoms: N_10  and  C_12
   10  A    between atoms: C_12  and  C_34
   11  A    between atoms: C_14  and  O_19
   12  A    between atoms: C_16  and  C_26
   13  A    between atoms: C_17  and  C_26
   14  A    between atoms: C_17  and  C_31
   15  A    between atoms: O_19  and  C_31
   16  A    between atoms: C_20  and  C_24
   17  A    between atoms: C_20  and  C_30
   18  A    between atoms: C_28  and  C_34
   19  A    between atoms: N_32  and  C_35
                            x       y       z     vdW  Elec       q    Type
                         _______ _______ _______ _____ _____    ______ ____

>  <TORSDO>
F 19

$$$$
=
 OpenBabel11062417533D

 39 41  0  0  1  0  0  0  0  0999 V2000
  188.3780  176.3020  142.9590 C   0  0  2  0  0  3  0  0  0  0  0  0
  189.8150  175.8360  142.8170 C   0  0  0  0  0  2  0  0  0  0  0  0
  189.0860  176.3740  141.6020 C   0  0  2  0  0  3  0  0  0  0  0  0
  189.5950  177.7720  141.2570 C   0  0  0  0  0  2  0  0  0  0  0  0
  191.6950  176.7920  138.4140 C   0  0  0  0  0  0  0  0  0  0  0  0
  189.3410  176.9990  137.5150 C   0  0  0  0  0  2  0  0  0  0  0  0
  190.6860  176.2800  137.4150 C   0  0  0  0  0  2  0  0  0  0  0  0
  188.8950  177.0470  138.9700 C   0  0  0  0  0  2  0  0  0  0  0  0
  191.3140  177.4620  139.5190 C   0  0  0  0  0  3  0  0  0  0  0  0
  189.8910  177.8830  139.7720 C   0  0  2  0  0  3  0  0  0  0  0  0
  193.8560  176.7180  139.3840 O   0  0  0  0  0  1  0  0  0  0  0  0
  193.1290  176.3990  138.2370 C   0  0  1  0  0  3  0  0  0  0  0  0
  193.2300  174.9650  137.9670 N   0  0  0  0  0  2  0  0  0  0  0  0
  194.1530  174.6910  136.8590 C   0  0  0  0  0  0  0  0  0  0  0  0
  194.4560  175.9950  136.1020 C   0  0  0  0  0  2  0  0  0  0  0  0
  194.1910  175.8560  134.7370 O   0  0  0  0  0  1  0  0  0  0  0  0
  195.2100  173.5500  138.6980 O   0  0  0  0  0  1  0  0  0  0  0  0
  195.4550  174.1520  137.4600 C   0  0  0  0  0  2  0  0  0  0  0  0
  193.5790  173.7300  135.9900 O   0  0  0  0  0  0  0  0  0  0  0  0
  192.4490  173.3210  136.5400 O   0  0  0  0  0  1  0  0  0  0  0  0
  188.3490  177.5450  143.6090 O   0  0  0  0  0  0  0  0  0  0  0  0
  188.3630  177.2490  144.9770 C   0  0  2  0  0  3  0  0  0  0  0  0
  187.0280  177.5380  145.5780 C   0  0  0  0  0  3  0  0  0  0  0  0
  185.3010  178.9260  144.2010 C   0  0  0  0  0  3  0  0  0  0  0  0
  186.1570  178.2320  144.9000 C   0  0  0  0  0  0  0  0  0  0  0  0
  184.9750  178.5560  142.7890 C   0  0  2  0  0  3  0  0  0  0  0  0
  185.6580  179.4420  141.8560 N   0  0  0  0  0  2  0  0  0  0  0  0
  186.0520  178.6360  140.7120 C   0  0  0  0  0  1  0  0  0  0  0  0
  183.0390  178.7620  141.4480 O   0  0  0  0  0  0  0  0  0  0  0  0
  183.4900  178.6280  142.5770 C   0  0  0  0  0  0  0  0  0  0  0  0
  181.7530  179.7520  143.9610 C   0  0  0  0  0  2  0  0  0  0  0  0
  182.5470  178.4760  143.7340 C   0  0  0  0  0  3  0  0  0  0  0  0
  181.1180  178.5900  143.2340 C   0  0  0  0  0  2  0  0  0  0  0  0
  189.4620  178.0260  145.7000 C   0  0  2  0  0  3  0  0  0  0  0  0
  190.4560  178.6500  144.7220 C   0  0  0  0  0  1  0  0  0  0  0  0
  190.1790  177.1180  146.6880 C   0  0  0  0  0  2  0  0  0  0  0  0
  191.3550  176.4100  146.0330 C   0  0  0  0  0  2  0  0  0  0  0  0
  192.2780  175.8250  147.0860 C   0  0  0  0  0  2  0  0  0  0  0  0
  192.2790  176.6460  148.2130 O   0  0  0  0  0  1  0  0  0  0  0  0
  1 21  1  1  0  0  0
  2  1  1  0  0  0  0
  3  4  1  1  0  0  0
  3  2  1  0  0  0  0
  3  1  1  0  0  0  0
  5  9  2  0  0  0  0
  6  8  1  0  0  0  0
  7  6  1  0  0  0  0
  7  5  1  0  0  0  0
  8 10  1  0  0  0  0
  9 10  1  0  0  0  0
 10  4  1  1  0  0  0
 12  5  1  0  0  0  0
 12 11  1  1  0  0  0
 13 12  1  0  0  0  0
 14 18  1  0  0  0  0
 14 13  1  0  0  0  0
 15 14  1  0  0  0  0
 16 15  1  0  0  0  0
 18 17  1  0  0  0  0
 19 20  1  0  0  0  0
 19 14  1  0  0  0  0
 21 22  1  0  0  0  0
 22 23  1  1  0  0  0
 22 34  1  0  0  0  0
 24 25  2  0  0  0  0
 25 23  2  0  0  0  0
 26 24  1  1  0  0  0
 27 26  1  0  0  0  0
 28 27  1  0  0  0  0
 29 30  2  0  0  0  0
 30 26  1  0  0  0  0
 30 32  1  0  0  0  0
 32 31  1  0  0  0  0
 33 32  1  0  0  0  0
 33 31  1  0  0  0  0
 34 35  1  6  0  0  0
 34 36  1  0  0  0  0
 37 36  1  0  0  0  0
 37 38  1  0  0  0  0
 38 39  1  0  0  0  0
M  END
>  <MODEL>
9

>  <REMARK>
 VINA RESULT:      -6.6      3.749      6.434
  Name = 
  19 active torsions:
  status: ('A' for Active; 'I' for Inactive)
    1  A    between atoms: C_1  and  C_6
    2  A    between atoms: C_1  and  O_21
    3  A    between atoms: C_1  and  N_32
    4  A    between atoms: C_1  and  C_36
    5  A    between atoms: C_2  and  C_31
    6  A    between atoms: C_4  and  C_12
    7  A    between atoms: C_5  and  C_35
    8  A    between atoms: C_8  and  C_16
    9  A    between atoms: N_10  and  C_12
   10  A    between atoms: C_12  and  C_34
   11  A    between atoms: C_14  and  O_19
   12  A    between atoms: C_16  and  C_26
   13  A    between atoms: C_17  and  C_26
   14  A    between atoms: C_17  and  C_31
   15  A    between atoms: O_19  and  C_31
   16  A    between atoms: C_20  and  C_24
   17  A    between atoms: C_20  and  C_30
   18  A    between atoms: C_28  and  C_34
   19  A    between atoms: N_32  and  C_35
                            x       y       z     vdW  Elec       q    Type
                         _______ _______ _______ _____ _____    ______ ____

>  <TORSDO>
F 19

$$$$
