=
 OpenBabel11062415433D

 27 33  0  0  1  0  0  0  0  0999 V2000
  189.1170  177.0720  145.2300 C   0  0  0  0  0  0  0  0  0  0  0  0
  189.9990  176.8650  142.9660 C   0  0  0  0  0  0  0  0  0  0  0  0
  187.0040  177.5430  146.2650 O   0  0  0  0  0  0  0  0  0  0  0  0
  188.2400  177.3160  146.3520 C   0  0  0  0  0  0  0  0  0  0  0  0
  188.0250  177.9780  143.1170 C   0  0  0  0  0  0  0  0  0  0  0  0
  188.7430  176.8550  143.7850 C   0  0  2  0  0  3  0  0  0  0  0  0
  189.0470  178.5380  148.3330 C   0  0  0  0  0  1  0  0  0  0  0  0
  189.9710  177.7210  142.0010 N   0  0  0  0  0  0  0  0  0  0  0  0
  188.7140  178.3840  142.0600 C   0  0  0  0  0  3  0  0  0  0  0  0
  188.9820  177.1920  147.6370 C   0  0  2  0  0  3  0  0  0  0  0  0
  190.3920  176.7780  147.1880 C   0  0  0  0  0  2  0  0  0  0  0  0
  190.3080  176.7250  145.6960 C   0  0  0  0  0  0  0  0  0  0  0  0
  191.3950  176.2900  144.7900 C   0  0  0  0  0  3  0  0  0  0  0  0
  191.2370  176.3730  143.4990 N   0  0  0  0  0  0  0  0  0  0  0  0
  186.6270  178.4110  143.4040 C   0  0  0  0  0  2  0  0  0  0  0  0
  183.7430  178.4520  143.7800 C   0  0  0  0  0  3  0  0  0  0  0  0
  181.5640  178.9840  142.8680 C   0  0  0  0  0  3  0  0  0  0  0  0
  184.6060  179.8230  139.6080 N   0  0  2  0  0  0  0  0  0  0  0  0
  185.4860  178.7140  139.8920 N   0  0  1  0  0  0  0  0  0  0  0  0
  182.3850  178.7190  143.9690 C   0  0  0  0  0  3  0  0  0  0  0  0
  183.4670  178.7300  141.3850 C   0  0  0  0  0  0  0  0  0  0  0  0
  185.7280  178.1750  142.1940 C   0  0  2  0  0  3  0  0  0  0  0  0
  186.1430  179.0570  141.1000 N   0  0  0  0  0  2  0  0  0  0  0  0
  184.0600  178.5830  140.0040 C   0  0  1  0  0  0  0  0  0  0  0  0
  184.2880  178.4670  142.4870 C   0  0  0  0  0  0  0  0  0  0  0  0
  182.1000  178.9770  141.5770 C   0  0  0  0  0  3  0  0  0  0  0  0
  183.4020  179.3270  138.9960 N   0  0  0  0  0  2  0  0  0  0  0  0
  1 12  2  0  0  0  0
  1  4  1  0  0  0  0
  2 14  1  0  0  0  0
  3  4  2  0  0  0  0
  4 10  1  0  0  0  0
  5 15  1  0  0  0  0
  5  6  1  0  0  0  0
  6  2  1  6  0  0  0
  6  1  1  0  0  0  0
  8  9  1  0  0  0  0
  8  2  2  0  0  0  0
  9  5  2  0  0  0  0
 10  7  1  6  0  0  0
 11 10  1  0  0  0  0
 12 11  1  0  0  0  0
 13 12  1  0  0  0  0
 14 13  2  0  0  0  0
 16 20  1  0  0  0  0
 17 20  2  0  0  0  0
 18 27  1  6  0  0  0
 18 19  1  0  0  0  0
 18 24  1  0  0  0  0
 19 24  1  0  0  0  0
 19 23  1  1  0  0  0
 21 26  2  0  0  0  0
 21 25  1  0  0  0  0
 22 25  1  0  0  0  0
 22 15  1  1  0  0  0
 23 22  1  0  0  0  0
 24 27  1  6  0  0  0
 24 21  1  0  0  0  0
 25 16  2  0  0  0  0
 26 17  1  0  0  0  0
M  END
>  <MODEL>
1

>  <REMARK>
 VINA RESULT:     -10.5      0.000      0.000
  Name = 
  2 active torsions:
  status: ('A' for Active; 'I' for Inactive)
    1  A    between atoms: C_8  and  C_14
    2  A    between atoms: C_13  and  C_14
                            x       y       z     vdW  Elec       q    Type
                         _______ _______ _______ _____ _____    ______ ____

>  <TORSDO>
F 2

$$$$
=
 OpenBabel11062415433D

 27 33  0  0  1  0  0  0  0  0999 V2000
  188.3790  177.5180  144.9490 C   0  0  0  0  0  0  0  0  0  0  0  0
  190.8010  177.2420  144.9400 C   0  0  0  0  0  0  0  0  0  0  0  0
  186.6280  177.8020  143.3330 O   0  0  0  0  0  0  0  0  0  0  0  0
  187.0140  177.7390  144.5300 C   0  0  0  0  0  0  0  0  0  0  0  0
  189.9370  178.1080  143.0250 C   0  0  0  0  0  0  0  0  0  0  0  0
  189.5650  177.1400  144.0980 C   0  0  2  0  0  3  0  0  0  0  0  0
  185.5250  179.2080  145.8320 C   0  0  0  0  0  1  0  0  0  0  0  0
  191.7050  178.0070  144.4270 N   0  0  0  0  0  0  0  0  0  0  0  0
  191.1880  178.5090  143.2010 C   0  0  0  0  0  3  0  0  0  0  0  0
  186.1070  177.8130  145.7090 C   0  0  2  0  0  3  0  0  0  0  0  0
  187.0490  177.5440  146.8930 C   0  0  0  0  0  2  0  0  0  0  0  0
  188.3940  177.3620  146.2650 C   0  0  0  0  0  0  0  0  0  0  0  0
  189.6340  176.9950  146.9840 C   0  0  0  0  0  3  0  0  0  0  0  0
  190.7690  176.9540  146.3440 N   0  0  0  0  0  0  0  0  0  0  0  0
  189.1500  178.3830  141.7890 C   0  0  0  0  0  2  0  0  0  0  0  0
  187.2890  178.1600  139.5650 C   0  0  0  0  0  3  0  0  0  0  0  0
  186.9410  177.6310  137.2280 C   0  0  0  0  0  3  0  0  0  0  0  0
  191.2980  176.7620  138.1500 N   0  0  2  0  0  0  0  0  0  0  0  0
  191.1010  176.2390  139.4810 N   0  0  1  0  0  0  0  0  0  0  0  0
  186.5140  178.2510  138.4060 C   0  0  0  0  0  3  0  0  0  0  0  0
  188.9320  176.8370  138.3650 C   0  0  0  0  0  0  0  0  0  0  0  0
  189.3870  177.2980  140.7430 C   0  0  2  0  0  3  0  0  0  0  0  0
  190.7760  177.3630  140.2810 N   0  0  0  0  0  2  0  0  0  0  0  0
  190.1640  175.9670  138.4260 C   0  0  1  0  0  0  0  0  0  0  0  0
  188.5050  177.4600  139.5430 C   0  0  0  0  0  0  0  0  0  0  0  0
  188.1420  176.9140  137.2090 C   0  0  0  0  0  3  0  0  0  0  0  0
  190.8310  175.7980  137.1900 N   0  0  0  0  0  2  0  0  0  0  0  0
  1 12  2  0  0  0  0
  2 14  1  0  0  0  0
  3  4  2  0  0  0  0
  4  1  1  0  0  0  0
  4 10  1  0  0  0  0
  5  9  2  0  0  0  0
  6  5  1  6  0  0  0
  6  2  1  0  0  0  0
  6  1  1  0  0  0  0
  8  2  2  0  0  0  0
  9  8  1  0  0  0  0
 10  7  1  1  0  0  0
 10 11  1  0  0  0  0
 12 11  1  0  0  0  0
 12 13  1  0  0  0  0
 14 13  2  0  0  0  0
 15  5  1  0  0  0  0
 17 20  1  0  0  0  0
 18 27  1  6  0  0  0
 18 24  1  0  0  0  0
 18 19  1  0  0  0  0
 19 23  1  1  0  0  0
 20 16  2  0  0  0  0
 21 24  1  0  0  0  0
 21 25  2  0  0  0  0
 22 15  1  1  0  0  0
 23 22  1  0  0  0  0
 24 27  1  6  0  0  0
 24 19  1  0  0  0  0
 25 16  1  0  0  0  0
 25 22  1  0  0  0  0
 26 17  2  0  0  0  0
 26 21  1  0  0  0  0
M  END
>  <MODEL>
2

>  <REMARK>
 VINA RESULT:     -10.1      3.415      4.861
  Name = 
  2 active torsions:
  status: ('A' for Active; 'I' for Inactive)
    1  A    between atoms: C_8  and  C_14
    2  A    between atoms: C_13  and  C_14
                            x       y       z     vdW  Elec       q    Type
                         _______ _______ _______ _____ _____    ______ ____

>  <TORSDO>
F 2

$$$$
=
 OpenBabel11062415433D

 27 33  0  0  1  0  0  0  0  0999 V2000
  189.7880  177.4300  140.3290 C   0  0  0  0  0  0  0  0  0  0  0  0
  191.2550  177.2170  142.2640 C   0  0  0  0  0  0  0  0  0  0  0  0
  187.4400  177.7040  139.9150 O   0  0  0  0  0  0  0  0  0  0  0  0
  188.6150  177.5400  139.4920 C   0  0  0  0  0  0  0  0  0  0  0  0
  189.0640  176.7860  142.6820 C   0  0  0  0  0  0  0  0  0  0  0  0
  189.8980  177.6670  141.8140 C   0  0  2  0  0  3  0  0  0  0  0  0
  188.4410  176.2470  137.4020 C   0  0  0  0  0  1  0  0  0  0  0  0
  191.2130  176.3570  143.2260 N   0  0  0  0  0  0  0  0  0  0  0  0
  189.8430  176.1240  143.5260 C   0  0  0  0  0  3  0  0  0  0  0  0
  188.9910  177.5020  138.0510 C   0  0  2  0  0  3  0  0  0  0  0  0
  190.5260  177.4280  138.0920 C   0  0  0  0  0  2  0  0  0  0  0  0
  190.8600  177.4150  139.5500 C   0  0  0  0  0  0  0  0  0  0  0  0
  192.2270  177.4350  140.1170 C   0  0  0  0  0  3  0  0  0  0  0  0
  192.3980  177.3280  141.4050 N   0  0  0  0  0  0  0  0  0  0  0  0
  187.5770  176.8290  142.7940 C   0  0  0  0  0  2  0  0  0  0  0  0
  184.9930  178.1290  142.4990 C   0  0  0  0  0  3  0  0  0  0  0  0
  183.0380  179.0730  143.5730 C   0  0  0  0  0  3  0  0  0  0  0  0
  185.9070  177.8620  146.8720 N   0  0  2  0  0  0  0  0  0  0  0  0
  187.1280  178.2300  146.1950 N   0  0  1  0  0  0  0  0  0  0  0  0
  183.6580  178.5390  142.4390 C   0  0  0  0  0  3  0  0  0  0  0  0
  185.0870  178.7760  144.8370 C   0  0  0  0  0  0  0  0  0  0  0  0
  187.1440  177.8410  143.8500 C   0  0  2  0  0  3  0  0  0  0  0  0
  187.3040  177.2540  145.1830 N   0  0  0  0  0  2  0  0  0  0  0  0
  185.9340  179.0190  146.0630 C   0  0  1  0  0  0  0  0  0  0  0  0
  185.7060  178.2390  143.7030 C   0  0  0  0  0  0  0  0  0  0  0  0
  183.7540  179.2040  144.7670 C   0  0  0  0  0  3  0  0  0  0  0  0
  185.2150  179.0550  147.2810 N   0  0  0  0  0  2  0  0  0  0  0  0
  2  8  2  0  0  0  0
  4  3  2  0  0  0  0
  4  1  1  0  0  0  0
  5 15  1  0  0  0  0
  5  9  2  0  0  0  0
  6  1  1  6  0  0  0
  6  2  1  0  0  0  0
  6  5  1  0  0  0  0
  8  9  1  0  0  0  0
 10  7  1  1  0  0  0
 10 11  1  0  0  0  0
 10  4  1  0  0  0  0
 11 12  1  0  0  0  0
 12 13  1  0  0  0  0
 12  1  2  0  0  0  0
 13 14  2  0  0  0  0
 14  2  1  0  0  0  0
 16 25  1  0  0  0  0
 17 26  2  0  0  0  0
 18 27  1  1  0  0  0
 19 23  1  6  0  0  0
 19 18  1  0  0  0  0
 20 16  2  0  0  0  0
 20 17  1  0  0  0  0
 22 15  1  6  0  0  0
 22 23  1  0  0  0  0
 24 21  1  6  0  0  0
 24 19  1  0  0  0  0
 24 18  1  0  0  0  0
 24 27  1  0  0  0  0
 25 22  1  0  0  0  0
 25 21  2  0  0  0  0
 26 21  1  0  0  0  0
M  END
>  <MODEL>
3

>  <REMARK>
 VINA RESULT:      -9.8      3.283      5.410
  Name = 
  2 active torsions:
  status: ('A' for Active; 'I' for Inactive)
    1  A    between atoms: C_8  and  C_14
    2  A    between atoms: C_13  and  C_14
                            x       y       z     vdW  Elec       q    Type
                         _______ _______ _______ _____ _____    ______ ____

>  <TORSDO>
F 2

$$$$
=
 OpenBabel11062415433D

 27 33  0  0  1  0  0  0  0  0999 V2000
  189.7600  177.6210  140.4410 C   0  0  0  0  0  0  0  0  0  0  0  0
  191.6880  177.1770  141.8650 C   0  0  0  0  0  0  0  0  0  0  0  0
  187.4190  178.0690  140.7280 O   0  0  0  0  0  0  0  0  0  0  0  0
  188.4120  177.8640  139.9800 C   0  0  0  0  0  0  0  0  0  0  0  0
  189.6740  176.8520  142.8660 C   0  0  0  0  0  0  0  0  0  0  0  0
  190.2990  177.7410  141.8440 C   0  0  2  0  0  3  0  0  0  0  0  0
  187.5560  176.7420  137.9600 C   0  0  0  0  0  1  0  0  0  0  0  0
  191.8490  176.2520  142.7520 N   0  0  0  0  0  0  0  0  0  0  0  0
  190.6030  176.0830  143.4170 C   0  0  0  0  0  3  0  0  0  0  0  0
  188.3650  177.9090  138.4920 C   0  0  2  0  0  3  0  0  0  0  0  0
  189.8390  177.7380  138.0900 C   0  0  0  0  0  2  0  0  0  0  0  0
  190.5650  177.5970  139.3900 C   0  0  0  0  0  0  0  0  0  0  0  0
  192.0330  177.4910  139.5450 C   0  0  0  0  0  3  0  0  0  0  0  0
  192.5490  177.2800  140.7230 N   0  0  0  0  0  0  0  0  0  0  0  0
  188.2870  176.9780  143.3990 C   0  0  0  0  0  2  0  0  0  0  0  0
  185.8120  178.1730  144.3510 C   0  0  0  0  0  3  0  0  0  0  0  0
  184.3960  178.7290  146.2340 C   0  0  0  0  0  3  0  0  0  0  0  0
  188.1970  176.9180  147.9230 N   0  0  2  0  0  0  0  0  0  0  0  0
  189.1140  177.5010  146.9730 N   0  0  1  0  0  0  0  0  0  0  0  0
  184.5570  178.5140  144.8620 C   0  0  0  0  0  3  0  0  0  0  0  0
  186.7460  178.2470  146.5900 C   0  0  0  0  0  0  0  0  0  0  0  0
  188.2890  177.6850  144.7510 C   0  0  2  0  0  3  0  0  0  0  0  0
  188.8870  176.8050  145.7590 N   0  0  0  0  0  2  0  0  0  0  0  0
  187.9790  178.2350  147.4620 C   0  0  1  0  0  0  0  0  0  0  0  0
  186.9070  178.0300  145.2170 C   0  0  0  0  0  0  0  0  0  0  0  0
  185.4900  178.6080  147.0960 C   0  0  0  0  0  3  0  0  0  0  0  0
  187.7360  177.9410  148.8240 N   0  0  0  0  0  2  0  0  0  0  0  0
  2  8  2  0  0  0  0
  4  1  1  0  0  0  0
  4  3  2  0  0  0  0
  5 15  1  0  0  0  0
  5  9  2  0  0  0  0
  6  1  1  6  0  0  0
  6  2  1  0  0  0  0
  6  5  1  0  0  0  0
  8  9  1  0  0  0  0
 10  7  1  6  0  0  0
 10  4  1  0  0  0  0
 11 10  1  0  0  0  0
 11 12  1  0  0  0  0
 12 13  1  0  0  0  0
 12  1  2  0  0  0  0
 13 14  2  0  0  0  0
 14  2  1  0  0  0  0
 16 20  2  0  0  0  0
 16 25  1  0  0  0  0
 17 26  2  0  0  0  0
 18 27  1  1  0  0  0
 19 23  1  6  0  0  0
 19 24  1  0  0  0  0
 19 18  1  0  0  0  0
 20 17  1  0  0  0  0
 21 26  1  0  0  0  0
 22 15  1  6  0  0  0
 22 25  1  0  0  0  0
 22 23  1  0  0  0  0
 24 21  1  6  0  0  0
 24 18  1  0  0  0  0
 24 27  1  0  0  0  0
 25 21  2  0  0  0  0
M  END
>  <MODEL>
4

>  <REMARK>
 VINA RESULT:      -9.7      3.754      6.116
  Name = 
  2 active torsions:
  status: ('A' for Active; 'I' for Inactive)
    1  A    between atoms: C_8  and  C_14
    2  A    between atoms: C_13  and  C_14
                            x       y       z     vdW  Elec       q    Type
                         _______ _______ _______ _____ _____    ______ ____

>  <TORSDO>
F 2

$$$$
=
 OpenBabel11062415433D

 27 33  0  0  1  0  0  0  0  0999 V2000
  187.6510  177.5340  144.7510 C   0  0  0  0  0  0  0  0  0  0  0  0
  188.5780  177.2570  142.5130 C   0  0  0  0  0  0  0  0  0  0  0  0
  185.5520  178.1670  145.7260 O   0  0  0  0  0  0  0  0  0  0  0  0
  186.7640  177.8460  145.8480 C   0  0  0  0  0  0  0  0  0  0  0  0
  186.6920  178.5180  142.6090 C   0  0  0  0  0  0  0  0  0  0  0  0
  187.3030  177.3440  143.2960 C   0  0  2  0  0  3  0  0  0  0  0  0
  187.6050  179.0060  147.8520 C   0  0  0  0  0  1  0  0  0  0  0  0
  188.6430  178.1110  141.5470 N   0  0  0  0  0  0  0  0  0  0  0  0
  187.4390  178.8680  141.5710 C   0  0  0  0  0  3  0  0  0  0  0  0
  187.4580  177.6680  147.1530 C   0  0  2  0  0  3  0  0  0  0  0  0
  188.8440  177.1460  146.7440 C   0  0  0  0  0  2  0  0  0  0  0  0
  188.7990  177.0980  145.2500 C   0  0  0  0  0  0  0  0  0  0  0  0
  189.8740  176.5800  144.3750 C   0  0  0  0  0  3  0  0  0  0  0  0
  189.7600  176.6730  143.0800 N   0  0  0  0  0  0  0  0  0  0  0  0
  185.3230  179.0570  142.8560 C   0  0  0  0  0  2  0  0  0  0  0  0
  182.5470  178.6430  143.6180 C   0  0  0  0  0  3  0  0  0  0  0  0
  180.2140  178.7010  142.9730 C   0  0  0  0  0  3  0  0  0  0  0  0
  182.6370  179.7140  139.2730 N   0  0  2  0  0  0  0  0  0  0  0  0
  183.7320  178.8050  139.5190 N   0  0  1  0  0  0  0  0  0  0  0  0
  181.1950  178.6920  143.9690 C   0  0  0  0  0  3  0  0  0  0  0  0
  181.9380  178.6270  141.2690 C   0  0  0  0  0  0  0  0  0  0  0  0
  184.3430  178.5500  141.8020 C   0  0  2  0  0  3  0  0  0  0  0  0
  184.4560  179.3750  140.5960 N   0  0  0  0  0  2  0  0  0  0  0  0
  182.3770  178.4450  139.8350 C   0  0  1  0  0  0  0  0  0  0  0  0
  182.9200  178.6200  142.2650 C   0  0  0  0  0  0  0  0  0  0  0  0
  180.5830  178.6560  141.6250 C   0  0  0  0  0  3  0  0  0  0  0  0
  181.4790  178.9600  138.8720 N   0  0  0  0  0  2  0  0  0  0  0  0
  1 12  2  0  0  0  0
  1  4  1  0  0  0  0
  2 14  1  0  0  0  0
  3  4  2  0  0  0  0
  4 10  1  0  0  0  0
  5 15  1  0  0  0  0
  5  6  1  0  0  0  0
  6  2  1  6  0  0  0
  6  1  1  0  0  0  0
  8  9  1  0  0  0  0
  8  2  2  0  0  0  0
  9  5  2  0  0  0  0
 10  7  1  6  0  0  0
 11 10  1  0  0  0  0
 12 11  1  0  0  0  0
 13 12  1  0  0  0  0
 14 13  2  0  0  0  0
 16 20  1  0  0  0  0
 17 20  2  0  0  0  0
 18 27  1  6  0  0  0
 18 19  1  0  0  0  0
 18 24  1  0  0  0  0
 19 24  1  0  0  0  0
 19 23  1  1  0  0  0
 21 26  2  0  0  0  0
 21 25  1  0  0  0  0
 22 25  1  0  0  0  0
 22 15  1  1  0  0  0
 23 22  1  0  0  0  0
 24 27  1  6  0  0  0
 24 21  1  0  0  0  0
 25 16  2  0  0  0  0
 26 17  1  0  0  0  0
M  END
>  <MODEL>
5

>  <REMARK>
 VINA RESULT:      -9.6      1.247      1.594
  Name = 
  2 active torsions:
  status: ('A' for Active; 'I' for Inactive)
    1  A    between atoms: C_8  and  C_14
    2  A    between atoms: C_13  and  C_14
                            x       y       z     vdW  Elec       q    Type
                         _______ _______ _______ _____ _____    ______ ____

>  <TORSDO>
F 2

$$$$
=
 OpenBabel11062415433D

 27 33  0  0  1  0  0  0  0  0999 V2000
  187.2100  178.2820  140.2260 C   0  0  0  0  0  0  0  0  0  0  0  0
  189.5130  177.6080  139.7960 C   0  0  0  0  0  0  0  0  0  0  0  0
  185.8400  178.7660  142.1360 O   0  0  0  0  0  0  0  0  0  0  0  0
  185.9730  178.6200  140.8920 C   0  0  0  0  0  0  0  0  0  0  0  0
  188.7950  177.2300  141.9170 C   0  0  0  0  0  0  0  0  0  0  0  0
  188.5970  178.2150  140.8150 C   0  0  2  0  0  3  0  0  0  0  0  0
  183.8200  177.7760  140.0430 C   0  0  0  0  0  1  0  0  0  0  0  0
  190.1560  176.5800  140.2370 N   0  0  0  0  0  0  0  0  0  0  0  0
  189.7480  176.3710  141.5830 C   0  0  0  0  0  3  0  0  0  0  0  0
  184.8860  178.8450  139.9000 C   0  0  2  0  0  3  0  0  0  0  0  0
  185.6030  178.6770  138.5510 C   0  0  0  0  0  2  0  0  0  0  0  0
  187.0170  178.3590  138.9180 C   0  0  0  0  0  0  0  0  0  0  0  0
  188.1340  178.1880  137.9610 C   0  0  0  0  0  3  0  0  0  0  0  0
  189.3080  177.8210  138.3920 N   0  0  0  0  0  0  0  0  0  0  0  0
  188.2260  177.3340  143.2920 C   0  0  0  0  0  2  0  0  0  0  0  0
  187.4510  178.0100  146.0130 C   0  0  0  0  0  3  0  0  0  0  0  0
  187.9690  177.9120  148.3760 C   0  0  0  0  0  3  0  0  0  0  0  0
  191.4690  176.0440  146.1740 N   0  0  2  0  0  0  0  0  0  0  0  0
  191.4690  176.9400  145.0410 N   0  0  1  0  0  0  0  0  0  0  0  0
  187.0410  178.0910  147.3460 C   0  0  0  0  0  3  0  0  0  0  0  0
  189.7220  177.5550  146.7380 C   0  0  0  0  0  0  0  0  0  0  0  0
  189.3210  177.6460  144.3080 C   0  0  2  0  0  3  0  0  0  0  0  0
  190.3270  176.5820  144.2810 N   0  0  0  0  0  2  0  0  0  0  0  0
  191.1790  177.4130  146.3670 C   0  0  1  0  0  0  0  0  0  0  0  0
  188.7930  177.7320  145.7080 C   0  0  0  0  0  0  0  0  0  0  0  0
  189.3100  177.6560  148.0740 C   0  0  0  0  0  3  0  0  0  0  0  0
  191.9720  176.7420  147.3270 N   0  0  0  0  0  2  0  0  0  0  0  0
  1  6  1  0  0  0  0
  1  4  1  0  0  0  0
  2  8  2  0  0  0  0
  4  3  2  0  0  0  0
  5 15  1  0  0  0  0
  6  2  1  6  0  0  0
  6  5  1  0  0  0  0
  8  9  1  0  0  0  0
  9  5  2  0  0  0  0
 10  7  1  1  0  0  0
 10  4  1  0  0  0  0
 11 12  1  0  0  0  0
 11 10  1  0  0  0  0
 12  1  2  0  0  0  0
 13 14  2  0  0  0  0
 13 12  1  0  0  0  0
 14  2  1  0  0  0  0
 16 20  1  0  0  0  0
 18 24  1  0  0  0  0
 18 27  1  1  0  0  0
 19 23  1  6  0  0  0
 19 18  1  0  0  0  0
 19 24  1  0  0  0  0
 20 17  2  0  0  0  0
 21 26  2  0  0  0  0
 22 15  1  6  0  0  0
 22 25  1  0  0  0  0
 23 22  1  0  0  0  0
 24 21  1  1  0  0  0
 24 27  1  0  0  0  0
 25 16  2  0  0  0  0
 25 21  1  0  0  0  0
 26 17  1  0  0  0  0
M  END
>  <MODEL>
6

>  <REMARK>
 VINA RESULT:      -9.5      2.787      7.041
  Name = 
  2 active torsions:
  status: ('A' for Active; 'I' for Inactive)
    1  A    between atoms: C_8  and  C_14
    2  A    between atoms: C_13  and  C_14
                            x       y       z     vdW  Elec       q    Type
                         _______ _______ _______ _____ _____    ______ ____

>  <TORSDO>
F 2

$$$$
=
 OpenBabel11062415433D

 27 33  0  0  1  0  0  0  0  0999 V2000
  181.3440  178.9430  140.5210 C   0  0  0  0  0  0  0  0  0  0  0  0
  180.0900  177.8850  142.3230 C   0  0  0  0  0  0  0  0  0  0  0  0
  183.5910  179.6970  140.1390 O   0  0  0  0  0  0  0  0  0  0  0  0
  182.3960  179.5780  139.7590 C   0  0  0  0  0  0  0  0  0  0  0  0
  182.0270  178.8780  142.9720 C   0  0  0  0  0  0  0  0  0  0  0  0
  181.4680  178.1490  141.7970 C   0  0  2  0  0  3  0  0  0  0  0  0
  181.9090  181.5250  138.3300 C   0  0  0  0  0  1  0  0  0  0  0  0
  179.9250  178.2800  143.5410 N   0  0  0  0  0  0  0  0  0  0  0  0
  181.1540  178.8550  143.9680 C   0  0  0  0  0  3  0  0  0  0  0  0
  181.8920  180.0120  138.4260 C   0  0  2  0  0  3  0  0  0  0  0  0
  180.4370  179.5150  138.4230 C   0  0  0  0  0  2  0  0  0  0  0  0
  180.2630  178.8650  139.7590 C   0  0  0  0  0  0  0  0  0  0  0  0
  179.0490  178.1510  140.2140 C   0  0  0  0  0  3  0  0  0  0  0  0
  178.9780  177.7030  141.4360 N   0  0  0  0  0  0  0  0  0  0  0  0
  183.4410  179.3290  143.1260 C   0  0  0  0  0  2  0  0  0  0  0  0
  186.0690  178.1850  142.6290 C   0  0  0  0  0  3  0  0  0  0  0  0
  188.2500  177.6040  143.5050 C   0  0  0  0  0  3  0  0  0  0  0  0
  185.8100  179.2040  146.9800 N   0  0  2  0  0  0  0  0  0  0  0  0
  184.5440  178.6280  146.5930 N   0  0  1  0  0  0  0  0  0  0  0  0
  187.4130  177.8690  142.4170 C   0  0  0  0  0  3  0  0  0  0  0  0
  186.3990  177.9850  145.0260 C   0  0  0  0  0  0  0  0  0  0  0  0
  184.1310  178.5670  144.2530 C   0  0  2  0  0  3  0  0  0  0  0  0
  184.1170  179.3810  145.4710 N   0  0  0  0  0  2  0  0  0  0  0  0
  185.7780  177.9160  146.4010 C   0  0  1  0  0  0  0  0  0  0  0  0
  185.5620  178.2530  143.9370 C   0  0  0  0  0  0  0  0  0  0  0  0
  187.7420  177.6490  144.8070 C   0  0  0  0  0  3  0  0  0  0  0  0
  186.6740  178.1610  147.4670 N   0  0  0  0  0  2  0  0  0  0  0  0
  2  8  2  0  0  0  0
  4  3  2  0  0  0  0
  4  1  1  0  0  0  0
  5 15  1  0  0  0  0
  5  9  2  0  0  0  0
  6  1  1  6  0  0  0
  6  2  1  0  0  0  0
  6  5  1  0  0  0  0
  8  9  1  0  0  0  0
 10  7  1  1  0  0  0
 10  4  1  0  0  0  0
 11 10  1  0  0  0  0
 11 12  1  0  0  0  0
 12 13  1  0  0  0  0
 12  1  2  0  0  0  0
 13 14  2  0  0  0  0
 14  2  1  0  0  0  0
 16 25  1  0  0  0  0
 17 26  2  0  0  0  0
 18 27  1  1  0  0  0
 19 23  1  6  0  0  0
 19 18  1  0  0  0  0
 20 16  2  0  0  0  0
 20 17  1  0  0  0  0
 22 15  1  6  0  0  0
 22 23  1  0  0  0  0
 24 21  1  6  0  0  0
 24 19  1  0  0  0  0
 24 18  1  0  0  0  0
 24 27  1  0  0  0  0
 25 22  1  0  0  0  0
 25 21  2  0  0  0  0
 26 21  1  0  0  0  0
M  END
>  <MODEL>
7

>  <REMARK>
 VINA RESULT:      -9.4      3.545      8.534
  Name = 
  2 active torsions:
  status: ('A' for Active; 'I' for Inactive)
    1  A    between atoms: C_8  and  C_14
    2  A    between atoms: C_13  and  C_14
                            x       y       z     vdW  Elec       q    Type
                         _______ _______ _______ _____ _____    ______ ____

>  <TORSDO>
F 2

$$$$
=
 OpenBabel11062415433D

 27 33  0  0  1  0  0  0  0  0999 V2000
  188.9200  177.0640  144.7010 C   0  0  0  0  0  0  0  0  0  0  0  0
  191.3330  177.3570  144.8870 C   0  0  0  0  0  0  0  0  0  0  0  0
  187.3720  176.1110  143.1340 O   0  0  0  0  0  0  0  0  0  0  0  0
  187.6030  176.7420  144.1990 C   0  0  0  0  0  0  0  0  0  0  0  0
  190.5870  176.9350  142.7830 C   0  0  0  0  0  0  0  0  0  0  0  0
  190.2550  176.5800  144.1930 C   0  0  2  0  0  3  0  0  0  0  0  0
  185.7220  178.3000  144.5220 C   0  0  0  0  0  1  0  0  0  0  0  0
  192.1470  177.9380  144.0720 N   0  0  0  0  0  0  0  0  0  0  0  0
  191.7140  177.6320  142.7520 C   0  0  0  0  0  3  0  0  0  0  0  0
  186.5520  177.1970  145.1510 C   0  0  2  0  0  3  0  0  0  0  0  0
  187.3640  177.7700  146.3230 C   0  0  0  0  0  2  0  0  0  0  0  0
  188.7900  177.5960  145.9080 C   0  0  0  0  0  0  0  0  0  0  0  0
  189.9710  177.9190  146.7400 C   0  0  0  0  0  3  0  0  0  0  0  0
  191.1690  177.8120  146.2370 N   0  0  0  0  0  0  0  0  0  0  0  0
  189.9320  176.3750  141.5660 C   0  0  0  0  0  2  0  0  0  0  0  0
  191.1620  175.8720  138.9790 C   0  0  0  0  0  3  0  0  0  0  0  0
  191.0810  176.1700  136.5780 C   0  0  0  0  0  3  0  0  0  0  0  0
  187.6040  178.5060  138.3220 N   0  0  2  0  0  0  0  0  0  0  0  0
  188.2790  178.9760  139.5080 N   0  0  1  0  0  0  0  0  0  0  0  0
  191.5580  175.4820  137.6980 C   0  0  0  0  0  3  0  0  0  0  0  0
  189.7950  177.6340  138.0220 C   0  0  0  0  0  0  0  0  0  0  0  0
  189.8100  177.4390  140.4790 C   0  0  2  0  0  3  0  0  0  0  0  0
  188.4070  177.8370  140.3420 N   0  0  0  0  0  2  0  0  0  0  0  0
  188.9650  178.8750  138.2500 C   0  0  1  0  0  0  0  0  0  0  0  0
  190.2710  176.9450  139.1420 C   0  0  0  0  0  0  0  0  0  0  0  0
  190.2110  177.2520  136.7390 C   0  0  0  0  0  3  0  0  0  0  0  0
  188.1080  179.2180  137.1780 N   0  0  0  0  0  2  0  0  0  0  0  0
  1 12  2  0  0  0  0
  2 14  1  0  0  0  0
  3  4  2  0  0  0  0
  4  1  1  0  0  0  0
  4 10  1  0  0  0  0
  6  5  1  6  0  0  0
  6  1  1  0  0  0  0
  6  2  1  0  0  0  0
  8  2  2  0  0  0  0
  9  5  2  0  0  0  0
  9  8  1  0  0  0  0
 10  7  1  6  0  0  0
 10 11  1  0  0  0  0
 12 11  1  0  0  0  0
 12 13  1  0  0  0  0
 14 13  2  0  0  0  0
 15  5  1  0  0  0  0
 16 25  1  0  0  0  0
 17 26  2  0  0  0  0
 17 20  1  0  0  0  0
 18 27  1  6  0  0  0
 18 19  1  0  0  0  0
 19 23  1  1  0  0  0
 20 16  2  0  0  0  0
 21 24  1  0  0  0  0
 21 25  2  0  0  0  0
 22 15  1  1  0  0  0
 23 22  1  0  0  0  0
 24 27  1  6  0  0  0
 24 18  1  0  0  0  0
 24 19  1  0  0  0  0
 25 22  1  0  0  0  0
 26 21  1  0  0  0  0
M  END
>  <MODEL>
8

>  <REMARK>
 VINA RESULT:      -9.4      3.058      5.417
  Name = 
  2 active torsions:
  status: ('A' for Active; 'I' for Inactive)
    1  A    between atoms: C_8  and  C_14
    2  A    between atoms: C_13  and  C_14
                            x       y       z     vdW  Elec       q    Type
                         _______ _______ _______ _____ _____    ______ ____

>  <TORSDO>
F 2

$$$$
=
 OpenBabel11062415433D

 27 33  0  0  1  0  0  0  0  0999 V2000
  189.5010  177.4150  146.4070 C   0  0  0  0  0  0  0  0  0  0  0  0
  187.3760  178.2870  147.2220 C   0  0  0  0  0  0  0  0  0  0  0  0
  190.4580  176.7790  144.3000 O   0  0  0  0  0  0  0  0  0  0  0  0
  190.5370  176.8800  145.5530 C   0  0  0  0  0  0  0  0  0  0  0  0
  187.2810  177.3240  145.1660 C   0  0  0  0  0  0  0  0  0  0  0  0
  188.2300  178.1160  146.0020 C   0  0  2  0  0  3  0  0  0  0  0  0
  191.9650  175.0260  146.3230 C   0  0  0  0  0  1  0  0  0  0  0  0
  186.1890  177.7970  147.0860 N   0  0  0  0  0  0  0  0  0  0  0  0
  186.1090  177.2390  145.7800 C   0  0  0  0  0  3  0  0  0  0  0  0
  191.7450  176.5270  146.3480 C   0  0  2  0  0  3  0  0  0  0  0  0
  191.3680  176.9660  147.7720 C   0  0  0  0  0  2  0  0  0  0  0  0
  189.9800  177.5070  147.6390 C   0  0  0  0  0  0  0  0  0  0  0  0
  189.1980  178.1380  148.7260 C   0  0  0  0  0  3  0  0  0  0  0  0
  187.9610  178.4910  148.5150 N   0  0  0  0  0  0  0  0  0  0  0  0
  187.4990  176.9190  143.7480 C   0  0  0  0  0  2  0  0  0  0  0  0
  188.8320  177.2660  141.1860 C   0  0  0  0  0  3  0  0  0  0  0  0
  188.6470  177.8250  138.8380 C   0  0  0  0  0  3  0  0  0  0  0  0
  184.5390  178.4180  140.6700 N   0  0  2  0  0  0  0  0  0  0  0  0
  184.9810  178.9480  141.9380 N   0  0  1  0  0  0  0  0  0  0  0  0
  189.3500  177.2280  139.8890 C   0  0  0  0  0  3  0  0  0  0  0  0
  186.8970  178.4900  140.3810 C   0  0  0  0  0  0  0  0  0  0  0  0
  186.9820  177.9920  142.7930 C   0  0  2  0  0  3  0  0  0  0  0  0
  185.5330  177.8420  142.6330 N   0  0  0  0  0  2  0  0  0  0  0  0
  185.6550  179.2820  140.7140 C   0  0  1  0  0  0  0  0  0  0  0  0
  187.5990  177.8900  141.4320 C   0  0  0  0  0  0  0  0  0  0  0  0
  187.4290  178.4660  139.0840 C   0  0  0  0  0  3  0  0  0  0  0  0
  184.7340  179.4130  139.6490 N   0  0  0  0  0  2  0  0  0  0  0  0
  1 12  2  0  0  0  0
  2 14  1  0  0  0  0
  3  4  2  0  0  0  0
  4 10  1  0  0  0  0
  4  1  1  0  0  0  0
  5  9  2  0  0  0  0
  6  5  1  6  0  0  0
  6  1  1  0  0  0  0
  6  2  1  0  0  0  0
  8  2  2  0  0  0  0
  9  8  1  0  0  0  0
 10  7  1  1  0  0  0
 10 11  1  0  0  0  0
 12 11  1  0  0  0  0
 12 13  1  0  0  0  0
 14 13  2  0  0  0  0
 15  5  1  0  0  0  0
 16 25  1  0  0  0  0
 17 26  2  0  0  0  0
 17 20  1  0  0  0  0
 18 27  1  6  0  0  0
 18 24  1  0  0  0  0
 18 19  1  0  0  0  0
 19 23  1  1  0  0  0
 20 16  2  0  0  0  0
 21 24  1  0  0  0  0
 21 25  2  0  0  0  0
 22 15  1  1  0  0  0
 23 22  1  0  0  0  0
 24 27  1  6  0  0  0
 24 19  1  0  0  0  0
 25 22  1  0  0  0  0
 26 21  1  0  0  0  0
M  END
>  <MODEL>
9

>  <REMARK>
 VINA RESULT:      -9.3      2.554      4.224
  Name = 
  2 active torsions:
  status: ('A' for Active; 'I' for Inactive)
    1  A    between atoms: C_8  and  C_14
    2  A    between atoms: C_13  and  C_14
                            x       y       z     vdW  Elec       q    Type
                         _______ _______ _______ _____ _____    ______ ____

>  <TORSDO>
F 2

$$$$
