=
 OpenBabel11062417493D

 58 66  0  0  1  0  0  0  0  0999 V2000
  191.0720  176.3590  139.7260 C   0  0  0  0  0  2  0  0  0  0  0  0
  189.2690  177.5710  138.4890 C   0  0  0  0  0  0  0  0  0  0  0  0
  191.0620  176.4630  137.2850 O   0  0  0  0  0  1  0  0  0  0  0  0
  188.9840  178.2530  139.5150 O   0  0  0  0  0  0  0  0  0  0  0  0
  190.4810  176.7980  138.4690 N   0  0  0  0  0  0  0  0  0  0  0  0
  188.8300  177.8000  136.0410 C   0  0  0  0  0  3  0  0  0  0  0  0
  187.9400  177.8440  134.9680 C   0  0  0  0  0  3  0  0  0  0  0  0
  186.5730  177.6720  135.1910 C   0  0  0  0  0  3  0  0  0  0  0  0
  188.3410  177.5790  137.3400 C   0  0  0  0  0  0  0  0  0  0  0  0
  187.0010  177.4190  137.5290 N   0  0  0  0  0  0  0  0  0  0  0  0
  186.1120  177.4630  136.4960 C   0  0  0  0  0  0  0  0  0  0  0  0
  184.6460  177.2570  136.7380 C   0  0  1  0  0  3  0  0  0  0  0  0
  184.1640  173.7780  135.9000 C   0  0  0  0  0  0  0  0  0  0  0  0
  183.0500  174.2980  135.0460 C   0  0  0  0  0  3  0  0  0  0  0  0
  184.1860  175.9350  136.1940 C   0  0  0  0  0  0  0  0  0  0  0  0
  184.8010  174.7030  136.5410 N   0  0  0  0  0  2  0  0  0  0  0  0
  183.1820  175.7490  135.3470 C   0  0  0  0  0  0  0  0  0  0  0  0
  184.5200  172.3390  136.0150 C   0  0  0  0  0  1  0  0  0  0  0  0
  182.4020  176.7300  134.8270 F   0  0  0  0  0  0  0  0  0  0  0  0
  184.3290  177.3740  138.1560 N   0  0  0  0  0  2  0  0  0  0  0  0
  181.3570  179.2750  138.6700 C   0  0  0  0  0  0  0  0  0  0  0  0
  182.7490  178.0740  140.0610 C   0  0  0  0  0  2  0  0  0  0  0  0
  181.5260  178.9270  139.9340 C   0  0  0  0  0  0  0  0  0  0  0  0
  182.3860  178.7430  137.8440 N   0  0  0  0  0  0  0  0  0  0  0  0
  183.1660  178.0590  138.6250 C   0  0  0  0  0  0  0  0  0  0  0  0
  180.6790  179.3120  140.9760 O   0  0  0  0  0  0  0  0  0  0  0  0
  179.7900  178.3920  141.5850 C   0  0  0  0  0  1  0  0  0  0  0  0
  180.2680  180.1700  138.1590 C   0  0  0  0  0  2  0  0  0  0  0  0
  180.6400  181.5630  138.3830 N   0  0  0  0  0  1  0  0  0  0  0  0
  192.2260  177.2550  140.1460 C   0  0  0  0  0  2  0  0  0  0  0  0
  191.7490  178.2480  141.1950 C   0  0  2  0  0  3  0  0  0  0  0  0
  190.0970  176.2040  142.0810 C   0  0  2  0  0  3  0  0  0  0  0  0
  188.7680  176.3430  142.8140 C   0  0  0  0  0  2  0  0  0  0  0  0
  190.8080  176.3430  144.5610 C   0  0  1  0  0  3  0  0  0  0  0  0
  191.9730  177.7010  142.5880 C   0  0  2  0  0  3  0  0  0  0  0  0
  189.8950  175.6210  143.5260 C   0  0  2  0  0  3  0  0  0  0  0  0
  190.4710  177.8510  144.6080 C   0  0  2  0  0  3  0  0  0  0  0  0
  190.5710  177.6710  141.9530 C   0  0  1  0  0  3  0  0  0  0  0  0
  191.7200  178.4630  143.9180 C   0  0  0  0  0  2  0  0  0  0  0  0
  190.4040  176.9910  145.8630 C   0  0  2  0  0  0  0  0  0  0  0  0
  191.4360  177.3130  146.7710 O   0  0  0  0  0  0  0  0  0  0  0  0
  190.9230  175.3170  147.8250 F   0  0  0  0  0  0  0  0  0  0  0  0
  192.6860  175.4460  146.4490 F   0  0  0  0  0  0  0  0  0  0  0  0
  191.9450  176.1440  147.3840 C   0  0  0  0  0  0  0  0  0  0  0  0
  192.7800  176.4590  148.4440 F   0  0  0  0  0  0  0  0  0  0  0  0
  188.9820  176.7550  146.3810 C   0  0  0  0  0  2  0  0  0  0  0  0
  184.8240  178.8100  144.8610 C   0  0  2  0  0  3  0  0  0  0  0  0
  187.0570  177.5300  145.0250 C   0  0  2  0  0  3  0  0  0  0  0  0
  186.1520  178.0900  142.7720 C   0  0  0  0  0  2  0  0  0  0  0  0
  188.0610  177.9370  146.1010 C   0  0  1  0  0  3  0  0  0  0  0  0
  187.3130  178.3170  143.7340 C   0  0  0  0  0  2  0  0  0  0  0  0
  185.8150  178.1250  146.9940 N   0  0  0  0  0  2  0  0  0  0  0  0
  187.1950  178.2400  147.2640 C   0  0  0  0  0  0  0  0  0  0  0  0
  187.6310  178.6130  148.3840 O   0  0  0  0  0  0  0  0  0  0  0  0
  184.8190  178.5970  143.3360 C   0  0  0  0  0  2  0  0  0  0  0  0
  185.6290  177.7330  145.6110 C   0  0  1  0  0  3  0  0  0  0  0  0
  183.4000  178.9630  145.4000 C   0  0  0  0  0  2  0  0  0  0  0  0
  182.3540  178.9170  144.2920 C   0  0  0  0  0  1  0  0  0  0  0  0
  1 30  1  0  0  0  0
  2  4  2  0  0  0  0
  3  5  1  0  0  0  0
  5  2  1  0  0  0  0
  5  1  1  0  0  0  0
  6  9  1  0  0  0  0
  7  8  1  0  0  0  0
  7  6  2  0  0  0  0
  8 11  2  0  0  0  0
  9 10  2  0  0  0  0
  9  2  1  0  0  0  0
 11 12  1  0  0  0  0
 11 10  1  0  0  0  0
 12 20  1  1  0  0  0
 13 18  1  0  0  0  0
 13 16  1  0  0  0  0
 14 17  1  0  0  0  0
 14 13  2  0  0  0  0
 15 16  1  0  0  0  0
 15 12  1  0  0  0  0
 17 15  2  0  0  0  0
 19 17  1  0  0  0  0
 20 25  1  0  0  0  0
 21 23  2  0  0  0  0
 23 22  1  0  0  0  0
 23 26  1  0  0  0  0
 24 25  2  0  0  0  0
 24 21  1  0  0  0  0
 25 22  1  0  0  0  0
 26 27  1  0  0  0  0
 28 29  1  0  0  0  0
 28 21  1  0  0  0  0
 31 30  1  6  0  0  0
 31 38  1  0  0  0  0
 31 35  1  0  0  0  0
 32 33  1  6  0  0  0
 32 36  1  0  0  0  0
 33 36  1  0  0  0  0
 34 37  1  0  0  0  0
 34 40  1  0  0  0  0
 35 39  1  0  0  0  0
 36 34  1  0  0  0  0
 37 40  1  0  0  0  0
 38 32  1  0  0  0  0
 38 35  1  0  0  0  0
 39 37  1  0  0  0  0
 40 46  1  0  0  0  0
 40 41  1  0  0  0  0
 41 44  1  0  0  0  0
 43 44  1  0  0  0  0
 44 42  1  0  0  0  0
 44 45  1  0  0  0  0
 47 57  1  0  0  0  0
 47 56  1  0  0  0  0
 48 56  1  0  0  0  0
 48 50  1  0  0  0  0
 49 55  1  0  0  0  0
 49 51  1  0  0  0  0
 50 46  1  0  0  0  0
 50 53  1  0  0  0  0
 51 48  1  0  0  0  0
 52 53  1  0  0  0  0
 53 54  2  0  0  0  0
 55 47  1  0  0  0  0
 56 52  1  0  0  0  0
 58 57  1  0  0  0  0
M  END
>  <MODEL>
1

>  <REMARK>
 VINA RESULT:      -9.3      0.000      0.000
  Name = 
  14 active torsions:
  status: ('A' for Active; 'I' for Inactive)
    1  A    between atoms: N_2  and  C_38
    2  A    between atoms: C_3  and  C_53
    3  A    between atoms: C_3  and  N_57
    4  A    between atoms: C_4  and  C_14
    5  A    between atoms: C_5  and  C_32
    6  A    between atoms: C_6  and  C_53
    7  A    between atoms: O_9  and  C_49
    8  A    between atoms: O_9  and  C_55
    9  A    between atoms: C_12  and  C_25
   10  A    between atoms: C_16  and  C_38
   11  A    between atoms: C_20  and  O_29
   12  A    between atoms: C_25  and  C_49
   13  A    between atoms: C_31  and  C_45
   14  A    between atoms: C_38  and  C_54
                            x       y       z     vdW  Elec       q    Type
                         _______ _______ _______ _____ _____    ______ ____

>  <TORSDO>
F 14

$$$$
=
 OpenBabel11062417493D

 58 66  0  0  1  0  0  0  0  0999 V2000
  191.0430  176.3850  140.1870 C   0  0  0  0  0  2  0  0  0  0  0  0
  189.5310  177.1720  138.3580 C   0  0  0  0  0  0  0  0  0  0  0  0
  191.6120  176.0350  137.8370 O   0  0  0  0  0  1  0  0  0  0  0  0
  188.9770  178.0010  139.1330 O   0  0  0  0  0  0  0  0  0  0  0  0
  190.7490  176.5270  138.7670 N   0  0  0  0  0  0  0  0  0  0  0  0
  189.4700  177.3930  135.8710 C   0  0  0  0  0  3  0  0  0  0  0  0
  188.8500  177.1430  134.6460 C   0  0  0  0  0  3  0  0  0  0  0  0
  187.6750  176.3900  134.6030 C   0  0  0  0  0  3  0  0  0  0  0  0
  188.9070  176.8800  137.0510 C   0  0  0  0  0  0  0  0  0  0  0  0
  187.7570  176.1520  136.9800 N   0  0  0  0  0  0  0  0  0  0  0  0
  187.1310  175.8990  135.7950 C   0  0  0  0  0  0  0  0  0  0  0  0
  185.8810  175.0720  135.7510 C   0  0  1  0  0  3  0  0  0  0  0  0
  187.3760  171.8530  135.0810 C   0  0  0  0  0  0  0  0  0  0  0  0
  186.0050  171.4900  134.6010 C   0  0  0  0  0  3  0  0  0  0  0  0
  186.1820  173.6520  135.3630 C   0  0  0  0  0  0  0  0  0  0  0  0
  187.4690  173.0710  135.5060 N   0  0  0  0  0  2  0  0  0  0  0  0
  185.3170  172.7850  134.8550 C   0  0  0  0  0  0  0  0  0  0  0  0
  188.5320  170.9190  135.0780 C   0  0  0  0  0  1  0  0  0  0  0  0
  184.0100  173.0390  134.5950 F   0  0  0  0  0  0  0  0  0  0  0  0
  185.1740  175.1240  137.0240 N   0  0  0  0  0  2  0  0  0  0  0  0
  181.7380  175.9630  136.5710 C   0  0  0  0  0  0  0  0  0  0  0  0
  183.0050  175.3290  138.3900 C   0  0  0  0  0  2  0  0  0  0  0  0
  181.6600  175.7300  137.8700 C   0  0  0  0  0  0  0  0  0  0  0  0
  183.0640  175.7710  136.0900 N   0  0  0  0  0  0  0  0  0  0  0  0
  183.7750  175.4050  137.1120 C   0  0  0  0  0  0  0  0  0  0  0  0
  180.4880  175.8500  138.6210 O   0  0  0  0  0  0  0  0  0  0  0  0
  180.3020  175.1230  139.8230 C   0  0  0  0  0  1  0  0  0  0  0  0
  180.6060  176.4340  135.7090 C   0  0  0  0  0  2  0  0  0  0  0  0
  181.1070  177.4040  134.7390 N   0  0  0  0  0  1  0  0  0  0  0  0
  192.0280  177.4400  140.6640 C   0  0  0  0  0  2  0  0  0  0  0  0
  191.2960  178.4920  141.4830 C   0  0  2  0  0  3  0  0  0  0  0  0
  189.5620  176.4440  142.1850 C   0  0  2  0  0  3  0  0  0  0  0  0
  188.1010  176.5710  142.5960 C   0  0  0  0  0  2  0  0  0  0  0  0
  189.7040  176.8390  144.7350 C   0  0  1  0  0  3  0  0  0  0  0  0
  191.2260  178.0820  142.9380 C   0  0  2  0  0  3  0  0  0  0  0  0
  189.0680  175.9790  143.6020 C   0  0  2  0  0  3  0  0  0  0  0  0
  189.3110  178.3230  144.5610 C   0  0  2  0  0  3  0  0  0  0  0  0
  190.0010  177.9180  142.0210 C   0  0  1  0  0  3  0  0  0  0  0  0
  190.6600  178.9420  144.1010 C   0  0  0  0  0  2  0  0  0  0  0  0
  188.9990  177.5730  145.8490 C   0  0  2  0  0  0  0  0  0  0  0  0
  189.7940  178.0310  146.9230 O   0  0  0  0  0  0  0  0  0  0  0  0
  191.6410  176.7440  146.3870 F   0  0  0  0  0  0  0  0  0  0  0  0
  191.3370  177.4610  148.4870 F   0  0  0  0  0  0  0  0  0  0  0  0
  190.6850  177.0190  147.3520 C   0  0  0  0  0  0  0  0  0  0  0  0
  190.0020  175.8570  147.6750 F   0  0  0  0  0  0  0  0  0  0  0  0
  187.5070  177.3050  146.0670 C   0  0  0  0  0  2  0  0  0  0  0  0
  183.5130  179.1580  143.9640 C   0  0  2  0  0  3  0  0  0  0  0  0
  185.7010  177.8930  144.4750 C   0  0  2  0  0  3  0  0  0  0  0  0
  184.9720  178.1290  142.1050 C   0  0  0  0  0  2  0  0  0  0  0  0
  186.6330  178.4420  145.5520 C   0  0  1  0  0  3  0  0  0  0  0  0
  186.0650  178.4810  143.1070 C   0  0  0  0  0  2  0  0  0  0  0  0
  184.3330  178.7800  146.2400 N   0  0  0  0  0  2  0  0  0  0  0  0
  185.6930  178.9190  146.5920 C   0  0  0  0  0  0  0  0  0  0  0  0
  186.0540  179.4470  147.6760 O   0  0  0  0  0  0  0  0  0  0  0  0
  183.6130  178.7260  142.4890 C   0  0  0  0  0  2  0  0  0  0  0  0
  184.2390  178.1930  144.9180 C   0  0  1  0  0  3  0  0  0  0  0  0
  182.0570  179.4020  144.3680 C   0  0  0  0  0  2  0  0  0  0  0  0
  181.0960  179.2360  143.1970 C   0  0  0  0  0  1  0  0  0  0  0  0
  1 30  1  0  0  0  0
  2  5  1  0  0  0  0
  2  4  2  0  0  0  0
  3  5  1  0  0  0  0
  5  1  1  0  0  0  0
  6  9  1  0  0  0  0
  7  6  2  0  0  0  0
  8  7  1  0  0  0  0
  8 11  2  0  0  0  0
  9  2  1  0  0  0  0
 10  9  2  0  0  0  0
 11 10  1  0  0  0  0
 12 11  1  0  0  0  0
 12 20  1  1  0  0  0
 13 16  1  0  0  0  0
 14 17  1  0  0  0  0
 14 13  2  0  0  0  0
 15 16  1  0  0  0  0
 15 12  1  0  0  0  0
 17 15  2  0  0  0  0
 18 13  1  0  0  0  0
 19 17  1  0  0  0  0
 20 25  1  0  0  0  0
 21 23  2  0  0  0  0
 23 22  1  0  0  0  0
 23 26  1  0  0  0  0
 24 21  1  0  0  0  0
 24 25  2  0  0  0  0
 25 22  1  0  0  0  0
 26 27  1  0  0  0  0
 28 21  1  0  0  0  0
 29 28  1  0  0  0  0
 31 30  1  6  0  0  0
 31 38  1  0  0  0  0
 31 35  1  0  0  0  0
 32 33  1  6  0  0  0
 32 36  1  0  0  0  0
 33 36  1  0  0  0  0
 34 40  1  0  0  0  0
 35 39  1  0  0  0  0
 36 34  1  0  0  0  0
 37 34  1  0  0  0  0
 37 40  1  0  0  0  0
 38 32  1  0  0  0  0
 38 35  1  0  0  0  0
 39 37  1  0  0  0  0
 40 46  1  0  0  0  0
 40 41  1  0  0  0  0
 41 44  1  0  0  0  0
 42 44  1  0  0  0  0
 44 45  1  0  0  0  0
 44 43  1  0  0  0  0
 47 57  1  0  0  0  0
 47 56  1  0  0  0  0
 48 56  1  0  0  0  0
 48 50  1  0  0  0  0
 49 55  1  0  0  0  0
 49 51  1  0  0  0  0
 50 46  1  0  0  0  0
 50 53  1  0  0  0  0
 51 48  1  0  0  0  0
 52 53  1  0  0  0  0
 53 54  2  0  0  0  0
 55 47  1  0  0  0  0
 56 52  1  0  0  0  0
 58 57  1  0  0  0  0
M  END
>  <MODEL>
2

>  <REMARK>
 VINA RESULT:      -8.9      1.974      2.452
  Name = 
  14 active torsions:
  status: ('A' for Active; 'I' for Inactive)
    1  A    between atoms: N_2  and  C_38
    2  A    between atoms: C_3  and  C_53
    3  A    between atoms: C_3  and  N_57
    4  A    between atoms: C_4  and  C_14
    5  A    between atoms: C_5  and  C_32
    6  A    between atoms: C_6  and  C_53
    7  A    between atoms: O_9  and  C_49
    8  A    between atoms: O_9  and  C_55
    9  A    between atoms: C_12  and  C_25
   10  A    between atoms: C_16  and  C_38
   11  A    between atoms: C_20  and  O_29
   12  A    between atoms: C_25  and  C_49
   13  A    between atoms: C_31  and  C_45
   14  A    between atoms: C_38  and  C_54
                            x       y       z     vdW  Elec       q    Type
                         _______ _______ _______ _____ _____    ______ ____

>  <TORSDO>
F 14

$$$$
=
 OpenBabel11062417493D

 58 66  0  0  1  0  0  0  0  0999 V2000
  188.6290  177.4110  144.6580 C   0  0  0  0  0  2  0  0  0  0  0  0
  189.6200  177.7430  142.3870 C   0  0  0  0  0  0  0  0  0  0  0  0
  188.3270  175.7510  142.8920 O   0  0  0  0  0  1  0  0  0  0  0  0
  190.4620  178.5670  142.8430 O   0  0  0  0  0  0  0  0  0  0  0  0
  188.8540  176.9370  143.2990 N   0  0  0  0  0  0  0  0  0  0  0  0
  188.4850  178.4370  140.2730 C   0  0  0  0  0  3  0  0  0  0  0  0
  188.2940  178.2990  138.8980 C   0  0  0  0  0  3  0  0  0  0  0  0
  189.0440  177.3650  138.1820 C   0  0  0  0  0  3  0  0  0  0  0  0
  189.4370  177.6350  140.9250 C   0  0  0  0  0  0  0  0  0  0  0  0
  190.1520  176.7280  140.2020 N   0  0  0  0  0  0  0  0  0  0  0  0
  189.9780  176.5720  138.8580 C   0  0  0  0  0  0  0  0  0  0  0  0
  190.8020  175.5820  138.0900 C   0  0  1  0  0  3  0  0  0  0  0  0
  188.7310  173.1780  136.3660 C   0  0  0  0  0  0  0  0  0  0  0  0
  188.8010  174.1590  135.2370 C   0  0  0  0  0  3  0  0  0  0  0  0
  189.9570  174.8140  137.1130 C   0  0  0  0  0  0  0  0  0  0  0  0
  189.3860  173.5500  137.4170 N   0  0  0  0  0  2  0  0  0  0  0  0
  189.6460  175.1990  135.8830 C   0  0  0  0  0  0  0  0  0  0  0  0
  187.9860  171.8930  136.3050 C   0  0  0  0  0  1  0  0  0  0  0  0
  190.0450  176.3560  135.2980 F   0  0  0  0  0  0  0  0  0  0  0  0
  191.9120  176.2400  137.4120 N   0  0  0  0  0  2  0  0  0  0  0  0
  194.8960  174.2990  137.6200 C   0  0  0  0  0  0  0  0  0  0  0  0
  194.3220  176.2400  136.5160 C   0  0  0  0  0  2  0  0  0  0  0  0
  195.3840  175.2280  136.8150 C   0  0  0  0  0  0  0  0  0  0  0  0
  193.5370  174.5610  137.9490 N   0  0  0  0  0  0  0  0  0  0  0  0
  193.2100  175.6490  137.3210 C   0  0  0  0  0  0  0  0  0  0  0  0
  196.6950  175.2410  136.3330 O   0  0  0  0  0  0  0  0  0  0  0  0
  197.1240  176.1990  135.3810 C   0  0  0  0  0  1  0  0  0  0  0  0
  195.6740  173.1460  138.1790 C   0  0  0  0  0  2  0  0  0  0  0  0
  196.3570  172.4500  137.0940 N   0  0  0  0  0  1  0  0  0  0  0  0
  187.1940  177.1780  145.1030 C   0  0  0  0  0  2  0  0  0  0  0  0
  186.4430  178.5010  145.1280 C   0  0  2  0  0  3  0  0  0  0  0  0
  185.5640  177.8130  142.5880 C   0  0  2  0  0  3  0  0  0  0  0  0
  185.1400  178.7580  141.4710 C   0  0  0  0  0  2  0  0  0  0  0  0
  183.0520  178.1930  143.0650 C   0  0  1  0  0  3  0  0  0  0  0  0
  184.9610  178.2760  144.9210 C   0  0  2  0  0  3  0  0  0  0  0  0
  184.1090  177.7790  141.9970 C   0  0  2  0  0  3  0  0  0  0  0  0
  183.3300  179.6310  143.5570 C   0  0  2  0  0  3  0  0  0  0  0  0
  185.8440  178.7790  143.7640 C   0  0  1  0  0  3  0  0  0  0  0  0
  183.8550  179.3650  144.9940 C   0  0  0  0  0  2  0  0  0  0  0  0
  181.9850  179.2530  142.9510 C   0  0  2  0  0  0  0  0  0  0  0  0
  180.9600  179.2430  143.9230 O   0  0  0  0  0  0  0  0  0  0  0  0
  179.2430  179.0620  142.3820 F   0  0  0  0  0  0  0  0  0  0  0  0
  180.3160  177.2300  143.0950 F   0  0  0  0  0  0  0  0  0  0  0  0
  179.8570  178.4760  143.4780 C   0  0  0  0  0  0  0  0  0  0  0  0
  178.9310  178.2990  144.4930 F   0  0  0  0  0  0  0  0  0  0  0  0
  181.7230  179.8770  141.5770 C   0  0  0  0  0  2  0  0  0  0  0  0
  180.7900  177.2530  137.5700 C   0  0  2  0  0  3  0  0  0  0  0  0
  180.8410  178.2180  139.9610 C   0  0  2  0  0  3  0  0  0  0  0  0
  179.7990  175.9870  139.5840 C   0  0  0  0  0  2  0  0  0  0  0  0
  182.0990  178.9410  140.4350 C   0  0  1  0  0  3  0  0  0  0  0  0
  180.9300  176.7240  140.2910 C   0  0  0  0  0  2  0  0  0  0  0  0
  181.7160  179.4580  138.0980 N   0  0  0  0  0  2  0  0  0  0  0  0
  182.5230  179.6930  139.2320 C   0  0  0  0  0  0  0  0  0  0  0  0
  183.5340  180.4410  139.1920 O   0  0  0  0  0  0  0  0  0  0  0  0
  179.8900  176.1030  138.0570 C   0  0  0  0  0  2  0  0  0  0  0  0
  180.6710  178.5160  138.4420 C   0  0  1  0  0  3  0  0  0  0  0  0
  180.5610  177.5400  136.0840 C   0  0  0  0  0  2  0  0  0  0  0  0
  179.3890  176.7460  135.5160 C   0  0  0  0  0  1  0  0  0  0  0  0
  1 30  1  0  0  0  0
  2  4  2  0  0  0  0
  2  5  1  0  0  0  0
  3  5  1  0  0  0  0
  5  1  1  0  0  0  0
  6  9  1  0  0  0  0
  7  6  2  0  0  0  0
  8 11  2  0  0  0  0
  8  7  1  0  0  0  0
  9  2  1  0  0  0  0
 10  9  2  0  0  0  0
 11 10  1  0  0  0  0
 12 20  1  6  0  0  0
 12 11  1  0  0  0  0
 13 16  1  0  0  0  0
 14 17  1  0  0  0  0
 14 13  2  0  0  0  0
 15 16  1  0  0  0  0
 15 12  1  0  0  0  0
 17 15  2  0  0  0  0
 18 13  1  0  0  0  0
 19 17  1  0  0  0  0
 21 24  1  0  0  0  0
 21 28  1  0  0  0  0
 22 23  1  0  0  0  0
 22 25  1  0  0  0  0
 23 21  2  0  0  0  0
 25 20  1  0  0  0  0
 25 24  2  0  0  0  0
 26 23  1  0  0  0  0
 27 26  1  0  0  0  0
 29 28  1  0  0  0  0
 31 30  1  6  0  0  0
 32 33  1  6  0  0  0
 32 38  1  0  0  0  0
 33 36  1  0  0  0  0
 34 37  1  0  0  0  0
 35 39  1  0  0  0  0
 35 31  1  0  0  0  0
 36 32  1  0  0  0  0
 36 34  1  0  0  0  0
 37 39  1  0  0  0  0
 38 35  1  0  0  0  0
 38 31  1  0  0  0  0
 40 34  1  0  0  0  0
 40 37  1  0  0  0  0
 40 41  1  0  0  0  0
 42 44  1  0  0  0  0
 43 44  1  0  0  0  0
 44 41  1  0  0  0  0
 44 45  1  0  0  0  0
 46 40  1  0  0  0  0
 47 55  1  0  0  0  0
 47 56  1  0  0  0  0
 48 51  1  0  0  0  0
 48 50  1  0  0  0  0
 49 51  1  0  0  0  0
 50 46  1  0  0  0  0
 52 56  1  0  0  0  0
 52 53  1  0  0  0  0
 53 50  1  0  0  0  0
 54 53  2  0  0  0  0
 55 49  1  0  0  0  0
 56 48  1  0  0  0  0
 57 47  1  0  0  0  0
 58 57  1  0  0  0  0
M  END
>  <MODEL>
3

>  <REMARK>
 VINA RESULT:      -8.3      4.045      9.311
  Name = 
  14 active torsions:
  status: ('A' for Active; 'I' for Inactive)
    1  A    between atoms: N_2  and  C_38
    2  A    between atoms: C_3  and  C_53
    3  A    between atoms: C_3  and  N_57
    4  A    between atoms: C_4  and  C_14
    5  A    between atoms: C_5  and  C_32
    6  A    between atoms: C_6  and  C_53
    7  A    between atoms: O_9  and  C_49
    8  A    between atoms: O_9  and  C_55
    9  A    between atoms: C_12  and  C_25
   10  A    between atoms: C_16  and  C_38
   11  A    between atoms: C_20  and  O_29
   12  A    between atoms: C_25  and  C_49
   13  A    between atoms: C_31  and  C_45
   14  A    between atoms: C_38  and  C_54
                            x       y       z     vdW  Elec       q    Type
                         _______ _______ _______ _____ _____    ______ ____

>  <TORSDO>
F 14

$$$$
=
 OpenBabel11062417493D

 58 66  0  0  1  0  0  0  0  0999 V2000
  188.7890  177.7430  144.7330 C   0  0  0  0  0  2  0  0  0  0  0  0
  189.5830  176.7240  142.5920 C   0  0  0  0  0  0  0  0  0  0  0  0
  189.2610  179.1230  142.7740 O   0  0  0  0  0  1  0  0  0  0  0  0
  189.1230  175.5950  142.9260 O   0  0  0  0  0  0  0  0  0  0  0  0
  189.2070  177.8900  143.3450 N   0  0  0  0  0  0  0  0  0  0  0  0
  191.7670  177.4090  141.5940 C   0  0  0  0  0  3  0  0  0  0  0  0
  192.6130  177.5240  140.4900 C   0  0  0  0  0  3  0  0  0  0  0  0
  192.1970  177.0530  139.2440 C   0  0  0  0  0  3  0  0  0  0  0  0
  190.5040  176.8140  141.4410 C   0  0  0  0  0  0  0  0  0  0  0  0
  190.1220  176.3670  140.2110 N   0  0  0  0  0  0  0  0  0  0  0  0
  190.9300  176.4740  139.1180 C   0  0  0  0  0  0  0  0  0  0  0  0
  190.4870  175.9480  137.7850 C   0  0  1  0  0  3  0  0  0  0  0  0
  193.3280  173.9750  136.7460 C   0  0  0  0  0  0  0  0  0  0  0  0
  193.1640  174.7050  135.4490 C   0  0  0  0  0  3  0  0  0  0  0  0
  191.6260  175.2970  137.0520 C   0  0  0  0  0  0  0  0  0  0  0  0
  192.4620  174.3150  137.6440 N   0  0  0  0  0  2  0  0  0  0  0  0
  191.9880  175.5460  135.8000 C   0  0  0  0  0  0  0  0  0  0  0  0
  194.3790  172.9550  136.9980 C   0  0  0  0  0  1  0  0  0  0  0  0
  191.3890  176.4380  134.9720 F   0  0  0  0  0  0  0  0  0  0  0  0
  189.3690  175.0240  137.9330 N   0  0  0  0  0  2  0  0  0  0  0  0
  186.7590  175.7620  135.6190 C   0  0  0  0  0  0  0  0  0  0  0  0
  187.1180  174.0670  137.1400 C   0  0  0  0  0  2  0  0  0  0  0  0
  186.2180  174.6550  136.0980 C   0  0  0  0  0  0  0  0  0  0  0  0
  188.0040  176.0440  136.2470 N   0  0  0  0  0  0  0  0  0  0  0  0
  188.2110  175.0860  137.0970 C   0  0  0  0  0  0  0  0  0  0  0  0
  184.9900  174.1340  135.6810 O   0  0  0  0  0  0  0  0  0  0  0  0
  184.8410  172.7640  135.3510 C   0  0  0  0  0  1  0  0  0  0  0  0
  186.1280  176.6570  134.5950 C   0  0  0  0  0  2  0  0  0  0  0  0
  184.9350  177.2770  135.1620 N   0  0  0  0  0  1  0  0  0  0  0  0
  187.3660  177.2160  144.8370 C   0  0  0  0  0  2  0  0  0  0  0  0
  186.4050  178.3740  145.0620 C   0  0  2  0  0  3  0  0  0  0  0  0
  185.7600  178.0900  142.3790 C   0  0  2  0  0  3  0  0  0  0  0  0
  185.2320  179.1650  141.4380 C   0  0  0  0  0  2  0  0  0  0  0  0
  183.2030  177.9730  142.7310 C   0  0  1  0  0  3  0  0  0  0  0  0
  184.9910  177.9700  144.7050 C   0  0  2  0  0  3  0  0  0  0  0  0
  184.3570  177.9530  141.6850 C   0  0  2  0  0  3  0  0  0  0  0  0
  183.2160  179.3060  143.5120 C   0  0  2  0  0  3  0  0  0  0  0  0
  185.8260  178.8280  143.7370 C   0  0  1  0  0  3  0  0  0  0  0  0
  183.7180  178.8370  144.9060 C   0  0  0  0  0  2  0  0  0  0  0  0
  181.9800  178.8560  142.7470 C   0  0  2  0  0  0  0  0  0  0  0  0
  180.9310  178.4900  143.6190 O   0  0  0  0  0  0  0  0  0  0  0  0
  179.1730  179.5310  144.7060 F   0  0  0  0  0  0  0  0  0  0  0  0
  180.3460  180.6320  143.1490 F   0  0  0  0  0  0  0  0  0  0  0  0
  179.8480  179.3930  143.5040 C   0  0  0  0  0  0  0  0  0  0  0  0
  178.9640  178.9870  142.5170 F   0  0  0  0  0  0  0  0  0  0  0  0
  181.6760  179.6980  141.5040 C   0  0  0  0  0  2  0  0  0  0  0  0
  179.9620  177.7300  137.3810 C   0  0  2  0  0  3  0  0  0  0  0  0
  180.4230  178.3560  139.8400 C   0  0  2  0  0  3  0  0  0  0  0  0
  179.1110  176.2960  139.3470 C   0  0  0  0  0  2  0  0  0  0  0  0
  181.8010  178.8950  140.2150 C   0  0  1  0  0  3  0  0  0  0  0  0
  180.3950  176.8290  139.9700 C   0  0  0  0  0  2  0  0  0  0  0  0
  181.1750  179.7540  138.0360 N   0  0  0  0  0  2  0  0  0  0  0  0
  182.1420  179.7620  139.0640 C   0  0  0  0  0  0  0  0  0  0  0  0
  183.2130  180.4160  138.9730 O   0  0  0  0  0  0  0  0  0  0  0  0
  179.0160  176.6090  137.8480 C   0  0  0  0  0  2  0  0  0  0  0  0
  180.0900  178.8690  138.4080 C   0  0  1  0  0  3  0  0  0  0  0  0
  179.5730  178.2330  135.9880 C   0  0  0  0  0  2  0  0  0  0  0  0
  178.9320  177.1430  135.1380 C   0  0  0  0  0  1  0  0  0  0  0  0
  1 30  1  0  0  0  0
  2  4  2  0  0  0  0
  2  5  1  0  0  0  0
  3  5  1  0  0  0  0
  5  1  1  0  0  0  0
  7  6  2  0  0  0  0
  8  7  1  0  0  0  0
  9  6  1  0  0  0  0
  9  2  1  0  0  0  0
 10  9  2  0  0  0  0
 11  8  2  0  0  0  0
 11 10  1  0  0  0  0
 12 20  1  1  0  0  0
 12 11  1  0  0  0  0
 13 18  1  0  0  0  0
 13 16  1  0  0  0  0
 14 17  1  0  0  0  0
 14 13  2  0  0  0  0
 15 16  1  0  0  0  0
 15 12  1  0  0  0  0
 17 15  2  0  0  0  0
 19 17  1  0  0  0  0
 21 23  2  0  0  0  0
 21 24  1  0  0  0  0
 23 22  1  0  0  0  0
 24 25  2  0  0  0  0
 25 22  1  0  0  0  0
 25 20  1  0  0  0  0
 26 23  1  0  0  0  0
 27 26  1  0  0  0  0
 28 29  1  0  0  0  0
 28 21  1  0  0  0  0
 31 30  1  6  0  0  0
 32 33  1  6  0  0  0
 32 38  1  0  0  0  0
 33 36  1  0  0  0  0
 34 40  1  0  0  0  0
 34 37  1  0  0  0  0
 35 39  1  0  0  0  0
 35 31  1  0  0  0  0
 36 32  1  0  0  0  0
 36 34  1  0  0  0  0
 37 39  1  0  0  0  0
 38 35  1  0  0  0  0
 38 31  1  0  0  0  0
 40 37  1  0  0  0  0
 40 41  1  0  0  0  0
 43 44  1  0  0  0  0
 44 41  1  0  0  0  0
 44 42  1  0  0  0  0
 45 44  1  0  0  0  0
 46 40  1  0  0  0  0
 47 55  1  0  0  0  0
 47 56  1  0  0  0  0
 48 51  1  0  0  0  0
 48 50  1  0  0  0  0
 49 51  1  0  0  0  0
 50 46  1  0  0  0  0
 52 56  1  0  0  0  0
 52 53  1  0  0  0  0
 53 50  1  0  0  0  0
 54 53  2  0  0  0  0
 55 49  1  0  0  0  0
 56 48  1  0  0  0  0
 57 47  1  0  0  0  0
 58 57  1  0  0  0  0
M  END
>  <MODEL>
4

>  <REMARK>
 VINA RESULT:      -8.3      3.862      8.295
  Name = 
  14 active torsions:
  status: ('A' for Active; 'I' for Inactive)
    1  A    between atoms: N_2  and  C_38
    2  A    between atoms: C_3  and  C_53
    3  A    between atoms: C_3  and  N_57
    4  A    between atoms: C_4  and  C_14
    5  A    between atoms: C_5  and  C_32
    6  A    between atoms: C_6  and  C_53
    7  A    between atoms: O_9  and  C_49
    8  A    between atoms: O_9  and  C_55
    9  A    between atoms: C_12  and  C_25
   10  A    between atoms: C_16  and  C_38
   11  A    between atoms: C_20  and  O_29
   12  A    between atoms: C_25  and  C_49
   13  A    between atoms: C_31  and  C_45
   14  A    between atoms: C_38  and  C_54
                            x       y       z     vdW  Elec       q    Type
                         _______ _______ _______ _____ _____    ______ ____

>  <TORSDO>
F 14

$$$$
=
 OpenBabel11062417493D

 58 66  0  0  1  0  0  0  0  0999 V2000
  188.7780  177.7440  145.2540 C   0  0  0  0  0  2  0  0  0  0  0  0
  189.4470  177.0070  142.9610 C   0  0  0  0  0  0  0  0  0  0  0  0
  189.9300  179.2600  143.7240 O   0  0  0  0  0  1  0  0  0  0  0  0
  188.5960  176.0730  142.9820 O   0  0  0  0  0  0  0  0  0  0  0  0
  189.3930  178.0340  143.9660 N   0  0  0  0  0  0  0  0  0  0  0  0
  191.7240  177.6280  142.1430 C   0  0  0  0  0  3  0  0  0  0  0  0
  192.6790  177.6630  141.1270 C   0  0  0  0  0  3  0  0  0  0  0  0
  192.3940  177.0950  139.8850 C   0  0  0  0  0  3  0  0  0  0  0  0
  190.4820  177.0150  141.9060 C   0  0  0  0  0  0  0  0  0  0  0  0
  190.2280  176.4720  140.6830 N   0  0  0  0  0  0  0  0  0  0  0  0
  191.1450  176.5000  139.6730 C   0  0  0  0  0  0  0  0  0  0  0  0
  190.8420  175.8690  138.3460 C   0  0  1  0  0  3  0  0  0  0  0  0
  187.6700  177.3340  137.4280 C   0  0  0  0  0  0  0  0  0  0  0  0
  187.2390  175.9100  137.2560 C   0  0  0  0  0  3  0  0  0  0  0  0
  189.4270  176.1460  137.9230 C   0  0  0  0  0  0  0  0  0  0  0  0
  188.9010  177.4600  137.8070 N   0  0  0  0  0  2  0  0  0  0  0  0
  188.5150  175.2340  137.6160 C   0  0  0  0  0  0  0  0  0  0  0  0
  186.7850  178.5040  137.1930 C   0  0  0  0  0  1  0  0  0  0  0  0
  188.7090  173.8910  137.6360 F   0  0  0  0  0  0  0  0  0  0  0  0
  191.7850  176.3150  137.3280 N   0  0  0  0  0  2  0  0  0  0  0  0
  194.0820  173.7290  136.4640 C   0  0  0  0  0  0  0  0  0  0  0  0
  193.6720  175.8450  135.6460 C   0  0  0  0  0  2  0  0  0  0  0  0
  194.4850  174.5920  135.5480 C   0  0  0  0  0  0  0  0  0  0  0  0
  193.0240  174.2650  137.2500 N   0  0  0  0  0  0  0  0  0  0  0  0
  192.7870  175.4530  136.7850 C   0  0  0  0  0  0  0  0  0  0  0  0
  195.5170  174.3480  134.6380 O   0  0  0  0  0  0  0  0  0  0  0  0
  196.8720  174.5970  134.9710 C   0  0  0  0  0  1  0  0  0  0  0  0
  194.6910  172.3800  136.7070 C   0  0  0  0  0  2  0  0  0  0  0  0
  193.7910  171.3450  136.2090 N   0  0  0  0  0  1  0  0  0  0  0  0
  187.3900  177.1460  145.0910 C   0  0  0  0  0  2  0  0  0  0  0  0
  186.3380  178.2170  145.3350 C   0  0  2  0  0  3  0  0  0  0  0  0
  186.0220  178.2420  142.5790 C   0  0  2  0  0  3  0  0  0  0  0  0
  185.5370  179.3990  141.7160 C   0  0  0  0  0  2  0  0  0  0  0  0
  183.4540  177.9550  142.6040 C   0  0  1  0  0  3  0  0  0  0  0  0
  185.0020  177.7920  144.7650 C   0  0  2  0  0  3  0  0  0  0  0  0
  184.7190  178.1240  141.7100 C   0  0  2  0  0  3  0  0  0  0  0  0
  183.2930  179.1780  143.5330 C   0  0  2  0  0  3  0  0  0  0  0  0
  185.8850  178.8050  144.0130 C   0  0  1  0  0  3  0  0  0  0  0  0
  183.6620  178.5630  144.9120 C   0  0  0  0  0  2  0  0  0  0  0  0
  182.1830  178.7670  142.5760 C   0  0  2  0  0  0  0  0  0  0  0  0
  181.0670  178.2430  143.2650 O   0  0  0  0  0  0  0  0  0  0  0  0
  179.5520  179.1120  144.7840 F   0  0  0  0  0  0  0  0  0  0  0  0
  180.7670  180.4810  143.4950 F   0  0  0  0  0  0  0  0  0  0  0  0
  180.1200  179.2600  143.5290 C   0  0  0  0  0  0  0  0  0  0  0  0
  179.1240  179.2760  142.5650 F   0  0  0  0  0  0  0  0  0  0  0  0
  181.9690  179.7430  141.4150 C   0  0  0  0  0  2  0  0  0  0  0  0
  180.1060  178.4890  137.0830 C   0  0  2  0  0  3  0  0  0  0  0  0
  180.5670  178.8020  139.6000 C   0  0  2  0  0  3  0  0  0  0  0  0
  178.9310  177.0660  138.8830 C   0  0  0  0  0  2  0  0  0  0  0  0
  182.0020  179.0470  140.0600 C   0  0  1  0  0  3  0  0  0  0  0  0
  180.2630  177.3000  139.5860 C   0  0  0  0  0  2  0  0  0  0  0  0
  181.6330  180.1930  137.9560 N   0  0  0  0  0  2  0  0  0  0  0  0
  182.5410  179.9360  139.0050 C   0  0  0  0  0  0  0  0  0  0  0  0
  183.7150  180.3900  139.0020 O   0  0  0  0  0  0  0  0  0  0  0  0
  178.9560  177.5210  137.4180 C   0  0  0  0  0  2  0  0  0  0  0  0
  180.3920  179.4910  138.2150 C   0  0  1  0  0  3  0  0  0  0  0  0
  179.8720  179.1750  135.7340 C   0  0  0  0  0  2  0  0  0  0  0  0
  179.2920  180.5760  135.8910 C   0  0  0  0  0  1  0  0  0  0  0  0
  2  4  2  0  0  0  0
  2  5  1  0  0  0  0
  3  5  1  0  0  0  0
  5  1  1  0  0  0  0
  7  6  2  0  0  0  0
  8  7  1  0  0  0  0
  9  6  1  0  0  0  0
  9  2  1  0  0  0  0
 10  9  2  0  0  0  0
 11  8  2  0  0  0  0
 11 10  1  0  0  0  0
 12 20  1  6  0  0  0
 12 11  1  0  0  0  0
 13 16  1  0  0  0  0
 14 13  2  0  0  0  0
 14 17  1  0  0  0  0
 15 12  1  0  0  0  0
 16 15  1  0  0  0  0
 17 19  1  0  0  0  0
 17 15  2  0  0  0  0
 18 13  1  0  0  0  0
 21 28  1  0  0  0  0
 21 24  1  0  0  0  0
 22 25  1  0  0  0  0
 23 22  1  0  0  0  0
 23 21  2  0  0  0  0
 25 24  2  0  0  0  0
 25 20  1  0  0  0  0
 26 27  1  0  0  0  0
 26 23  1  0  0  0  0
 29 28  1  0  0  0  0
 30  1  1  0  0  0  0
 31 30  1  6  0  0  0
 32 33  1  6  0  0  0
 32 38  1  0  0  0  0
 34 37  1  0  0  0  0
 35 39  1  0  0  0  0
 35 31  1  0  0  0  0
 36 33  1  0  0  0  0
 36 32  1  0  0  0  0
 36 34  1  0  0  0  0
 37 39  1  0  0  0  0
 38 35  1  0  0  0  0
 38 31  1  0  0  0  0
 40 34  1  0  0  0  0
 40 41  1  0  0  0  0
 40 37  1  0  0  0  0
 41 44  1  0  0  0  0
 43 44  1  0  0  0  0
 44 42  1  0  0  0  0
 45 44  1  0  0  0  0
 46 40  1  0  0  0  0
 47 55  1  0  0  0  0
 47 56  1  0  0  0  0
 48 50  1  0  0  0  0
 49 51  1  0  0  0  0
 50 46  1  0  0  0  0
 51 48  1  0  0  0  0
 52 56  1  0  0  0  0
 52 53  1  0  0  0  0
 53 50  1  0  0  0  0
 54 53  2  0  0  0  0
 55 49  1  0  0  0  0
 56 48  1  0  0  0  0
 57 58  1  0  0  0  0
 57 47  1  0  0  0  0
M  END
>  <MODEL>
5

>  <REMARK>
 VINA RESULT:      -7.8      3.709      9.445
  Name = 
  14 active torsions:
  status: ('A' for Active; 'I' for Inactive)
    1  A    between atoms: N_2  and  C_38
    2  A    between atoms: C_3  and  C_53
    3  A    between atoms: C_3  and  N_57
    4  A    between atoms: C_4  and  C_14
    5  A    between atoms: C_5  and  C_32
    6  A    between atoms: C_6  and  C_53
    7  A    between atoms: O_9  and  C_49
    8  A    between atoms: O_9  and  C_55
    9  A    between atoms: C_12  and  C_25
   10  A    between atoms: C_16  and  C_38
   11  A    between atoms: C_20  and  O_29
   12  A    between atoms: C_25  and  C_49
   13  A    between atoms: C_31  and  C_45
   14  A    between atoms: C_38  and  C_54
                            x       y       z     vdW  Elec       q    Type
                         _______ _______ _______ _____ _____    ______ ____

>  <TORSDO>
F 14

$$$$
=
 OpenBabel11062417493D

 58 66  0  0  1  0  0  0  0  0999 V2000
  186.3980  177.1240  145.3290 C   0  0  0  0  0  2  0  0  0  0  0  0
  188.8430  177.0660  144.8140 C   0  0  0  0  0  0  0  0  0  0  0  0
  187.2200  176.2740  143.1920 O   0  0  0  0  0  1  0  0  0  0  0  0
  189.1330  177.1120  146.0440 O   0  0  0  0  0  0  0  0  0  0  0  0
  187.4870  176.8020  144.4170 N   0  0  0  0  0  0  0  0  0  0  0  0
  191.0700  177.9970  144.1730 C   0  0  0  0  0  3  0  0  0  0  0  0
  192.0520  178.2400  143.2110 C   0  0  0  0  0  3  0  0  0  0  0  0
  191.8700  177.7890  141.9030 C   0  0  0  0  0  3  0  0  0  0  0  0
  189.9080  177.2940  143.8150 C   0  0  0  0  0  0  0  0  0  0  0  0
  189.7540  176.8690  142.5300 N   0  0  0  0  0  0  0  0  0  0  0  0
  190.6970  177.1000  141.5720 C   0  0  0  0  0  0  0  0  0  0  0  0
  190.5070  176.5940  140.1730 C   0  0  1  0  0  3  0  0  0  0  0  0
  187.6240  177.3480  138.1330 C   0  0  0  0  0  0  0  0  0  0  0  0
  187.4360  178.4830  139.0920 C   0  0  0  0  0  2  0  0  0  0  0  0
  189.2660  177.1690  139.5510 C   0  0  0  0  0  0  0  0  0  0  0  0
  188.6570  176.6150  138.3950 N   0  0  0  0  0  0  0  0  0  0  0  0
  188.6010  178.2330  139.9830 C   0  0  0  0  0  0  0  0  0  0  0  0
  186.7220  177.0740  136.9840 C   0  0  0  0  0  1  0  0  0  0  0  0
  188.9360  178.9830  141.0620 F   0  0  0  0  0  0  0  0  0  0  0  0
  191.6780  176.8760  139.3520 N   0  0  0  0  0  2  0  0  0  0  0  0
  192.1740  174.3500  136.8850 C   0  0  0  0  0  0  0  0  0  0  0  0
  193.1850  176.3730  137.3300 C   0  0  0  0  0  2  0  0  0  0  0  0
  193.1350  175.1540  136.4630 C   0  0  0  0  0  0  0  0  0  0  0  0
  191.5100  174.8890  138.0220 N   0  0  0  0  0  0  0  0  0  0  0  0
  192.0730  176.0320  138.2680 C   0  0  0  0  0  0  0  0  0  0  0  0
  193.9650  174.8830  135.3720 O   0  0  0  0  0  0  0  0  0  0  0  0
  195.3570  174.6750  135.5350 C   0  0  0  0  0  1  0  0  0  0  0  0
  191.8520  173.0080  136.2990 C   0  0  0  0  0  2  0  0  0  0  0  0
  190.4730  173.0060  135.8210 N   0  0  0  0  0  1  0  0  0  0  0  0
  186.5530  178.5170  145.9180 C   0  0  0  0  0  2  0  0  0  0  0  0
  185.3090  179.3410  145.6220 C   0  0  2  0  0  3  0  0  0  0  0  0
  185.8870  178.8760  142.9500 C   0  0  2  0  0  3  0  0  0  0  0  0
  185.5090  179.7480  141.7580 C   0  0  0  0  0  2  0  0  0  0  0  0
  183.5360  178.0120  142.3150 C   0  0  1  0  0  3  0  0  0  0  0  0
  184.3190  178.5380  144.8060 C   0  0  2  0  0  3  0  0  0  0  0  0
  184.9700  178.3310  141.7970 C   0  0  2  0  0  3  0  0  0  0  0  0
  182.8770  179.2910  142.8790 C   0  0  2  0  0  3  0  0  0  0  0  0
  185.2060  179.6030  144.1330 C   0  0  1  0  0  3  0  0  0  0  0  0
  182.8890  178.9930  144.4040 C   0  0  0  0  0  2  0  0  0  0  0  0
  182.2190  178.4960  141.7600 C   0  0  2  0  0  0  0  0  0  0  0  0
  181.0510  177.8390  142.2050 O   0  0  0  0  0  0  0  0  0  0  0  0
  179.3160  178.5950  143.5380 F   0  0  0  0  0  0  0  0  0  0  0  0
  180.4950  180.0370  142.2940 F   0  0  0  0  0  0  0  0  0  0  0  0
  179.9810  178.7550  142.3320 C   0  0  0  0  0  0  0  0  0  0  0  0
  179.0830  178.6220  141.2840 F   0  0  0  0  0  0  0  0  0  0  0  0
  182.2200  179.2100  140.4050 C   0  0  0  0  0  2  0  0  0  0  0  0
  181.6660  177.8590  135.7480 C   0  0  2  0  0  3  0  0  0  0  0  0
  181.6710  179.1350  137.9890 C   0  0  2  0  0  3  0  0  0  0  0  0
  180.2700  179.9940  136.1170 C   0  0  0  0  0  2  0  0  0  0  0  0
  181.6570  178.3370  139.2900 C   0  0  1  0  0  3  0  0  0  0  0  0
  180.2370  179.4330  137.5330 C   0  0  0  0  0  2  0  0  0  0  0  0
  183.0380  177.1870  137.6630 N   0  0  0  0  0  2  0  0  0  0  0  0
  182.5520  177.1960  138.9880 C   0  0  0  0  0  0  0  0  0  0  0  0
  182.8270  176.2840  139.8100 O   0  0  0  0  0  0  0  0  0  0  0  0
  180.8510  178.9960  135.1070 C   0  0  0  0  0  2  0  0  0  0  0  0
  182.5050  178.3300  136.9500 C   0  0  1  0  0  3  0  0  0  0  0  0
  182.5030  177.1220  134.7000 C   0  0  0  0  0  2  0  0  0  0  0  0
  182.1760  175.6340  134.6420 C   0  0  0  0  0  1  0  0  0  0  0  0
  1 30  1  0  0  0  0
  2  4  2  0  0  0  0
  3  5  1  0  0  0  0
  5  2  1  0  0  0  0
  5  1  1  0  0  0  0
  7  6  2  0  0  0  0
  8  7  1  0  0  0  0
  9  6  1  0  0  0  0
  9  2  1  0  0  0  0
 10  9  2  0  0  0  0
 11  8  2  0  0  0  0
 11 10  1  0  0  0  0
 12 20  1  6  0  0  0
 12 11  1  0  0  0  0
 13 16  2  0  0  0  0
 13 14  1  0  0  0  0
 14 17  1  0  0  0  0
 15 17  2  0  0  0  0
 15 12  1  0  0  0  0
 16 15  1  0  0  0  0
 17 19  1  0  0  0  0
 18 13  1  0  0  0  0
 21 24  1  0  0  0  0
 22 25  1  0  0  0  0
 23 21  2  0  0  0  0
 23 22  1  0  0  0  0
 24 25  2  0  0  0  0
 25 20  1  0  0  0  0
 26 27  1  0  0  0  0
 26 23  1  0  0  0  0
 28 21  1  0  0  0  0
 29 28  1  0  0  0  0
 31 30  1  6  0  0  0
 32 33  1  6  0  0  0
 32 38  1  0  0  0  0
 33 36  1  0  0  0  0
 34 37  1  0  0  0  0
 35 31  1  0  0  0  0
 36 34  1  0  0  0  0
 36 32  1  0  0  0  0
 37 39  1  0  0  0  0
 38 35  1  0  0  0  0
 38 31  1  0  0  0  0
 39 35  1  0  0  0  0
 40 41  1  0  0  0  0
 40 34  1  0  0  0  0
 40 37  1  0  0  0  0
 41 44  1  0  0  0  0
 43 44  1  0  0  0  0
 44 42  1  0  0  0  0
 45 44  1  0  0  0  0
 46 40  1  0  0  0  0
 47 56  1  0  0  0  0
 48 50  1  0  0  0  0
 49 51  1  0  0  0  0
 50 46  1  0  0  0  0
 51 48  1  0  0  0  0
 52 53  1  0  0  0  0
 53 50  1  0  0  0  0
 53 54  2  0  0  0  0
 55 47  1  0  0  0  0
 55 49  1  0  0  0  0
 56 52  1  0  0  0  0
 56 48  1  0  0  0  0
 57 47  1  0  0  0  0
 58 57  1  0  0  0  0
M  END
>  <MODEL>
6

>  <REMARK>
 VINA RESULT:      -7.7      3.137      9.468
  Name = 
  14 active torsions:
  status: ('A' for Active; 'I' for Inactive)
    1  A    between atoms: N_2  and  C_38
    2  A    between atoms: C_3  and  C_53
    3  A    between atoms: C_3  and  N_57
    4  A    between atoms: C_4  and  C_14
    5  A    between atoms: C_5  and  C_32
    6  A    between atoms: C_6  and  C_53
    7  A    between atoms: O_9  and  C_49
    8  A    between atoms: O_9  and  C_55
    9  A    between atoms: C_12  and  C_25
   10  A    between atoms: C_16  and  C_38
   11  A    between atoms: C_20  and  O_29
   12  A    between atoms: C_25  and  C_49
   13  A    between atoms: C_31  and  C_45
   14  A    between atoms: C_38  and  C_54
                            x       y       z     vdW  Elec       q    Type
                         _______ _______ _______ _____ _____    ______ ____

>  <TORSDO>
F 14

$$$$
=
 OpenBabel11062417493D

 58 66  0  0  1  0  0  0  0  0999 V2000
  190.0030  177.4930  138.7620 C   0  0  0  0  0  2  0  0  0  0  0  0
  189.5770  177.6320  141.2220 C   0  0  0  0  0  0  0  0  0  0  0  0
  191.7230  176.8700  140.3800 O   0  0  0  0  0  1  0  0  0  0  0  0
  188.3280  177.5980  141.0370 O   0  0  0  0  0  0  0  0  0  0  0  0
  190.4620  177.3140  140.1330 N   0  0  0  0  0  0  0  0  0  0  0  0
  190.9530  179.1130  142.6890 C   0  0  0  0  0  3  0  0  0  0  0  0
  191.4700  179.4340  143.9440 C   0  0  0  0  0  3  0  0  0  0  0  0
  191.1380  178.6530  145.0520 C   0  0  0  0  0  3  0  0  0  0  0  0
  190.0980  178.0060  142.5530 C   0  0  0  0  0  0  0  0  0  0  0  0
  189.7950  177.2590  143.6510 N   0  0  0  0  0  0  0  0  0  0  0  0
  190.2920  177.5510  144.8860 C   0  0  0  0  0  0  0  0  0  0  0  0
  189.9170  176.7210  146.0790 C   0  0  1  0  0  3  0  0  0  0  0  0
  192.4860  176.5850  148.6130 C   0  0  0  0  0  0  0  0  0  0  0  0
  193.0710  175.5170  147.7410 C   0  0  0  0  0  3  0  0  0  0  0  0
  191.1170  176.4150  146.9280 C   0  0  0  0  0  0  0  0  0  0  0  0
  191.3890  177.0880  148.1490 N   0  0  0  0  0  2  0  0  0  0  0  0
  192.0490  175.5100  146.6610 C   0  0  0  0  0  0  0  0  0  0  0  0
  193.0920  177.0380  149.8920 C   0  0  0  0  0  1  0  0  0  0  0  0
  192.0740  174.7090  145.5660 F   0  0  0  0  0  0  0  0  0  0  0  0
  188.8770  177.3760  146.8640 N   0  0  0  0  0  2  0  0  0  0  0  0
  186.0190  178.1260  144.8680 C   0  0  0  0  0  0  0  0  0  0  0  0
  186.4890  178.2930  147.1190 C   0  0  0  0  0  2  0  0  0  0  0  0
  185.4920  178.5000  146.0220 C   0  0  0  0  0  0  0  0  0  0  0  0
  187.3540  177.6630  145.0350 N   0  0  0  0  0  0  0  0  0  0  0  0
  187.6160  177.7480  146.3030 C   0  0  0  0  0  0  0  0  0  0  0  0
  184.2000  179.0090  146.1670 O   0  0  0  0  0  0  0  0  0  0  0  0
  183.2610  178.9610  145.1070 C   0  0  0  0  0  1  0  0  0  0  0  0
  185.3420  178.2310  143.5350 C   0  0  0  0  0  2  0  0  0  0  0  0
  186.0200  179.2380  142.7250 N   0  0  0  0  0  1  0  0  0  0  0  0
  189.9340  176.1690  138.0170 C   0  0  0  0  0  2  0  0  0  0  0  0
  189.2640  176.3740  136.6670 C   0  0  2  0  0  3  0  0  0  0  0  0
  187.8350  174.0710  137.2580 C   0  0  2  0  0  3  0  0  0  0  0  0
  187.2250  173.0840  136.2710 C   0  0  0  0  0  2  0  0  0  0  0  0
  185.5020  175.0790  136.7910 C   0  0  1  0  0  3  0  0  0  0  0  0
  187.7640  176.4850  136.8280 C   0  0  2  0  0  3  0  0  0  0  0  0
  186.2880  173.8040  137.2200 C   0  0  2  0  0  3  0  0  0  0  0  0
  185.9400  175.5210  135.3770 C   0  0  2  0  0  3  0  0  0  0  0  0
  188.4010  175.1740  136.3330 C   0  0  1  0  0  3  0  0  0  0  0  0
  186.7480  176.8090  135.6980 C   0  0  0  0  0  2  0  0  0  0  0  0
  184.4820  175.2120  135.6870 C   0  0  2  0  0  0  0  0  0  0  0  0
  183.6880  176.3800  135.6800 O   0  0  0  0  0  0  0  0  0  0  0  0
  183.5090  175.6920  137.8830 F   0  0  0  0  0  0  0  0  0  0  0  0
  184.1230  177.7920  137.4030 F   0  0  0  0  0  0  0  0  0  0  0  0
  183.3210  176.7420  136.9970 C   0  0  0  0  0  0  0  0  0  0  0  0
  182.0030  177.1650  137.0500 F   0  0  0  0  0  0  0  0  0  0  0  0
  183.9610  173.9350  135.0200 C   0  0  0  0  0  2  0  0  0  0  0  0
  180.0030  171.4500  136.4240 C   0  0  2  0  0  3  0  0  0  0  0  0
  181.6730  173.2820  135.7130 C   0  0  2  0  0  3  0  0  0  0  0  0
  179.5010  173.9600  136.7280 C   0  0  0  0  0  2  0  0  0  0  0  0
  183.1600  173.0660  135.9820 C   0  0  1  0  0  3  0  0  0  0  0  0
  181.0150  173.9900  136.9030 C   0  0  0  0  0  2  0  0  0  0  0  0
  182.1480  170.9550  135.3520 N   0  0  0  0  0  2  0  0  0  0  0  0
  183.3430  171.6240  135.6930 C   0  0  0  0  0  0  0  0  0  0  0  0
  184.4450  171.0250  135.7850 O   0  0  0  0  0  0  0  0  0  0  0  0
  178.9440  172.5310  136.7070 C   0  0  0  0  0  2  0  0  0  0  0  0
  181.0460  171.8950  135.3840 C   0  0  1  0  0  3  0  0  0  0  0  0
  179.3450  170.1160  136.0650 C   0  0  0  0  0  2  0  0  0  0  0  0
  179.6470  169.6900  134.6330 C   0  0  0  0  0  1  0  0  0  0  0  0
  1  5  1  0  0  0  0
  2  9  1  0  0  0  0
  4  2  2  0  0  0  0
  5  3  1  0  0  0  0
  5  2  1  0  0  0  0
  6  7  1  0  0  0  0
  7  8  2  0  0  0  0
  9  6  2  0  0  0  0
  9 10  1  0  0  0  0
 10 11  2  0  0  0  0
 11  8  1  0  0  0  0
 11 12  1  0  0  0  0
 12 20  1  1  0  0  0
 12 15  1  0  0  0  0
 13 18  1  0  0  0  0
 14 13  2  0  0  0  0
 15 16  1  0  0  0  0
 16 13  1  0  0  0  0
 17 15  2  0  0  0  0
 17 14  1  0  0  0  0
 19 17  1  0  0  0  0
 21 24  1  0  0  0  0
 21 23  2  0  0  0  0
 23 26  1  0  0  0  0
 23 22  1  0  0  0  0
 24 25  2  0  0  0  0
 25 20  1  0  0  0  0
 25 22  1  0  0  0  0
 27 26  1  0  0  0  0
 28 21  1  0  0  0  0
 29 28  1  0  0  0  0
 30  1  1  0  0  0  0
 31 35  1  0  0  0  0
 31 30  1  1  0  0  0
 32 33  1  6  0  0  0
 33 36  1  0  0  0  0
 34 36  1  0  0  0  0
 36 32  1  0  0  0  0
 37 40  1  0  0  0  0
 37 39  1  0  0  0  0
 37 34  1  0  0  0  0
 38 31  1  0  0  0  0
 38 35  1  0  0  0  0
 38 32  1  0  0  0  0
 39 35  1  0  0  0  0
 40 34  1  0  0  0  0
 41 40  1  0  0  0  0
 41 44  1  0  0  0  0
 44 45  1  0  0  0  0
 44 43  1  0  0  0  0
 44 42  1  0  0  0  0
 46 40  1  0  0  0  0
 46 50  1  0  0  0  0
 47 55  1  0  0  0  0
 48 50  1  0  0  0  0
 48 51  1  0  0  0  0
 49 51  1  0  0  0  0
 52 56  1  0  0  0  0
 52 53  1  0  0  0  0
 53 54  2  0  0  0  0
 53 50  1  0  0  0  0
 55 49  1  0  0  0  0
 56 48  1  0  0  0  0
 56 47  1  0  0  0  0
 57 47  1  0  0  0  0
 58 57  1  0  0  0  0
M  END
>  <MODEL>
7

>  <REMARK>
 VINA RESULT:      -7.2      3.015     10.538
  Name = 
  14 active torsions:
  status: ('A' for Active; 'I' for Inactive)
    1  A    between atoms: N_2  and  C_38
    2  A    between atoms: C_3  and  C_53
    3  A    between atoms: C_3  and  N_57
    4  A    between atoms: C_4  and  C_14
    5  A    between atoms: C_5  and  C_32
    6  A    between atoms: C_6  and  C_53
    7  A    between atoms: O_9  and  C_49
    8  A    between atoms: O_9  and  C_55
    9  A    between atoms: C_12  and  C_25
   10  A    between atoms: C_16  and  C_38
   11  A    between atoms: C_20  and  O_29
   12  A    between atoms: C_25  and  C_49
   13  A    between atoms: C_31  and  C_45
   14  A    between atoms: C_38  and  C_54
                            x       y       z     vdW  Elec       q    Type
                         _______ _______ _______ _____ _____    ______ ____

>  <TORSDO>
F 14

$$$$
=
 OpenBabel11062417493D

 58 66  0  0  1  0  0  0  0  0999 V2000
  183.6640  178.6930  144.4150 C   0  0  0  0  0  2  0  0  0  0  0  0
  185.9900  177.9130  144.8970 C   0  0  0  0  0  0  0  0  0  0  0  0
  185.1760  180.0080  145.8130 O   0  0  0  0  0  1  0  0  0  0  0  0
  185.9770  177.1570  143.8840 O   0  0  0  0  0  0  0  0  0  0  0  0
  184.9570  178.9000  145.0550 N   0  0  0  0  0  0  0  0  0  0  0  0
  186.7640  177.8120  147.2690 C   0  0  0  0  0  3  0  0  0  0  0  0
  187.7920  177.7010  148.2060 C   0  0  0  0  0  3  0  0  0  0  0  0
  189.1090  177.5390  147.7750 C   0  0  0  0  0  3  0  0  0  0  0  0
  187.0650  177.7550  145.8980 C   0  0  0  0  0  0  0  0  0  0  0  0
  188.3600  177.6000  145.5060 N   0  0  0  0  0  0  0  0  0  0  0  0
  189.3820  177.4950  146.4030 C   0  0  0  0  0  0  0  0  0  0  0  0
  190.7940  177.3000  145.9360 C   0  0  1  0  0  3  0  0  0  0  0  0
  192.7610  176.7810  148.9200 C   0  0  0  0  0  0  0  0  0  0  0  0
  192.9990  175.4220  148.3400 C   0  0  0  0  0  2  0  0  0  0  0  0
  191.6630  176.7680  147.0400 C   0  0  0  0  0  0  0  0  0  0  0  0
  192.0120  177.5350  148.1830 N   0  0  0  0  0  0  0  0  0  0  0  0
  192.2020  175.5570  147.0910 C   0  0  0  0  0  0  0  0  0  0  0  0
  193.3240  177.2410  150.2170 C   0  0  0  0  0  1  0  0  0  0  0  0
  192.0580  174.5930  146.1470 F   0  0  0  0  0  0  0  0  0  0  0  0
  190.8420  176.4260  144.7700 N   0  0  0  0  0  2  0  0  0  0  0  0
  189.3400  177.9680  141.9280 C   0  0  0  0  0  0  0  0  0  0  0  0
  190.5000  176.0030  142.2570 C   0  0  0  0  0  2  0  0  0  0  0  0
  189.7810  176.8950  141.2940 C   0  0  0  0  0  0  0  0  0  0  0  0
  189.6760  177.9270  143.3100 N   0  0  0  0  0  0  0  0  0  0  0  0
  190.3370  176.8260  143.4940 C   0  0  0  0  0  0  0  0  0  0  0  0
  189.5890  176.6520  139.9310 O   0  0  0  0  0  0  0  0  0  0  0  0
  190.1590  177.4920  138.9430 C   0  0  0  0  0  1  0  0  0  0  0  0
  188.5300  179.0660  141.3070 C   0  0  0  0  0  2  0  0  0  0  0  0
  187.1650  178.5970  141.0880 N   0  0  0  0  0  1  0  0  0  0  0  0
  183.6590  179.2040  142.9830 C   0  0  0  0  0  2  0  0  0  0  0  0
  182.7580  178.3260  142.1280 C   0  0  2  0  0  3  0  0  0  0  0  0
  183.6700  179.8330  139.9860 C   0  0  2  0  0  3  0  0  0  0  0  0
  182.9480  180.1010  138.6710 C   0  0  0  0  0  2  0  0  0  0  0  0
  184.3590  177.8200  138.5190 C   0  0  1  0  0  3  0  0  0  0  0  0
  183.5600  177.6270  141.0530 C   0  0  2  0  0  3  0  0  0  0  0  0
  184.2760  179.3730  138.6110 C   0  0  2  0  0  3  0  0  0  0  0  0
  182.9470  177.2040  138.6430 C   0  0  2  0  0  3  0  0  0  0  0  0
  182.7090  178.8630  140.7120 C   0  0  1  0  0  3  0  0  0  0  0  0
  183.0180  176.5650  140.0570 C   0  0  0  0  0  2  0  0  0  0  0  0
  183.8220  176.9260  137.4290 C   0  0  2  0  0  0  0  0  0  0  0  0
  184.2770  175.5880  137.4100 O   0  0  0  0  0  0  0  0  0  0  0  0
  186.3260  176.6600  137.3150 F   0  0  0  0  0  0  0  0  0  0  0  0
  186.2270  174.4360  137.5610 F   0  0  0  0  0  0  0  0  0  0  0  0
  185.6170  175.5230  136.9620 C   0  0  0  0  0  0  0  0  0  0  0  0
  185.6760  175.3440  135.5890 F   0  0  0  0  0  0  0  0  0  0  0  0
  183.3190  177.5750  136.1360 C   0  0  0  0  0  2  0  0  0  0  0  0
  180.1750  173.8550  135.8520 C   0  0  2  0  0  3  0  0  0  0  0  0
  182.2840  175.3380  135.8820 C   0  0  2  0  0  3  0  0  0  0  0  0
  182.4470  173.0300  134.9570 C   0  0  0  0  0  2  0  0  0  0  0  0
  182.1480  176.8160  135.5250 C   0  0  1  0  0  3  0  0  0  0  0  0
  182.5750  174.5120  134.6240 C   0  0  0  0  0  2  0  0  0  0  0  0
  180.1990  176.1190  136.7860 N   0  0  0  0  0  2  0  0  0  0  0  0
  180.8640  177.1940  136.1590 C   0  0  0  0  0  0  0  0  0  0  0  0
  180.3720  178.3510  136.1120 O   0  0  0  0  0  0  0  0  0  0  0  0
  181.0300  172.6540  135.4090 C   0  0  0  0  0  2  0  0  0  0  0  0
  180.9840  174.9110  136.6250 C   0  0  1  0  0  3  0  0  0  0  0  0
  178.9310  173.3920  136.6150 C   0  0  0  0  0  2  0  0  0  0  0  0
  179.2830  172.6170  137.8790 C   0  0  0  0  0  1  0  0  0  0  0  0
  1  5  1  0  0  0  0
  2  5  1  0  0  0  0
  2  9  1  0  0  0  0
  4  2  2  0  0  0  0
  5  3  1  0  0  0  0
  6  7  1  0  0  0  0
  8  7  2  0  0  0  0
  9  6  2  0  0  0  0
 10  9  1  0  0  0  0
 10 11  2  0  0  0  0
 11  8  1  0  0  0  0
 12 20  1  6  0  0  0
 12 11  1  0  0  0  0
 12 15  1  0  0  0  0
 13 18  1  0  0  0  0
 14 13  1  0  0  0  0
 15 17  2  0  0  0  0
 15 16  1  0  0  0  0
 16 13  2  0  0  0  0
 17 14  1  0  0  0  0
 19 17  1  0  0  0  0
 21 24  1  0  0  0  0
 22 25  1  0  0  0  0
 23 21  2  0  0  0  0
 23 22  1  0  0  0  0
 24 25  2  0  0  0  0
 25 20  1  0  0  0  0
 26 23  1  0  0  0  0
 27 26  1  0  0  0  0
 28 21  1  0  0  0  0
 29 28  1  0  0  0  0
 30  1  1  0  0  0  0
 31 30  1  1  0  0  0
 32 33  1  6  0  0  0
 32 38  1  0  0  0  0
 34 36  1  0  0  0  0
 34 37  1  0  0  0  0
 35 31  1  0  0  0  0
 36 33  1  0  0  0  0
 36 32  1  0  0  0  0
 37 39  1  0  0  0  0
 38 35  1  0  0  0  0
 38 31  1  0  0  0  0
 39 35  1  0  0  0  0
 40 34  1  0  0  0  0
 40 37  1  0  0  0  0
 41 40  1  0  0  0  0
 44 42  1  0  0  0  0
 44 41  1  0  0  0  0
 44 43  1  0  0  0  0
 45 44  1  0  0  0  0
 46 40  1  0  0  0  0
 47 57  1  0  0  0  0
 47 56  1  0  0  0  0
 48 56  1  0  0  0  0
 49 55  1  0  0  0  0
 50 48  1  0  0  0  0
 50 46  1  0  0  0  0
 50 53  1  0  0  0  0
 51 49  1  0  0  0  0
 51 48  1  0  0  0  0
 53 52  1  0  0  0  0
 54 53  2  0  0  0  0
 55 47  1  0  0  0  0
 56 52  1  0  0  0  0
 57 58  1  0  0  0  0
M  END
>  <MODEL>
8

>  <REMARK>
 VINA RESULT:      -7.0      2.801     10.983
  Name = 
  14 active torsions:
  status: ('A' for Active; 'I' for Inactive)
    1  A    between atoms: N_2  and  C_38
    2  A    between atoms: C_3  and  C_53
    3  A    between atoms: C_3  and  N_57
    4  A    between atoms: C_4  and  C_14
    5  A    between atoms: C_5  and  C_32
    6  A    between atoms: C_6  and  C_53
    7  A    between atoms: O_9  and  C_49
    8  A    between atoms: O_9  and  C_55
    9  A    between atoms: C_12  and  C_25
   10  A    between atoms: C_16  and  C_38
   11  A    between atoms: C_20  and  O_29
   12  A    between atoms: C_25  and  C_49
   13  A    between atoms: C_31  and  C_45
   14  A    between atoms: C_38  and  C_54
                            x       y       z     vdW  Elec       q    Type
                         _______ _______ _______ _____ _____    ______ ____

>  <TORSDO>
F 14

$$$$
=
 OpenBabel11062417493D

 58 66  0  0  1  0  0  0  0  0999 V2000
  191.2330  176.2910  143.4050 C   0  0  0  0  0  2  0  0  0  0  0  0
  191.3530  176.5060  140.9180 C   0  0  0  0  0  0  0  0  0  0  0  0
  189.5310  175.2920  141.9660 O   0  0  0  0  0  1  0  0  0  0  0  0
  192.5920  176.7520  140.9700 O   0  0  0  0  0  0  0  0  0  0  0  0
  190.6820  176.0070  142.0870 N   0  0  0  0  0  0  0  0  0  0  0  0
  190.0070  177.9880  139.4250 C   0  0  0  0  0  3  0  0  0  0  0  0
  189.2880  178.1910  138.2460 C   0  0  0  0  0  3  0  0  0  0  0  0
  189.1840  177.1620  137.3100 C   0  0  0  0  0  3  0  0  0  0  0  0
  190.6240  176.7470  139.6550 C   0  0  0  0  0  0  0  0  0  0  0  0
  190.5020  175.7580  138.7260 N   0  0  0  0  0  0  0  0  0  0  0  0
  189.8000  175.9330  137.5700 C   0  0  0  0  0  0  0  0  0  0  0  0
  189.7090  174.8300  136.5560 C   0  0  1  0  0  3  0  0  0  0  0  0
  192.7660  173.0150  135.9240 C   0  0  0  0  0  0  0  0  0  0  0  0
  193.1850  174.2720  135.2270 C   0  0  0  0  0  3  0  0  0  0  0  0
  191.0730  174.3690  136.1300 C   0  0  0  0  0  0  0  0  0  0  0  0
  191.5780  173.0770  136.4320 N   0  0  0  0  0  2  0  0  0  0  0  0
  191.9550  175.0810  135.4420 C   0  0  0  0  0  0  0  0  0  0  0  0
  193.6170  171.8020  136.0320 C   0  0  0  0  0  1  0  0  0  0  0  0
  191.7710  176.3540  135.0090 F   0  0  0  0  0  0  0  0  0  0  0  0
  188.9190  173.7160  137.0660 N   0  0  0  0  0  2  0  0  0  0  0  0
  185.4280  174.4340  136.9440 C   0  0  0  0  0  0  0  0  0  0  0  0
  186.6590  172.5600  137.4790 C   0  0  0  0  0  2  0  0  0  0  0  0
  185.3040  173.1770  137.3350 C   0  0  0  0  0  0  0  0  0  0  0  0
  186.7960  174.7980  136.7980 N   0  0  0  0  0  0  0  0  0  0  0  0
  187.4900  173.7410  137.0910 C   0  0  0  0  0  0  0  0  0  0  0  0
  184.0810  172.5450  137.5720 O   0  0  0  0  0  0  0  0  0  0  0  0
  183.6010  171.5190  136.7220 C   0  0  0  0  0  1  0  0  0  0  0  0
  184.2930  175.3910  136.7390 C   0  0  0  0  0  2  0  0  0  0  0  0
  183.7560  175.7900  138.0360 N   0  0  0  0  0  1  0  0  0  0  0  0
  191.7310  177.7240  143.5080 C   0  0  0  0  0  2  0  0  0  0  0  0
  190.8030  178.5270  144.4080 C   0  0  2  0  0  3  0  0  0  0  0  0
  189.0440  178.5090  142.2640 C   0  0  2  0  0  3  0  0  0  0  0  0
  187.9650  179.5360  141.9470 C   0  0  0  0  0  2  0  0  0  0  0  0
  187.0060  177.6480  143.5990 C   0  0  1  0  0  3  0  0  0  0  0  0
  189.4780  177.8160  144.5770 C   0  0  2  0  0  3  0  0  0  0  0  0
  187.5260  178.1080  142.2050 C   0  0  2  0  0  3  0  0  0  0  0  0
  187.1530  178.7930  144.6260 C   0  0  2  0  0  3  0  0  0  0  0  0
  189.6070  179.0110  143.6150 C   0  0  1  0  0  3  0  0  0  0  0  0
  188.3170  178.2620  145.5080 C   0  0  0  0  0  2  0  0  0  0  0  0
  185.8000  178.1520  144.3520 C   0  0  2  0  0  0  0  0  0  0  0  0
  185.3570  177.3810  145.4500 O   0  0  0  0  0  0  0  0  0  0  0  0
  185.2560  179.5480  146.2570 F   0  0  0  0  0  0  0  0  0  0  0  0
  183.8020  178.0060  146.9810 F   0  0  0  0  0  0  0  0  0  0  0  0
  185.1070  178.2060  146.5710 C   0  0  0  0  0  0  0  0  0  0  0  0
  185.9420  177.8790  147.6280 F   0  0  0  0  0  0  0  0  0  0  0  0
  184.8150  179.0660  143.6190 C   0  0  0  0  0  2  0  0  0  0  0  0
  180.3240  178.6080  141.7650 C   0  0  2  0  0  3  0  0  0  0  0  0
  182.3570  179.0010  143.3010 C   0  0  2  0  0  3  0  0  0  0  0  0
  180.1030  178.7410  144.3290 C   0  0  0  0  0  2  0  0  0  0  0  0
  183.6690  178.2900  142.9800 C   0  0  1  0  0  3  0  0  0  0  0  0
  181.5000  178.1390  144.2340 C   0  0  0  0  0  2  0  0  0  0  0  0
  182.5940  178.9500  140.9110 N   0  0  0  0  0  2  0  0  0  0  0  0
  183.7280  178.3530  141.5020 C   0  0  0  0  0  0  0  0  0  0  0  0
  184.6710  177.8790  140.8160 O   0  0  0  0  0  0  0  0  0  0  0  0
  179.3850  178.7660  142.9740 C   0  0  0  0  0  2  0  0  0  0  0  0
  181.6640  179.3430  141.9500 C   0  0  1  0  0  3  0  0  0  0  0  0
  179.6160  178.9950  140.4640 C   0  0  0  0  0  2  0  0  0  0  0  0
  179.3060  177.7830  139.5920 C   0  0  0  0  0  1  0  0  0  0  0  0
  1 30  1  0  0  0  0
  2  4  2  0  0  0  0
  2  5  1  0  0  0  0
  3  5  1  0  0  0  0
  5  1  1  0  0  0  0
  6  9  1  0  0  0  0
  7  6  2  0  0  0  0
  8 11  2  0  0  0  0
  8  7  1  0  0  0  0
  9  2  1  0  0  0  0
 10  9  2  0  0  0  0
 11 10  1  0  0  0  0
 12 20  1  1  0  0  0
 12 11  1  0  0  0  0
 13 18  1  0  0  0  0
 13 16  1  0  0  0  0
 14 17  1  0  0  0  0
 14 13  2  0  0  0  0
 15 16  1  0  0  0  0
 15 12  1  0  0  0  0
 17 15  2  0  0  0  0
 19 17  1  0  0  0  0
 20 25  1  0  0  0  0
 21 23  2  0  0  0  0
 23 22  1  0  0  0  0
 23 26  1  0  0  0  0
 24 21  1  0  0  0  0
 24 25  2  0  0  0  0
 25 22  1  0  0  0  0
 27 26  1  0  0  0  0
 28 21  1  0  0  0  0
 28 29  1  0  0  0  0
 31 30  1  6  0  0  0
 31 35  1  0  0  0  0
 32 33  1  6  0  0  0
 32 38  1  0  0  0  0
 33 36  1  0  0  0  0
 34 40  1  0  0  0  0
 34 37  1  0  0  0  0
 35 39  1  0  0  0  0
 36 32  1  0  0  0  0
 36 34  1  0  0  0  0
 37 39  1  0  0  0  0
 38 31  1  0  0  0  0
 38 35  1  0  0  0  0
 40 37  1  0  0  0  0
 40 41  1  0  0  0  0
 41 44  1  0  0  0  0
 42 44  1  0  0  0  0
 44 43  1  0  0  0  0
 44 45  1  0  0  0  0
 46 40  1  0  0  0  0
 47 56  1  0  0  0  0
 47 55  1  0  0  0  0
 48 51  1  0  0  0  0
 50 48  1  0  0  0  0
 50 46  1  0  0  0  0
 51 49  1  0  0  0  0
 52 53  1  0  0  0  0
 52 56  1  0  0  0  0
 53 50  1  0  0  0  0
 54 53  2  0  0  0  0
 55 49  1  0  0  0  0
 56 48  1  0  0  0  0
 57 47  1  0  0  0  0
 58 57  1  0  0  0  0
M  END
>  <MODEL>
9

>  <REMARK>
 VINA RESULT:      -6.9      3.339      6.043
  Name = 
  14 active torsions:
  status: ('A' for Active; 'I' for Inactive)
    1  A    between atoms: N_2  and  C_38
    2  A    between atoms: C_3  and  C_53
    3  A    between atoms: C_3  and  N_57
    4  A    between atoms: C_4  and  C_14
    5  A    between atoms: C_5  and  C_32
    6  A    between atoms: C_6  and  C_53
    7  A    between atoms: O_9  and  C_49
    8  A    between atoms: O_9  and  C_55
    9  A    between atoms: C_12  and  C_25
   10  A    between atoms: C_16  and  C_38
   11  A    between atoms: C_20  and  O_29
   12  A    between atoms: C_25  and  C_49
   13  A    between atoms: C_31  and  C_45
   14  A    between atoms: C_38  and  C_54
                            x       y       z     vdW  Elec       q    Type
                         _______ _______ _______ _____ _____    ______ ____

>  <TORSDO>
F 14

$$$$
