=
 OpenBabel11062418113D

 25 27  0  0  1  0  0  0  0  0999 V2000
  186.5920  177.7750  144.2700 C   0  0  0  0  0  0  0  0  0  0  0  0
  191.0220  177.7080  142.4950 C   0  0  0  0  0  3  0  0  0  0  0  0
  189.6730  177.3880  142.6090 C   0  0  0  0  0  3  0  0  0  0  0  0
  184.3020  178.4740  143.7380 C   0  0  0  0  0  0  0  0  0  0  0  0
  189.7160  177.8390  144.9890 C   0  0  0  0  0  0  0  0  0  0  0  0
  188.2580  177.3150  146.9570 C   0  0  0  0  0  0  0  0  0  0  0  0
  184.2170  179.1350  144.9550 C   0  0  0  0  0  3  0  0  0  0  0  0
  185.2680  179.0390  145.8620 C   0  0  0  0  0  3  0  0  0  0  0  0
  191.0740  178.1630  144.8480 C   0  0  0  0  0  3  0  0  0  0  0  0
  186.4470  178.3370  145.5660 C   0  0  0  0  0  0  0  0  0  0  0  0
  187.0850  177.9020  146.6680 N   0  0  0  0  0  2  0  0  0  0  0  0
  188.9760  177.4970  143.8240 C   0  0  0  0  0  0  0  0  0  0  0  0
  187.6750  177.3060  143.6720 O   0  0  0  0  0  0  0  0  0  0  0  0
  189.3830  177.5000  146.2490 N   0  0  0  0  0  2  0  0  0  0  0  0
  191.7200  178.1280  143.6170 C   0  0  0  0  0  3  0  0  0  0  0  0
  185.4820  177.8030  143.4110 C   0  0  0  0  0  3  0  0  0  0  0  0
  188.3700  176.7730  148.0870 O   0  0  0  0  0  0  0  0  0  0  0  0
  183.1490  178.5220  142.7890 C   0  0  1  0  0  3  0  0  0  0  0  0
  182.1120  179.2850  143.3280 O   0  0  0  0  0  1  0  0  0  0  0  0
  183.5830  179.0990  141.4520 C   0  0  0  0  0  2  0  0  0  0  0  0
  183.7500  178.0710  140.5220 O   0  0  0  0  0  0  0  0  0  0  0  0
  184.2490  180.3450  139.0170 O   0  0  0  0  0  1  0  0  0  0  0  0
  184.4920  177.9420  138.0190 O   0  0  0  0  0  0  0  0  0  0  0  0
  184.6990  178.7370  139.2880 P   0  0  0  0  0  0  0  0  0  0  0  0
  186.3350  178.6740  139.7200 O   0  0  0  0  0  1  0  0  0  0  0  0
  1 10  1  0  0  0  0
  2  3  2  0  0  0  0
  2 15  1  0  0  0  0
  3 12  1  0  0  0  0
  4  7  2  0  0  0  0
  5 14  1  0  0  0  0
  6 17  2  0  0  0  0
  7  8  1  0  0  0  0
  9  5  1  0  0  0  0
 10  8  2  0  0  0  0
 10 11  1  0  0  0  0
 11  6  1  0  0  0  0
 12  5  2  0  0  0  0
 13 12  1  0  0  0  0
 13  1  1  0  0  0  0
 14  6  1  0  0  0  0
 15  9  2  0  0  0  0
 16  4  1  0  0  0  0
 16  1  2  0  0  0  0
 18 19  1  1  0  0  0
 18  4  1  0  0  0  0
 20 18  1  0  0  0  0
 21 20  1  0  0  0  0
 22 24  1  0  0  0  0
 23 24  2  0  0  0  0
 24 25  1  0  0  0  0
 24 21  1  0  0  0  0
M  END
>  <MODEL>
1

>  <REMARK>
 VINA RESULT:      -8.6      0.000      0.000
  Name = 
  4 active torsions:
  status: ('A' for Active; 'I' for Inactive)
    1  A    between atoms: C_6  and  C_13
    2  A    between atoms: P_7  and  O_20
    3  A    between atoms: C_13  and  C_24
    4  A    between atoms: O_20  and  C_24
                            x       y       z     vdW  Elec       q    Type
                         _______ _______ _______ _____ _____    ______ ____

>  <TORSDO>
F 4

$$$$
=
 OpenBabel11062418113D

 25 27  0  0  1  0  0  0  0  0999 V2000
  186.5970  178.3450  143.1680 C   0  0  0  0  0  0  0  0  0  0  0  0
  181.9800  178.8980  142.0910 C   0  0  0  0  0  3  0  0  0  0  0  0
  183.3580  179.0580  141.9840 C   0  0  0  0  0  3  0  0  0  0  0  0
  188.6800  177.3690  142.3210 C   0  0  0  0  0  0  0  0  0  0  0  0
  183.6370  178.6690  144.3590 C   0  0  0  0  0  0  0  0  0  0  0  0
  185.4350  179.0590  146.0580 C   0  0  0  0  0  0  0  0  0  0  0  0
  188.8800  176.7290  143.5350 C   0  0  0  0  0  3  0  0  0  0  0  0
  188.0010  176.9690  144.5880 C   0  0  0  0  0  3  0  0  0  0  0  0
  182.2460  178.5040  144.4400 C   0  0  0  0  0  3  0  0  0  0  0  0
  186.8780  177.7990  144.4480 C   0  0  0  0  0  0  0  0  0  0  0  0
  186.4740  178.3310  145.6170 N   0  0  0  0  0  2  0  0  0  0  0  0
  184.2190  178.8950  143.0810 C   0  0  0  0  0  0  0  0  0  0  0  0
  185.4940  178.9260  142.7240 O   0  0  0  0  0  0  0  0  0  0  0  0
  184.1990  178.9930  145.5380 N   0  0  0  0  0  2  0  0  0  0  0  0
  181.4230  178.5890  143.3210 C   0  0  0  0  0  3  0  0  0  0  0  0
  187.5470  178.1680  142.1510 C   0  0  0  0  0  3  0  0  0  0  0  0
  185.5640  179.6350  147.1690 O   0  0  0  0  0  0  0  0  0  0  0  0
  189.6570  177.1630  141.2090 C   0  0  1  0  0  3  0  0  0  0  0  0
  190.3840  175.9900  141.4160 O   0  0  0  0  0  1  0  0  0  0  0  0
  188.9390  177.1050  139.8710 C   0  0  0  0  0  2  0  0  0  0  0  0
  189.7170  177.7160  138.8870 O   0  0  0  0  0  0  0  0  0  0  0  0
  188.5600  177.4990  136.3770 O   0  0  0  0  0  0  0  0  0  0  0  0
  189.0400  179.8160  137.4850 O   0  0  0  0  0  1  0  0  0  0  0  0
  188.6090  178.4030  137.8060 P   0  0  0  0  0  0  0  0  0  0  0  0
  187.0670  178.4390  138.5050 O   0  0  0  0  0  1  0  0  0  0  0  0
  1 10  1  0  0  0  0
  2 15  1  0  0  0  0
  3  2  2  0  0  0  0
  3 12  1  0  0  0  0
  4  7  2  0  0  0  0
  5  9  1  0  0  0  0
  5 14  1  0  0  0  0
  6 17  2  0  0  0  0
  7  8  1  0  0  0  0
 10  8  2  0  0  0  0
 10 11  1  0  0  0  0
 11  6  1  0  0  0  0
 12  5  2  0  0  0  0
 13 12  1  0  0  0  0
 13  1  1  0  0  0  0
 14  6  1  0  0  0  0
 15  9  2  0  0  0  0
 16  4  1  0  0  0  0
 16  1  2  0  0  0  0
 18 19  1  1  0  0  0
 18  4  1  0  0  0  0
 20 18  1  0  0  0  0
 21 20  1  0  0  0  0
 22 24  2  0  0  0  0
 23 24  1  0  0  0  0
 24 25  1  0  0  0  0
 24 21  1  0  0  0  0
M  END
>  <MODEL>
2

>  <REMARK>
 VINA RESULT:      -8.1      2.425      5.649
  Name = 
  4 active torsions:
  status: ('A' for Active; 'I' for Inactive)
    1  A    between atoms: C_6  and  C_13
    2  A    between atoms: P_7  and  O_20
    3  A    between atoms: C_13  and  C_24
    4  A    between atoms: O_20  and  C_24
                            x       y       z     vdW  Elec       q    Type
                         _______ _______ _______ _____ _____    ______ ____

>  <TORSDO>
F 4

$$$$
=
 OpenBabel11062418113D

 25 27  0  0  1  0  0  0  0  0999 V2000
  186.5810  177.6050  144.5320 C   0  0  0  0  0  0  0  0  0  0  0  0
  190.9700  176.3110  143.1760 C   0  0  0  0  0  3  0  0  0  0  0  0
  189.5800  176.3060  143.2210 C   0  0  0  0  0  3  0  0  0  0  0  0
  184.5350  178.6730  143.7060 C   0  0  0  0  0  0  0  0  0  0  0  0
  189.6010  177.1260  145.5000 C   0  0  0  0  0  0  0  0  0  0  0  0
  187.9640  177.2560  147.3910 C   0  0  0  0  0  0  0  0  0  0  0  0
  184.5360  179.5300  144.7960 C   0  0  0  0  0  3  0  0  0  0  0  0
  185.4920  179.3660  145.7950 C   0  0  0  0  0  3  0  0  0  0  0  0
  191.0020  177.1290  145.4290 C   0  0  0  0  0  3  0  0  0  0  0  0
  186.4990  178.3930  145.7110 C   0  0  0  0  0  0  0  0  0  0  0  0
  186.9670  178.0220  146.9170 N   0  0  0  0  0  2  0  0  0  0  0  0
  188.8640  176.7600  144.3410 C   0  0  0  0  0  0  0  0  0  0  0  0
  187.5620  176.8260  144.1070 O   0  0  0  0  0  0  0  0  0  0  0  0
  189.1370  177.0800  146.7630 N   0  0  0  0  0  2  0  0  0  0  0  0
  191.6860  176.7540  144.2770 C   0  0  0  0  0  3  0  0  0  0  0  0
  185.5520  177.7230  143.5860 C   0  0  0  0  0  3  0  0  0  0  0  0
  187.8950  176.8990  148.5950 O   0  0  0  0  0  0  0  0  0  0  0  0
  183.4720  178.8050  142.6650 C   0  0  1  0  0  3  0  0  0  0  0  0
  183.6590  177.8550  141.6600 O   0  0  0  0  0  1  0  0  0  0  0  0
  182.0940  178.6450  143.2860 C   0  0  0  0  0  2  0  0  0  0  0  0
  181.4140  179.8640  143.2550 O   0  0  0  0  0  0  0  0  0  0  0  0
  178.9310  178.6320  143.2860 O   0  0  0  0  0  1  0  0  0  0  0  0
  180.3610  178.8110  141.1070 O   0  0  0  0  0  0  0  0  0  0  0  0
  180.0030  179.5640  142.3680 P   0  0  0  0  0  0  0  0  0  0  0  0
  179.2630  181.0270  141.9480 O   0  0  0  0  0  1  0  0  0  0  0  0
  1 10  1  0  0  0  0
  2  3  2  0  0  0  0
  2 15  1  0  0  0  0
  3 12  1  0  0  0  0
  4  7  2  0  0  0  0
  5 14  1  0  0  0  0
  6 17  2  0  0  0  0
  7  8  1  0  0  0  0
  9  5  1  0  0  0  0
 10  8  2  0  0  0  0
 10 11  1  0  0  0  0
 11  6  1  0  0  0  0
 12  5  2  0  0  0  0
 13 12  1  0  0  0  0
 13  1  1  0  0  0  0
 14  6  1  0  0  0  0
 15  9  2  0  0  0  0
 16  4  1  0  0  0  0
 16  1  2  0  0  0  0
 18 19  1  6  0  0  0
 18 20  1  0  0  0  0
 18  4  1  0  0  0  0
 21 20  1  0  0  0  0
 23 24  2  0  0  0  0
 24 21  1  0  0  0  0
 24 22  1  0  0  0  0
 25 24  1  0  0  0  0
M  END
>  <MODEL>
3

>  <REMARK>
 VINA RESULT:      -8.0      1.866      2.903
  Name = 
  4 active torsions:
  status: ('A' for Active; 'I' for Inactive)
    1  A    between atoms: C_6  and  C_13
    2  A    between atoms: P_7  and  O_20
    3  A    between atoms: C_13  and  C_24
    4  A    between atoms: O_20  and  C_24
                            x       y       z     vdW  Elec       q    Type
                         _______ _______ _______ _____ _____    ______ ____

>  <TORSDO>
F 4

$$$$
=
 OpenBabel11062418113D

 25 27  0  0  1  0  0  0  0  0999 V2000
  186.5980  178.4610  142.1720 C   0  0  0  0  0  0  0  0  0  0  0  0
  182.9340  179.0830  139.1780 C   0  0  0  0  0  3  0  0  0  0  0  0
  184.2040  179.2600  139.7160 C   0  0  0  0  0  3  0  0  0  0  0  0
  188.8820  177.5770  142.2810 C   0  0  0  0  0  0  0  0  0  0  0  0
  183.4070  178.6590  141.9240 C   0  0  0  0  0  0  0  0  0  0  0  0
  184.2340  178.9040  144.2750 C   0  0  0  0  0  0  0  0  0  0  0  0
  188.5460  176.8310  143.4010 C   0  0  0  0  0  3  0  0  0  0  0  0
  187.2790  176.9700  143.9600 C   0  0  0  0  0  3  0  0  0  0  0  0
  182.1360  178.4790  141.3560 C   0  0  0  0  0  3  0  0  0  0  0  0
  186.3010  177.8030  143.3950 C   0  0  0  0  0  0  0  0  0  0  0  0
  185.3920  178.2250  144.2940 N   0  0  0  0  0  2  0  0  0  0  0  0
  184.4890  179.0030  141.0680 C   0  0  0  0  0  0  0  0  0  0  0  0
  185.7860  179.0740  141.3260 O   0  0  0  0  0  0  0  0  0  0  0  0
  183.3660  178.8780  143.2510 N   0  0  0  0  0  2  0  0  0  0  0  0
  181.8990  178.6600  139.9980 C   0  0  0  0  0  3  0  0  0  0  0  0
  187.9110  178.3820  141.6820 C   0  0  0  0  0  3  0  0  0  0  0  0
  183.8240  179.3780  145.3660 O   0  0  0  0  0  0  0  0  0  0  0  0
  190.2620  177.4790  141.7160 C   0  0  1  0  0  3  0  0  0  0  0  0
  191.1010  176.8060  142.6060 O   0  0  0  0  0  1  0  0  0  0  0  0
  190.2400  176.7630  140.3750 C   0  0  0  0  0  2  0  0  0  0  0  0
  190.7810  177.5870  139.3870 O   0  0  0  0  0  0  0  0  0  0  0  0
  188.2480  176.7580  138.6260 O   0  0  0  0  0  1  0  0  0  0  0  0
  190.1080  177.3120  136.8760 O   0  0  0  0  0  0  0  0  0  0  0  0
  189.5640  177.7410  138.2200 P   0  0  0  0  0  0  0  0  0  0  0  0
  189.0560  179.3530  138.1240 O   0  0  0  0  0  1  0  0  0  0  0  0
  1 10  1  0  0  0  0
  2  3  2  0  0  0  0
  2 15  1  0  0  0  0
  3 12  1  0  0  0  0
  4  7  2  0  0  0  0
  5 14  1  0  0  0  0
  6 11  1  0  0  0  0
  6 17  2  0  0  0  0
  7  8  1  0  0  0  0
  9  5  1  0  0  0  0
 10  8  2  0  0  0  0
 10 11  1  0  0  0  0
 12 13  1  0  0  0  0
 12  5  2  0  0  0  0
 13  1  1  0  0  0  0
 14  6  1  0  0  0  0
 15  9  2  0  0  0  0
 16  1  2  0  0  0  0
 16  4  1  0  0  0  0
 18  4  1  0  0  0  0
 18 19  1  1  0  0  0
 20 18  1  0  0  0  0
 21 20  1  0  0  0  0
 23 24  2  0  0  0  0
 24 22  1  0  0  0  0
 24 21  1  0  0  0  0
 25 24  1  0  0  0  0
M  END
>  <MODEL>
4

>  <REMARK>
 VINA RESULT:      -7.9      2.738      6.173
  Name = 
  4 active torsions:
  status: ('A' for Active; 'I' for Inactive)
    1  A    between atoms: C_6  and  C_13
    2  A    between atoms: P_7  and  O_20
    3  A    between atoms: C_13  and  C_24
    4  A    between atoms: O_20  and  C_24
                            x       y       z     vdW  Elec       q    Type
                         _______ _______ _______ _____ _____    ______ ____

>  <TORSDO>
F 4

$$$$
=
 OpenBabel11062418113D

 25 27  0  0  1  0  0  0  0  0999 V2000
  187.7180  177.4830  143.1310 C   0  0  0  0  0  0  0  0  0  0  0  0
  188.4960  177.5690  147.8390 C   0  0  0  0  0  3  0  0  0  0  0  0
  188.5150  177.0800  146.5370 C   0  0  0  0  0  3  0  0  0  0  0  0
  188.8830  177.5380  140.9740 C   0  0  0  0  0  0  0  0  0  0  0  0
  186.5230  178.3410  145.9800 C   0  0  0  0  0  0  0  0  0  0  0  0
  184.8050  178.2990  144.1580 C   0  0  0  0  0  0  0  0  0  0  0  0
  188.0490  178.5600  140.5440 C   0  0  0  0  0  3  0  0  0  0  0  0
  186.9990  178.9760  141.3580 C   0  0  0  0  0  3  0  0  0  0  0  0
  186.5280  178.8260  147.2970 C   0  0  0  0  0  3  0  0  0  0  0  0
  186.7850  178.4320  142.6340 C   0  0  0  0  0  0  0  0  0  0  0  0
  185.5040  178.5320  143.0360 N   0  0  0  0  0  2  0  0  0  0  0  0
  187.5820  177.4860  145.5680 C   0  0  0  0  0  0  0  0  0  0  0  0
  187.8840  177.0300  144.3620 O   0  0  0  0  0  0  0  0  0  0  0  0
  185.3130  178.4160  145.3950 N   0  0  0  0  0  2  0  0  0  0  0  0
  187.5130  178.4720  148.2130 C   0  0  0  0  0  3  0  0  0  0  0  0
  188.7090  177.0120  142.2550 C   0  0  0  0  0  3  0  0  0  0  0  0
  183.5540  178.2190  144.0530 O   0  0  0  0  0  0  0  0  0  0  0  0
  189.9710  177.0470  140.0750 C   0  0  1  0  0  3  0  0  0  0  0  0
  190.6930  176.0310  140.7030 O   0  0  0  0  0  1  0  0  0  0  0  0
  189.3920  176.5430  138.7630 C   0  0  0  0  0  2  0  0  0  0  0  0
  190.0910  177.0990  137.6910 O   0  0  0  0  0  0  0  0  0  0  0  0
  189.0140  179.6240  137.3030 O   0  0  0  0  0  1  0  0  0  0  0  0
  187.5640  177.4580  137.1260 O   0  0  0  0  0  1  0  0  0  0  0  0
  188.9440  178.0010  136.8310 P   0  0  0  0  0  0  0  0  0  0  0  0
  189.2430  177.8820  135.1690 O   0  0  0  0  0  0  0  0  0  0  0  0
  1 13  1  0  0  0  0
  2 15  1  0  0  0  0
  3  2  2  0  0  0  0
  4 16  1  0  0  0  0
  5  9  1  0  0  0  0
  6 14  1  0  0  0  0
  7  4  2  0  0  0  0
  7  8  1  0  0  0  0
  8 10  2  0  0  0  0
  9 15  2  0  0  0  0
 10 11  1  0  0  0  0
 10  1  1  0  0  0  0
 11  6  1  0  0  0  0
 12  5  2  0  0  0  0
 12  3  1  0  0  0  0
 13 12  1  0  0  0  0
 14  5  1  0  0  0  0
 16  1  2  0  0  0  0
 17  6  2  0  0  0  0
 18 19  1  1  0  0  0
 18  4  1  0  0  0  0
 20 18  1  0  0  0  0
 21 20  1  0  0  0  0
 24 23  1  0  0  0  0
 24 22  1  0  0  0  0
 24 21  1  0  0  0  0
 25 24  2  0  0  0  0
M  END
>  <MODEL>
5

>  <REMARK>
 VINA RESULT:      -7.9      2.842      5.205
  Name = 
  4 active torsions:
  status: ('A' for Active; 'I' for Inactive)
    1  A    between atoms: C_6  and  C_13
    2  A    between atoms: P_7  and  O_20
    3  A    between atoms: C_13  and  C_24
    4  A    between atoms: O_20  and  C_24
                            x       y       z     vdW  Elec       q    Type
                         _______ _______ _______ _____ _____    ______ ____

>  <TORSDO>
F 4

$$$$
=
 OpenBabel11062418113D

 25 27  0  0  1  0  0  0  0  0999 V2000
  186.7250  178.5690  141.7110 C   0  0  0  0  0  0  0  0  0  0  0  0
  189.0110  177.1080  137.7840 C   0  0  0  0  0  3  0  0  0  0  0  0
  188.8350  177.7100  139.0260 C   0  0  0  0  0  3  0  0  0  0  0  0
  186.6020  178.2000  144.1310 C   0  0  0  0  0  0  0  0  0  0  0  0
  186.5020  178.1440  138.5400 C   0  0  0  0  0  0  0  0  0  0  0  0
  184.7040  179.6190  139.4700 C   0  0  0  0  0  0  0  0  0  0  0  0
  185.2260  178.0500  144.0440 C   0  0  0  0  0  3  0  0  0  0  0  0
  184.5920  178.2530  142.8210 C   0  0  0  0  0  3  0  0  0  0  0  0
  186.7020  177.5260  137.2960 C   0  0  0  0  0  3  0  0  0  0  0  0
  185.3060  178.5510  141.6510 C   0  0  0  0  0  0  0  0  0  0  0  0
  184.5660  179.2150  140.7430 N   0  0  0  0  0  2  0  0  0  0  0  0
  187.5860  178.1860  139.4580 C   0  0  0  0  0  0  0  0  0  0  0  0
  187.6100  178.5660  140.7270 O   0  0  0  0  0  0  0  0  0  0  0  0
  185.4400  178.9710  138.5530 N   0  0  0  0  0  2  0  0  0  0  0  0
  187.9290  176.9870  136.9260 C   0  0  0  0  0  3  0  0  0  0  0  0
  187.3340  178.4580  142.9700 C   0  0  0  0  0  3  0  0  0  0  0  0
  183.9040  180.4960  139.0530 O   0  0  0  0  0  0  0  0  0  0  0  0
  187.2780  178.0460  145.4550 C   0  0  1  0  0  3  0  0  0  0  0  0
  186.4170  177.4390  146.3700 O   0  0  0  0  0  1  0  0  0  0  0  0
  188.5510  177.2280  145.3120 C   0  0  0  0  0  2  0  0  0  0  0  0
  189.6210  177.9070  145.8960 O   0  0  0  0  0  0  0  0  0  0  0  0
  191.7820  178.6790  144.3400 O   0  0  0  0  0  1  0  0  0  0  0  0
  190.5770  176.3870  143.9960 O   0  0  0  0  0  0  0  0  0  0  0  0
  190.9960  177.3690  145.0660 P   0  0  0  0  0  0  0  0  0  0  0  0
  192.0540  176.6000  146.1400 O   0  0  0  0  0  1  0  0  0  0  0  0
  1 16  1  0  0  0  0
  2  3  1  0  0  0  0
  3 12  2  0  0  0  0
  4 18  1  0  0  0  0
  5 14  1  0  0  0  0
  5 12  1  0  0  0  0
  6 11  1  0  0  0  0
  7  4  1  0  0  0  0
  8  7  2  0  0  0  0
  9  5  2  0  0  0  0
 10  1  2  0  0  0  0
 10  8  1  0  0  0  0
 11 10  1  0  0  0  0
 12 13  1  0  0  0  0
 13  1  1  0  0  0  0
 14  6  1  0  0  0  0
 15  9  1  0  0  0  0
 15  2  2  0  0  0  0
 16  4  2  0  0  0  0
 17  6  2  0  0  0  0
 18 19  1  1  0  0  0
 20 18  1  0  0  0  0
 20 21  1  0  0  0  0
 22 24  1  0  0  0  0
 23 24  2  0  0  0  0
 24 21  1  0  0  0  0
 24 25  1  0  0  0  0
M  END
>  <MODEL>
6

>  <REMARK>
 VINA RESULT:      -7.6      4.037      6.620
  Name = 
  4 active torsions:
  status: ('A' for Active; 'I' for Inactive)
    1  A    between atoms: C_6  and  C_13
    2  A    between atoms: P_7  and  O_20
    3  A    between atoms: C_13  and  C_24
    4  A    between atoms: O_20  and  C_24
                            x       y       z     vdW  Elec       q    Type
                         _______ _______ _______ _____ _____    ______ ____

>  <TORSDO>
F 4

$$$$
=
 OpenBabel11062418113D

 25 27  0  0  1  0  0  0  0  0999 V2000
  187.6520  177.5110  142.9510 C   0  0  0  0  0  0  0  0  0  0  0  0
  187.8210  177.7890  147.7120 C   0  0  0  0  0  3  0  0  0  0  0  0
  188.0110  177.2500  146.4440 C   0  0  0  0  0  3  0  0  0  0  0  0
  189.0810  177.4990  140.9590 C   0  0  0  0  0  0  0  0  0  0  0  0
  186.0960  178.4610  145.5880 C   0  0  0  0  0  0  0  0  0  0  0  0
  184.6240  178.3250  143.5670 C   0  0  0  0  0  0  0  0  0  0  0  0
  188.3010  178.4920  140.3870 C   0  0  0  0  0  3  0  0  0  0  0  0
  187.1520  178.9230  141.0440 C   0  0  0  0  0  3  0  0  0  0  0  0
  185.9290  178.9970  146.8750 C   0  0  0  0  0  3  0  0  0  0  0  0
  186.7810  178.4270  142.3030 C   0  0  0  0  0  0  0  0  0  0  0  0
  185.4590  178.5250  142.5330 N   0  0  0  0  0  2  0  0  0  0  0  0
  187.2060  177.6060  145.3500 C   0  0  0  0  0  0  0  0  0  0  0  0
  187.6630  177.1080  144.2110 O   0  0  0  0  0  0  0  0  0  0  0  0
  184.9700  178.4970  144.8520 N   0  0  0  0  0  2  0  0  0  0  0  0
  186.7920  178.6920  147.9220 C   0  0  0  0  0  3  0  0  0  0  0  0
  188.7500  177.0200  142.2280 C   0  0  0  0  0  3  0  0  0  0  0  0
  183.3970  178.2240  143.3070 O   0  0  0  0  0  0  0  0  0  0  0  0
  190.2790  176.9880  140.2270 C   0  0  1  0  0  3  0  0  0  0  0  0
  190.8970  175.9740  140.9600 O   0  0  0  0  0  1  0  0  0  0  0  0
  189.8850  176.4730  138.8520 C   0  0  0  0  0  2  0  0  0  0  0  0
  190.6260  177.1290  137.8680 O   0  0  0  0  0  0  0  0  0  0  0  0
  192.1770  176.0370  135.8460 O   0  0  0  0  0  0  0  0  0  0  0  0
  191.5840  174.7010  138.0120 O   0  0  0  0  0  1  0  0  0  0  0  0
  191.9170  176.0900  137.5170 P   0  0  0  0  0  0  0  0  0  0  0  0
  193.3220  176.6320  138.2910 O   0  0  0  0  0  1  0  0  0  0  0  0
  1 13  1  0  0  0  0
  2 15  1  0  0  0  0
  3  2  2  0  0  0  0
  4 16  1  0  0  0  0
  5  9  1  0  0  0  0
  6 14  1  0  0  0  0
  7  4  2  0  0  0  0
  7  8  1  0  0  0  0
  8 10  2  0  0  0  0
  9 15  2  0  0  0  0
 10 11  1  0  0  0  0
 10  1  1  0  0  0  0
 11  6  1  0  0  0  0
 12  5  2  0  0  0  0
 12  3  1  0  0  0  0
 13 12  1  0  0  0  0
 14  5  1  0  0  0  0
 16  1  2  0  0  0  0
 17  6  2  0  0  0  0
 18  4  1  0  0  0  0
 18 19  1  1  0  0  0
 20 18  1  0  0  0  0
 21 20  1  0  0  0  0
 22 24  2  0  0  0  0
 24 21  1  0  0  0  0
 24 23  1  0  0  0  0
 24 25  1  0  0  0  0
M  END
>  <MODEL>
7

>  <REMARK>
 VINA RESULT:      -7.6      3.757      6.070
  Name = 
  4 active torsions:
  status: ('A' for Active; 'I' for Inactive)
    1  A    between atoms: C_6  and  C_13
    2  A    between atoms: P_7  and  O_20
    3  A    between atoms: C_13  and  C_24
    4  A    between atoms: O_20  and  C_24
                            x       y       z     vdW  Elec       q    Type
                         _______ _______ _______ _____ _____    ______ ____

>  <TORSDO>
F 4

$$$$
=
 OpenBabel11062418113D

 25 27  0  0  1  0  0  0  0  0999 V2000
  187.2080  177.7370  143.7010 C   0  0  0  0  0  0  0  0  0  0  0  0
  189.7270  177.3160  147.7320 C   0  0  0  0  0  3  0  0  0  0  0  0
  189.2240  176.9670  146.4840 C   0  0  0  0  0  3  0  0  0  0  0  0
  187.4610  178.0100  141.2780 C   0  0  0  0  0  0  0  0  0  0  0  0
  187.2350  178.2990  146.8580 C   0  0  0  0  0  0  0  0  0  0  0  0
  184.9520  178.4670  145.8430 C   0  0  0  0  0  0  0  0  0  0  0  0
  186.5790  179.0800  141.3010 C   0  0  0  0  0  3  0  0  0  0  0  0
  185.9410  179.4160  142.4920 C   0  0  0  0  0  3  0  0  0  0  0  0
  187.7670  178.6420  148.1110 C   0  0  0  0  0  3  0  0  0  0  0  0
  186.2040  178.7420  143.6940 C   0  0  0  0  0  0  0  0  0  0  0  0
  185.1800  178.8110  144.5650 N   0  0  0  0  0  2  0  0  0  0  0  0
  188.0130  177.4830  145.9920 C   0  0  0  0  0  0  0  0  0  0  0  0
  187.8090  177.1550  144.7260 O   0  0  0  0  0  0  0  0  0  0  0  0
  185.8990  178.4480  146.7940 N   0  0  0  0  0  2  0  0  0  0  0  0
  189.0080  178.1840  148.5390 C   0  0  0  0  0  3  0  0  0  0  0  0
  187.7640  177.3520  142.4720 C   0  0  0  0  0  3  0  0  0  0  0  0
  183.7530  178.4110  146.2210 O   0  0  0  0  0  0  0  0  0  0  0  0
  188.0980  177.6060  139.9880 C   0  0  1  0  0  3  0  0  0  0  0  0
  187.6400  178.4180  138.9490 O   0  0  0  0  0  1  0  0  0  0  0  0
  189.6120  177.6910  140.0900 C   0  0  0  0  0  2  0  0  0  0  0  0
  190.1610  176.4080  140.0850 O   0  0  0  0  0  0  0  0  0  0  0  0
  191.1070  174.7240  138.0960 O   0  0  0  0  0  1  0  0  0  0  0  0
  192.4820  176.7790  138.9400 O   0  0  0  0  0  1  0  0  0  0  0  0
  191.0700  176.3190  138.6580 P   0  0  0  0  0  0  0  0  0  0  0  0
  190.3870  177.3190  137.4750 O   0  0  0  0  0  0  0  0  0  0  0  0
  1 13  1  0  0  0  0
  2 15  1  0  0  0  0
  3  2  2  0  0  0  0
  4  7  2  0  0  0  0
  4 16  1  0  0  0  0
  5  9  1  0  0  0  0
  6 17  2  0  0  0  0
  6 14  1  0  0  0  0
  7  8  1  0  0  0  0
  8 10  2  0  0  0  0
  9 15  2  0  0  0  0
 10  1  1  0  0  0  0
 10 11  1  0  0  0  0
 11  6  1  0  0  0  0
 12  3  1  0  0  0  0
 12  5  2  0  0  0  0
 13 12  1  0  0  0  0
 14  5  1  0  0  0  0
 16  1  2  0  0  0  0
 18 19  1  6  0  0  0
 18 20  1  0  0  0  0
 18  4  1  0  0  0  0
 21 20  1  0  0  0  0
 22 24  1  0  0  0  0
 24 23  1  0  0  0  0
 24 21  1  0  0  0  0
 25 24  2  0  0  0  0
M  END
>  <MODEL>
8

>  <REMARK>
 VINA RESULT:      -7.6      3.180      4.977
  Name = 
  4 active torsions:
  status: ('A' for Active; 'I' for Inactive)
    1  A    between atoms: C_6  and  C_13
    2  A    between atoms: P_7  and  O_20
    3  A    between atoms: C_13  and  C_24
    4  A    between atoms: O_20  and  C_24
                            x       y       z     vdW  Elec       q    Type
                         _______ _______ _______ _____ _____    ______ ____

>  <TORSDO>
F 4

$$$$
=
 OpenBabel11062418113D

 25 27  0  0  1  0  0  0  0  0999 V2000
  188.6220  177.9740  141.6320 C   0  0  0  0  0  0  0  0  0  0  0  0
  186.2100  177.5460  145.7280 C   0  0  0  0  0  3  0  0  0  0  0  0
  186.5000  177.9910  144.4420 C   0  0  0  0  0  3  0  0  0  0  0  0
  188.4850  177.4540  139.2390 C   0  0  0  0  0  0  0  0  0  0  0  0
  188.8730  177.6710  144.8140 C   0  0  0  0  0  0  0  0  0  0  0  0
  190.9950  178.4320  143.7220 C   0  0  0  0  0  0  0  0  0  0  0  0
  189.7420  176.8720  139.2890 C   0  0  0  0  0  3  0  0  0  0  0  0
  190.4750  176.9240  140.4710 C   0  0  0  0  0  3  0  0  0  0  0  0
  188.5540  177.2190  146.1040 C   0  0  0  0  0  3  0  0  0  0  0  0
  189.9610  177.5000  141.6430 C   0  0  0  0  0  0  0  0  0  0  0  0
  190.9240  177.9370  142.4760 N   0  0  0  0  0  2  0  0  0  0  0  0
  187.8100  178.0130  143.9340 C   0  0  0  0  0  0  0  0  0  0  0  0
  187.8390  178.3100  142.6440 O   0  0  0  0  0  0  0  0  0  0  0  0
  190.1410  178.1070  144.7070 N   0  0  0  0  0  2  0  0  0  0  0  0
  187.2420  177.1280  146.5540 C   0  0  0  0  0  3  0  0  0  0  0  0
  187.9400  177.9980  140.4050 C   0  0  0  0  0  3  0  0  0  0  0  0
  192.0560  179.0230  144.0490 O   0  0  0  0  0  0  0  0  0  0  0  0
  187.7220  177.4570  137.9540 C   0  0  1  0  0  3  0  0  0  0  0  0
  187.3810  176.1520  137.5930 O   0  0  0  0  0  1  0  0  0  0  0  0
  186.4710  178.3100  138.0780 C   0  0  0  0  0  2  0  0  0  0  0  0
  185.3400  177.4930  138.1220 O   0  0  0  0  0  0  0  0  0  0  0  0
  183.4520  177.4400  140.1510 O   0  0  0  0  0  1  0  0  0  0  0  0
  183.1110  178.8510  137.9780 O   0  0  0  0  0  0  0  0  0  0  0  0
  184.1720  178.3940  138.9540 P   0  0  0  0  0  0  0  0  0  0  0  0
  184.8900  179.7510  139.6680 O   0  0  0  0  0  1  0  0  0  0  0  0
  1 10  1  0  0  0  0
  1 13  1  0  0  0  0
  2 15  1  0  0  0  0
  3  2  2  0  0  0  0
  4  7  2  0  0  0  0
  4 16  1  0  0  0  0
  5  9  1  0  0  0  0
  6 17  2  0  0  0  0
  6 14  1  0  0  0  0
  7  8  1  0  0  0  0
  8 10  2  0  0  0  0
  9 15  2  0  0  0  0
 10 11  1  0  0  0  0
 11  6  1  0  0  0  0
 12  3  1  0  0  0  0
 12  5  2  0  0  0  0
 13 12  1  0  0  0  0
 14  5  1  0  0  0  0
 16  1  2  0  0  0  0
 18 19  1  1  0  0  0
 18 20  1  0  0  0  0
 18  4  1  0  0  0  0
 20 21  1  0  0  0  0
 21 24  1  0  0  0  0
 23 24  2  0  0  0  0
 24 25  1  0  0  0  0
 24 22  1  0  0  0  0
M  END
>  <MODEL>
9

>  <REMARK>
 VINA RESULT:      -7.5      2.487      4.749
  Name = 
  4 active torsions:
  status: ('A' for Active; 'I' for Inactive)
    1  A    between atoms: C_6  and  C_13
    2  A    between atoms: P_7  and  O_20
    3  A    between atoms: C_13  and  C_24
    4  A    between atoms: O_20  and  C_24
                            x       y       z     vdW  Elec       q    Type
                         _______ _______ _______ _____ _____    ______ ____

>  <TORSDO>
F 4

$$$$
