=
 OpenBabel11062416513D

 34 36  0  0  1  0  0  0  0  0999 V2000
  191.3540  176.8210  139.6490 C   0  0  0  0  0  3  0  0  0  0  0  0
  189.8590  175.9810  137.8640 C   0  0  0  0  0  3  0  0  0  0  0  0
  189.2580  178.0870  140.0180 C   0  0  0  0  0  3  0  0  0  0  0  0
  191.1370  176.6900  138.1760 C   0  0  2  0  0  3  0  0  0  0  0  0
  187.2790  178.3860  138.8100 O   0  0  0  0  0  1  0  0  0  0  0  0
  190.5270  177.4660  140.4740 C   0  0  0  0  0  0  0  0  0  0  0  0
  188.6680  176.4540  138.2270 C   0  0  0  0  0  3  0  0  0  0  0  0
  188.4470  177.6690  139.0350 C   0  0  0  0  0  0  0  0  0  0  0  0
  193.5300  173.8420  137.5540 C   0  0  0  0  0  3  0  0  0  0  0  0
  192.3930  174.5340  137.5700 C   0  0  0  0  0  3  0  0  0  0  0  0
  193.1410  176.7870  136.8240 C   0  0  0  0  0  3  0  0  0  0  0  0
  194.8740  174.5060  137.5780 C   0  0  2  0  0  3  0  0  0  0  0  0
  194.3190  176.3360  136.0560 C   0  0  0  0  0  3  0  0  0  0  0  0
  195.0500  175.3090  136.3680 N   0  0  0  0  0  0  0  0  0  0  0  0
  192.3030  176.0130  137.5270 C   0  0  0  0  0  0  0  0  0  0  0  0
  195.9500  173.5090  137.6960 N   0  0  0  0  0  0  0  0  0  0  0  0
  195.3710  172.2170  138.0690 C   0  0  0  0  0  1  0  0  0  0  0  0
  198.1630  174.6280  138.1330 C   0  0  0  0  0  1  0  0  0  0  0  0
  196.9320  173.9300  138.7130 C   0  0  0  0  0  3  0  0  0  0  0  0
  196.2810  174.7890  139.7840 C   0  0  0  0  0  1  0  0  0  0  0  0
  190.2990  175.4850  142.6530 O   0  0  0  0  0  0  0  0  0  0  0  0
  190.8230  176.6080  142.8760 C   0  0  0  0  0  0  0  0  0  0  0  0
  190.9440  177.5930  141.8400 N   0  0  0  0  0  2  0  0  0  0  0  0
  191.3330  176.9150  144.2460 C   0  0  0  0  0  2  0  0  0  0  0  0
  186.3210  178.1510  144.8280 Cl  0  0  0  0  0  0  0  0  0  0  0  0
  187.8540  177.6520  145.5080 C   0  0  0  0  0  0  0  0  0  0  0  0
  190.2020  177.1000  145.2080 C   0  0  0  0  0  0  0  0  0  0  0  0
  189.1860  176.9970  147.4130 C   0  0  0  0  0  3  0  0  0  0  0  0
  190.3220  176.8470  146.6000 C   0  0  0  0  0  0  0  0  0  0  0  0
  187.9620  177.3960  146.8730 C   0  0  0  0  0  3  0  0  0  0  0  0
  188.9670  177.5000  144.6810 C   0  0  0  0  0  3  0  0  0  0  0  0
  191.5910  176.4310  147.2460 C   0  0  0  0  0  0  0  0  0  0  0  0
  192.1120  177.1570  148.1340 O   0  0  0  0  0  1  0  0  0  0  0  0
  192.2420  175.2610  146.8760 O   0  0  0  0  0  0  0  0  0  0  0  0
  1  6  2  0  0  0  0
  2  4  1  0  0  0  0
  2  7  2  0  0  0  0
  3  6  1  0  0  0  0
  4 15  1  1  0  0  0
  4  1  1  0  0  0  0
  5  8  1  0  0  0  0
  6 23  1  0  0  0  0
  7  8  1  0  0  0  0
  8  3  2  0  0  0  0
  9 10  2  0  0  0  0
  9 12  1  0  0  0  0
 11 15  2  0  0  0  0
 12 16  1  6  0  0  0
 13 14  2  0  0  0  0
 13 11  1  0  0  0  0
 14 12  1  0  0  0  0
 15 10  1  0  0  0  0
 16 17  1  0  0  0  0
 16 19  1  0  0  0  0
 18 19  1  0  0  0  0
 19 20  1  0  0  0  0
 21 22  2  0  0  0  0
 22 24  1  0  0  0  0
 23 22  1  0  0  0  0
 24 27  1  0  0  0  0
 25 26  1  0  0  0  0
 26 30  1  0  0  0  0
 27 29  2  0  0  0  0
 29 32  1  0  0  0  0
 29 28  1  0  0  0  0
 30 28  2  0  0  0  0
 31 27  1  0  0  0  0
 31 26  2  0  0  0  0
 32 33  1  0  0  0  0
 34 32  2  0  0  0  0
M  END
>  <MODEL>
1

>  <REMARK>
 VINA RESULT:      -9.3      0.000      0.000
  Name = 
  7 active torsions:
  status: ('A' for Active; 'I' for Inactive)
    1  A    between atoms: N_3  and  C_17
    2  A    between atoms: N_3  and  C_30
    3  A    between atoms: C_7  and  C_29
    4  A    between atoms: C_12  and  C_15
    5  A    between atoms: C_14  and  C_15
    6  A    between atoms: C_19  and  C_28
    7  A    between atoms: C_21  and  N_32
                            x       y       z     vdW  Elec       q    Type
                         _______ _______ _______ _____ _____    ______ ____

>  <TORSDO>
F 7

$$$$
=
 OpenBabel11062416513D

 34 36  0  0  1  0  0  0  0  0999 V2000
  187.4080  177.6860  143.3990 C   0  0  0  0  0  3  0  0  0  0  0  0
  189.6990  178.1680  144.2030 C   0  0  0  0  0  3  0  0  0  0  0  0
  187.3150  177.0600  145.7930 C   0  0  0  0  0  3  0  0  0  0  0  0
  188.8610  177.3610  143.2640 C   0  0  2  0  0  3  0  0  0  0  0  0
  188.9030  176.7800  147.4850 O   0  0  0  0  0  1  0  0  0  0  0  0
  186.7060  177.5290  144.5230 C   0  0  0  0  0  0  0  0  0  0  0  0
  189.5710  178.0910  145.5260 C   0  0  0  0  0  3  0  0  0  0  0  0
  188.5620  177.2820  146.2370 C   0  0  0  0  0  0  0  0  0  0  0  0
  188.4310  178.1960  139.6110 C   0  0  0  0  0  3  0  0  0  0  0  0
  188.5000  178.3680  140.9300 C   0  0  0  0  0  3  0  0  0  0  0  0
  190.5130  177.0340  141.5270 C   0  0  0  0  0  3  0  0  0  0  0  0
  189.1220  177.0640  138.9130 C   0  0  2  0  0  3  0  0  0  0  0  0
  191.1870  177.1350  140.2170 C   0  0  0  0  0  3  0  0  0  0  0  0
  190.5690  177.1910  139.0760 N   0  0  0  0  0  0  0  0  0  0  0  0
  189.3130  177.5380  141.8490 C   0  0  0  0  0  0  0  0  0  0  0  0
  188.7650  177.0330  137.4850 N   0  0  0  0  0  0  0  0  0  0  0  0
  189.1000  178.3220  136.8760 C   0  0  0  0  0  1  0  0  0  0  0  0
  186.6150  177.7340  136.3760 C   0  0  0  0  0  1  0  0  0  0  0  0
  187.3230  176.7620  137.3210 C   0  0  0  0  0  3  0  0  0  0  0  0
  187.0780  175.3250  136.8970 C   0  0  0  0  0  1  0  0  0  0  0  0
  185.1690  179.7390  145.7400 O   0  0  0  0  0  0  0  0  0  0  0  0
  184.5790  178.8690  145.0470 C   0  0  0  0  0  0  0  0  0  0  0  0
  185.2970  177.7820  144.4470 N   0  0  0  0  0  2  0  0  0  0  0  0
  183.1040  178.9780  144.8440 C   0  0  0  0  0  2  0  0  0  0  0  0
  184.9100  178.8390  139.9750 Cl  0  0  0  0  0  0  0  0  0  0  0  0
  183.5740  178.7920  141.1050 C   0  0  0  0  0  0  0  0  0  0  0  0
  182.7560  178.8820  143.3920 C   0  0  0  0  0  0  0  0  0  0  0  0
  181.2090  178.5790  141.5430 C   0  0  0  0  0  3  0  0  0  0  0  0
  181.4260  178.7150  142.9250 C   0  0  0  0  0  0  0  0  0  0  0  0
  182.2720  178.6170  140.6400 C   0  0  0  0  0  3  0  0  0  0  0  0
  183.8140  178.9190  142.4730 C   0  0  0  0  0  3  0  0  0  0  0  0
  180.2460  178.6750  143.8230 C   0  0  0  0  0  0  0  0  0  0  0  0
  179.8540  177.5750  144.2960 O   0  0  0  0  0  1  0  0  0  0  0  0
  179.5390  179.8270  144.1420 O   0  0  0  0  0  0  0  0  0  0  0  0
  1  6  2  0  0  0  0
  2  7  2  0  0  0  0
  3  8  2  0  0  0  0
  4 15  1  6  0  0  0
  4  1  1  0  0  0  0
  4  2  1  0  0  0  0
  6  3  1  0  0  0  0
  7  8  1  0  0  0  0
  8  5  1  0  0  0  0
  9 10  2  0  0  0  0
 10 15  1  0  0  0  0
 11 15  2  0  0  0  0
 12 16  1  6  0  0  0
 12 14  1  0  0  0  0
 12  9  1  0  0  0  0
 13 11  1  0  0  0  0
 14 13  2  0  0  0  0
 17 16  1  0  0  0  0
 18 19  1  0  0  0  0
 19 16  1  0  0  0  0
 20 19  1  0  0  0  0
 22 21  2  0  0  0  0
 23  6  1  0  0  0  0
 23 22  1  0  0  0  0
 24 22  1  0  0  0  0
 25 26  1  0  0  0  0
 26 31  1  0  0  0  0
 27 24  1  0  0  0  0
 28 29  2  0  0  0  0
 29 27  1  0  0  0  0
 29 32  1  0  0  0  0
 30 26  2  0  0  0  0
 30 28  1  0  0  0  0
 31 27  2  0  0  0  0
 32 34  2  0  0  0  0
 32 33  1  0  0  0  0
M  END
>  <MODEL>
2

>  <REMARK>
 VINA RESULT:      -9.2      4.599      8.122
  Name = 
  7 active torsions:
  status: ('A' for Active; 'I' for Inactive)
    1  A    between atoms: N_3  and  C_17
    2  A    between atoms: N_3  and  C_30
    3  A    between atoms: C_7  and  C_29
    4  A    between atoms: C_12  and  C_15
    5  A    between atoms: C_14  and  C_15
    6  A    between atoms: C_19  and  C_28
    7  A    between atoms: C_21  and  N_32
                            x       y       z     vdW  Elec       q    Type
                         _______ _______ _______ _____ _____    ______ ____

>  <TORSDO>
F 7

$$$$
=
 OpenBabel11062416513D

 34 36  0  0  1  0  0  0  0  0999 V2000
  188.3120  178.0650  140.5580 C   0  0  0  0  0  3  0  0  0  0  0  0
  188.1560  178.5640  138.1390 C   0  0  0  0  0  3  0  0  0  0  0  0
  190.3710  177.0480  139.6320 C   0  0  0  0  0  3  0  0  0  0  0  0
  187.5260  177.8680  139.3020 C   0  0  2  0  0  3  0  0  0  0  0  0
  191.1630  176.6020  137.4780 O   0  0  0  0  0  1  0  0  0  0  0  0
  189.5790  177.6780  140.7180 C   0  0  0  0  0  0  0  0  0  0  0  0
  189.3730  178.2610  137.6940 C   0  0  0  0  0  3  0  0  0  0  0  0
  190.2840  177.2790  138.3130 C   0  0  0  0  0  0  0  0  0  0  0  0
  184.4080  178.6100  141.2900 C   0  0  0  0  0  3  0  0  0  0  0  0
  185.6550  178.7230  140.8390 C   0  0  0  0  0  3  0  0  0  0  0  0
  185.3550  178.4200  138.3880 C   0  0  0  0  0  3  0  0  0  0  0  0
  183.3220  177.9540  140.4910 C   0  0  2  0  0  3  0  0  0  0  0  0
  183.9550  178.8870  138.3230 C   0  0  0  0  0  3  0  0  0  0  0  0
  183.0800  178.7170  139.2680 N   0  0  0  0  0  0  0  0  0  0  0  0
  186.1080  178.3060  139.4910 C   0  0  0  0  0  0  0  0  0  0  0  0
  182.0850  177.8410  141.2810 N   0  0  0  0  0  0  0  0  0  0  0  0
  180.9800  177.4690  140.3960 C   0  0  0  0  0  1  0  0  0  0  0  0
  180.4750  179.7660  141.4880 C   0  0  0  0  0  1  0  0  0  0  0  0
  181.7830  179.1210  141.9490 C   0  0  0  0  0  3  0  0  0  0  0  0
  181.8060  178.9720  143.4600 C   0  0  0  0  0  1  0  0  0  0  0  0
  189.9540  175.6410  142.8250 O   0  0  0  0  0  0  0  0  0  0  0  0
  190.3190  176.8290  143.0260 C   0  0  0  0  0  0  0  0  0  0  0  0
  190.1460  177.8420  142.0250 N   0  0  0  0  0  2  0  0  0  0  0  0
  190.9500  177.1860  144.3320 C   0  0  0  0  0  2  0  0  0  0  0  0
  186.0150  178.3180  145.4940 Cl  0  0  0  0  0  0  0  0  0  0  0  0
  187.6110  177.7920  145.9820 C   0  0  0  0  0  0  0  0  0  0  0  0
  189.9190  177.2900  145.4120 C   0  0  0  0  0  0  0  0  0  0  0  0
  189.1300  177.0210  147.6940 C   0  0  0  0  0  3  0  0  0  0  0  0
  190.1790  176.9420  146.7640 C   0  0  0  0  0  0  0  0  0  0  0  0
  187.8550  177.4420  147.3080 C   0  0  0  0  0  3  0  0  0  0  0  0
  188.6360  177.7110  145.0390 C   0  0  0  0  0  3  0  0  0  0  0  0
  191.5090  176.4960  147.2490 C   0  0  0  0  0  0  0  0  0  0  0  0
  192.1050  177.1580  148.1400 O   0  0  0  0  0  1  0  0  0  0  0  0
  192.1320  175.3710  146.7250 O   0  0  0  0  0  0  0  0  0  0  0  0
  1  6  2  0  0  0  0
  2  4  1  0  0  0  0
  3  6  1  0  0  0  0
  4 15  1  1  0  0  0
  4  1  1  0  0  0  0
  5  8  1  0  0  0  0
  6 23  1  0  0  0  0
  7  2  2  0  0  0  0
  7  8  1  0  0  0  0
  8  3  2  0  0  0  0
 10  9  2  0  0  0  0
 11 15  2  0  0  0  0
 12 16  1  1  0  0  0
 12  9  1  0  0  0  0
 13 11  1  0  0  0  0
 13 14  2  0  0  0  0
 14 12  1  0  0  0  0
 15 10  1  0  0  0  0
 16 19  1  0  0  0  0
 17 16  1  0  0  0  0
 18 19  1  0  0  0  0
 19 20  1  0  0  0  0
 21 22  2  0  0  0  0
 22 24  1  0  0  0  0
 23 22  1  0  0  0  0
 24 27  1  0  0  0  0
 25 26  1  0  0  0  0
 26 30  1  0  0  0  0
 27 29  2  0  0  0  0
 29 32  1  0  0  0  0
 29 28  1  0  0  0  0
 30 28  2  0  0  0  0
 31 27  1  0  0  0  0
 31 26  2  0  0  0  0
 32 33  1  0  0  0  0
 34 32  2  0  0  0  0
M  END
>  <MODEL>
3

>  <REMARK>
 VINA RESULT:      -9.1      3.869      7.927
  Name = 
  7 active torsions:
  status: ('A' for Active; 'I' for Inactive)
    1  A    between atoms: N_3  and  C_17
    2  A    between atoms: N_3  and  C_30
    3  A    between atoms: C_7  and  C_29
    4  A    between atoms: C_12  and  C_15
    5  A    between atoms: C_14  and  C_15
    6  A    between atoms: C_19  and  C_28
    7  A    between atoms: C_21  and  N_32
                            x       y       z     vdW  Elec       q    Type
                         _______ _______ _______ _____ _____    ______ ____

>  <TORSDO>
F 7

$$$$
=
 OpenBabel11062416513D

 34 36  0  0  1  0  0  0  0  0999 V2000
  189.3820  177.7860  144.6770 C   0  0  0  0  0  3  0  0  0  0  0  0
  188.9320  176.4560  146.7160 C   0  0  0  0  0  3  0  0  0  0  0  0
  191.6140  177.5850  145.7320 C   0  0  0  0  0  3  0  0  0  0  0  0
  188.6480  177.7250  145.9780 C   0  0  2  0  0  3  0  0  0  0  0  0
  192.3950  176.8440  147.8070 O   0  0  0  0  0  1  0  0  0  0  0  0
  190.7110  177.7480  144.5650 C   0  0  0  0  0  0  0  0  0  0  0  0
  190.1530  176.1240  147.1290 C   0  0  0  0  0  3  0  0  0  0  0  0
  191.3820  176.8970  146.8600 C   0  0  0  0  0  0  0  0  0  0  0  0
  185.4600  177.7690  143.9630 C   0  0  0  0  0  3  0  0  0  0  0  0
  186.5380  177.2900  144.5800 C   0  0  0  0  0  3  0  0  0  0  0  0
  186.4950  178.5210  146.7410 C   0  0  0  0  0  3  0  0  0  0  0  0
  184.8140  179.0610  144.3640 C   0  0  2  0  0  3  0  0  0  0  0  0
  185.0380  178.7610  146.7790 C   0  0  0  0  0  3  0  0  0  0  0  0
  184.2990  178.9550  145.7280 N   0  0  0  0  0  0  0  0  0  0  0  0
  187.1790  177.9090  145.7650 C   0  0  0  0  0  0  0  0  0  0  0  0
  183.7330  179.4180  143.4310 N   0  0  0  0  0  0  0  0  0  0  0  0
  182.4410  179.1270  144.0560 C   0  0  0  0  0  1  0  0  0  0  0  0
  182.5540  178.5090  141.3990 C   0  0  0  0  0  1  0  0  0  0  0  0
  183.8640  178.6540  142.1750 C   0  0  0  0  0  3  0  0  0  0  0  0
  184.9530  179.2350  141.2900 C   0  0  0  0  0  1  0  0  0  0  0  0
  190.5100  175.9530  142.2270 O   0  0  0  0  0  0  0  0  0  0  0  0
  191.1360  177.0410  142.1330 C   0  0  0  0  0  0  0  0  0  0  0  0
  191.2560  177.9320  143.2510 N   0  0  0  0  0  2  0  0  0  0  0  0
  191.7610  177.4120  140.8270 C   0  0  0  0  0  2  0  0  0  0  0  0
  186.9250  178.1850  139.0950 Cl  0  0  0  0  0  0  0  0  0  0  0  0
  188.5490  177.5800  138.8540 C   0  0  0  0  0  0  0  0  0  0  0  0
  190.7980  177.2130  139.6990 C   0  0  0  0  0  0  0  0  0  0  0  0
  190.2020  176.5190  137.4490 C   0  0  0  0  0  3  0  0  0  0  0  0
  191.1650  176.6100  138.4670 C   0  0  0  0  0  0  0  0  0  0  0  0
  188.9050  177.0000  137.6380 C   0  0  0  0  0  3  0  0  0  0  0  0
  189.4930  177.6900  139.8760 C   0  0  0  0  0  3  0  0  0  0  0  0
  192.5190  176.0690  138.1970 C   0  0  0  0  0  0  0  0  0  0  0  0
  192.6690  174.8400  137.9640 O   0  0  0  0  0  0  0  0  0  0  0  0
  193.6430  176.8840  138.2180 O   0  0  0  0  0  1  0  0  0  0  0  0
  1  4  1  0  0  0  0
  2  7  2  0  0  0  0
  3  8  2  0  0  0  0
  4 15  1  6  0  0  0
  4  2  1  0  0  0  0
  6  1  2  0  0  0  0
  6  3  1  0  0  0  0
  8  7  1  0  0  0  0
  8  5  1  0  0  0  0
  9 12  1  0  0  0  0
  9 10  2  0  0  0  0
 10 15  1  0  0  0  0
 11 13  1  0  0  0  0
 12 16  1  6  0  0  0
 12 14  1  0  0  0  0
 14 13  2  0  0  0  0
 15 11  2  0  0  0  0
 16 17  1  0  0  0  0
 18 19  1  0  0  0  0
 19 16  1  0  0  0  0
 20 19  1  0  0  0  0
 22 21  2  0  0  0  0
 22 23  1  0  0  0  0
 23  6  1  0  0  0  0
 24 22  1  0  0  0  0
 26 25  1  0  0  0  0
 26 31  1  0  0  0  0
 27 31  2  0  0  0  0
 27 24  1  0  0  0  0
 28 30  1  0  0  0  0
 28 29  2  0  0  0  0
 29 27  1  0  0  0  0
 30 26  2  0  0  0  0
 32 34  1  0  0  0  0
 32 29  1  0  0  0  0
 33 32  2  0  0  0  0
M  END
>  <MODEL>
4

>  <REMARK>
 VINA RESULT:      -9.0      3.379      9.863
  Name = 
  7 active torsions:
  status: ('A' for Active; 'I' for Inactive)
    1  A    between atoms: N_3  and  C_17
    2  A    between atoms: N_3  and  C_30
    3  A    between atoms: C_7  and  C_29
    4  A    between atoms: C_12  and  C_15
    5  A    between atoms: C_14  and  C_15
    6  A    between atoms: C_19  and  C_28
    7  A    between atoms: C_21  and  N_32
                            x       y       z     vdW  Elec       q    Type
                         _______ _______ _______ _____ _____    ______ ____

>  <TORSDO>
F 7

$$$$
=
 OpenBabel11062416513D

 34 36  0  0  1  0  0  0  0  0999 V2000
  189.3140  177.8520  144.3800 C   0  0  0  0  0  3  0  0  0  0  0  0
  188.8510  176.5200  146.4140 C   0  0  0  0  0  3  0  0  0  0  0  0
  191.5380  177.6540  145.4510 C   0  0  0  0  0  3  0  0  0  0  0  0
  188.5700  177.7880  145.6750 C   0  0  2  0  0  3  0  0  0  0  0  0
  192.3050  176.9120  147.5300 O   0  0  0  0  0  1  0  0  0  0  0  0
  190.6440  177.8160  144.2770 C   0  0  0  0  0  0  0  0  0  0  0  0
  190.0690  176.1890  146.8360 C   0  0  0  0  0  3  0  0  0  0  0  0
  191.2980  176.9640  146.5760 C   0  0  0  0  0  0  0  0  0  0  0  0
  185.3860  177.7610  143.6540 C   0  0  0  0  0  3  0  0  0  0  0  0
  186.4610  177.3050  144.2930 C   0  0  0  0  0  3  0  0  0  0  0  0
  186.4200  178.6280  146.3990 C   0  0  0  0  0  3  0  0  0  0  0  0
  184.7460  179.0730  143.9970 C   0  0  2  0  0  3  0  0  0  0  0  0
  184.9640  178.8760  146.4230 C   0  0  0  0  0  3  0  0  0  0  0  0
  184.2280  179.0280  145.3640 N   0  0  0  0  0  0  0  0  0  0  0  0
  187.1020  177.9700  145.4520 C   0  0  0  0  0  0  0  0  0  0  0  0
  183.6670  179.3940  143.0480 N   0  0  0  0  0  0  0  0  0  0  0  0
  182.3730  179.1320  143.6810 C   0  0  0  0  0  1  0  0  0  0  0  0
  182.4760  178.3340  141.0980 C   0  0  0  0  0  1  0  0  0  0  0  0
  183.8000  178.5790  141.8250 C   0  0  0  0  0  3  0  0  0  0  0  0
  184.8310  179.1700  140.8800 C   0  0  0  0  0  1  0  0  0  0  0  0
  190.4710  176.0180  141.9400 O   0  0  0  0  0  0  0  0  0  0  0  0
  191.0920  177.1090  141.8490 C   0  0  0  0  0  0  0  0  0  0  0  0
  191.1970  178.0020  142.9670 N   0  0  0  0  0  2  0  0  0  0  0  0
  191.7240  177.4820  140.5480 C   0  0  0  0  0  2  0  0  0  0  0  0
  192.0450  173.7660  136.9330 Cl  0  0  0  0  0  0  0  0  0  0  0  0
  191.1540  175.0510  137.7200 C   0  0  0  0  0  0  0  0  0  0  0  0
  191.0420  176.7960  139.4070 C   0  0  0  0  0  0  0  0  0  0  0  0
  189.1490  176.3770  137.9420 C   0  0  0  0  0  3  0  0  0  0  0  0
  189.7230  177.1170  138.9900 C   0  0  0  0  0  0  0  0  0  0  0  0
  189.8570  175.3520  137.3120 C   0  0  0  0  0  3  0  0  0  0  0  0
  191.7400  175.7660  138.7650 C   0  0  0  0  0  3  0  0  0  0  0  0
  188.9140  178.1980  139.6050 C   0  0  0  0  0  0  0  0  0  0  0  0
  188.9570  179.3630  139.1280 O   0  0  0  0  0  0  0  0  0  0  0  0
  188.1200  177.9630  140.7200 O   0  0  0  0  0  1  0  0  0  0  0  0
  1  4  1  0  0  0  0
  2  7  2  0  0  0  0
  3  8  2  0  0  0  0
  4 15  1  6  0  0  0
  4  2  1  0  0  0  0
  6  1  2  0  0  0  0
  6  3  1  0  0  0  0
  8  7  1  0  0  0  0
  8  5  1  0  0  0  0
  9 12  1  0  0  0  0
  9 10  2  0  0  0  0
 10 15  1  0  0  0  0
 11 13  1  0  0  0  0
 12 16  1  6  0  0  0
 12 14  1  0  0  0  0
 14 13  2  0  0  0  0
 15 11  2  0  0  0  0
 16 17  1  0  0  0  0
 18 19  1  0  0  0  0
 19 16  1  0  0  0  0
 20 19  1  0  0  0  0
 22 21  2  0  0  0  0
 22 23  1  0  0  0  0
 23  6  1  0  0  0  0
 24 22  1  0  0  0  0
 25 26  1  0  0  0  0
 26 31  1  0  0  0  0
 27 24  1  0  0  0  0
 28 29  2  0  0  0  0
 29 27  1  0  0  0  0
 29 32  1  0  0  0  0
 30 26  2  0  0  0  0
 30 28  1  0  0  0  0
 31 27  2  0  0  0  0
 32 34  1  0  0  0  0
 33 32  2  0  0  0  0
M  END
>  <MODEL>
5

>  <REMARK>
 VINA RESULT:      -8.8      3.605      9.898
  Name = 
  7 active torsions:
  status: ('A' for Active; 'I' for Inactive)
    1  A    between atoms: N_3  and  C_17
    2  A    between atoms: N_3  and  C_30
    3  A    between atoms: C_7  and  C_29
    4  A    between atoms: C_12  and  C_15
    5  A    between atoms: C_14  and  C_15
    6  A    between atoms: C_19  and  C_28
    7  A    between atoms: C_21  and  N_32
                            x       y       z     vdW  Elec       q    Type
                         _______ _______ _______ _____ _____    ______ ____

>  <TORSDO>
F 7

$$$$
=
 OpenBabel11062416513D

 34 36  0  0  1  0  0  0  0  0999 V2000
  187.9750  177.7330  140.0530 C   0  0  0  0  0  3  0  0  0  0  0  0
  188.8730  178.0360  137.7670 C   0  0  0  0  0  3  0  0  0  0  0  0
  190.2980  176.8970  140.2380 C   0  0  0  0  0  3  0  0  0  0  0  0
  187.8450  177.3570  138.6120 C   0  0  2  0  0  3  0  0  0  0  0  0
  191.9940  176.3920  138.7110 O   0  0  0  0  0  1  0  0  0  0  0  0
  189.0630  177.5070  140.7910 C   0  0  0  0  0  0  0  0  0  0  0  0
  190.1800  177.8440  137.9330 C   0  0  0  0  0  3  0  0  0  0  0  0
  190.7900  177.0200  138.9960 C   0  0  0  0  0  0  0  0  0  0  0  0
  184.3090  178.6440  138.8720 C   0  0  0  0  0  3  0  0  0  0  0  0
  185.6390  178.6570  138.8120 C   0  0  0  0  0  3  0  0  0  0  0  0
  186.0940  177.0440  136.9720 C   0  0  0  0  0  3  0  0  0  0  0  0
  183.4900  177.5280  138.2970 C   0  0  2  0  0  3  0  0  0  0  0  0
  184.8090  177.2180  136.2640 C   0  0  0  0  0  3  0  0  0  0  0  0
  183.6780  177.4720  136.8480 N   0  0  0  0  0  0  0  0  0  0  0  0
  186.4630  177.6400  138.1140 C   0  0  0  0  0  0  0  0  0  0  0  0
  182.0660  177.7000  138.6260 N   0  0  0  0  0  0  0  0  0  0  0  0
  181.7690  179.1280  138.7550 C   0  0  0  0  0  1  0  0  0  0  0  0
  181.0450  177.8940  140.9200 C   0  0  0  0  0  1  0  0  0  0  0  0
  181.7420  177.0060  139.8870 C   0  0  0  0  0  3  0  0  0  0  0  0
  180.9360  175.7450  139.6300 C   0  0  0  0  0  1  0  0  0  0  0  0
  188.3260  175.7400  143.0410 O   0  0  0  0  0  0  0  0  0  0  0  0
  188.6210  176.9450  143.2570 C   0  0  0  0  0  0  0  0  0  0  0  0
  188.9780  177.8290  142.1860 N   0  0  0  0  0  2  0  0  0  0  0  0
  188.6020  177.4590  144.6600 C   0  0  0  0  0  2  0  0  0  0  0  0
  183.8920  178.8850  142.9990 Cl  0  0  0  0  0  0  0  0  0  0  0  0
  185.0060  178.5420  144.3040 C   0  0  0  0  0  0  0  0  0  0  0  0
  187.2250  177.8930  145.0520 C   0  0  0  0  0  0  0  0  0  0  0  0
  185.4690  178.3520  146.6670 C   0  0  0  0  0  3  0  0  0  0  0  0
  186.8000  177.9880  146.4030 C   0  0  0  0  0  0  0  0  0  0  0  0
  184.5780  178.6270  145.6270 C   0  0  0  0  0  3  0  0  0  0  0  0
  186.3200  178.1730  144.0190 C   0  0  0  0  0  3  0  0  0  0  0  0
  187.6910  177.7210  147.5580 C   0  0  0  0  0  0  0  0  0  0  0  0
  187.9100  178.6280  148.4050 O   0  0  0  0  0  1  0  0  0  0  0  0
  188.3180  176.4920  147.7210 O   0  0  0  0  0  0  0  0  0  0  0  0
  1  6  2  0  0  0  0
  2  7  2  0  0  0  0
  2  4  1  0  0  0  0
  3  6  1  0  0  0  0
  4 15  1  6  0  0  0
  4  1  1  0  0  0  0
  5  8  1  0  0  0  0
  6 23  1  0  0  0  0
  7  8  1  0  0  0  0
  8  3  2  0  0  0  0
 10  9  2  0  0  0  0
 11 15  2  0  0  0  0
 12 16  1  6  0  0  0
 12  9  1  0  0  0  0
 13 14  2  0  0  0  0
 13 11  1  0  0  0  0
 14 12  1  0  0  0  0
 15 10  1  0  0  0  0
 16 17  1  0  0  0  0
 16 19  1  0  0  0  0
 19 18  1  0  0  0  0
 20 19  1  0  0  0  0
 21 22  2  0  0  0  0
 22 24  1  0  0  0  0
 23 22  1  0  0  0  0
 24 27  1  0  0  0  0
 25 26  1  0  0  0  0
 26 30  1  0  0  0  0
 27 29  2  0  0  0  0
 29 28  1  0  0  0  0
 29 32  1  0  0  0  0
 30 28  2  0  0  0  0
 31 26  2  0  0  0  0
 31 27  1  0  0  0  0
 32 34  2  0  0  0  0
 32 33  1  0  0  0  0
M  END
>  <MODEL>
6

>  <REMARK>
 VINA RESULT:      -8.7      4.144      7.836
  Name = 
  7 active torsions:
  status: ('A' for Active; 'I' for Inactive)
    1  A    between atoms: N_3  and  C_17
    2  A    between atoms: N_3  and  C_30
    3  A    between atoms: C_7  and  C_29
    4  A    between atoms: C_12  and  C_15
    5  A    between atoms: C_14  and  C_15
    6  A    between atoms: C_19  and  C_28
    7  A    between atoms: C_21  and  N_32
                            x       y       z     vdW  Elec       q    Type
                         _______ _______ _______ _____ _____    ______ ____

>  <TORSDO>
F 7

$$$$
=
 OpenBabel11062416513D

 34 36  0  0  1  0  0  0  0  0999 V2000
  187.5020  178.1300  140.2090 C   0  0  0  0  0  3  0  0  0  0  0  0
  187.8070  178.6280  137.8040 C   0  0  0  0  0  3  0  0  0  0  0  0
  189.8050  177.3410  139.7500 C   0  0  0  0  0  3  0  0  0  0  0  0
  187.0230  177.8610  138.8190 C   0  0  2  0  0  3  0  0  0  0  0  0
  191.0740  176.9970  137.8180 O   0  0  0  0  0  1  0  0  0  0  0  0
  188.7410  177.8760  140.6370 C   0  0  0  0  0  0  0  0  0  0  0  0
  189.1160  178.4580  137.6290 C   0  0  0  0  0  3  0  0  0  0  0  0
  189.9740  177.5710  138.4400 C   0  0  0  0  0  0  0  0  0  0  0  0
  183.6390  178.9700  140.0610 C   0  0  0  0  0  3  0  0  0  0  0  0
  184.9160  179.0410  139.6910 C   0  0  0  0  0  3  0  0  0  0  0  0
  184.9340  177.6740  137.6130 C   0  0  0  0  0  3  0  0  0  0  0  0
  182.7180  177.8970  139.5640 C   0  0  2  0  0  3  0  0  0  0  0  0
  183.5160  177.8780  137.2540 C   0  0  0  0  0  3  0  0  0  0  0  0
  182.5540  178.0180  138.1160 N   0  0  0  0  0  0  0  0  0  0  0  0
  185.5590  178.1460  138.7000 C   0  0  0  0  0  0  0  0  0  0  0  0
  181.4110  177.9740  140.2380 N   0  0  0  0  0  0  0  0  0  0  0  0
  180.3630  177.5480  139.3090 C   0  0  0  0  0  1  0  0  0  0  0  0
  180.1590  180.1160  139.8100 C   0  0  0  0  0  1  0  0  0  0  0  0
  181.1480  179.3520  140.6920 C   0  0  0  0  0  3  0  0  0  0  0  0
  180.7040  179.3780  142.1450 C   0  0  0  0  0  1  0  0  0  0  0  0
  188.3350  176.0040  142.8860 O   0  0  0  0  0  0  0  0  0  0  0  0
  188.7960  177.1560  143.1010 C   0  0  0  0  0  0  0  0  0  0  0  0
  189.0000  178.0890  142.0310 N   0  0  0  0  0  2  0  0  0  0  0  0
  189.1430  177.5520  144.4990 C   0  0  0  0  0  2  0  0  0  0  0  0
  184.1170  178.8500  144.2960 Cl  0  0  0  0  0  0  0  0  0  0  0  0
  185.5530  178.4630  145.2190 C   0  0  0  0  0  0  0  0  0  0  0  0
  187.9110  177.8770  145.2830 C   0  0  0  0  0  0  0  0  0  0  0  0
  186.6440  178.1070  147.3440 C   0  0  0  0  0  3  0  0  0  0  0  0
  187.8650  177.8380  146.7010 C   0  0  0  0  0  0  0  0  0  0  0  0
  185.4970  178.4170  146.6100 C   0  0  0  0  0  3  0  0  0  0  0  0
  186.7520  178.1900  144.5600 C   0  0  0  0  0  3  0  0  0  0  0  0
  189.0430  177.5270  147.5460 C   0  0  0  0  0  0  0  0  0  0  0  0
  189.3920  178.3260  148.4560 O   0  0  0  0  0  1  0  0  0  0  0  0
  189.7970  176.3780  147.3440 O   0  0  0  0  0  0  0  0  0  0  0  0
  1  6  2  0  0  0  0
  2  4  1  0  0  0  0
  3  6  1  0  0  0  0
  4 15  1  1  0  0  0
  4  1  1  0  0  0  0
  5  8  1  0  0  0  0
  6 23  1  0  0  0  0
  7  2  2  0  0  0  0
  7  8  1  0  0  0  0
  8  3  2  0  0  0  0
 10  9  2  0  0  0  0
 11 15  2  0  0  0  0
 12  9  1  0  0  0  0
 12 16  1  1  0  0  0
 13 11  1  0  0  0  0
 13 14  2  0  0  0  0
 14 12  1  0  0  0  0
 15 10  1  0  0  0  0
 16 19  1  0  0  0  0
 17 16  1  0  0  0  0
 18 19  1  0  0  0  0
 19 20  1  0  0  0  0
 21 22  2  0  0  0  0
 22 24  1  0  0  0  0
 23 22  1  0  0  0  0
 24 27  1  0  0  0  0
 25 26  1  0  0  0  0
 26 30  1  0  0  0  0
 27 29  2  0  0  0  0
 29 28  1  0  0  0  0
 29 32  1  0  0  0  0
 30 28  2  0  0  0  0
 31 26  2  0  0  0  0
 31 27  1  0  0  0  0
 32 33  1  0  0  0  0
 34 32  2  0  0  0  0
M  END
>  <MODEL>
7

>  <REMARK>
 VINA RESULT:      -8.7      4.372      8.307
  Name = 
  7 active torsions:
  status: ('A' for Active; 'I' for Inactive)
    1  A    between atoms: N_3  and  C_17
    2  A    between atoms: N_3  and  C_30
    3  A    between atoms: C_7  and  C_29
    4  A    between atoms: C_12  and  C_15
    5  A    between atoms: C_14  and  C_15
    6  A    between atoms: C_19  and  C_28
    7  A    between atoms: C_21  and  N_32
                            x       y       z     vdW  Elec       q    Type
                         _______ _______ _______ _____ _____    ______ ____

>  <TORSDO>
F 7

$$$$
=
 OpenBabel11062416513D

 34 36  0  0  1  0  0  0  0  0999 V2000
  185.5520  178.3280  138.6540 C   0  0  0  0  0  3  0  0  0  0  0  0
  184.2570  176.9050  137.0980 C   0  0  0  0  0  3  0  0  0  0  0  0
  183.2430  179.1940  138.8770 C   0  0  0  0  0  3  0  0  0  0  0  0
  185.3640  177.8990  137.2340 C   0  0  2  0  0  3  0  0  0  0  0  0
  181.2430  178.8740  137.7090 O   0  0  0  0  0  1  0  0  0  0  0  0
  184.6120  178.9310  139.3850 C   0  0  0  0  0  0  0  0  0  0  0  0
  182.9950  177.1860  137.4180 C   0  0  0  0  0  3  0  0  0  0  0  0
  182.5320  178.4560  138.0110 C   0  0  0  0  0  0  0  0  0  0  0  0
  188.1970  175.4290  136.9120 C   0  0  0  0  0  3  0  0  0  0  0  0
  186.9640  175.9290  136.8450 C   0  0  0  0  0  3  0  0  0  0  0  0
  187.3700  178.2000  135.9160 C   0  0  0  0  0  3  0  0  0  0  0  0
  189.4170  176.3000  136.9000 C   0  0  2  0  0  3  0  0  0  0  0  0
  188.6290  177.8810  135.2120 C   0  0  0  0  0  3  0  0  0  0  0  0
  189.5030  177.0140  135.6280 N   0  0  0  0  0  0  0  0  0  0  0  0
  186.6430  177.3650  136.6700 C   0  0  0  0  0  0  0  0  0  0  0  0
  190.6330  175.5010  137.1260 N   0  0  0  0  0  0  0  0  0  0  0  0
  190.2700  174.0860  137.2180 C   0  0  0  0  0  1  0  0  0  0  0  0
  192.7520  176.3790  138.1660 C   0  0  0  0  0  1  0  0  0  0  0  0
  191.3050  175.9280  138.3680 C   0  0  0  0  0  3  0  0  0  0  0  0
  190.5030  176.9990  139.0870 C   0  0  0  0  0  1  0  0  0  0  0  0
  183.7780  177.8600  142.0090 O   0  0  0  0  0  0  0  0  0  0  0  0
  184.5760  178.8320  141.9510 C   0  0  0  0  0  0  0  0  0  0  0  0
  184.9960  179.3770  140.6930 N   0  0  0  0  0  2  0  0  0  0  0  0
  185.0980  179.4230  143.2200 C   0  0  0  0  0  2  0  0  0  0  0  0
  189.1820  176.3070  142.4480 Cl  0  0  0  0  0  0  0  0  0  0  0  0
  188.0350  177.0740  143.5250 C   0  0  0  0  0  0  0  0  0  0  0  0
  186.1090  178.5200  143.8530 C   0  0  0  0  0  0  0  0  0  0  0  0
  187.2110  177.4880  145.7560 C   0  0  0  0  0  3  0  0  0  0  0  0
  186.1900  178.3120  145.2550 C   0  0  0  0  0  0  0  0  0  0  0  0
  188.1270  176.8740  144.9000 C   0  0  0  0  0  3  0  0  0  0  0  0
  187.0350  177.8970  143.0060 C   0  0  0  0  0  3  0  0  0  0  0  0
  185.2470  178.9220  146.2240 C   0  0  0  0  0  0  0  0  0  0  0  0
  185.6800  179.6910  147.1230 O   0  0  0  0  0  1  0  0  0  0  0  0
  183.8860  178.6460  146.1830 O   0  0  0  0  0  0  0  0  0  0  0  0
  1  6  2  0  0  0  0
  2  4  1  0  0  0  0
  2  7  2  0  0  0  0
  3  6  1  0  0  0  0
  4 15  1  1  0  0  0
  4  1  1  0  0  0  0
  5  8  1  0  0  0  0
  6 23  1  0  0  0  0
  7  8  1  0  0  0  0
  8  3  2  0  0  0  0
 10  9  2  0  0  0  0
 11 15  2  0  0  0  0
 12  9  1  0  0  0  0
 12 16  1  6  0  0  0
 13 14  2  0  0  0  0
 13 11  1  0  0  0  0
 14 12  1  0  0  0  0
 15 10  1  0  0  0  0
 16 17  1  0  0  0  0
 16 19  1  0  0  0  0
 18 19  1  0  0  0  0
 19 20  1  0  0  0  0
 22 21  2  0  0  0  0
 22 24  1  0  0  0  0
 23 22  1  0  0  0  0
 24 27  1  0  0  0  0
 25 26  1  0  0  0  0
 26 30  1  0  0  0  0
 27 29  2  0  0  0  0
 29 28  1  0  0  0  0
 29 32  1  0  0  0  0
 30 28  2  0  0  0  0
 31 26  2  0  0  0  0
 31 27  1  0  0  0  0
 32 33  1  0  0  0  0
 34 32  2  0  0  0  0
M  END
>  <MODEL>
8

>  <REMARK>
 VINA RESULT:      -8.6      4.047      5.780
  Name = 
  7 active torsions:
  status: ('A' for Active; 'I' for Inactive)
    1  A    between atoms: N_3  and  C_17
    2  A    between atoms: N_3  and  C_30
    3  A    between atoms: C_7  and  C_29
    4  A    between atoms: C_12  and  C_15
    5  A    between atoms: C_14  and  C_15
    6  A    between atoms: C_19  and  C_28
    7  A    between atoms: C_21  and  N_32
                            x       y       z     vdW  Elec       q    Type
                         _______ _______ _______ _____ _____    ______ ____

>  <TORSDO>
F 7

$$$$
=
 OpenBabel11062416513D

 34 36  0  0  1  0  0  0  0  0999 V2000
  187.0420  177.6430  143.3080 C   0  0  0  0  0  3  0  0  0  0  0  0
  185.8630  177.6690  145.4840 C   0  0  0  0  0  3  0  0  0  0  0  0
  188.8880  177.5810  144.9570 C   0  0  0  0  0  3  0  0  0  0  0  0
  186.1240  178.4050  144.2090 C   0  0  2  0  0  3  0  0  0  0  0  0
  189.0410  177.8760  147.2700 O   0  0  0  0  0  1  0  0  0  0  0  0
  188.2880  177.2930  143.6290 C   0  0  0  0  0  0  0  0  0  0  0  0
  186.8290  177.3660  146.3490 C   0  0  0  0  0  3  0  0  0  0  0  0
  188.2670  177.6320  146.1450 C   0  0  0  0  0  0  0  0  0  0  0  0
  182.4820  179.3590  143.9950 C   0  0  0  0  0  3  0  0  0  0  0  0
  183.7860  179.4650  144.2410 C   0  0  0  0  0  3  0  0  0  0  0  0
  184.7860  178.4660  142.1940 C   0  0  0  0  0  3  0  0  0  0  0  0
  181.9310  178.4050  142.9790 C   0  0  2  0  0  3  0  0  0  0  0  0
  183.6590  178.7570  141.2860 C   0  0  0  0  0  3  0  0  0  0  0  0
  182.4110  178.7700  141.6470 N   0  0  0  0  0  0  0  0  0  0  0  0
  184.8460  178.7360  143.5050 C   0  0  0  0  0  0  0  0  0  0  0  0
  180.4600  178.3940  143.0120 N   0  0  0  0  0  0  0  0  0  0  0  0
  179.9500  178.0050  141.6950 C   0  0  0  0  0  1  0  0  0  0  0  0
  179.3690  180.5110  142.1920 C   0  0  0  0  0  1  0  0  0  0  0  0
  179.9450  179.7280  143.3740 C   0  0  0  0  0  3  0  0  0  0  0  0
  178.9330  179.6400  144.5040 C   0  0  0  0  0  1  0  0  0  0  0  0
  190.4520  178.4620  141.9940 O   0  0  0  0  0  0  0  0  0  0  0  0
  190.1190  177.2590  141.8290 C   0  0  0  0  0  0  0  0  0  0  0  0
  189.0700  176.6640  142.6050 N   0  0  0  0  0  2  0  0  0  0  0  0
  190.8380  176.4370  140.8100 C   0  0  0  0  0  2  0  0  0  0  0  0
  186.7960  178.0630  137.9820 Cl  0  0  0  0  0  0  0  0  0  0  0  0
  188.4450  177.4870  138.0890 C   0  0  0  0  0  0  0  0  0  0  0  0
  190.3120  176.7100  139.4360 C   0  0  0  0  0  0  0  0  0  0  0  0
  190.5300  176.8960  137.0240 C   0  0  0  0  0  3  0  0  0  0  0  0
  191.0990  176.5630  138.2640 C   0  0  0  0  0  0  0  0  0  0  0  0
  189.2140  177.3550  136.9350 C   0  0  0  0  0  3  0  0  0  0  0  0
  188.9930  177.1710  139.3320 C   0  0  0  0  0  3  0  0  0  0  0  0
  192.4990  176.0720  138.2790 C   0  0  0  0  0  0  0  0  0  0  0  0
  192.7670  174.9250  137.8320 O   0  0  0  0  0  0  0  0  0  0  0  0
  193.5310  176.8410  138.8020 O   0  0  0  0  0  1  0  0  0  0  0  0
  1  6  2  0  0  0  0
  1  4  1  0  0  0  0
  2  7  2  0  0  0  0
  3  8  2  0  0  0  0
  4 15  1  6  0  0  0
  4  2  1  0  0  0  0
  6  3  1  0  0  0  0
  8  7  1  0  0  0  0
  8  5  1  0  0  0  0
  9 10  2  0  0  0  0
 11 15  2  0  0  0  0
 12 16  1  6  0  0  0
 12  9  1  0  0  0  0
 13 14  2  0  0  0  0
 13 11  1  0  0  0  0
 14 12  1  0  0  0  0
 15 10  1  0  0  0  0
 16 19  1  0  0  0  0
 17 16  1  0  0  0  0
 18 19  1  0  0  0  0
 19 20  1  0  0  0  0
 22 21  2  0  0  0  0
 22 23  1  0  0  0  0
 23  6  1  0  0  0  0
 24 22  1  0  0  0  0
 25 26  1  0  0  0  0
 26 31  1  0  0  0  0
 27 24  1  0  0  0  0
 28 29  2  0  0  0  0
 29 32  1  0  0  0  0
 29 27  1  0  0  0  0
 30 28  1  0  0  0  0
 30 26  2  0  0  0  0
 31 27  2  0  0  0  0
 32 34  1  0  0  0  0
 33 32  2  0  0  0  0
M  END
>  <MODEL>
9

>  <REMARK>
 VINA RESULT:      -8.5      4.944     10.727
  Name = 
  7 active torsions:
  status: ('A' for Active; 'I' for Inactive)
    1  A    between atoms: N_3  and  C_17
    2  A    between atoms: N_3  and  C_30
    3  A    between atoms: C_7  and  C_29
    4  A    between atoms: C_12  and  C_15
    5  A    between atoms: C_14  and  C_15
    6  A    between atoms: C_19  and  C_28
    7  A    between atoms: C_21  and  N_32
                            x       y       z     vdW  Elec       q    Type
                         _______ _______ _______ _____ _____    ______ ____

>  <TORSDO>
F 7

$$$$
