=
 OpenBabel11062412413D

 32 36  0  0  1  0  0  0  0  0999 V2000
  188.5830  177.8590  143.8970 C   0  0  2  0  0  3  0  0  0  0  0  0
  187.2180  177.6260  143.4350 C   0  0  2  0  0  3  0  0  0  0  0  0
  191.0280  175.2530  143.4570 C   0  0  0  0  0  1  0  0  0  0  0  0
  188.3270  176.8330  142.8710 N   0  0  1  0  0  0  0  0  0  0  0  0
  191.1110  176.4810  146.2030 O   0  0  0  0  0  1  0  0  0  0  0  0
  190.9050  176.8610  140.3680 C   0  0  0  0  0  3  0  0  0  0  0  0
  186.8370  178.7550  142.4840 C   0  0  1  0  0  3  0  0  0  0  0  0
  191.3050  176.7100  143.8100 C   0  0  1  0  0  3  0  0  0  0  0  0
  188.0610  178.9590  141.1540 S   0  0  0  0  0  0  0  0  0  0  0  0
  191.2110  177.7120  142.6340 C   0  0  0  0  0  2  0  0  0  0  0  0
  190.6110  177.1850  145.1080 C   0  0  1  0  0  3  0  0  0  0  0  0
  189.0800  177.1020  145.0990 C   0  0  0  0  0  2  0  0  0  0  0  0
  190.3110  177.3060  141.4840 C   0  0  0  0  0  0  0  0  0  0  0  0
  188.7980  177.3520  141.5910 C   0  0  1  0  0  3  0  0  0  0  0  0
  183.9880  178.3380  140.0810 C   0  0  0  0  0  0  0  0  0  0  0  0
  182.7680  178.1460  140.9300 C   0  0  0  0  0  3  0  0  0  0  0  0
  183.8950  178.2010  138.7680 C   0  0  0  0  0  1  0  0  0  0  0  0
  185.2770  178.4700  140.6890 N   0  0  0  0  0  0  0  0  0  0  0  0
  184.3500  179.1150  144.2910 C   0  0  0  0  0  1  0  0  0  0  0  0
  183.0130  178.5490  142.3550 C   0  0  0  0  0  3  0  0  0  0  0  0
  184.2370  178.7440  142.8530 C   0  0  0  0  0  0  0  0  0  0  0  0
  185.4320  178.6430  141.9680 C   0  0  0  0  0  0  0  0  0  0  0  0
  190.1630  176.3970  139.1480 C   0  0  0  0  0  2  0  0  0  0  0  0
  190.5610  177.1950  137.9140 C   0  0  0  0  0  2  0  0  0  0  0  0
  188.8920  178.8290  137.1360 C   0  0  0  0  0  2  0  0  0  0  0  0
  187.3310  177.4810  138.0930 O   0  0  0  0  0  0  0  0  0  0  0  0
  188.6490  174.8270  135.9250 O   0  0  0  0  0  0  0  0  0  0  0  0
  187.4830  178.7070  137.5100 N   0  0  0  0  0  2  0  0  0  0  0  0
  186.6910  174.9750  137.1030 O   0  0  0  0  0  1  0  0  0  0  0  0
  189.3750  177.4220  136.9880 C   0  0  2  0  0  3  0  0  0  0  0  0
  188.2290  176.6920  137.4560 N   0  0  0  0  0  0  0  0  0  0  0  0
  187.8150  175.4730  136.8310 C   0  0  0  0  0  0  0  0  0  0  0  0
  1 12  1  1  0  0  0
  2  1  1  0  0  0  0
  3  8  1  0  0  0  0
  4  2  1  0  0  0  0
  4  1  1  0  0  0  0
  6 13  2  0  0  0  0
  7  2  1  0  0  0  0
  8 11  1  0  0  0  0
  9 14  1  0  0  0  0
  9  7  1  0  0  0  0
 10  8  1  0  0  0  0
 11  5  1  0  0  0  0
 12 11  1  0  0  0  0
 13 14  1  0  0  0  0
 13 10  1  0  0  0  0
 14  4  1  0  0  0  0
 15 18  2  0  0  0  0
 15 16  1  0  0  0  0
 16 20  2  0  0  0  0
 17 15  1  0  0  0  0
 18 22  1  0  0  0  0
 20 21  1  0  0  0  0
 21 19  1  0  0  0  0
 22  7  1  0  0  0  0
 22 21  2  0  0  0  0
 23  6  1  0  0  0  0
 24 23  1  0  0  0  0
 25 28  1  0  0  0  0
 27 32  2  0  0  0  0
 28 26  1  0  0  0  0
 30 25  1  0  0  0  0
 30 31  1  0  0  0  0
 30 24  1  0  0  0  0
 31 26  1  0  0  0  0
 32 29  1  0  0  0  0
 32 31  1  0  0  0  0
M  END
>  <MODEL>
1

>  <REMARK>
 VINA RESULT:      -8.5      0.000      0.000
  Name = 
  4 active torsions:
  status: ('A' for Active; 'I' for Inactive)
    1  A    between atoms: C_12  and  C_16
    2  A    between atoms: C_14  and  C_29
    3  A    between atoms: C_16  and  C_30
    4  A    between atoms: C_25  and  C_30
                            x       y       z     vdW  Elec       q    Type
                         _______ _______ _______ _____ _____    ______ ____

>  <TORSDO>
F 4

$$$$
=
 OpenBabel11062412413D

 32 36  0  0  1  0  0  0  0  0999 V2000
  190.4630  176.6920  144.8830 C   0  0  2  0  0  3  0  0  0  0  0  0
  190.5240  177.3180  143.5660 C   0  0  2  0  0  3  0  0  0  0  0  0
  189.8040  178.7590  147.7560 C   0  0  0  0  0  1  0  0  0  0  0  0
  189.8090  177.9930  144.6650 N   0  0  1  0  0  0  0  0  0  0  0  0
  192.0620  176.8210  148.2040 O   0  0  0  0  0  1  0  0  0  0  0  0
  186.6590  178.1400  146.3890 C   0  0  0  0  0  3  0  0  0  0  0  0
  189.5360  176.6030  142.6510 C   0  0  1  0  0  3  0  0  0  0  0  0
  189.7420  177.2360  147.6970 C   0  0  1  0  0  3  0  0  0  0  0  0
  187.8710  176.5340  143.3790 S   0  0  0  0  0  0  0  0  0  0  0  0
  188.4790  176.6460  147.0240 C   0  0  0  0  0  2  0  0  0  0  0  0
  191.0670  176.5700  147.2600 C   0  0  1  0  0  3  0  0  0  0  0  0
  191.5700  176.9630  145.8670 C   0  0  0  0  0  2  0  0  0  0  0  0
  187.7900  177.5320  146.0060 C   0  0  0  0  0  0  0  0  0  0  0  0
  188.3670  177.7680  144.6230 C   0  0  1  0  0  3  0  0  0  0  0  0
  188.2520  177.8740  139.3650 C   0  0  0  0  0  0  0  0  0  0  0  0
  189.4470  178.4290  138.6510 C   0  0  0  0  0  3  0  0  0  0  0  0
  187.0480  178.0340  138.8390 C   0  0  0  0  0  1  0  0  0  0  0  0
  188.3810  177.3530  140.6920 N   0  0  0  0  0  0  0  0  0  0  0  0
  192.1270  177.0200  141.0110 C   0  0  0  0  0  1  0  0  0  0  0  0
  190.7320  177.9690  139.2770 C   0  0  0  0  0  3  0  0  0  0  0  0
  190.7880  177.4090  140.4880 C   0  0  0  0  0  0  0  0  0  0  0  0
  189.5350  177.1410  141.2500 C   0  0  0  0  0  0  0  0  0  0  0  0
  185.8660  179.0690  145.5150 C   0  0  0  0  0  2  0  0  0  0  0  0
  184.7700  178.3280  144.7620 C   0  0  0  0  0  2  0  0  0  0  0  0
  182.6130  179.4460  144.3650 C   0  0  0  0  0  2  0  0  0  0  0  0
  182.4490  178.1610  142.4960 O   0  0  0  0  0  0  0  0  0  0  0  0
  185.6530  179.6480  141.4910 O   0  0  0  0  0  1  0  0  0  0  0  0
  181.7340  179.0270  143.2740 N   0  0  0  0  0  2  0  0  0  0  0  0
  184.0800  178.5030  140.2840 O   0  0  0  0  0  0  0  0  0  0  0  0
  183.9990  179.2590  143.8370 C   0  0  2  0  0  3  0  0  0  0  0  0
  183.7260  178.6050  142.5860 N   0  0  0  0  0  0  0  0  0  0  0  0
  184.4780  178.9090  141.4070 C   0  0  0  0  0  0  0  0  0  0  0  0
  1 12  1  1  0  0  0
  2  4  1  0  0  0  0
  2  1  1  0  0  0  0
  4  1  1  0  0  0  0
  7  9  1  0  0  0  0
  7  2  1  0  0  0  0
  8  3  1  0  0  0  0
  9 14  1  0  0  0  0
 10  8  1  0  0  0  0
 11  8  1  0  0  0  0
 11  5  1  0  0  0  0
 12 11  1  0  0  0  0
 13  6  2  0  0  0  0
 13 10  1  0  0  0  0
 14  4  1  0  0  0  0
 14 13  1  0  0  0  0
 15 18  1  0  0  0  0
 16 20  1  0  0  0  0
 16 15  2  0  0  0  0
 17 15  1  0  0  0  0
 18 22  2  0  0  0  0
 20 21  2  0  0  0  0
 21 19  1  0  0  0  0
 21 22  1  0  0  0  0
 22  7  1  0  0  0  0
 23  6  1  0  0  0  0
 24 23  1  0  0  0  0
 26 31  1  0  0  0  0
 26 28  1  0  0  0  0
 28 25  1  0  0  0  0
 29 32  2  0  0  0  0
 30 25  1  0  0  0  0
 30 24  1  0  0  0  0
 31 30  1  0  0  0  0
 32 27  1  0  0  0  0
 32 31  1  0  0  0  0
M  END
>  <MODEL>
2

>  <REMARK>
 VINA RESULT:      -8.5      2.580      6.006
  Name = 
  4 active torsions:
  status: ('A' for Active; 'I' for Inactive)
    1  A    between atoms: C_12  and  C_16
    2  A    between atoms: C_14  and  C_29
    3  A    between atoms: C_16  and  C_30
    4  A    between atoms: C_25  and  C_30
                            x       y       z     vdW  Elec       q    Type
                         _______ _______ _______ _____ _____    ______ ____

>  <TORSDO>
F 4

$$$$
=
 OpenBabel11062412413D

 32 36  0  0  1  0  0  0  0  0999 V2000
  188.4070  177.8710  143.9390 C   0  0  2  0  0  3  0  0  0  0  0  0
  187.0460  177.6230  143.4710 C   0  0  2  0  0  3  0  0  0  0  0  0
  190.8940  175.3120  143.4640 C   0  0  0  0  0  1  0  0  0  0  0  0
  188.1690  176.8580  142.8980 N   0  0  1  0  0  0  0  0  0  0  0  0
  190.9530  176.5000  146.2290 O   0  0  0  0  0  1  0  0  0  0  0  0
  190.7500  176.9660  140.4000 C   0  0  0  0  0  3  0  0  0  0  0  0
  186.6480  178.7610  142.5370 C   0  0  1  0  0  3  0  0  0  0  0  0
  191.1470  176.7690  143.8400 C   0  0  1  0  0  3  0  0  0  0  0  0
  187.8710  179.0050  141.2130 S   0  0  0  0  0  0  0  0  0  0  0  0
  191.0380  177.7860  142.6790 C   0  0  0  0  0  2  0  0  0  0  0  0
  190.4430  177.2120  145.1430 C   0  0  1  0  0  3  0  0  0  0  0  0
  188.9140  177.1040  145.1310 C   0  0  0  0  0  2  0  0  0  0  0  0
  190.1470  177.3840  141.5210 C   0  0  0  0  0  0  0  0  0  0  0  0
  188.6340  177.4040  141.6260 C   0  0  1  0  0  3  0  0  0  0  0  0
  183.8130  178.2520  140.1360 C   0  0  0  0  0  0  0  0  0  0  0  0
  182.5860  178.1060  140.9840 C   0  0  0  0  0  3  0  0  0  0  0  0
  183.7280  178.0570  138.8300 C   0  0  0  0  0  1  0  0  0  0  0  0
  185.0990  178.4040  140.7470 N   0  0  0  0  0  0  0  0  0  0  0  0
  184.1520  179.2160  144.3090 C   0  0  0  0  0  1  0  0  0  0  0  0
  182.8250  178.5720  142.3920 C   0  0  0  0  0  3  0  0  0  0  0  0
  184.0460  178.7820  142.8890 C   0  0  0  0  0  0  0  0  0  0  0  0
  185.2470  178.6330  142.0170 C   0  0  0  0  0  0  0  0  0  0  0  0
  190.0170  176.5080  139.1710 C   0  0  0  0  0  2  0  0  0  0  0  0
  190.5750  177.1600  137.9130 C   0  0  0  0  0  2  0  0  0  0  0  0
  190.1310  175.0780  136.6770 C   0  0  0  0  0  2  0  0  0  0  0  0
  191.7190  174.1210  137.9940 O   0  0  0  0  0  0  0  0  0  0  0  0
  193.9840  176.7180  136.7280 O   0  0  0  0  0  0  0  0  0  0  0  0
  190.7610  173.8170  137.0680 N   0  0  0  0  0  2  0  0  0  0  0  0
  194.4100  174.7430  137.8040 O   0  0  0  0  0  1  0  0  0  0  0  0
  191.1580  176.1260  136.9600 C   0  0  2  0  0  3  0  0  0  0  0  0
  192.1650  175.3460  137.6260 N   0  0  0  0  0  0  0  0  0  0  0  0
  193.5590  175.5750  137.3970 C   0  0  0  0  0  0  0  0  0  0  0  0
  1 12  1  1  0  0  0
  2  1  1  0  0  0  0
  3  8  1  0  0  0  0
  4  2  1  0  0  0  0
  4  1  1  0  0  0  0
  6 13  2  0  0  0  0
  7  2  1  0  0  0  0
  8 11  1  0  0  0  0
  9 14  1  0  0  0  0
  9  7  1  0  0  0  0
 10  8  1  0  0  0  0
 11  5  1  0  0  0  0
 12 11  1  0  0  0  0
 13 14  1  0  0  0  0
 13 10  1  0  0  0  0
 14  4  1  0  0  0  0
 15 18  2  0  0  0  0
 15 16  1  0  0  0  0
 16 20  2  0  0  0  0
 17 15  1  0  0  0  0
 18 22  1  0  0  0  0
 20 21  1  0  0  0  0
 21 19  1  0  0  0  0
 22  7  1  0  0  0  0
 22 21  2  0  0  0  0
 23  6  1  0  0  0  0
 24 23  1  0  0  0  0
 25 30  1  0  0  0  0
 25 28  1  0  0  0  0
 27 32  2  0  0  0  0
 28 26  1  0  0  0  0
 30 31  1  0  0  0  0
 30 24  1  0  0  0  0
 31 26  1  0  0  0  0
 32 31  1  0  0  0  0
 32 29  1  0  0  0  0
M  END
>  <MODEL>
3

>  <REMARK>
 VINA RESULT:      -8.1      2.065      2.683
  Name = 
  4 active torsions:
  status: ('A' for Active; 'I' for Inactive)
    1  A    between atoms: C_12  and  C_16
    2  A    between atoms: C_14  and  C_29
    3  A    between atoms: C_16  and  C_30
    4  A    between atoms: C_25  and  C_30
                            x       y       z     vdW  Elec       q    Type
                         _______ _______ _______ _____ _____    ______ ____

>  <TORSDO>
F 4

$$$$
=
 OpenBabel11062412413D

 32 36  0  0  1  0  0  0  0  0999 V2000
  190.4330  176.7190  144.9280 C   0  0  2  0  0  3  0  0  0  0  0  0
  190.5540  177.2850  143.5880 C   0  0  2  0  0  3  0  0  0  0  0  0
  189.5570  178.8980  147.6560 C   0  0  0  0  0  1  0  0  0  0  0  0
  189.7600  177.9890  144.6120 N   0  0  1  0  0  0  0  0  0  0  0  0
  191.8340  177.0470  148.3240 O   0  0  0  0  0  1  0  0  0  0  0  0
  186.5130  178.1280  146.1460 C   0  0  0  0  0  3  0  0  0  0  0  0
  189.6390  176.5000  142.6540 C   0  0  1  0  0  3  0  0  0  0  0  0
  189.5370  177.3730  147.6680 C   0  0  1  0  0  3  0  0  0  0  0  0
  187.9370  176.4180  143.2900 S   0  0  0  0  0  0  0  0  0  0  0  0
  188.3310  176.7160  146.9540 C   0  0  0  0  0  2  0  0  0  0  0  0
  190.9020  176.7240  147.3390 C   0  0  1  0  0  3  0  0  0  0  0  0
  191.4740  177.0670  145.9580 C   0  0  0  0  0  2  0  0  0  0  0  0
  187.6790  177.5350  145.8570 C   0  0  0  0  0  0  0  0  0  0  0  0
  188.3290  177.7230  144.4990 C   0  0  1  0  0  3  0  0  0  0  0  0
  190.7370  176.7710  139.0790 C   0  0  0  0  0  0  0  0  0  0  0  0
  189.7140  177.6330  138.4050 C   0  0  0  0  0  3  0  0  0  0  0  0
  191.6790  176.1910  138.3520 C   0  0  0  0  0  1  0  0  0  0  0  0
  190.5860  176.4130  140.4570 N   0  0  0  0  0  0  0  0  0  0  0  0
  187.9260  178.8440  141.5800 C   0  0  0  0  0  1  0  0  0  0  0  0
  188.8680  178.3730  139.4020 C   0  0  0  0  0  3  0  0  0  0  0  0
  188.8270  178.0520  140.6980 C   0  0  0  0  0  0  0  0  0  0  0  0
  189.7050  176.9720  141.2310 C   0  0  0  0  0  0  0  0  0  0  0  0
  185.7480  178.9920  145.1850 C   0  0  0  0  0  2  0  0  0  0  0  0
  184.2460  178.7920  145.3270 C   0  0  0  0  0  2  0  0  0  0  0  0
  184.7130  177.9970  143.0440 C   0  0  0  0  0  2  0  0  0  0  0  0
  183.4920  179.7750  142.3250 O   0  0  0  0  0  0  0  0  0  0  0  0
  180.7600  178.4120  144.3650 O   0  0  0  0  0  1  0  0  0  0  0  0
  184.3080  178.7770  141.8750 N   0  0  0  0  0  2  0  0  0  0  0  0
  180.7530  179.9680  142.6860 O   0  0  0  0  0  0  0  0  0  0  0  0
  183.6340  178.2270  144.0530 C   0  0  2  0  0  3  0  0  0  0  0  0
  182.8500  179.2320  143.3880 N   0  0  0  0  0  0  0  0  0  0  0  0
  181.4210  179.2280  143.4530 C   0  0  0  0  0  0  0  0  0  0  0  0
  1 12  1  1  0  0  0
  2  4  1  0  0  0  0
  2  1  1  0  0  0  0
  3  8  1  0  0  0  0
  4  1  1  0  0  0  0
  7  9  1  0  0  0  0
  7  2  1  0  0  0  0
  9 14  1  0  0  0  0
 10  8  1  0  0  0  0
 11  8  1  0  0  0  0
 11  5  1  0  0  0  0
 12 11  1  0  0  0  0
 13  6  2  0  0  0  0
 13 10  1  0  0  0  0
 14  4  1  0  0  0  0
 14 13  1  0  0  0  0
 15 18  1  0  0  0  0
 16 15  2  0  0  0  0
 16 20  1  0  0  0  0
 17 15  1  0  0  0  0
 18 22  2  0  0  0  0
 20 21  2  0  0  0  0
 21 22  1  0  0  0  0
 21 19  1  0  0  0  0
 22  7  1  0  0  0  0
 23 24  1  0  0  0  0
 23  6  1  0  0  0  0
 25 30  1  0  0  0  0
 26 31  1  0  0  0  0
 28 26  1  0  0  0  0
 28 25  1  0  0  0  0
 29 32  2  0  0  0  0
 30 24  1  0  0  0  0
 31 32  1  0  0  0  0
 31 30  1  0  0  0  0
 32 27  1  0  0  0  0
M  END
>  <MODEL>
4

>  <REMARK>
 VINA RESULT:      -8.1      3.225      6.413
  Name = 
  4 active torsions:
  status: ('A' for Active; 'I' for Inactive)
    1  A    between atoms: C_12  and  C_16
    2  A    between atoms: C_14  and  C_29
    3  A    between atoms: C_16  and  C_30
    4  A    between atoms: C_25  and  C_30
                            x       y       z     vdW  Elec       q    Type
                         _______ _______ _______ _____ _____    ______ ____

>  <TORSDO>
F 4

$$$$
=
 OpenBabel11062412413D

 32 36  0  0  1  0  0  0  0  0999 V2000
  188.6190  177.2610  145.7580 C   0  0  2  0  0  3  0  0  0  0  0  0
  189.3600  177.6190  144.5520 C   0  0  2  0  0  3  0  0  0  0  0  0
  186.6390  179.7890  147.3870 C   0  0  0  0  0  1  0  0  0  0  0  0
  188.2010  178.4310  144.9670 N   0  0  1  0  0  0  0  0  0  0  0  0
  188.3010  178.1830  149.3150 O   0  0  0  0  0  1  0  0  0  0  0  0
  184.6180  178.6380  144.7910 C   0  0  0  0  0  3  0  0  0  0  0  0
  188.9590  176.6530  143.4410 C   0  0  1  0  0  3  0  0  0  0  0  0
  186.5760  178.2850  147.6330 C   0  0  1  0  0  3  0  0  0  0  0  0
  187.1550  176.5830  143.2270 S   0  0  0  0  0  0  0  0  0  0  0  0
  185.8190  177.4640  146.5600 C   0  0  0  0  0  2  0  0  0  0  0  0
  187.9210  177.6640  148.0770 C   0  0  1  0  0  3  0  0  0  0  0  0
  189.0740  177.8170  147.0800 C   0  0  0  0  0  2  0  0  0  0  0  0
  185.7700  178.0690  145.1710 C   0  0  0  0  0  0  0  0  0  0  0  0
  186.9780  178.0770  144.2530 C   0  0  1  0  0  3  0  0  0  0  0  0
  189.5500  177.3410  139.8030 C   0  0  0  0  0  0  0  0  0  0  0  0
  191.0100  177.6540  139.6820 C   0  0  0  0  0  3  0  0  0  0  0  0
  188.7650  177.4820  138.7470 C   0  0  0  0  0  1  0  0  0  0  0  0
  188.9700  177.0850  141.0860 N   0  0  0  0  0  0  0  0  0  0  0  0
  192.0440  176.5440  143.2090 C   0  0  0  0  0  1  0  0  0  0  0  0
  191.7720  177.2330  140.9050 C   0  0  0  0  0  3  0  0  0  0  0  0
  191.1760  176.9200  142.0590 C   0  0  0  0  0  0  0  0  0  0  0  0
  189.6880  176.9010  142.1530 C   0  0  0  0  0  0  0  0  0  0  0  0
  184.4070  179.3040  143.4610 C   0  0  0  0  0  2  0  0  0  0  0  0
  183.3610  178.5730  142.6310 C   0  0  0  0  0  2  0  0  0  0  0  0
  185.1600  178.9710  140.9980 C   0  0  0  0  0  2  0  0  0  0  0  0
  183.5640  179.9070  139.6770 O   0  0  0  0  0  0  0  0  0  0  0  0
  181.8140  176.6900  139.9330 O   0  0  0  0  0  1  0  0  0  0  0  0
  184.9160  179.7350  139.7750 N   0  0  0  0  0  2  0  0  0  0  0  0
  181.5470  178.4360  138.4770 O   0  0  0  0  0  0  0  0  0  0  0  0
  183.8900  178.2230  141.2470 C   0  0  2  0  0  3  0  0  0  0  0  0
  183.0410  178.7870  140.2320 N   0  0  0  0  0  0  0  0  0  0  0  0
  182.1090  177.9800  139.5060 C   0  0  0  0  0  0  0  0  0  0  0  0
  1 12  1  1  0  0  0
  2  4  1  0  0  0  0
  2  1  1  0  0  0  0
  3  8  1  0  0  0  0
  4  1  1  0  0  0  0
  6 13  2  0  0  0  0
  7  2  1  0  0  0  0
  8 11  1  0  0  0  0
  9  7  1  0  0  0  0
  9 14  1  0  0  0  0
 10  8  1  0  0  0  0
 11  5  1  0  0  0  0
 12 11  1  0  0  0  0
 13 10  1  0  0  0  0
 14  4  1  0  0  0  0
 14 13  1  0  0  0  0
 15 18  1  0  0  0  0
 16 15  2  0  0  0  0
 16 20  1  0  0  0  0
 17 15  1  0  0  0  0
 18 22  2  0  0  0  0
 20 21  2  0  0  0  0
 21 22  1  0  0  0  0
 21 19  1  0  0  0  0
 22  7  1  0  0  0  0
 23  6  1  0  0  0  0
 24 23  1  0  0  0  0
 25 30  1  0  0  0  0
 26 28  1  0  0  0  0
 26 31  1  0  0  0  0
 28 25  1  0  0  0  0
 29 32  2  0  0  0  0
 30 24  1  0  0  0  0
 31 30  1  0  0  0  0
 32 27  1  0  0  0  0
 32 31  1  0  0  0  0
M  END
>  <MODEL>
5

>  <REMARK>
 VINA RESULT:      -8.1      2.707      5.940
  Name = 
  4 active torsions:
  status: ('A' for Active; 'I' for Inactive)
    1  A    between atoms: C_12  and  C_16
    2  A    between atoms: C_14  and  C_29
    3  A    between atoms: C_16  and  C_30
    4  A    between atoms: C_25  and  C_30
                            x       y       z     vdW  Elec       q    Type
                         _______ _______ _______ _____ _____    ______ ____

>  <TORSDO>
F 4

$$$$
=
 OpenBabel11062412413D

 32 36  0  0  1  0  0  0  0  0999 V2000
  191.1650  176.9460  139.0500 C   0  0  2  0  0  3  0  0  0  0  0  0
  190.5450  176.7470  140.3560 C   0  0  2  0  0  3  0  0  0  0  0  0
  190.6150  174.4850  136.4800 C   0  0  0  0  0  1  0  0  0  0  0  0
  189.9900  176.0670  139.1720 N   0  0  1  0  0  0  0  0  0  0  0  0
  193.4970  175.3220  136.6980 O   0  0  0  0  0  1  0  0  0  0  0  0
  187.7760  176.5030  136.3750 C   0  0  0  0  0  3  0  0  0  0  0  0
  189.7240  177.9880  140.6890 C   0  0  1  0  0  3  0  0  0  0  0  0
  191.1880  175.8860  136.2910 C   0  0  1  0  0  3  0  0  0  0  0  0
  188.5600  178.4040  139.3550 S   0  0  0  0  0  0  0  0  0  0  0  0
  190.1550  177.0380  136.3120 C   0  0  0  0  0  2  0  0  0  0  0  0
  192.4640  176.1590  137.1200 C   0  0  1  0  0  3  0  0  0  0  0  0
  192.2960  176.0410  138.6390 C   0  0  0  0  0  2  0  0  0  0  0  0
  188.8790  176.7750  137.0860 C   0  0  0  0  0  0  0  0  0  0  0  0
  188.8430  176.7690  138.6030 C   0  0  1  0  0  3  0  0  0  0  0  0
  187.0220  177.8370  143.2840 C   0  0  0  0  0  0  0  0  0  0  0  0
  187.7140  177.5030  144.5710 C   0  0  0  0  0  3  0  0  0  0  0  0
  185.7000  177.8780  143.2500 C   0  0  0  0  0  1  0  0  0  0  0  0
  187.7640  177.9140  142.0630 N   0  0  0  0  0  0  0  0  0  0  0  0
  191.3120  178.0410  143.3450 C   0  0  0  0  0  1  0  0  0  0  0  0
  189.1980  177.7140  144.4740 C   0  0  0  0  0  3  0  0  0  0  0  0
  189.8340  177.8670  143.3100 C   0  0  0  0  0  0  0  0  0  0  0  0
  189.0640  177.9150  142.0340 C   0  0  0  0  0  0  0  0  0  0  0  0
  186.4380  176.1950  136.9820 C   0  0  0  0  0  2  0  0  0  0  0  0
  185.5490  177.4300  137.0310 C   0  0  0  0  0  2  0  0  0  0  0  0
  183.6130  176.2150  137.9460 C   0  0  0  0  0  2  0  0  0  0  0  0
  182.4310  178.1290  137.6150 O   0  0  0  0  0  0  0  0  0  0  0  0
  184.9300  179.7530  139.7600 O   0  0  0  0  0  1  0  0  0  0  0  0
  182.2790  176.8150  137.9550 N   0  0  0  0  0  2  0  0  0  0  0  0
  182.8490  180.4330  139.0940 O   0  0  0  0  0  0  0  0  0  0  0  0
  184.5510  177.3560  138.1780 C   0  0  2  0  0  3  0  0  0  0  0  0
  183.6420  178.4690  138.1210 N   0  0  0  0  0  0  0  0  0  0  0  0
  183.7760  179.5880  139.0020 C   0  0  0  0  0  0  0  0  0  0  0  0
  1 12  1  1  0  0  0
  1  4  1  0  0  0  0
  1  2  1  0  0  0  0
  2  7  1  0  0  0  0
  4  2  1  0  0  0  0
  5 11  1  0  0  0  0
  6 23  1  0  0  0  0
  6 13  2  0  0  0  0
  7 22  1  0  0  0  0
  8 10  1  0  0  0  0
  8  3  1  0  0  0  0
  8 11  1  0  0  0  0
  9  7  1  0  0  0  0
 10 13  1  0  0  0  0
 11 12  1  0  0  0  0
 13 14  1  0  0  0  0
 14  4  1  0  0  0  0
 14  9  1  0  0  0  0
 15 16  1  0  0  0  0
 17 15  1  0  0  0  0
 18 15  2  0  0  0  0
 20 16  2  0  0  0  0
 21 19  1  0  0  0  0
 21 20  1  0  0  0  0
 22 18  1  0  0  0  0
 22 21  2  0  0  0  0
 23 24  1  0  0  0  0
 24 30  1  0  0  0  0
 25 28  1  0  0  0  0
 25 30  1  0  0  0  0
 26 28  1  0  0  0  0
 26 31  1  0  0  0  0
 31 30  1  0  0  0  0
 31 32  1  0  0  0  0
 32 29  2  0  0  0  0
 32 27  1  0  0  0  0
M  END
>  <MODEL>
6

>  <REMARK>
 VINA RESULT:      -7.7      2.794      5.763
  Name = 
  4 active torsions:
  status: ('A' for Active; 'I' for Inactive)
    1  A    between atoms: C_12  and  C_16
    2  A    between atoms: C_14  and  C_29
    3  A    between atoms: C_16  and  C_30
    4  A    between atoms: C_25  and  C_30
                            x       y       z     vdW  Elec       q    Type
                         _______ _______ _______ _____ _____    ______ ____

>  <TORSDO>
F 4

$$$$
=
 OpenBabel11062412413D

 32 36  0  0  1  0  0  0  0  0999 V2000
  190.6360  177.2930  139.8900 C   0  0  2  0  0  3  0  0  0  0  0  0
  190.2020  176.9220  141.2330 C   0  0  2  0  0  3  0  0  0  0  0  0
  189.2310  175.5470  137.0720 C   0  0  0  0  0  1  0  0  0  0  0  0
  189.3480  176.6030  140.0740 N   0  0  1  0  0  0  0  0  0  0  0  0
  192.2180  175.8600  136.8820 O   0  0  0  0  0  1  0  0  0  0  0  0
  186.8490  177.9600  137.8770 C   0  0  0  0  0  3  0  0  0  0  0  0
  189.6950  178.1780  141.9350 C   0  0  1  0  0  3  0  0  0  0  0  0
  190.0240  176.8490  137.0320 C   0  0  1  0  0  3  0  0  0  0  0  0
  188.4370  179.0420  140.9460 S   0  0  0  0  0  0  0  0  0  0  0  0
  189.2460  178.1180  137.4590 C   0  0  0  0  0  2  0  0  0  0  0  0
  191.4430  176.7390  137.6380 C   0  0  1  0  0  3  0  0  0  0  0  0
  191.4950  176.3310  139.1150 C   0  0  0  0  0  2  0  0  0  0  0  0
  188.0800  177.8990  138.4020 C   0  0  0  0  0  0  0  0  0  0  0  0
  188.2820  177.5800  139.8710 C   0  0  1  0  0  3  0  0  0  0  0  0
  187.4300  177.5890  144.8650 C   0  0  0  0  0  0  0  0  0  0  0  0
  188.3260  177.1730  145.9920 C   0  0  0  0  0  3  0  0  0  0  0  0
  186.1180  177.5460  145.0280 C   0  0  0  0  0  1  0  0  0  0  0  0
  187.9730  177.8370  143.5640 N   0  0  0  0  0  0  0  0  0  0  0  0
  191.6640  178.0660  144.3200 C   0  0  0  0  0  1  0  0  0  0  0  0
  189.7650  177.4890  145.7030 C   0  0  0  0  0  3  0  0  0  0  0  0
  190.2080  177.8000  144.4820 C   0  0  0  0  0  0  0  0  0  0  0  0
  189.2510  177.9260  143.3460 C   0  0  0  0  0  0  0  0  0  0  0  0
  185.5880  177.7430  138.6640 C   0  0  0  0  0  2  0  0  0  0  0  0
  184.5080  178.7430  138.2760 C   0  0  0  0  0  2  0  0  0  0  0  0
  184.6440  178.9750  140.7230 C   0  0  0  0  0  2  0  0  0  0  0  0
  182.4950  178.2360  140.7740 O   0  0  0  0  0  0  0  0  0  0  0  0
  181.7280  181.0680  138.5670 O   0  0  0  0  0  0  0  0  0  0  0  0
  183.5540  178.5260  141.5870 N   0  0  0  0  0  2  0  0  0  0  0  0
  180.3640  179.7320  139.8300 O   0  0  0  0  0  1  0  0  0  0  0  0
  183.9740  179.4890  139.4900 C   0  0  2  0  0  3  0  0  0  0  0  0
  182.6100  179.1130  139.7470 N   0  0  0  0  0  0  0  0  0  0  0  0
  181.5210  179.9700  139.3950 C   0  0  0  0  0  0  0  0  0  0  0  0
  1 12  1  6  0  0  0
  1  4  1  0  0  0  0
  1  2  1  0  0  0  0
  2  7  1  0  0  0  0
  4  2  1  0  0  0  0
  5 11  1  0  0  0  0
  6 13  2  0  0  0  0
  6 23  1  0  0  0  0
  7 22  1  0  0  0  0
  8  3  1  0  0  0  0
  8 10  1  0  0  0  0
  8 11  1  0  0  0  0
  9  7  1  0  0  0  0
 10 13  1  0  0  0  0
 11 12  1  0  0  0  0
 13 14  1  0  0  0  0
 14  4  1  0  0  0  0
 14  9  1  0  0  0  0
 15 17  1  0  0  0  0
 15 16  1  0  0  0  0
 18 15  2  0  0  0  0
 19 21  1  0  0  0  0
 20 16  2  0  0  0  0
 21 20  1  0  0  0  0
 22 18  1  0  0  0  0
 22 21  2  0  0  0  0
 24 23  1  0  0  0  0
 24 30  1  0  0  0  0
 25 28  1  0  0  0  0
 26 28  1  0  0  0  0
 27 32  2  0  0  0  0
 30 31  1  0  0  0  0
 30 25  1  0  0  0  0
 31 26  1  0  0  0  0
 32 31  1  0  0  0  0
 32 29  1  0  0  0  0
M  END
>  <MODEL>
7

>  <REMARK>
 VINA RESULT:      -7.5      2.794      6.112
  Name = 
  4 active torsions:
  status: ('A' for Active; 'I' for Inactive)
    1  A    between atoms: C_12  and  C_16
    2  A    between atoms: C_14  and  C_29
    3  A    between atoms: C_16  and  C_30
    4  A    between atoms: C_25  and  C_30
                            x       y       z     vdW  Elec       q    Type
                         _______ _______ _______ _____ _____    ______ ____

>  <TORSDO>
F 4

$$$$
=
 OpenBabel11062412413D

 32 36  0  0  1  0  0  0  0  0999 V2000
  190.5830  177.1920  139.7100 C   0  0  2  0  0  3  0  0  0  0  0  0
  190.1190  176.8380  141.0480 C   0  0  2  0  0  3  0  0  0  0  0  0
  188.9980  175.6590  136.8650 C   0  0  0  0  0  1  0  0  0  0  0  0
  189.2330  176.6310  139.8880 N   0  0  1  0  0  0  0  0  0  0  0  0
  192.0000  175.6720  136.6630 O   0  0  0  0  0  1  0  0  0  0  0  0
  186.8750  178.2810  137.7360 C   0  0  0  0  0  3  0  0  0  0  0  0
  189.7450  178.1220  141.7800 C   0  0  1  0  0  3  0  0  0  0  0  0
  189.9180  176.8750  136.8480 C   0  0  1  0  0  3  0  0  0  0  0  0
  188.5770  179.1300  140.8170 S   0  0  0  0  0  0  0  0  0  0  0  0
  189.2740  178.2060  137.3060 C   0  0  0  0  0  2  0  0  0  0  0  0
  191.3210  176.6090  137.4420 C   0  0  1  0  0  3  0  0  0  0  0  0
  191.3380  176.1650  138.9090 C   0  0  0  0  0  2  0  0  0  0  0  0
  188.0960  178.0850  138.2520 C   0  0  0  0  0  0  0  0  0  0  0  0
  188.2710  177.7150  139.7120 C   0  0  1  0  0  3  0  0  0  0  0  0
  187.4430  177.5930  144.6920 C   0  0  0  0  0  0  0  0  0  0  0  0
  188.3200  177.1630  145.8280 C   0  0  0  0  0  3  0  0  0  0  0  0
  186.1280  177.5790  144.8440 C   0  0  0  0  0  1  0  0  0  0  0  0
  188.0020  177.8250  143.3950 N   0  0  0  0  0  0  0  0  0  0  0  0
  191.6900  177.9800  144.1820 C   0  0  0  0  0  1  0  0  0  0  0  0
  189.7680  177.4490  145.5510 C   0  0  0  0  0  3  0  0  0  0  0  0
  190.2280  177.7450  144.3330 C   0  0  0  0  0  0  0  0  0  0  0  0
  189.2840  177.8860  143.1880 C   0  0  0  0  0  0  0  0  0  0  0  0
  185.6020  178.1750  138.5260 C   0  0  0  0  0  2  0  0  0  0  0  0
  184.5670  177.3200  137.8070 C   0  0  0  0  0  2  0  0  0  0  0  0
  183.1870  179.0780  138.8390 C   0  0  0  0  0  2  0  0  0  0  0  0
  182.6300  177.5270  140.4060 O   0  0  0  0  0  0  0  0  0  0  0  0
  181.4390  175.4790  137.6000 O   0  0  0  0  0  0  0  0  0  0  0  0
  182.5150  178.8580  140.1200 N   0  0  0  0  0  2  0  0  0  0  0  0
  181.0450  175.3250  139.8500 O   0  0  0  0  0  1  0  0  0  0  0  0
  183.1490  177.7520  138.1510 C   0  0  2  0  0  3  0  0  0  0  0  0
  182.6140  176.9200  139.1940 N   0  0  0  0  0  0  0  0  0  0  0  0
  181.6700  175.8830  138.9110 C   0  0  0  0  0  0  0  0  0  0  0  0
  1 12  1  6  0  0  0
  1  4  1  0  0  0  0
  1  2  1  0  0  0  0
  2  7  1  0  0  0  0
  4  2  1  0  0  0  0
  5 11  1  0  0  0  0
  6 13  2  0  0  0  0
  6 23  1  0  0  0  0
  7 22  1  0  0  0  0
  8  3  1  0  0  0  0
  8 10  1  0  0  0  0
  8 11  1  0  0  0  0
  9  7  1  0  0  0  0
 10 13  1  0  0  0  0
 11 12  1  0  0  0  0
 13 14  1  0  0  0  0
 14  4  1  0  0  0  0
 14  9  1  0  0  0  0
 15 17  1  0  0  0  0
 15 16  1  0  0  0  0
 18 15  2  0  0  0  0
 19 21  1  0  0  0  0
 20 16  2  0  0  0  0
 21 20  1  0  0  0  0
 22 18  1  0  0  0  0
 22 21  2  0  0  0  0
 24 30  1  0  0  0  0
 24 23  1  0  0  0  0
 25 28  1  0  0  0  0
 27 32  2  0  0  0  0
 28 26  1  0  0  0  0
 30 25  1  0  0  0  0
 30 31  1  0  0  0  0
 31 26  1  0  0  0  0
 32 31  1  0  0  0  0
 32 29  1  0  0  0  0
M  END
>  <MODEL>
8

>  <REMARK>
 VINA RESULT:      -7.2      2.890      5.890
  Name = 
  4 active torsions:
  status: ('A' for Active; 'I' for Inactive)
    1  A    between atoms: C_12  and  C_16
    2  A    between atoms: C_14  and  C_29
    3  A    between atoms: C_16  and  C_30
    4  A    between atoms: C_25  and  C_30
                            x       y       z     vdW  Elec       q    Type
                         _______ _______ _______ _____ _____    ______ ____

>  <TORSDO>
F 4

$$$$
=
 OpenBabel11062412413D

 32 36  0  0  1  0  0  0  0  0999 V2000
  190.6400  177.0230  136.8660 C   0  0  2  0  0  3  0  0  0  0  0  0
  191.5030  175.8510  136.9830 C   0  0  2  0  0  3  0  0  0  0  0  0
  187.3020  176.8540  138.2040 C   0  0  0  0  0  1  0  0  0  0  0  0
  190.3560  176.0090  137.8960 N   0  0  1  0  0  0  0  0  0  0  0  0
  187.3990  178.0760  135.4560 O   0  0  0  0  0  1  0  0  0  0  0  0
  189.3100  177.5660  140.9620 C   0  0  0  0  0  3  0  0  0  0  0  0
  192.7940  176.2760  137.6740 C   0  0  1  0  0  3  0  0  0  0  0  0
  188.0480  178.1140  137.7770 C   0  0  1  0  0  3  0  0  0  0  0  0
  192.4680  177.1340  139.2440 S   0  0  0  0  0  0  0  0  0  0  0  0
  189.1180  178.6260  138.7730 C   0  0  0  0  0  2  0  0  0  0  0  0
  188.5080  178.1020  136.3010 C   0  0  1  0  0  3  0  0  0  0  0  0
  189.4680  176.9690  135.9230 C   0  0  0  0  0  2  0  0  0  0  0  0
  189.7280  177.5840  139.6890 C   0  0  0  0  0  0  0  0  0  0  0  0
  190.7370  176.5670  139.1910 C   0  0  1  0  0  3  0  0  0  0  0  0
  195.7720  174.3360  138.8690 C   0  0  0  0  0  0  0  0  0  0  0  0
  195.5770  172.9410  138.3580 C   0  0  0  0  0  3  0  0  0  0  0  0
  196.7780  174.5940  139.6890 C   0  0  0  0  0  1  0  0  0  0  0  0
  194.7730  175.3350  138.6390 N   0  0  0  0  0  0  0  0  0  0  0  0
  192.6630  173.6930  135.9750 C   0  0  0  0  0  1  0  0  0  0  0  0
  194.5300  172.8830  137.2830 C   0  0  0  0  0  3  0  0  0  0  0  0
  193.6740  173.8820  137.0510 C   0  0  0  0  0  0  0  0  0  0  0  0
  193.7810  175.1550  137.8190 C   0  0  0  0  0  0  0  0  0  0  0  0
  189.7920  176.5860  141.9920 C   0  0  0  0  0  2  0  0  0  0  0  0
  188.7290  176.3150  143.0470 C   0  0  0  0  0  2  0  0  0  0  0  0
  188.7580  177.7510  145.0460 C   0  0  0  0  0  2  0  0  0  0  0  0
  186.5440  177.2750  145.2510 O   0  0  0  0  0  0  0  0  0  0  0  0
  186.1900  178.6310  141.8570 O   0  0  0  0  0  0  0  0  0  0  0  0
  187.5820  177.8720  145.9080 N   0  0  0  0  0  2  0  0  0  0  0  0
  184.6320  178.2090  143.4790 O   0  0  0  0  0  1  0  0  0  0  0  0
  188.2100  177.6070  143.6630 C   0  0  2  0  0  3  0  0  0  0  0  0
  186.8030  177.4980  143.9390 N   0  0  0  0  0  0  0  0  0  0  0  0
  185.8280  178.1220  143.0990 C   0  0  0  0  0  0  0  0  0  0  0  0
  1 12  1  6  0  0  0
  1  2  1  0  0  0  0
  1  4  1  0  0  0  0
  2  7  1  0  0  0  0
  2  4  1  0  0  0  0
  4 14  1  0  0  0  0
  5 11  1  0  0  0  0
  6 23  1  0  0  0  0
  7 22  1  0  0  0  0
  7  9  1  0  0  0  0
  8  3  1  0  0  0  0
  8 10  1  0  0  0  0
 10 13  1  0  0  0  0
 11  8  1  0  0  0  0
 12 11  1  0  0  0  0
 13  6  2  0  0  0  0
 14  9  1  0  0  0  0
 14 13  1  0  0  0  0
 15 17  1  0  0  0  0
 16 15  2  0  0  0  0
 18 15  1  0  0  0  0
 19 21  1  0  0  0  0
 20 16  1  0  0  0  0
 21 20  2  0  0  0  0
 21 22  1  0  0  0  0
 22 18  2  0  0  0  0
 23 24  1  0  0  0  0
 24 30  1  0  0  0  0
 25 28  1  0  0  0  0
 26 28  1  0  0  0  0
 27 32  2  0  0  0  0
 30 31  1  0  0  0  0
 30 25  1  0  0  0  0
 31 26  1  0  0  0  0
 32 29  1  0  0  0  0
 32 31  1  0  0  0  0
M  END
>  <MODEL>
9

>  <REMARK>
 VINA RESULT:      -7.2      3.588      8.636
  Name = 
  4 active torsions:
  status: ('A' for Active; 'I' for Inactive)
    1  A    between atoms: C_12  and  C_16
    2  A    between atoms: C_14  and  C_29
    3  A    between atoms: C_16  and  C_30
    4  A    between atoms: C_25  and  C_30
                            x       y       z     vdW  Elec       q    Type
                         _______ _______ _______ _____ _____    ______ ____

>  <TORSDO>
F 4

$$$$
