=
 OpenBabel11062416143D

 44 50  0  0  1  0  0  0  0  0999 V2000
  187.4290  178.7030  139.8100 O   0  0  0  0  0  0  0  0  0  0  0  0
  188.6990  177.4650  136.9980 C   0  0  1  0  0  3  0  0  0  0  0  0
  188.7830  178.5150  140.2590 C   0  0  2  0  0  3  0  0  0  0  0  0
  190.0450  176.5010  139.1780 C   0  0  0  0  0  1  0  0  0  0  0  0
  183.3150  175.5580  135.6920 C   0  0  0  0  0  2  0  0  0  0  0  0
  183.4950  178.3700  142.0020 C   0  0  0  0  0  3  0  0  0  0  0  0
  179.5410  176.1160  139.8820 O   0  0  0  0  0  0  0  0  0  0  0  0
  182.2460  176.6520  135.6800 C   0  0  2  0  0  0  0  0  0  0  0  0
  186.5510  178.2160  142.0110 C   0  0  0  0  0  0  0  0  0  0  0  0
  185.0960  178.6310  140.0770 C   0  0  0  0  0  3  0  0  0  0  0  0
  185.7240  178.2780  143.0920 C   0  0  0  0  0  0  0  0  0  0  0  0
  181.5050  177.2960  140.2500 N   0  0  0  0  0  2  0  0  0  0  0  0
  180.8320  175.2240  137.2490 C   0  0  2  0  0  3  0  0  0  0  0  0
  182.9760  177.8110  138.5220 O   0  0  0  0  0  0  0  0  0  0  0  0
  187.2990  178.3850  135.4550 C   0  0  0  0  0  2  0  0  0  0  0  0
  179.3960  174.7250  137.2690 C   0  0  0  0  0  1  0  0  0  0  0  0
  184.5060  175.9810  136.5340 C   0  0  0  0  0  2  0  0  0  0  0  0
  186.3090  178.5600  140.6270 C   0  0  0  0  0  0  0  0  0  0  0  0
  189.6590  177.9890  139.1040 C   0  0  1  0  0  3  0  0  0  0  0  0
  186.3520  177.6750  136.4070 C   0  0  1  0  0  3  0  0  0  0  0  0
  180.7530  176.2750  139.5860 C   0  0  0  0  0  0  0  0  0  0  0  0
  184.3710  178.8960  143.1010 C   0  0  0  0  0  2  0  0  0  0  0  0
  187.7640  177.8930  142.4480 N   0  0  0  0  0  0  0  0  0  0  0  0
  187.0080  176.3720  138.2860 O   0  0  0  0  0  0  0  0  0  0  0  0
  185.5770  176.6030  135.6510 C   0  0  0  0  0  2  0  0  0  0  0  0
  186.4600  177.9820  144.1860 N   0  0  0  0  0  0  0  0  0  0  0  0
  188.9270  177.7020  141.5800 C   0  0  2  0  0  3  0  0  0  0  0  0
  187.3100  177.1000  137.3520 C   0  0  0  0  0  0  0  0  0  0  0  0
  188.6350  177.9610  135.6810 O   0  0  0  0  0  0  0  0  0  0  0  0
  189.2140  178.4790  137.8420 O   0  0  0  0  0  0  0  0  0  0  0  0
  187.6940  177.7240  143.7600 N   0  0  0  0  0  0  0  0  0  0  0  0
  181.4300  175.3010  138.6580 C   0  0  0  0  0  2  0  0  0  0  0  0
  180.9530  176.5390  136.4820 C   0  0  2  0  0  3  0  0  0  0  0  0
  180.9710  176.2480  134.9820 C   0  0  0  0  0  2  0  0  0  0  0  0
  182.7510  177.8050  139.7610 C   0  0  0  0  0  0  0  0  0  0  0  0
  183.7810  178.3120  140.6890 C   0  0  0  0  0  0  0  0  0  0  0  0
  182.6340  177.9480  135.3400 O   0  0  0  0  0  1  0  0  0  0  0  0
  190.2070  178.1170  142.2940 C   0  0  0  0  0  2  0  0  0  0  0  0
  191.0600  176.8980  142.5950 C   0  0  2  0  0  3  0  0  0  0  0  0
  190.2550  175.7600  142.6730 O   0  0  0  0  0  1  0  0  0  0  0  0
  191.7470  177.0940  143.8600 N   0  0  0  0  0  2  0  0  0  0  0  0
  191.8050  176.3660  146.1670 C   0  0  0  0  0  2  0  0  0  0  0  0
  190.5680  177.2120  145.9680 C   0  0  0  0  0  2  0  0  0  0  0  0
  191.0480  176.3020  144.8560 C   0  0  0  0  0  3  0  0  0  0  0  0
  1 18  1  0  0  0  0
  2 29  1  6  0  0  0
  2 28  1  0  0  0  0
  2 30  1  0  0  0  0
  3  1  1  6  0  0  0
  3 27  1  0  0  0  0
  5 17  1  0  0  0  0
  6 22  1  0  0  0  0
  8 37  1  6  0  0  0
  8  5  1  0  0  0  0
  8 33  1  0  0  0  0
  9 23  1  0  0  0  0
  9 11  2  0  0  0  0
 10 18  2  0  0  0  0
 10 36  1  0  0  0  0
 11 22  1  0  0  0  0
 11 26  1  0  0  0  0
 13 16  1  1  0  0  0
 13 32  1  0  0  0  0
 14 35  2  0  0  0  0
 15 29  1  0  0  0  0
 18  9  1  0  0  0  0
 19  4  1  6  0  0  0
 19  3  1  0  0  0  0
 20 15  1  6  0  0  0
 20 28  1  0  0  0  0
 21  7  2  0  0  0  0
 21 12  1  0  0  0  0
 23 31  1  0  0  0  0
 25 20  1  0  0  0  0
 25 17  1  0  0  0  0
 27 38  1  1  0  0  0
 27 23  1  0  0  0  0
 28 24  2  0  0  0  0
 30 19  1  0  0  0  0
 31 26  2  0  0  0  0
 32 21  1  0  0  0  0
 33 34  1  6  0  0  0
 33 13  1  0  0  0  0
 34  8  1  0  0  0  0
 35 12  1  0  0  0  0
 35 36  1  0  0  0  0
 36  6  2  0  0  0  0
 38 39  1  0  0  0  0
 39 40  1  1  0  0  0
 39 41  1  0  0  0  0
 41 44  1  0  0  0  0
 43 42  1  0  0  0  0
 44 43  1  0  0  0  0
 44 42  1  0  0  0  0
M  END
>  <MODEL>
1

>  <REMARK>
 VINA RESULT:      -9.2      0.000      0.000
  Name = 
  4 active torsions:
  status: ('A' for Active; 'I' for Inactive)
    1  A    between atoms: C_8  and  C_18
    2  A    between atoms: C_8  and  N_31
    3  A    between atoms: C_18  and  C_33
    4  A    between atoms: N_31  and  C_44
                            x       y       z     vdW  Elec       q    Type
                         _______ _______ _______ _____ _____    ______ ____

>  <TORSDO>
F 4

$$$$
=
 OpenBabel11062416143D

 44 50  0  0  1  0  0  0  0  0999 V2000
  189.0530  178.5040  142.5900 O   0  0  0  0  0  0  0  0  0  0  0  0
  191.6240  176.8540  141.2790 C   0  0  1  0  0  3  0  0  0  0  0  0
  189.7140  178.1440  143.8160 C   0  0  2  0  0  3  0  0  0  0  0  0
  191.0040  175.8740  143.7600 C   0  0  0  0  0  1  0  0  0  0  0  0
  188.2190  175.7140  136.6490 C   0  0  0  0  0  2  0  0  0  0  0  0
  184.6710  178.9750  141.6030 C   0  0  0  0  0  3  0  0  0  0  0  0
  182.7900  177.2010  137.2980 O   0  0  0  0  0  0  0  0  0  0  0  0
  187.6330  176.9570  135.9780 C   0  0  2  0  0  0  0  0  0  0  0  0
  186.8740  178.3450  143.6300 C   0  0  0  0  0  0  0  0  0  0  0  0
  187.1570  178.8210  141.2380 C   0  0  0  0  0  3  0  0  0  0  0  0
  185.5670  178.6250  143.8910 C   0  0  0  0  0  0  0  0  0  0  0  0
  184.1860  178.0850  138.9270 N   0  0  0  0  0  2  0  0  0  0  0  0
  185.3180  175.9030  136.1510 C   0  0  2  0  0  3  0  0  0  0  0  0
  186.4920  178.2180  138.6350 O   0  0  0  0  0  0  0  0  0  0  0  0
  191.7760  177.8510  139.2380 C   0  0  0  0  0  2  0  0  0  0  0  0
  184.1680  175.6390  135.1910 C   0  0  0  0  0  1  0  0  0  0  0  0
  188.6080  176.0130  138.0870 C   0  0  0  0  0  2  0  0  0  0  0  0
  187.6690  178.6070  142.4510 C   0  0  0  0  0  0  0  0  0  0  0  0
  191.0270  177.3930  143.5110 C   0  0  1  0  0  3  0  0  0  0  0  0
  190.3330  177.3800  139.2900 C   0  0  1  0  0  3  0  0  0  0  0  0
  183.8990  177.1420  137.8890 C   0  0  0  0  0  0  0  0  0  0  0  0
  184.6770  179.4450  143.0270 C   0  0  0  0  0  2  0  0  0  0  0  0
  187.4170  177.8730  144.7480 N   0  0  0  0  0  0  0  0  0  0  0  0
  189.3490  176.1500  141.0720 O   0  0  0  0  0  0  0  0  0  0  0  0
  190.0810  176.3830  138.1650 C   0  0  0  0  0  2  0  0  0  0  0  0
  185.3320  178.3080  145.1840 N   0  0  0  0  0  0  0  0  0  0  0  0
  188.8080  177.4310  144.8630 C   0  0  2  0  0  3  0  0  0  0  0  0
  190.3110  176.7410  140.6070 C   0  0  0  0  0  0  0  0  0  0  0  0
  192.5310  177.2440  140.2740 O   0  0  0  0  0  0  0  0  0  0  0  0
  191.6180  177.8410  142.2950 O   0  0  0  0  0  0  0  0  0  0  0  0
  186.4720  177.8260  145.6750 N   0  0  0  0  0  0  0  0  0  0  0  0
  184.8400  176.0010  137.6030 C   0  0  0  0  0  2  0  0  0  0  0  0
  186.1390  177.1150  135.7140 C   0  0  2  0  0  3  0  0  0  0  0  0
  187.0920  176.7020  134.5940 C   0  0  0  0  0  2  0  0  0  0  0  0
  185.5080  178.3500  139.4110 C   0  0  0  0  0  0  0  0  0  0  0  0
  185.7370  178.7640  140.8090 C   0  0  0  0  0  0  0  0  0  0  0  0
  188.3640  178.1440  136.0370 O   0  0  0  0  0  1  0  0  0  0  0  0
  189.3440  177.6980  146.2630 C   0  0  0  0  0  2  0  0  0  0  0  0
  188.8830  176.6120  147.2190 C   0  0  2  0  0  3  0  0  0  0  0  0
  188.2090  177.1840  148.3000 O   0  0  0  0  0  1  0  0  0  0  0  0
  190.0390  175.8750  147.7020 N   0  0  0  0  0  2  0  0  0  0  0  0
  192.3070  176.5190  148.2430 C   0  0  0  0  0  2  0  0  0  0  0  0
  192.3540  175.5450  147.0870 C   0  0  0  0  0  2  0  0  0  0  0  0
  191.2200  176.5450  147.1870 C   0  0  0  0  0  3  0  0  0  0  0  0
  2 29  1  6  0  0  0
  2 30  1  0  0  0  0
  3  1  1  6  0  0  0
  3 27  1  0  0  0  0
  5 17  1  0  0  0  0
  6 22  1  0  0  0  0
  7 21  2  0  0  0  0
  8 37  1  1  0  0  0
  8  5  1  0  0  0  0
  9 11  2  0  0  0  0
  9 23  1  0  0  0  0
 10 18  2  0  0  0  0
 11 26  1  0  0  0  0
 12 35  1  0  0  0  0
 13 16  1  6  0  0  0
 13 32  1  0  0  0  0
 14 35  2  0  0  0  0
 15 20  1  0  0  0  0
 15 29  1  0  0  0  0
 17 25  1  0  0  0  0
 18  1  1  0  0  0  0
 18  9  1  0  0  0  0
 19  4  1  6  0  0  0
 19  3  1  0  0  0  0
 20 25  1  6  0  0  0
 20 28  1  0  0  0  0
 21 12  1  0  0  0  0
 22 11  1  0  0  0  0
 23 27  1  0  0  0  0
 23 31  1  0  0  0  0
 26 31  2  0  0  0  0
 27 38  1  1  0  0  0
 28 24  2  0  0  0  0
 28  2  1  0  0  0  0
 30 19  1  0  0  0  0
 32 21  1  0  0  0  0
 33 34  1  6  0  0  0
 33  8  1  0  0  0  0
 33 13  1  0  0  0  0
 34  8  1  0  0  0  0
 35 36  1  0  0  0  0
 36 10  1  0  0  0  0
 36  6  2  0  0  0  0
 38 39  1  0  0  0  0
 39 41  1  0  0  0  0
 39 40  1  1  0  0  0
 43 44  1  0  0  0  0
 43 42  1  0  0  0  0
 44 41  1  0  0  0  0
 44 42  1  0  0  0  0
M  END
>  <MODEL>
2

>  <REMARK>
 VINA RESULT:      -8.3      2.160      4.089
  Name = 
  4 active torsions:
  status: ('A' for Active; 'I' for Inactive)
    1  A    between atoms: C_8  and  C_18
    2  A    between atoms: C_8  and  N_31
    3  A    between atoms: C_18  and  C_33
    4  A    between atoms: N_31  and  C_44
                            x       y       z     vdW  Elec       q    Type
                         _______ _______ _______ _____ _____    ______ ____

>  <TORSDO>
F 4

$$$$
=
 OpenBabel11062416143D

 44 50  0  0  1  0  0  0  0  0999 V2000
  184.1470  178.1930  137.8620 O   0  0  0  0  0  0  0  0  0  0  0  0
  181.1650  178.0710  139.3270 C   0  0  1  0  0  3  0  0  0  0  0  0
  183.4230  177.5430  136.8030 C   0  0  2  0  0  3  0  0  0  0  0  0
  181.4740  175.9870  137.5780 C   0  0  0  0  0  1  0  0  0  0  0  0
  183.9610  178.1270  144.4750 C   0  0  0  0  0  2  0  0  0  0  0  0
  188.4340  177.7830  139.2190 C   0  0  0  0  0  3  0  0  0  0  0  0
  189.5890  177.5870  144.1020 O   0  0  0  0  0  0  0  0  0  0  0  0
  184.9040  179.3160  144.6660 C   0  0  2  0  0  0  0  0  0  0  0  0
  186.1740  176.9920  137.3150 C   0  0  0  0  0  0  0  0  0  0  0  0
  186.0250  178.5110  139.2370 C   0  0  0  0  0  3  0  0  0  0  0  0
  187.5060  176.7490  137.1620 C   0  0  0  0  0  0  0  0  0  0  0  0
  188.5720  178.0370  142.0650 N   0  0  0  0  0  2  0  0  0  0  0  0
  186.7630  177.6840  145.2840 C   0  0  2  0  0  3  0  0  0  0  0  0
  186.4260  178.9290  141.9300 O   0  0  0  0  0  0  0  0  0  0  0  0
  181.3110  179.8490  140.7420 C   0  0  0  0  0  2  0  0  0  0  0  0
  187.7540  177.5470  146.4280 C   0  0  0  0  0  1  0  0  0  0  0  0
  183.7090  177.8730  142.9990 C   0  0  0  0  0  2  0  0  0  0  0  0
  185.4880  177.9490  138.1540 C   0  0  0  0  0  0  0  0  0  0  0  0
  181.9340  177.4020  137.1840 C   0  0  1  0  0  3  0  0  0  0  0  0
  182.5280  179.0140  141.1020 C   0  0  1  0  0  3  0  0  0  0  0  0
  188.5280  177.5950  143.4270 C   0  0  0  0  0  0  0  0  0  0  0  0
  188.5990  177.5740  137.7430 C   0  0  0  0  0  2  0  0  0  0  0  0
  185.5250  176.2590  136.4150 N   0  0  0  0  0  0  0  0  0  0  0  0
  183.0920  176.9140  140.1390 O   0  0  0  0  0  0  0  0  0  0  0  0
  182.4330  178.5740  142.5580 C   0  0  0  0  0  2  0  0  0  0  0  0
  187.6460  175.8550  136.1590 N   0  0  0  0  0  0  0  0  0  0  0  0
  184.0670  176.2240  136.2820 C   0  0  2  0  0  3  0  0  0  0  0  0
  182.3630  177.8940  140.1760 C   0  0  0  0  0  0  0  0  0  0  0  0
  180.4160  179.0950  139.9400 O   0  0  0  0  0  0  0  0  0  0  0  0
  181.5000  178.4770  138.0110 O   0  0  0  0  0  0  0  0  0  0  0  0
  186.4190  175.5520  135.7400 N   0  0  0  0  0  0  0  0  0  0  0  0
  187.2680  177.0070  144.0060 C   0  0  0  0  0  2  0  0  0  0  0  0
  186.3660  179.1430  145.0640 C   0  0  2  0  0  3  0  0  0  0  0  0
  185.3160  179.5410  146.0990 C   0  0  0  0  0  2  0  0  0  0  0  0
  187.4110  178.4290  141.3240 C   0  0  0  0  0  0  0  0  0  0  0  0
  187.3470  178.2460  139.8610 C   0  0  0  0  0  0  0  0  0  0  0  0
  184.5920  180.5140  144.0230 O   0  0  0  0  0  1  0  0  0  0  0  0
  183.6640  176.0010  134.8310 C   0  0  0  0  0  2  0  0  0  0  0  0
  183.0940  174.6050  134.6510 C   0  0  2  0  0  3  0  0  0  0  0  0
  181.7000  174.6640  134.5940 O   0  0  0  0  0  1  0  0  0  0  0  0
  183.4990  173.7740  135.7720 N   0  0  0  0  0  2  0  0  0  0  0  0
  183.5280  171.4790  136.5370 C   0  0  0  0  0  2  0  0  0  0  0  0
  182.1660  172.0620  136.8400 C   0  0  0  0  0  2  0  0  0  0  0  0
  182.8970  172.4670  135.5760 C   0  0  0  0  0  3  0  0  0  0  0  0
  1 18  1  0  0  0  0
  2 30  1  6  0  0  0
  2 29  1  0  0  0  0
  2 28  1  0  0  0  0
  3 19  1  0  0  0  0
  3  1  1  1  0  0  0
  5  8  1  0  0  0  0
  6 36  2  0  0  0  0
  8 37  1  6  0  0  0
  8 33  1  0  0  0  0
  8 34  1  0  0  0  0
  9 18  1  0  0  0  0
 10 36  1  0  0  0  0
 11  9  2  0  0  0  0
 11 22  1  0  0  0  0
 12 21  1  0  0  0  0
 13 16  1  1  0  0  0
 17  5  1  0  0  0  0
 18 10  2  0  0  0  0
 19  4  1  1  0  0  0
 19 30  1  0  0  0  0
 20 15  1  6  0  0  0
 20 25  1  0  0  0  0
 21 32  1  0  0  0  0
 21  7  2  0  0  0  0
 22  6  1  0  0  0  0
 23  9  1  0  0  0  0
 24 28  2  0  0  0  0
 25 17  1  0  0  0  0
 26 11  1  0  0  0  0
 27 38  1  6  0  0  0
 27 23  1  0  0  0  0
 27  3  1  0  0  0  0
 28 20  1  0  0  0  0
 29 15  1  0  0  0  0
 31 26  2  0  0  0  0
 31 23  1  0  0  0  0
 32 13  1  0  0  0  0
 33 13  1  0  0  0  0
 33 34  1  1  0  0  0
 35 14  2  0  0  0  0
 35 12  1  0  0  0  0
 36 35  1  0  0  0  0
 39 40  1  1  0  0  0
 39 38  1  0  0  0  0
 39 41  1  0  0  0  0
 42 43  1  0  0  0  0
 44 41  1  0  0  0  0
 44 42  1  0  0  0  0
 44 43  1  0  0  0  0
M  END
>  <MODEL>
3

>  <REMARK>
 VINA RESULT:      -7.0      2.826      8.647
  Name = 
  4 active torsions:
  status: ('A' for Active; 'I' for Inactive)
    1  A    between atoms: C_8  and  C_18
    2  A    between atoms: C_8  and  N_31
    3  A    between atoms: C_18  and  C_33
    4  A    between atoms: N_31  and  C_44
                            x       y       z     vdW  Elec       q    Type
                         _______ _______ _______ _____ _____    ______ ____

>  <TORSDO>
F 4

$$$$
=
 OpenBabel11062416143D

 44 50  0  0  1  0  0  0  0  0999 V2000
  187.2140  175.8380  136.2620 O   0  0  0  0  0  0  0  0  0  0  0  0
  184.4900  174.1720  135.3350 C   0  0  1  0  0  3  0  0  0  0  0  0
  187.8610  174.7000  135.6650 C   0  0  2  0  0  3  0  0  0  0  0  0
  186.5530  172.4480  135.8560 C   0  0  0  0  0  1  0  0  0  0  0  0
  181.6500  176.8780  139.6870 C   0  0  0  0  0  2  0  0  0  0  0  0
  188.3870  178.4150  139.7810 C   0  0  0  0  0  3  0  0  0  0  0  0
  184.9750  179.8670  143.1680 O   0  0  0  0  0  0  0  0  0  0  0  0
  181.7190  178.4040  139.6300 C   0  0  2  0  0  0  0  0  0  0  0  0
  188.9730  176.0680  137.9070 C   0  0  0  0  0  0  0  0  0  0  0  0
  186.9720  177.4900  137.9150 C   0  0  0  0  0  3  0  0  0  0  0  0
  189.8390  176.6760  138.7660 C   0  0  0  0  0  0  0  0  0  0  0  0
  186.0420  179.2130  141.2130 N   0  0  0  0  0  2  0  0  0  0  0  0
  182.5190  178.4130  142.0510 C   0  0  2  0  0  3  0  0  0  0  0  0
  184.8550  178.5480  139.3240 O   0  0  0  0  0  0  0  0  0  0  0  0
  183.0050  175.8820  135.0950 C   0  0  0  0  0  2  0  0  0  0  0  0
  182.1100  179.1280  143.3290 C   0  0  0  0  0  1  0  0  0  0  0  0
  182.7990  176.2590  138.9100 C   0  0  0  0  0  2  0  0  0  0  0  0
  187.7170  176.5320  137.3630 C   0  0  0  0  0  0  0  0  0  0  0  0
  186.8090  173.7440  135.0660 C   0  0  1  0  0  3  0  0  0  0  0  0
  183.5150  176.0590  136.5150 C   0  0  1  0  0  3  0  0  0  0  0  0
  184.9870  179.0960  142.1740 C   0  0  0  0  0  0  0  0  0  0  0  0
  189.7410  178.0870  139.2250 C   0  0  0  0  0  2  0  0  0  0  0  0
  189.5440  174.9430  137.4880 N   0  0  0  0  0  0  0  0  0  0  0  0
  185.0610  174.6230  137.6120 O   0  0  0  0  0  0  0  0  0  0  0  0
  182.3550  175.9280  137.4930 C   0  0  0  0  0  2  0  0  0  0  0  0
  190.9370  175.8940  138.8600 N   0  0  0  0  0  0  0  0  0  0  0  0
  188.9110  173.9930  136.5710 C   0  0  2  0  0  3  0  0  0  0  0  0
  184.4420  174.9300  136.6040 C   0  0  0  0  0  0  0  0  0  0  0  0
  183.3740  174.6060  134.5940 O   0  0  0  0  0  0  0  0  0  0  0  0
  185.6650  174.4500  134.5940 O   0  0  0  0  0  0  0  0  0  0  0  0
  190.7180  174.8300  138.0920 N   0  0  0  0  0  0  0  0  0  0  0  0
  183.9860  177.9730  142.0860 C   0  0  0  0  0  2  0  0  0  0  0  0
  182.1790  179.2460  140.8160 C   0  0  2  0  0  3  0  0  0  0  0  0
  180.6940  179.0920  140.4960 C   0  0  0  0  0  2  0  0  0  0  0  0
  185.9740  178.6620  139.8920 C   0  0  0  0  0  0  0  0  0  0  0  0
  187.1930  178.2160  139.1920 C   0  0  0  0  0  0  0  0  0  0  0  0
  181.8310  179.0120  138.3790 O   0  0  0  0  0  1  0  0  0  0  0  0
  189.9560  173.3090  135.6990 C   0  0  0  0  0  2  0  0  0  0  0  0
  191.1530  174.2210  135.4990 C   0  0  2  0  0  3  0  0  0  0  0  0
  190.8320  175.2350  134.5940 O   0  0  0  0  0  1  0  0  0  0  0  0
  192.2670  173.4440  134.9830 N   0  0  0  0  0  2  0  0  0  0  0  0
  194.1040  172.0620  135.7350 C   0  0  0  0  0  2  0  0  0  0  0  0
  193.9230  173.1890  136.7270 C   0  0  0  0  0  2  0  0  0  0  0  0
  192.7130  172.5710  136.0540 C   0  0  0  0  0  3  0  0  0  0  0  0
  1 18  1  0  0  0  0
  2 30  1  6  0  0  0
  2 28  1  0  0  0  0
  3  1  1  1  0  0  0
  3 27  1  0  0  0  0
  8 37  1  6  0  0  0
  8  5  1  0  0  0  0
  8 34  1  0  0  0  0
  8 33  1  0  0  0  0
  9 11  2  0  0  0  0
 10 36  1  0  0  0  0
 11 26  1  0  0  0  0
 11 22  1  0  0  0  0
 12 21  1  0  0  0  0
 13 32  1  0  0  0  0
 13 16  1  1  0  0  0
 14 35  2  0  0  0  0
 17  5  1  0  0  0  0
 18  9  1  0  0  0  0
 18 10  2  0  0  0  0
 19  3  1  0  0  0  0
 19  4  1  1  0  0  0
 20 15  1  6  0  0  0
 20 28  1  0  0  0  0
 20 25  1  0  0  0  0
 21  7  2  0  0  0  0
 22  6  1  0  0  0  0
 23  9  1  0  0  0  0
 23 31  1  0  0  0  0
 25 17  1  0  0  0  0
 27 38  1  6  0  0  0
 27 23  1  0  0  0  0
 28 24  2  0  0  0  0
 29 15  1  0  0  0  0
 29  2  1  0  0  0  0
 30 19  1  0  0  0  0
 31 26  2  0  0  0  0
 32 21  1  0  0  0  0
 33 34  1  1  0  0  0
 33 13  1  0  0  0  0
 35 12  1  0  0  0  0
 36  6  2  0  0  0  0
 36 35  1  0  0  0  0
 39 40  1  6  0  0  0
 39 38  1  0  0  0  0
 41 39  1  0  0  0  0
 41 44  1  0  0  0  0
 42 44  1  0  0  0  0
 42 43  1  0  0  0  0
 44 43  1  0  0  0  0
M  END
>  <MODEL>
4

>  <REMARK>
 VINA RESULT:      -6.7      3.441      6.175
  Name = 
  4 active torsions:
  status: ('A' for Active; 'I' for Inactive)
    1  A    between atoms: C_8  and  C_18
    2  A    between atoms: C_8  and  N_31
    3  A    between atoms: C_18  and  C_33
    4  A    between atoms: N_31  and  C_44
                            x       y       z     vdW  Elec       q    Type
                         _______ _______ _______ _____ _____    ______ ____

>  <TORSDO>
F 4

$$$$
=
 OpenBabel11062416143D

 44 50  0  0  1  0  0  0  0  0999 V2000
  187.2960  175.6110  137.7000 O   0  0  0  0  0  0  0  0  0  0  0  0
  185.9440  178.6240  138.0840 C   0  0  1  0  0  3  0  0  0  0  0  0
  188.4750  176.3990  137.4610 C   0  0  2  0  0  3  0  0  0  0  0  0
  188.0550  178.7210  136.3430 C   0  0  0  0  0  1  0  0  0  0  0  0
  180.8240  176.2640  136.4860 C   0  0  0  0  0  2  0  0  0  0  0  0
  185.9550  171.6630  135.9650 C   0  0  0  0  0  3  0  0  0  0  0  0
  181.1780  170.9330  134.5980 O   0  0  0  0  0  0  0  0  0  0  0  0
  180.3890  175.0710  137.3380 C   0  0  2  0  0  0  0  0  0  0  0  0
  188.0220  173.9120  136.1400 C   0  0  0  0  0  0  0  0  0  0  0  0
  185.8460  173.8130  137.2720 C   0  0  0  0  0  3  0  0  0  0  0  0
  188.1910  172.6740  135.5950 C   0  0  0  0  0  0  0  0  0  0  0  0
  183.1110  171.6640  135.6550 N   0  0  0  0  0  2  0  0  0  0  0  0
  180.0590  173.7220  135.2010 C   0  0  2  0  0  3  0  0  0  0  0  0
  183.1160  173.5070  137.0770 O   0  0  0  0  0  0  0  0  0  0  0  0
  184.2090  178.1400  139.4770 C   0  0  0  0  0  2  0  0  0  0  0  0
  178.9420  172.8770  134.6080 C   0  0  0  0  0  1  0  0  0  0  0  0
  182.3270  176.4690  136.5780 C   0  0  0  0  0  2  0  0  0  0  0  0
  187.0290  174.3950  137.0720 C   0  0  0  0  0  0  0  0  0  0  0  0
  188.1590  177.8980  137.6390 C   0  0  1  0  0  3  0  0  0  0  0  0
  183.9920  177.1950  138.3070 C   0  0  1  0  0  3  0  0  0  0  0  0
  181.8610  171.9100  135.0010 C   0  0  0  0  0  0  0  0  0  0  0  0
  187.4400  171.4540  135.9920 C   0  0  0  0  0  2  0  0  0  0  0  0
  189.0590  174.6590  135.7730 N   0  0  0  0  0  0  0  0  0  0  0  0
  185.3300  177.1040  136.3440 O   0  0  0  0  0  0  0  0  0  0  0  0
  182.6510  177.4980  137.6500 C   0  0  0  0  0  2  0  0  0  0  0  0
  189.3450  172.6920  134.8920 N   0  0  0  0  0  0  0  0  0  0  0  0
  189.2270  176.0670  136.1380 C   0  0  2  0  0  3  0  0  0  0  0  0
  185.1210  177.5690  137.4540 C   0  0  0  0  0  0  0  0  0  0  0  0
  185.1600  179.1370  139.1370 O   0  0  0  0  0  0  0  0  0  0  0  0
  187.1490  178.1080  138.6220 O   0  0  0  0  0  0  0  0  0  0  0  0
  189.8390  173.9230  134.9950 N   0  0  0  0  0  0  0  0  0  0  0  0
  181.4330  173.3130  134.6600 C   0  0  0  0  0  2  0  0  0  0  0  0
  180.0010  173.7280  136.7270 C   0  0  2  0  0  3  0  0  0  0  0  0
  178.9310  174.7160  137.1870 C   0  0  0  0  0  2  0  0  0  0  0  0
  183.7870  172.6370  136.4600 C   0  0  0  0  0  0  0  0  0  0  0  0
  185.2580  172.6440  136.5680 C   0  0  0  0  0  0  0  0  0  0  0  0
  180.7950  175.0320  138.6730 O   0  0  0  0  0  1  0  0  0  0  0  0
  190.7020  176.4110  136.2920 C   0  0  0  0  0  2  0  0  0  0  0  0
  191.2460  175.8280  137.5850 C   0  0  2  0  0  3  0  0  0  0  0  0
  191.7910  176.8450  138.3730 O   0  0  0  0  0  1  0  0  0  0  0  0
  192.2750  174.8500  137.2750 N   0  0  0  0  0  2  0  0  0  0  0  0
  194.5150  174.2750  137.9850 C   0  0  0  0  0  2  0  0  0  0  0  0
  194.6130  175.0640  136.6990 C   0  0  0  0  0  2  0  0  0  0  0  0
  193.5420  175.4060  137.7150 C   0  0  0  0  0  3  0  0  0  0  0  0
  2 28  1  1  0  0  0
  2 30  1  0  0  0  0
  2 29  1  0  0  0  0
  3 19  1  0  0  0  0
  3  1  1  6  0  0  0
  5 17  1  0  0  0  0
  5  8  1  0  0  0  0
  6 22  1  0  0  0  0
  6 36  2  0  0  0  0
  7 21  2  0  0  0  0
  8 37  1  1  0  0  0
  9 18  1  0  0  0  0
 11 22  1  0  0  0  0
 11  9  2  0  0  0  0
 12 35  1  0  0  0  0
 13 16  1  6  0  0  0
 13 33  1  0  0  0  0
 17 25  1  0  0  0  0
 18 10  2  0  0  0  0
 18  1  1  0  0  0  0
 19  4  1  6  0  0  0
 19 30  1  0  0  0  0
 20 25  1  6  0  0  0
 20 15  1  0  0  0  0
 21 12  1  0  0  0  0
 23 27  1  0  0  0  0
 23  9  1  0  0  0  0
 24 28  2  0  0  0  0
 26 31  2  0  0  0  0
 26 11  1  0  0  0  0
 27 38  1  1  0  0  0
 27  3  1  0  0  0  0
 28 20  1  0  0  0  0
 29 15  1  0  0  0  0
 31 23  1  0  0  0  0
 32 21  1  0  0  0  0
 32 13  1  0  0  0  0
 33 34  1  6  0  0  0
 33  8  1  0  0  0  0
 34  8  1  0  0  0  0
 35 36  1  0  0  0  0
 35 14  2  0  0  0  0
 36 10  1  0  0  0  0
 38 39  1  0  0  0  0
 39 40  1  1  0  0  0
 41 39  1  0  0  0  0
 41 44  1  0  0  0  0
 43 44  1  0  0  0  0
 43 42  1  0  0  0  0
 44 42  1  0  0  0  0
M  END
>  <MODEL>
5

>  <REMARK>
 VINA RESULT:      -6.2      4.144      6.062
  Name = 
  4 active torsions:
  status: ('A' for Active; 'I' for Inactive)
    1  A    between atoms: C_8  and  C_18
    2  A    between atoms: C_8  and  N_31
    3  A    between atoms: C_18  and  C_33
    4  A    between atoms: N_31  and  C_44
                            x       y       z     vdW  Elec       q    Type
                         _______ _______ _______ _____ _____    ______ ____

>  <TORSDO>
F 4

$$$$
