=
 OpenBabel11062416303D

 46 48  0  0  1  0  0  0  0  0999 V2000
  189.2670  176.2350  143.7410 C   0  0  1  0  0  3  0  0  0  0  0  0
  189.0910  177.6500  143.2060 C   0  0  1  0  0  0  0  0  0  0  0  0
  187.7360  177.1090  142.7620 C   0  0  1  0  0  3  0  0  0  0  0  0
  187.9860  175.8390  143.3100 O   0  0  0  0  0  0  0  0  0  0  0  0
  186.5140  177.7320  143.4310 C   0  0  0  0  0  2  0  0  0  0  0  0
  185.4330  177.8440  142.4640 N   0  0  0  0  0  2  0  0  0  0  0  0
  186.3890  179.6510  141.3340 O   0  0  0  0  0  0  0  0  0  0  0  0
  185.4330  178.8370  141.4400 C   0  0  0  0  0  0  0  0  0  0  0  0
  184.3010  178.8980  140.4720 C   0  0  0  0  0  2  0  0  0  0  0  0
  183.0410  178.2860  141.0680 C   0  0  0  0  0  2  0  0  0  0  0  0
  181.0160  179.3910  140.1380 C   0  0  0  0  0  2  0  0  0  0  0  0
  181.9220  178.1970  140.0380 C   0  0  2  0  0  3  0  0  0  0  0  0
  181.1360  177.0800  140.3030 O   0  0  0  0  0  0  0  0  0  0  0  0
  179.8220  177.5300  140.1130 C   0  0  1  0  0  3  0  0  0  0  0  0
  178.9310  176.8120  141.0040 N   0  0  0  0  0  1  0  0  0  0  0  0
  179.7310  178.9060  140.3680 O   0  0  0  0  0  0  0  0  0  0  0  0
  189.0790  178.6590  144.3690 C   0  0  0  0  0  2  0  0  0  0  0  0
  189.4140  178.0110  145.7070 C   0  0  0  0  0  2  0  0  0  0  0  0
  188.1710  177.9130  146.5710 C   0  0  0  0  0  2  0  0  0  0  0  0
  188.5220  177.3700  147.9430 C   0  0  0  0  0  2  0  0  0  0  0  0
  189.2350  178.3330  148.6540 O   0  0  0  0  0  1  0  0  0  0  0  0
  190.3320  175.3900  143.0380 C   0  0  0  0  0  2  0  0  0  0  0  0
  191.7290  175.8040  143.4700 C   0  0  0  0  0  2  0  0  0  0  0  0
  191.8640  175.7290  144.9290 C   0  0  0  0  0  0  0  0  0  0  0  0
  191.9680  175.6710  146.0790 N   0  0  0  0  0  0  0  0  0  0  0  0
  189.9570  178.0390  141.9880 C   0  0  0  0  0  2  0  0  0  0  0  0
  189.4080  177.5330  140.6560 C   0  0  0  0  0  2  0  0  0  0  0  0
  189.9410  177.7290  138.1860 C   0  0  1  0  0  3  0  0  0  0  0  0
  190.8460  175.5920  138.3730 C   0  0  0  0  0  2  0  0  0  0  0  0
  188.4270  175.7140  137.8820 C   0  0  0  0  0  1  0  0  0  0  0  0
  190.0830  176.3400  136.1270 C   0  0  0  0  0  1  0  0  0  0  0  0
  190.4880  177.5000  139.5810 C   0  0  2  0  0  3  0  0  0  0  0  0
  191.1190  176.2390  139.6010 O   0  0  0  0  0  0  0  0  0  0  0  0
  189.7830  176.3500  137.6110 C   0  0  0  0  0  0  0  0  0  0  0  0
  188.8180  178.7320  138.0310 C   0  0  0  0  0  0  0  0  0  0  0  0
  189.0510  179.8950  137.6090 O   0  0  0  0  0  0  0  0  0  0  0  0
  187.5000  178.3620  138.3010 O   0  0  0  0  0  0  0  0  0  0  0  0
  186.4440  178.8390  137.5510 N   0  0  0  0  0  2  0  0  0  0  0  0
  186.4910  178.1840  136.2510 C   0  0  0  0  0  2  0  0  0  0  0  0
  185.5300  177.0090  136.2200 C   0  0  0  0  0  2  0  0  0  0  0  0
  184.4210  177.2800  137.0400 O   0  0  0  0  0  0  0  0  0  0  0  0
  183.3470  176.4560  136.6400 C   0  0  2  0  0  3  0  0  0  0  0  0
  181.7620  177.2950  136.6110 Cl  0  0  0  0  0  0  0  0  0  0  0  0
  184.0820  174.0790  136.8600 O   0  0  0  0  0  0  0  0  0  0  0  0
  182.6560  174.9850  138.4080 O   0  0  0  0  0  1  0  0  0  0  0  0
  183.3210  175.1330  137.3480 C   0  0  0  0  0  0  0  0  0  0  0  0
  1 22  1  6  0  0  0
  2 26  1  6  0  0  0
  2  1  1  0  0  0  0
  2 17  1  0  0  0  0
  3  2  1  0  0  0  0
  3  4  1  0  0  0  0
  3  5  1  1  0  0  0
  4  1  1  0  0  0  0
  6  5  1  0  0  0  0
  7  8  2  0  0  0  0
  8  6  1  0  0  0  0
  9 10  1  0  0  0  0
  9  8  1  0  0  0  0
 11 16  1  0  0  0  0
 12 11  1  0  0  0  0
 12 13  1  0  0  0  0
 12 10  1  1  0  0  0
 14 13  1  0  0  0  0
 14 16  1  0  0  0  0
 14 15  1  1  0  0  0
 17 18  1  0  0  0  0
 18 19  1  0  0  0  0
 19 20  1  0  0  0  0
 20 21  1  0  0  0  0
 22 23  1  0  0  0  0
 23 24  1  0  0  0  0
 24 25  3  0  0  0  0
 27 26  1  0  0  0  0
 28 35  1  1  0  0  0
 28 32  1  0  0  0  0
 29 33  1  0  0  0  0
 31 34  1  0  0  0  0
 32 33  1  0  0  0  0
 32 27  1  1  0  0  0
 34 30  1  0  0  0  0
 34 28  1  0  0  0  0
 34 29  1  0  0  0  0
 35 37  1  0  0  0  0
 36 35  2  0  0  0  0
 38 37  1  0  0  0  0
 39 38  1  0  0  0  0
 40 39  1  0  0  0  0
 40 41  1  0  0  0  0
 42 43  1  1  0  0  0
 42 41  1  0  0  0  0
 42 46  1  0  0  0  0
 44 46  2  0  0  0  0
 46 45  1  0  0  0  0
M  END
>  <MODEL>
1

>  <REMARK>
 VINA RESULT:      -5.7      0.000      0.000
  Name = 
  23 active torsions:
  status: ('A' for Active; 'I' for Inactive)
    1  A    between atoms: C_2  and  C_9
    2  A    between atoms: C_2  and  C_18
    3  A    between atoms: N_3  and  C_25
    4  A    between atoms: C_4  and  C_13
    5  A    between atoms: C_4  and  C_24
    6  A    between atoms: C_6  and  C_17
    7  A    between atoms: C_6  and  C_27
    8  A    between atoms: C_7  and  C_21
    9  A    between atoms: C_7  and  C_39
   10  A    between atoms: C_8  and  C_31
   11  A    between atoms: C_14  and  N_16
   12  A    between atoms: C_14  and  C_43
   13  A    between atoms: C_15  and  C_39
   14  A    between atoms: N_16  and  O_45
   15  A    between atoms: C_17  and  C_29
   16  A    between atoms: C_18  and  C_23
   17  A    between atoms: C_21  and  C_27
   18  A    between atoms: C_24  and  C_36
   19  A    between atoms: C_25  and  C_30
   20  A    between atoms: C_26  and  C_33
   21  A    between atoms: C_26  and  O_42
   22  A    between atoms: C_31  and  O_45
   23  A    between atoms: O_42  and  C_43
                            x       y       z     vdW  Elec       q    Type
                         _______ _______ _______ _____ _____    ______ ____

>  <TORSDO>
F 23

$$$$
=
 OpenBabel11062416303D

 46 48  0  0  1  0  0  0  0  0999 V2000
  189.1330  176.1960  143.6200 C   0  0  1  0  0  3  0  0  0  0  0  0
  188.7090  177.6590  143.5790 C   0  0  1  0  0  0  0  0  0  0  0  0
  187.3400  177.0560  143.2790 C   0  0  1  0  0  3  0  0  0  0  0  0
  187.8260  175.7380  143.3600 O   0  0  0  0  0  0  0  0  0  0  0  0
  186.2630  177.2780  144.3370 C   0  0  0  0  0  2  0  0  0  0  0  0
  185.1990  178.1000  143.7830 N   0  0  0  0  0  2  0  0  0  0  0  0
  184.4450  178.8420  145.8660 O   0  0  0  0  0  0  0  0  0  0  0  0
  184.3180  178.8550  144.6130 C   0  0  0  0  0  0  0  0  0  0  0  0
  183.2490  179.6870  143.9890 C   0  0  0  0  0  2  0  0  0  0  0  0
  182.3100  178.8290  143.1520 C   0  0  0  0  0  2  0  0  0  0  0  0
  179.9430  178.2730  142.6290 C   0  0  0  0  0  2  0  0  0  0  0  0
  180.8500  179.1460  143.4490 C   0  0  2  0  0  3  0  0  0  0  0  0
  180.5760  180.4590  143.0800 O   0  0  0  0  0  0  0  0  0  0  0  0
  179.3210  180.3880  142.4590 C   0  0  1  0  0  3  0  0  0  0  0  0
  179.2330  181.4030  141.4270 N   0  0  0  0  0  1  0  0  0  0  0  0
  179.1250  179.1220  141.8880 O   0  0  0  0  0  0  0  0  0  0  0  0
  188.8840  178.3010  144.9670 C   0  0  0  0  0  2  0  0  0  0  0  0
  189.3760  177.3070  146.0120 C   0  0  0  0  0  2  0  0  0  0  0  0
  189.3150  177.9240  147.3960 C   0  0  0  0  0  2  0  0  0  0  0  0
  188.1270  177.3810  148.1670 C   0  0  0  0  0  2  0  0  0  0  0  0
  186.9900  178.1220  147.8490 O   0  0  0  0  0  1  0  0  0  0  0  0
  190.0700  175.7480  142.4960 C   0  0  0  0  0  2  0  0  0  0  0  0
  191.5140  176.0940  142.8200 C   0  0  0  0  0  2  0  0  0  0  0  0
  191.8880  175.5750  144.1390 C   0  0  0  0  0  0  0  0  0  0  0  0
  192.1840  175.1640  145.1790 N   0  0  0  0  0  0  0  0  0  0  0  0
  189.2200  178.4920  142.3840 C   0  0  0  0  0  2  0  0  0  0  0  0
  188.5990  178.0930  141.0460 C   0  0  0  0  0  2  0  0  0  0  0  0
  188.7400  178.4160  138.5360 C   0  0  1  0  0  3  0  0  0  0  0  0
  190.6530  177.0930  138.6320 C   0  0  0  0  0  2  0  0  0  0  0  0
  188.5070  175.8930  138.3780 C   0  0  0  0  0  1  0  0  0  0  0  0
  189.4260  177.2100  136.4720 C   0  0  0  0  0  1  0  0  0  0  0  0
  189.4380  178.5820  139.8710 C   0  0  2  0  0  3  0  0  0  0  0  0
  190.6420  177.8480  139.8290 O   0  0  0  0  0  0  0  0  0  0  0  0
  189.2900  177.1350  137.9780 C   0  0  0  0  0  0  0  0  0  0  0  0
  187.2480  178.6650  138.4920 C   0  0  0  0  0  0  0  0  0  0  0  0
  186.6650  178.8850  137.3980 O   0  0  0  0  0  0  0  0  0  0  0  0
  186.4870  178.5990  139.6610 O   0  0  0  0  0  0  0  0  0  0  0  0
  185.2610  179.2240  139.7650 N   0  0  0  0  0  2  0  0  0  0  0  0
  184.2310  178.2290  139.4990 C   0  0  0  0  0  2  0  0  0  0  0  0
  183.2620  178.7460  138.4500 C   0  0  0  0  0  2  0  0  0  0  0  0
  182.5230  177.6770  137.9170 O   0  0  0  0  0  0  0  0  0  0  0  0
  182.4550  176.6460  138.8790 C   0  0  2  0  0  3  0  0  0  0  0  0
  183.3700  175.1710  138.4260 Cl  0  0  0  0  0  0  0  0  0  0  0  0
  180.7460  175.1260  139.8840 O   0  0  0  0  0  1  0  0  0  0  0  0
  180.1810  177.2760  139.3270 O   0  0  0  0  0  0  0  0  0  0  0  0
  181.0590  176.3720  139.3550 C   0  0  0  0  0  0  0  0  0  0  0  0
  1 22  1  6  0  0  0
  2 26  1  6  0  0  0
  2  1  1  0  0  0  0
  2 17  1  0  0  0  0
  3  4  1  0  0  0  0
  3  2  1  0  0  0  0
  3  5  1  1  0  0  0
  4  1  1  0  0  0  0
  6  5  1  0  0  0  0
  6  8  1  0  0  0  0
  8  7  2  0  0  0  0
  9  8  1  0  0  0  0
 10  9  1  0  0  0  0
 11 12  1  0  0  0  0
 12 10  1  6  0  0  0
 13 12  1  0  0  0  0
 14 15  1  6  0  0  0
 14 13  1  0  0  0  0
 16 14  1  0  0  0  0
 16 11  1  0  0  0  0
 17 18  1  0  0  0  0
 18 19  1  0  0  0  0
 19 20  1  0  0  0  0
 21 20  1  0  0  0  0
 22 23  1  0  0  0  0
 23 24  1  0  0  0  0
 24 25  3  0  0  0  0
 27 26  1  0  0  0  0
 28 35  1  1  0  0  0
 28 32  1  0  0  0  0
 29 33  1  0  0  0  0
 31 34  1  0  0  0  0
 32 27  1  1  0  0  0
 33 32  1  0  0  0  0
 34 30  1  0  0  0  0
 34 28  1  0  0  0  0
 34 29  1  0  0  0  0
 35 37  1  0  0  0  0
 36 35  2  0  0  0  0
 37 38  1  0  0  0  0
 39 38  1  0  0  0  0
 40 39  1  0  0  0  0
 41 40  1  0  0  0  0
 41 42  1  0  0  0  0
 42 43  1  6  0  0  0
 42 46  1  0  0  0  0
 45 46  2  0  0  0  0
 46 44  1  0  0  0  0
M  END
>  <MODEL>
2

>  <REMARK>
 VINA RESULT:      -5.7      1.997      2.457
  Name = 
  23 active torsions:
  status: ('A' for Active; 'I' for Inactive)
    1  A    between atoms: C_2  and  C_9
    2  A    between atoms: C_2  and  C_18
    3  A    between atoms: N_3  and  C_25
    4  A    between atoms: C_4  and  C_13
    5  A    between atoms: C_4  and  C_24
    6  A    between atoms: C_6  and  C_17
    7  A    between atoms: C_6  and  C_27
    8  A    between atoms: C_7  and  C_21
    9  A    between atoms: C_7  and  C_39
   10  A    between atoms: C_8  and  C_31
   11  A    between atoms: C_14  and  N_16
   12  A    between atoms: C_14  and  C_43
   13  A    between atoms: C_15  and  C_39
   14  A    between atoms: N_16  and  O_45
   15  A    between atoms: C_17  and  C_29
   16  A    between atoms: C_18  and  C_23
   17  A    between atoms: C_21  and  C_27
   18  A    between atoms: C_24  and  C_36
   19  A    between atoms: C_25  and  C_30
   20  A    between atoms: C_26  and  C_33
   21  A    between atoms: C_26  and  O_42
   22  A    between atoms: C_31  and  O_45
   23  A    between atoms: O_42  and  C_43
                            x       y       z     vdW  Elec       q    Type
                         _______ _______ _______ _____ _____    ______ ____

>  <TORSDO>
F 23

$$$$
=
 OpenBabel11062416303D

 46 48  0  0  1  0  0  0  0  0999 V2000
  190.2760  177.9140  144.7680 C   0  0  1  0  0  3  0  0  0  0  0  0
  189.8990  176.8970  143.6990 C   0  0  1  0  0  0  0  0  0  0  0  0
  190.1730  178.0670  142.7600 C   0  0  1  0  0  3  0  0  0  0  0  0
  190.5260  178.9240  143.8180 O   0  0  0  0  0  0  0  0  0  0  0  0
  191.3560  177.9010  141.8100 C   0  0  0  0  0  2  0  0  0  0  0  0
  190.8770  177.4650  140.5070 N   0  0  0  0  0  2  0  0  0  0  0  0
  193.0170  177.0950  139.6450 O   0  0  0  0  0  0  0  0  0  0  0  0
  191.7700  177.0800  139.4630 C   0  0  0  0  0  0  0  0  0  0  0  0
  191.2220  176.6340  138.1510 C   0  0  0  0  0  2  0  0  0  0  0  0
  189.7180  176.4110  138.2360 C   0  0  0  0  0  2  0  0  0  0  0  0
  188.9680  178.6810  137.5530 C   0  0  0  0  0  2  0  0  0  0  0  0
  188.9710  177.2240  137.1870 C   0  0  2  0  0  3  0  0  0  0  0  0
  187.6410  176.8220  137.1480 O   0  0  0  0  0  0  0  0  0  0  0  0
  186.9210  178.0200  137.0400 C   0  0  1  0  0  3  0  0  0  0  0  0
  185.6390  177.8770  137.7040 N   0  0  0  0  0  1  0  0  0  0  0  0
  187.6340  179.0770  137.6240 O   0  0  0  0  0  0  0  0  0  0  0  0
  190.9210  175.7460  143.6770 C   0  0  0  0  0  2  0  0  0  0  0  0
  192.0440  175.9440  144.6870 C   0  0  0  0  0  2  0  0  0  0  0  0
  192.0370  174.8240  145.7090 C   0  0  0  0  0  2  0  0  0  0  0  0
  192.1390  175.3880  147.1140 C   0  0  0  0  0  2  0  0  0  0  0  0
  192.2510  176.7760  147.0490 O   0  0  0  0  0  1  0  0  0  0  0  0
  189.1410  178.3500  145.6970 C   0  0  0  0  0  2  0  0  0  0  0  0
  188.7980  177.2520  146.6910 C   0  0  0  0  0  2  0  0  0  0  0  0
  188.4020  177.8270  147.9810 C   0  0  0  0  0  0  0  0  0  0  0  0
  188.0910  178.2800  148.9990 N   0  0  0  0  0  0  0  0  0  0  0  0
  188.4140  176.4780  143.6400 C   0  0  0  0  0  2  0  0  0  0  0  0
  187.4810  177.5840  143.1490 C   0  0  0  0  0  2  0  0  0  0  0  0
  185.0590  178.2190  142.7590 C   0  0  1  0  0  3  0  0  0  0  0  0
  184.8650  178.2740  145.0790 C   0  0  0  0  0  2  0  0  0  0  0  0
  185.6090  180.3670  143.9950 C   0  0  0  0  0  1  0  0  0  0  0  0
  183.2470  179.6110  143.7430 C   0  0  0  0  0  1  0  0  0  0  0  0
  186.0190  177.2360  143.4000 C   0  0  2  0  0  3  0  0  0  0  0  0
  185.7780  177.2330  144.7890 O   0  0  0  0  0  0  0  0  0  0  0  0
  184.6890  179.1620  143.8680 C   0  0  0  0  0  0  0  0  0  0  0  0
  185.4310  178.7760  141.4020 C   0  0  0  0  0  0  0  0  0  0  0  0
  186.6070  178.6700  140.9660 O   0  0  0  0  0  0  0  0  0  0  0  0
  184.4600  179.3640  140.5910 O   0  0  0  0  0  0  0  0  0  0  0  0
  183.2650  178.7320  140.3150 N   0  0  0  0  0  2  0  0  0  0  0  0
  182.4580  179.6400  139.5100 C   0  0  0  0  0  2  0  0  0  0  0  0
  181.0200  179.1540  139.4530 C   0  0  0  0  0  2  0  0  0  0  0  0
  180.9550  177.9430  138.7440 O   0  0  0  0  0  0  0  0  0  0  0  0
  180.2100  177.0120  139.5000 C   0  0  2  0  0  3  0  0  0  0  0  0
  179.5630  177.6790  141.0350 Cl  0  0  0  0  0  0  0  0  0  0  0  0
  182.2170  175.5480  139.2360 O   0  0  0  0  0  0  0  0  0  0  0  0
  180.3160  174.7210  140.2110 O   0  0  0  0  0  1  0  0  0  0  0  0
  180.9010  175.6890  139.6560 C   0  0  0  0  0  0  0  0  0  0  0  0
  1 22  1  1  0  0  0
  2 26  1  1  0  0  0
  2  1  1  0  0  0  0
  3  5  1  6  0  0  0
  3  2  1  0  0  0  0
  3  4  1  0  0  0  0
  4  1  1  0  0  0  0
  6  5  1  0  0  0  0
  8  7  2  0  0  0  0
  8  6  1  0  0  0  0
  9 10  1  0  0  0  0
  9  8  1  0  0  0  0
 11 16  1  0  0  0  0
 12 11  1  0  0  0  0
 12 10  1  1  0  0  0
 13 12  1  0  0  0  0
 14 13  1  0  0  0  0
 14 16  1  0  0  0  0
 14 15  1  1  0  0  0
 17  2  1  0  0  0  0
 17 18  1  0  0  0  0
 18 19  1  0  0  0  0
 19 20  1  0  0  0  0
 21 20  1  0  0  0  0
 22 23  1  0  0  0  0
 23 24  1  0  0  0  0
 24 25  3  0  0  0  0
 27 26  1  0  0  0  0
 28 35  1  6  0  0  0
 28 32  1  0  0  0  0
 28 34  1  0  0  0  0
 31 34  1  0  0  0  0
 32 27  1  1  0  0  0
 32 33  1  0  0  0  0
 33 29  1  0  0  0  0
 34 30  1  0  0  0  0
 34 29  1  0  0  0  0
 36 35  2  0  0  0  0
 37 35  1  0  0  0  0
 38 37  1  0  0  0  0
 39 38  1  0  0  0  0
 40 39  1  0  0  0  0
 41 40  1  0  0  0  0
 41 42  1  0  0  0  0
 42 46  1  0  0  0  0
 42 43  1  1  0  0  0
 44 46  2  0  0  0  0
 46 45  1  0  0  0  0
M  END
>  <MODEL>
3

>  <REMARK>
 VINA RESULT:      -5.6      2.198      5.851
  Name = 
  23 active torsions:
  status: ('A' for Active; 'I' for Inactive)
    1  A    between atoms: C_2  and  C_9
    2  A    between atoms: C_2  and  C_18
    3  A    between atoms: N_3  and  C_25
    4  A    between atoms: C_4  and  C_13
    5  A    between atoms: C_4  and  C_24
    6  A    between atoms: C_6  and  C_17
    7  A    between atoms: C_6  and  C_27
    8  A    between atoms: C_7  and  C_21
    9  A    between atoms: C_7  and  C_39
   10  A    between atoms: C_8  and  C_31
   11  A    between atoms: C_14  and  N_16
   12  A    between atoms: C_14  and  C_43
   13  A    between atoms: C_15  and  C_39
   14  A    between atoms: N_16  and  O_45
   15  A    between atoms: C_17  and  C_29
   16  A    between atoms: C_18  and  C_23
   17  A    between atoms: C_21  and  C_27
   18  A    between atoms: C_24  and  C_36
   19  A    between atoms: C_25  and  C_30
   20  A    between atoms: C_26  and  C_33
   21  A    between atoms: C_26  and  O_42
   22  A    between atoms: C_31  and  O_45
   23  A    between atoms: O_42  and  C_43
                            x       y       z     vdW  Elec       q    Type
                         _______ _______ _______ _____ _____    ______ ____

>  <TORSDO>
F 23

$$$$
=
 OpenBabel11062416303D

 46 48  0  0  1  0  0  0  0  0999 V2000
  189.6750  175.2230  137.1160 C   0  0  1  0  0  3  0  0  0  0  0  0
  189.9600  176.4340  137.9950 C   0  0  1  0  0  0  0  0  0  0  0  0
  191.2390  175.6640  138.3120 C   0  0  1  0  0  3  0  0  0  0  0  0
  190.8940  174.6030  137.4560 O   0  0  0  0  0  0  0  0  0  0  0  0
  192.5410  176.3070  137.8430 C   0  0  0  0  0  2  0  0  0  0  0  0
  193.4140  175.2870  137.2830 N   0  0  0  0  0  2  0  0  0  0  0  0
  194.6510  176.7970  135.9990 O   0  0  0  0  0  0  0  0  0  0  0  0
  194.4500  175.6050  136.3550 C   0  0  0  0  0  0  0  0  0  0  0  0
  195.3200  174.5190  135.8200 C   0  0  0  0  0  2  0  0  0  0  0  0
  196.7910  174.8320  136.0590 C   0  0  0  0  0  2  0  0  0  0  0  0
  196.3940  173.1190  137.8180 C   0  0  0  0  0  2  0  0  0  0  0  0
  197.2770  174.2520  137.3810 C   0  0  2  0  0  3  0  0  0  0  0  0
  197.1950  175.2250  138.3720 O   0  0  0  0  0  0  0  0  0  0  0  0
  196.6910  174.5390  139.4870 C   0  0  1  0  0  3  0  0  0  0  0  0
  195.8860  175.4410  140.2870 N   0  0  0  0  0  1  0  0  0  0  0  0
  195.9090  173.4480  139.0810 O   0  0  0  0  0  0  0  0  0  0  0  0
  190.1180  177.6950  137.1260 C   0  0  0  0  0  2  0  0  0  0  0  0
  189.0710  177.7760  136.0220 C   0  0  0  0  0  2  0  0  0  0  0  0
  187.8730  178.5810  136.4900 C   0  0  0  0  0  2  0  0  0  0  0  0
  186.6030  177.7600  136.3650 C   0  0  0  0  0  2  0  0  0  0  0  0
  186.0970  177.4930  137.6360 O   0  0  0  0  0  1  0  0  0  0  0  0
  188.5060  174.3420  137.5640 C   0  0  0  0  0  2  0  0  0  0  0  0
  187.4600  174.2270  136.4680 C   0  0  0  0  0  2  0  0  0  0  0  0
  186.1260  174.0290  137.0440 C   0  0  0  0  0  0  0  0  0  0  0  0
  185.0740  173.8720  137.4980 N   0  0  0  0  0  0  0  0  0  0  0  0
  189.0840  176.5920  139.2570 C   0  0  0  0  0  2  0  0  0  0  0  0
  189.8730  176.9660  140.5110 C   0  0  0  0  0  2  0  0  0  0  0  0
  188.6190  177.2330  142.6970 C   0  0  1  0  0  3  0  0  0  0  0  0
  190.4970  176.2990  143.7060 C   0  0  0  0  0  2  0  0  0  0  0  0
  190.5270  178.7520  143.4000 C   0  0  0  0  0  1  0  0  0  0  0  0
  189.0170  177.7320  145.1010 C   0  0  0  0  0  1  0  0  0  0  0  0
  189.3150  176.2760  141.7500 C   0  0  2  0  0  3  0  0  0  0  0  0
  190.3730  175.6610  142.4500 O   0  0  0  0  0  0  0  0  0  0  0  0
  189.6530  177.5530  143.7380 C   0  0  0  0  0  0  0  0  0  0  0  0
  187.8070  178.3550  142.0850 C   0  0  0  0  0  0  0  0  0  0  0  0
  188.3500  179.2000  141.3250 O   0  0  0  0  0  0  0  0  0  0  0  0
  186.4320  178.4340  142.3090 O   0  0  0  0  0  0  0  0  0  0  0  0
  185.6530  179.4030  141.7090 N   0  0  0  0  0  2  0  0  0  0  0  0
  184.4540  178.7530  141.1950 C   0  0  0  0  0  2  0  0  0  0  0  0
  184.1120  179.2960  139.8190 C   0  0  0  0  0  2  0  0  0  0  0  0
  182.8190  178.8880  139.4540 O   0  0  0  0  0  0  0  0  0  0  0  0
  182.4220  177.8260  140.2960 C   0  0  2  0  0  3  0  0  0  0  0  0
  182.6960  176.2000  139.5890 Cl  0  0  0  0  0  0  0  0  0  0  0  0
  180.9130  178.5360  142.1560 O   0  0  0  0  0  1  0  0  0  0  0  0
  180.0240  177.7480  140.1970 O   0  0  0  0  0  0  0  0  0  0  0  0
  181.0510  178.0130  140.8770 C   0  0  0  0  0  0  0  0  0  0  0  0
  1  4  1  0  0  0  0
  1 22  1  1  0  0  0
  1  2  1  0  0  0  0
  2 17  1  6  0  0  0
  2  3  1  0  0  0  0
  2 26  1  0  0  0  0
  3  5  1  6  0  0  0
  4  3  1  0  0  0  0
  6  5  1  0  0  0  0
  7  8  2  0  0  0  0
  8  6  1  0  0  0  0
  9 10  1  0  0  0  0
  9  8  1  0  0  0  0
 11 16  1  0  0  0  0
 12 10  1  6  0  0  0
 12 11  1  0  0  0  0
 12 13  1  0  0  0  0
 13 14  1  0  0  0  0
 14 15  1  6  0  0  0
 16 14  1  0  0  0  0
 18 19  1  0  0  0  0
 18 17  1  0  0  0  0
 20 19  1  0  0  0  0
 20 21  1  0  0  0  0
 23 24  1  0  0  0  0
 23 22  1  0  0  0  0
 24 25  3  0  0  0  0
 26 27  1  0  0  0  0
 28 35  1  6  0  0  0
 28 34  1  0  0  0  0
 29 34  1  0  0  0  0
 30 34  1  0  0  0  0
 32 27  1  6  0  0  0
 32 33  1  0  0  0  0
 32 28  1  0  0  0  0
 33 29  1  0  0  0  0
 34 31  1  0  0  0  0
 35 37  1  0  0  0  0
 36 35  2  0  0  0  0
 38 37  1  0  0  0  0
 39 38  1  0  0  0  0
 40 39  1  0  0  0  0
 41 40  1  0  0  0  0
 41 42  1  0  0  0  0
 42 43  1  6  0  0  0
 42 46  1  0  0  0  0
 45 46  2  0  0  0  0
 46 44  1  0  0  0  0
M  END
>  <MODEL>
4

>  <REMARK>
 VINA RESULT:      -5.5      3.403      9.279
  Name = 
  23 active torsions:
  status: ('A' for Active; 'I' for Inactive)
    1  A    between atoms: C_2  and  C_9
    2  A    between atoms: C_2  and  C_18
    3  A    between atoms: N_3  and  C_25
    4  A    between atoms: C_4  and  C_13
    5  A    between atoms: C_4  and  C_24
    6  A    between atoms: C_6  and  C_17
    7  A    between atoms: C_6  and  C_27
    8  A    between atoms: C_7  and  C_21
    9  A    between atoms: C_7  and  C_39
   10  A    between atoms: C_8  and  C_31
   11  A    between atoms: C_14  and  N_16
   12  A    between atoms: C_14  and  C_43
   13  A    between atoms: C_15  and  C_39
   14  A    between atoms: N_16  and  O_45
   15  A    between atoms: C_17  and  C_29
   16  A    between atoms: C_18  and  C_23
   17  A    between atoms: C_21  and  C_27
   18  A    between atoms: C_24  and  C_36
   19  A    between atoms: C_25  and  C_30
   20  A    between atoms: C_26  and  C_33
   21  A    between atoms: C_26  and  O_42
   22  A    between atoms: C_31  and  O_45
   23  A    between atoms: O_42  and  C_43
                            x       y       z     vdW  Elec       q    Type
                         _______ _______ _______ _____ _____    ______ ____

>  <TORSDO>
F 23

$$$$
=
 OpenBabel11062416303D

 46 48  0  0  1  0  0  0  0  0999 V2000
  189.2290  176.1670  143.7620 C   0  0  1  0  0  3  0  0  0  0  0  0
  188.8170  177.6310  143.6730 C   0  0  1  0  0  0  0  0  0  0  0  0
  187.4490  177.0290  143.3650 C   0  0  1  0  0  3  0  0  0  0  0  0
  187.9240  175.7110  143.4910 O   0  0  0  0  0  0  0  0  0  0  0  0
  186.3550  177.2880  144.3960 C   0  0  0  0  0  2  0  0  0  0  0  0
  185.2810  178.0550  143.7860 N   0  0  0  0  0  2  0  0  0  0  0  0
  184.4460  178.8430  145.8200 O   0  0  0  0  0  0  0  0  0  0  0  0
  184.3530  178.8090  144.5640 C   0  0  0  0  0  0  0  0  0  0  0  0
  183.2770  179.5840  143.8830 C   0  0  0  0  0  2  0  0  0  0  0  0
  181.9500  178.8400  143.9420 C   0  0  0  0  0  2  0  0  0  0  0  0
  179.8890  178.2280  142.6940 C   0  0  0  0  0  2  0  0  0  0  0  0
  181.0940  179.1240  142.7150 C   0  0  2  0  0  3  0  0  0  0  0  0
  181.8220  178.8360  141.5650 O   0  0  0  0  0  0  0  0  0  0  0  0
  180.9050  178.1830  140.7310 C   0  0  1  0  0  3  0  0  0  0  0  0
  181.6030  177.2180  139.9030 N   0  0  0  0  0  1  0  0  0  0  0  0
  179.9270  177.5260  141.4920 O   0  0  0  0  0  0  0  0  0  0  0  0
  188.9720  178.3100  145.0460 C   0  0  0  0  0  2  0  0  0  0  0  0
  189.8980  177.5380  145.9770 C   0  0  0  0  0  2  0  0  0  0  0  0
  189.1150  176.9650  147.1430 C   0  0  0  0  0  2  0  0  0  0  0  0
  188.0400  177.9370  147.5880 C   0  0  0  0  0  2  0  0  0  0  0  0
  188.1630  178.1720  148.9560 O   0  0  0  0  0  1  0  0  0  0  0  0
  190.1830  175.6810  142.6690 C   0  0  0  0  0  2  0  0  0  0  0  0
  191.6290  175.9720  143.0370 C   0  0  0  0  0  2  0  0  0  0  0  0
  192.0580  175.1260  144.1550 C   0  0  0  0  0  0  0  0  0  0  0  0
  192.3990  174.4590  145.0360 N   0  0  0  0  0  0  0  0  0  0  0  0
  189.3550  178.4270  142.4650 C   0  0  0  0  0  2  0  0  0  0  0  0
  188.7390  178.0110  141.1300 C   0  0  0  0  0  2  0  0  0  0  0  0
  188.8680  178.3110  138.6170 C   0  0  1  0  0  3  0  0  0  0  0  0
  190.8480  177.0920  138.7320 C   0  0  0  0  0  2  0  0  0  0  0  0
  188.7690  175.7780  138.4890 C   0  0  0  0  0  1  0  0  0  0  0  0
  189.6220  177.1190  136.5680 C   0  0  0  0  0  1  0  0  0  0  0  0
  189.5540  178.5290  139.9510 C   0  0  2  0  0  3  0  0  0  0  0  0
  190.7940  177.8590  139.9200 O   0  0  0  0  0  0  0  0  0  0  0  0
  189.4870  177.0540  138.0750 C   0  0  0  0  0  0  0  0  0  0  0  0
  187.3650  178.4810  138.5680 C   0  0  0  0  0  0  0  0  0  0  0  0
  186.7030  178.6450  139.6260 O   0  0  0  0  0  0  0  0  0  0  0  0
  186.6990  178.5150  137.3420 O   0  0  0  0  0  0  0  0  0  0  0  0
  185.5360  177.8040  137.1280 N   0  0  0  0  0  2  0  0  0  0  0  0
  185.7310  176.9800  135.9420 C   0  0  0  0  0  2  0  0  0  0  0  0
  185.8590  175.5180  136.3340 C   0  0  0  0  0  2  0  0  0  0  0  0
  185.2850  174.7070  135.3420 O   0  0  0  0  0  0  0  0  0  0  0  0
  184.2600  173.9310  135.9250 C   0  0  2  0  0  3  0  0  0  0  0  0
  182.6190  174.3210  135.3150 Cl  0  0  0  0  0  0  0  0  0  0  0  0
  183.6160  174.7530  138.1950 O   0  0  0  0  0  1  0  0  0  0  0  0
  185.0440  172.9730  137.9840 O   0  0  0  0  0  0  0  0  0  0  0  0
  184.3500  173.8620  137.4220 C   0  0  0  0  0  0  0  0  0  0  0  0
  1 22  1  6  0  0  0
  2 26  1  6  0  0  0
  2  1  1  0  0  0  0
  2 17  1  0  0  0  0
  3  4  1  0  0  0  0
  3  2  1  0  0  0  0
  3  5  1  1  0  0  0
  4  1  1  0  0  0  0
  6  5  1  0  0  0  0
  6  8  1  0  0  0  0
  8  7  2  0  0  0  0
  9 10  1  0  0  0  0
  9  8  1  0  0  0  0
 11 12  1  0  0  0  0
 12 10  1  1  0  0  0
 13 12  1  0  0  0  0
 14 15  1  1  0  0  0
 14 16  1  0  0  0  0
 14 13  1  0  0  0  0
 16 11  1  0  0  0  0
 17 18  1  0  0  0  0
 18 19  1  0  0  0  0
 19 20  1  0  0  0  0
 20 21  1  0  0  0  0
 22 23  1  0  0  0  0
 23 24  1  0  0  0  0
 24 25  3  0  0  0  0
 27 26  1  0  0  0  0
 28 35  1  1  0  0  0
 28 32  1  0  0  0  0
 29 33  1  0  0  0  0
 31 34  1  0  0  0  0
 32 27  1  1  0  0  0
 33 32  1  0  0  0  0
 34 30  1  0  0  0  0
 34 28  1  0  0  0  0
 34 29  1  0  0  0  0
 35 36  2  0  0  0  0
 37 35  1  0  0  0  0
 38 37  1  0  0  0  0
 39 40  1  0  0  0  0
 39 38  1  0  0  0  0
 41 42  1  0  0  0  0
 41 40  1  0  0  0  0
 42 43  1  1  0  0  0
 42 46  1  0  0  0  0
 46 45  2  0  0  0  0
 46 44  1  0  0  0  0
M  END
>  <MODEL>
5

>  <REMARK>
 VINA RESULT:      -5.5      1.764      2.017
  Name = 
  23 active torsions:
  status: ('A' for Active; 'I' for Inactive)
    1  A    between atoms: C_2  and  C_9
    2  A    between atoms: C_2  and  C_18
    3  A    between atoms: N_3  and  C_25
    4  A    between atoms: C_4  and  C_13
    5  A    between atoms: C_4  and  C_24
    6  A    between atoms: C_6  and  C_17
    7  A    between atoms: C_6  and  C_27
    8  A    between atoms: C_7  and  C_21
    9  A    between atoms: C_7  and  C_39
   10  A    between atoms: C_8  and  C_31
   11  A    between atoms: C_14  and  N_16
   12  A    between atoms: C_14  and  C_43
   13  A    between atoms: C_15  and  C_39
   14  A    between atoms: N_16  and  O_45
   15  A    between atoms: C_17  and  C_29
   16  A    between atoms: C_18  and  C_23
   17  A    between atoms: C_21  and  C_27
   18  A    between atoms: C_24  and  C_36
   19  A    between atoms: C_25  and  C_30
   20  A    between atoms: C_26  and  C_33
   21  A    between atoms: C_26  and  O_42
   22  A    between atoms: C_31  and  O_45
   23  A    between atoms: O_42  and  C_43
                            x       y       z     vdW  Elec       q    Type
                         _______ _______ _______ _____ _____    ______ ____

>  <TORSDO>
F 23

$$$$
=
 OpenBabel11062416303D

 46 48  0  0  1  0  0  0  0  0999 V2000
  189.0760  176.1380  137.4910 C   0  0  1  0  0  3  0  0  0  0  0  0
  189.4000  177.0440  138.6720 C   0  0  1  0  0  0  0  0  0  0  0  0
  190.6800  176.2150  138.7110 C   0  0  1  0  0  3  0  0  0  0  0  0
  190.2990  175.4470  137.5970 O   0  0  0  0  0  0  0  0  0  0  0  0
  191.9730  176.9660  138.4060 C   0  0  0  0  0  2  0  0  0  0  0  0
  193.0790  176.0240  138.3350 N   0  0  0  0  0  2  0  0  0  0  0  0
  193.3090  176.1940  136.0160 O   0  0  0  0  0  0  0  0  0  0  0  0
  193.6990  175.6770  137.0980 C   0  0  0  0  0  0  0  0  0  0  0  0
  194.8340  174.7110  137.0860 C   0  0  0  0  0  2  0  0  0  0  0  0
  195.1010  174.1680  138.4840 C   0  0  0  0  0  2  0  0  0  0  0  0
  197.2560  174.9270  139.4640 C   0  0  0  0  0  2  0  0  0  0  0  0
  196.5740  173.8390  138.6840 C   0  0  2  0  0  3  0  0  0  0  0  0
  197.2090  173.7790  137.4480 O   0  0  0  0  0  0  0  0  0  0  0  0
  198.4300  174.4360  137.6550 C   0  0  1  0  0  3  0  0  0  0  0  0
  198.8410  175.0930  136.4290 N   0  0  0  0  0  1  0  0  0  0  0  0
  198.3100  175.3880  138.6780 O   0  0  0  0  0  0  0  0  0  0  0  0
  189.5410  178.5020  138.1990 C   0  0  0  0  0  2  0  0  0  0  0  0
  189.1150  178.6880  136.7480 C   0  0  0  0  0  2  0  0  0  0  0  0
  187.7130  179.2640  136.6800 C   0  0  0  0  0  2  0  0  0  0  0  0
  186.7780  178.2990  135.9780 C   0  0  0  0  0  2  0  0  0  0  0  0
  187.1660  178.1610  134.6470 O   0  0  0  0  0  1  0  0  0  0  0  0
  187.9140  175.1650  137.7030 C   0  0  0  0  0  2  0  0  0  0  0  0
  187.2330  174.8340  136.3850 C   0  0  0  0  0  2  0  0  0  0  0  0
  188.0420  173.8900  135.6070 C   0  0  0  0  0  0  0  0  0  0  0  0
  188.6810  173.1450  134.9950 N   0  0  0  0  0  0  0  0  0  0  0  0
  188.5650  176.8310  139.9540 C   0  0  0  0  0  2  0  0  0  0  0  0
  189.1560  177.5020  141.1920 C   0  0  0  0  0  2  0  0  0  0  0  0
  189.3510  176.9090  143.6480 C   0  0  1  0  0  3  0  0  0  0  0  0
  191.6380  176.7180  143.2590 C   0  0  0  0  0  2  0  0  0  0  0  0
  190.8150  178.9730  143.8470 C   0  0  0  0  0  1  0  0  0  0  0  0
  190.8880  177.1870  145.5840 C   0  0  0  0  0  1  0  0  0  0  0  0
  189.6160  176.4760  142.2200 C   0  0  2  0  0  3  0  0  0  0  0  0
  191.0040  176.2690  142.0760 O   0  0  0  0  0  0  0  0  0  0  0  0
  190.6570  177.4840  144.1170 C   0  0  0  0  0  0  0  0  0  0  0  0
  188.0660  177.6610  143.9230 C   0  0  0  0  0  0  0  0  0  0  0  0
  187.8180  178.1090  145.0730 O   0  0  0  0  0  0  0  0  0  0  0  0
  187.1640  177.9160  142.8890 O   0  0  0  0  0  0  0  0  0  0  0  0
  185.8080  177.7100  143.0420 N   0  0  0  0  0  2  0  0  0  0  0  0
  185.1150  178.8010  142.3690 C   0  0  0  0  0  2  0  0  0  0  0  0
  185.7600  179.0810  141.0230 C   0  0  0  0  0  2  0  0  0  0  0  0
  184.8170  179.6490  140.1510 O   0  0  0  0  0  0  0  0  0  0  0  0
  183.8590  178.6670  139.8150 C   0  0  2  0  0  3  0  0  0  0  0  0
  184.3030  177.6820  138.3830 Cl  0  0  0  0  0  0  0  0  0  0  0  0
  181.6730  179.1570  140.9200 O   0  0  0  0  0  1  0  0  0  0  0  0
  182.0010  179.7290  138.7260 O   0  0  0  0  0  0  0  0  0  0  0  0
  182.4570  179.1990  139.7740 C   0  0  0  0  0  0  0  0  0  0  0  0
  1  4  1  0  0  0  0
  1 22  1  1  0  0  0
  1  2  1  0  0  0  0
  2 17  1  6  0  0  0
  2  3  1  0  0  0  0
  2 26  1  0  0  0  0
  3  5  1  6  0  0  0
  4  3  1  0  0  0  0
  6  5  1  0  0  0  0
  7  8  2  0  0  0  0
  8  6  1  0  0  0  0
  9  8  1  0  0  0  0
  9 10  1  0  0  0  0
 12 10  1  6  0  0  0
 12 11  1  0  0  0  0
 13 14  1  0  0  0  0
 13 12  1  0  0  0  0
 14 15  1  6  0  0  0
 14 16  1  0  0  0  0
 16 11  1  0  0  0  0
 18 17  1  0  0  0  0
 19 18  1  0  0  0  0
 20 19  1  0  0  0  0
 21 20  1  0  0  0  0
 23 22  1  0  0  0  0
 24 23  1  0  0  0  0
 25 24  3  0  0  0  0
 26 27  1  0  0  0  0
 28 35  1  6  0  0  0
 28 34  1  0  0  0  0
 29 34  1  0  0  0  0
 30 34  1  0  0  0  0
 32 27  1  6  0  0  0
 32 28  1  0  0  0  0
 33 32  1  0  0  0  0
 33 29  1  0  0  0  0
 34 31  1  0  0  0  0
 35 36  2  0  0  0  0
 37 38  1  0  0  0  0
 37 35  1  0  0  0  0
 39 38  1  0  0  0  0
 40 39  1  0  0  0  0
 41 40  1  0  0  0  0
 42 43  1  6  0  0  0
 42 41  1  0  0  0  0
 45 46  2  0  0  0  0
 46 42  1  0  0  0  0
 46 44  1  0  0  0  0
M  END
>  <MODEL>
6

>  <REMARK>
 VINA RESULT:      -5.4      3.765      9.587
  Name = 
  23 active torsions:
  status: ('A' for Active; 'I' for Inactive)
    1  A    between atoms: C_2  and  C_9
    2  A    between atoms: C_2  and  C_18
    3  A    between atoms: N_3  and  C_25
    4  A    between atoms: C_4  and  C_13
    5  A    between atoms: C_4  and  C_24
    6  A    between atoms: C_6  and  C_17
    7  A    between atoms: C_6  and  C_27
    8  A    between atoms: C_7  and  C_21
    9  A    between atoms: C_7  and  C_39
   10  A    between atoms: C_8  and  C_31
   11  A    between atoms: C_14  and  N_16
   12  A    between atoms: C_14  and  C_43
   13  A    between atoms: C_15  and  C_39
   14  A    between atoms: N_16  and  O_45
   15  A    between atoms: C_17  and  C_29
   16  A    between atoms: C_18  and  C_23
   17  A    between atoms: C_21  and  C_27
   18  A    between atoms: C_24  and  C_36
   19  A    between atoms: C_25  and  C_30
   20  A    between atoms: C_26  and  C_33
   21  A    between atoms: C_26  and  O_42
   22  A    between atoms: C_31  and  O_45
   23  A    between atoms: O_42  and  C_43
                            x       y       z     vdW  Elec       q    Type
                         _______ _______ _______ _____ _____    ______ ____

>  <TORSDO>
F 23

$$$$
=
 OpenBabel11062416303D

 46 48  0  0  1  0  0  0  0  0999 V2000
  189.8560  177.4730  137.2970 C   0  0  1  0  0  3  0  0  0  0  0  0
  189.8370  176.5200  138.4850 C   0  0  1  0  0  0  0  0  0  0  0  0
  189.0770  175.6260  137.5120 C   0  0  1  0  0  3  0  0  0  0  0  0
  189.1670  176.5650  136.4690 O   0  0  0  0  0  0  0  0  0  0  0  0
  189.7740  174.3310  137.1050 C   0  0  0  0  0  2  0  0  0  0  0  0
  189.0110  173.6740  136.0560 N   0  0  0  0  0  2  0  0  0  0  0  0
  187.9230  172.2100  137.5170 O   0  0  0  0  0  0  0  0  0  0  0  0
  188.1030  172.6100  136.3350 C   0  0  0  0  0  0  0  0  0  0  0  0
  187.3410  171.9790  135.2200 C   0  0  0  0  0  2  0  0  0  0  0  0
  185.8780  172.4010  135.2530 C   0  0  0  0  0  2  0  0  0  0  0  0
  184.0410  170.7830  134.8170 C   0  0  0  0  0  2  0  0  0  0  0  0
  184.9950  171.3130  135.8490 C   0  0  2  0  0  3  0  0  0  0  0  0
  184.2170  171.8520  136.8680 O   0  0  0  0  0  0  0  0  0  0  0  0
  182.9520  171.2800  136.6760 C   0  0  1  0  0  3  0  0  0  0  0  0
  181.9280  172.2140  137.1060 N   0  0  0  0  0  1  0  0  0  0  0  0
  182.7560  170.9610  135.3240 O   0  0  0  0  0  0  0  0  0  0  0  0
  191.2710  176.0840  138.8380 C   0  0  0  0  0  2  0  0  0  0  0  0
  192.3120  176.6970  137.9110 C   0  0  0  0  0  2  0  0  0  0  0  0
  193.1760  175.6120  137.2970 C   0  0  0  0  0  2  0  0  0  0  0  0
  193.6960  176.0520  135.9420 C   0  0  0  0  0  2  0  0  0  0  0  0
  194.8430  176.8250  136.1140 O   0  0  0  0  0  1  0  0  0  0  0  0
  189.0300  178.7510  137.4620 C   0  0  0  0  0  2  0  0  0  0  0  0
  187.7520  178.6820  136.6430 C   0  0  0  0  0  2  0  0  0  0  0  0
  186.5790  178.6020  137.5200 C   0  0  0  0  0  0  0  0  0  0  0  0
  185.6550  178.5360  138.2120 N   0  0  0  0  0  0  0  0  0  0  0  0
  188.9440  176.9230  139.6790 C   0  0  0  0  0  2  0  0  0  0  0  0
  189.7200  177.5000  140.8610 C   0  0  0  0  0  2  0  0  0  0  0  0
  189.1970  176.9550  143.2800 C   0  0  1  0  0  3  0  0  0  0  0  0
  191.4960  176.7270  143.5610 C   0  0  0  0  0  2  0  0  0  0  0  0
  190.5810  179.0040  143.8550 C   0  0  0  0  0  1  0  0  0  0  0  0
  190.1250  177.2530  145.5690 C   0  0  0  0  0  1  0  0  0  0  0  0
  189.8500  176.4890  141.9940 C   0  0  2  0  0  3  0  0  0  0  0  0
  191.2170  176.2620  142.2550 O   0  0  0  0  0  0  0  0  0  0  0  0
  190.3260  177.5230  144.0920 C   0  0  0  0  0  0  0  0  0  0  0  0
  187.9010  177.7290  143.1650 C   0  0  0  0  0  0  0  0  0  0  0  0
  187.6540  178.4200  142.1430 O   0  0  0  0  0  0  0  0  0  0  0  0
  186.9360  177.6390  144.1690 O   0  0  0  0  0  0  0  0  0  0  0  0
  185.5940  177.8320  143.9060 N   0  0  0  0  0  2  0  0  0  0  0  0
  185.1550  178.9950  144.6660 C   0  0  0  0  0  2  0  0  0  0  0  0
  184.0310  179.7060  143.9330 C   0  0  0  0  0  2  0  0  0  0  0  0
  182.7900  179.2850  144.4420 O   0  0  0  0  0  0  0  0  0  0  0  0
  182.0520  178.6830  143.3990 C   0  0  2  0  0  3  0  0  0  0  0  0
  182.8390  178.8040  141.7910 Cl  0  0  0  0  0  0  0  0  0  0  0  0
  180.2400  180.3520  142.9880 O   0  0  0  0  0  0  0  0  0  0  0  0
  179.7120  178.2440  143.7150 O   0  0  0  0  0  1  0  0  0  0  0  0
  180.6040  179.0760  143.3970 C   0  0  0  0  0  0  0  0  0  0  0  0
  1 22  1  1  0  0  0
  1  2  1  0  0  0  0
  2 17  1  1  0  0  0
  2 26  1  0  0  0  0
  3  5  1  6  0  0  0
  3  2  1  0  0  0  0
  4  1  1  0  0  0  0
  4  3  1  0  0  0  0
  6  8  1  0  0  0  0
  6  5  1  0  0  0  0
  8  7  2  0  0  0  0
  9 10  1  0  0  0  0
  9  8  1  0  0  0  0
 11 16  1  0  0  0  0
 11 12  1  0  0  0  0
 12 10  1  6  0  0  0
 12 13  1  0  0  0  0
 14 13  1  0  0  0  0
 14 15  1  6  0  0  0
 16 14  1  0  0  0  0
 18 17  1  0  0  0  0
 19 18  1  0  0  0  0
 20 21  1  0  0  0  0
 20 19  1  0  0  0  0
 23 22  1  0  0  0  0
 23 24  1  0  0  0  0
 24 25  3  0  0  0  0
 26 27  1  0  0  0  0
 28 35  1  6  0  0  0
 28 34  1  0  0  0  0
 29 34  1  0  0  0  0
 30 34  1  0  0  0  0
 32 27  1  6  0  0  0
 32 33  1  0  0  0  0
 32 28  1  0  0  0  0
 33 29  1  0  0  0  0
 34 31  1  0  0  0  0
 35 37  1  0  0  0  0
 36 35  2  0  0  0  0
 38 37  1  0  0  0  0
 38 39  1  0  0  0  0
 40 41  1  0  0  0  0
 40 39  1  0  0  0  0
 42 43  1  6  0  0  0
 42 41  1  0  0  0  0
 44 46  2  0  0  0  0
 46 42  1  0  0  0  0
 46 45  1  0  0  0  0
M  END
>  <MODEL>
7

>  <REMARK>
 VINA RESULT:      -5.3      3.089      7.818
  Name = 
  23 active torsions:
  status: ('A' for Active; 'I' for Inactive)
    1  A    between atoms: C_2  and  C_9
    2  A    between atoms: C_2  and  C_18
    3  A    between atoms: N_3  and  C_25
    4  A    between atoms: C_4  and  C_13
    5  A    between atoms: C_4  and  C_24
    6  A    between atoms: C_6  and  C_17
    7  A    between atoms: C_6  and  C_27
    8  A    between atoms: C_7  and  C_21
    9  A    between atoms: C_7  and  C_39
   10  A    between atoms: C_8  and  C_31
   11  A    between atoms: C_14  and  N_16
   12  A    between atoms: C_14  and  C_43
   13  A    between atoms: C_15  and  C_39
   14  A    between atoms: N_16  and  O_45
   15  A    between atoms: C_17  and  C_29
   16  A    between atoms: C_18  and  C_23
   17  A    between atoms: C_21  and  C_27
   18  A    between atoms: C_24  and  C_36
   19  A    between atoms: C_25  and  C_30
   20  A    between atoms: C_26  and  C_33
   21  A    between atoms: C_26  and  O_42
   22  A    between atoms: C_31  and  O_45
   23  A    between atoms: O_42  and  C_43
                            x       y       z     vdW  Elec       q    Type
                         _______ _______ _______ _____ _____    ______ ____

>  <TORSDO>
F 23

$$$$
=
 OpenBabel11062416303D

 46 48  0  0  1  0  0  0  0  0999 V2000
  190.2880  177.9930  144.7710 C   0  0  1  0  0  3  0  0  0  0  0  0
  189.9710  176.9280  143.7290 C   0  0  1  0  0  0  0  0  0  0  0  0
  190.1930  178.0840  142.7590 C   0  0  1  0  0  3  0  0  0  0  0  0
  190.4940  178.9870  143.7940 O   0  0  0  0  0  0  0  0  0  0  0  0
  191.3900  177.9520  141.8210 C   0  0  0  0  0  2  0  0  0  0  0  0
  190.9430  177.4670  140.5250 N   0  0  0  0  0  2  0  0  0  0  0  0
  193.1040  177.1850  139.6840 O   0  0  0  0  0  0  0  0  0  0  0  0
  191.8610  177.1060  139.4950 C   0  0  0  0  0  0  0  0  0  0  0  0
  191.3450  176.6080  138.1880 C   0  0  0  0  0  2  0  0  0  0  0  0
  191.5540  175.1050  138.0570 C   0  0  0  0  0  2  0  0  0  0  0  0
  193.8990  174.3640  137.6860 C   0  0  0  0  0  2  0  0  0  0  0  0
  192.6190  174.7770  137.0180 C   0  0  2  0  0  3  0  0  0  0  0  0
  192.9090  175.9170  136.2760 O   0  0  0  0  0  0  0  0  0  0  0  0
  194.3050  175.8980  136.1470 C   0  0  1  0  0  3  0  0  0  0  0  0
  194.8040  177.2590  136.0910 N   0  0  0  0  0  1  0  0  0  0  0  0
  194.8900  175.2300  137.2320 O   0  0  0  0  0  0  0  0  0  0  0  0
  191.0520  175.8310  143.7460 C   0  0  0  0  0  2  0  0  0  0  0  0
  192.0500  176.0140  144.8820 C   0  0  0  0  0  2  0  0  0  0  0  0
  191.7030  175.0990  146.0410 C   0  0  0  0  0  2  0  0  0  0  0  0
  191.7260  175.8680  147.3480 C   0  0  0  0  0  2  0  0  0  0  0  0
  192.9830  175.7440  147.9370 O   0  0  0  0  0  1  0  0  0  0  0  0
  189.1240  178.3960  145.6800 C   0  0  0  0  0  2  0  0  0  0  0  0
  188.8110  177.2980  146.6830 C   0  0  0  0  0  2  0  0  0  0  0  0
  188.7280  177.8450  148.0410 C   0  0  0  0  0  0  0  0  0  0  0  0
  188.6650  178.2770  149.1120 N   0  0  0  0  0  0  0  0  0  0  0  0
  188.5100  176.4320  143.6720 C   0  0  0  0  0  2  0  0  0  0  0  0
  187.5100  177.5080  143.2550 C   0  0  0  0  0  2  0  0  0  0  0  0
  185.0490  178.1010  143.1250 C   0  0  1  0  0  3  0  0  0  0  0  0
  185.1180  178.2230  145.4490 C   0  0  0  0  0  2  0  0  0  0  0  0
  185.7010  180.2920  144.2280 C   0  0  0  0  0  1  0  0  0  0  0  0
  183.3390  179.4990  144.2680 C   0  0  0  0  0  1  0  0  0  0  0  0
  186.0910  177.1500  143.6810 C   0  0  2  0  0  3  0  0  0  0  0  0
  186.0090  177.1860  145.0880 O   0  0  0  0  0  0  0  0  0  0  0  0
  184.7920  179.0720  144.2410 C   0  0  0  0  0  0  0  0  0  0  0  0
  185.2570  178.6210  141.7190 C   0  0  0  0  0  0  0  0  0  0  0  0
  186.3810  179.0570  141.3550 O   0  0  0  0  0  0  0  0  0  0  0  0
  184.2180  178.5730  140.7890 O   0  0  0  0  0  0  0  0  0  0  0  0
  184.0530  179.5550  139.8330 N   0  0  0  0  0  2  0  0  0  0  0  0
  183.0790  179.0710  138.8630 C   0  0  0  0  0  2  0  0  0  0  0  0
  183.7630  178.2110  137.8160 C   0  0  0  0  0  2  0  0  0  0  0  0
  185.1580  178.2930  137.9700 O   0  0  0  0  0  0  0  0  0  0  0  0
  185.7730  177.5390  136.9480 C   0  0  2  0  0  3  0  0  0  0  0  0
  185.5130  175.7700  137.0970 Cl  0  0  0  0  0  0  0  0  0  0  0  0
  188.1880  176.9440  136.7160 O   0  0  0  0  0  1  0  0  0  0  0  0
  187.5130  179.1180  136.4510 O   0  0  0  0  0  0  0  0  0  0  0  0
  187.2040  177.9240  136.7080 C   0  0  0  0  0  0  0  0  0  0  0  0
  1 22  1  1  0  0  0
  2 26  1  1  0  0  0
  2 17  1  0  0  0  0
  2  1  1  0  0  0  0
  3  5  1  6  0  0  0
  3  2  1  0  0  0  0
  3  4  1  0  0  0  0
  4  1  1  0  0  0  0
  6  5  1  0  0  0  0
  8  7  2  0  0  0  0
  8  6  1  0  0  0  0
  9  8  1  0  0  0  0
 10  9  1  0  0  0  0
 12 11  1  0  0  0  0
 12 10  1  1  0  0  0
 13 12  1  0  0  0  0
 14 15  1  1  0  0  0
 14 13  1  0  0  0  0
 14 16  1  0  0  0  0
 16 11  1  0  0  0  0
 17 18  1  0  0  0  0
 18 19  1  0  0  0  0
 19 20  1  0  0  0  0
 20 21  1  0  0  0  0
 22 23  1  0  0  0  0
 23 24  1  0  0  0  0
 24 25  3  0  0  0  0
 27 26  1  0  0  0  0
 28 35  1  6  0  0  0
 28 32  1  0  0  0  0
 28 34  1  0  0  0  0
 30 34  1  0  0  0  0
 32 27  1  1  0  0  0
 32 33  1  0  0  0  0
 33 29  1  0  0  0  0
 34 31  1  0  0  0  0
 34 29  1  0  0  0  0
 36 35  2  0  0  0  0
 37 35  1  0  0  0  0
 38 37  1  0  0  0  0
 39 38  1  0  0  0  0
 40 41  1  0  0  0  0
 40 39  1  0  0  0  0
 42 43  1  1  0  0  0
 42 41  1  0  0  0  0
 45 46  2  0  0  0  0
 46 44  1  0  0  0  0
 46 42  1  0  0  0  0
M  END
>  <MODEL>
8

>  <REMARK>
 VINA RESULT:      -5.2      2.810      7.368
  Name = 
  23 active torsions:
  status: ('A' for Active; 'I' for Inactive)
    1  A    between atoms: C_2  and  C_9
    2  A    between atoms: C_2  and  C_18
    3  A    between atoms: N_3  and  C_25
    4  A    between atoms: C_4  and  C_13
    5  A    between atoms: C_4  and  C_24
    6  A    between atoms: C_6  and  C_17
    7  A    between atoms: C_6  and  C_27
    8  A    between atoms: C_7  and  C_21
    9  A    between atoms: C_7  and  C_39
   10  A    between atoms: C_8  and  C_31
   11  A    between atoms: C_14  and  N_16
   12  A    between atoms: C_14  and  C_43
   13  A    between atoms: C_15  and  C_39
   14  A    between atoms: N_16  and  O_45
   15  A    between atoms: C_17  and  C_29
   16  A    between atoms: C_18  and  C_23
   17  A    between atoms: C_21  and  C_27
   18  A    between atoms: C_24  and  C_36
   19  A    between atoms: C_25  and  C_30
   20  A    between atoms: C_26  and  C_33
   21  A    between atoms: C_26  and  O_42
   22  A    between atoms: C_31  and  O_45
   23  A    between atoms: O_42  and  C_43
                            x       y       z     vdW  Elec       q    Type
                         _______ _______ _______ _____ _____    ______ ____

>  <TORSDO>
F 23

$$$$
=
 OpenBabel11062416303D

 46 48  0  0  1  0  0  0  0  0999 V2000
  185.2430  179.2340  145.3910 C   0  0  1  0  0  3  0  0  0  0  0  0
  185.1200  178.6050  144.0090 C   0  0  1  0  0  0  0  0  0  0  0  0
  183.6440  178.5270  144.3850 C   0  0  1  0  0  3  0  0  0  0  0  0
  183.8590  179.1380  145.6340 O   0  0  0  0  0  0  0  0  0  0  0  0
  182.6940  179.3780  143.5480 C   0  0  0  0  0  2  0  0  0  0  0  0
  181.7730  178.5140  142.8260 N   0  0  0  0  0  2  0  0  0  0  0  0
  180.4180  180.2700  142.0930 O   0  0  0  0  0  0  0  0  0  0  0  0
  180.6460  179.0310  142.1210 C   0  0  0  0  0  0  0  0  0  0  0  0
  179.7410  178.0980  141.3910 C   0  0  0  0  0  2  0  0  0  0  0  0
  179.9640  178.1880  139.8870 C   0  0  0  0  0  2  0  0  0  0  0  0
  180.8690  175.8720  139.8820 C   0  0  0  0  0  2  0  0  0  0  0  0
  179.9000  176.8160  139.2290 C   0  0  2  0  0  3  0  0  0  0  0  0
  180.2870  176.9220  137.8970 O   0  0  0  0  0  0  0  0  0  0  0  0
  181.1020  175.8020  137.6840 C   0  0  1  0  0  3  0  0  0  0  0  0
  182.1180  176.1220  136.7000 N   0  0  0  0  0  1  0  0  0  0  0  0
  181.7180  175.4070  138.8810 O   0  0  0  0  0  0  0  0  0  0  0  0
  185.4980  179.6300  142.9240 C   0  0  0  0  0  2  0  0  0  0  0  0
  185.6390  178.9960  141.5470 C   0  0  0  0  0  2  0  0  0  0  0  0
  184.4660  179.3820  140.6650 C   0  0  0  0  0  2  0  0  0  0  0  0
  183.8520  178.1500  140.0300 C   0  0  0  0  0  2  0  0  0  0  0  0
  183.2750  178.4950  138.8100 O   0  0  0  0  0  1  0  0  0  0  0  0
  186.0070  178.4080  146.4280 C   0  0  0  0  0  2  0  0  0  0  0  0
  186.5080  179.2860  147.5630 C   0  0  0  0  0  2  0  0  0  0  0  0
  187.6630  178.6690  148.2240 C   0  0  0  0  0  0  0  0  0  0  0  0
  188.5730  178.1820  148.7460 N   0  0  0  0  0  0  0  0  0  0  0  0
  185.7220  177.1930  143.8380 C   0  0  0  0  0  2  0  0  0  0  0  0
  186.9930  177.1640  142.9920 C   0  0  0  0  0  2  0  0  0  0  0  0
  189.4010  177.9390  142.8450 C   0  0  1  0  0  3  0  0  0  0  0  0
  189.6290  177.1310  145.0160 C   0  0  0  0  0  2  0  0  0  0  0  0
  190.0200  175.5030  143.1980 C   0  0  0  0  0  1  0  0  0  0  0  0
  191.6800  177.3140  143.6210 C   0  0  0  0  0  1  0  0  0  0  0  0
  188.0860  178.0380  143.5930 C   0  0  2  0  0  3  0  0  0  0  0  0
  188.3120  177.6420  144.9270 O   0  0  0  0  0  0  0  0  0  0  0  0
  190.2100  176.9490  143.6320 C   0  0  0  0  0  0  0  0  0  0  0  0
  189.3400  177.8180  141.3370 C   0  0  0  0  0  0  0  0  0  0  0  0
  188.7440  178.6860  140.6470 O   0  0  0  0  0  0  0  0  0  0  0  0
  189.9930  176.7700  140.6870 O   0  0  0  0  0  0  0  0  0  0  0  0
  190.7780  176.9850  139.5720 N   0  0  0  0  0  2  0  0  0  0  0  0
  190.1570  176.2910  138.4510 C   0  0  0  0  0  2  0  0  0  0  0  0
  190.2570  177.1340  137.1920 C   0  0  0  0  0  2  0  0  0  0  0  0
  189.0200  177.7460  136.9290 O   0  0  0  0  0  0  0  0  0  0  0  0
  187.9970  176.7840  137.0730 C   0  0  2  0  0  3  0  0  0  0  0  0
  187.9240  175.5970  135.7290 Cl  0  0  0  0  0  0  0  0  0  0  0  0
  186.6170  178.6340  138.0280 O   0  0  0  0  0  1  0  0  0  0  0  0
  185.5970  176.7860  137.1370 O   0  0  0  0  0  0  0  0  0  0  0  0
  186.6680  177.3830  137.4260 C   0  0  0  0  0  0  0  0  0  0  0  0
  1  4  1  0  0  0  0
  1 22  1  1  0  0  0
  2 17  1  6  0  0  0
  2  3  1  0  0  0  0
  2  1  1  0  0  0  0
  3  5  1  6  0  0  0
  3  4  1  0  0  0  0
  6  5  1  0  0  0  0
  7  8  2  0  0  0  0
  8  6  1  0  0  0  0
  9  8  1  0  0  0  0
 10  9  1  0  0  0  0
 12 11  1  0  0  0  0
 12 10  1  1  0  0  0
 13 12  1  0  0  0  0
 14 15  1  6  0  0  0
 14 13  1  0  0  0  0
 14 16  1  0  0  0  0
 16 11  1  0  0  0  0
 18 17  1  0  0  0  0
 19 18  1  0  0  0  0
 20 19  1  0  0  0  0
 21 20  1  0  0  0  0
 22 23  1  0  0  0  0
 23 24  1  0  0  0  0
 24 25  3  0  0  0  0
 26  2  1  0  0  0  0
 27 26  1  0  0  0  0
 28 35  1  6  0  0  0
 28 32  1  0  0  0  0
 28 34  1  0  0  0  0
 30 34  1  0  0  0  0
 31 34  1  0  0  0  0
 32 27  1  6  0  0  0
 32 33  1  0  0  0  0
 33 29  1  0  0  0  0
 34 29  1  0  0  0  0
 36 35  2  0  0  0  0
 37 35  1  0  0  0  0
 38 37  1  0  0  0  0
 39 38  1  0  0  0  0
 40 39  1  0  0  0  0
 41 42  1  0  0  0  0
 41 40  1  0  0  0  0
 42 43  1  6  0  0  0
 42 46  1  0  0  0  0
 45 46  2  0  0  0  0
 46 44  1  0  0  0  0
M  END
>  <MODEL>
9

>  <REMARK>
 VINA RESULT:      -5.2      2.459      5.368
  Name = 
  23 active torsions:
  status: ('A' for Active; 'I' for Inactive)
    1  A    between atoms: C_2  and  C_9
    2  A    between atoms: C_2  and  C_18
    3  A    between atoms: N_3  and  C_25
    4  A    between atoms: C_4  and  C_13
    5  A    between atoms: C_4  and  C_24
    6  A    between atoms: C_6  and  C_17
    7  A    between atoms: C_6  and  C_27
    8  A    between atoms: C_7  and  C_21
    9  A    between atoms: C_7  and  C_39
   10  A    between atoms: C_8  and  C_31
   11  A    between atoms: C_14  and  N_16
   12  A    between atoms: C_14  and  C_43
   13  A    between atoms: C_15  and  C_39
   14  A    between atoms: N_16  and  O_45
   15  A    between atoms: C_17  and  C_29
   16  A    between atoms: C_18  and  C_23
   17  A    between atoms: C_21  and  C_27
   18  A    between atoms: C_24  and  C_36
   19  A    between atoms: C_25  and  C_30
   20  A    between atoms: C_26  and  C_33
   21  A    between atoms: C_26  and  O_42
   22  A    between atoms: C_31  and  O_45
   23  A    between atoms: O_42  and  C_43
                            x       y       z     vdW  Elec       q    Type
                         _______ _______ _______ _____ _____    ______ ____

>  <TORSDO>
F 23

$$$$
