=
 OpenBabel11062417433D

 39 45  0  0  1  0  0  0  0  0999 V2000
  190.3220  176.7570  140.7930 C   0  0  0  0  0  3  0  0  0  0  0  0
  192.4120  177.6650  140.1320 N   0  0  0  0  0  0  0  0  0  0  0  0
  192.3730  177.4790  141.5830 C   0  0  0  0  0  3  0  0  0  0  0  0
  191.0730  177.3270  139.6410 C   0  0  1  0  0  3  0  0  0  0  0  0
  191.0550  176.8600  141.8850 C   0  0  0  0  0  0  0  0  0  0  0  0
  190.1120  177.5000  145.4970 C   0  0  0  0  0  2  0  0  0  0  0  0
  190.6040  176.4000  143.2520 C   0  0  1  0  0  0  0  0  0  0  0  0
  185.7370  178.7520  146.6890 C   0  0  2  0  0  3  0  0  0  0  0  0
  186.8530  177.3740  143.3380 C   0  0  0  0  0  2  0  0  0  0  0  0
  186.0420  178.2450  144.2850 C   0  0  0  0  0  2  0  0  0  0  0  0
  191.0680  177.4250  144.3070 C   0  0  0  0  0  2  0  0  0  0  0  0
  186.6910  178.5810  147.8420 C   0  0  0  0  0  2  0  0  0  0  0  0
  188.7030  177.9440  145.0680 C   0  0  1  0  0  3  0  0  0  0  0  0
  187.9260  178.1280  147.3480 O   0  0  0  0  0  0  0  0  0  0  0  0
  188.3510  177.4960  143.6250 C   0  0  1  0  0  3  0  0  0  0  0  0
  189.0750  176.2060  143.2430 C   0  0  0  0  0  2  0  0  0  0  0  0
  187.6720  177.4880  146.1170 C   0  0  1  0  0  3  0  0  0  0  0  0
  191.1930  175.1670  143.5460 O   0  0  0  0  0  1  0  0  0  0  0  0
  184.4400  178.4440  147.1010 O   0  0  0  0  0  1  0  0  0  0  0  0
  186.2160  177.7350  145.7110 C   0  0  1  0  0  3  0  0  0  0  0  0
  191.1720  176.3060  138.5120 C   0  0  0  0  0  2  0  0  0  0  0  0
  189.9290  176.1900  137.6640 C   0  0  0  0  0  0  0  0  0  0  0  0
  187.2010  178.4390  136.1750 C   0  0  0  0  0  1  0  0  0  0  0  0
  187.7770  177.1590  136.7450 C   0  0  2  0  0  3  0  0  0  0  0  0
  189.5660  175.0070  137.0990 C   0  0  0  0  0  0  0  0  0  0  0  0
  189.1430  177.4510  137.3590 C   0  0  0  0  0  2  0  0  0  0  0  0
  188.2770  174.9080  136.3220 C   0  0  0  0  0  2  0  0  0  0  0  0
  187.9290  176.1730  135.6850 N   0  0  0  0  0  2  0  0  0  0  0  0
  190.2750  173.7690  137.2980 N   0  0  0  0  0  2  0  0  0  0  0  0
  191.2340  173.2290  136.4230 N   0  0  0  0  0  2  0  0  0  0  0  0
  194.4360  175.1440  136.9660 C   0  0  0  0  0  2  0  0  0  0  0  0
  194.8580  172.3150  136.8460 C   0  0  0  0  0  2  0  0  0  0  0  0
  192.5450  173.4200  137.0260 C   0  0  2  0  0  3  0  0  0  0  0  0
  195.0640  174.4170  138.1230 C   0  0  0  0  0  0  0  0  0  0  0  0
  193.3930  174.3430  136.1530 C   0  0  2  0  0  3  0  0  0  0  0  0
  193.6060  172.8290  136.1040 C   0  0  1  0  0  3  0  0  0  0  0  0
  195.2450  173.0970  138.0650 C   0  0  0  0  0  3  0  0  0  0  0  0
  196.6070  174.8590  140.0210 C   0  0  0  0  0  1  0  0  0  0  0  0
  195.4460  175.1580  139.2500 O   0  0  0  0  0  0  0  0  0  0  0  0
  1  5  2  0  0  0  0
  2  3  2  0  0  0  0
  3  5  1  0  0  0  0
  4 21  1  6  0  0  0
  4  2  1  0  0  0  0
  4  1  1  0  0  0  0
  5  7  1  0  0  0  0
  7 18  1  1  0  0  0
  7 11  1  0  0  0  0
  8 19  1  1  0  0  0
  8 12  1  0  0  0  0
  9 15  1  0  0  0  0
  9 10  1  0  0  0  0
 11  6  1  0  0  0  0
 13  6  1  1  0  0  0
 13 17  1  0  0  0  0
 14 12  1  0  0  0  0
 15 16  1  1  0  0  0
 15 13  1  0  0  0  0
 16  7  1  0  0  0  0
 17 14  1  1  0  0  0
 20 10  1  6  0  0  0
 20 17  1  0  0  0  0
 20  8  1  0  0  0  0
 22 21  1  0  0  0  0
 24 23  1  6  0  0  0
 24 26  1  0  0  0  0
 25 29  1  0  0  0  0
 25 22  2  0  0  0  0
 26 22  1  0  0  0  0
 27 25  1  0  0  0  0
 28 27  1  0  0  0  0
 28 24  1  0  0  0  0
 30 29  1  0  0  0  0
 31 34  1  0  0  0  0
 32 37  1  0  0  0  0
 33 30  1  6  0  0  0
 34 39  1  0  0  0  0
 35 31  1  1  0  0  0
 35 33  1  0  0  0  0
 36 35  1  0  0  0  0
 36 32  1  1  0  0  0
 36 33  1  0  0  0  0
 37 34  2  0  0  0  0
 39 38  1  0  0  0  0
M  END
>  <MODEL>
1

>  <REMARK>
 VINA RESULT:      -9.7      0.000      0.000
  Name = 
  7 active torsions:
  status: ('A' for Active; 'I' for Inactive)
    1  A    between atoms: C_3  and  C_35
    2  A    between atoms: C_6  and  C_32
    3  A    between atoms: N_11  and  C_18
    4  A    between atoms: N_11  and  N_19
    5  A    between atoms: N_19  and  C_23
    6  A    between atoms: C_20  and  O_27
    7  A    between atoms: C_32  and  C_34
                            x       y       z     vdW  Elec       q    Type
                         _______ _______ _______ _____ _____    ______ ____

>  <TORSDO>
F 7

$$$$
=
 OpenBabel11062417433D

 39 45  0  0  1  0  0  0  0  0999 V2000
  183.8130  178.1610  141.6180 C   0  0  0  0  0  3  0  0  0  0  0  0
  181.4790  178.2410  141.2000 N   0  0  0  0  0  0  0  0  0  0  0  0
  181.7820  178.8090  142.5140 C   0  0  0  0  0  3  0  0  0  0  0  0
  182.7460  177.7150  140.6810 C   0  0  1  0  0  3  0  0  0  0  0  0
  183.2610  178.7630  142.6540 C   0  0  0  0  0  0  0  0  0  0  0  0
  184.8580  178.4820  146.0770 C   0  0  0  0  0  2  0  0  0  0  0  0
  184.0430  179.3290  143.8170 C   0  0  1  0  0  0  0  0  0  0  0  0
  189.2000  176.7520  146.6060 C   0  0  2  0  0  3  0  0  0  0  0  0
  187.5810  177.8180  143.3480 C   0  0  0  0  0  2  0  0  0  0  0  0
  188.4610  176.9700  144.2530 C   0  0  0  0  0  2  0  0  0  0  0  0
  183.6890  178.5390  145.0940 C   0  0  0  0  0  2  0  0  0  0  0  0
  188.5390  177.2200  147.8750 C   0  0  0  0  0  2  0  0  0  0  0  0
  186.0800  177.7750  145.4670 C   0  0  1  0  0  3  0  0  0  0  0  0
  187.2920  177.7850  147.5570 O   0  0  0  0  0  0  0  0  0  0  0  0
  186.1730  177.9650  143.9290 C   0  0  1  0  0  3  0  0  0  0  0  0
  185.5470  179.2860  143.4870 C   0  0  0  0  0  2  0  0  0  0  0  0
  187.3570  178.2060  146.2130 C   0  0  1  0  0  3  0  0  0  0  0  0
  183.6820  180.6660  144.0120 O   0  0  0  0  0  1  0  0  0  0  0  0
  190.5830  176.9130  146.7090 O   0  0  0  0  0  1  0  0  0  0  0  0
  188.6540  177.6890  145.5840 C   0  0  1  0  0  3  0  0  0  0  0  0
  183.0030  178.2610  139.2810 C   0  0  0  0  0  2  0  0  0  0  0  0
  183.6600  177.2810  138.3390 C   0  0  0  0  0  0  0  0  0  0  0  0
  182.7850  174.1110  136.3640 C   0  0  0  0  0  1  0  0  0  0  0  0
  183.6900  175.0590  137.1230 C   0  0  2  0  0  3  0  0  0  0  0  0
  184.9240  177.4810  137.8770 C   0  0  0  0  0  0  0  0  0  0  0  0
  182.8390  176.1140  137.8240 C   0  0  0  0  0  2  0  0  0  0  0  0
  185.5790  176.4430  137.0010 C   0  0  0  0  0  2  0  0  0  0  0  0
  184.6010  175.7170  136.1970 N   0  0  0  0  0  2  0  0  0  0  0  0
  185.7610  178.5830  138.2770 N   0  0  0  0  0  2  0  0  0  0  0  0
  186.7860  178.5210  139.2380 N   0  0  0  0  0  2  0  0  0  0  0  0
  190.2840  177.1140  139.2990 C   0  0  0  0  0  2  0  0  0  0  0  0
  189.5730  178.1720  136.7360 C   0  0  0  0  0  2  0  0  0  0  0  0
  187.9020  177.7940  138.6520 C   0  0  2  0  0  3  0  0  0  0  0  0
  190.3080  176.2350  138.0790 C   0  0  0  0  0  0  0  0  0  0  0  0
  189.2120  178.2280  139.3060 C   0  0  2  0  0  3  0  0  0  0  0  0
  188.8170  178.7820  137.9360 C   0  0  1  0  0  3  0  0  0  0  0  0
  189.9630  176.7330  136.8900 C   0  0  0  0  0  3  0  0  0  0  0  0
  190.7420  173.9760  137.1390 C   0  0  0  0  0  1  0  0  0  0  0  0
  190.6980  174.8970  138.2260 O   0  0  0  0  0  0  0  0  0  0  0  0
  1  5  2  0  0  0  0
  2  3  2  0  0  0  0
  3  5  1  0  0  0  0
  4 21  1  6  0  0  0
  4  2  1  0  0  0  0
  4  1  1  0  0  0  0
  5  7  1  0  0  0  0
  7 18  1  1  0  0  0
  7 11  1  0  0  0  0
  8 19  1  1  0  0  0
  8 12  1  0  0  0  0
  9 10  1  0  0  0  0
 11  6  1  0  0  0  0
 13  6  1  1  0  0  0
 13 17  1  0  0  0  0
 14 12  1  0  0  0  0
 15  9  1  1  0  0  0
 15 13  1  0  0  0  0
 16  7  1  0  0  0  0
 16 15  1  0  0  0  0
 17 14  1  1  0  0  0
 20 10  1  6  0  0  0
 20 17  1  0  0  0  0
 20  8  1  0  0  0  0
 22 21  1  0  0  0  0
 24 23  1  6  0  0  0
 24 26  1  0  0  0  0
 25 29  1  0  0  0  0
 25 22  2  0  0  0  0
 26 22  1  0  0  0  0
 27 25  1  0  0  0  0
 28 27  1  0  0  0  0
 28 24  1  0  0  0  0
 29 30  1  0  0  0  0
 32 37  1  0  0  0  0
 33 30  1  1  0  0  0
 33 35  1  0  0  0  0
 34 39  1  0  0  0  0
 34 31  1  0  0  0  0
 35 31  1  6  0  0  0
 36 32  1  6  0  0  0
 36 33  1  0  0  0  0
 36 35  1  0  0  0  0
 37 34  2  0  0  0  0
 38 39  1  0  0  0  0
M  END
>  <MODEL>
2

>  <REMARK>
 VINA RESULT:      -9.3      3.280      6.174
  Name = 
  7 active torsions:
  status: ('A' for Active; 'I' for Inactive)
    1  A    between atoms: C_3  and  C_35
    2  A    between atoms: C_6  and  C_32
    3  A    between atoms: N_11  and  C_18
    4  A    between atoms: N_11  and  N_19
    5  A    between atoms: N_19  and  C_23
    6  A    between atoms: C_20  and  O_27
    7  A    between atoms: C_32  and  C_34
                            x       y       z     vdW  Elec       q    Type
                         _______ _______ _______ _____ _____    ______ ____

>  <TORSDO>
F 7

$$$$
=
 OpenBabel11062417433D

 39 45  0  0  1  0  0  0  0  0999 V2000
  185.9470  178.5010  141.6410 C   0  0  0  0  0  3  0  0  0  0  0  0
  184.4720  178.4680  143.5000 N   0  0  0  0  0  0  0  0  0  0  0  0
  183.7390  178.7820  142.2730 C   0  0  0  0  0  3  0  0  0  0  0  0
  185.8890  178.4130  143.1260 C   0  0  1  0  0  3  0  0  0  0  0  0
  184.7350  178.7240  141.1700 C   0  0  0  0  0  0  0  0  0  0  0  0
  185.0220  177.6890  137.5380 C   0  0  0  0  0  2  0  0  0  0  0  0
  184.4170  178.8890  139.7020 C   0  0  1  0  0  0  0  0  0  0  0  0
  182.2080  174.3920  135.7120 C   0  0  2  0  0  3  0  0  0  0  0  0
  181.7550  176.1500  139.0400 C   0  0  0  0  0  2  0  0  0  0  0  0
  181.7030  174.9870  138.0610 C   0  0  0  0  0  2  0  0  0  0  0  0
  185.5390  178.2390  138.8670 C   0  0  0  0  0  2  0  0  0  0  0  0
  183.1710  175.0200  134.7410 C   0  0  0  0  0  2  0  0  0  0  0  0
  183.9640  176.5930  137.7480 C   0  0  1  0  0  3  0  0  0  0  0  0
  183.8830  176.0380  135.3990 O   0  0  0  0  0  0  0  0  0  0  0  0
  183.1390  176.8030  139.0460 C   0  0  1  0  0  3  0  0  0  0  0  0
  183.0310  178.2830  139.4100 C   0  0  0  0  0  2  0  0  0  0  0  0
  183.0920  176.4620  136.4860 C   0  0  1  0  0  3  0  0  0  0  0  0
  184.3660  180.2510  139.3880 O   0  0  0  0  0  1  0  0  0  0  0  0
  181.0490  174.0000  135.0390 O   0  0  0  0  0  1  0  0  0  0  0  0
  181.9000  175.5130  136.6440 C   0  0  1  0  0  3  0  0  0  0  0  0
  186.5050  177.1030  143.6060 C   0  0  0  0  0  2  0  0  0  0  0  0
  187.7200  177.2710  144.4880 C   0  0  0  0  0  0  0  0  0  0  0  0
  188.5760  177.8300  148.1860 C   0  0  0  0  0  1  0  0  0  0  0  0
  188.7820  177.9350  146.6890 C   0  0  2  0  0  3  0  0  0  0  0  0
  188.9780  177.1200  143.9960 C   0  0  0  0  0  0  0  0  0  0  0  0
  187.5070  177.5030  145.9730 C   0  0  0  0  0  2  0  0  0  0  0  0
  190.1700  177.3710  144.8850 C   0  0  0  0  0  2  0  0  0  0  0  0
  189.8780  177.0670  146.2820 N   0  0  0  0  0  2  0  0  0  0  0  0
  189.2740  176.8550  142.6100 N   0  0  0  0  0  2  0  0  0  0  0  0
  189.3920  177.8270  141.6020 N   0  0  0  0  0  2  0  0  0  0  0  0
  191.2400  176.2770  138.7040 C   0  0  0  0  0  2  0  0  0  0  0  0
  188.8940  177.6920  137.8760 C   0  0  0  0  0  2  0  0  0  0  0  0
  189.4530  177.1370  140.3220 C   0  0  2  0  0  3  0  0  0  0  0  0
  190.1460  175.5660  137.9560 C   0  0  0  0  0  0  0  0  0  0  0  0
  190.7850  177.4250  139.6350 C   0  0  2  0  0  3  0  0  0  0  0  0
  189.5210  178.1710  139.2040 C   0  0  1  0  0  3  0  0  0  0  0  0
  189.0500  176.2300  137.5850 C   0  0  0  0  0  3  0  0  0  0  0  0
  191.2780  173.7180  136.7410 C   0  0  0  0  0  1  0  0  0  0  0  0
  190.3100  174.2050  137.6660 O   0  0  0  0  0  0  0  0  0  0  0  0
  1  4  1  0  0  0  0
  3  2  2  0  0  0  0
  4  2  1  0  0  0  0
  4 21  1  6  0  0  0
  5  1  2  0  0  0  0
  5  3  1  0  0  0  0
  6 11  1  0  0  0  0
  7 18  1  6  0  0  0
  7  5  1  0  0  0  0
  8 19  1  6  0  0  0
  8 20  1  0  0  0  0
 10  9  1  0  0  0  0
 11  7  1  0  0  0  0
 12 14  1  0  0  0  0
 12  8  1  0  0  0  0
 13  6  1  6  0  0  0
 13 15  1  0  0  0  0
 15  9  1  6  0  0  0
 15 16  1  0  0  0  0
 16  7  1  0  0  0  0
 17 14  1  6  0  0  0
 17 20  1  0  0  0  0
 17 13  1  0  0  0  0
 20 10  1  1  0  0  0
 21 22  1  0  0  0  0
 22 26  1  0  0  0  0
 24 23  1  1  0  0  0
 25 22  2  0  0  0  0
 25 27  1  0  0  0  0
 26 24  1  0  0  0  0
 27 28  1  0  0  0  0
 28 24  1  0  0  0  0
 29 25  1  0  0  0  0
 30 29  1  0  0  0  0
 33 30  1  1  0  0  0
 34 31  1  0  0  0  0
 35 31  1  6  0  0  0
 35 33  1  0  0  0  0
 36 32  1  6  0  0  0
 36 35  1  0  0  0  0
 36 33  1  0  0  0  0
 37 32  1  0  0  0  0
 37 34  2  0  0  0  0
 38 39  1  0  0  0  0
 39 34  1  0  0  0  0
M  END
>  <MODEL>
3

>  <REMARK>
 VINA RESULT:      -9.1      4.801      8.579
  Name = 
  7 active torsions:
  status: ('A' for Active; 'I' for Inactive)
    1  A    between atoms: C_3  and  C_35
    2  A    between atoms: C_6  and  C_32
    3  A    between atoms: N_11  and  C_18
    4  A    between atoms: N_11  and  N_19
    5  A    between atoms: N_19  and  C_23
    6  A    between atoms: C_20  and  O_27
    7  A    between atoms: C_32  and  C_34
                            x       y       z     vdW  Elec       q    Type
                         _______ _______ _______ _____ _____    ______ ____

>  <TORSDO>
F 7

$$$$
=
 OpenBabel11062417433D

 39 45  0  0  1  0  0  0  0  0999 V2000
  183.9100  177.9270  141.8000 C   0  0  0  0  0  3  0  0  0  0  0  0
  181.6240  178.2210  141.2380 N   0  0  0  0  0  0  0  0  0  0  0  0
  181.9320  178.9060  142.4930 C   0  0  0  0  0  3  0  0  0  0  0  0
  182.8400  177.4950  140.8600 C   0  0  1  0  0  3  0  0  0  0  0  0
  183.3880  178.7100  142.7250 C   0  0  0  0  0  0  0  0  0  0  0  0
  184.9460  178.5870  146.1750 C   0  0  0  0  0  2  0  0  0  0  0  0
  184.1780  179.3210  143.8590 C   0  0  1  0  0  0  0  0  0  0  0  0
  189.2230  176.7510  146.8550 C   0  0  2  0  0  3  0  0  0  0  0  0
  187.6670  177.6670  143.5210 C   0  0  0  0  0  2  0  0  0  0  0  0
  188.5110  176.8470  144.4860 C   0  0  0  0  0  2  0  0  0  0  0  0
  183.7880  178.6230  145.1780 C   0  0  0  0  0  2  0  0  0  0  0  0
  188.5660  177.3180  148.0850 C   0  0  0  0  0  2  0  0  0  0  0  0
  186.1480  177.8040  145.6230 C   0  0  1  0  0  3  0  0  0  0  0  0
  187.3420  177.9030  147.7210 O   0  0  0  0  0  0  0  0  0  0  0  0
  186.2610  177.8960  144.0770 C   0  0  1  0  0  3  0  0  0  0  0  0
  185.6830  179.2070  143.5490 C   0  0  0  0  0  2  0  0  0  0  0  0
  187.4330  178.2380  146.3540 C   0  0  1  0  0  3  0  0  0  0  0  0
  183.8610  180.6780  143.9680 O   0  0  0  0  0  1  0  0  0  0  0  0
  190.6090  176.8720  146.9620 O   0  0  0  0  0  1  0  0  0  0  0  0
  188.7170  177.6400  145.7720 C   0  0  1  0  0  3  0  0  0  0  0  0
  183.2240  177.8340  139.4230 C   0  0  0  0  0  2  0  0  0  0  0  0
  182.9220  176.7450  138.4220 C   0  0  0  0  0  0  0  0  0  0  0  0
  180.1480  174.2200  137.6180 C   0  0  0  0  0  1  0  0  0  0  0  0
  181.5700  174.7370  137.6760 C   0  0  2  0  0  3  0  0  0  0  0  0
  183.7390  176.5130  137.3600 C   0  0  0  0  0  0  0  0  0  0  0  0
  181.6190  175.9790  138.5600 C   0  0  0  0  0  2  0  0  0  0  0  0
  183.4500  175.3670  136.4230 C   0  0  0  0  0  2  0  0  0  0  0  0
  182.0210  175.0860  136.3360 N   0  0  0  0  0  2  0  0  0  0  0  0
  184.9730  177.2200  137.1250 N   0  0  0  0  0  2  0  0  0  0  0  0
  186.1430  176.6590  136.5830 N   0  0  0  0  0  2  0  0  0  0  0  0
  187.6090  178.0750  139.7560 C   0  0  0  0  0  2  0  0  0  0  0  0
  189.1070  178.8140  137.4310 C   0  0  0  0  0  2  0  0  0  0  0  0
  187.2550  177.0320  137.4450 C   0  0  2  0  0  3  0  0  0  0  0  0
  189.0640  177.7110  139.6390 C   0  0  0  0  0  0  0  0  0  0  0  0
  186.8150  178.1130  138.4290 C   0  0  2  0  0  3  0  0  0  0  0  0
  187.6180  178.4890  137.1820 C   0  0  1  0  0  3  0  0  0  0  0  0
  189.7510  178.0480  138.5460 C   0  0  0  0  0  3  0  0  0  0  0  0
  190.8200  177.4930  141.3830 C   0  0  0  0  0  1  0  0  0  0  0  0
  189.6660  177.0160  140.6970 O   0  0  0  0  0  0  0  0  0  0  0  0
  1  5  2  0  0  0  0
  2  3  2  0  0  0  0
  3  5  1  0  0  0  0
  4 21  1  6  0  0  0
  4  2  1  0  0  0  0
  4  1  1  0  0  0  0
  5  7  1  0  0  0  0
  7 18  1  1  0  0  0
  7 11  1  0  0  0  0
  8 19  1  1  0  0  0
  8 12  1  0  0  0  0
  9 10  1  0  0  0  0
 11  6  1  0  0  0  0
 13  6  1  1  0  0  0
 13 17  1  0  0  0  0
 14 12  1  0  0  0  0
 15  9  1  1  0  0  0
 15 13  1  0  0  0  0
 16  7  1  0  0  0  0
 16 15  1  0  0  0  0
 17 14  1  1  0  0  0
 20 10  1  6  0  0  0
 20 17  1  0  0  0  0
 20  8  1  0  0  0  0
 22 26  1  0  0  0  0
 22 21  1  0  0  0  0
 24 23  1  6  0  0  0
 24 26  1  0  0  0  0
 25 22  2  0  0  0  0
 27 25  1  0  0  0  0
 28 27  1  0  0  0  0
 28 24  1  0  0  0  0
 29 25  1  0  0  0  0
 30 29  1  0  0  0  0
 32 37  1  0  0  0  0
 33 30  1  6  0  0  0
 33 35  1  0  0  0  0
 34 31  1  0  0  0  0
 34 39  1  0  0  0  0
 35 31  1  1  0  0  0
 36 32  1  1  0  0  0
 36 33  1  0  0  0  0
 36 35  1  0  0  0  0
 37 34  2  0  0  0  0
 39 38  1  0  0  0  0
M  END
>  <MODEL>
4

>  <REMARK>
 VINA RESULT:      -9.1      3.857      6.595
  Name = 
  7 active torsions:
  status: ('A' for Active; 'I' for Inactive)
    1  A    between atoms: C_3  and  C_35
    2  A    between atoms: C_6  and  C_32
    3  A    between atoms: N_11  and  C_18
    4  A    between atoms: N_11  and  N_19
    5  A    between atoms: N_19  and  C_23
    6  A    between atoms: C_20  and  O_27
    7  A    between atoms: C_32  and  C_34
                            x       y       z     vdW  Elec       q    Type
                         _______ _______ _______ _____ _____    ______ ____

>  <TORSDO>
F 7

$$$$
=
 OpenBabel11062417433D

 39 45  0  0  1  0  0  0  0  0999 V2000
  185.5710  178.6150  139.1890 C   0  0  0  0  0  3  0  0  0  0  0  0
  183.7230  177.4770  138.2310 N   0  0  0  0  0  0  0  0  0  0  0  0
  184.8650  177.4530  137.3170 C   0  0  0  0  0  3  0  0  0  0  0  0
  184.1230  178.3180  139.3630 C   0  0  1  0  0  3  0  0  0  0  0  0
  185.9780  178.1370  138.0280 C   0  0  0  0  0  0  0  0  0  0  0  0
  189.7240  177.6710  138.3350 C   0  0  0  0  0  2  0  0  0  0  0  0
  187.3900  178.2710  137.5080 C   0  0  1  0  0  0  0  0  0  0  0  0
  191.7900  173.6370  137.0800 C   0  0  2  0  0  3  0  0  0  0  0  0
  188.2410  174.6970  136.2740 C   0  0  0  0  0  2  0  0  0  0  0  0
  189.3570  173.7270  136.6310 C   0  0  0  0  0  2  0  0  0  0  0  0
  188.3680  178.2750  138.7010 C   0  0  0  0  0  2  0  0  0  0  0  0
  192.7280  174.7160  137.5530 C   0  0  0  0  0  2  0  0  0  0  0  0
  189.5940  176.2020  137.9000 C   0  0  1  0  0  3  0  0  0  0  0  0
  191.9870  175.8820  137.8110 O   0  0  0  0  0  0  0  0  0  0  0  0
  188.2330  175.9010  137.2170 C   0  0  1  0  0  3  0  0  0  0  0  0
  187.6740  177.1330  136.5090 C   0  0  0  0  0  2  0  0  0  0  0  0
  190.8080  175.8050  137.0400 C   0  0  1  0  0  3  0  0  0  0  0  0
  187.5210  179.4850  136.8260 O   0  0  0  0  0  1  0  0  0  0  0  0
  192.4370  172.8260  136.1470 O   0  0  0  0  0  1  0  0  0  0  0  0
  190.7040  174.4100  136.4160 C   0  0  1  0  0  3  0  0  0  0  0  0
  183.8850  177.5760  140.6740 C   0  0  0  0  0  2  0  0  0  0  0  0
  182.9450  178.2770  141.6270 C   0  0  0  0  0  0  0  0  0  0  0  0
  179.2630  179.3320  141.8330 C   0  0  0  0  0  1  0  0  0  0  0  0
  180.7470  179.4360  142.1160 C   0  0  2  0  0  3  0  0  0  0  0  0
  183.3430  178.6360  142.8770 C   0  0  0  0  0  0  0  0  0  0  0  0
  181.5030  178.4780  141.2010 C   0  0  0  0  0  2  0  0  0  0  0  0
  182.4060  179.4040  143.7740 C   0  0  0  0  0  2  0  0  0  0  0  0
  181.0090  179.0790  143.5030 N   0  0  0  0  0  2  0  0  0  0  0  0
  184.6790  178.4460  143.3820 N   0  0  0  0  0  2  0  0  0  0  0  0
  185.0890  178.6710  144.7080 N   0  0  0  0  0  2  0  0  0  0  0  0
  188.2020  176.7560  143.7790 C   0  0  0  0  0  2  0  0  0  0  0  0
  188.1490  177.4860  146.5460 C   0  0  0  0  0  2  0  0  0  0  0  0
  186.5180  178.4010  144.7840 C   0  0  2  0  0  3  0  0  0  0  0  0
  189.2980  177.6030  144.3650 C   0  0  0  0  0  0  0  0  0  0  0  0
  186.7970  176.9510  144.3960 C   0  0  2  0  0  3  0  0  0  0  0  0
  186.7670  177.3600  145.8700 C   0  0  1  0  0  3  0  0  0  0  0  0
  189.2590  177.9490  145.6520 C   0  0  0  0  0  3  0  0  0  0  0  0
  191.2920  179.0110  143.9000 C   0  0  0  0  0  1  0  0  0  0  0  0
  190.3460  178.0120  143.5290 O   0  0  0  0  0  0  0  0  0  0  0  0
  1  4  1  0  0  0  0
  2  4  1  0  0  0  0
  3  5  1  0  0  0  0
  3  2  2  0  0  0  0
  4 21  1  1  0  0  0
  5  1  2  0  0  0  0
  6 11  1  0  0  0  0
  7 18  1  6  0  0  0
  7  5  1  0  0  0  0
  7 11  1  0  0  0  0
  8 19  1  6  0  0  0
  8 12  1  0  0  0  0
  9 10  1  0  0  0  0
 12 14  1  0  0  0  0
 13  6  1  6  0  0  0
 15  9  1  6  0  0  0
 15 13  1  0  0  0  0
 16 15  1  0  0  0  0
 16  7  1  0  0  0  0
 17 14  1  1  0  0  0
 17 13  1  0  0  0  0
 20 10  1  1  0  0  0
 20 17  1  0  0  0  0
 20  8  1  0  0  0  0
 21 22  1  0  0  0  0
 22 25  2  0  0  0  0
 24 23  1  6  0  0  0
 24 28  1  0  0  0  0
 25 29  1  0  0  0  0
 25 27  1  0  0  0  0
 26 22  1  0  0  0  0
 26 24  1  0  0  0  0
 28 27  1  0  0  0  0
 29 30  1  0  0  0  0
 31 34  1  0  0  0  0
 33 30  1  1  0  0  0
 33 36  1  0  0  0  0
 34 37  2  0  0  0  0
 35 31  1  6  0  0  0
 35 33  1  0  0  0  0
 35 36  1  0  0  0  0
 36 32  1  6  0  0  0
 37 32  1  0  0  0  0
 39 38  1  0  0  0  0
 39 34  1  0  0  0  0
M  END
>  <MODEL>
5

>  <REMARK>
 VINA RESULT:      -8.5      4.104      9.510
  Name = 
  7 active torsions:
  status: ('A' for Active; 'I' for Inactive)
    1  A    between atoms: C_3  and  C_35
    2  A    between atoms: C_6  and  C_32
    3  A    between atoms: N_11  and  C_18
    4  A    between atoms: N_11  and  N_19
    5  A    between atoms: N_19  and  C_23
    6  A    between atoms: C_20  and  O_27
    7  A    between atoms: C_32  and  C_34
                            x       y       z     vdW  Elec       q    Type
                         _______ _______ _______ _____ _____    ______ ____

>  <TORSDO>
F 7

$$$$
=
 OpenBabel11062417433D

 39 45  0  0  1  0  0  0  0  0999 V2000
  190.3320  176.6050  140.8900 C   0  0  0  0  0  3  0  0  0  0  0  0
  192.4010  177.2600  139.9310 N   0  0  0  0  0  0  0  0  0  0  0  0
  192.4980  177.2470  141.3910 C   0  0  0  0  0  3  0  0  0  0  0  0
  190.9990  176.9760  139.6120 C   0  0  1  0  0  3  0  0  0  0  0  0
  191.1790  176.7750  141.8890 C   0  0  0  0  0  0  0  0  0  0  0  0
  190.2580  177.9260  145.3780 C   0  0  0  0  0  2  0  0  0  0  0  0
  190.8380  176.5140  143.3380 C   0  0  1  0  0  0  0  0  0  0  0  0
  185.7840  178.7620  146.5680 C   0  0  2  0  0  3  0  0  0  0  0  0
  186.9900  176.9630  143.4560 C   0  0  0  0  0  2  0  0  0  0  0  0
  186.0890  177.8720  144.2780 C   0  0  0  0  0  2  0  0  0  0  0  0
  191.1800  177.7680  144.1690 C   0  0  0  0  0  2  0  0  0  0  0  0
  186.7860  178.9370  147.6780 C   0  0  0  0  0  2  0  0  0  0  0  0
  188.7880  178.0870  144.9550 C   0  0  1  0  0  3  0  0  0  0  0  0
  188.0590  178.5750  147.2050 O   0  0  0  0  0  0  0  0  0  0  0  0
  188.4620  177.3390  143.6340 C   0  0  1  0  0  3  0  0  0  0  0  0
  189.3540  176.1140  143.4470 C   0  0  0  0  0  2  0  0  0  0  0  0
  187.8640  177.6930  146.1220 C   0  0  1  0  0  3  0  0  0  0  0  0
  191.6090  175.4470  143.8110 O   0  0  0  0  0  1  0  0  0  0  0  0
  184.5580  178.3590  147.0980 O   0  0  0  0  0  1  0  0  0  0  0  0
  186.3770  177.6590  145.7600 C   0  0  1  0  0  3  0  0  0  0  0  0
  190.9130  175.8260  138.6140 C   0  0  0  0  0  2  0  0  0  0  0  0
  191.6570  176.0650  137.3210 C   0  0  0  0  0  0  0  0  0  0  0  0
  195.2190  175.8010  135.9220 C   0  0  0  0  0  1  0  0  0  0  0  0
  193.8160  176.3620  136.0320 C   0  0  2  0  0  3  0  0  0  0  0  0
  190.9990  176.3960  136.1780 C   0  0  0  0  0  0  0  0  0  0  0  0
  193.1530  175.8170  137.2940 C   0  0  0  0  0  2  0  0  0  0  0  0
  191.7790  176.7040  134.9240 C   0  0  0  0  0  2  0  0  0  0  0  0
  193.0350  175.9640  134.8700 N   0  0  0  0  0  2  0  0  0  0  0  0
  189.5770  176.6090  136.1000 N   0  0  0  0  0  2  0  0  0  0  0  0
  188.9510  177.8230  135.7630 N   0  0  0  0  0  2  0  0  0  0  0  0
  187.0330  177.6860  139.0060 C   0  0  0  0  0  2  0  0  0  0  0  0
  185.5460  176.6140  136.8080 C   0  0  0  0  0  2  0  0  0  0  0  0
  187.7370  177.9340  136.5580 C   0  0  2  0  0  3  0  0  0  0  0  0
  185.7020  178.2730  138.6290 C   0  0  0  0  0  0  0  0  0  0  0  0
  187.8750  177.1160  137.8400 C   0  0  2  0  0  3  0  0  0  0  0  0
  187.0820  176.5600  136.6560 C   0  0  1  0  0  3  0  0  0  0  0  0
  185.0210  177.7760  137.5940 C   0  0  0  0  0  3  0  0  0  0  0  0
  184.8350  179.2240  140.7550 C   0  0  0  0  0  1  0  0  0  0  0  0
  185.2060  179.3450  139.3840 O   0  0  0  0  0  0  0  0  0  0  0  0
  1  5  2  0  0  0  0
  2  3  2  0  0  0  0
  3  5  1  0  0  0  0
  4 21  1  6  0  0  0
  4  2  1  0  0  0  0
  4  1  1  0  0  0  0
  5  7  1  0  0  0  0
  7 16  1  0  0  0  0
  7 18  1  1  0  0  0
  7 11  1  0  0  0  0
  8 19  1  1  0  0  0
  8 12  1  0  0  0  0
  9 15  1  0  0  0  0
  9 10  1  0  0  0  0
 11  6  1  0  0  0  0
 13  6  1  1  0  0  0
 13 17  1  0  0  0  0
 14 12  1  0  0  0  0
 15 16  1  1  0  0  0
 15 13  1  0  0  0  0
 17 14  1  1  0  0  0
 20 10  1  6  0  0  0
 20 17  1  0  0  0  0
 20  8  1  0  0  0  0
 22 21  1  0  0  0  0
 24 23  1  6  0  0  0
 24 26  1  0  0  0  0
 25 22  2  0  0  0  0
 26 22  1  0  0  0  0
 27 25  1  0  0  0  0
 28 27  1  0  0  0  0
 28 24  1  0  0  0  0
 29 25  1  0  0  0  0
 30 29  1  0  0  0  0
 32 37  1  0  0  0  0
 33 30  1  6  0  0  0
 33 36  1  0  0  0  0
 33 35  1  0  0  0  0
 34 31  1  0  0  0  0
 34 39  1  0  0  0  0
 35 31  1  1  0  0  0
 36 32  1  1  0  0  0
 36 35  1  0  0  0  0
 37 34  2  0  0  0  0
 39 38  1  0  0  0  0
M  END
>  <MODEL>
6

>  <REMARK>
 VINA RESULT:      -8.3      1.975      5.167
  Name = 
  7 active torsions:
  status: ('A' for Active; 'I' for Inactive)
    1  A    between atoms: C_3  and  C_35
    2  A    between atoms: C_6  and  C_32
    3  A    between atoms: N_11  and  C_18
    4  A    between atoms: N_11  and  N_19
    5  A    between atoms: N_19  and  C_23
    6  A    between atoms: C_20  and  O_27
    7  A    between atoms: C_32  and  C_34
                            x       y       z     vdW  Elec       q    Type
                         _______ _______ _______ _____ _____    ______ ____

>  <TORSDO>
F 7

$$$$
=
 OpenBabel11062417433D

 39 45  0  0  1  0  0  0  0  0999 V2000
  189.2050  176.7500  139.7200 C   0  0  0  0  0  3  0  0  0  0  0  0
  188.3050  178.9120  139.3440 N   0  0  0  0  0  0  0  0  0  0  0  0
  188.6240  178.7320  140.7610 C   0  0  0  0  0  3  0  0  0  0  0  0
  188.5530  177.6180  138.7020 C   0  0  1  0  0  3  0  0  0  0  0  0
  189.2280  177.3790  140.8800 C   0  0  0  0  0  0  0  0  0  0  0  0
  190.7500  177.6920  144.3340 C   0  0  0  0  0  2  0  0  0  0  0  0
  189.7990  176.7900  142.1490 C   0  0  1  0  0  0  0  0  0  0  0  0
  188.0490  178.1610  148.1560 C   0  0  2  0  0  3  0  0  0  0  0  0
  186.8950  177.1370  144.6930 C   0  0  0  0  0  2  0  0  0  0  0  0
  186.7960  177.8210  146.0480 C   0  0  0  0  0  2  0  0  0  0  0  0
  190.7290  177.8270  142.8120 C   0  0  0  0  0  2  0  0  0  0  0  0
  189.5290  178.0950  148.4220 C   0  0  0  0  0  2  0  0  0  0  0  0
  189.3580  177.9210  144.9460 C   0  0  1  0  0  3  0  0  0  0  0  0
  190.2010  177.8710  147.2090 O   0  0  0  0  0  0  0  0  0  0  0  0
  188.2100  177.4870  143.9940 C   0  0  1  0  0  3  0  0  0  0  0  0
  188.6450  176.3510  143.0710 C   0  0  0  0  0  2  0  0  0  0  0  0
  189.2830  177.2560  146.3330 C   0  0  1  0  0  3  0  0  0  0  0  0
  190.5560  175.6560  141.8360 O   0  0  0  0  0  1  0  0  0  0  0  0
  187.3500  177.6280  149.2400 O   0  0  0  0  0  1  0  0  0  0  0  0
  187.8880  177.2810  146.9650 C   0  0  1  0  0  3  0  0  0  0  0  0
  189.4670  177.8020  137.4950 C   0  0  0  0  0  2  0  0  0  0  0  0
  190.3300  176.6040  137.1770 C   0  0  0  0  0  0  0  0  0  0  0  0
  193.8330  175.2520  137.9650 C   0  0  0  0  0  1  0  0  0  0  0  0
  192.5850  175.4510  137.1300 C   0  0  2  0  0  3  0  0  0  0  0  0
  189.8410  175.5440  136.4800 C   0  0  0  0  0  0  0  0  0  0  0  0
  191.7340  176.5550  137.7510 C   0  0  0  0  0  2  0  0  0  0  0  0
  190.7520  174.4000  136.1120 C   0  0  0  0  0  2  0  0  0  0  0  0
  191.8140  174.2160  137.0950 N   0  0  0  0  0  2  0  0  0  0  0  0
  188.5090  175.4860  135.9340 N   0  0  0  0  0  2  0  0  0  0  0  0
  187.8930  174.3360  135.4080 N   0  0  0  0  0  2  0  0  0  0  0  0
  184.9300  175.8310  137.1980 C   0  0  0  0  0  2  0  0  0  0  0  0
  185.1320  173.0020  137.5860 C   0  0  0  0  0  2  0  0  0  0  0  0
  186.5120  174.3220  135.8660 C   0  0  2  0  0  3  0  0  0  0  0  0
  183.8040  174.9230  136.7880 C   0  0  0  0  0  0  0  0  0  0  0  0
  186.3530  175.2360  137.0790 C   0  0  2  0  0  3  0  0  0  0  0  0
  186.4600  173.7220  137.2670 C   0  0  1  0  0  3  0  0  0  0  0  0
  183.9110  173.6050  136.9610 C   0  0  0  0  0  3  0  0  0  0  0  0
  181.3660  174.8940  136.3090 C   0  0  0  0  0  1  0  0  0  0  0  0
  182.6550  175.4960  136.2260 O   0  0  0  0  0  0  0  0  0  0  0  0
  1  5  2  0  0  0  0
  2  3  2  0  0  0  0
  3  5  1  0  0  0  0
  4 21  1  6  0  0  0
  4  2  1  0  0  0  0
  4  1  1  0  0  0  0
  5  7  1  0  0  0  0
  7 18  1  6  0  0  0
  7 11  1  0  0  0  0
  7 16  1  0  0  0  0
  8 12  1  0  0  0  0
  8 19  1  1  0  0  0
  9 10  1  0  0  0  0
 11  6  1  0  0  0  0
 13  6  1  6  0  0  0
 13 17  1  0  0  0  0
 14 12  1  0  0  0  0
 15 16  1  1  0  0  0
 15  9  1  0  0  0  0
 15 13  1  0  0  0  0
 17 20  1  0  0  0  0
 17 14  1  1  0  0  0
 20 10  1  6  0  0  0
 20  8  1  0  0  0  0
 22 21  1  0  0  0  0
 22 26  1  0  0  0  0
 24 26  1  0  0  0  0
 24 23  1  1  0  0  0
 25 22  2  0  0  0  0
 27 25  1  0  0  0  0
 27 28  1  0  0  0  0
 28 24  1  0  0  0  0
 29 25  1  0  0  0  0
 30 29  1  0  0  0  0
 33 30  1  1  0  0  0
 33 35  1  0  0  0  0
 33 36  1  0  0  0  0
 34 37  2  0  0  0  0
 34 31  1  0  0  0  0
 35 31  1  6  0  0  0
 35 36  1  0  0  0  0
 36 32  1  6  0  0  0
 37 32  1  0  0  0  0
 39 38  1  0  0  0  0
 39 34  1  0  0  0  0
M  END
>  <MODEL>
7

>  <REMARK>
 VINA RESULT:      -8.3      2.925      5.692
  Name = 
  7 active torsions:
  status: ('A' for Active; 'I' for Inactive)
    1  A    between atoms: C_3  and  C_35
    2  A    between atoms: C_6  and  C_32
    3  A    between atoms: N_11  and  C_18
    4  A    between atoms: N_11  and  N_19
    5  A    between atoms: N_19  and  C_23
    6  A    between atoms: C_20  and  O_27
    7  A    between atoms: C_32  and  C_34
                            x       y       z     vdW  Elec       q    Type
                         _______ _______ _______ _____ _____    ______ ____

>  <TORSDO>
F 7

$$$$
=
 OpenBabel11062417433D

 39 45  0  0  1  0  0  0  0  0999 V2000
  188.3790  176.8580  138.6000 C   0  0  0  0  0  3  0  0  0  0  0  0
  189.0550  179.0690  138.0680 N   0  0  0  0  0  0  0  0  0  0  0  0
  188.6310  178.3600  136.8600 C   0  0  0  0  0  3  0  0  0  0  0  0
  189.0160  178.0840  139.1530 C   0  0  1  0  0  3  0  0  0  0  0  0
  188.1790  177.0160  137.3060 C   0  0  0  0  0  0  0  0  0  0  0  0
  186.5660  173.6400  136.7160 C   0  0  0  0  0  2  0  0  0  0  0  0
  187.5670  175.9630  136.4110 C   0  0  1  0  0  0  0  0  0  0  0  0
  181.9280  173.0330  137.2170 C   0  0  2  0  0  3  0  0  0  0  0  0
  183.7610  176.3470  137.0390 C   0  0  0  0  0  2  0  0  0  0  0  0
  182.6960  175.3690  137.5100 C   0  0  0  0  0  2  0  0  0  0  0  0
  187.7110  174.5830  137.0850 C   0  0  0  0  0  2  0  0  0  0  0  0
  182.6880  171.8160  136.7630 C   0  0  0  0  0  2  0  0  0  0  0  0
  185.2040  174.1930  137.1700 C   0  0  1  0  0  3  0  0  0  0  0  0
  184.0370  172.1630  136.5760 O   0  0  0  0  0  0  0  0  0  0  0  0
  185.1610  175.7440  137.1710 C   0  0  1  0  0  3  0  0  0  0  0  0
  186.0990  176.3340  136.1210 C   0  0  0  0  0  2  0  0  0  0  0  0
  184.0780  173.5520  136.3370 C   0  0  1  0  0  3  0  0  0  0  0  0
  188.2530  175.9330  135.1930 O   0  0  0  0  0  1  0  0  0  0  0  0
  180.6310  172.9980  136.7040 O   0  0  0  0  0  1  0  0  0  0  0  0
  182.6920  174.1500  136.5940 C   0  0  1  0  0  3  0  0  0  0  0  0
  188.2000  178.6280  140.3220 C   0  0  0  0  0  2  0  0  0  0  0  0
  188.3410  177.8390  141.6020 C   0  0  0  0  0  0  0  0  0  0  0  0
  190.9260  175.6470  143.4000 C   0  0  0  0  0  1  0  0  0  0  0  0
  189.5360  176.1120  143.0180 C   0  0  2  0  0  3  0  0  0  0  0  0
  187.3830  177.8780  142.5670 C   0  0  0  0  0  0  0  0  0  0  0  0
  189.6340  177.0820  141.8440 C   0  0  0  0  0  2  0  0  0  0  0  0
  187.5180  177.0180  143.7980 C   0  0  0  0  0  2  0  0  0  0  0  0
  188.9160  176.7890  144.1480 N   0  0  0  0  0  2  0  0  0  0  0  0
  186.1450  178.6040  142.4420 N   0  0  0  0  0  2  0  0  0  0  0  0
  184.8590  178.0430  142.5340 N   0  0  0  0  0  2  0  0  0  0  0  0
  182.0580  177.9470  140.0110 C   0  0  0  0  0  2  0  0  0  0  0  0
  184.3790  179.2970  139.0200 C   0  0  0  0  0  2  0  0  0  0  0  0
  184.0430  178.6250  141.4770 C   0  0  2  0  0  3  0  0  0  0  0  0
  181.9710  179.3780  139.5570 C   0  0  0  0  0  0  0  0  0  0  0  0
  183.4040  177.5190  140.6410 C   0  0  2  0  0  3  0  0  0  0  0  0
  184.6440  178.2530  140.1260 C   0  0  1  0  0  3  0  0  0  0  0  0
  183.0610  180.0040  139.1090 C   0  0  0  0  0  3  0  0  0  0  0  0
  179.9950  180.1810  140.8320 C   0  0  0  0  0  1  0  0  0  0  0  0
  180.7300  180.0250  139.6210 O   0  0  0  0  0  0  0  0  0  0  0  0
  1  4  1  0  0  0  0
  2  4  1  0  0  0  0
  3  5  1  0  0  0  0
  3  2  2  0  0  0  0
  4 21  1  1  0  0  0
  5  1  2  0  0  0  0
  6 11  1  0  0  0  0
  7 18  1  6  0  0  0
  7 11  1  0  0  0  0
  7  5  1  0  0  0  0
  8 19  1  6  0  0  0
  9 15  1  0  0  0  0
  9 10  1  0  0  0  0
 12  8  1  0  0  0  0
 13  6  1  6  0  0  0
 13 15  1  0  0  0  0
 14 12  1  0  0  0  0
 15 16  1  6  0  0  0
 16  7  1  0  0  0  0
 17 14  1  1  0  0  0
 17 20  1  0  0  0  0
 17 13  1  0  0  0  0
 20  8  1  0  0  0  0
 20 10  1  1  0  0  0
 21 22  1  0  0  0  0
 22 26  1  0  0  0  0
 22 25  2  0  0  0  0
 24 23  1  1  0  0  0
 24 28  1  0  0  0  0
 25 27  1  0  0  0  0
 26 24  1  0  0  0  0
 27 28  1  0  0  0  0
 29 30  1  0  0  0  0
 29 25  1  0  0  0  0
 32 37  1  0  0  0  0
 33 30  1  1  0  0  0
 34 39  1  0  0  0  0
 34 31  1  0  0  0  0
 35 31  1  6  0  0  0
 35 33  1  0  0  0  0
 36 32  1  6  0  0  0
 36 35  1  0  0  0  0
 36 33  1  0  0  0  0
 37 34  2  0  0  0  0
 39 38  1  0  0  0  0
M  END
>  <MODEL>
8

>  <REMARK>
 VINA RESULT:      -8.2      5.087      9.833
  Name = 
  7 active torsions:
  status: ('A' for Active; 'I' for Inactive)
    1  A    between atoms: C_3  and  C_35
    2  A    between atoms: C_6  and  C_32
    3  A    between atoms: N_11  and  C_18
    4  A    between atoms: N_11  and  N_19
    5  A    between atoms: N_19  and  C_23
    6  A    between atoms: C_20  and  O_27
    7  A    between atoms: C_32  and  C_34
                            x       y       z     vdW  Elec       q    Type
                         _______ _______ _______ _____ _____    ______ ____

>  <TORSDO>
F 7

$$$$
=
 OpenBabel11062417433D

 39 45  0  0  1  0  0  0  0  0999 V2000
  187.7780  177.3010  138.6070 C   0  0  0  0  0  3  0  0  0  0  0  0
  188.3300  179.1470  137.2220 N   0  0  0  0  0  0  0  0  0  0  0  0
  189.4520  178.8150  138.1020 C   0  0  0  0  0  3  0  0  0  0  0  0
  187.2240  178.2730  137.6250 C   0  0  1  0  0  3  0  0  0  0  0  0
  189.0280  177.6220  138.8810 C   0  0  0  0  0  0  0  0  0  0  0  0
  191.4600  177.4610  141.7800 C   0  0  0  0  0  2  0  0  0  0  0  0
  189.9000  176.8650  139.8560 C   0  0  1  0  0  0  0  0  0  0  0  0
  189.9480  177.4490  146.2340 C   0  0  2  0  0  3  0  0  0  0  0  0
  187.8340  176.9030  143.1350 C   0  0  0  0  0  2  0  0  0  0  0  0
  188.1450  177.4030  144.5370 C   0  0  0  0  0  2  0  0  0  0  0  0
  191.0250  177.7960  140.3540 C   0  0  0  0  0  2  0  0  0  0  0  0
  191.4390  177.3340  146.0640 C   0  0  0  0  0  2  0  0  0  0  0  0
  190.3040  177.6210  142.7810 C   0  0  1  0  0  3  0  0  0  0  0  0
  191.7370  177.2650  144.6920 O   0  0  0  0  0  0  0  0  0  0  0  0
  188.9190  177.3280  142.1440 C   0  0  1  0  0  3  0  0  0  0  0  0
  189.0270  176.3200  141.0020 C   0  0  0  0  0  2  0  0  0  0  0  0
  190.5850  176.7800  144.0400 C   0  0  1  0  0  3  0  0  0  0  0  0
  190.4870  175.7750  139.2040 O   0  0  0  0  0  1  0  0  0  0  0  0
  189.5520  176.7850  147.3960 O   0  0  0  0  0  1  0  0  0  0  0  0
  189.4220  176.7360  145.0360 C   0  0  1  0  0  3  0  0  0  0  0  0
  186.6680  177.5410  136.4070 C   0  0  0  0  0  2  0  0  0  0  0  0
  186.3380  176.0870  136.6490 C   0  0  0  0  0  0  0  0  0  0  0  0
  188.0730  172.6660  136.6170 C   0  0  0  0  0  1  0  0  0  0  0  0
  186.9120  173.6280  136.4670 C   0  0  2  0  0  3  0  0  0  0  0  0
  185.1170  175.7060  137.1100 C   0  0  0  0  0  0  0  0  0  0  0  0
  187.4390  175.0590  136.4730 C   0  0  0  0  0  2  0  0  0  0  0  0
  184.7940  174.2410  137.2660 C   0  0  0  0  0  2  0  0  0  0  0  0
  185.9840  173.4550  137.5750 N   0  0  0  0  0  2  0  0  0  0  0  0
  184.0250  176.6170  137.3470 N   0  0  0  0  0  2  0  0  0  0  0  0
  183.0290  176.4580  138.3260 N   0  0  0  0  0  2  0  0  0  0  0  0
  182.3700  178.6840  141.2970 C   0  0  0  0  0  2  0  0  0  0  0  0
  184.8430  179.3000  139.9920 C   0  0  0  0  0  2  0  0  0  0  0  0
  183.4420  177.2010  139.5070 C   0  0  2  0  0  3  0  0  0  0  0  0
  183.6680  178.6190  142.0530 C   0  0  0  0  0  0  0  0  0  0  0  0
  182.4460  178.3220  139.7950 C   0  0  2  0  0  3  0  0  0  0  0  0
  183.7730  178.6330  139.1010 C   0  0  1  0  0  3  0  0  0  0  0  0
  184.8170  178.8950  141.4340 C   0  0  0  0  0  3  0  0  0  0  0  0
  184.6510  178.6330  144.3350 C   0  0  0  0  0  1  0  0  0  0  0  0
  183.6340  178.2620  143.4090 O   0  0  0  0  0  0  0  0  0  0  0  0
  1  5  2  0  0  0  0
  2  4  1  0  0  0  0
  2  3  2  0  0  0  0
  3  5  1  0  0  0  0
  4 21  1  6  0  0  0
  4  1  1  0  0  0  0
  5  7  1  0  0  0  0
  7 18  1  6  0  0  0
  7 11  1  0  0  0  0
  7 16  1  0  0  0  0
  8 19  1  1  0  0  0
  9 10  1  0  0  0  0
 11  6  1  0  0  0  0
 12  8  1  0  0  0  0
 13  6  1  6  0  0  0
 13 17  1  0  0  0  0
 14 12  1  0  0  0  0
 15 16  1  6  0  0  0
 15 13  1  0  0  0  0
 15  9  1  0  0  0  0
 17 14  1  1  0  0  0
 17 20  1  0  0  0  0
 20 10  1  6  0  0  0
 20  8  1  0  0  0  0
 21 22  1  0  0  0  0
 22 25  2  0  0  0  0
 24 26  1  0  0  0  0
 24 23  1  1  0  0  0
 24 28  1  0  0  0  0
 25 27  1  0  0  0  0
 25 29  1  0  0  0  0
 26 22  1  0  0  0  0
 27 28  1  0  0  0  0
 29 30  1  0  0  0  0
 31 34  1  0  0  0  0
 32 37  1  0  0  0  0
 33 30  1  6  0  0  0
 33 35  1  0  0  0  0
 34 39  1  0  0  0  0
 35 31  1  1  0  0  0
 36 33  1  0  0  0  0
 36 35  1  0  0  0  0
 36 32  1  1  0  0  0
 37 34  2  0  0  0  0
 39 38  1  0  0  0  0
M  END
>  <MODEL>
9

>  <REMARK>
 VINA RESULT:      -8.2      3.470      7.096
  Name = 
  7 active torsions:
  status: ('A' for Active; 'I' for Inactive)
    1  A    between atoms: C_3  and  C_35
    2  A    between atoms: C_6  and  C_32
    3  A    between atoms: N_11  and  C_18
    4  A    between atoms: N_11  and  N_19
    5  A    between atoms: N_19  and  C_23
    6  A    between atoms: C_20  and  O_27
    7  A    between atoms: C_32  and  C_34
                            x       y       z     vdW  Elec       q    Type
                         _______ _______ _______ _____ _____    ______ ____

>  <TORSDO>
F 7

$$$$
