=
 OpenBabel11062418093D

 25 29  0  0  1  0  0  0  0  0999 V2000
  184.6440  178.7700  143.7800 C   0  0  2  0  0  0  0  0  0  0  0  0
  180.6280  177.9920  140.7580 C   0  0  2  0  0  3  0  0  0  0  0  0
  179.5700  178.1530  142.7630 N   0  0  0  0  0  2  0  0  0  0  0  0
  179.0410  177.2090  142.0920 N   0  0  0  0  0  0  0  0  0  0  0  0
  183.4280  178.7630  144.7080 C   0  0  2  0  0  3  0  0  0  0  0  0
  182.1100  178.7950  143.9790 C   0  0  0  0  0  3  0  0  0  0  0  0
  180.6320  178.8020  142.0040 C   0  0  1  0  0  3  0  0  0  0  0  0
  179.7020  177.0590  140.8420 C   0  0  0  0  0  3  0  0  0  0  0  0
  182.9930  178.6140  140.2560 C   0  0  1  0  0  3  0  0  0  0  0  0
  184.1940  180.0570  144.4430 C   0  0  0  0  0  2  0  0  0  0  0  0
  184.4150  178.7010  142.2980 C   0  0  0  0  0  3  0  0  0  0  0  0
  181.7620  177.9040  139.8990 N   0  0  0  0  0  2  0  0  0  0  0  0
  181.9880  178.6870  142.6500 C   0  0  0  0  0  0  0  0  0  0  0  0
  183.1890  178.6240  141.7670 C   0  0  0  0  0  0  0  0  0  0  0  0
  188.3070  177.1700  145.3560 C   0  0  0  0  0  0  0  0  0  0  0  0
  189.4660  176.6720  145.8490 F   0  0  0  0  0  0  0  0  0  0  0  0
  186.7910  177.5000  143.4970 C   0  0  0  0  0  3  0  0  0  0  0  0
  186.2370  178.3810  145.6860 C   0  0  0  0  0  3  0  0  0  0  0  0
  187.4340  177.8690  146.1940 C   0  0  0  0  0  3  0  0  0  0  0  0
  187.9870  176.9890  144.0070 C   0  0  0  0  0  3  0  0  0  0  0  0
  185.9050  178.1890  144.3370 C   0  0  0  0  0  0  0  0  0  0  0  0
  184.1700  177.9930  139.5090 C   0  0  0  0  0  2  0  0  0  0  0  0
  186.0630  178.6850  138.0410 O   0  0  0  0  0  0  0  0  0  0  0  0
  184.6100  180.2490  138.8790 O   0  0  0  0  0  1  0  0  0  0  0  0
  184.9470  179.0390  138.7880 C   0  0  0  0  0  0  0  0  0  0  0  0
  1 21  1  1  0  0  0
  1 10  1  0  0  0  0
  1  5  1  0  0  0  0
  2  8  1  1  0  0  0
  2  7  1  0  0  0  0
  4  3  1  0  0  0  0
  5  6  1  6  0  0  0
  7 13  1  1  0  0  0
  7  3  1  0  0  0  0
  8  4  2  0  0  0  0
  9 22  1  6  0  0  0
  9 14  1  0  0  0  0
 10  5  1  0  0  0  0
 11  1  1  0  0  0  0
 12  9  1  0  0  0  0
 12  2  1  0  0  0  0
 13  6  2  0  0  0  0
 14 11  2  0  0  0  0
 14 13  1  0  0  0  0
 15 16  1  0  0  0  0
 15 19  1  0  0  0  0
 17 20  1  0  0  0  0
 17 21  2  0  0  0  0
 18 19  2  0  0  0  0
 20 15  2  0  0  0  0
 21 18  1  0  0  0  0
 23 25  2  0  0  0  0
 25 24  1  0  0  0  0
 25 22  1  0  0  0  0
M  END
>  <MODEL>
1

>  <REMARK>
 VINA RESULT:      -9.0      0.000      0.000
  Name = 
  3 active torsions:
  status: ('A' for Active; 'I' for Inactive)
    1  A    between atoms: C_2  and  C_22
    2  A    between atoms: C_13  and  C_25
    3  A    between atoms: C_16  and  C_25
                            x       y       z     vdW  Elec       q    Type
                         _______ _______ _______ _____ _____    ______ ____

>  <TORSDO>
F 3

$$$$
=
 OpenBabel11062418093D

 25 29  0  0  1  0  0  0  0  0999 V2000
  185.1720  178.8280  143.7710 C   0  0  2  0  0  0  0  0  0  0  0  0
  182.8860  177.9240  139.3200 C   0  0  2  0  0  3  0  0  0  0  0  0
  181.0770  177.8700  140.6940 N   0  0  0  0  0  2  0  0  0  0  0  0
  180.9740  176.9320  139.8400 N   0  0  0  0  0  0  0  0  0  0  0  0
  183.6880  178.6630  144.0990 C   0  0  2  0  0  3  0  0  0  0  0  0
  182.7990  178.6350  142.8830 C   0  0  0  0  0  3  0  0  0  0  0  0
  182.2880  178.6500  140.4690 C   0  0  1  0  0  3  0  0  0  0  0  0
  182.1070  176.9160  138.9820 C   0  0  0  0  0  3  0  0  0  0  0  0
  185.1680  178.7660  139.8770 C   0  0  1  0  0  3  0  0  0  0  0  0
  184.3610  180.0280  144.2130 C   0  0  0  0  0  2  0  0  0  0  0  0
  185.5920  178.8350  142.3290 C   0  0  0  0  0  3  0  0  0  0  0  0
  184.2780  177.9830  139.0170 N   0  0  0  0  0  2  0  0  0  0  0  0
  183.2540  178.6040  141.6240 C   0  0  0  0  0  0  0  0  0  0  0  0
  184.7140  178.6940  141.3290 C   0  0  0  0  0  0  0  0  0  0  0  0
  187.9910  177.4240  146.6950 C   0  0  0  0  0  0  0  0  0  0  0  0
  188.8850  176.9880  147.6150 F   0  0  0  0  0  0  0  0  0  0  0  0
  187.2600  177.5790  144.3920 C   0  0  0  0  0  3  0  0  0  0  0  0
  185.9570  178.6200  146.1500 C   0  0  0  0  0  3  0  0  0  0  0  0
  186.8810  178.1710  147.0990 C   0  0  0  0  0  3  0  0  0  0  0  0
  188.1820  177.1310  145.3410 C   0  0  0  0  0  3  0  0  0  0  0  0
  186.1370  178.3150  144.7930 C   0  0  0  0  0  0  0  0  0  0  0  0
  186.6060  178.2910  139.6800 C   0  0  0  0  0  2  0  0  0  0  0  0
  187.1940  176.8070  137.7650 O   0  0  0  0  0  1  0  0  0  0  0  0
  186.9040  179.0590  137.4440 O   0  0  0  0  0  0  0  0  0  0  0  0
  186.8980  178.0800  138.2350 C   0  0  0  0  0  0  0  0  0  0  0  0
  1  5  1  0  0  0  0
  1 10  1  0  0  0  0
  1 21  1  1  0  0  0
  2  8  1  1  0  0  0
  2  7  1  0  0  0  0
  4  3  1  0  0  0  0
  5  6  1  6  0  0  0
  5 10  1  0  0  0  0
  7  3  1  1  0  0  0
  7 13  1  0  0  0  0
  8  4  2  0  0  0  0
  9 22  1  1  0  0  0
  9 14  1  0  0  0  0
 11  1  1  0  0  0  0
 12  2  1  0  0  0  0
 12  9  1  0  0  0  0
 13  6  2  0  0  0  0
 14 13  1  0  0  0  0
 14 11  2  0  0  0  0
 15 19  1  0  0  0  0
 15 16  1  0  0  0  0
 17 21  2  0  0  0  0
 17 20  1  0  0  0  0
 18 19  2  0  0  0  0
 20 15  2  0  0  0  0
 21 18  1  0  0  0  0
 23 25  1  0  0  0  0
 24 25  2  0  0  0  0
 25 22  1  0  0  0  0
M  END
>  <MODEL>
2

>  <REMARK>
 VINA RESULT:      -8.3      1.506      1.930
  Name = 
  3 active torsions:
  status: ('A' for Active; 'I' for Inactive)
    1  A    between atoms: C_2  and  C_22
    2  A    between atoms: C_13  and  C_25
    3  A    between atoms: C_16  and  C_25
                            x       y       z     vdW  Elec       q    Type
                         _______ _______ _______ _____ _____    ______ ____

>  <TORSDO>
F 3

$$$$
=
 OpenBabel11062418093D

 25 29  0  0  1  0  0  0  0  0999 V2000
  185.8710  178.5360  142.9940 C   0  0  2  0  0  0  0  0  0  0  0  0
  184.7180  177.6390  138.1230 C   0  0  2  0  0  3  0  0  0  0  0  0
  182.6500  177.4440  139.0450 N   0  0  0  0  0  2  0  0  0  0  0  0
  182.8020  176.5270  138.1750 N   0  0  0  0  0  0  0  0  0  0  0  0
  184.3630  178.2800  142.9700 C   0  0  2  0  0  3  0  0  0  0  0  0
  183.7780  178.2380  141.5820 C   0  0  0  0  0  3  0  0  0  0  0  0
  183.8310  178.2960  139.1170 C   0  0  1  0  0  3  0  0  0  0  0  0
  184.1000  176.6000  137.6000 C   0  0  0  0  0  3  0  0  0  0  0  0
  186.7580  178.5890  139.2020 C   0  0  1  0  0  3  0  0  0  0  0  0
  184.9080  179.6760  143.2570 C   0  0  0  0  0  2  0  0  0  0  0  0
  186.6070  178.6090  141.6870 C   0  0  0  0  0  3  0  0  0  0  0  0
  186.1360  177.7840  138.1490 N   0  0  0  0  0  2  0  0  0  0  0  0
  184.5090  178.2690  140.4610 C   0  0  0  0  0  0  0  0  0  0  0  0
  185.9900  178.4490  140.5100 C   0  0  0  0  0  0  0  0  0  0  0  0
  188.0240  177.2070  146.4670 C   0  0  0  0  0  0  0  0  0  0  0  0
  188.7080  176.7960  147.5610 F   0  0  0  0  0  0  0  0  0  0  0  0
  187.8750  177.4680  144.0640 C   0  0  0  0  0  3  0  0  0  0  0  0
  186.0600  178.2220  145.4810 C   0  0  0  0  0  3  0  0  0  0  0  0
  186.7660  177.7990  146.6100 C   0  0  0  0  0  3  0  0  0  0  0  0
  188.5800  177.0450  145.1940 C   0  0  0  0  0  3  0  0  0  0  0  0
  186.6060  178.0480  144.2010 C   0  0  0  0  0  0  0  0  0  0  0  0
  188.2280  178.2010  139.3330 C   0  0  0  0  0  2  0  0  0  0  0  0
  189.7500  177.5790  137.4580 O   0  0  0  0  0  0  0  0  0  0  0  0
  188.9290  179.7130  137.6290 O   0  0  0  0  0  1  0  0  0  0  0  0
  188.9760  178.5430  138.0910 C   0  0  0  0  0  0  0  0  0  0  0  0
  1 10  1  0  0  0  0
  1 21  1  1  0  0  0
  2  8  1  1  0  0  0
  2 12  1  0  0  0  0
  2  7  1  0  0  0  0
  4  3  1  0  0  0  0
  5  6  1  6  0  0  0
  5  1  1  0  0  0  0
  5 10  1  0  0  0  0
  7  3  1  1  0  0  0
  7 13  1  0  0  0  0
  8  4  2  0  0  0  0
  9 22  1  1  0  0  0
  9 14  1  0  0  0  0
 11  1  1  0  0  0  0
 12  9  1  0  0  0  0
 13 14  1  0  0  0  0
 13  6  2  0  0  0  0
 14 11  2  0  0  0  0
 15 19  1  0  0  0  0
 15 16  1  0  0  0  0
 17 21  2  0  0  0  0
 17 20  1  0  0  0  0
 18 19  2  0  0  0  0
 20 15  2  0  0  0  0
 21 18  1  0  0  0  0
 23 25  2  0  0  0  0
 24 25  1  0  0  0  0
 25 22  1  0  0  0  0
M  END
>  <MODEL>
3

>  <REMARK>
 VINA RESULT:      -7.9      2.425      3.380
  Name = 
  3 active torsions:
  status: ('A' for Active; 'I' for Inactive)
    1  A    between atoms: C_2  and  C_22
    2  A    between atoms: C_13  and  C_25
    3  A    between atoms: C_16  and  C_25
                            x       y       z     vdW  Elec       q    Type
                         _______ _______ _______ _____ _____    ______ ____

>  <TORSDO>
F 3

$$$$
=
 OpenBabel11062418093D

 25 29  0  0  1  0  0  0  0  0999 V2000
  189.3230  176.7320  143.3450 C   0  0  2  0  0  0  0  0  0  0  0  0
  187.4660  178.3100  147.8080 C   0  0  2  0  0  3  0  0  0  0  0  0
  185.6000  178.5110  146.5280 N   0  0  0  0  0  2  0  0  0  0  0  0
  185.6810  179.5200  147.2990 N   0  0  0  0  0  0  0  0  0  0  0  0
  187.8580  177.0790  143.0790 C   0  0  2  0  0  3  0  0  0  0  0  0
  187.0590  177.3330  144.3310 C   0  0  0  0  0  3  0  0  0  0  0  0
  186.7030  177.5870  146.7590 C   0  0  1  0  0  3  0  0  0  0  0  0
  186.8570  179.4430  148.0930 C   0  0  0  0  0  3  0  0  0  0  0  0
  189.5720  177.1100  147.2130 C   0  0  1  0  0  3  0  0  0  0  0  0
  188.3280  175.6280  143.0540 C   0  0  0  0  0  2  0  0  0  0  0  0
  189.8270  176.7820  144.7590 C   0  0  0  0  0  3  0  0  0  0  0  0
  188.8530  178.0780  148.0440 N   0  0  0  0  0  2  0  0  0  0  0  0
  187.5920  177.4010  145.5580 C   0  0  0  0  0  0  0  0  0  0  0  0
  189.0410  177.1280  145.7850 C   0  0  0  0  0  0  0  0  0  0  0  0
  192.1050  177.4710  140.1540 C   0  0  0  0  0  0  0  0  0  0  0  0
  192.9850  177.6950  139.1490 F   0  0  0  0  0  0  0  0  0  0  0  0
  191.6220  177.3170  142.5220 C   0  0  0  0  0  3  0  0  0  0  0  0
  189.8660  176.9260  140.8980 C   0  0  0  0  0  3  0  0  0  0  0  0
  190.7750  177.1560  139.8610 C   0  0  0  0  0  3  0  0  0  0  0  0
  192.5290  177.5470  141.4840 C   0  0  0  0  0  3  0  0  0  0  0  0
  190.2830  177.0170  142.2340 C   0  0  0  0  0  0  0  0  0  0  0  0
  191.0700  177.3890  147.2940 C   0  0  0  0  0  2  0  0  0  0  0  0
  191.3660  174.9140  147.3430 O   0  0  0  0  0  0  0  0  0  0  0  0
  192.8230  176.2820  148.4690 O   0  0  0  0  0  1  0  0  0  0  0  0
  191.8100  176.1720  147.7280 C   0  0  0  0  0  0  0  0  0  0  0  0
  1 21  1  6  0  0  0
  1 11  1  0  0  0  0
  2 12  1  0  0  0  0
  2  8  1  6  0  0  0
  3  7  1  0  0  0  0
  3  4  1  0  0  0  0
  4  8  2  0  0  0  0
  5 10  1  1  0  0  0
  5  1  1  0  0  0  0
  5  6  1  0  0  0  0
  6 13  2  0  0  0  0
  7 13  1  6  0  0  0
  7  2  1  0  0  0  0
  9 22  1  6  0  0  0
  9 12  1  0  0  0  0
 10  1  1  0  0  0  0
 11 14  2  0  0  0  0
 13 14  1  0  0  0  0
 14  9  1  0  0  0  0
 15 20  1  0  0  0  0
 16 15  1  0  0  0  0
 18 21  2  0  0  0  0
 19 15  2  0  0  0  0
 19 18  1  0  0  0  0
 20 17  2  0  0  0  0
 21 17  1  0  0  0  0
 22 25  1  0  0  0  0
 23 25  2  0  0  0  0
 25 24  1  0  0  0  0
M  END
>  <MODEL>
4

>  <REMARK>
 VINA RESULT:      -7.5      6.028      8.171
  Name = 
  3 active torsions:
  status: ('A' for Active; 'I' for Inactive)
    1  A    between atoms: C_2  and  C_22
    2  A    between atoms: C_13  and  C_25
    3  A    between atoms: C_16  and  C_25
                            x       y       z     vdW  Elec       q    Type
                         _______ _______ _______ _____ _____    ______ ____

>  <TORSDO>
F 3

$$$$
=
 OpenBabel11062418093D

 25 29  0  0  1  0  0  0  0  0999 V2000
  184.0320  178.5080  140.9650 C   0  0  2  0  0  0  0  0  0  0  0  0
  185.4340  176.3580  136.5750 C   0  0  2  0  0  3  0  0  0  0  0  0
  183.2650  175.6870  136.6510 N   0  0  0  0  0  2  0  0  0  0  0  0
  183.9820  174.7180  136.2420 N   0  0  0  0  0  0  0  0  0  0  0  0
  182.7900  177.7790  140.4510 C   0  0  2  0  0  3  0  0  0  0  0  0
  182.9230  177.2810  139.0350 C   0  0  0  0  0  3  0  0  0  0  0  0
  184.0780  176.8720  136.8940 C   0  0  1  0  0  3  0  0  0  0  0  0
  185.3520  175.0930  136.2130 C   0  0  0  0  0  3  0  0  0  0  0  0
  186.5140  178.1070  137.9910 C   0  0  1  0  0  3  0  0  0  0  0  0
  182.8420  179.3040  140.4670 C   0  0  0  0  0  2  0  0  0  0  0  0
  185.2480  178.5600  140.0860 C   0  0  0  0  0  3  0  0  0  0  0  0
  186.6210  176.9560  137.0920 N   0  0  0  0  0  2  0  0  0  0  0  0
  184.0600  177.3280  138.3290 C   0  0  0  0  0  0  0  0  0  0  0  0
  185.2820  177.9840  138.8790 C   0  0  0  0  0  0  0  0  0  0  0  0
  184.6050  178.6470  145.2220 C   0  0  0  0  0  0  0  0  0  0  0  0
  184.7900  178.6980  146.5620 F   0  0  0  0  0  0  0  0  0  0  0  0
  185.4630  178.1920  143.0030 C   0  0  0  0  0  3  0  0  0  0  0  0
  183.1770  178.9450  143.2890 C   0  0  0  0  0  3  0  0  0  0  0  0
  183.3690  178.9990  144.6720 C   0  0  0  0  0  3  0  0  0  0  0  0
  185.6530  178.2470  144.3860 C   0  0  0  0  0  3  0  0  0  0  0  0
  184.2210  178.5290  142.4490 C   0  0  0  0  0  0  0  0  0  0  0  0
  187.8080  178.2490  138.7870 C   0  0  0  0  0  2  0  0  0  0  0  0
  189.9780  177.7150  137.6790 O   0  0  0  0  0  1  0  0  0  0  0  0
  188.9720  179.7490  137.3470 O   0  0  0  0  0  0  0  0  0  0  0  0
  188.9410  178.6140  137.8910 C   0  0  0  0  0  0  0  0  0  0  0  0
  1 21  1  1  0  0  0
  2  8  1  1  0  0  0
  2  7  1  0  0  0  0
  2 12  1  0  0  0  0
  4  3  1  0  0  0  0
  5  6  1  6  0  0  0
  5 10  1  0  0  0  0
  5  1  1  0  0  0  0
  7  3  1  1  0  0  0
  7 13  1  0  0  0  0
  8  4  2  0  0  0  0
  9 22  1  1  0  0  0
  9 14  1  0  0  0  0
 10  1  1  0  0  0  0
 11  1  1  0  0  0  0
 12  9  1  0  0  0  0
 13 14  1  0  0  0  0
 13  6  2  0  0  0  0
 14 11  2  0  0  0  0
 15 16  1  0  0  0  0
 17 20  1  0  0  0  0
 18 19  2  0  0  0  0
 19 15  1  0  0  0  0
 20 15  2  0  0  0  0
 21 17  2  0  0  0  0
 21 18  1  0  0  0  0
 23 25  1  0  0  0  0
 24 25  2  0  0  0  0
 25 22  1  0  0  0  0
M  END
>  <MODEL>
5

>  <REMARK>
 VINA RESULT:      -7.1      3.129      4.875
  Name = 
  3 active torsions:
  status: ('A' for Active; 'I' for Inactive)
    1  A    between atoms: C_2  and  C_22
    2  A    between atoms: C_13  and  C_25
    3  A    between atoms: C_16  and  C_25
                            x       y       z     vdW  Elec       q    Type
                         _______ _______ _______ _____ _____    ______ ____

>  <TORSDO>
F 3

$$$$
=
 OpenBabel11062418093D

 25 29  0  0  1  0  0  0  0  0999 V2000
  184.9920  178.8650  142.7990 C   0  0  2  0  0  0  0  0  0  0  0  0
  189.5210  176.7590  143.7530 C   0  0  2  0  0  3  0  0  0  0  0  0
  189.7040  177.0520  141.5070 N   0  0  0  0  0  2  0  0  0  0  0  0
  190.1890  175.9170  141.8150 N   0  0  0  0  0  0  0  0  0  0  0  0
  185.6950  178.7750  141.4450 C   0  0  2  0  0  3  0  0  0  0  0  0
  187.1530  178.4050  141.5420 C   0  0  0  0  0  3  0  0  0  0  0  0
  189.2370  177.7600  142.6930 C   0  0  1  0  0  3  0  0  0  0  0  0
  190.0620  175.6860  143.2120 C   0  0  0  0  0  3  0  0  0  0  0  0
  187.7980  177.7520  145.2600 C   0  0  1  0  0  3  0  0  0  0  0  0
  185.4620  180.1290  142.1080 C   0  0  0  0  0  2  0  0  0  0  0  0
  185.7610  178.4880  144.0330 C   0  0  0  0  0  3  0  0  0  0  0  0
  188.8380  176.7530  145.0040 N   0  0  0  0  0  2  0  0  0  0  0  0
  187.7570  178.0410  142.6800 C   0  0  0  0  0  0  0  0  0  0  0  0
  187.0310  178.0690  143.9830 C   0  0  0  0  0  0  0  0  0  0  0  0
  180.7240  178.3650  142.7680 C   0  0  0  0  0  0  0  0  0  0  0  0
  179.3780  178.2160  142.7580 F   0  0  0  0  0  0  0  0  0  0  0  0
  182.7790  178.7810  143.9810 C   0  0  0  0  0  3  0  0  0  0  0  0
  182.8370  178.4130  141.5860 C   0  0  0  0  0  3  0  0  0  0  0  0
  181.4470  178.2610  141.5770 C   0  0  0  0  0  3  0  0  0  0  0  0
  181.3890  178.6290  143.9690 C   0  0  0  0  0  3  0  0  0  0  0  0
  183.5100  178.6620  142.7910 C   0  0  0  0  0  0  0  0  0  0  0  0
  186.8950  177.2620  146.3890 C   0  0  0  0  0  2  0  0  0  0  0  0
  185.8480  179.2990  147.3760 O   0  0  0  0  0  0  0  0  0  0  0  0
  187.5870  178.2520  148.4430 O   0  0  0  0  0  1  0  0  0  0  0  0
  186.7940  178.2860  147.4660 C   0  0  0  0  0  0  0  0  0  0  0  0
  1 21  1  1  0  0  0
  1 11  1  0  0  0  0
  2  8  1  6  0  0  0
  2 12  1  0  0  0  0
  3  4  1  0  0  0  0
  4  8  2  0  0  0  0
  5  6  1  1  0  0  0
  5 10  1  0  0  0  0
  5  1  1  0  0  0  0
  6 13  2  0  0  0  0
  7  3  1  6  0  0  0
  7  2  1  0  0  0  0
  9 22  1  1  0  0  0
 10  1  1  0  0  0  0
 12  9  1  0  0  0  0
 13  7  1  0  0  0  0
 13 14  1  0  0  0  0
 14 11  2  0  0  0  0
 14  9  1  0  0  0  0
 15 20  1  0  0  0  0
 16 15  1  0  0  0  0
 18 21  2  0  0  0  0
 19 18  1  0  0  0  0
 19 15  2  0  0  0  0
 20 17  2  0  0  0  0
 21 17  1  0  0  0  0
 22 25  1  0  0  0  0
 23 25  2  0  0  0  0
 25 24  1  0  0  0  0
M  END
>  <MODEL>
6

>  <REMARK>
 VINA RESULT:      -7.0      4.808      7.526
  Name = 
  3 active torsions:
  status: ('A' for Active; 'I' for Inactive)
    1  A    between atoms: C_2  and  C_22
    2  A    between atoms: C_13  and  C_25
    3  A    between atoms: C_16  and  C_25
                            x       y       z     vdW  Elec       q    Type
                         _______ _______ _______ _____ _____    ______ ____

>  <TORSDO>
F 3

$$$$
=
 OpenBabel11062418093D

 25 29  0  0  1  0  0  0  0  0999 V2000
  190.3980  177.7070  142.5040 C   0  0  2  0  0  0  0  0  0  0  0  0
  188.4390  177.3270  137.8260 C   0  0  2  0  0  3  0  0  0  0  0  0
  186.6740  178.2710  138.9020 N   0  0  0  0  0  2  0  0  0  0  0  0
  186.2420  177.3720  138.1120 N   0  0  0  0  0  0  0  0  0  0  0  0
  188.9800  178.2680  142.6070 C   0  0  2  0  0  3  0  0  0  0  0  0
  188.3120  178.4750  141.2720 C   0  0  0  0  0  3  0  0  0  0  0  0
  188.1240  178.3910  138.8140 C   0  0  1  0  0  3  0  0  0  0  0  0
  187.3240  176.7370  137.4440 C   0  0  0  0  0  3  0  0  0  0  0  0
  190.7790  177.1280  138.6710 C   0  0  1  0  0  3  0  0  0  0  0  0
  190.1890  179.1910  142.7260 C   0  0  0  0  0  2  0  0  0  0  0  0
  190.9240  177.3310  141.1480 C   0  0  0  0  0  3  0  0  0  0  0  0
  189.7250  176.7170  137.7410 N   0  0  0  0  0  2  0  0  0  0  0  0
  188.8320  178.0750  140.1050 C   0  0  0  0  0  0  0  0  0  0  0  0
  190.1910  177.4630  140.0360 C   0  0  0  0  0  0  0  0  0  0  0  0
  191.9270  175.5960  145.9200 C   0  0  0  0  0  0  0  0  0  0  0  0
  192.4180  174.9330  146.9940 F   0  0  0  0  0  0  0  0  0  0  0  0
  191.4950  175.7000  143.5390 C   0  0  0  0  0  3  0  0  0  0  0  0
  190.8460  177.5430  144.9720 C   0  0  0  0  0  3  0  0  0  0  0  0
  191.3530  176.8590  146.0800 C   0  0  0  0  0  3  0  0  0  0  0  0
  192.0010  175.0180  144.6490 C   0  0  0  0  0  3  0  0  0  0  0  0
  190.9040  176.9610  143.6980 C   0  0  0  0  0  0  0  0  0  0  0  0
  191.8480  176.0400  138.7360 C   0  0  0  0  0  2  0  0  0  0  0  0
  193.9610  177.0730  139.5650 O   0  0  0  0  0  1  0  0  0  0  0  0
  193.6440  176.7140  137.3220 O   0  0  0  0  0  0  0  0  0  0  0  0
  193.2000  176.6160  138.4960 C   0  0  0  0  0  0  0  0  0  0  0  0
  1  5  1  0  0  0  0
  1 10  1  0  0  0  0
  1 21  1  1  0  0  0
  2  8  1  1  0  0  0
  2  7  1  0  0  0  0
  4  3  1  0  0  0  0
  5  6  1  6  0  0  0
  5 10  1  0  0  0  0
  7  3  1  1  0  0  0
  7 13  1  0  0  0  0
  8  4  2  0  0  0  0
  9 22  1  1  0  0  0
  9 14  1  0  0  0  0
 11  1  1  0  0  0  0
 12  2  1  0  0  0  0
 12  9  1  0  0  0  0
 13  6  2  0  0  0  0
 14 13  1  0  0  0  0
 14 11  2  0  0  0  0
 15 19  1  0  0  0  0
 15 16  1  0  0  0  0
 17 21  2  0  0  0  0
 17 20  1  0  0  0  0
 18 19  2  0  0  0  0
 20 15  2  0  0  0  0
 21 18  1  0  0  0  0
 24 25  2  0  0  0  0
 25 22  1  0  0  0  0
 25 23  1  0  0  0  0
M  END
>  <MODEL>
7

>  <REMARK>
 VINA RESULT:      -7.0      5.815      7.001
  Name = 
  3 active torsions:
  status: ('A' for Active; 'I' for Inactive)
    1  A    between atoms: C_2  and  C_22
    2  A    between atoms: C_13  and  C_25
    3  A    between atoms: C_16  and  C_25
                            x       y       z     vdW  Elec       q    Type
                         _______ _______ _______ _____ _____    ______ ____

>  <TORSDO>
F 3

$$$$
=
 OpenBabel11062418093D

 25 29  0  0  1  0  0  0  0  0999 V2000
  183.9300  178.3070  140.6340 C   0  0  2  0  0  0  0  0  0  0  0  0
  188.6030  177.8830  142.5940 C   0  0  2  0  0  3  0  0  0  0  0  0
  189.1230  177.9420  140.3830 N   0  0  0  0  0  2  0  0  0  0  0  0
  189.8490  177.0670  140.9530 N   0  0  0  0  0  0  0  0  0  0  0  0
  184.8760  178.2800  139.4330 C   0  0  2  0  0  3  0  0  0  0  0  0
  186.3310  178.4080  139.8060 C   0  0  0  0  0  3  0  0  0  0  0  0
  188.2490  178.6040  141.3450 C   0  0  1  0  0  3  0  0  0  0  0  0
  189.5270  176.9800  142.3350 C   0  0  0  0  0  3  0  0  0  0  0  0
  186.4080  178.4540  143.6350 C   0  0  1  0  0  3  0  0  0  0  0  0
  184.1350  179.5600  139.8070 C   0  0  0  0  0  2  0  0  0  0  0  0
  184.5220  178.3480  142.0140 C   0  0  0  0  0  3  0  0  0  0  0  0
  187.7230  177.8140  143.7130 N   0  0  0  0  0  2  0  0  0  0  0  0
  186.7840  178.3970  141.0660 C   0  0  0  0  0  0  0  0  0  0  0  0
  185.8430  178.3520  142.2240 C   0  0  0  0  0  0  0  0  0  0  0  0
  180.1270  176.3620  140.1650 C   0  0  0  0  0  0  0  0  0  0  0  0
  178.9310  175.7430  140.0250 F   0  0  0  0  0  0  0  0  0  0  0  0
  182.5270  176.3810  139.8440 C   0  0  0  0  0  3  0  0  0  0  0  0
  181.4330  178.2540  140.9240 C   0  0  0  0  0  3  0  0  0  0  0  0
  180.1990  177.6150  140.7800 C   0  0  0  0  0  3  0  0  0  0  0  0
  181.2920  175.7430  139.7010 C   0  0  0  0  0  3  0  0  0  0  0  0
  182.6020  177.6440  140.4450 C   0  0  0  0  0  0  0  0  0  0  0  0
  185.4860  177.8450  144.6880 C   0  0  0  0  0  2  0  0  0  0  0  0
  183.6600  179.3770  145.4190 O   0  0  0  0  0  0  0  0  0  0  0  0
  185.6810  179.3780  146.5020 O   0  0  0  0  0  1  0  0  0  0  0  0
  184.9520  178.8990  145.5940 C   0  0  0  0  0  0  0  0  0  0  0  0
  1 21  1  6  0  0  0
  1 11  1  0  0  0  0
  2  8  1  6  0  0  0
  2 12  1  0  0  0  0
  3  4  1  0  0  0  0
  4  8  2  0  0  0  0
  5  6  1  1  0  0  0
  5 10  1  0  0  0  0
  5  1  1  0  0  0  0
  6 13  2  0  0  0  0
  7  3  1  6  0  0  0
  7  2  1  0  0  0  0
  9 12  1  0  0  0  0
  9 22  1  1  0  0  0
 10  1  1  0  0  0  0
 11 14  2  0  0  0  0
 13  7  1  0  0  0  0
 13 14  1  0  0  0  0
 14  9  1  0  0  0  0
 15 19  1  0  0  0  0
 16 15  1  0  0  0  0
 17 21  2  0  0  0  0
 19 18  2  0  0  0  0
 20 17  1  0  0  0  0
 20 15  2  0  0  0  0
 21 18  1  0  0  0  0
 22 25  1  0  0  0  0
 23 25  2  0  0  0  0
 25 24  1  0  0  0  0
M  END
>  <MODEL>
8

>  <REMARK>
 VINA RESULT:      -7.0      4.461      7.297
  Name = 
  3 active torsions:
  status: ('A' for Active; 'I' for Inactive)
    1  A    between atoms: C_2  and  C_22
    2  A    between atoms: C_13  and  C_25
    3  A    between atoms: C_16  and  C_25
                            x       y       z     vdW  Elec       q    Type
                         _______ _______ _______ _____ _____    ______ ____

>  <TORSDO>
F 3

$$$$
=
 OpenBabel11062418093D

 25 29  0  0  1  0  0  0  0  0999 V2000
  189.8480  178.1360  142.7310 C   0  0  2  0  0  0  0  0  0  0  0  0
  189.8920  176.4960  147.5450 C   0  0  2  0  0  3  0  0  0  0  0  0
  192.0960  176.2640  147.0450 N   0  0  0  0  0  2  0  0  0  0  0  0
  191.7180  175.2520  147.7180 N   0  0  0  0  0  0  0  0  0  0  0  0
  191.3010  177.7600  143.0230 C   0  0  2  0  0  3  0  0  0  0  0  0
  191.5750  177.4830  144.4790 C   0  0  0  0  0  3  0  0  0  0  0  0
  191.0010  177.2100  146.8620 C   0  0  1  0  0  3  0  0  0  0  0  0
  190.3320  175.3490  148.0210 C   0  0  0  0  0  3  0  0  0  0  0  0
  188.1780  177.7440  146.2280 C   0  0  1  0  0  3  0  0  0  0  0  0
  190.9000  179.2210  142.8430 C   0  0  0  0  0  2  0  0  0  0  0  0
  188.8560  178.0900  143.8570 C   0  0  0  0  0  3  0  0  0  0  0  0
  188.5210  176.7560  147.2530 N   0  0  0  0  0  2  0  0  0  0  0  0
  190.6240  177.4200  145.4190 C   0  0  0  0  0  0  0  0  0  0  0  0
  189.1990  177.7220  145.0970 C   0  0  0  0  0  0  0  0  0  0  0  0
  188.4920  177.4630  138.7100 C   0  0  0  0  0  0  0  0  0  0  0  0
  188.0670  177.2590  137.4400 F   0  0  0  0  0  0  0  0  0  0  0  0
  188.1600  178.4440  140.8990 C   0  0  0  0  0  3  0  0  0  0  0  0
  190.1380  177.1180  140.4510 C   0  0  0  0  0  3  0  0  0  0  0  0
  189.7000  176.9090  139.1400 C   0  0  0  0  0  3  0  0  0  0  0  0
  187.7240  178.2340  139.5880 C   0  0  0  0  0  3  0  0  0  0  0  0
  189.3630  177.8770  141.3400 C   0  0  0  0  0  0  0  0  0  0  0  0
  186.7520  177.4960  145.7440 C   0  0  0  0  0  2  0  0  0  0  0  0
  185.6950  179.0910  147.3430 O   0  0  0  0  0  1  0  0  0  0  0  0
  185.3020  179.2710  145.0900 O   0  0  0  0  0  0  0  0  0  0  0  0
  185.8850  178.6720  146.0320 C   0  0  0  0  0  0  0  0  0  0  0  0
  1 21  1  6  0  0  0
  1 10  1  0  0  0  0
  1  5  1  0  0  0  0
  1 11  1  0  0  0  0
  2  8  1  6  0  0  0
  3  4  1  0  0  0  0
  4  8  2  0  0  0  0
  5 10  1  1  0  0  0
  5  6  1  0  0  0  0
  6 13  2  0  0  0  0
  7 13  1  6  0  0  0
  7  3  1  0  0  0  0
  7  2  1  0  0  0  0
  9 22  1  6  0  0  0
  9 12  1  0  0  0  0
 11 14  2  0  0  0  0
 12  2  1  0  0  0  0
 14 13  1  0  0  0  0
 14  9  1  0  0  0  0
 15 19  2  0  0  0  0
 15 20  1  0  0  0  0
 16 15  1  0  0  0  0
 17 21  1  0  0  0  0
 18 21  2  0  0  0  0
 19 18  1  0  0  0  0
 20 17  2  0  0  0  0
 22 25  1  0  0  0  0
 24 25  2  0  0  0  0
 25 23  1  0  0  0  0
M  END
>  <MODEL>
9

>  <REMARK>
 VINA RESULT:      -6.7      5.697      8.622
  Name = 
  3 active torsions:
  status: ('A' for Active; 'I' for Inactive)
    1  A    between atoms: C_2  and  C_22
    2  A    between atoms: C_13  and  C_25
    3  A    between atoms: C_16  and  C_25
                            x       y       z     vdW  Elec       q    Type
                         _______ _______ _______ _____ _____    ______ ____

>  <TORSDO>
F 3

$$$$
