=
 OpenBabel11062418103D

 25 27  0  0  1  0  0  0  0  0999 V2000
  189.9040  176.7220  139.8570 C   0  0  0  0  0  2  0  0  0  0  0  0
  190.6480  177.2330  138.6350 C   0  0  2  0  0  3  0  0  0  0  0  0
  185.3400  179.3320  142.0130 C   0  0  0  0  0  2  0  0  0  0  0  0
  188.6690  177.5920  137.0370 C   0  0  0  0  0  2  0  0  0  0  0  0
  186.3890  177.4630  143.3050 C   0  0  0  0  0  3  0  0  0  0  0  0
  185.6200  178.1950  138.9350 C   0  0  2  0  0  3  0  0  0  0  0  0
  185.2270  176.9730  136.7530 C   0  0  0  0  0  2  0  0  0  0  0  0
  189.8130  178.2330  137.8220 C   0  0  0  0  0  2  0  0  0  0  0  0
  189.9640  177.7590  140.9650 C   0  0  0  0  0  2  0  0  0  0  0  0
  187.4600  176.6000  143.5610 C   0  0  0  0  0  3  0  0  0  0  0  0
  187.0860  175.5620  136.1910 O   0  0  0  0  0  1  0  0  0  0  0  0
  184.5760  177.7520  137.8990 C   0  0  0  0  0  2  0  0  0  0  0  0
  186.4950  178.4350  142.3040 C   0  0  0  0  0  0  0  0  0  0  0  0
  184.5720  178.8380  140.7960 C   0  0  2  0  0  3  0  0  0  0  0  0
  185.1640  179.3240  139.6250 O   0  0  0  0  0  0  0  0  0  0  0  0
  183.2020  179.3140  140.8720 N   0  0  0  0  0  1  0  0  0  0  0  0
  188.7410  177.6730  141.8070 C   0  0  0  0  0  0  0  0  0  0  0  0
  187.6710  178.5360  141.5540 C   0  0  0  0  0  3  0  0  0  0  0  0
  187.4640  177.2760  137.9210 C   0  0  1  0  0  3  0  0  0  0  0  0
  186.8350  178.4930  138.2900 O   0  0  0  0  0  0  0  0  0  0  0  0
  186.4910  176.2710  137.2370 C   0  0  1  0  0  3  0  0  0  0  0  0
  188.6350  176.7020  142.8100 C   0  0  0  0  0  3  0  0  0  0  0  0
  191.1770  176.1100  137.7980 C   0  0  0  0  0  0  0  0  0  0  0  0
  190.7150  174.8110  137.9800 O   0  0  0  0  0  1  0  0  0  0  0  0
  192.0260  176.3500  136.9020 O   0  0  0  0  0  0  0  0  0  0  0  0
  1  9  1  0  0  0  0
  2 23  1  6  0  0  0
  2  1  1  0  0  0  0
  3 13  1  0  0  0  0
  4  8  1  0  0  0  0
  5 10  1  0  0  0  0
  6 12  1  6  0  0  0
  6 15  1  0  0  0  0
  7 21  1  0  0  0  0
  7 12  1  0  0  0  0
  8  2  1  0  0  0  0
  9 17  1  0  0  0  0
 13  5  2  0  0  0  0
 14 16  1  1  0  0  0
 14  3  1  0  0  0  0
 15 14  1  0  0  0  0
 17 22  1  0  0  0  0
 18 17  2  0  0  0  0
 18 13  1  0  0  0  0
 19  4  1  6  0  0  0
 19 20  1  0  0  0  0
 20  6  1  0  0  0  0
 21 11  1  6  0  0  0
 21 19  1  0  0  0  0
 22 10  2  0  0  0  0
 23 24  1  0  0  0  0
 25 23  2  0  0  0  0
M  END
>  <MODEL>
1

>  <REMARK>
 VINA RESULT:      -7.8      0.000      0.000
  Name = 
  1 active torsions:
  status: ('A' for Active; 'I' for Inactive)
    1  A    between atoms: C_1  and  C_3
                            x       y       z     vdW  Elec       q    Type
                         _______ _______ _______ _____ _____    ______ ____

>  <TORSDO>
F 1

$$$$
=
 OpenBabel11062418103D

 25 27  0  0  1  0  0  0  0  0999 V2000
  189.1860  177.2200  138.7000 C   0  0  0  0  0  2  0  0  0  0  0  0
  189.4370  177.9140  137.3710 C   0  0  2  0  0  3  0  0  0  0  0  0
  185.5020  179.1690  142.5610 C   0  0  0  0  0  2  0  0  0  0  0  0
  187.0140  178.2400  136.5850 C   0  0  0  0  0  2  0  0  0  0  0  0
  187.0310  177.2910  143.1880 C   0  0  0  0  0  3  0  0  0  0  0  0
  184.7710  178.3680  139.4510 C   0  0  2  0  0  3  0  0  0  0  0  0
  183.7220  177.3320  137.3940 C   0  0  0  0  0  2  0  0  0  0  0  0
  188.3200  178.9050  137.0150 C   0  0  0  0  0  2  0  0  0  0  0  0
  189.5650  178.1450  139.8430 C   0  0  0  0  0  2  0  0  0  0  0  0
  188.1710  176.5110  142.9630 C   0  0  0  0  0  3  0  0  0  0  0  0
  185.3510  176.1620  136.0740 O   0  0  0  0  0  1  0  0  0  0  0  0
  183.4610  177.9320  138.7780 C   0  0  0  0  0  2  0  0  0  0  0  0
  186.7340  178.3600  142.3360 C   0  0  0  0  0  0  0  0  0  0  0  0
  184.3910  178.7270  141.6210 C   0  0  2  0  0  3  0  0  0  0  0  0
  184.5190  179.3770  140.3880 O   0  0  0  0  0  0  0  0  0  0  0  0
  183.1070  179.0630  142.2080 N   0  0  0  0  0  1  0  0  0  0  0  0
  188.7120  177.8630  141.0270 C   0  0  0  0  0  0  0  0  0  0  0  0
  187.5740  178.6430  141.2550 C   0  0  0  0  0  3  0  0  0  0  0  0
  186.2030  177.7280  137.7750 C   0  0  1  0  0  3  0  0  0  0  0  0
  185.6740  178.8400  138.4800 O   0  0  0  0  0  0  0  0  0  0  0  0
  185.1120  176.7070  137.3370 C   0  0  1  0  0  3  0  0  0  0  0  0
  189.0090  176.7940  141.8810 C   0  0  0  0  0  3  0  0  0  0  0  0
  189.7070  176.9320  136.2750 C   0  0  0  0  0  0  0  0  0  0  0  0
  189.8920  177.3630  134.9660 O   0  0  0  0  0  0  0  0  0  0  0  0
  189.7980  175.7070  136.5460 O   0  0  0  0  0  1  0  0  0  0  0  0
  1  9  1  0  0  0  0
  2 23  1  6  0  0  0
  2  1  1  0  0  0  0
  4  8  1  0  0  0  0
  6 12  1  6  0  0  0
  6 15  1  0  0  0  0
  7 12  1  0  0  0  0
  8  2  1  0  0  0  0
  9 17  1  0  0  0  0
 10  5  1  0  0  0  0
 13  3  1  0  0  0  0
 13  5  2  0  0  0  0
 14 16  1  1  0  0  0
 14  3  1  0  0  0  0
 15 14  1  0  0  0  0
 17 18  2  0  0  0  0
 17 22  1  0  0  0  0
 18 13  1  0  0  0  0
 19  4  1  6  0  0  0
 19 20  1  0  0  0  0
 20  6  1  0  0  0  0
 21 11  1  6  0  0  0
 21  7  1  0  0  0  0
 21 19  1  0  0  0  0
 22 10  2  0  0  0  0
 23 25  1  0  0  0  0
 24 23  2  0  0  0  0
M  END
>  <MODEL>
2

>  <REMARK>
 VINA RESULT:      -7.6      1.291      1.582
  Name = 
  1 active torsions:
  status: ('A' for Active; 'I' for Inactive)
    1  A    between atoms: C_1  and  C_3
                            x       y       z     vdW  Elec       q    Type
                         _______ _______ _______ _____ _____    ______ ____

>  <TORSDO>
F 1

$$$$
=
 OpenBabel11062418103D

 25 27  0  0  1  0  0  0  0  0999 V2000
  187.5840  178.4940  141.2550 C   0  0  0  0  0  2  0  0  0  0  0  0
  188.3620  177.4970  140.4120 C   0  0  2  0  0  3  0  0  0  0  0  0
  186.1270  177.5030  146.6570 C   0  0  0  0  0  2  0  0  0  0  0  0
  190.2750  176.9510  142.0360 C   0  0  0  0  0  2  0  0  0  0  0  0
  185.1700  179.5010  145.4930 C   0  0  0  0  0  3  0  0  0  0  0  0
  189.2000  177.5010  145.4720 C   0  0  2  0  0  3  0  0  0  0  0  0
  191.6560  177.9810  145.0940 C   0  0  0  0  0  2  0  0  0  0  0  0
  189.0600  176.4320  141.2700 C   0  0  0  0  0  2  0  0  0  0  0  0
  186.2580  177.8840  141.6780 C   0  0  0  0  0  2  0  0  0  0  0  0
  184.8810  180.2170  144.3270 C   0  0  0  0  0  3  0  0  0  0  0  0
  192.0560  178.8140  142.8770 O   0  0  0  0  0  1  0  0  0  0  0  0
  190.5630  177.7380  146.1380 C   0  0  0  0  0  2  0  0  0  0  0  0
  185.7920  178.2500  145.4100 C   0  0  0  0  0  0  0  0  0  0  0  0
  187.5950  177.6830  147.0110 C   0  0  2  0  0  3  0  0  0  0  0  0
  188.3750  176.7500  146.3170 O   0  0  0  0  0  0  0  0  0  0  0  0
  187.7690  177.4840  148.4390 N   0  0  0  0  0  1  0  0  0  0  0  0
  185.8440  178.4370  142.9950 C   0  0  0  0  0  0  0  0  0  0  0  0
  186.1300  177.7210  144.1610 C   0  0  0  0  0  3  0  0  0  0  0  0
  189.8820  177.7290  143.2910 C   0  0  1  0  0  3  0  0  0  0  0  0
  189.3750  176.8170  144.2540 O   0  0  0  0  0  0  0  0  0  0  0  0
  191.0590  178.5930  143.8310 C   0  0  1  0  0  3  0  0  0  0  0  0
  185.2210  179.6880  143.0780 C   0  0  0  0  0  3  0  0  0  0  0  0
  189.2990  178.1820  139.4680 C   0  0  0  0  0  0  0  0  0  0  0  0
  190.4190  177.5200  138.9760 O   0  0  0  0  0  0  0  0  0  0  0  0
  189.0550  179.3570  139.0940 O   0  0  0  0  0  1  0  0  0  0  0  0
  1  9  1  0  0  0  0
  2 23  1  1  0  0  0
  2  1  1  0  0  0  0
  2  8  1  0  0  0  0
  3 14  1  0  0  0  0
  6 12  1  1  0  0  0
  6 15  1  0  0  0  0
  7 12  1  0  0  0  0
  8  4  1  0  0  0  0
  9 17  1  0  0  0  0
 10  5  2  0  0  0  0
 13  5  1  0  0  0  0
 13  3  1  0  0  0  0
 14 16  1  1  0  0  0
 15 14  1  0  0  0  0
 17 22  2  0  0  0  0
 17 18  1  0  0  0  0
 18 13  2  0  0  0  0
 19  4  1  6  0  0  0
 19 21  1  0  0  0  0
 19 20  1  0  0  0  0
 20  6  1  0  0  0  0
 21 11  1  6  0  0  0
 21  7  1  0  0  0  0
 22 10  1  0  0  0  0
 24 23  2  0  0  0  0
 25 23  1  0  0  0  0
M  END
>  <MODEL>
3

>  <REMARK>
 VINA RESULT:      -6.8      3.772      6.064
  Name = 
  1 active torsions:
  status: ('A' for Active; 'I' for Inactive)
    1  A    between atoms: C_1  and  C_3
                            x       y       z     vdW  Elec       q    Type
                         _______ _______ _______ _____ _____    ______ ____

>  <TORSDO>
F 1

$$$$
=
 OpenBabel11062418103D

 25 27  0  0  1  0  0  0  0  0999 V2000
  189.2590  177.3300  140.1730 C   0  0  0  0  0  2  0  0  0  0  0  0
  190.0560  177.8470  138.9870 C   0  0  2  0  0  3  0  0  0  0  0  0
  184.1770  179.4120  141.6310 C   0  0  0  0  0  2  0  0  0  0  0  0
  188.2320  177.7950  137.1800 C   0  0  0  0  0  2  0  0  0  0  0  0
  185.3220  177.8190  143.1830 C   0  0  0  0  0  3  0  0  0  0  0  0
  184.9410  178.0960  138.7100 C   0  0  2  0  0  3  0  0  0  0  0  0
  184.9560  176.6670  136.6200 C   0  0  0  0  0  2  0  0  0  0  0  0
  189.1860  178.6520  138.0100 C   0  0  0  0  0  2  0  0  0  0  0  0
  189.0570  178.4460  141.1830 C   0  0  0  0  0  2  0  0  0  0  0  0
  186.4660  177.1410  143.6190 C   0  0  0  0  0  3  0  0  0  0  0  0
  187.0390  175.4990  136.3720 O   0  0  0  0  0  1  0  0  0  0  0  0
  184.0850  177.4290  137.6220 C   0  0  0  0  0  2  0  0  0  0  0  0
  185.4040  178.7160  142.1120 C   0  0  0  0  0  0  0  0  0  0  0  0
  183.6190  178.7220  140.3950 C   0  0  2  0  0  3  0  0  0  0  0  0
  184.2640  179.1970  139.2470 O   0  0  0  0  0  0  0  0  0  0  0  0
  182.1980  179.0000  140.2940 N   0  0  0  0  0  1  0  0  0  0  0  0
  187.7730  178.2490  141.9070 C   0  0  0  0  0  0  0  0  0  0  0  0
  186.6300  178.9270  141.4740 C   0  0  0  0  0  3  0  0  0  0  0  0
  186.9910  177.3770  137.9670 C   0  0  1  0  0  3  0  0  0  0  0  0
  186.1680  178.5160  138.1620 O   0  0  0  0  0  0  0  0  0  0  0  0
  186.2430  176.1930  137.2860 C   0  0  1  0  0  3  0  0  0  0  0  0
  187.6900  177.3530  142.9790 C   0  0  0  0  0  3  0  0  0  0  0  0
  190.8190  176.7520  138.3110 C   0  0  0  0  0  0  0  0  0  0  0  0
  191.4500  176.9740  137.0920 O   0  0  0  0  0  0  0  0  0  0  0  0
  190.9150  175.6270  138.8670 O   0  0  0  0  0  1  0  0  0  0  0  0
  1  9  1  0  0  0  0
  2 23  1  6  0  0  0
  2  1  1  0  0  0  0
  3 13  1  0  0  0  0
  4  8  1  0  0  0  0
  5 10  1  0  0  0  0
  6 12  1  6  0  0  0
  6 15  1  0  0  0  0
  7 21  1  0  0  0  0
  7 12  1  0  0  0  0
  8  2  1  0  0  0  0
  9 17  1  0  0  0  0
 13  5  2  0  0  0  0
 14 16  1  6  0  0  0
 14  3  1  0  0  0  0
 15 14  1  0  0  0  0
 17 22  1  0  0  0  0
 18 17  2  0  0  0  0
 18 13  1  0  0  0  0
 19  4  1  6  0  0  0
 19 20  1  0  0  0  0
 20  6  1  0  0  0  0
 21 11  1  6  0  0  0
 21 19  1  0  0  0  0
 22 10  2  0  0  0  0
 23 25  1  0  0  0  0
 24 23  2  0  0  0  0
M  END
>  <MODEL>
4

>  <REMARK>
 VINA RESULT:      -6.6      0.826      1.114
  Name = 
  1 active torsions:
  status: ('A' for Active; 'I' for Inactive)
    1  A    between atoms: C_1  and  C_3
                            x       y       z     vdW  Elec       q    Type
                         _______ _______ _______ _____ _____    ______ ____

>  <TORSDO>
F 1

$$$$
=
 OpenBabel11062418103D

 25 27  0  0  1  0  0  0  0  0999 V2000
  187.9450  178.3310  146.0260 C   0  0  0  0  0  2  0  0  0  0  0  0
  186.6380  177.6680  146.4280 C   0  0  2  0  0  3  0  0  0  0  0  0
  190.9070  176.7930  141.4270 C   0  0  0  0  0  2  0  0  0  0  0  0
  185.3960  177.7520  144.1810 C   0  0  0  0  0  2  0  0  0  0  0  0
  191.9420  178.3860  143.0570 C   0  0  0  0  0  3  0  0  0  0  0  0
  187.7830  177.8380  141.4320 C   0  0  2  0  0  3  0  0  0  0  0  0
  185.6500  179.1140  140.9570 C   0  0  0  0  0  2  0  0  0  0  0  0
  186.0090  176.8760  145.2720 C   0  0  0  0  0  2  0  0  0  0  0  0
  189.0670  177.3070  146.0430 C   0  0  0  0  0  2  0  0  0  0  0  0
  191.9880  178.9910  144.3170 C   0  0  0  0  0  3  0  0  0  0  0  0
  184.7420  180.0810  142.9590 O   0  0  0  0  0  1  0  0  0  0  0  0
  186.9140  178.4990  140.3520 C   0  0  0  0  0  2  0  0  0  0  0  0
  190.9730  177.4140  142.7820 C   0  0  0  0  0  0  0  0  0  0  0  0
  189.8130  177.4430  140.5930 C   0  0  2  0  0  3  0  0  0  0  0  0
  188.5800  176.8370  140.8630 O   0  0  0  0  0  0  0  0  0  0  0  0
  190.1270  177.2810  139.1860 N   0  0  0  0  0  1  0  0  0  0  0  0
  190.0910  177.6620  145.0250 C   0  0  0  0  0  0  0  0  0  0  0  0
  190.0470  177.0550  143.7660 C   0  0  0  0  0  3  0  0  0  0  0  0
  186.4510  178.3270  143.2370 C   0  0  1  0  0  3  0  0  0  0  0  0
  186.9620  177.2780  142.4290 O   0  0  0  0  0  0  0  0  0  0  0  0
  185.8960  179.5210  142.4060 C   0  0  1  0  0  3  0  0  0  0  0  0
  191.0610  178.6330  145.3000 C   0  0  0  0  0  3  0  0  0  0  0  0
  185.6850  178.6460  147.0410 C   0  0  0  0  0  0  0  0  0  0  0  0
  186.1110  179.9190  147.4020 O   0  0  0  0  0  1  0  0  0  0  0  0
  184.4810  178.3210  147.2050 O   0  0  0  0  0  0  0  0  0  0  0  0
  1  9  1  0  0  0  0
  1  2  1  0  0  0  0
  2 23  1  6  0  0  0
  3 13  1  0  0  0  0
  4  8  1  0  0  0  0
  5 10  1  0  0  0  0
  6 12  1  6  0  0  0
  6 20  1  0  0  0  0
  7 21  1  0  0  0  0
  8  2  1  0  0  0  0
 10 22  2  0  0  0  0
 12  7  1  0  0  0  0
 13  5  2  0  0  0  0
 13 18  1  0  0  0  0
 14 16  1  6  0  0  0
 14 15  1  0  0  0  0
 14  3  1  0  0  0  0
 15  6  1  0  0  0  0
 17 22  1  0  0  0  0
 17  9  1  0  0  0  0
 18 17  2  0  0  0  0
 19  4  1  6  0  0  0
 20 19  1  0  0  0  0
 21 11  1  1  0  0  0
 21 19  1  0  0  0  0
 23 25  2  0  0  0  0
 23 24  1  0  0  0  0
M  END
>  <MODEL>
5

>  <REMARK>
 VINA RESULT:      -6.5      3.631      6.850
  Name = 
  1 active torsions:
  status: ('A' for Active; 'I' for Inactive)
    1  A    between atoms: C_1  and  C_3
                            x       y       z     vdW  Elec       q    Type
                         _______ _______ _______ _____ _____    ______ ____

>  <TORSDO>
F 1

$$$$
=
 OpenBabel11062418103D

 25 27  0  0  1  0  0  0  0  0999 V2000
  188.2130  177.5190  146.5890 C   0  0  0  0  0  2  0  0  0  0  0  0
  189.6810  177.8700  146.7670 C   0  0  2  0  0  3  0  0  0  0  0  0
  184.9370  179.8550  142.5770 C   0  0  0  0  0  2  0  0  0  0  0  0
  190.4850  177.6220  144.3400 C   0  0  0  0  0  2  0  0  0  0  0  0
  183.8650  178.4490  144.3480 C   0  0  0  0  0  3  0  0  0  0  0  0
  187.7150  178.1700  142.0390 C   0  0  2  0  0  3  0  0  0  0  0  0
  189.4110  176.4900  141.1970 C   0  0  0  0  0  2  0  0  0  0  0  0
  190.2660  178.5600  145.5270 C   0  0  0  0  0  2  0  0  0  0  0  0
  187.3590  178.7570  146.8050 C   0  0  0  0  0  2  0  0  0  0  0  0
  183.8960  177.8120  145.5930 C   0  0  0  0  0  3  0  0  0  0  0  0
  190.4050  175.2640  143.0070 O   0  0  0  0  0  1  0  0  0  0  0  0
  188.2280  177.3870  140.8220 C   0  0  0  0  0  2  0  0  0  0  0  0
  184.9630  179.2030  143.9180 C   0  0  0  0  0  0  0  0  0  0  0  0
  185.7100  179.0250  141.5640 C   0  0  2  0  0  3  0  0  0  0  0  0
  187.0730  179.3410  141.6230 O   0  0  0  0  0  0  0  0  0  0  0  0
  185.2100  179.3120  140.2310 N   0  0  0  0  0  1  0  0  0  0  0  0
  186.1280  178.6740  145.9750 C   0  0  0  0  0  0  0  0  0  0  0  0
  186.0940  179.3120  144.7320 C   0  0  0  0  0  3  0  0  0  0  0  0
  189.1890  177.3280  143.5860 C   0  0  1  0  0  3  0  0  0  0  0  0
  188.7920  178.4960  142.8860 O   0  0  0  0  0  0  0  0  0  0  0  0
  189.3250  176.0810  142.6630 C   0  0  1  0  0  3  0  0  0  0  0  0
  185.0290  177.9210  146.4050 C   0  0  0  0  0  3  0  0  0  0  0  0
  190.4850  176.6850  147.2010 C   0  0  0  0  0  0  0  0  0  0  0  0
  191.8680  176.7710  147.3180 O   0  0  0  0  0  0  0  0  0  0  0  0
  189.9010  175.6100  147.4910 O   0  0  0  0  0  1  0  0  0  0  0  0
  1  2  1  0  0  0  0
  1  9  1  0  0  0  0
  2 23  1  6  0  0  0
  3 13  1  0  0  0  0
  4  8  1  0  0  0  0
  5 10  1  0  0  0  0
  6 12  1  6  0  0  0
  6 20  1  0  0  0  0
  7 21  1  0  0  0  0
  8  2  1  0  0  0  0
 10 22  2  0  0  0  0
 12  7  1  0  0  0  0
 13  5  2  0  0  0  0
 13 18  1  0  0  0  0
 14 16  1  6  0  0  0
 14 15  1  0  0  0  0
 14  3  1  0  0  0  0
 15  6  1  0  0  0  0
 17 22  1  0  0  0  0
 17  9  1  0  0  0  0
 18 17  2  0  0  0  0
 19  4  1  6  0  0  0
 20 19  1  0  0  0  0
 21 11  1  1  0  0  0
 21 19  1  0  0  0  0
 23 24  2  0  0  0  0
 23 25  1  0  0  0  0
M  END
>  <MODEL>
6

>  <REMARK>
 VINA RESULT:      -6.3      3.938      6.049
  Name = 
  1 active torsions:
  status: ('A' for Active; 'I' for Inactive)
    1  A    between atoms: C_1  and  C_3
                            x       y       z     vdW  Elec       q    Type
                         _______ _______ _______ _____ _____    ______ ____

>  <TORSDO>
F 1

$$$$
=
 OpenBabel11062418103D

 25 27  0  0  1  0  0  0  0  0999 V2000
  183.3550  178.3640  141.9600 C   0  0  0  0  0  2  0  0  0  0  0  0
  183.4310  179.3630  143.1030 C   0  0  2  0  0  3  0  0  0  0  0  0
  187.0880  178.2780  137.6770 C   0  0  0  0  0  2  0  0  0  0  0  0
  185.9050  179.1100  143.7410 C   0  0  0  0  0  2  0  0  0  0  0  0
  185.0380  176.8520  137.5240 C   0  0  0  0  0  3  0  0  0  0  0  0
  187.8300  177.9640  140.8700 C   0  0  2  0  0  3  0  0  0  0  0  0
  188.7180  177.1170  143.0850 C   0  0  0  0  0  2  0  0  0  0  0  0
  184.8110  180.0290  143.2020 C   0  0  0  0  0  2  0  0  0  0  0  0
  183.1570  179.1010  140.6470 C   0  0  0  0  0  2  0  0  0  0  0  0
  183.7480  176.5110  137.9450 C   0  0  0  0  0  3  0  0  0  0  0  0
  186.9450  176.7870  144.6710 O   0  0  0  0  0  1  0  0  0  0  0  0
  189.0160  177.3080  141.5950 C   0  0  0  0  0  2  0  0  0  0  0  0
  185.7010  177.9380  138.1060 C   0  0  0  0  0  0  0  0  0  0  0  0
  188.1040  177.7320  138.6680 C   0  0  2  0  0  3  0  0  0  0  0  0
  188.2770  178.6330  139.7250 O   0  0  0  0  0  0  0  0  0  0  0  0
  189.3740  177.5400  137.9920 N   0  0  0  0  0  1  0  0  0  0  0  0
  183.7870  178.3370  139.5370 C   0  0  0  0  0  0  0  0  0  0  0  0
  185.0750  178.6770  139.1140 C   0  0  0  0  0  3  0  0  0  0  0  0
  186.4290  178.1440  142.6800 C   0  0  1  0  0  3  0  0  0  0  0  0
  187.1890  178.8750  141.7310 O   0  0  0  0  0  0  0  0  0  0  0  0
  187.2180  176.9600  143.3120 C   0  0  1  0  0  3  0  0  0  0  0  0
  183.1230  177.2510  138.9540 C   0  0  0  0  0  3  0  0  0  0  0  0
  182.9890  178.7580  144.3980 C   0  0  0  0  0  0  0  0  0  0  0  0
  183.7380  178.9360  145.5570 O   0  0  0  0  0  1  0  0  0  0  0  0
  181.9140  178.1060  144.4450 O   0  0  0  0  0  0  0  0  0  0  0  0
  1  2  1  0  0  0  0
  2  8  1  0  0  0  0
  2 23  1  1  0  0  0
  3 13  1  0  0  0  0
  3 14  1  0  0  0  0
  5 10  2  0  0  0  0
  5 13  1  0  0  0  0
  6 12  1  1  0  0  0
  6 20  1  0  0  0  0
  7 21  1  0  0  0  0
  8  4  1  0  0  0  0
  9  1  1  0  0  0  0
 10 22  1  0  0  0  0
 12  7  1  0  0  0  0
 13 18  2  0  0  0  0
 14 16  1  6  0  0  0
 14 15  1  0  0  0  0
 15  6  1  0  0  0  0
 17  9  1  0  0  0  0
 18 17  1  0  0  0  0
 19 21  1  0  0  0  0
 19  4  1  1  0  0  0
 20 19  1  0  0  0  0
 21 11  1  1  0  0  0
 22 17  2  0  0  0  0
 23 25  2  0  0  0  0
 23 24  1  0  0  0  0
M  END
>  <MODEL>
7

>  <REMARK>
 VINA RESULT:      -6.1      2.906      6.989
  Name = 
  1 active torsions:
  status: ('A' for Active; 'I' for Inactive)
    1  A    between atoms: C_1  and  C_3
                            x       y       z     vdW  Elec       q    Type
                         _______ _______ _______ _____ _____    ______ ____

>  <TORSDO>
F 1

$$$$
=
 OpenBabel11062418103D

 25 27  0  0  1  0  0  0  0  0999 V2000
  182.7550  176.8890  138.0760 C   0  0  0  0  0  2  0  0  0  0  0  0
  181.8850  178.1290  138.2030 C   0  0  2  0  0  3  0  0  0  0  0  0
  188.4100  177.1170  137.5670 C   0  0  0  0  0  2  0  0  0  0  0  0
  183.1570  179.3660  140.0600 C   0  0  0  0  0  2  0  0  0  0  0  0
  187.2520  174.9250  137.2290 C   0  0  0  0  0  3  0  0  0  0  0  0
  186.6600  178.3700  140.0600 C   0  0  2  0  0  3  0  0  0  0  0  0
  185.7660  178.9200  142.3640 C   0  0  0  0  0  2  0  0  0  0  0  0
  182.6980  179.3690  138.6030 C   0  0  0  0  0  2  0  0  0  0  0  0
  183.4870  176.9090  136.7450 C   0  0  0  0  0  2  0  0  0  0  0  0
  186.0960  174.1730  136.9930 C   0  0  0  0  0  3  0  0  0  0  0  0
  183.4400  178.3570  142.5600 O   0  0  0  0  0  1  0  0  0  0  0  0
  187.0220  178.6870  141.5190 C   0  0  0  0  0  2  0  0  0  0  0  0
  187.1810  176.3210  137.2840 C   0  0  0  0  0  0  0  0  0  0  0  0
  188.4530  177.5330  139.0290 C   0  0  2  0  0  3  0  0  0  0  0  0
  187.7220  178.7120  139.2150 O   0  0  0  0  0  0  0  0  0  0  0  0
  189.8330  177.7600  139.4200 N   0  0  0  0  0  1  0  0  0  0  0  0
  184.7950  176.2130  136.8760 C   0  0  0  0  0  0  0  0  0  0  0  0
  185.9510  176.9630  137.1090 C   0  0  0  0  0  3  0  0  0  0  0  0
  184.3770  178.4740  140.2830 C   0  0  1  0  0  3  0  0  0  0  0  0
  185.5080  179.0880  139.6870 O   0  0  0  0  0  0  0  0  0  0  0  0
  184.5860  178.1430  141.7900 C   0  0  1  0  0  3  0  0  0  0  0  0
  184.8670  174.8160  136.8200 C   0  0  0  0  0  3  0  0  0  0  0  0
  180.7120  177.8940  139.1010 C   0  0  0  0  0  0  0  0  0  0  0  0
  180.6870  176.8030  139.9640 O   0  0  0  0  0  1  0  0  0  0  0  0
  179.7530  178.7070  139.0970 O   0  0  0  0  0  0  0  0  0  0  0  0
  1  2  1  0  0  0  0
  2  8  1  0  0  0  0
  2 23  1  1  0  0  0
  3 14  1  0  0  0  0
  5 13  1  0  0  0  0
  6 12  1  1  0  0  0
  8  4  1  0  0  0  0
  9 17  1  0  0  0  0
  9  1  1  0  0  0  0
 10  5  2  0  0  0  0
 12  7  1  0  0  0  0
 13  3  1  0  0  0  0
 14 15  1  0  0  0  0
 14 16  1  6  0  0  0
 15  6  1  0  0  0  0
 17 18  1  0  0  0  0
 18 13  2  0  0  0  0
 19  4  1  1  0  0  0
 19 21  1  0  0  0  0
 20  6  1  0  0  0  0
 20 19  1  0  0  0  0
 21  7  1  0  0  0  0
 21 11  1  1  0  0  0
 22 17  2  0  0  0  0
 22 10  1  0  0  0  0
 23 24  1  0  0  0  0
 25 23  2  0  0  0  0
M  END
>  <MODEL>
8

>  <REMARK>
 VINA RESULT:      -6.0      2.730      6.914
  Name = 
  1 active torsions:
  status: ('A' for Active; 'I' for Inactive)
    1  A    between atoms: C_1  and  C_3
                            x       y       z     vdW  Elec       q    Type
                         _______ _______ _______ _____ _____    ______ ____

>  <TORSDO>
F 1

$$$$
=
 OpenBabel11062418103D

 25 27  0  0  1  0  0  0  0  0999 V2000
  184.0740  178.0010  142.4370 C   0  0  0  0  0  2  0  0  0  0  0  0
  184.4820  179.0940  143.4110 C   0  0  2  0  0  3  0  0  0  0  0  0
  185.6920  177.9510  136.9910 C   0  0  0  0  0  2  0  0  0  0  0  0
  187.0100  179.1570  142.9640 C   0  0  0  0  0  2  0  0  0  0  0  0
  183.9650  176.3090  137.7550 C   0  0  0  0  0  3  0  0  0  0  0  0
  187.7160  177.9830  139.5890 C   0  0  2  0  0  3  0  0  0  0  0  0
  189.5370  177.4220  141.2550 C   0  0  0  0  0  2  0  0  0  0  0  0
  185.6800  179.9070  142.9020 C   0  0  0  0  0  2  0  0  0  0  0  0
  183.2590  178.6000  141.3050 C   0  0  0  0  0  2  0  0  0  0  0  0
  183.0190  175.8710  138.6880 C   0  0  0  0  0  3  0  0  0  0  0  0
  188.6330  177.0410  143.4470 O   0  0  0  0  0  1  0  0  0  0  0  0
  189.1680  177.5190  139.7720 C   0  0  0  0  0  2  0  0  0  0  0  0
  184.6610  177.5030  137.9710 C   0  0  0  0  0  0  0  0  0  0  0  0
  187.0880  177.5990  137.4830 C   0  0  2  0  0  3  0  0  0  0  0  0
  187.5600  178.5990  138.3410 O   0  0  0  0  0  0  0  0  0  0  0  0
  187.9800  177.4860  136.3440 N   0  0  0  0  0  1  0  0  0  0  0  0
  183.4710  177.8170  140.0590 C   0  0  0  0  0  0  0  0  0  0  0  0
  184.4140  178.2540  139.1250 C   0  0  0  0  0  3  0  0  0  0  0  0
  187.1710  178.1650  141.8120 C   0  0  1  0  0  3  0  0  0  0  0  0
  187.3720  178.8900  140.6090 O   0  0  0  0  0  0  0  0  0  0  0  0
  188.2980  177.1280  142.0930 C   0  0  1  0  0  3  0  0  0  0  0  0
  182.7740  176.6220  139.8410 C   0  0  0  0  0  3  0  0  0  0  0  0
  184.6950  178.5560  144.7910 C   0  0  0  0  0  0  0  0  0  0  0  0
  185.6650  177.5900  145.0340 O   0  0  0  0  0  0  0  0  0  0  0  0
  184.0080  179.0030  145.7460 O   0  0  0  0  0  1  0  0  0  0  0  0
  1  2  1  0  0  0  0
  2 23  1  1  0  0  0
  3 14  1  0  0  0  0
  3 13  1  0  0  0  0
  5 13  2  0  0  0  0
  5 10  1  0  0  0  0
  6 12  1  1  0  0  0
  6 20  1  0  0  0  0
  7 21  1  0  0  0  0
  8  4  1  0  0  0  0
  8  2  1  0  0  0  0
  9  1  1  0  0  0  0
 10 22  2  0  0  0  0
 12  7  1  0  0  0  0
 13 18  1  0  0  0  0
 14 16  1  6  0  0  0
 14 15  1  0  0  0  0
 15  6  1  0  0  0  0
 17  9  1  0  0  0  0
 18 17  2  0  0  0  0
 19 21  1  0  0  0  0
 19  4  1  1  0  0  0
 20 19  1  0  0  0  0
 21 11  1  1  0  0  0
 22 17  1  0  0  0  0
 23 24  2  0  0  0  0
 23 25  1  0  0  0  0
M  END
>  <MODEL>
9

>  <REMARK>
 VINA RESULT:      -5.8      2.848      6.448
  Name = 
  1 active torsions:
  status: ('A' for Active; 'I' for Inactive)
    1  A    between atoms: C_1  and  C_3
                            x       y       z     vdW  Elec       q    Type
                         _______ _______ _______ _____ _____    ______ ____

>  <TORSDO>
F 1

$$$$
