=
 OpenBabel11062412103D

 54 59  0  0  1  0  0  0  0  0999 V2000
  187.2420  178.5040  140.2020 C   0  0  0  0  0  0  0  0  0  0  0  0
  188.1690  177.5500  135.3990 C   0  0  0  0  0  2  0  0  0  0  0  0
  189.3430  176.0760  142.1280 C   0  0  2  0  0  3  0  0  0  0  0  0
  189.2690  177.0810  138.9280 O   0  0  0  0  0  0  0  0  0  0  0  0
  189.0730  177.1120  136.5470 C   0  0  0  0  0  2  0  0  0  0  0  0
  190.5410  176.2650  141.3560 O   0  0  0  0  0  0  0  0  0  0  0  0
  187.7260  179.0010  141.5330 O   0  0  0  0  0  0  0  0  0  0  0  0
  186.5380  178.5130  139.0880 C   0  0  0  0  0  3  0  0  0  0  0  0
  187.0430  177.6040  138.0130 C   0  0  2  0  0  3  0  0  0  0  0  0
  188.2760  177.9280  140.8890 C   0  0  2  0  0  0  0  0  0  0  0  0
  189.4880  178.0080  139.9850 C   0  0  1  0  0  3  0  0  0  0  0  0
  188.5970  177.7310  137.8660 C   0  0  1  0  0  3  0  0  0  0  0  0
  186.3770  177.9970  136.6920 C   0  0  0  0  0  2  0  0  0  0  0  0
  190.7280  177.5830  140.8240 C   0  0  2  0  0  0  0  0  0  0  0  0
  188.0270  176.5880  141.5230 C   0  0  0  0  0  2  0  0  0  0  0  0
  186.8400  177.1670  135.6580 O   0  0  0  0  0  0  0  0  0  0  0  0
  192.3030  176.3170  139.1950 C   0  0  2  0  0  3  0  0  0  0  0  0
  194.4770  177.2180  140.2640 C   0  0  0  0  0  1  0  0  0  0  0  0
  192.0580  177.5740  140.0020 C   0  0  2  0  0  3  0  0  0  0  0  0
  193.1060  176.5880  140.4810 C   0  0  1  0  0  3  0  0  0  0  0  0
  193.0270  176.6560  137.8960 C   0  0  0  0  0  2  0  0  0  0  0  0
  193.0500  175.4750  137.0450 N   0  0  0  0  0  2  0  0  0  0  0  0
  194.2130  175.0000  134.7190 O   0  0  0  0  0  0  0  0  0  0  0  0
  194.5190  175.4740  136.1150 S   0  0  0  0  0  0  0  0  0  0  0  0
  195.1020  176.8610  136.0420 O   0  0  0  0  0  0  0  0  0  0  0  0
  195.7230  174.3840  136.8780 C   0  0  1  0  0  3  0  0  0  0  0  0
  197.7250  174.4700  135.3460 N   0  0  0  0  0  1  0  0  0  0  0  0
  197.7700  175.5100  137.4180 O   0  0  0  0  0  0  0  0  0  0  0  0
  197.1150  174.8370  136.5790 C   0  0  0  0  0  0  0  0  0  0  0  0
  195.3980  172.8880  138.7870 N   0  0  0  0  0  1  0  0  0  0  0  0
  195.5020  174.2820  138.3820 C   0  0  0  0  0  2  0  0  0  0  0  0
  190.9130  178.6220  141.9650 C   0  0  0  0  0  2  0  0  0  0  0  0
  192.0540  178.3650  142.9630 C   0  0  0  0  0  2  0  0  0  0  0  0
  191.8310  179.0550  144.2950 C   0  0  0  0  0  2  0  0  0  0  0  0
  191.0210  180.1770  144.1250 O   0  0  0  0  0  1  0  0  0  0  0  0
  189.4950  176.4210  143.6020 C   0  0  0  0  0  2  0  0  0  0  0  0
  188.1450  176.3740  144.3030 C   0  0  0  0  0  2  0  0  0  0  0  0
  187.9260  177.5030  145.3160 C   0  0  2  0  0  3  0  0  0  0  0  0
  189.1960  177.9100  146.0650 C   0  0  0  0  0  2  0  0  0  0  0  0
  189.3400  177.2330  147.4300 C   0  0  2  0  0  3  0  0  0  0  0  0
  188.9180  178.2550  148.4810 C   0  0  0  0  0  1  0  0  0  0  0  0
  191.5160  177.7960  148.3060 O   0  0  0  0  0  1  0  0  0  0  0  0
  190.7860  176.7740  147.6920 C   0  0  2  0  0  3  0  0  0  0  0  0
  191.4690  176.3870  146.3850 C   0  0  0  0  0  2  0  0  0  0  0  0
  192.5000  175.2940  146.6050 C   0  0  0  0  0  2  0  0  0  0  0  0
  192.7440  175.1360  147.9690 O   0  0  0  0  0  1  0  0  0  0  0  0
  186.7110  177.3090  146.2430 C   0  0  0  0  0  2  0  0  0  0  0  0
  185.7330  179.4370  147.0430 C   0  0  0  0  0  1  0  0  0  0  0  0
  185.6050  178.3330  146.0050 C   0  0  1  0  0  3  0  0  0  0  0  0
  185.7150  178.8880  144.5860 C   0  0  0  0  0  2  0  0  0  0  0  0
  183.4380  179.8560  143.9360 C   0  0  0  0  0  2  0  0  0  0  0  0
  183.1790  178.5140  144.6080 C   0  0  0  0  0  2  0  0  0  0  0  0
  184.4250  178.7200  143.7760 C   0  0  0  0  0  0  0  0  0  0  0  0
  184.4330  178.1290  142.3770 C   0  0  0  0  0  1  0  0  0  0  0  0
  1 10  1  0  0  0  0
  1  7  1  0  0  0  0
  2 16  1  0  0  0  0
  2  5  1  0  0  0  0
  3 36  1  1  0  0  0
  6  3  1  0  0  0  0
  8  1  2  0  0  0  0
  9 13  1  6  0  0  0
  9  8  1  0  0  0  0
 10 15  1  1  0  0  0
 10  7  1  0  0  0  0
 11  4  1  6  0  0  0
 11 14  1  0  0  0  0
 11 10  1  0  0  0  0
 12  5  1  6  0  0  0
 12  9  1  0  0  0  0
 12  4  1  0  0  0  0
 14  6  1  0  0  0  0
 14 32  1  1  0  0  0
 15  3  1  0  0  0  0
 16 13  1  0  0  0  0
 17 21  1  6  0  0  0
 17 19  1  0  0  0  0
 17 20  1  0  0  0  0
 19 20  1  0  0  0  0
 19 14  1  1  0  0  0
 20 18  1  6  0  0  0
 22 21  1  0  0  0  0
 23 24  2  0  0  0  0
 24 26  1  0  0  0  0
 24 22  1  0  0  0  0
 25 24  2  0  0  0  0
 26 31  1  1  0  0  0
 27 29  1  0  0  0  0
 29 26  1  0  0  0  0
 29 28  2  0  0  0  0
 31 30  1  0  0  0  0
 32 33  1  0  0  0  0
 33 34  1  0  0  0  0
 35 34  1  0  0  0  0
 36 37  1  0  0  0  0
 38 37  1  1  0  0  0
 38 39  1  0  0  0  0
 38 47  1  0  0  0  0
 39 40  1  0  0  0  0
 40 43  1  0  0  0  0
 40 41  1  1  0  0  0
 43 42  1  6  0  0  0
 44 45  1  0  0  0  0
 44 43  1  0  0  0  0
 45 46  1  0  0  0  0
 49 47  1  0  0  0  0
 49 48  1  1  0  0  0
 50 49  1  0  0  0  0
 51 52  1  0  0  0  0
 53 51  1  0  0  0  0
 53 50  1  0  0  0  0
 53 52  1  0  0  0  0
 54 53  1  0  0  0  0
M  END
>  <MODEL>
1

>  <REMARK>
 VINA RESULT:      -5.6      0.000      0.000
  Name = 
  22 active torsions:
  status: ('A' for Active; 'I' for Inactive)
    1  A    between atoms: C_2  and  S_14
    2  A    between atoms: C_2  and  C_35
    3  A    between atoms: C_2  and  C_51
    4  A    between atoms: C_4  and  C_13
    5  A    between atoms: C_4  and  C_28
    6  A    between atoms: C_5  and  C_50
    7  A    between atoms: C_5  and  C_54
    8  A    between atoms: C_6  and  C_44
    9  A    between atoms: C_6  and  C_49
   10  A    between atoms: C_9  and  C_42
   11  A    between atoms: C_11  and  C_43
   12  A    between atoms: S_14  and  N_38
   13  A    between atoms: C_19  and  C_25
   14  A    between atoms: C_19  and  C_44
   15  A    between atoms: C_21  and  C_36
   16  A    between atoms: C_25  and  C_54
   17  A    between atoms: C_28  and  C_36
   18  A    between atoms: C_31  and  C_48
   19  A    between atoms: C_31  and  C_49
   20  A    between atoms: N_38  and  C_43
   21  A    between atoms: C_42  and  C_46
   22  A    between atoms: C_44  and  C_46
                            x       y       z     vdW  Elec       q    Type
                         _______ _______ _______ _____ _____    ______ ____

>  <TORSDO>
F 22

$$$$
=
 OpenBabel11062412103D

 54 59  0  0  1  0  0  0  0  0999 V2000
  191.1440  178.3220  143.9010 C   0  0  0  0  0  0  0  0  0  0  0  0
  188.2260  177.1930  147.7800 C   0  0  0  0  0  2  0  0  0  0  0  0
  189.9190  176.1930  141.0740 C   0  0  2  0  0  3  0  0  0  0  0  0
  188.6930  177.0120  144.0880 O   0  0  0  0  0  0  0  0  0  0  0  0
  187.8680  176.8970  146.3270 C   0  0  0  0  0  2  0  0  0  0  0  0
  188.5200  176.4420  141.2910 O   0  0  0  0  0  0  0  0  0  0  0  0
  191.2940  178.9310  142.5370 O   0  0  0  0  0  0  0  0  0  0  0  0
  191.3110  178.2100  145.2020 C   0  0  0  0  0  3  0  0  0  0  0  0
  190.3500  177.2910  145.8880 C   0  0  2  0  0  3  0  0  0  0  0  0
  190.4650  177.8760  142.7980 C   0  0  2  0  0  0  0  0  0  0  0  0
  188.9910  178.0110  143.1190 C   0  0  1  0  0  3  0  0  0  0  0  0
  188.8890  177.5430  145.3840 C   0  0  1  0  0  3  0  0  0  0  0  0
  190.4180  177.5530  147.3940 C   0  0  0  0  0  2  0  0  0  0  0  0
  188.1990  177.7400  141.8070 C   0  0  2  0  0  0  0  0  0  0  0  0
  190.8840  176.5560  142.2140 C   0  0  0  0  0  2  0  0  0  0  0  0
  189.5160  176.7110  148.0660 O   0  0  0  0  0  0  0  0  0  0  0  0
  185.9990  179.0900  141.5400 C   0  0  2  0  0  3  0  0  0  0  0  0
  184.9370  178.1920  143.7180 C   0  0  0  0  0  1  0  0  0  0  0  0
  186.6480  177.8020  141.9960 C   0  0  2  0  0  3  0  0  0  0  0  0
  186.1650  178.7890  143.0410 C   0  0  1  0  0  3  0  0  0  0  0  0
  184.6110  178.8100  140.9720 C   0  0  0  0  0  2  0  0  0  0  0  0
  184.3780  179.6890  139.8360 N   0  0  0  0  0  2  0  0  0  0  0  0
  182.3140  180.1060  138.2380 O   0  0  0  0  0  0  0  0  0  0  0  0
  183.1440  178.9970  138.8260 S   0  0  0  0  0  0  0  0  0  0  0  0
  183.7600  178.2030  137.7030 O   0  0  0  0  0  0  0  0  0  0  0  0
  182.1030  177.9050  139.7960 C   0  0  1  0  0  3  0  0  0  0  0  0
  181.0870  179.2400  141.6790 N   0  0  0  0  0  1  0  0  0  0  0  0
  179.8560  178.7430  139.7780 O   0  0  0  0  0  0  0  0  0  0  0  0
  180.9530  178.6530  140.3890 C   0  0  0  0  0  0  0  0  0  0  0  0
  181.2690  175.6040  139.8250 N   0  0  0  0  0  1  0  0  0  0  0  0
  181.6070  176.7290  138.9640 C   0  0  0  0  0  2  0  0  0  0  0  0
  188.5710  178.8520  140.7860 C   0  0  0  0  0  2  0  0  0  0  0  0
  188.1030  178.6500  139.3350 C   0  0  0  0  0  2  0  0  0  0  0  0
  189.0960  179.1850  138.3210 C   0  0  0  0  0  2  0  0  0  0  0  0
  188.4540  179.4420  137.1100 O   0  0  0  0  0  1  0  0  0  0  0  0
  190.4230  176.6290  139.7060 C   0  0  0  0  0  2  0  0  0  0  0  0
  191.8140  176.0700  139.4470 C   0  0  0  0  0  2  0  0  0  0  0  0
  192.1480  175.8870  137.9610 C   0  0  2  0  0  3  0  0  0  0  0  0
  193.6350  176.0480  137.6420 C   0  0  0  0  0  2  0  0  0  0  0  0
  194.3760  174.7150  137.5160 C   0  0  2  0  0  3  0  0  0  0  0  0
  193.3210  173.6410  137.2690 C   0  0  0  0  0  1  0  0  0  0  0  0
  195.3900  175.5390  139.5450 O   0  0  0  0  0  1  0  0  0  0  0  0
  195.1780  174.3820  138.7880 C   0  0  2  0  0  3  0  0  0  0  0  0
  196.5260  173.7690  138.4240 C   0  0  0  0  0  2  0  0  0  0  0  0
  197.1940  174.5370  137.2970 C   0  0  0  0  0  2  0  0  0  0  0  0
  197.5640  173.6610  136.2760 O   0  0  0  0  0  1  0  0  0  0  0  0
  191.2330  176.6670  136.9970 C   0  0  0  0  0  2  0  0  0  0  0  0
  191.3630  175.4170  134.8640 C   0  0  0  0  0  1  0  0  0  0  0  0
  190.4620  175.7620  136.0400 C   0  0  1  0  0  3  0  0  0  0  0  0
  190.0030  174.5060  136.7770 C   0  0  0  0  0  2  0  0  0  0  0  0
  187.7580  175.2320  135.7910 C   0  0  0  0  0  2  0  0  0  0  0  0
  187.6970  175.5020  137.2880 C   0  0  0  0  0  2  0  0  0  0  0  0
  188.4820  174.3220  136.7600 C   0  0  0  0  0  0  0  0  0  0  0  0
  187.8420  172.9500  136.8820 C   0  0  0  0  0  1  0  0  0  0  0  0
  1  8  2  0  0  0  0
  2 16  1  0  0  0  0
  3 36  1  6  0  0  0
  3  6  1  0  0  0  0
  3 15  1  0  0  0  0
  4 12  1  0  0  0  0
  5  2  1  0  0  0  0
  6 14  1  0  0  0  0
  7 10  1  0  0  0  0
  7  1  1  0  0  0  0
  9  8  1  6  0  0  0
  9 13  1  0  0  0  0
 10 15  1  6  0  0  0
 10 11  1  0  0  0  0
 10  1  1  0  0  0  0
 11  4  1  1  0  0  0
 12  9  1  0  0  0  0
 12  5  1  1  0  0  0
 13 16  1  0  0  0  0
 14 32  1  6  0  0  0
 14 11  1  0  0  0  0
 17 21  1  1  0  0  0
 17 19  1  0  0  0  0
 17 20  1  0  0  0  0
 19 14  1  6  0  0  0
 19 20  1  0  0  0  0
 20 18  1  1  0  0  0
 22 21  1  0  0  0  0
 23 24  2  0  0  0  0
 24 26  1  0  0  0  0
 24 22  1  0  0  0  0
 25 24  2  0  0  0  0
 26 31  1  6  0  0  0
 26 29  1  0  0  0  0
 28 29  2  0  0  0  0
 29 27  1  0  0  0  0
 31 30  1  0  0  0  0
 33 32  1  0  0  0  0
 34 33  1  0  0  0  0
 35 34  1  0  0  0  0
 37 36  1  0  0  0  0
 38 47  1  6  0  0  0
 38 37  1  0  0  0  0
 39 38  1  0  0  0  0
 40 41  1  1  0  0  0
 40 39  1  0  0  0  0
 40 43  1  0  0  0  0
 43 42  1  6  0  0  0
 44 43  1  0  0  0  0
 45 44  1  0  0  0  0
 46 45  1  0  0  0  0
 49 48  1  6  0  0  0
 49 50  1  0  0  0  0
 49 47  1  0  0  0  0
 51 53  1  0  0  0  0
 51 52  1  0  0  0  0
 53 50  1  0  0  0  0
 53 54  1  0  0  0  0
 53 52  1  0  0  0  0
M  END
>  <MODEL>
2

>  <REMARK>
 VINA RESULT:      -5.2      4.098     10.016
  Name = 
  22 active torsions:
  status: ('A' for Active; 'I' for Inactive)
    1  A    between atoms: C_2  and  S_14
    2  A    between atoms: C_2  and  C_35
    3  A    between atoms: C_2  and  C_51
    4  A    between atoms: C_4  and  C_13
    5  A    between atoms: C_4  and  C_28
    6  A    between atoms: C_5  and  C_50
    7  A    between atoms: C_5  and  C_54
    8  A    between atoms: C_6  and  C_44
    9  A    between atoms: C_6  and  C_49
   10  A    between atoms: C_9  and  C_42
   11  A    between atoms: C_11  and  C_43
   12  A    between atoms: S_14  and  N_38
   13  A    between atoms: C_19  and  C_25
   14  A    between atoms: C_19  and  C_44
   15  A    between atoms: C_21  and  C_36
   16  A    between atoms: C_25  and  C_54
   17  A    between atoms: C_28  and  C_36
   18  A    between atoms: C_31  and  C_48
   19  A    between atoms: C_31  and  C_49
   20  A    between atoms: N_38  and  C_43
   21  A    between atoms: C_42  and  C_46
   22  A    between atoms: C_44  and  C_46
                            x       y       z     vdW  Elec       q    Type
                         _______ _______ _______ _____ _____    ______ ____

>  <TORSDO>
F 22

$$$$
=
 OpenBabel11062412103D

 54 59  0  0  1  0  0  0  0  0999 V2000
  186.4930  178.7910  140.1140 C   0  0  0  0  0  0  0  0  0  0  0  0
  187.3320  177.4090  135.4000 C   0  0  0  0  0  2  0  0  0  0  0  0
  188.4980  176.4310  142.2210 C   0  0  2  0  0  3  0  0  0  0  0  0
  188.4410  177.1760  138.9500 O   0  0  0  0  0  0  0  0  0  0  0  0
  188.2260  177.0230  136.5750 C   0  0  0  0  0  2  0  0  0  0  0  0
  189.6960  176.5000  141.4290 O   0  0  0  0  0  0  0  0  0  0  0  0
  187.0120  179.3710  141.3980 O   0  0  0  0  0  0  0  0  0  0  0  0
  185.7810  178.7420  139.0070 C   0  0  0  0  0  3  0  0  0  0  0  0
  186.2340  177.7270  138.0070 C   0  0  2  0  0  3  0  0  0  0  0  0
  187.5060  178.2250  140.8410 C   0  0  2  0  0  0  0  0  0  0  0  0
  188.7120  178.1740  139.9270 C   0  0  1  0  0  3  0  0  0  0  0  0
  187.7900  177.7680  137.8420 C   0  0  1  0  0  3  0  0  0  0  0  0
  185.5750  178.0420  136.6620 C   0  0  0  0  0  2  0  0  0  0  0  0
  189.9390  177.7610  140.7910 C   0  0  2  0  0  0  0  0  0  0  0  0
  187.2010  176.9540  141.5830 C   0  0  0  0  0  2  0  0  0  0  0  0
  185.9900  177.1100  135.6960 O   0  0  0  0  0  0  0  0  0  0  0  0
  191.6090  176.2100  139.5480 C   0  0  2  0  0  3  0  0  0  0  0  0
  193.7020  177.5580  140.2440 C   0  0  0  0  0  1  0  0  0  0  0  0
  191.2600  177.6230  139.9650 C   0  0  2  0  0  3  0  0  0  0  0  0
  192.3920  176.9080  140.6760 C   0  0  1  0  0  3  0  0  0  0  0  0
  192.2920  176.2160  138.1850 C   0  0  0  0  0  2  0  0  0  0  0  0
  192.6260  174.8490  137.8170 N   0  0  0  0  0  2  0  0  0  0  0  0
  193.8010  173.5960  135.8070 O   0  0  0  0  0  0  0  0  0  0  0  0
  193.8670  174.8740  136.6000 S   0  0  0  0  0  0  0  0  0  0  0  0
  193.6700  176.0390  135.6640 O   0  0  0  0  0  0  0  0  0  0  0  0
  195.4780  175.0270  137.3750 C   0  0  1  0  0  3  0  0  0  0  0  0
  195.9280  174.9340  139.8540 N   0  0  0  0  0  1  0  0  0  0  0  0
  195.2430  173.0430  138.7010 O   0  0  0  0  0  0  0  0  0  0  0  0
  195.5240  174.2700  138.6620 C   0  0  0  0  0  0  0  0  0  0  0  0
  197.8300  175.2620  136.7410 N   0  0  0  0  0  1  0  0  0  0  0  0
  196.5880  174.5650  136.4390 C   0  0  0  0  0  2  0  0  0  0  0  0
  190.1820  178.8790  141.8430 C   0  0  0  0  0  2  0  0  0  0  0  0
  191.1380  178.5500  143.0010 C   0  0  0  0  0  2  0  0  0  0  0  0
  191.1720  179.6380  144.0580 C   0  0  0  0  0  2  0  0  0  0  0  0
  192.4730  179.8060  144.5310 O   0  0  0  0  0  1  0  0  0  0  0  0
  188.6780  176.8870  143.6610 C   0  0  0  0  0  2  0  0  0  0  0  0
  187.4500  176.5370  144.4890 C   0  0  0  0  0  2  0  0  0  0  0  0
  187.4150  177.2060  145.8690 C   0  0  2  0  0  3  0  0  0  0  0  0
  186.0280  177.7130  146.2690 C   0  0  0  0  0  2  0  0  0  0  0  0
  185.8810  179.2320  146.1510 C   0  0  2  0  0  3  0  0  0  0  0  0
  185.7180  179.7750  147.5680 C   0  0  0  0  0  1  0  0  0  0  0  0
  183.5050  179.0130  145.7860 O   0  0  0  0  0  1  0  0  0  0  0  0
  184.6630  179.6250  145.2940 C   0  0  2  0  0  3  0  0  0  0  0  0
  184.8730  179.2030  143.8430 C   0  0  0  0  0  2  0  0  0  0  0  0
  183.5730  178.7370  143.2120 C   0  0  0  0  0  2  0  0  0  0  0  0
  183.8290  178.1350  141.9800 O   0  0  0  0  0  1  0  0  0  0  0  0
  188.5320  178.2380  146.1110 C   0  0  0  0  0  2  0  0  0  0  0  0
  188.6810  178.1780  148.5810 C   0  0  0  0  0  1  0  0  0  0  0  0
  189.4320  177.8820  147.2910 C   0  0  1  0  0  3  0  0  0  0  0  0
  189.8330  176.4110  147.2060 C   0  0  0  0  0  2  0  0  0  0  0  0
  191.9850  175.1430  147.7610 C   0  0  0  0  0  2  0  0  0  0  0  0
  192.2460  176.6150  148.0480 C   0  0  0  0  0  2  0  0  0  0  0  0
  191.3250  176.2130  146.9180 C   0  0  0  0  0  0  0  0  0  0  0  0
  191.8820  176.2880  145.5070 C   0  0  0  0  0  1  0  0  0  0  0  0
  1 10  1  0  0  0  0
  1  7  1  0  0  0  0
  2 16  1  0  0  0  0
  2  5  1  0  0  0  0
  3 36  1  1  0  0  0
  6  3  1  0  0  0  0
  8  1  2  0  0  0  0
  9 13  1  6  0  0  0
  9  8  1  0  0  0  0
 10  7  1  0  0  0  0
 10 15  1  1  0  0  0
 11  4  1  6  0  0  0
 11 14  1  0  0  0  0
 11 10  1  0  0  0  0
 12  5  1  6  0  0  0
 12  9  1  0  0  0  0
 12  4  1  0  0  0  0
 14  6  1  0  0  0  0
 14 32  1  1  0  0  0
 15  3  1  0  0  0  0
 16 13  1  0  0  0  0
 17 21  1  6  0  0  0
 17 19  1  0  0  0  0
 17 20  1  0  0  0  0
 19 20  1  0  0  0  0
 19 14  1  1  0  0  0
 20 18  1  6  0  0  0
 22 21  1  0  0  0  0
 23 24  2  0  0  0  0
 24 26  1  0  0  0  0
 24 22  1  0  0  0  0
 25 24  2  0  0  0  0
 26 31  1  6  0  0  0
 26 29  1  0  0  0  0
 29 28  2  0  0  0  0
 29 27  1  0  0  0  0
 31 30  1  0  0  0  0
 32 33  1  0  0  0  0
 33 34  1  0  0  0  0
 34 35  1  0  0  0  0
 36 37  1  0  0  0  0
 38 37  1  6  0  0  0
 38 47  1  0  0  0  0
 38 39  1  0  0  0  0
 40 39  1  0  0  0  0
 40 41  1  1  0  0  0
 43 42  1  1  0  0  0
 43 40  1  0  0  0  0
 44 43  1  0  0  0  0
 45 44  1  0  0  0  0
 46 45  1  0  0  0  0
 47 49  1  0  0  0  0
 49 48  1  1  0  0  0
 50 49  1  0  0  0  0
 51 52  1  0  0  0  0
 53 50  1  0  0  0  0
 53 51  1  0  0  0  0
 53 52  1  0  0  0  0
 54 53  1  0  0  0  0
M  END
>  <MODEL>
3

>  <REMARK>
 VINA RESULT:      -5.0      1.481      4.193
  Name = 
  22 active torsions:
  status: ('A' for Active; 'I' for Inactive)
    1  A    between atoms: C_2  and  S_14
    2  A    between atoms: C_2  and  C_35
    3  A    between atoms: C_2  and  C_51
    4  A    between atoms: C_4  and  C_13
    5  A    between atoms: C_4  and  C_28
    6  A    between atoms: C_5  and  C_50
    7  A    between atoms: C_5  and  C_54
    8  A    between atoms: C_6  and  C_44
    9  A    between atoms: C_6  and  C_49
   10  A    between atoms: C_9  and  C_42
   11  A    between atoms: C_11  and  C_43
   12  A    between atoms: S_14  and  N_38
   13  A    between atoms: C_19  and  C_25
   14  A    between atoms: C_19  and  C_44
   15  A    between atoms: C_21  and  C_36
   16  A    between atoms: C_25  and  C_54
   17  A    between atoms: C_28  and  C_36
   18  A    between atoms: C_31  and  C_48
   19  A    between atoms: C_31  and  C_49
   20  A    between atoms: N_38  and  C_43
   21  A    between atoms: C_42  and  C_46
   22  A    between atoms: C_44  and  C_46
                            x       y       z     vdW  Elec       q    Type
                         _______ _______ _______ _____ _____    ______ ____

>  <TORSDO>
F 22

$$$$
=
 OpenBabel11062412103D

 54 59  0  0  1  0  0  0  0  0999 V2000
  182.4030  176.8170  139.5930 C   0  0  0  0  0  0  0  0  0  0  0  0
  179.8030  178.5310  143.4830 C   0  0  0  0  0  2  0  0  0  0  0  0
  184.8750  179.5080  138.7770 C   0  0  2  0  0  3  0  0  0  0  0  0
  182.8650  178.8930  141.3920 O   0  0  0  0  0  0  0  0  0  0  0  0
  181.1630  179.0760  143.0580 C   0  0  0  0  0  2  0  0  0  0  0  0
  185.2830  179.7570  140.1330 O   0  0  0  0  0  0  0  0  0  0  0  0
  183.7060  176.3310  139.0280 O   0  0  0  0  0  0  0  0  0  0  0  0
  181.1530  176.7340  139.9980 C   0  0  0  0  0  3  0  0  0  0  0  0
  180.6910  177.8640  140.8630 C   0  0  2  0  0  3  0  0  0  0  0  0
  183.5380  177.5810  139.5530 C   0  0  2  0  0  0  0  0  0  0  0  0
  183.8540  177.9530  140.9870 C   0  0  1  0  0  3  0  0  0  0  0  0
  181.7640  178.2030  141.9510 C   0  0  1  0  0  3  0  0  0  0  0  0
  179.3870  177.4500  141.5490 C   0  0  0  0  0  2  0  0  0  0  0  0
  185.2620  178.6160  141.0000 C   0  0  2  0  0  0  0  0  0  0  0  0
  183.5760  178.7140  138.5660 C   0  0  0  0  0  2  0  0  0  0  0  0
  178.9330  178.4890  142.3780 O   0  0  0  0  0  0  0  0  0  0  0  0
  185.9510  177.9870  143.4220 C   0  0  2  0  0  3  0  0  0  0  0  0
  184.7990  180.0330  144.5040 C   0  0  0  0  0  1  0  0  0  0  0  0
  185.7070  179.0960  142.4200 C   0  0  2  0  0  3  0  0  0  0  0  0
  184.6930  178.8700  143.5240 C   0  0  1  0  0  3  0  0  0  0  0  0
  187.0880  178.3690  144.3640 C   0  0  0  0  0  2  0  0  0  0  0  0
  187.7130  177.1550  144.8680 N   0  0  0  0  0  2  0  0  0  0  0  0
  190.1850  176.3590  144.3760 O   0  0  0  0  0  0  0  0  0  0  0  0
  189.4140  177.4390  145.0860 S   0  0  0  0  0  0  0  0  0  0  0  0
  189.8070  178.7750  144.5130 O   0  0  0  0  0  0  0  0  0  0  0  0
  189.8150  177.4250  146.8350 C   0  0  1  0  0  3  0  0  0  0  0  0
  187.7300  178.4640  147.8000 N   0  0  0  0  0  1  0  0  0  0  0  0
  188.2870  176.2640  148.2740 O   0  0  0  0  0  0  0  0  0  0  0  0
  188.5760  177.3280  147.6650 C   0  0  0  0  0  0  0  0  0  0  0  0
  191.9780  176.8190  147.8060 N   0  0  0  0  0  1  0  0  0  0  0  0
  190.7780  176.2930  147.1730 C   0  0  0  0  0  2  0  0  0  0  0  0
  186.2970  177.5500  140.5410 C   0  0  0  0  0  2  0  0  0  0  0  0
  187.7350  178.0360  140.2970 C   0  0  0  0  0  2  0  0  0  0  0  0
  188.7310  177.4210  141.2630 C   0  0  0  0  0  2  0  0  0  0  0  0
  189.9770  177.2940  140.6510 O   0  0  0  0  0  1  0  0  0  0  0  0
  186.0040  179.0560  137.8620 C   0  0  0  0  0  2  0  0  0  0  0  0
  185.4490  178.3040  136.6610 C   0  0  0  0  0  2  0  0  0  0  0  0
  186.2250  177.0300  136.3070 C   0  0  2  0  0  3  0  0  0  0  0  0
  187.7260  177.2590  136.1190 C   0  0  0  0  0  2  0  0  0  0  0  0
  188.5830  176.0760  136.5760 C   0  0  2  0  0  3  0  0  0  0  0  0
  187.7710  175.3160  137.6200 C   0  0  0  0  0  1  0  0  0  0  0  0
  189.9060  177.9200  137.3960 O   0  0  0  0  0  1  0  0  0  0  0  0
  189.9210  176.5370  137.1830 C   0  0  2  0  0  3  0  0  0  0  0  0
  191.0780  176.1870  136.2530 C   0  0  0  0  0  2  0  0  0  0  0  0
  191.5080  174.7420  136.4310 C   0  0  0  0  0  2  0  0  0  0  0  0
  191.4760  174.3960  137.7820 O   0  0  0  0  0  1  0  0  0  0  0  0
  185.5960  176.1850  135.1840 C   0  0  0  0  0  2  0  0  0  0  0  0
  183.1720  176.0990  134.6910 C   0  0  0  0  0  1  0  0  0  0  0  0
  184.2700  175.5450  135.5870 C   0  0  1  0  0  3  0  0  0  0  0  0
  184.3730  174.0260  135.4660 C   0  0  0  0  0  2  0  0  0  0  0  0
  184.7710  172.9140  137.7350 C   0  0  0  0  0  2  0  0  0  0  0  0
  184.2070  171.8480  136.8070 C   0  0  0  0  0  2  0  0  0  0  0  0
  183.7680  173.2880  136.6650 C   0  0  0  0  0  0  0  0  0  0  0  0
  182.4060  173.6590  137.2260 C   0  0  0  0  0  1  0  0  0  0  0  0
  1  8  2  0  0  0  0
  3 36  1  6  0  0  0
  3  6  1  0  0  0  0
  4 12  1  0  0  0  0
  5  2  1  0  0  0  0
  6 14  1  0  0  0  0
  7 10  1  0  0  0  0
  7  1  1  0  0  0  0
  9  8  1  6  0  0  0
  9 13  1  0  0  0  0
  9 12  1  0  0  0  0
 10 15  1  6  0  0  0
 10  1  1  0  0  0  0
 10 11  1  0  0  0  0
 11 14  1  0  0  0  0
 11  4  1  6  0  0  0
 12  5  1  1  0  0  0
 13 16  1  0  0  0  0
 14 32  1  6  0  0  0
 15  3  1  0  0  0  0
 16  2  1  0  0  0  0
 17 20  1  0  0  0  0
 17 21  1  1  0  0  0
 19 14  1  6  0  0  0
 19 17  1  0  0  0  0
 19 20  1  0  0  0  0
 20 18  1  1  0  0  0
 21 22  1  0  0  0  0
 22 24  1  0  0  0  0
 23 24  2  0  0  0  0
 24 26  1  0  0  0  0
 25 24  2  0  0  0  0
 26 31  1  6  0  0  0
 26 29  1  0  0  0  0
 29 27  1  0  0  0  0
 29 28  2  0  0  0  0
 31 30  1  0  0  0  0
 33 32  1  0  0  0  0
 33 34  1  0  0  0  0
 35 34  1  0  0  0  0
 37 36  1  0  0  0  0
 38 47  1  6  0  0  0
 38 37  1  0  0  0  0
 39 38  1  0  0  0  0
 39 40  1  0  0  0  0
 40 43  1  0  0  0  0
 40 41  1  1  0  0  0
 43 42  1  6  0  0  0
 44 45  1  0  0  0  0
 44 43  1  0  0  0  0
 45 46  1  0  0  0  0
 47 49  1  0  0  0  0
 49 48  1  6  0  0  0
 50 49  1  0  0  0  0
 50 53  1  0  0  0  0
 52 51  1  0  0  0  0
 53 52  1  0  0  0  0
 53 54  1  0  0  0  0
 53 51  1  0  0  0  0
M  END
>  <MODEL>
4

>  <REMARK>
 VINA RESULT:      -4.9      4.302      9.404
  Name = 
  22 active torsions:
  status: ('A' for Active; 'I' for Inactive)
    1  A    between atoms: C_2  and  S_14
    2  A    between atoms: C_2  and  C_35
    3  A    between atoms: C_2  and  C_51
    4  A    between atoms: C_4  and  C_13
    5  A    between atoms: C_4  and  C_28
    6  A    between atoms: C_5  and  C_50
    7  A    between atoms: C_5  and  C_54
    8  A    between atoms: C_6  and  C_44
    9  A    between atoms: C_6  and  C_49
   10  A    between atoms: C_9  and  C_42
   11  A    between atoms: C_11  and  C_43
   12  A    between atoms: S_14  and  N_38
   13  A    between atoms: C_19  and  C_25
   14  A    between atoms: C_19  and  C_44
   15  A    between atoms: C_21  and  C_36
   16  A    between atoms: C_25  and  C_54
   17  A    between atoms: C_28  and  C_36
   18  A    between atoms: C_31  and  C_48
   19  A    between atoms: C_31  and  C_49
   20  A    between atoms: N_38  and  C_43
   21  A    between atoms: C_42  and  C_46
   22  A    between atoms: C_44  and  C_46
                            x       y       z     vdW  Elec       q    Type
                         _______ _______ _______ _____ _____    ______ ____

>  <TORSDO>
F 22

$$$$
=
 OpenBabel11062412103D

 54 59  0  0  1  0  0  0  0  0999 V2000
  185.5730  179.2980  138.4180 C   0  0  0  0  0  0  0  0  0  0  0  0
  190.1720  177.3990  138.7080 C   0  0  0  0  0  2  0  0  0  0  0  0
  183.5240  177.3340  140.8590 C   0  0  2  0  0  3  0  0  0  0  0  0
  186.8150  177.6670  140.3030 O   0  0  0  0  0  0  0  0  0  0  0  0
  189.1010  177.2130  139.7790 C   0  0  0  0  0  2  0  0  0  0  0  0
  184.4820  177.3740  141.9310 O   0  0  0  0  0  0  0  0  0  0  0  0
  184.4520  180.0610  139.0620 O   0  0  0  0  0  0  0  0  0  0  0  0
  186.5540  179.0740  137.5670 C   0  0  0  0  0  3  0  0  0  0  0  0
  187.4880  177.9710  137.9540 C   0  0  2  0  0  3  0  0  0  0  0  0
  184.9400  178.8850  139.5590 C   0  0  2  0  0  0  0  0  0  0  0  0
  186.0070  178.7920  140.6300 C   0  0  1  0  0  3  0  0  0  0  0  0
  187.8780  178.0810  139.4660 C   0  0  1  0  0  3  0  0  0  0  0  0
  188.7510  178.0810  137.0960 C   0  0  0  0  0  2  0  0  0  0  0  0
  185.2870  178.5590  141.9900 C   0  0  2  0  0  0  0  0  0  0  0  0
  184.0230  177.6990  139.4520 C   0  0  0  0  0  2  0  0  0  0  0  0
  189.6540  177.0630  137.4440 O   0  0  0  0  0  0  0  0  0  0  0  0
  187.2690  177.2660  143.0550 C   0  0  2  0  0  3  0  0  0  0  0  0
  186.3870  177.4880  145.4750 C   0  0  0  0  0  1  0  0  0  0  0  0
  186.2730  178.3970  143.1930 C   0  0  2  0  0  3  0  0  0  0  0  0
  186.0770  177.1430  144.0230 C   0  0  1  0  0  3  0  0  0  0  0  0
  188.5950  177.6490  143.7060 C   0  0  0  0  0  2  0  0  0  0  0  0
  189.4540  176.4750  143.7550 N   0  0  0  0  0  2  0  0  0  0  0  0
  191.9880  175.9520  144.2960 O   0  0  0  0  0  0  0  0  0  0  0  0
  190.8470  176.8310  144.7330 S   0  0  0  0  0  0  0  0  0  0  0  0
  191.2540  178.2730  144.5730 O   0  0  0  0  0  0  0  0  0  0  0  0
  190.4720  176.5290  146.4610 C   0  0  1  0  0  3  0  0  0  0  0  0
  192.5660  175.2360  147.0130 N   0  0  0  0  0  1  0  0  0  0  0  0
  192.0340  177.1780  148.1620 O   0  0  0  0  0  0  0  0  0  0  0  0
  191.7270  176.3600  147.2560 C   0  0  0  0  0  0  0  0  0  0  0  0
  188.6630  177.1030  148.0060 N   0  0  0  0  0  1  0  0  0  0  0  0
  189.6130  177.6440  147.0440 C   0  0  0  0  0  2  0  0  0  0  0  0
  184.4140  179.8100  142.2900 C   0  0  0  0  0  2  0  0  0  0  0  0
  184.2130  180.1800  143.7690 C   0  0  0  0  0  2  0  0  0  0  0  0
  183.1470  179.3350  144.4420 C   0  0  0  0  0  2  0  0  0  0  0  0
  183.5000  179.0820  145.7660 O   0  0  0  0  0  1  0  0  0  0  0  0
  182.1850  177.9730  141.2000 C   0  0  0  0  0  2  0  0  0  0  0  0
  181.0480  177.2240  140.5180 C   0  0  0  0  0  2  0  0  0  0  0  0
  180.6380  177.8100  139.1620 C   0  0  2  0  0  3  0  0  0  0  0  0
  179.6600  178.9820  139.2710 C   0  0  0  0  0  2  0  0  0  0  0  0
  180.3390  180.3500  139.1690 C   0  0  2  0  0  3  0  0  0  0  0  0
  179.8900  181.1610  140.3810 C   0  0  0  0  0  1  0  0  0  0  0  0
  180.8270  180.7360  136.8370 O   0  0  0  0  0  1  0  0  0  0  0  0
  179.9530  181.0850  137.8720 C   0  0  2  0  0  3  0  0  0  0  0  0
  180.0010  182.5950  138.0790 C   0  0  0  0  0  2  0  0  0  0  0  0
  181.0000  183.2480  137.1400 C   0  0  0  0  0  2  0  0  0  0  0  0
  181.2510  184.5590  137.5450 O   0  0  0  0  0  1  0  0  0  0  0  0
  180.2180  176.7660  138.1110 C   0  0  0  0  0  2  0  0  0  0  0  0
  180.6670  174.3830  138.6100 C   0  0  0  0  0  1  0  0  0  0  0  0
  181.2300  175.6340  137.9520 C   0  0  1  0  0  3  0  0  0  0  0  0
  181.5150  175.4030  136.4700 C   0  0  0  0  0  2  0  0  0  0  0  0
  183.6870  175.3400  135.1200 C   0  0  0  0  0  2  0  0  0  0  0  0
  184.0610  175.6940  136.5530 C   0  0  0  0  0  2  0  0  0  0  0  0
  182.7470  176.1660  135.9710 C   0  0  0  0  0  0  0  0  0  0  0  0
  182.6630  177.6170  135.5300 C   0  0  0  0  0  1  0  0  0  0  0  0
  1  7  1  0  0  0  0
  1 10  1  0  0  0  0
  2  5  1  0  0  0  0
  3 36  1  1  0  0  0
  3  6  1  0  0  0  0
  6 14  1  0  0  0  0
  7 10  1  0  0  0  0
  8  9  1  0  0  0  0
  8  1  2  0  0  0  0
  9 13  1  6  0  0  0
  9 12  1  0  0  0  0
 10 15  1  6  0  0  0
 10 11  1  0  0  0  0
 11  4  1  6  0  0  0
 11 14  1  0  0  0  0
 12  5  1  6  0  0  0
 12  4  1  0  0  0  0
 13 16  1  0  0  0  0
 14 32  1  1  0  0  0
 15  3  1  0  0  0  0
 16  2  1  0  0  0  0
 17 19  1  0  0  0  0
 17 21  1  1  0  0  0
 17 20  1  0  0  0  0
 19 14  1  6  0  0  0
 19 20  1  0  0  0  0
 20 18  1  1  0  0  0
 21 22  1  0  0  0  0
 22 24  1  0  0  0  0
 23 24  2  0  0  0  0
 24 26  1  0  0  0  0
 25 24  2  0  0  0  0
 26 31  1  1  0  0  0
 26 29  1  0  0  0  0
 27 29  1  0  0  0  0
 29 28  2  0  0  0  0
 31 30  1  0  0  0  0
 32 33  1  0  0  0  0
 33 34  1  0  0  0  0
 34 35  1  0  0  0  0
 37 36  1  0  0  0  0
 38 47  1  6  0  0  0
 38 39  1  0  0  0  0
 38 37  1  0  0  0  0
 40 39  1  0  0  0  0
 40 41  1  1  0  0  0
 43 42  1  6  0  0  0
 43 44  1  0  0  0  0
 43 40  1  0  0  0  0
 45 46  1  0  0  0  0
 45 44  1  0  0  0  0
 49 47  1  0  0  0  0
 49 48  1  6  0  0  0
 50 49  1  0  0  0  0
 51 53  1  0  0  0  0
 51 52  1  0  0  0  0
 53 50  1  0  0  0  0
 53 52  1  0  0  0  0
 54 53  1  0  0  0  0
M  END
>  <MODEL>
5

>  <REMARK>
 VINA RESULT:      -4.8      4.608      9.317
  Name = 
  22 active torsions:
  status: ('A' for Active; 'I' for Inactive)
    1  A    between atoms: C_2  and  S_14
    2  A    between atoms: C_2  and  C_35
    3  A    between atoms: C_2  and  C_51
    4  A    between atoms: C_4  and  C_13
    5  A    between atoms: C_4  and  C_28
    6  A    between atoms: C_5  and  C_50
    7  A    between atoms: C_5  and  C_54
    8  A    between atoms: C_6  and  C_44
    9  A    between atoms: C_6  and  C_49
   10  A    between atoms: C_9  and  C_42
   11  A    between atoms: C_11  and  C_43
   12  A    between atoms: S_14  and  N_38
   13  A    between atoms: C_19  and  C_25
   14  A    between atoms: C_19  and  C_44
   15  A    between atoms: C_21  and  C_36
   16  A    between atoms: C_25  and  C_54
   17  A    between atoms: C_28  and  C_36
   18  A    between atoms: C_31  and  C_48
   19  A    between atoms: C_31  and  C_49
   20  A    between atoms: N_38  and  C_43
   21  A    between atoms: C_42  and  C_46
   22  A    between atoms: C_44  and  C_46
                            x       y       z     vdW  Elec       q    Type
                         _______ _______ _______ _____ _____    ______ ____

>  <TORSDO>
F 22

$$$$
=
 OpenBabel11062412103D

 54 59  0  0  1  0  0  0  0  0999 V2000
  180.0520  180.0110  135.3840 C   0  0  0  0  0  0  0  0  0  0  0  0
  180.8580  184.6380  137.0520 C   0  0  0  0  0  2  0  0  0  0  0  0
  182.5720  177.8640  137.1320 C   0  0  2  0  0  3  0  0  0  0  0  0
  181.4610  180.9990  137.5740 O   0  0  0  0  0  0  0  0  0  0  0  0
  181.3470  183.3780  137.7590 C   0  0  0  0  0  2  0  0  0  0  0  0
  182.3750  178.4300  138.4390 O   0  0  0  0  0  0  0  0  0  0  0  0
  179.6060  178.6040  135.6550 O   0  0  0  0  0  0  0  0  0  0  0  0
  179.9960  181.2210  134.8660 C   0  0  0  0  0  3  0  0  0  0  0  0
  180.8750  182.2350  135.5270 C   0  0  2  0  0  3  0  0  0  0  0  0
  180.6650  179.1900  136.2910 C   0  0  2  0  0  0  0  0  0  0  0  0
  180.5730  179.8880  137.6320 C   0  0  1  0  0  3  0  0  0  0  0  0
  180.7660  182.1300  137.0850 C   0  0  1  0  0  3  0  0  0  0  0  0
  180.4290  183.6300  135.0820 C   0  0  0  0  0  2  0  0  0  0  0  0
  181.0430  178.8790  138.7190 C   0  0  2  0  0  0  0  0  0  0  0  0
  182.0220  178.6510  135.9320 C   0  0  0  0  0  2  0  0  0  0  0  0
  181.2300  184.6060  135.6960 O   0  0  0  0  0  0  0  0  0  0  0  0
  181.1540  178.4640  141.2790 C   0  0  2  0  0  3  0  0  0  0  0  0
  179.5200  180.3770  141.8710 C   0  0  0  0  0  1  0  0  0  0  0  0
  181.0440  179.4800  140.1630 C   0  0  2  0  0  3  0  0  0  0  0  0
  179.8130  179.1670  140.9920 C   0  0  1  0  0  3  0  0  0  0  0  0
  181.9520  179.0420  142.4420 C   0  0  0  0  0  2  0  0  0  0  0  0
  183.3200  178.5470  142.3700 N   0  0  0  0  0  2  0  0  0  0  0  0
  184.6230  180.4500  143.6610 O   0  0  0  0  0  0  0  0  0  0  0  0
  184.1730  179.0220  143.8080 S   0  0  0  0  0  0  0  0  0  0  0  0
  183.2780  178.9150  145.0160 O   0  0  0  0  0  0  0  0  0  0  0  0
  185.5950  177.9560  144.0520 C   0  0  1  0  0  3  0  0  0  0  0  0
  187.9670  177.9630  143.1940 N   0  0  0  0  0  1  0  0  0  0  0  0
  186.1890  178.4080  141.7730 O   0  0  0  0  0  0  0  0  0  0  0  0
  186.5750  178.1120  142.9340 C   0  0  0  0  0  0  0  0  0  0  0  0
  187.0110  177.0550  145.8340 N   0  0  0  0  0  1  0  0  0  0  0  0
  186.2650  178.2260  145.3940 C   0  0  0  0  0  2  0  0  0  0  0  0
  180.0450  177.6870  138.7300 C   0  0  0  0  0  2  0  0  0  0  0  0
  180.5690  176.3460  139.2690 C   0  0  0  0  0  2  0  0  0  0  0  0
  179.4610  175.4580  139.8030 C   0  0  0  0  0  2  0  0  0  0  0  0
  179.9970  174.4440  140.5950 O   0  0  0  0  0  1  0  0  0  0  0  0
  182.2790  176.3730  137.0510 C   0  0  0  0  0  2  0  0  0  0  0  0
  183.4410  175.6360  136.4010 C   0  0  0  0  0  2  0  0  0  0  0  0
  184.4520  175.0580  137.3990 C   0  0  2  0  0  3  0  0  0  0  0  0
  185.8950  175.4910  137.1300 C   0  0  0  0  0  2  0  0  0  0  0  0
  186.0440  176.9960  136.8960 C   0  0  2  0  0  3  0  0  0  0  0  0
  186.2070  177.1990  135.3930 C   0  0  0  0  0  1  0  0  0  0  0  0
  187.1640  178.9660  137.7260 O   0  0  0  0  0  1  0  0  0  0  0  0
  187.2620  177.5730  137.6410 C   0  0  2  0  0  3  0  0  0  0  0  0
  188.5530  177.2060  136.9170 C   0  0  0  0  0  2  0  0  0  0  0  0
  189.7610  177.3930  137.8190 C   0  0  0  0  0  2  0  0  0  0  0  0
  190.7890  176.5370  137.4250 O   0  0  0  0  0  1  0  0  0  0  0  0
  184.3100  173.5460  137.6550 C   0  0  0  0  0  2  0  0  0  0  0  0
  185.1740  172.2190  135.7520 C   0  0  0  0  0  1  0  0  0  0  0  0
  183.9120  172.7610  136.4080 C   0  0  1  0  0  3  0  0  0  0  0  0
  182.9570  171.6340  136.7920 C   0  0  0  0  0  2  0  0  0  0  0  0
  181.5210  171.7720  134.6800 C   0  0  0  0  0  2  0  0  0  0  0  0
  181.3520  173.0900  135.4220 C   0  0  0  0  0  2  0  0  0  0  0  0
  181.5570  171.8040  136.1920 C   0  0  0  0  0  0  0  0  0  0  0  0
  180.3320  171.1740  136.8320 C   0  0  0  0  0  1  0  0  0  0  0  0
  1  7  1  0  0  0  0
  1 10  1  0  0  0  0
  2  5  1  0  0  0  0
  3 36  1  1  0  0  0
  3  6  1  0  0  0  0
  6 14  1  0  0  0  0
  7 10  1  0  0  0  0
  8  1  2  0  0  0  0
  9  8  1  6  0  0  0
  9 12  1  0  0  0  0
 10 15  1  6  0  0  0
 10 11  1  0  0  0  0
 11  4  1  6  0  0  0
 11 14  1  0  0  0  0
 12  4  1  0  0  0  0
 12  5  1  1  0  0  0
 13  9  1  0  0  0  0
 13 16  1  0  0  0  0
 14 32  1  6  0  0  0
 15  3  1  0  0  0  0
 16  2  1  0  0  0  0
 17 21  1  1  0  0  0
 19 14  1  6  0  0  0
 19 20  1  0  0  0  0
 19 17  1  0  0  0  0
 20 17  1  0  0  0  0
 20 18  1  1  0  0  0
 22 21  1  0  0  0  0
 22 24  1  0  0  0  0
 23 24  2  0  0  0  0
 24 26  1  0  0  0  0
 24 25  2  0  0  0  0
 26 31  1  1  0  0  0
 28 29  2  0  0  0  0
 29 27  1  0  0  0  0
 29 26  1  0  0  0  0
 31 30  1  0  0  0  0
 32 33  1  0  0  0  0
 33 34  1  0  0  0  0
 34 35  1  0  0  0  0
 37 36  1  0  0  0  0
 38 37  1  6  0  0  0
 38 47  1  0  0  0  0
 39 38  1  0  0  0  0
 40 41  1  6  0  0  0
 40 39  1  0  0  0  0
 40 43  1  0  0  0  0
 43 42  1  6  0  0  0
 44 43  1  0  0  0  0
 44 45  1  0  0  0  0
 46 45  1  0  0  0  0
 49 48  1  1  0  0  0
 49 50  1  0  0  0  0
 49 47  1  0  0  0  0
 51 52  1  0  0  0  0
 51 53  1  0  0  0  0
 52 53  1  0  0  0  0
 53 50  1  0  0  0  0
 53 54  1  0  0  0  0
M  END
>  <MODEL>
6

>  <REMARK>
 VINA RESULT:      -4.4      6.136     11.126
  Name = 
  22 active torsions:
  status: ('A' for Active; 'I' for Inactive)
    1  A    between atoms: C_2  and  S_14
    2  A    between atoms: C_2  and  C_35
    3  A    between atoms: C_2  and  C_51
    4  A    between atoms: C_4  and  C_13
    5  A    between atoms: C_4  and  C_28
    6  A    between atoms: C_5  and  C_50
    7  A    between atoms: C_5  and  C_54
    8  A    between atoms: C_6  and  C_44
    9  A    between atoms: C_6  and  C_49
   10  A    between atoms: C_9  and  C_42
   11  A    between atoms: C_11  and  C_43
   12  A    between atoms: S_14  and  N_38
   13  A    between atoms: C_19  and  C_25
   14  A    between atoms: C_19  and  C_44
   15  A    between atoms: C_21  and  C_36
   16  A    between atoms: C_25  and  C_54
   17  A    between atoms: C_28  and  C_36
   18  A    between atoms: C_31  and  C_48
   19  A    between atoms: C_31  and  C_49
   20  A    between atoms: N_38  and  C_43
   21  A    between atoms: C_42  and  C_46
   22  A    between atoms: C_44  and  C_46
                            x       y       z     vdW  Elec       q    Type
                         _______ _______ _______ _____ _____    ______ ____

>  <TORSDO>
F 22

$$$$
=
 OpenBabel11062412103D

 54 59  0  0  1  0  0  0  0  0999 V2000
  190.9840  178.3920  143.8940 C   0  0  0  0  0  0  0  0  0  0  0  0
  187.5400  177.5070  147.3850 C   0  0  0  0  0  2  0  0  0  0  0  0
  190.1280  176.1190  141.0440 C   0  0  2  0  0  3  0  0  0  0  0  0
  188.5090  177.1160  143.8090 O   0  0  0  0  0  0  0  0  0  0  0  0
  187.3810  177.1330  145.9150 C   0  0  0  0  0  2  0  0  0  0  0  0
  188.7160  176.3920  141.0500 O   0  0  0  0  0  0  0  0  0  0  0  0
  191.3320  178.9230  142.5340 O   0  0  0  0  0  0  0  0  0  0  0  0
  190.9680  178.3510  145.2100 C   0  0  0  0  0  3  0  0  0  0  0  0
  189.9060  177.4810  145.8040 C   0  0  2  0  0  3  0  0  0  0  0  0
  190.4570  177.8910  142.7340 C   0  0  2  0  0  0  0  0  0  0  0  0
  188.9560  178.0560  142.8390 C   0  0  1  0  0  3  0  0  0  0  0  0
  188.5330  177.7170  145.0900 C   0  0  1  0  0  3  0  0  0  0  0  0
  189.7690  177.8250  147.2890 C   0  0  0  0  0  2  0  0  0  0  0  0
  188.3490  177.7200  141.4460 C   0  0  2  0  0  0  0  0  0  0  0  0
  190.9310  176.5370  142.2860 C   0  0  0  0  0  2  0  0  0  0  0  0
  188.7700  177.0300  147.8740 O   0  0  0  0  0  0  0  0  0  0  0  0
  186.2270  179.0020  140.6750 C   0  0  2  0  0  3  0  0  0  0  0  0
  184.8700  178.4610  142.8070 C   0  0  0  0  0  1  0  0  0  0  0  0
  186.7870  177.8050  141.4140 C   0  0  2  0  0  3  0  0  0  0  0  0
  186.1880  178.9460  142.2140 C   0  0  1  0  0  3  0  0  0  0  0  0
  184.9230  178.6290  139.9790 C   0  0  0  0  0  2  0  0  0  0  0  0
  185.0210  178.9790  138.5700 N   0  0  0  0  0  2  0  0  0  0  0  0
  185.0770  177.8720  136.1700 O   0  0  0  0  0  0  0  0  0  0  0  0
  184.7880  177.5480  137.6110 S   0  0  0  0  0  0  0  0  0  0  0  0
  185.7180  176.4510  138.0600 O   0  0  0  0  0  0  0  0  0  0  0  0
  183.0970  176.9710  137.7780 C   0  0  1  0  0  3  0  0  0  0  0  0
  181.4510  178.2790  139.1700 N   0  0  0  0  0  1  0  0  0  0  0  0
  181.9520  178.9290  137.0010 O   0  0  0  0  0  0  0  0  0  0  0  0
  182.1560  178.1200  137.9440 C   0  0  0  0  0  0  0  0  0  0  0  0
  183.4980  174.9000  136.5370 N   0  0  0  0  0  1  0  0  0  0  0  0
  182.6870  176.1080  136.5910 C   0  0  0  0  0  2  0  0  0  0  0  0
  188.8760  178.7700  140.4280 C   0  0  0  0  0  2  0  0  0  0  0  0
  188.6500  178.4680  138.9370 C   0  0  0  0  0  2  0  0  0  0  0  0
  188.7600  179.7070  138.0680 C   0  0  0  0  0  2  0  0  0  0  0  0
  189.3510  179.3860  136.8470 O   0  0  0  0  0  1  0  0  0  0  0  0
  190.8230  176.4740  139.7380 C   0  0  0  0  0  2  0  0  0  0  0  0
  190.2720  175.6330  138.5950 C   0  0  0  0  0  2  0  0  0  0  0  0
  191.1010  175.7080  137.3080 C   0  0  2  0  0  3  0  0  0  0  0  0
  192.5800  176.0120  137.5480 C   0  0  0  0  0  2  0  0  0  0  0  0
  193.5240  175.1050  136.7550 C   0  0  2  0  0  3  0  0  0  0  0  0
  193.7310  173.8430  137.5860 C   0  0  0  0  0  1  0  0  0  0  0  0
  194.6840  177.0430  135.9050 O   0  0  0  0  0  1  0  0  0  0  0  0
  194.8790  175.7840  136.4830 C   0  0  2  0  0  3  0  0  0  0  0  0
  195.7270  174.9300  135.5470 C   0  0  0  0  0  2  0  0  0  0  0  0
  197.1200  174.7130  136.1110 C   0  0  0  0  0  2  0  0  0  0  0  0
  197.6820  175.9350  136.4790 O   0  0  0  0  0  1  0  0  0  0  0  0
  190.4780  176.5670  136.1910 C   0  0  0  0  0  2  0  0  0  0  0  0
  188.5790  176.9940  134.6610 C   0  0  0  0  0  1  0  0  0  0  0  0
  189.1380  176.0300  135.6970 C   0  0  1  0  0  3  0  0  0  0  0  0
  189.3290  174.6320  135.1110 C   0  0  0  0  0  2  0  0  0  0  0  0
  188.5810  172.9250  136.8630 C   0  0  0  0  0  2  0  0  0  0  0  0
  188.6810  172.1880  135.5350 C   0  0  0  0  0  2  0  0  0  0  0  0
  188.2550  173.6390  135.5690 C   0  0  0  0  0  0  0  0  0  0  0  0
  186.7740  173.9330  135.4050 C   0  0  0  0  0  1  0  0  0  0  0  0
  1  8  2  0  0  0  0
  2 16  1  0  0  0  0
  3 36  1  6  0  0  0
  3  6  1  0  0  0  0
  3 15  1  0  0  0  0
  4 12  1  0  0  0  0
  5  2  1  0  0  0  0
  6 14  1  0  0  0  0
  7 10  1  0  0  0  0
  7  1  1  0  0  0  0
  9  8  1  6  0  0  0
  9 13  1  0  0  0  0
 10 15  1  6  0  0  0
 10 11  1  0  0  0  0
 10  1  1  0  0  0  0
 11  4  1  1  0  0  0
 12  9  1  0  0  0  0
 12  5  1  1  0  0  0
 13 16  1  0  0  0  0
 14 32  1  6  0  0  0
 14 11  1  0  0  0  0
 17 21  1  6  0  0  0
 17 19  1  0  0  0  0
 17 20  1  0  0  0  0
 19 14  1  1  0  0  0
 19 20  1  0  0  0  0
 20 18  1  6  0  0  0
 22 21  1  0  0  0  0
 23 24  2  0  0  0  0
 24 26  1  0  0  0  0
 24 25  2  0  0  0  0
 24 22  1  0  0  0  0
 26 31  1  6  0  0  0
 26 29  1  0  0  0  0
 28 29  2  0  0  0  0
 29 27  1  0  0  0  0
 30 31  1  0  0  0  0
 33 32  1  0  0  0  0
 34 33  1  0  0  0  0
 35 34  1  0  0  0  0
 37 36  1  0  0  0  0
 38 47  1  6  0  0  0
 38 39  1  0  0  0  0
 38 37  1  0  0  0  0
 40 39  1  0  0  0  0
 40 41  1  1  0  0  0
 43 42  1  6  0  0  0
 43 40  1  0  0  0  0
 44 45  1  0  0  0  0
 44 43  1  0  0  0  0
 45 46  1  0  0  0  0
 49 48  1  6  0  0  0
 49 47  1  0  0  0  0
 50 53  1  0  0  0  0
 50 49  1  0  0  0  0
 52 53  1  0  0  0  0
 52 51  1  0  0  0  0
 53 51  1  0  0  0  0
 54 53  1  0  0  0  0
M  END
>  <MODEL>
7

>  <REMARK>
 VINA RESULT:      -4.2      3.602      9.739
  Name = 
  22 active torsions:
  status: ('A' for Active; 'I' for Inactive)
    1  A    between atoms: C_2  and  S_14
    2  A    between atoms: C_2  and  C_35
    3  A    between atoms: C_2  and  C_51
    4  A    between atoms: C_4  and  C_13
    5  A    between atoms: C_4  and  C_28
    6  A    between atoms: C_5  and  C_50
    7  A    between atoms: C_5  and  C_54
    8  A    between atoms: C_6  and  C_44
    9  A    between atoms: C_6  and  C_49
   10  A    between atoms: C_9  and  C_42
   11  A    between atoms: C_11  and  C_43
   12  A    between atoms: S_14  and  N_38
   13  A    between atoms: C_19  and  C_25
   14  A    between atoms: C_19  and  C_44
   15  A    between atoms: C_21  and  C_36
   16  A    between atoms: C_25  and  C_54
   17  A    between atoms: C_28  and  C_36
   18  A    between atoms: C_31  and  C_48
   19  A    between atoms: C_31  and  C_49
   20  A    between atoms: N_38  and  C_43
   21  A    between atoms: C_42  and  C_46
   22  A    between atoms: C_44  and  C_46
                            x       y       z     vdW  Elec       q    Type
                         _______ _______ _______ _____ _____    ______ ____

>  <TORSDO>
F 22

$$$$
=
 OpenBabel11062412103D

 54 59  0  0  1  0  0  0  0  0999 V2000
  187.8360  178.4450  137.9420 C   0  0  0  0  0  0  0  0  0  0  0  0
  186.0520  175.0700  134.7390 C   0  0  0  0  0  2  0  0  0  0  0  0
  189.7800  176.4910  140.4750 C   0  0  2  0  0  3  0  0  0  0  0  0
  188.4990  175.7840  137.4570 O   0  0  0  0  0  0  0  0  0  0  0  0
  187.2180  174.8130  135.6890 C   0  0  0  0  0  2  0  0  0  0  0  0
  190.4650  175.6530  139.5290 O   0  0  0  0  0  0  0  0  0  0  0  0
  189.0140  179.1660  138.5300 O   0  0  0  0  0  0  0  0  0  0  0  0
  186.7270  178.3040  137.2450 C   0  0  0  0  0  3  0  0  0  0  0  0
  186.3710  176.8920  136.9010 C   0  0  2  0  0  3  0  0  0  0  0  0
  188.8510  177.8110  138.6050 C   0  0  2  0  0  0  0  0  0  0  0  0
  189.4530  176.8260  137.6250 C   0  0  1  0  0  3  0  0  0  0  0  0
  187.6280  176.1130  136.3910 C   0  0  1  0  0  3  0  0  0  0  0  0
  185.3070  176.9130  135.8010 C   0  0  0  0  0  2  0  0  0  0  0  0
  190.7550  176.2630  138.2650 C   0  0  2  0  0  0  0  0  0  0  0  0
  188.5510  177.2640  139.9720 C   0  0  0  0  0  2  0  0  0  0  0  0
  184.9590  175.5990  135.4480 O   0  0  0  0  0  0  0  0  0  0  0  0
  191.9020  175.6780  136.0110 C   0  0  2  0  0  3  0  0  0  0  0  0
  190.9830  173.2640  135.9300 C   0  0  0  0  0  1  0  0  0  0  0  0
  191.4680  175.1910  137.3770 C   0  0  2  0  0  3  0  0  0  0  0  0
  190.6880  174.7420  136.1570 C   0  0  1  0  0  3  0  0  0  0  0  0
  193.2010  174.9940  135.5960 C   0  0  0  0  0  2  0  0  0  0  0  0
  194.0170  174.7680  136.7790 N   0  0  0  0  0  2  0  0  0  0  0  0
  195.0540  172.7820  135.3770 O   0  0  0  0  0  0  0  0  0  0  0  0
  195.4430  173.8830  136.3260 S   0  0  0  0  0  0  0  0  0  0  0  0
  196.4350  174.7880  135.6420 O   0  0  0  0  0  0  0  0  0  0  0  0
  196.2160  173.1840  137.7860 C   0  0  1  0  0  3  0  0  0  0  0  0
  196.9290  170.7830  137.4940 N   0  0  0  0  0  1  0  0  0  0  0  0
  198.4000  172.5200  137.0500 O   0  0  0  0  0  0  0  0  0  0  0  0
  197.2450  172.1680  137.4090 C   0  0  0  0  0  0  0  0  0  0  0  0
  197.6710  175.1510  137.8650 N   0  0  0  0  0  1  0  0  0  0  0  0
  196.8290  174.2700  138.6620 C   0  0  0  0  0  2  0  0  0  0  0  0
  191.7540  177.4430  138.4330 C   0  0  0  0  0  2  0  0  0  0  0  0
  192.7360  177.3600  139.6140 C   0  0  0  0  0  2  0  0  0  0  0  0
  194.1230  176.9150  139.1900 C   0  0  0  0  0  2  0  0  0  0  0  0
  194.7870  176.3250  140.2640 O   0  0  0  0  0  1  0  0  0  0  0  0
  190.7060  177.3390  141.3360 C   0  0  0  0  0  2  0  0  0  0  0  0
  191.0190  176.6270  142.6440 C   0  0  0  0  0  2  0  0  0  0  0  0
  190.4100  177.2960  143.8820 C   0  0  2  0  0  3  0  0  0  0  0  0
  190.3980  176.3990  145.1210 C   0  0  0  0  0  2  0  0  0  0  0  0
  191.5450  176.6910  146.0920 C   0  0  2  0  0  3  0  0  0  0  0  0
  192.4200  175.4420  146.1350 C   0  0  0  0  0  1  0  0  0  0  0  0
  191.1110  175.8920  148.3280 O   0  0  0  0  0  1  0  0  0  0  0  0
  191.0280  177.0200  147.5050 C   0  0  2  0  0  3  0  0  0  0  0  0
  189.5790  177.4910  147.4480 C   0  0  0  0  0  2  0  0  0  0  0  0
  189.1950  178.2430  148.7100 C   0  0  0  0  0  2  0  0  0  0  0  0
  187.8560  178.6290  148.6480 O   0  0  0  0  0  1  0  0  0  0  0  0
  189.0650  178.0050  143.6330 C   0  0  0  0  0  2  0  0  0  0  0  0
  187.3230  177.8350  145.3830 C   0  0  0  0  0  1  0  0  0  0  0  0
  187.8640  177.1960  144.1120 C   0  0  1  0  0  3  0  0  0  0  0  0
  186.8020  177.1530  143.0160 C   0  0  0  0  0  2  0  0  0  0  0  0
  184.7180  178.2800  142.0500 C   0  0  0  0  0  2  0  0  0  0  0  0
  185.8120  179.3370  142.1090 C   0  0  0  0  0  2  0  0  0  0  0  0
  185.7450  178.2530  143.1620 C   0  0  0  0  0  0  0  0  0  0  0  0
  185.1700  178.6320  144.5150 C   0  0  0  0  0  1  0  0  0  0  0  0
  1  7  1  0  0  0  0
  1 10  1  0  0  0  0
  2 16  1  0  0  0  0
  2  5  1  0  0  0  0
  3 36  1  6  0  0  0
  6  3  1  0  0  0  0
  7 10  1  0  0  0  0
  8  1  2  0  0  0  0
  9 13  1  6  0  0  0
  9  8  1  0  0  0  0
 10 15  1  1  0  0  0
 11  4  1  1  0  0  0
 11 14  1  0  0  0  0
 11 10  1  0  0  0  0
 12  5  1  1  0  0  0
 12  9  1  0  0  0  0
 12  4  1  0  0  0  0
 14 32  1  1  0  0  0
 14  6  1  0  0  0  0
 15  3  1  0  0  0  0
 16 13  1  0  0  0  0
 17 21  1  6  0  0  0
 17 20  1  0  0  0  0
 17 19  1  0  0  0  0
 19 14  1  1  0  0  0
 20 18  1  6  0  0  0
 20 19  1  0  0  0  0
 21 22  1  0  0  0  0
 23 24  2  0  0  0  0
 24 22  1  0  0  0  0
 24 26  1  0  0  0  0
 25 24  2  0  0  0  0
 26 31  1  6  0  0  0
 28 29  2  0  0  0  0
 29 27  1  0  0  0  0
 29 26  1  0  0  0  0
 30 31  1  0  0  0  0
 32 33  1  0  0  0  0
 34 33  1  0  0  0  0
 34 35  1  0  0  0  0
 36 37  1  0  0  0  0
 38 37  1  6  0  0  0
 38 39  1  0  0  0  0
 39 40  1  0  0  0  0
 40 41  1  1  0  0  0
 40 43  1  0  0  0  0
 43 42  1  1  0  0  0
 44 43  1  0  0  0  0
 44 45  1  0  0  0  0
 46 45  1  0  0  0  0
 47 38  1  0  0  0  0
 47 49  1  0  0  0  0
 49 48  1  1  0  0  0
 50 53  1  0  0  0  0
 50 49  1  0  0  0  0
 51 52  1  0  0  0  0
 51 53  1  0  0  0  0
 52 53  1  0  0  0  0
 53 54  1  0  0  0  0
M  END
>  <MODEL>
8

>  <REMARK>
 VINA RESULT:      -3.7      2.007      3.265
  Name = 
  22 active torsions:
  status: ('A' for Active; 'I' for Inactive)
    1  A    between atoms: C_2  and  S_14
    2  A    between atoms: C_2  and  C_35
    3  A    between atoms: C_2  and  C_51
    4  A    between atoms: C_4  and  C_13
    5  A    between atoms: C_4  and  C_28
    6  A    between atoms: C_5  and  C_50
    7  A    between atoms: C_5  and  C_54
    8  A    between atoms: C_6  and  C_44
    9  A    between atoms: C_6  and  C_49
   10  A    between atoms: C_9  and  C_42
   11  A    between atoms: C_11  and  C_43
   12  A    between atoms: S_14  and  N_38
   13  A    between atoms: C_19  and  C_25
   14  A    between atoms: C_19  and  C_44
   15  A    between atoms: C_21  and  C_36
   16  A    between atoms: C_25  and  C_54
   17  A    between atoms: C_28  and  C_36
   18  A    between atoms: C_31  and  C_48
   19  A    between atoms: C_31  and  C_49
   20  A    between atoms: N_38  and  C_43
   21  A    between atoms: C_42  and  C_46
   22  A    between atoms: C_44  and  C_46
                            x       y       z     vdW  Elec       q    Type
                         _______ _______ _______ _____ _____    ______ ____

>  <TORSDO>
F 22

$$$$
=
 OpenBabel11062412103D

 54 59  0  0  1  0  0  0  0  0999 V2000
  187.5470  178.5930  137.5310 C   0  0  0  0  0  0  0  0  0  0  0  0
  186.0090  174.8720  134.5950 C   0  0  0  0  0  2  0  0  0  0  0  0
  188.9770  176.9420  140.5720 C   0  0  2  0  0  3  0  0  0  0  0  0
  188.0890  175.8600  137.5230 O   0  0  0  0  0  0  0  0  0  0  0  0
  187.0090  174.7030  135.7350 C   0  0  0  0  0  2  0  0  0  0  0  0
  189.7300  175.9420  139.8640 O   0  0  0  0  0  0  0  0  0  0  0  0
  188.6770  179.3360  138.1830 O   0  0  0  0  0  0  0  0  0  0  0  0
  186.5410  178.4030  136.7030 C   0  0  0  0  0  3  0  0  0  0  0  0
  186.1420  176.9740  136.5080 C   0  0  2  0  0  3  0  0  0  0  0  0
  188.4130  178.0150  138.4200 C   0  0  2  0  0  0  0  0  0  0  0  0
  189.0790  176.8700  137.6860 C   0  0  1  0  0  3  0  0  0  0  0  0
  187.4030  176.0700  136.3040 C   0  0  1  0  0  3  0  0  0  0  0  0
  185.2480  176.8840  135.2690 C   0  0  0  0  0  2  0  0  0  0  0  0
  190.2370  176.3470  138.5850 C   0  0  2  0  0  0  0  0  0  0  0  0
  187.8860  177.6890  139.7890 C   0  0  0  0  0  2  0  0  0  0  0  0
  184.8650  175.5500  135.0530 O   0  0  0  0  0  0  0  0  0  0  0  0
  191.9100  175.4550  136.8130 C   0  0  2  0  0  3  0  0  0  0  0  0
  190.6570  173.2240  136.4470 C   0  0  0  0  0  1  0  0  0  0  0  0
  190.9930  175.1240  137.9710 C   0  0  2  0  0  3  0  0  0  0  0  0
  190.5670  174.7410  136.5670 C   0  0  1  0  0  3  0  0  0  0  0  0
  193.1330  174.5450  136.8310 C   0  0  0  0  0  2  0  0  0  0  0  0
  194.1980  175.1670  136.0590 N   0  0  0  0  0  2  0  0  0  0  0  0
  195.7150  173.2430  135.0670 O   0  0  0  0  0  0  0  0  0  0  0  0
  195.6450  174.2160  136.2140 S   0  0  0  0  0  0  0  0  0  0  0  0
  196.8660  175.0970  136.1810 O   0  0  0  0  0  0  0  0  0  0  0  0
  195.6230  173.3230  137.7700 C   0  0  1  0  0  3  0  0  0  0  0  0
  194.5780  171.0620  137.3710 N   0  0  0  0  0  1  0  0  0  0  0  0
  196.8800  171.2940  137.5320 O   0  0  0  0  0  0  0  0  0  0  0  0
  195.7510  171.8510  137.5410 C   0  0  0  0  0  0  0  0  0  0  0  0
  196.2010  174.8560  139.5880 N   0  0  0  0  0  1  0  0  0  0  0  0
  196.7170  173.8180  138.7070 C   0  0  0  0  0  2  0  0  0  0  0  0
  191.2800  177.4900  138.7370 C   0  0  0  0  0  2  0  0  0  0  0  0
  192.0810  177.5320  140.0480 C   0  0  0  0  0  2  0  0  0  0  0  0
  193.5600  177.2680  139.8370 C   0  0  0  0  0  2  0  0  0  0  0  0
  193.9010  177.4860  138.5030 O   0  0  0  0  0  1  0  0  0  0  0  0
  189.8270  177.8630  141.4360 C   0  0  0  0  0  2  0  0  0  0  0  0
  188.9920  178.4610  142.5590 C   0  0  0  0  0  2  0  0  0  0  0  0
  188.8570  177.5550  143.7880 C   0  0  2  0  0  3  0  0  0  0  0  0
  188.2130  178.2460  144.9920 C   0  0  0  0  0  2  0  0  0  0  0  0
  186.9430  177.5480  145.4850 C   0  0  2  0  0  3  0  0  0  0  0  0
  185.7960  178.0370  144.6050 C   0  0  0  0  0  1  0  0  0  0  0  0
  185.4710  178.6160  147.0710 O   0  0  0  0  0  1  0  0  0  0  0  0
  186.6490  177.8700  146.9620 C   0  0  2  0  0  3  0  0  0  0  0  0
  187.8000  178.6600  147.5750 C   0  0  0  0  0  2  0  0  0  0  0  0
  188.4180  177.9130  148.7440 C   0  0  0  0  0  2  0  0  0  0  0  0
  187.4170  177.3280  149.5200 O   0  0  0  0  0  1  0  0  0  0  0  0
  190.1310  176.7690  144.1510 C   0  0  0  0  0  2  0  0  0  0  0  0
  190.9310  179.1120  144.1450 C   0  0  0  0  0  1  0  0  0  0  0  0
  191.3560  177.6620  144.3300 C   0  0  1  0  0  3  0  0  0  0  0  0
  191.9620  177.4330  145.7130 C   0  0  0  0  0  2  0  0  0  0  0  0
  190.6770  175.6830  147.0660 C   0  0  0  0  0  2  0  0  0  0  0  0
  192.0770  175.7670  147.6580 C   0  0  0  0  0  2  0  0  0  0  0  0
  191.8650  175.9750  146.1750 C   0  0  0  0  0  0  0  0  0  0  0  0
  192.2180  174.8200  145.2540 C   0  0  0  0  0  1  0  0  0  0  0  0
  1  7  1  0  0  0  0
  1 10  1  0  0  0  0
  2 16  1  0  0  0  0
  2  5  1  0  0  0  0
  3 36  1  6  0  0  0
  6  3  1  0  0  0  0
  7 10  1  0  0  0  0
  8  1  2  0  0  0  0
  9 13  1  6  0  0  0
  9  8  1  0  0  0  0
 10 15  1  1  0  0  0
 11  4  1  1  0  0  0
 11 10  1  0  0  0  0
 11 14  1  0  0  0  0
 12  5  1  1  0  0  0
 12  9  1  0  0  0  0
 12  4  1  0  0  0  0
 14 32  1  1  0  0  0
 14  6  1  0  0  0  0
 15  3  1  0  0  0  0
 16 13  1  0  0  0  0
 17 21  1  1  0  0  0
 17 19  1  0  0  0  0
 19 14  1  6  0  0  0
 20 18  1  1  0  0  0
 20 17  1  0  0  0  0
 20 19  1  0  0  0  0
 22 24  1  0  0  0  0
 22 21  1  0  0  0  0
 23 24  2  0  0  0  0
 24 26  1  0  0  0  0
 25 24  2  0  0  0  0
 26 31  1  1  0  0  0
 27 29  1  0  0  0  0
 28 29  2  0  0  0  0
 29 26  1  0  0  0  0
 31 30  1  0  0  0  0
 32 33  1  0  0  0  0
 34 33  1  0  0  0  0
 35 34  1  0  0  0  0
 36 37  1  0  0  0  0
 38 37  1  6  0  0  0
 38 47  1  0  0  0  0
 38 39  1  0  0  0  0
 39 40  1  0  0  0  0
 40 41  1  6  0  0  0
 40 43  1  0  0  0  0
 43 42  1  6  0  0  0
 43 44  1  0  0  0  0
 44 45  1  0  0  0  0
 45 46  1  0  0  0  0
 47 49  1  0  0  0  0
 49 48  1  1  0  0  0
 49 50  1  0  0  0  0
 50 53  1  0  0  0  0
 51 52  1  0  0  0  0
 53 51  1  0  0  0  0
 53 52  1  0  0  0  0
 54 53  1  0  0  0  0
M  END
>  <MODEL>
9

>  <REMARK>
 VINA RESULT:      -3.7      2.124      4.358
  Name = 
  22 active torsions:
  status: ('A' for Active; 'I' for Inactive)
    1  A    between atoms: C_2  and  S_14
    2  A    between atoms: C_2  and  C_35
    3  A    between atoms: C_2  and  C_51
    4  A    between atoms: C_4  and  C_13
    5  A    between atoms: C_4  and  C_28
    6  A    between atoms: C_5  and  C_50
    7  A    between atoms: C_5  and  C_54
    8  A    between atoms: C_6  and  C_44
    9  A    between atoms: C_6  and  C_49
   10  A    between atoms: C_9  and  C_42
   11  A    between atoms: C_11  and  C_43
   12  A    between atoms: S_14  and  N_38
   13  A    between atoms: C_19  and  C_25
   14  A    between atoms: C_19  and  C_44
   15  A    between atoms: C_21  and  C_36
   16  A    between atoms: C_25  and  C_54
   17  A    between atoms: C_28  and  C_36
   18  A    between atoms: C_31  and  C_48
   19  A    between atoms: C_31  and  C_49
   20  A    between atoms: N_38  and  C_43
   21  A    between atoms: C_42  and  C_46
   22  A    between atoms: C_44  and  C_46
                            x       y       z     vdW  Elec       q    Type
                         _______ _______ _______ _____ _____    ______ ____

>  <TORSDO>
F 22

$$$$
