=
 OpenBabel11062416423D

 57 63  0  0  1  0  0  0  0  0999 V2000
  184.7590  178.3980  140.9470 C   0  0  0  0  0  3  0  0  0  0  0  0
  180.6330  178.6180  138.8690 C   0  0  0  0  0  2  0  0  0  0  0  0
  184.9140  175.6790  138.3240 C   0  0  0  0  0  1  0  0  0  0  0  0
  183.0690  178.4170  138.4570 C   0  0  2  0  0  3  0  0  0  0  0  0
  183.4700  178.8990  141.5680 C   0  0  1  0  0  3  0  0  0  0  0  0
  180.6630  178.0780  137.4160 C   0  0  0  0  0  2  0  0  0  0  0  0
  181.0390  178.9710  141.5410 F   0  0  0  0  0  0  0  0  0  0  0  0
  182.8990  177.0130  138.0520 N   0  0  1  0  0  0  0  0  0  0  0  0
  182.1690  178.8280  140.7760 C   0  0  1  0  0  3  0  0  0  0  0  0
  184.5110  178.8540  138.4540 C   0  0  2  0  0  3  0  0  0  0  0  0
  184.9590  177.9750  137.2780 C   0  0  2  0  0  3  0  0  0  0  0  0
  181.6660  176.8990  137.2260 C   0  0  1  0  0  3  0  0  0  0  0  0
  185.2130  178.4060  139.6880 C   0  0  0  0  0  3  0  0  0  0  0  0
  184.1850  176.6530  137.3880 C   0  0  1  0  0  0  0  0  0  0  0  0
  182.0220  178.8220  139.4400 C   0  0  2  0  0  3  0  0  0  0  0  0
  180.2260  172.3310  137.4610 C   0  0  0  0  0  2  0  0  0  0  0  0
  180.9300  173.2650  136.4820 C   0  0  1  0  0  3  0  0  0  0  0  0
  181.8090  174.3820  137.0420 C   0  0  0  0  0  2  0  0  0  0  0  0
  180.2250  175.4180  138.7900 C   0  0  0  0  0  2  0  0  0  0  0  0
  179.1870  173.1380  138.2060 C   0  0  0  0  0  2  0  0  0  0  0  0
  179.8690  173.9950  139.2660 C   0  0  2  0  0  3  0  0  0  0  0  0
  180.8970  175.5680  137.4160 C   0  0  1  0  0  3  0  0  0  0  0  0
  178.9400  174.0640  140.4450 C   0  0  0  0  0  3  0  0  0  0  0  0
  179.2620  174.5660  141.5050 O   0  0  0  0  0  0  0  0  0  0  0  0
  180.1430  171.7230  134.7110 C   0  0  0  0  0  1  0  0  0  0  0  0
  181.0400  172.9240  135.0130 C   0  0  2  0  0  3  0  0  0  0  0  0
  182.4950  172.6910  134.5950 C   0  0  0  0  0  2  0  0  0  0  0  0
  182.9720  171.4850  135.1200 O   0  0  0  0  0  1  0  0  0  0  0  0
  186.3960  177.9860  136.7250 C   0  0  1  0  0  3  0  0  0  0  0  0
  186.3380  177.8520  135.3290 O   0  0  0  0  0  1  0  0  0  0  0  0
  187.2550  179.1820  137.1160 C   0  0  0  0  0  2  0  0  0  0  0  0
  190.8430  174.5290  136.0670 C   0  0  2  0  0  3  0  0  0  0  0  0
  196.0740  172.3030  137.9340 C   0  0  0  0  0  2  0  0  0  0  0  0
  189.8760  176.6620  136.9850 C   0  0  0  0  0  0  0  0  0  0  0  0
  196.5900  173.5340  137.1890 C   0  0  0  0  0  2  0  0  0  0  0  0
  190.2410  177.1090  139.4490 N   0  0  0  0  0  2  0  0  0  0  0  0
  195.3920  174.4080  136.8650 C   0  0  0  0  0  2  0  0  0  0  0  0
  190.2830  175.9130  135.7360 C   0  0  0  0  0  2  0  0  0  0  0  0
  194.5640  172.2500  137.7390 C   0  0  0  0  0  2  0  0  0  0  0  0
  194.2160  173.5550  137.1120 C   0  0  0  0  0  0  0  0  0  0  0  0
  191.4830  175.4540  138.3200 N   0  0  0  0  0  0  0  0  0  0  0  0
  191.8320  174.6350  137.1920 C   0  0  0  0  0  0  0  0  0  0  0  0
  193.0140  174.0660  137.1520 C   0  0  0  0  0  0  0  0  0  0  0  0
  190.5910  176.3910  138.2590 C   0  0  0  0  0  0  0  0  0  0  0  0
  189.2490  177.7910  136.8200 C   0  0  0  0  0  0  0  0  0  0  0  0
  188.6510  178.9390  136.6370 C   0  0  0  0  0  3  0  0  0  0  0  0
  191.4180  173.9660  134.9220 O   0  0  0  0  0  1  0  0  0  0  0  0
  188.6070  178.0460  141.5210 C   0  0  0  0  0  1  0  0  0  0  0  0
  191.8480  177.4810  141.2710 C   0  0  0  0  0  2  0  0  0  0  0  0
  189.5690  176.8990  141.8500 C   0  0  1  0  0  3  0  0  0  0  0  0
  190.6520  176.6760  140.7830 C   0  0  1  0  0  3  0  0  0  0  0  0
  190.3630  177.2850  143.0540 C   0  0  0  0  0  2  0  0  0  0  0  0
  191.6140  177.6020  142.7350 C   0  0  0  0  0  2  0  0  0  0  0  0
  184.1220  178.6780  143.6900 C   0  0  0  0  0  1  0  0  0  0  0  0
  183.2660  178.1410  142.7250 O   0  0  0  0  0  0  0  0  0  0  0  0
  184.0510  175.9420  136.0260 C   0  0  0  0  0  2  0  0  0  0  0  0
  184.9770  174.8950  135.8840 O   0  0  0  0  0  1  0  0  0  0  0  0
  1  5  1  0  0  0  0
  2 15  1  0  0  0  0
  4 15  1  0  0  0  0
  5 55  1  0  0  0  0
  6  2  1  0  0  0  0
  8  4  1  0  0  0  0
  9  7  1  0  0  0  0
  9  5  1  0  0  0  0
 10  4  1  0  0  0  0
 10 13  1  0  0  0  0
 11 14  1  0  0  0  0
 11 10  1  0  0  0  0
 12 22  1  0  0  0  0
 12  6  1  0  0  0  0
 12  8  1  0  0  0  0
 13  1  2  0  0  0  0
 14  8  1  0  0  0  0
 14  3  1  0  0  0  0
 15  9  1  0  0  0  0
 16 20  1  0  0  0  0
 17 18  1  0  0  0  0
 17 16  1  0  0  0  0
 18 22  1  0  0  0  0
 19 21  1  0  0  0  0
 20 21  1  0  0  0  0
 21 23  1  0  0  0  0
 22 19  1  0  0  0  0
 23 24  2  0  0  0  0
 25 26  1  0  0  0  0
 26 17  1  0  0  0  0
 27 26  1  0  0  0  0
 27 28  1  0  0  0  0
 29 31  1  0  0  0  0
 29 11  1  0  0  0  0
 30 29  1  0  0  0  0
 32 42  1  0  0  0  0
 34 44  1  0  0  0  0
 35 33  1  0  0  0  0
 36 51  1  0  0  0  0
 37 40  1  0  0  0  0
 37 35  1  0  0  0  0
 38 32  1  0  0  0  0
 38 34  1  0  0  0  0
 39 33  1  0  0  0  0
 40 43  2  0  0  0  0
 40 39  1  0  0  0  0
 42 41  1  0  0  0  0
 43 42  2  0  0  0  0
 44 41  2  0  0  0  0
 44 36  1  0  0  0  0
 45 34  2  0  0  0  0
 46 45  2  0  0  0  0
 46 31  1  0  0  0  0
 47 32  1  0  0  0  0
 48 50  1  0  0  0  0
 49 53  1  0  0  0  0
 50 52  1  0  0  0  0
 51 49  1  0  0  0  0
 51 50  1  0  0  0  0
 53 52  1  0  0  0  0
 55 54  1  0  0  0  0
 56 14  1  0  0  0  0
 57 56  1  0  0  0  0
M  END
>  <MODEL>
1

>  <REMARK>
 VINA RESULT:      -6.3      0.000      0.000
  Name = 
  10 active torsions:
  status: ('A' for Active; 'I' for Inactive)
    1  A    between atoms: C_5  and  C_51
    2  A    between atoms: N_9  and  C_43
    3  A    between atoms: C_10  and  C_26
    4  A    between atoms: C_10  and  C_39
    5  A    between atoms: C_13  and  C_20
    6  A    between atoms: C_17  and  O_45
    7  A    between atoms: C_20  and  C_22
    8  A    between atoms: C_26  and  C_53
    9  A    between atoms: C_46  and  C_55
   10  A    between atoms: C_47  and  C_54
                            x       y       z     vdW  Elec       q    Type
                         _______ _______ _______ _____ _____    ______ ____

>  <TORSDO>
F 10

$$$$
=
 OpenBabel11062416423D

 57 63  0  0  1  0  0  0  0  0999 V2000
  187.1720  177.9640  140.4830 C   0  0  0  0  0  3  0  0  0  0  0  0
  182.9660  179.2470  139.0490 C   0  0  0  0  0  2  0  0  0  0  0  0
  186.3210  175.4500  137.7890 C   0  0  0  0  0  1  0  0  0  0  0  0
  185.2060  178.5220  138.2740 C   0  0  2  0  0  3  0  0  0  0  0  0
  186.1340  178.7050  141.3030 C   0  0  1  0  0  3  0  0  0  0  0  0
  182.6670  178.8060  137.5930 C   0  0  0  0  0  2  0  0  0  0  0  0
  183.8080  179.3300  141.6400 F   0  0  0  0  0  0  0  0  0  0  0  0
  184.6580  177.2230  137.8590 N   0  0  1  0  0  0  0  0  0  0  0  0
  184.7570  178.9820  140.7120 C   0  0  1  0  0  3  0  0  0  0  0  0
  186.6960  178.6200  138.0690 C   0  0  2  0  0  3  0  0  0  0  0  0
  186.7580  177.7360  136.8150 C   0  0  2  0  0  3  0  0  0  0  0  0
  183.3300  177.4440  137.2220 C   0  0  1  0  0  3  0  0  0  0  0  0
  187.4370  177.9470  139.1710 C   0  0  0  0  0  3  0  0  0  0  0  0
  185.7190  176.6220  137.0000 C   0  0  1  0  0  0  0  0  0  0  0  0
  184.4290  179.0930  139.4130 C   0  0  2  0  0  3  0  0  0  0  0  0
  179.4220  174.7250  137.8010 C   0  0  0  0  0  2  0  0  0  0  0  0
  179.9420  176.0940  138.2260 C   0  0  1  0  0  3  0  0  0  0  0  0
  180.8740  176.8480  137.2780 C   0  0  0  0  0  2  0  0  0  0  0  0
  182.5920  175.0120  136.7210 C   0  0  0  0  0  2  0  0  0  0  0  0
  180.5960  173.7730  137.7700 C   0  0  0  0  0  2  0  0  0  0  0  0
  181.4250  174.0250  136.5150 C   0  0  2  0  0  3  0  0  0  0  0  0
  182.3050  176.3140  137.4850 C   0  0  1  0  0  3  0  0  0  0  0  0
  181.9500  172.6930  136.0580 C   0  0  0  0  0  3  0  0  0  0  0  0
  182.5150  172.5440  134.9900 O   0  0  0  0  0  0  0  0  0  0  0  0
  179.1310  178.3100  138.9790 C   0  0  0  0  0  1  0  0  0  0  0  0
  179.3200  176.8470  139.3800 C   0  0  2  0  0  3  0  0  0  0  0  0
  180.1400  176.6900  140.6650 C   0  0  0  0  0  2  0  0  0  0  0  0
  179.3400  176.9180  141.7900 O   0  0  0  0  0  1  0  0  0  0  0  0
  188.0680  177.4550  136.0540 C   0  0  1  0  0  3  0  0  0  0  0  0
  187.8320  177.6240  134.6810 O   0  0  0  0  0  1  0  0  0  0  0  0
  189.2840  178.2600  136.4940 C   0  0  0  0  0  2  0  0  0  0  0  0
  194.4650  175.3330  136.0280 C   0  0  2  0  0  3  0  0  0  0  0  0
  196.5740  169.7400  136.3040 C   0  0  0  0  0  2  0  0  0  0  0  0
  192.0300  175.8770  136.3500 C   0  0  0  0  0  0  0  0  0  0  0  0
  196.2200  169.9340  137.7780 C   0  0  0  0  0  2  0  0  0  0  0  0
  190.3610  174.2170  135.4220 N   0  0  0  0  0  2  0  0  0  0  0  0
  195.3990  171.2080  137.8870 C   0  0  0  0  0  2  0  0  0  0  0  0
  193.4440  176.1710  136.7990 C   0  0  0  0  0  2  0  0  0  0  0  0
  196.2940  171.0560  135.5890 C   0  0  0  0  0  2  0  0  0  0  0  0
  195.5670  171.8850  136.5890 C   0  0  0  0  0  0  0  0  0  0  0  0
  192.6340  173.6420  135.6690 N   0  0  0  0  0  0  0  0  0  0  0  0
  194.0140  173.9010  135.9750 C   0  0  0  0  0  0  0  0  0  0  0  0
  194.8090  172.8970  136.2580 C   0  0  0  0  0  0  0  0  0  0  0  0
  191.7000  174.5250  135.8290 C   0  0  0  0  0  0  0  0  0  0  0  0
  191.0880  176.6360  136.8290 C   0  0  0  0  0  0  0  0  0  0  0  0
  190.1480  177.3850  137.3450 C   0  0  0  0  0  3  0  0  0  0  0  0
  195.7250  175.4580  136.6250 O   0  0  0  0  0  1  0  0  0  0  0  0
  188.1810  172.7290  136.3590 C   0  0  0  0  0  1  0  0  0  0  0  0
  191.0080  171.9110  134.8670 C   0  0  0  0  0  2  0  0  0  0  0  0
  188.6500  172.4600  134.9250 C   0  0  1  0  0  3  0  0  0  0  0  0
  190.0330  173.0500  134.6050 C   0  0  1  0  0  3  0  0  0  0  0  0
  188.8710  170.9910  134.7710 C   0  0  0  0  0  2  0  0  0  0  0  0
  190.1660  170.6920  134.7370 C   0  0  0  0  0  2  0  0  0  0  0  0
  187.1720  177.4400  142.8190 C   0  0  0  0  0  1  0  0  0  0  0  0
  185.9200  177.9430  142.4550 O   0  0  0  0  0  0  0  0  0  0  0  0
  185.2350  176.0460  135.6530 C   0  0  0  0  0  2  0  0  0  0  0  0
  185.8620  174.8270  135.3450 O   0  0  0  0  0  1  0  0  0  0  0  0
  1  5  1  0  0  0  0
  2 15  1  0  0  0  0
  4 15  1  0  0  0  0
  5 55  1  0  0  0  0
  6  2  1  0  0  0  0
  8  4  1  0  0  0  0
  9  5  1  0  0  0  0
  9  7  1  0  0  0  0
 10  4  1  0  0  0  0
 10 13  1  0  0  0  0
 11 14  1  0  0  0  0
 11 10  1  0  0  0  0
 12 22  1  0  0  0  0
 12  6  1  0  0  0  0
 12  8  1  0  0  0  0
 13  1  2  0  0  0  0
 14  3  1  0  0  0  0
 14  8  1  0  0  0  0
 15  9  1  0  0  0  0
 16 17  1  0  0  0  0
 17 26  1  0  0  0  0
 18 22  1  0  0  0  0
 18 17  1  0  0  0  0
 19 22  1  0  0  0  0
 20 16  1  0  0  0  0
 21 19  1  0  0  0  0
 21 20  1  0  0  0  0
 23 21  1  0  0  0  0
 24 23  2  0  0  0  0
 25 26  1  0  0  0  0
 26 27  1  0  0  0  0
 27 28  1  0  0  0  0
 29 31  1  0  0  0  0
 29 11  1  0  0  0  0
 30 29  1  0  0  0  0
 31 46  1  0  0  0  0
 32 47  1  0  0  0  0
 32 38  1  0  0  0  0
 33 35  1  0  0  0  0
 34 38  1  0  0  0  0
 34 45  2  0  0  0  0
 35 37  1  0  0  0  0
 36 44  1  0  0  0  0
 39 33  1  0  0  0  0
 39 40  1  0  0  0  0
 40 37  1  0  0  0  0
 41 44  2  0  0  0  0
 41 42  1  0  0  0  0
 42 32  1  0  0  0  0
 42 43  2  0  0  0  0
 43 40  2  0  0  0  0
 44 34  1  0  0  0  0
 45 46  2  0  0  0  0
 50 48  1  0  0  0  0
 51 49  1  0  0  0  0
 51 50  1  0  0  0  0
 51 36  1  0  0  0  0
 52 50  1  0  0  0  0
 53 52  1  0  0  0  0
 53 49  1  0  0  0  0
 55 54  1  0  0  0  0
 56 14  1  0  0  0  0
 57 56  1  0  0  0  0
M  END
>  <MODEL>
2

>  <REMARK>
 VINA RESULT:      -5.5      2.073      4.460
  Name = 
  10 active torsions:
  status: ('A' for Active; 'I' for Inactive)
    1  A    between atoms: C_5  and  C_51
    2  A    between atoms: N_9  and  C_43
    3  A    between atoms: C_10  and  C_26
    4  A    between atoms: C_10  and  C_39
    5  A    between atoms: C_13  and  C_20
    6  A    between atoms: C_17  and  O_45
    7  A    between atoms: C_20  and  C_22
    8  A    between atoms: C_26  and  C_53
    9  A    between atoms: C_46  and  C_55
   10  A    between atoms: C_47  and  C_54
                            x       y       z     vdW  Elec       q    Type
                         _______ _______ _______ _____ _____    ______ ____

>  <TORSDO>
F 10

$$$$
=
 OpenBabel11062416423D

 57 63  0  0  1  0  0  0  0  0999 V2000
  181.4980  173.6970  134.6440 C   0  0  0  0  0  3  0  0  0  0  0  0
  181.0290  175.1400  139.0130 C   0  0  0  0  0  2  0  0  0  0  0  0
  182.8790  177.2170  134.5940 C   0  0  0  0  0  1  0  0  0  0  0  0
  182.5900  175.0700  137.0890 C   0  0  2  0  0  3  0  0  0  0  0  0
  180.4650  173.2100  135.6420 C   0  0  1  0  0  3  0  0  0  0  0  0
  182.0450  176.2490  139.3920 C   0  0  0  0  0  2  0  0  0  0  0  0
  179.2190  173.5860  137.6960 F   0  0  0  0  0  0  0  0  0  0  0  0
  182.4150  176.5140  136.8750 N   0  0  1  0  0  0  0  0  0  0  0  0
  180.3860  173.8480  137.0230 C   0  0  1  0  0  3  0  0  0  0  0  0
  183.4850  174.4320  136.0580 C   0  0  2  0  0  3  0  0  0  0  0  0
  184.4030  175.6450  135.8480 C   0  0  2  0  0  3  0  0  0  0  0  0
  182.3860  177.1940  138.2000 C   0  0  1  0  0  3  0  0  0  0  0  0
  182.7440  174.1630  134.7950 C   0  0  0  0  0  3  0  0  0  0  0  0
  183.5210  176.8970  135.9520 C   0  0  1  0  0  0  0  0  0  0  0  0
  181.3700  174.4660  137.7000 C   0  0  2  0  0  3  0  0  0  0  0  0
  180.0520  181.2430  139.2800 C   0  0  0  0  0  2  0  0  0  0  0  0
  180.5430  179.9790  139.9780 C   0  0  1  0  0  3  0  0  0  0  0  0
  181.8170  179.3080  139.4640 C   0  0  0  0  0  2  0  0  0  0  0  0
  181.3220  179.1930  136.9390 C   0  0  0  0  0  2  0  0  0  0  0  0
  179.6080  180.8600  137.8870 C   0  0  0  0  0  2  0  0  0  0  0  0
  180.8300  180.6520  137.0000 C   0  0  2  0  0  3  0  0  0  0  0  0
  181.4400  178.4190  138.2620 C   0  0  1  0  0  3  0  0  0  0  0  0
  180.4630  181.1300  135.6230 C   0  0  0  0  0  3  0  0  0  0  0  0
  180.1200  180.3710  134.7350 O   0  0  0  0  0  0  0  0  0  0  0  0
  179.3850  180.7870  142.0120 C   0  0  0  0  0  1  0  0  0  0  0  0
  180.0020  179.5670  141.3280 C   0  0  2  0  0  3  0  0  0  0  0  0
  181.0770  178.8920  142.1860 C   0  0  0  0  0  2  0  0  0  0  0  0
  180.6830  178.8540  143.5280 O   0  0  0  0  0  1  0  0  0  0  0  0
  185.6090  175.6240  134.8910 C   0  0  1  0  0  3  0  0  0  0  0  0
  185.9670  176.9490  134.5940 O   0  0  0  0  0  1  0  0  0  0  0  0
  186.8230  174.8310  135.3590 C   0  0  0  0  0  2  0  0  0  0  0  0
  188.3540  178.2770  139.9850 C   0  0  2  0  0  3  0  0  0  0  0  0
  192.0400  178.1950  144.6990 C   0  0  0  0  0  2  0  0  0  0  0  0
  188.2040  176.3690  138.3530 C   0  0  0  0  0  0  0  0  0  0  0  0
  191.0460  177.1280  145.1550 C   0  0  0  0  0  2  0  0  0  0  0  0
  190.3600  175.1600  137.8150 N   0  0  0  0  0  2  0  0  0  0  0  0
  190.1650  176.7850  143.9650 C   0  0  0  0  0  2  0  0  0  0  0  0
  187.4320  177.2800  139.2830 C   0  0  0  0  0  2  0  0  0  0  0  0
  191.5340  178.7560  143.3750 C   0  0  0  0  0  2  0  0  0  0  0  0
  190.4220  177.8490  142.9780 C   0  0  0  0  0  0  0  0  0  0  0  0
  190.2130  176.6080  139.6700 N   0  0  0  0  0  0  0  0  0  0  0  0
  189.5630  177.5650  140.5220 C   0  0  0  0  0  0  0  0  0  0  0  0
  190.0000  177.7370  141.7470 C   0  0  0  0  0  0  0  0  0  0  0  0
  189.6190  176.0410  138.6680 C   0  0  0  0  0  0  0  0  0  0  0  0
  187.5080  175.5780  137.5890 C   0  0  0  0  0  0  0  0  0  0  0  0
  186.7970  174.7650  136.8530 C   0  0  0  0  0  3  0  0  0  0  0  0
  187.6490  178.9380  140.9980 O   0  0  0  0  0  1  0  0  0  0  0  0
  191.6870  176.5810  135.8000 C   0  0  0  0  0  1  0  0  0  0  0  0
  192.2830  173.7120  137.3180 C   0  0  0  0  0  2  0  0  0  0  0  0
  192.5270  176.0990  136.9880 C   0  0  1  0  0  3  0  0  0  0  0  0
  191.8170  175.0550  137.8640 C   0  0  1  0  0  3  0  0  0  0  0  0
  193.7020  175.3460  136.4580 C   0  0  0  0  0  2  0  0  0  0  0  0
  193.5680  174.0360  136.6410 C   0  0  0  0  0  2  0  0  0  0  0  0
  179.2090  174.7300  134.6000 C   0  0  0  0  0  1  0  0  0  0  0  0
  179.2160  173.4060  135.0470 O   0  0  0  0  0  0  0  0  0  0  0  0
  184.3280  178.1450  136.3650 C   0  0  0  0  0  2  0  0  0  0  0  0
  185.1110  177.9130  137.5080 O   0  0  0  0  0  1  0  0  0  0  0  0
  1 13  2  0  0  0  0
  1  5  1  0  0  0  0
  2  6  1  0  0  0  0
  3 14  1  0  0  0  0
  4 15  1  0  0  0  0
  5  9  1  0  0  0  0
  8  4  1  0  0  0  0
  8 12  1  0  0  0  0
  9  7  1  0  0  0  0
  9 15  1  0  0  0  0
 10  4  1  0  0  0  0
 11 14  1  0  0  0  0
 11 10  1  0  0  0  0
 12 22  1  0  0  0  0
 12  6  1  0  0  0  0
 13 10  1  0  0  0  0
 14 56  1  0  0  0  0
 14  8  1  0  0  0  0
 15  2  1  0  0  0  0
 16 17  1  0  0  0  0
 17 26  1  0  0  0  0
 18 17  1  0  0  0  0
 19 21  1  0  0  0  0
 19 22  1  0  0  0  0
 20 16  1  0  0  0  0
 21 20  1  0  0  0  0
 22 18  1  0  0  0  0
 23 21  1  0  0  0  0
 24 23  2  0  0  0  0
 26 25  1  0  0  0  0
 26 27  1  0  0  0  0
 27 28  1  0  0  0  0
 29 31  1  0  0  0  0
 29 11  1  0  0  0  0
 30 29  1  0  0  0  0
 31 46  1  0  0  0  0
 32 42  1  0  0  0  0
 32 47  1  0  0  0  0
 33 35  1  0  0  0  0
 34 44  1  0  0  0  0
 34 38  1  0  0  0  0
 36 51  1  0  0  0  0
 36 44  1  0  0  0  0
 37 35  1  0  0  0  0
 38 32  1  0  0  0  0
 39 33  1  0  0  0  0
 40 39  1  0  0  0  0
 40 37  1  0  0  0  0
 41 42  1  0  0  0  0
 42 43  2  0  0  0  0
 43 40  2  0  0  0  0
 44 41  2  0  0  0  0
 45 34  2  0  0  0  0
 46 45  2  0  0  0  0
 48 50  1  0  0  0  0
 49 51  1  0  0  0  0
 50 51  1  0  0  0  0
 52 53  1  0  0  0  0
 52 50  1  0  0  0  0
 53 49  1  0  0  0  0
 54 55  1  0  0  0  0
 55  5  1  0  0  0  0
 56 57  1  0  0  0  0
M  END
>  <MODEL>
3

>  <REMARK>
 VINA RESULT:      -5.5      2.349      6.632
  Name = 
  10 active torsions:
  status: ('A' for Active; 'I' for Inactive)
    1  A    between atoms: C_5  and  C_51
    2  A    between atoms: N_9  and  C_43
    3  A    between atoms: C_10  and  C_26
    4  A    between atoms: C_10  and  C_39
    5  A    between atoms: C_13  and  C_20
    6  A    between atoms: C_17  and  O_45
    7  A    between atoms: C_20  and  C_22
    8  A    between atoms: C_26  and  C_53
    9  A    between atoms: C_46  and  C_55
   10  A    between atoms: C_47  and  C_54
                            x       y       z     vdW  Elec       q    Type
                         _______ _______ _______ _____ _____    ______ ____

>  <TORSDO>
F 10

$$$$
=
 OpenBabel11062416423D

 57 63  0  0  1  0  0  0  0  0999 V2000
  184.7050  177.2990  135.8810 C   0  0  0  0  0  3  0  0  0  0  0  0
  181.6730  175.6850  138.9790 C   0  0  0  0  0  2  0  0  0  0  0  0
  184.6100  179.9800  138.5460 C   0  0  0  0  0  1  0  0  0  0  0  0
  183.8920  176.7600  138.7290 C   0  0  2  0  0  3  0  0  0  0  0  0
  183.5580  176.3480  135.6000 C   0  0  1  0  0  3  0  0  0  0  0  0
  181.9110  176.2500  140.4030 C   0  0  0  0  0  2  0  0  0  0  0  0
  181.4190  175.4110  136.2790 F   0  0  0  0  0  0  0  0  0  0  0  0
  183.3570  178.0220  139.2600 N   0  0  1  0  0  0  0  0  0  0  0  0
  182.5910  175.9750  136.7170 C   0  0  1  0  0  3  0  0  0  0  0  0
  185.3360  176.8690  138.3110 C   0  0  2  0  0  3  0  0  0  0  0  0
  185.7510  177.8900  139.3800 C   0  0  2  0  0  3  0  0  0  0  0  0
  182.4440  177.7150  140.3950 C   0  0  1  0  0  3  0  0  0  0  0  0
  185.4630  177.4970  136.9670 C   0  0  0  0  0  3  0  0  0  0  0  0
  184.5630  178.8420  139.5750 C   0  0  1  0  0  0  0  0  0  0  0  0
  182.8270  175.9730  138.0400 C   0  0  2  0  0  3  0  0  0  0  0  0
  179.0970  180.8640  141.7680 C   0  0  0  0  0  2  0  0  0  0  0  0
  179.7810  179.6090  142.3000 C   0  0  1  0  0  3  0  0  0  0  0  0
  181.2330  179.3440  141.9020 C   0  0  0  0  0  2  0  0  0  0  0  0
  181.1050  179.6730  139.3510 C   0  0  0  0  0  2  0  0  0  0  0  0
  178.9380  180.7060  140.2730 C   0  0  0  0  0  2  0  0  0  0  0  0
  180.2770  180.9510  139.5880 C   0  0  2  0  0  3  0  0  0  0  0  0
  181.2340  178.6750  140.5130 C   0  0  1  0  0  3  0  0  0  0  0  0
  179.9850  181.6270  138.2770 C   0  0  0  0  0  3  0  0  0  0  0  0
  180.7310  182.4530  137.7860 O   0  0  0  0  0  0  0  0  0  0  0  0
  178.9310  179.7500  144.6220 C   0  0  0  0  0  1  0  0  0  0  0  0
  179.1860  178.8140  143.4400 C   0  0  2  0  0  3  0  0  0  0  0  0
  180.0660  177.6180  143.8160 C   0  0  0  0  0  2  0  0  0  0  0  0
  179.5940  177.0070  144.9830 O   0  0  0  0  0  1  0  0  0  0  0  0
  187.1930  178.4130  139.5210 C   0  0  1  0  0  3  0  0  0  0  0  0
  187.6930  178.0110  140.7690 O   0  0  0  0  0  1  0  0  0  0  0  0
  188.1570  178.0300  138.4060 C   0  0  0  0  0  2  0  0  0  0  0  0
  193.3640  175.6810  136.6740 C   0  0  2  0  0  3  0  0  0  0  0  0
  195.9620  170.3250  136.0600 C   0  0  0  0  0  2  0  0  0  0  0  0
  191.0100  175.9530  137.5190 C   0  0  0  0  0  0  0  0  0  0  0  0
  195.9040  170.3890  137.5850 C   0  0  0  0  0  2  0  0  0  0  0  0
  189.3360  174.1930  136.8100 N   0  0  0  0  0  2  0  0  0  0  0  0
  195.0160  171.5620  137.9610 C   0  0  0  0  0  2  0  0  0  0  0  0
  192.4560  176.3600  137.7010 C   0  0  0  0  0  2  0  0  0  0  0  0
  195.4270  171.6490  135.5260 C   0  0  0  0  0  2  0  0  0  0  0  0
  194.8530  172.3340  136.7160 C   0  0  0  0  0  0  0  0  0  0  0  0
  191.6520  173.8380  136.5490 N   0  0  0  0  0  0  0  0  0  0  0  0
  193.0380  174.2170  136.5940 C   0  0  0  0  0  0  0  0  0  0  0  0
  193.9590  173.2830  136.6290 C   0  0  0  0  0  0  0  0  0  0  0  0
  190.6990  174.6100  136.9650 C   0  0  0  0  0  0  0  0  0  0  0  0
  190.1250  176.5800  138.2380 C   0  0  0  0  0  0  0  0  0  0  0  0
  189.2510  177.1940  138.9920 C   0  0  0  0  0  3  0  0  0  0  0  0
  194.7040  175.8950  137.0160 O   0  0  0  0  0  1  0  0  0  0  0  0
  187.2870  174.7400  134.9810 C   0  0  0  0  0  1  0  0  0  0  0  0
  188.0800  172.0810  136.7660 C   0  0  0  0  0  2  0  0  0  0  0  0
  188.0910  173.4520  134.7700 C   0  0  1  0  0  3  0  0  0  0  0  0
  188.9480  173.0530  135.9810 C   0  0  1  0  0  3  0  0  0  0  0  0
  187.1310  172.3150  134.6530 C   0  0  0  0  0  2  0  0  0  0  0  0
  187.1270  171.5620  135.7480 C   0  0  0  0  0  2  0  0  0  0  0  0
  182.1920  178.0620  135.1840 C   0  0  0  0  0  1  0  0  0  0  0  0
  182.7880  176.9430  134.5970 O   0  0  0  0  0  0  0  0  0  0  0  0
  184.5690  179.5040  140.9680 C   0  0  0  0  0  2  0  0  0  0  0  0
  184.9640  178.6080  141.9760 O   0  0  0  0  0  1  0  0  0  0  0  0
  1 13  2  0  0  0  0
  2  6  1  0  0  0  0
  3 14  1  0  0  0  0
  4  8  1  0  0  0  0
  5  1  1  0  0  0  0
  5  9  1  0  0  0  0
  7  9  1  0  0  0  0
  8 14  1  0  0  0  0
  8 12  1  0  0  0  0
  9 15  1  0  0  0  0
 10  4  1  0  0  0  0
 10 11  1  0  0  0  0
 11 29  1  0  0  0  0
 11 14  1  0  0  0  0
 12  6  1  0  0  0  0
 12 22  1  0  0  0  0
 13 10  1  0  0  0  0
 14 56  1  0  0  0  0
 15  4  1  0  0  0  0
 15  2  1  0  0  0  0
 16 17  1  0  0  0  0
 17 26  1  0  0  0  0
 18 17  1  0  0  0  0
 19 21  1  0  0  0  0
 19 22  1  0  0  0  0
 20 16  1  0  0  0  0
 21 20  1  0  0  0  0
 22 18  1  0  0  0  0
 23 21  1  0  0  0  0
 24 23  2  0  0  0  0
 26 27  1  0  0  0  0
 26 25  1  0  0  0  0
 27 28  1  0  0  0  0
 29 30  1  0  0  0  0
 31 46  1  0  0  0  0
 31 29  1  0  0  0  0
 32 47  1  0  0  0  0
 32 38  1  0  0  0  0
 33 35  1  0  0  0  0
 34 38  1  0  0  0  0
 34 45  2  0  0  0  0
 35 37  1  0  0  0  0
 36 44  1  0  0  0  0
 39 33  1  0  0  0  0
 39 40  1  0  0  0  0
 40 37  1  0  0  0  0
 41 42  1  0  0  0  0
 41 44  2  0  0  0  0
 42 43  2  0  0  0  0
 42 32  1  0  0  0  0
 43 40  2  0  0  0  0
 44 34  1  0  0  0  0
 45 46  2  0  0  0  0
 50 48  1  0  0  0  0
 50 51  1  0  0  0  0
 51 49  1  0  0  0  0
 51 36  1  0  0  0  0
 52 50  1  0  0  0  0
 52 53  1  0  0  0  0
 53 49  1  0  0  0  0
 55 54  1  0  0  0  0
 55  5  1  0  0  0  0
 56 57  1  0  0  0  0
M  END
>  <MODEL>
4

>  <REMARK>
 VINA RESULT:      -5.3      2.800      6.061
  Name = 
  10 active torsions:
  status: ('A' for Active; 'I' for Inactive)
    1  A    between atoms: C_5  and  C_51
    2  A    between atoms: N_9  and  C_43
    3  A    between atoms: C_10  and  C_26
    4  A    between atoms: C_10  and  C_39
    5  A    between atoms: C_13  and  C_20
    6  A    between atoms: C_17  and  O_45
    7  A    between atoms: C_20  and  C_22
    8  A    between atoms: C_26  and  C_53
    9  A    between atoms: C_46  and  C_55
   10  A    between atoms: C_47  and  C_54
                            x       y       z     vdW  Elec       q    Type
                         _______ _______ _______ _____ _____    ______ ____

>  <TORSDO>
F 10

$$$$
=
 OpenBabel11062416423D

 57 63  0  0  1  0  0  0  0  0999 V2000
  186.0670  178.0530  139.0490 C   0  0  0  0  0  3  0  0  0  0  0  0
  181.7390  178.3160  137.4400 C   0  0  0  0  0  2  0  0  0  0  0  0
  185.6380  174.8640  137.0620 C   0  0  0  0  0  1  0  0  0  0  0  0
  184.0720  177.7630  136.8140 C   0  0  2  0  0  3  0  0  0  0  0  0
  184.9190  178.8100  139.6880 C   0  0  1  0  0  3  0  0  0  0  0  0
  181.5300  177.4960  136.1410 C   0  0  0  0  0  2  0  0  0  0  0  0
  182.5210  179.1490  139.9150 F   0  0  0  0  0  0  0  0  0  0  0  0
  183.7290  176.3360  136.7380 N   0  0  1  0  0  0  0  0  0  0  0  0
  183.5240  178.7300  139.0780 C   0  0  1  0  0  3  0  0  0  0  0  0
  185.5340  178.0270  136.5590 C   0  0  2  0  0  3  0  0  0  0  0  0
  185.7450  176.8850  135.5550 C   0  0  2  0  0  3  0  0  0  0  0  0
  182.3920  176.1980  136.0960 C   0  0  1  0  0  3  0  0  0  0  0  0
  186.3510  177.7580  137.7750 C   0  0  0  0  0  3  0  0  0  0  0  0
  184.8800  175.7070  136.0280 C   0  0  1  0  0  0  0  0  0  0  0  0
  183.2030  178.4730  137.7980 C   0  0  2  0  0  3  0  0  0  0  0  0
  178.9440  173.3030  137.7460 C   0  0  0  0  0  2  0  0  0  0  0  0
  179.4700  174.7150  137.9840 C   0  0  1  0  0  3  0  0  0  0  0  0
  180.0760  175.4760  136.8050 C   0  0  0  0  0  2  0  0  0  0  0  0
  181.7020  173.7110  135.8700 C   0  0  0  0  0  2  0  0  0  0  0  0
  180.1260  172.4140  137.4360 C   0  0  0  0  0  2  0  0  0  0  0  0
  180.5860  172.6560  136.0030 C   0  0  2  0  0  3  0  0  0  0  0  0
  181.5430  175.0270  136.6480 C   0  0  1  0  0  3  0  0  0  0  0  0
  181.0560  171.3360  135.4600 C   0  0  0  0  0  3  0  0  0  0  0  0
  181.8740  170.6440  136.0380 O   0  0  0  0  0  0  0  0  0  0  0  0
  178.9340  176.9570  138.8880 C   0  0  0  0  0  1  0  0  0  0  0  0
  179.1210  175.4810  139.2390 C   0  0  2  0  0  3  0  0  0  0  0  0
  180.1640  175.2660  140.3410 C   0  0  0  0  0  2  0  0  0  0  0  0
  179.6820  174.3760  141.3070 O   0  0  0  0  0  1  0  0  0  0  0  0
  187.0930  176.6230  134.8560 C   0  0  1  0  0  3  0  0  0  0  0  0
  187.8410  177.8110  134.8710 O   0  0  0  0  0  1  0  0  0  0  0  0
  187.9150  175.4620  135.3990 C   0  0  0  0  0  2  0  0  0  0  0  0
  192.9930  172.3300  135.5530 C   0  0  2  0  0  3  0  0  0  0  0  0
  198.7040  172.9970  137.2110 C   0  0  0  0  0  2  0  0  0  0  0  0
  191.2980  174.1760  135.7700 C   0  0  0  0  0  0  0  0  0  0  0  0
  198.7000  173.9180  135.9920 C   0  0  0  0  0  2  0  0  0  0  0  0
  191.4990  175.6720  137.8010 N   0  0  0  0  0  2  0  0  0  0  0  0
  197.2540  174.1160  135.5730 C   0  0  0  0  0  2  0  0  0  0  0  0
  191.9430  173.1780  134.8340 C   0  0  0  0  0  2  0  0  0  0  0  0
  197.3260  172.3530  137.3020 C   0  0  0  0  0  2  0  0  0  0  0  0
  196.4970  173.0870  136.3070 C   0  0  0  0  0  0  0  0  0  0  0  0
  193.2640  174.2420  137.1690 N   0  0  0  0  0  0  0  0  0  0  0  0
  193.8830  173.2140  136.3800 C   0  0  0  0  0  0  0  0  0  0  0  0
  195.1920  173.1220  136.3560 C   0  0  0  0  0  0  0  0  0  0  0  0
  192.0810  174.7050  136.9170 C   0  0  0  0  0  0  0  0  0  0  0  0
  190.2850  174.8500  135.3080 C   0  0  0  0  0  0  0  0  0  0  0  0
  189.2910  175.5450  134.8190 C   0  0  0  0  0  3  0  0  0  0  0  0
  193.7230  171.5900  134.6160 O   0  0  0  0  0  1  0  0  0  0  0  0
  189.7970  177.1420  139.4700 C   0  0  0  0  0  1  0  0  0  0  0  0
  193.0660  177.1260  139.0160 C   0  0  0  0  0  2  0  0  0  0  0  0
  191.0120  176.4720  140.1210 C   0  0  1  0  0  3  0  0  0  0  0  0
  192.0640  175.9840  139.1120 C   0  0  1  0  0  3  0  0  0  0  0  0
  191.7550  177.5050  140.9020 C   0  0  0  0  0  2  0  0  0  0  0  0
  192.8830  177.8620  140.2960 C   0  0  0  0  0  2  0  0  0  0  0  0
  185.6740  179.1000  141.7670 C   0  0  0  0  0  1  0  0  0  0  0  0
  184.8040  178.3270  140.9940 O   0  0  0  0  0  0  0  0  0  0  0  0
  184.5060  174.7580  134.8710 C   0  0  0  0  0  2  0  0  0  0  0  0
  185.1390  173.5090  134.9890 O   0  0  0  0  0  1  0  0  0  0  0  0
  1  5  1  0  0  0  0
  2 15  1  0  0  0  0
  4 15  1  0  0  0  0
  5 55  1  0  0  0  0
  6  2  1  0  0  0  0
  8  4  1  0  0  0  0
  9  5  1  0  0  0  0
  9  7  1  0  0  0  0
 10  4  1  0  0  0  0
 10 13  1  0  0  0  0
 11 14  1  0  0  0  0
 11 10  1  0  0  0  0
 12  6  1  0  0  0  0
 12 22  1  0  0  0  0
 12  8  1  0  0  0  0
 13  1  2  0  0  0  0
 14  8  1  0  0  0  0
 14  3  1  0  0  0  0
 15  9  1  0  0  0  0
 16 17  1  0  0  0  0
 17 26  1  0  0  0  0
 18 17  1  0  0  0  0
 19 21  1  0  0  0  0
 19 22  1  0  0  0  0
 20 16  1  0  0  0  0
 21 20  1  0  0  0  0
 22 18  1  0  0  0  0
 23 21  1  0  0  0  0
 23 24  2  0  0  0  0
 25 26  1  0  0  0  0
 26 27  1  0  0  0  0
 27 28  1  0  0  0  0
 29 30  1  0  0  0  0
 29 31  1  0  0  0  0
 29 11  1  0  0  0  0
 32 42  1  0  0  0  0
 33 39  1  0  0  0  0
 34 44  1  0  0  0  0
 35 33  1  0  0  0  0
 36 51  1  0  0  0  0
 37 35  1  0  0  0  0
 37 40  1  0  0  0  0
 38 32  1  0  0  0  0
 38 34  1  0  0  0  0
 40 43  2  0  0  0  0
 40 39  1  0  0  0  0
 42 41  1  0  0  0  0
 43 42  2  0  0  0  0
 44 41  2  0  0  0  0
 44 36  1  0  0  0  0
 45 34  2  0  0  0  0
 46 45  2  0  0  0  0
 46 31  1  0  0  0  0
 47 32  1  0  0  0  0
 48 50  1  0  0  0  0
 49 51  1  0  0  0  0
 49 53  1  0  0  0  0
 50 52  1  0  0  0  0
 51 50  1  0  0  0  0
 53 52  1  0  0  0  0
 55 54  1  0  0  0  0
 56 57  1  0  0  0  0
 56 14  1  0  0  0  0
M  END
>  <MODEL>
5

>  <REMARK>
 VINA RESULT:      -5.1      1.633      3.206
  Name = 
  10 active torsions:
  status: ('A' for Active; 'I' for Inactive)
    1  A    between atoms: C_5  and  C_51
    2  A    between atoms: N_9  and  C_43
    3  A    between atoms: C_10  and  C_26
    4  A    between atoms: C_10  and  C_39
    5  A    between atoms: C_13  and  C_20
    6  A    between atoms: C_17  and  O_45
    7  A    between atoms: C_20  and  C_22
    8  A    between atoms: C_26  and  C_53
    9  A    between atoms: C_46  and  C_55
   10  A    between atoms: C_47  and  C_54
                            x       y       z     vdW  Elec       q    Type
                         _______ _______ _______ _____ _____    ______ ____

>  <TORSDO>
F 10

$$$$
=
 OpenBabel11062416423D

 57 63  0  0  1  0  0  0  0  0999 V2000
  187.2400  177.9230  140.7260 C   0  0  0  0  0  3  0  0  0  0  0  0
  183.0590  179.4010  139.4120 C   0  0  0  0  0  2  0  0  0  0  0  0
  186.2840  175.5750  137.9200 C   0  0  0  0  0  1  0  0  0  0  0  0
  185.2670  178.6500  138.5730 C   0  0  2  0  0  3  0  0  0  0  0  0
  186.2340  178.6530  141.5950 C   0  0  1  0  0  3  0  0  0  0  0  0
  182.7310  179.0430  137.9400 C   0  0  0  0  0  2  0  0  0  0  0  0
  183.9320  179.3280  141.9930 F   0  0  0  0  0  0  0  0  0  0  0  0
  184.6760  177.3900  138.1000 N   0  0  1  0  0  0  0  0  0  0  0  0
  184.8600  179.0000  141.0370 C   0  0  1  0  0  3  0  0  0  0  0  0
  186.7570  178.7140  138.3540 C   0  0  2  0  0  3  0  0  0  0  0  0
  186.7790  177.8940  137.0560 C   0  0  2  0  0  3  0  0  0  0  0  0
  183.3480  177.6830  137.4930 C   0  0  1  0  0  3  0  0  0  0  0  0
  187.4900  177.9650  139.4120 C   0  0  0  0  0  3  0  0  0  0  0  0
  185.7080  176.8020  137.1990 C   0  0  1  0  0  0  0  0  0  0  0  0
  184.5210  179.1860  139.7490 C   0  0  2  0  0  3  0  0  0  0  0  0
  180.9630  173.5960  138.2730 C   0  0  0  0  0  2  0  0  0  0  0  0
  182.1040  174.1120  137.4030 C   0  0  1  0  0  3  0  0  0  0  0  0
  182.9980  175.2220  137.9540 C   0  0  0  0  0  2  0  0  0  0  0  0
  181.2320  176.9090  138.7720 C   0  0  0  0  0  2  0  0  0  0  0  0
  179.9480  174.7080  138.4130 C   0  0  0  0  0  2  0  0  0  0  0  0
  180.4570  175.7400  139.4140 C   0  0  2  0  0  3  0  0  0  0  0  0
  182.2920  176.5710  137.7120 C   0  0  1  0  0  3  0  0  0  0  0  0
  179.2600  176.2620  140.1580 C   0  0  0  0  0  3  0  0  0  0  0  0
  179.3380  177.1590  140.9770 O   0  0  0  0  0  0  0  0  0  0  0  0
  181.3400  172.8520  135.4130 C   0  0  0  0  0  1  0  0  0  0  0  0
  182.5640  173.3520  136.1800 C   0  0  2  0  0  3  0  0  0  0  0  0
  183.5310  172.2220  136.5460 C   0  0  0  0  0  2  0  0  0  0  0  0
  184.6190  172.2000  135.6660 O   0  0  0  0  0  1  0  0  0  0  0  0
  188.0700  177.6130  136.2660 C   0  0  1  0  0  3  0  0  0  0  0  0
  187.8120  177.8160  134.9020 O   0  0  0  0  0  1  0  0  0  0  0  0
  189.3050  178.3910  136.7020 C   0  0  0  0  0  2  0  0  0  0  0  0
  194.4860  175.4930  136.0790 C   0  0  2  0  0  3  0  0  0  0  0  0
  196.6030  169.8960  136.1080 C   0  0  0  0  0  2  0  0  0  0  0  0
  192.0530  176.0200  136.4400 C   0  0  0  0  0  0  0  0  0  0  0  0
  196.2580  170.0280  137.5910 C   0  0  0  0  0  2  0  0  0  0  0  0
  190.3790  174.3970  135.4560 N   0  0  0  0  0  2  0  0  0  0  0  0
  195.4370  171.2950  137.7580 C   0  0  0  0  0  2  0  0  0  0  0  0
  193.4700  176.2960  136.8920 C   0  0  0  0  0  2  0  0  0  0  0  0
  196.3170  171.2400  135.4500 C   0  0  0  0  0  2  0  0  0  0  0  0
  195.5950  172.0260  136.4880 C   0  0  0  0  0  0  0  0  0  0  0  0
  192.6540  173.8150  135.6630 N   0  0  0  0  0  0  0  0  0  0  0  0
  194.0360  174.0640  135.9700 C   0  0  0  0  0  0  0  0  0  0  0  0
  194.8350  173.0500  136.2060 C   0  0  0  0  0  0  0  0  0  0  0  0
  191.7210  174.6900  135.8660 C   0  0  0  0  0  0  0  0  0  0  0  0
  191.1130  176.7570  136.9570 C   0  0  0  0  0  0  0  0  0  0  0  0
  190.1760  177.4820  137.5100 C   0  0  0  0  0  3  0  0  0  0  0  0
  195.7490  175.5950  136.6720 O   0  0  0  0  0  1  0  0  0  0  0  0
  188.2030  172.8730  136.3410 C   0  0  0  0  0  1  0  0  0  0  0  0
  191.0220  172.1160  134.8040 C   0  0  0  0  0  2  0  0  0  0  0  0
  188.6650  172.6630  134.8950 C   0  0  1  0  0  3  0  0  0  0  0  0
  190.0460  173.2650  134.5940 C   0  0  1  0  0  3  0  0  0  0  0  0
  188.8840  171.2020  134.6800 C   0  0  0  0  0  2  0  0  0  0  0  0
  190.1790  170.9030  134.6280 C   0  0  0  0  0  2  0  0  0  0  0  0
  187.2080  177.8390  143.4300 C   0  0  0  0  0  1  0  0  0  0  0  0
  186.0110  177.8400  142.7100 O   0  0  0  0  0  0  0  0  0  0  0  0
  185.1920  176.3100  135.8320 C   0  0  0  0  0  2  0  0  0  0  0  0
  185.8500  175.1430  135.4090 O   0  0  0  0  0  1  0  0  0  0  0  0
  1  5  1  0  0  0  0
  2 15  1  0  0  0  0
  4 15  1  0  0  0  0
  5 55  1  0  0  0  0
  6  2  1  0  0  0  0
  8  4  1  0  0  0  0
  9  5  1  0  0  0  0
  9  7  1  0  0  0  0
 10  4  1  0  0  0  0
 10 13  1  0  0  0  0
 11 14  1  0  0  0  0
 11 10  1  0  0  0  0
 12 22  1  0  0  0  0
 12  6  1  0  0  0  0
 12  8  1  0  0  0  0
 13  1  2  0  0  0  0
 14  3  1  0  0  0  0
 14  8  1  0  0  0  0
 15  9  1  0  0  0  0
 16 20  1  0  0  0  0
 17 18  1  0  0  0  0
 17 16  1  0  0  0  0
 19 21  1  0  0  0  0
 20 21  1  0  0  0  0
 21 23  1  0  0  0  0
 22 18  1  0  0  0  0
 22 19  1  0  0  0  0
 23 24  2  0  0  0  0
 25 26  1  0  0  0  0
 26 27  1  0  0  0  0
 26 17  1  0  0  0  0
 28 27  1  0  0  0  0
 29 31  1  0  0  0  0
 29 11  1  0  0  0  0
 30 29  1  0  0  0  0
 31 46  1  0  0  0  0
 32 47  1  0  0  0  0
 32 38  1  0  0  0  0
 33 35  1  0  0  0  0
 34 38  1  0  0  0  0
 34 45  2  0  0  0  0
 35 37  1  0  0  0  0
 36 44  1  0  0  0  0
 39 33  1  0  0  0  0
 39 40  1  0  0  0  0
 40 37  1  0  0  0  0
 41 44  2  0  0  0  0
 41 42  1  0  0  0  0
 42 32  1  0  0  0  0
 42 43  2  0  0  0  0
 43 40  2  0  0  0  0
 44 34  1  0  0  0  0
 45 46  2  0  0  0  0
 50 48  1  0  0  0  0
 51 49  1  0  0  0  0
 51 50  1  0  0  0  0
 51 36  1  0  0  0  0
 52 50  1  0  0  0  0
 53 52  1  0  0  0  0
 53 49  1  0  0  0  0
 55 54  1  0  0  0  0
 56 14  1  0  0  0  0
 57 56  1  0  0  0  0
M  END
>  <MODEL>
6

>  <REMARK>
 VINA RESULT:      -5.1      2.055      3.727
  Name = 
  10 active torsions:
  status: ('A' for Active; 'I' for Inactive)
    1  A    between atoms: C_5  and  C_51
    2  A    between atoms: N_9  and  C_43
    3  A    between atoms: C_10  and  C_26
    4  A    between atoms: C_10  and  C_39
    5  A    between atoms: C_13  and  C_20
    6  A    between atoms: C_17  and  O_45
    7  A    between atoms: C_20  and  C_22
    8  A    between atoms: C_26  and  C_53
    9  A    between atoms: C_46  and  C_55
   10  A    between atoms: C_47  and  C_54
                            x       y       z     vdW  Elec       q    Type
                         _______ _______ _______ _____ _____    ______ ____

>  <TORSDO>
F 10

$$$$
=
 OpenBabel11062416423D

 57 63  0  0  1  0  0  0  0  0999 V2000
  182.8360  175.6290  135.0560 C   0  0  0  0  0  3  0  0  0  0  0  0
  181.4400  175.3760  139.4590 C   0  0  0  0  0  2  0  0  0  0  0  0
  183.7460  179.0060  136.4970 C   0  0  0  0  0  1  0  0  0  0  0  0
  183.3060  176.0930  137.9930 C   0  0  2  0  0  3  0  0  0  0  0  0
  181.7170  174.7580  135.5920 C   0  0  1  0  0  3  0  0  0  0  0  0
  182.2260  176.3310  140.3940 C   0  0  0  0  0  2  0  0  0  0  0  0
  180.0970  174.2980  137.3460 F   0  0  0  0  0  0  0  0  0  0  0  0
  182.9880  177.5040  138.2530 N   0  0  1  0  0  0  0  0  0  0  0  0
  181.3200  174.8510  137.0600 C   0  0  1  0  0  3  0  0  0  0  0  0
  184.4390  175.9210  137.0140 C   0  0  2  0  0  3  0  0  0  0  0  0
  185.2180  177.1780  137.4250 C   0  0  2  0  0  3  0  0  0  0  0  0
  182.6440  177.6600  139.6940 C   0  0  1  0  0  3  0  0  0  0  0  0
  183.9680  176.0810  135.6110 C   0  0  0  0  0  3  0  0  0  0  0  0
  184.1790  178.2570  137.7650 C   0  0  1  0  0  0  0  0  0  0  0  0
  182.0860  175.2400  138.0940 C   0  0  2  0  0  3  0  0  0  0  0  0
  178.9610  180.7270  139.5310 C   0  0  0  0  0  2  0  0  0  0  0  0
  180.1670  180.3340  138.6840 C   0  0  1  0  0  3  0  0  0  0  0  0
  180.6530  178.8860  138.7330 C   0  0  0  0  0  2  0  0  0  0  0  0
  180.7710  178.4980  141.2760 C   0  0  0  0  0  2  0  0  0  0  0  0
  179.3650  180.6310  140.9840 C   0  0  0  0  0  2  0  0  0  0  0  0
  179.3900  179.1680  141.4120 C   0  0  2  0  0  3  0  0  0  0  0  0
  181.5550  178.7240  139.9730 C   0  0  1  0  0  3  0  0  0  0  0  0
  178.9310  179.1180  142.8420 C   0  0  0  0  0  3  0  0  0  0  0  0
  179.6130  178.6480  143.7340 O   0  0  0  0  0  0  0  0  0  0  0  0
  180.6400  182.6840  138.0600 C   0  0  0  0  0  1  0  0  0  0  0  0
  180.6790  181.2330  137.5810 C   0  0  2  0  0  3  0  0  0  0  0  0
  179.9030  181.0230  136.2760 C   0  0  0  0  0  2  0  0  0  0  0  0
  179.2930  182.2150  135.8700 O   0  0  0  0  0  1  0  0  0  0  0  0
  186.5640  177.5730  136.7890 C   0  0  1  0  0  3  0  0  0  0  0  0
  186.3240  178.0340  135.4850 O   0  0  0  0  0  1  0  0  0  0  0  0
  187.4050  178.5760  137.5690 C   0  0  0  0  0  2  0  0  0  0  0  0
  191.5910  174.5020  136.3400 C   0  0  2  0  0  3  0  0  0  0  0  0
  197.1640  173.0650  137.9760 C   0  0  0  0  0  2  0  0  0  0  0  0
  190.3600  176.4690  137.3120 C   0  0  0  0  0  0  0  0  0  0  0  0
  197.4630  174.3600  137.2210 C   0  0  0  0  0  2  0  0  0  0  0  0
  190.7560  176.9590  139.7630 N   0  0  0  0  0  2  0  0  0  0  0  0
  196.1370  175.0500  136.9530 C   0  0  0  0  0  2  0  0  0  0  0  0
  190.8210  175.7900  136.0420 C   0  0  0  0  0  2  0  0  0  0  0  0
  195.6710  172.7920  137.8420 C   0  0  0  0  0  2  0  0  0  0  0  0
  195.1100  174.0320  137.2400 C   0  0  0  0  0  0  0  0  0  0  0  0
  192.1810  175.5070  138.5720 N   0  0  0  0  0  0  0  0  0  0  0  0
  192.5990  174.7500  137.4250 C   0  0  0  0  0  0  0  0  0  0  0  0
  193.8490  174.3610  137.3320 C   0  0  0  0  0  0  0  0  0  0  0  0
  191.1590  176.3030  138.5540 C   0  0  0  0  0  0  0  0  0  0  0  0
  189.5680  177.4930  137.1810 C   0  0  0  0  0  0  0  0  0  0  0  0
  188.8010  178.5410  137.0330 C   0  0  0  0  0  3  0  0  0  0  0  0
  192.1950  174.0320  135.1680 O   0  0  0  0  0  1  0  0  0  0  0  0
  188.8640  177.0390  141.8260 C   0  0  0  0  0  1  0  0  0  0  0  0
  192.0870  177.7290  141.6800 C   0  0  0  0  0  2  0  0  0  0  0  0
  190.1780  176.3010  142.1070 C   0  0  1  0  0  3  0  0  0  0  0  0
  191.2810  176.5880  141.0760 C   0  0  1  0  0  3  0  0  0  0  0  0
  190.7580  176.8410  143.3730 C   0  0  0  0  0  2  0  0  0  0  0  0
  191.8070  177.6230  143.1380 C   0  0  0  0  0  2  0  0  0  0  0  0
  180.2220  176.3760  135.2460 C   0  0  0  0  0  1  0  0  0  0  0  0
  180.5750  175.0820  134.8550 O   0  0  0  0  0  0  0  0  0  0  0  0
  184.7380  179.3170  138.7360 C   0  0  0  0  0  2  0  0  0  0  0  0
  185.3100  178.7360  139.8800 O   0  0  0  0  0  1  0  0  0  0  0  0
  1  5  1  0  0  0  0
  1 13  2  0  0  0  0
  2  6  1  0  0  0  0
  3 14  1  0  0  0  0
  4 15  1  0  0  0  0
  4  8  1  0  0  0  0
  5  9  1  0  0  0  0
  8 12  1  0  0  0  0
  9  7  1  0  0  0  0
  9 15  1  0  0  0  0
 10 11  1  0  0  0  0
 10  4  1  0  0  0  0
 11 14  1  0  0  0  0
 12 22  1  0  0  0  0
 12  6  1  0  0  0  0
 13 10  1  0  0  0  0
 14  8  1  0  0  0  0
 14 56  1  0  0  0  0
 15  2  1  0  0  0  0
 16 20  1  0  0  0  0
 17 18  1  0  0  0  0
 17 16  1  0  0  0  0
 18 22  1  0  0  0  0
 19 21  1  0  0  0  0
 20 21  1  0  0  0  0
 21 23  1  0  0  0  0
 22 19  1  0  0  0  0
 23 24  2  0  0  0  0
 26 25  1  0  0  0  0
 26 17  1  0  0  0  0
 27 26  1  0  0  0  0
 28 27  1  0  0  0  0
 29 11  1  0  0  0  0
 29 31  1  0  0  0  0
 30 29  1  0  0  0  0
 32 42  1  0  0  0  0
 34 44  1  0  0  0  0
 35 33  1  0  0  0  0
 36 51  1  0  0  0  0
 37 35  1  0  0  0  0
 37 40  1  0  0  0  0
 38 32  1  0  0  0  0
 38 34  1  0  0  0  0
 39 33  1  0  0  0  0
 40 43  2  0  0  0  0
 40 39  1  0  0  0  0
 42 41  1  0  0  0  0
 43 42  2  0  0  0  0
 44 41  2  0  0  0  0
 44 36  1  0  0  0  0
 45 34  2  0  0  0  0
 46 45  2  0  0  0  0
 46 31  1  0  0  0  0
 47 32  1  0  0  0  0
 48 50  1  0  0  0  0
 49 53  1  0  0  0  0
 50 52  1  0  0  0  0
 51 49  1  0  0  0  0
 51 50  1  0  0  0  0
 53 52  1  0  0  0  0
 55 54  1  0  0  0  0
 55  5  1  0  0  0  0
 56 57  1  0  0  0  0
M  END
>  <MODEL>
7

>  <REMARK>
 VINA RESULT:      -4.8      2.228      4.721
  Name = 
  10 active torsions:
  status: ('A' for Active; 'I' for Inactive)
    1  A    between atoms: C_5  and  C_51
    2  A    between atoms: N_9  and  C_43
    3  A    between atoms: C_10  and  C_26
    4  A    between atoms: C_10  and  C_39
    5  A    between atoms: C_13  and  C_20
    6  A    between atoms: C_17  and  O_45
    7  A    between atoms: C_20  and  C_22
    8  A    between atoms: C_26  and  C_53
    9  A    between atoms: C_46  and  C_55
   10  A    between atoms: C_47  and  C_54
                            x       y       z     vdW  Elec       q    Type
                         _______ _______ _______ _____ _____    ______ ____

>  <TORSDO>
F 10

$$$$
=
 OpenBabel11062416423D

 57 63  0  0  1  0  0  0  0  0999 V2000
  181.2950  174.7420  134.7180 C   0  0  0  0  0  3  0  0  0  0  0  0
  181.1400  175.2460  139.3130 C   0  0  0  0  0  2  0  0  0  0  0  0
  182.8860  178.1200  135.3190 C   0  0  0  0  0  1  0  0  0  0  0  0
  182.5940  175.5090  137.3220 C   0  0  2  0  0  3  0  0  0  0  0  0
  180.2860  174.1060  135.6550 C   0  0  1  0  0  3  0  0  0  0  0  0
  182.2400  176.1970  139.8500 C   0  0  0  0  0  2  0  0  0  0  0  0
  179.1720  174.0990  137.8160 F   0  0  0  0  0  0  0  0  0  0  0  0
  182.4970  176.9730  137.4270 N   0  0  1  0  0  0  0  0  0  0  0  0
  180.3170  174.4400  137.1420 C   0  0  1  0  0  3  0  0  0  0  0  0
  183.3930  175.0610  136.1260 C   0  0  2  0  0  3  0  0  0  0  0  0
  184.3720  176.2440  136.1170 C   0  0  2  0  0  3  0  0  0  0  0  0
  182.5770  177.3560  138.8640 C   0  0  1  0  0  3  0  0  0  0  0  0
  182.5730  175.1030  134.8830 C   0  0  0  0  0  3  0  0  0  0  0  0
  183.5760  177.4880  136.5350 C   0  0  1  0  0  0  0  0  0  0  0  0
  181.3710  174.8500  137.8680 C   0  0  2  0  0  3  0  0  0  0  0  0
  179.3900  180.9330  139.0870 C   0  0  0  0  0  2  0  0  0  0  0  0
  180.3610  180.3200  138.0830 C   0  0  1  0  0  3  0  0  0  0  0  0
  180.6400  178.8190  138.1590 C   0  0  0  0  0  2  0  0  0  0  0  0
  181.1490  178.5460  140.6690 C   0  0  0  0  0  2  0  0  0  0  0  0
  180.0260  180.8500  140.4560 C   0  0  0  0  0  2  0  0  0  0  0  0
  179.9210  179.4230  140.9820 C   0  0  2  0  0  3  0  0  0  0  0  0
  181.7140  178.5850  139.2400 C   0  0  1  0  0  3  0  0  0  0  0  0
  179.7180  179.5140  142.4690 C   0  0  0  0  0  3  0  0  0  0  0  0
  180.6440  179.6210  143.2510 O   0  0  0  0  0  0  0  0  0  0  0  0
  180.8100  182.5720  137.1550 C   0  0  0  0  0  1  0  0  0  0  0  0
  180.7910  181.0750  136.8450 C   0  0  2  0  0  3  0  0  0  0  0  0
  179.9080  180.7350  135.6400 C   0  0  0  0  0  2  0  0  0  0  0  0
  178.9450  181.7290  135.4400 O   0  0  0  0  0  1  0  0  0  0  0  0
  185.5240  176.3680  135.1020 C   0  0  1  0  0  3  0  0  0  0  0  0
  185.9950  177.6900  135.1200 O   0  0  0  0  0  1  0  0  0  0  0  0
  186.6750  175.3840  135.2720 C   0  0  0  0  0  2  0  0  0  0  0  0
  187.8970  178.3160  140.3250 C   0  0  2  0  0  3  0  0  0  0  0  0
  191.9920  178.3570  144.6880 C   0  0  0  0  0  2  0  0  0  0  0  0
  187.9960  176.7090  138.3920 C   0  0  0  0  0  0  0  0  0  0  0  0
  191.3120  177.0280  145.0120 C   0  0  0  0  0  2  0  0  0  0  0  0
  190.2960  176.1410  137.5030 N   0  0  0  0  0  2  0  0  0  0  0  0
  190.4060  176.6810  143.8430 C   0  0  0  0  0  2  0  0  0  0  0  0
  187.1470  177.2540  139.5200 C   0  0  0  0  0  2  0  0  0  0  0  0
  191.2370  178.9850  143.5220 C   0  0  0  0  0  2  0  0  0  0  0  0
  190.3160  177.9180  143.0470 C   0  0  0  0  0  0  0  0  0  0  0  0
  190.0320  177.2020  139.5910 N   0  0  0  0  0  0  0  0  0  0  0  0
  189.2830  177.8320  140.6430 C   0  0  0  0  0  0  0  0  0  0  0  0
  189.8000  177.9050  141.8460 C   0  0  0  0  0  0  0  0  0  0  0  0
  189.4740  176.6780  138.5470 C   0  0  0  0  0  0  0  0  0  0  0  0
  187.4140  175.9080  137.5480 C   0  0  0  0  0  0  0  0  0  0  0  0
  186.8250  175.0770  136.7280 C   0  0  0  0  0  3  0  0  0  0  0  0
  187.1760  178.6230  141.4850 O   0  0  0  0  0  1  0  0  0  0  0  0
  191.6180  174.6220  135.5570 C   0  0  0  0  0  1  0  0  0  0  0  0
  192.4580  175.6690  138.5710 C   0  0  0  0  0  2  0  0  0  0  0  0
  192.3780  175.8120  136.1550 C   0  0  1  0  0  3  0  0  0  0  0  0
  191.7370  176.3760  137.4320 C   0  0  1  0  0  3  0  0  0  0  0  0
  193.7060  175.3260  136.6350 C   0  0  0  0  0  2  0  0  0  0  0  0
  193.7490  175.2500  137.9620 C   0  0  0  0  0  2  0  0  0  0  0  0
  179.1470  175.8170  134.7880 C   0  0  0  0  0  1  0  0  0  0  0  0
  179.0230  174.4860  135.1940 O   0  0  0  0  0  0  0  0  0  0  0  0
  184.4780  178.5780  137.1490 C   0  0  0  0  0  2  0  0  0  0  0  0
  184.8120  178.2970  138.4840 O   0  0  0  0  0  1  0  0  0  0  0  0
  1 13  2  0  0  0  0
  1  5  1  0  0  0  0
  2  6  1  0  0  0  0
  3 14  1  0  0  0  0
  4  8  1  0  0  0  0
  4 15  1  0  0  0  0
  5  9  1  0  0  0  0
  8 12  1  0  0  0  0
  9  7  1  0  0  0  0
  9 15  1  0  0  0  0
 10  4  1  0  0  0  0
 11 10  1  0  0  0  0
 11 14  1  0  0  0  0
 12 22  1  0  0  0  0
 12  6  1  0  0  0  0
 13 10  1  0  0  0  0
 14 56  1  0  0  0  0
 14  8  1  0  0  0  0
 15  2  1  0  0  0  0
 16 20  1  0  0  0  0
 17 18  1  0  0  0  0
 17 16  1  0  0  0  0
 18 22  1  0  0  0  0
 19 21  1  0  0  0  0
 20 21  1  0  0  0  0
 21 23  1  0  0  0  0
 22 19  1  0  0  0  0
 23 24  2  0  0  0  0
 26 25  1  0  0  0  0
 26 17  1  0  0  0  0
 27 26  1  0  0  0  0
 28 27  1  0  0  0  0
 29 30  1  0  0  0  0
 29 31  1  0  0  0  0
 29 11  1  0  0  0  0
 31 46  1  0  0  0  0
 32 42  1  0  0  0  0
 32 47  1  0  0  0  0
 33 35  1  0  0  0  0
 34 44  1  0  0  0  0
 34 38  1  0  0  0  0
 36 44  1  0  0  0  0
 37 35  1  0  0  0  0
 38 32  1  0  0  0  0
 39 33  1  0  0  0  0
 40 39  1  0  0  0  0
 40 37  1  0  0  0  0
 41 42  1  0  0  0  0
 42 43  2  0  0  0  0
 43 40  2  0  0  0  0
 44 41  2  0  0  0  0
 45 34  2  0  0  0  0
 46 45  2  0  0  0  0
 48 50  1  0  0  0  0
 50 52  1  0  0  0  0
 50 51  1  0  0  0  0
 51 36  1  0  0  0  0
 51 49  1  0  0  0  0
 52 53  1  0  0  0  0
 53 49  1  0  0  0  0
 54 55  1  0  0  0  0
 55  5  1  0  0  0  0
 56 57  1  0  0  0  0
M  END
>  <MODEL>
8

>  <REMARK>
 VINA RESULT:      -4.8      2.518      6.287
  Name = 
  10 active torsions:
  status: ('A' for Active; 'I' for Inactive)
    1  A    between atoms: C_5  and  C_51
    2  A    between atoms: N_9  and  C_43
    3  A    between atoms: C_10  and  C_26
    4  A    between atoms: C_10  and  C_39
    5  A    between atoms: C_13  and  C_20
    6  A    between atoms: C_17  and  O_45
    7  A    between atoms: C_20  and  C_22
    8  A    between atoms: C_26  and  C_53
    9  A    between atoms: C_46  and  C_55
   10  A    between atoms: C_47  and  C_54
                            x       y       z     vdW  Elec       q    Type
                         _______ _______ _______ _____ _____    ______ ____

>  <TORSDO>
F 10

$$$$
=
 OpenBabel11062416423D

 57 63  0  0  1  0  0  0  0  0999 V2000
  183.3180  175.6650  135.1400 C   0  0  0  0  0  3  0  0  0  0  0  0
  181.3140  174.9590  139.2490 C   0  0  0  0  0  2  0  0  0  0  0  0
  184.4510  178.6100  137.2250 C   0  0  0  0  0  1  0  0  0  0  0  0
  183.4390  175.6020  138.1470 C   0  0  2  0  0  3  0  0  0  0  0  0
  182.0340  174.8980  135.3900 C   0  0  1  0  0  3  0  0  0  0  0  0
  182.0810  175.6330  140.4150 C   0  0  0  0  0  2  0  0  0  0  0  0
  180.1440  174.4250  136.8460 F   0  0  0  0  0  0  0  0  0  0  0  0
  183.2730  176.9900  138.6040 N   0  0  1  0  0  0  0  0  0  0  0  0
  181.4550  174.8270  136.7980 C   0  0  1  0  0  3  0  0  0  0  0  0
  184.6630  175.4140  137.2880 C   0  0  2  0  0  3  0  0  0  0  0  0
  185.5350  176.4640  137.9920 C   0  0  2  0  0  3  0  0  0  0  0  0
  182.7590  176.9750  140.0020 C   0  0  1  0  0  3  0  0  0  0  0  0
  184.4130  175.8530  135.8880 C   0  0  0  0  0  3  0  0  0  0  0  0
  184.6070  177.6210  138.3890 C   0  0  1  0  0  0  0  0  0  0  0  0
  182.1170  174.9360  137.9630 C   0  0  2  0  0  3  0  0  0  0  0  0
  179.2960  180.2920  140.0620 C   0  0  0  0  0  2  0  0  0  0  0  0
  180.3530  179.7510  139.1040 C   0  0  1  0  0  3  0  0  0  0  0  0
  180.7450  178.2780  139.2060 C   0  0  0  0  0  2  0  0  0  0  0  0
  181.1690  178.0600  141.7370 C   0  0  0  0  0  2  0  0  0  0  0  0
  179.8790  180.2680  141.4570 C   0  0  0  0  0  2  0  0  0  0  0  0
  179.8640  178.8400  141.9920 C   0  0  2  0  0  3  0  0  0  0  0  0
  181.7880  178.1350  140.3320 C   0  0  1  0  0  3  0  0  0  0  0  0
  179.5940  178.9240  143.4680 C   0  0  0  0  0  3  0  0  0  0  0  0
  179.3940  179.9810  144.0390 O   0  0  0  0  0  0  0  0  0  0  0  0
  181.9470  181.4390  138.2420 C   0  0  0  0  0  1  0  0  0  0  0  0
  180.7730  180.5300  137.8790 C   0  0  2  0  0  3  0  0  0  0  0  0
  179.5980  181.3020  137.2690 C   0  0  0  0  0  2  0  0  0  0  0  0
  180.0480  182.4750  136.6530 O   0  0  0  0  0  1  0  0  0  0  0  0
  186.9940  176.7450  137.5890 C   0  0  1  0  0  3  0  0  0  0  0  0
  187.0170  177.1530  136.2460 O   0  0  0  0  0  1  0  0  0  0  0  0
  187.7520  177.7350  138.4650 C   0  0  0  0  0  2  0  0  0  0  0  0
  192.9940  176.0430  136.1660 C   0  0  2  0  0  3  0  0  0  0  0  0
  196.2270  171.0690  135.3780 C   0  0  0  0  0  2  0  0  0  0  0  0
  190.7430  176.0290  137.2880 C   0  0  0  0  0  0  0  0  0  0  0  0
  196.3420  171.1910  136.8970 C   0  0  0  0  0  2  0  0  0  0  0  0
  189.2600  174.0280  136.8380 N   0  0  0  0  0  2  0  0  0  0  0  0
  195.3490  172.2480  137.3480 C   0  0  0  0  0  2  0  0  0  0  0  0
  192.1280  176.6360  137.2780 C   0  0  0  0  0  2  0  0  0  0  0  0
  195.4520  172.2830  134.8790 C   0  0  0  0  0  2  0  0  0  0  0  0
  194.9320  172.9350  136.1130 C   0  0  0  0  0  0  0  0  0  0  0  0
  191.5550  173.9810  136.3020 N   0  0  0  0  0  0  0  0  0  0  0  0
  192.8690  174.5460  136.1660 C   0  0  0  0  0  0  0  0  0  0  0  0
  193.9100  173.7490  136.1110 C   0  0  0  0  0  0  0  0  0  0  0  0
  190.5590  174.6330  136.8120 C   0  0  0  0  0  0  0  0  0  0  0  0
  189.8700  176.5600  138.0940 C   0  0  0  0  0  0  0  0  0  0  0  0
  189.0140  177.0830  138.9330 C   0  0  0  0  0  3  0  0  0  0  0  0
  194.3220  176.4530  136.3340 O   0  0  0  0  0  1  0  0  0  0  0  0
  187.0840  174.2800  135.0930 C   0  0  0  0  0  1  0  0  0  0  0  0
  188.2040  171.8130  136.9760 C   0  0  0  0  0  2  0  0  0  0  0  0
  187.9920  173.0590  134.9100 C   0  0  1  0  0  3  0  0  0  0  0  0
  188.9400  172.8110  136.0940 C   0  0  1  0  0  3  0  0  0  0  0  0
  187.1370  171.8350  134.9070 C   0  0  0  0  0  2  0  0  0  0  0  0
  187.2560  171.1510  136.0400 C   0  0  0  0  0  2  0  0  0  0  0  0
  181.3120  176.8700  134.6370 C   0  0  0  0  0  1  0  0  0  0  0  0
  181.0540  175.4980  134.5940 O   0  0  0  0  0  0  0  0  0  0  0  0
  185.1590  178.4270  139.5830 C   0  0  0  0  0  2  0  0  0  0  0  0
  184.7150  179.7600  139.5700 O   0  0  0  0  0  1  0  0  0  0  0  0
  1  5  1  0  0  0  0
  1 13  2  0  0  0  0
  2  6  1  0  0  0  0
  3 14  1  0  0  0  0
  4  8  1  0  0  0  0
  5  9  1  0  0  0  0
  8 12  1  0  0  0  0
  9  7  1  0  0  0  0
  9 15  1  0  0  0  0
 10 11  1  0  0  0  0
 10  4  1  0  0  0  0
 11 14  1  0  0  0  0
 12 22  1  0  0  0  0
 12  6  1  0  0  0  0
 13 10  1  0  0  0  0
 14  8  1  0  0  0  0
 14 56  1  0  0  0  0
 15  4  1  0  0  0  0
 15  2  1  0  0  0  0
 16 20  1  0  0  0  0
 17 18  1  0  0  0  0
 17 16  1  0  0  0  0
 18 22  1  0  0  0  0
 19 21  1  0  0  0  0
 20 21  1  0  0  0  0
 21 23  1  0  0  0  0
 22 19  1  0  0  0  0
 23 24  2  0  0  0  0
 26 25  1  0  0  0  0
 26 17  1  0  0  0  0
 27 26  1  0  0  0  0
 28 27  1  0  0  0  0
 29 11  1  0  0  0  0
 29 31  1  0  0  0  0
 30 29  1  0  0  0  0
 31 46  1  0  0  0  0
 32 42  1  0  0  0  0
 32 47  1  0  0  0  0
 32 38  1  0  0  0  0
 33 35  1  0  0  0  0
 34 45  2  0  0  0  0
 35 37  1  0  0  0  0
 38 34  1  0  0  0  0
 39 33  1  0  0  0  0
 39 40  1  0  0  0  0
 40 37  1  0  0  0  0
 41 44  2  0  0  0  0
 42 41  1  0  0  0  0
 43 40  2  0  0  0  0
 43 42  2  0  0  0  0
 44 36  1  0  0  0  0
 44 34  1  0  0  0  0
 45 46  2  0  0  0  0
 50 48  1  0  0  0  0
 50 51  1  0  0  0  0
 51 36  1  0  0  0  0
 51 49  1  0  0  0  0
 52 50  1  0  0  0  0
 52 53  1  0  0  0  0
 53 49  1  0  0  0  0
 55 54  1  0  0  0  0
 55  5  1  0  0  0  0
 57 56  1  0  0  0  0
M  END
>  <MODEL>
9

>  <REMARK>
 VINA RESULT:      -4.7      2.729      5.629
  Name = 
  10 active torsions:
  status: ('A' for Active; 'I' for Inactive)
    1  A    between atoms: C_5  and  C_51
    2  A    between atoms: N_9  and  C_43
    3  A    between atoms: C_10  and  C_26
    4  A    between atoms: C_10  and  C_39
    5  A    between atoms: C_13  and  C_20
    6  A    between atoms: C_17  and  O_45
    7  A    between atoms: C_20  and  C_22
    8  A    between atoms: C_26  and  C_53
    9  A    between atoms: C_46  and  C_55
   10  A    between atoms: C_47  and  C_54
                            x       y       z     vdW  Elec       q    Type
                         _______ _______ _______ _____ _____    ______ ____

>  <TORSDO>
F 10

$$$$
