=
 OpenBabel11062417363D

 57 64  0  0  1  0  0  0  0  0999 V2000
  183.7300  173.8390  136.6730 C   0  0  0  0  0  2  0  0  0  0  0  0
  184.9930  175.2020  134.9000 C   0  0  0  0  0  2  0  0  0  0  0  0
  180.2140  172.7000  136.5860 N   0  0  0  0  0  0  0  0  0  0  0  0
  181.8390  175.4430  138.6210 C   0  0  0  0  0  2  0  0  0  0  0  0
  184.2150  176.9040  137.9950 N   0  0  0  0  0  2  0  0  0  0  0  0
  182.6560  178.7340  140.9040 C   0  0  1  0  0  3  0  0  0  0  0  0
  180.8050  174.8390  137.6790 C   0  0  2  0  0  3  0  0  0  0  0  0
  183.1810  177.5870  138.7690 C   0  0  2  0  0  3  0  0  0  0  0  0
  184.8100  173.8480  135.6030 C   0  0  1  0  0  3  0  0  0  0  0  0
  183.2850  177.4860  135.9350 O   0  0  0  0  0  0  0  0  0  0  0  0
  185.3960  176.3940  135.7860 C   0  0  1  0  0  3  0  0  0  0  0  0
  183.5530  177.6830  140.2370 C   0  0  0  0  0  2  0  0  0  0  0  0
  179.5160  177.6120  139.0670 O   0  0  0  0  0  1  0  0  0  0  0  0
  179.1070  172.5810  137.2340 C   0  0  0  0  0  3  0  0  0  0  0  0
  182.3610  173.6880  136.0340 C   0  0  0  0  0  2  0  0  0  0  0  0
  179.4340  174.7330  138.3870 C   0  0  0  0  0  2  0  0  0  0  0  0
  181.3090  173.4920  137.1140 C   0  0  2  0  0  3  0  0  0  0  0  0
  178.9310  173.2970  138.5370 C   0  0  0  0  0  2  0  0  0  0  0  0
  184.2370  176.9530  136.5640 C   0  0  0  0  0  0  0  0  0  0  0  0
  181.1840  178.7050  140.4450 C   0  0  2  0  0  3  0  0  0  0  0  0
  180.7780  177.4560  139.6380 C   0  0  2  0  0  3  0  0  0  0  0  0
  181.7850  176.9670  138.5850 C   0  0  2  0  0  3  0  0  0  0  0  0
  186.2070  172.7820  137.2430 O   0  0  0  0  0  0  0  0  0  0  0  0
  187.1920  173.1570  135.1630 N   0  0  0  0  0  2  0  0  0  0  0  0
  186.0980  173.2440  136.0710 C   0  0  0  0  0  0  0  0  0  0  0  0
  188.4700  172.5790  135.5510 C   0  0  0  0  0  2  0  0  0  0  0  0
  189.6000  173.4770  135.0890 C   0  0  0  0  0  2  0  0  0  0  0  0
  189.7790  174.5300  135.9990 O   0  0  0  0  0  0  0  0  0  0  0  0
  191.6250  175.9960  135.2460 C   0  0  0  0  0  2  0  0  0  0  0  0
  191.5230  176.0940  136.7650 C   0  0  2  0  0  3  0  0  0  0  0  0
  192.1660  173.7540  136.4470 C   0  0  0  0  0  2  0  0  0  0  0  0
  192.8330  175.8790  137.3710 N   0  0  0  0  0  2  0  0  0  0  0  0
  193.0050  174.4340  137.5140 C   0  0  0  0  0  2  0  0  0  0  0  0
  191.1600  174.8090  136.0610 C   0  0  1  0  0  0  0  0  0  0  0  0
  180.6210  180.2930  139.7170 S   0  0  0  0  0  0  0  0  0  0  0  0
  179.5640  180.8010  141.1050 C   0  0  0  0  0  1  0  0  0  0  0  0
  186.5170  176.0990  136.5820 O   0  0  0  0  0  0  0  0  0  0  0  0
  187.5890  176.8350  136.0490 C   0  0  0  0  0  2  0  0  0  0  0  0
  188.7920  178.9620  136.8260 C   0  0  0  0  0  3  0  0  0  0  0  0
  188.1810  177.7540  137.0740 C   0  0  0  0  0  0  0  0  0  0  0  0
  188.5260  178.6950  138.9510 N   0  0  0  0  0  0  0  0  0  0  0  0
  189.0060  179.5210  138.0330 N   0  0  0  0  0  2  0  0  0  0  0  0
  188.0090  177.6100  138.3990 N   0  0  0  0  0  0  0  0  0  0  0  0
  182.7750  178.7160  142.4230 C   0  0  0  0  0  2  0  0  0  0  0  0
  184.1240  179.2480  142.9000 C   0  0  0  0  0  2  0  0  0  0  0  0
  184.9660  178.0870  143.3980 C   0  0  0  0  0  2  0  0  0  0  0  0
  186.3800  178.5680  143.6700 C   0  0  0  0  0  2  0  0  0  0  0  0
  187.4880  176.3440  144.0110 C   0  0  0  0  0  2  0  0  0  0  0  0
  188.5890  177.2770  144.4910 C   0  0  2  0  0  3  0  0  0  0  0  0
  187.1110  177.6600  144.6640 C   0  0  1  0  0  0  0  0  0  0  0  0
  190.3980  176.6710  142.2790 C   0  0  0  0  0  1  0  0  0  0  0  0
  189.4820  177.9640  143.0860 S   0  0  0  0  0  0  0  0  0  0  0  0
  188.5830  178.6450  142.0910 O   0  0  0  0  0  0  0  0  0  0  0  0
  190.4620  178.9800  143.6060 O   0  0  0  0  0  0  0  0  0  0  0  0
  187.2460  178.1620  147.1500 C   0  0  0  0  0  2  0  0  0  0  0  0
  185.9560  178.7320  146.6130 C   0  0  0  0  0  2  0  0  0  0  0  0
  186.4910  177.4260  146.0470 C   0  0  0  0  0  3  0  0  0  0  0  0
  2  9  1  0  0  0  0
  2 11  1  0  0  0  0
  3 17  1  0  0  0  0
  3 14  2  0  0  0  0
  5  8  1  0  0  0  0
  6 44  1  1  0  0  0
  7 16  1  1  0  0  0
  7  4  1  0  0  0  0
  8 12  1  1  0  0  0
  9 25  1  1  0  0  0
  9  1  1  0  0  0  0
 10 19  2  0  0  0  0
 11 19  1  0  0  0  0
 11 37  1  1  0  0  0
 12  6  1  0  0  0  0
 14 18  1  0  0  0  0
 15  1  1  0  0  0  0
 16 18  1  0  0  0  0
 17 15  1  6  0  0  0
 17  7  1  0  0  0  0
 19  5  1  0  0  0  0
 20 35  1  6  0  0  0
 20  6  1  0  0  0  0
 21 13  1  6  0  0  0
 21 20  1  0  0  0  0
 22  4  1  1  0  0  0
 22  8  1  0  0  0  0
 22 21  1  0  0  0  0
 24 26  1  0  0  0  0
 24 25  1  0  0  0  0
 25 23  2  0  0  0  0
 27 26  1  0  0  0  0
 27 28  1  0  0  0  0
 29 34  1  0  0  0  0
 30 29  1  6  0  0  0
 30 32  1  0  0  0  0
 31 33  1  0  0  0  0
 32 33  1  0  0  0  0
 34 28  1  6  0  0  0
 34 31  1  0  0  0  0
 34 30  1  0  0  0  0
 35 36  1  0  0  0  0
 38 37  1  0  0  0  0
 38 40  1  0  0  0  0
 39 40  2  0  0  0  0
 39 42  1  0  0  0  0
 40 43  1  0  0  0  0
 42 41  1  0  0  0  0
 43 41  2  0  0  0  0
 44 45  1  0  0  0  0
 45 46  1  0  0  0  0
 46 47  1  0  0  0  0
 48 49  1  0  0  0  0
 48 50  1  0  0  0  0
 49 52  1  6  0  0  0
 49 50  1  0  0  0  0
 50 47  1  6  0  0  0
 50 57  1  0  0  0  0
 51 52  1  0  0  0  0
 52 54  2  0  0  0  0
 53 52  2  0  0  0  0
 56 55  1  0  0  0  0
 57 56  1  0  0  0  0
 57 55  1  0  0  0  0
M  END
>  <MODEL>
1

>  <REMARK>
 VINA RESULT:      -7.5      0.000      0.000
  Name = 
  16 active torsions:
  status: ('A' for Active; 'I' for Inactive)
    1  A    between atoms: C_4  and  C_7
    2  A    between atoms: C_4  and  C_54
    3  A    between atoms: S_6  and  C_47
    4  A    between atoms: C_7  and  C_18
    5  A    between atoms: S_8  and  C_31
    6  A    between atoms: C_16  and  C_51
    7  A    between atoms: C_17  and  C_52
    8  A    between atoms: C_17  and  C_54
    9  A    between atoms: N_22  and  C_37
   10  A    between atoms: C_23  and  C_32
   11  A    between atoms: O_25  and  C_27
   12  A    between atoms: O_25  and  C_51
   13  A    between atoms: C_37  and  C_49
   14  A    between atoms: O_45  and  C_49
   15  A    between atoms: O_45  and  C_50
   16  A    between atoms: C_52  and  C_55
                            x       y       z     vdW  Elec       q    Type
                         _______ _______ _______ _____ _____    ______ ____

>  <TORSDO>
F 16

$$$$
=
 OpenBabel11062417363D

 57 64  0  0  1  0  0  0  0  0999 V2000
  186.0070  173.4280  136.3890 C   0  0  0  0  0  2  0  0  0  0  0  0
  187.3420  174.6890  134.5940 C   0  0  0  0  0  2  0  0  0  0  0  0
  182.7290  171.7580  136.0300 N   0  0  0  0  0  0  0  0  0  0  0  0
  183.6400  174.9930  137.7640 C   0  0  0  0  0  2  0  0  0  0  0  0
  185.8720  176.6950  137.2200 N   0  0  0  0  0  2  0  0  0  0  0  0
  183.6490  178.6750  139.5390 C   0  0  1  0  0  3  0  0  0  0  0  0
  182.8540  174.1010  136.8100 C   0  0  2  0  0  3  0  0  0  0  0  0
  184.6490  177.3170  137.7200 C   0  0  2  0  0  3  0  0  0  0  0  0
  187.2300  173.4440  135.4870 C   0  0  1  0  0  3  0  0  0  0  0  0
  185.2080  176.8090  134.9850 O   0  0  0  0  0  0  0  0  0  0  0  0
  187.4410  176.0480  135.3070 C   0  0  1  0  0  3  0  0  0  0  0  0
  184.7700  177.6890  139.1870 C   0  0  0  0  0  2  0  0  0  0  0  0
  181.0110  176.8180  137.5180 O   0  0  0  0  0  1  0  0  0  0  0  0
  181.5590  171.5670  136.5350 C   0  0  0  0  0  3  0  0  0  0  0  0
  184.7860  172.9730  135.6080 C   0  0  0  0  0  2  0  0  0  0  0  0
  181.4160  173.8920  137.3370 C   0  0  0  0  0  2  0  0  0  0  0  0
  183.6130  172.7800  136.5560 C   0  0  2  0  0  3  0  0  0  0  0  0
  181.0890  172.4340  137.6610 C   0  0  0  0  0  2  0  0  0  0  0  0
  186.1110  176.5310  135.8180 C   0  0  0  0  0  0  0  0  0  0  0  0
  182.2840  178.3500  138.8990 C   0  0  2  0  0  3  0  0  0  0  0  0
  182.1770  176.9470  138.2700 C   0  0  2  0  0  3  0  0  0  0  0  0
  183.3920  176.4670  137.4610 C   0  0  2  0  0  3  0  0  0  0  0  0
  188.4660  172.6990  137.4090 O   0  0  0  0  0  0  0  0  0  0  0  0
  189.7420  173.2640  135.5410 N   0  0  0  0  0  2  0  0  0  0  0  0
  188.4970  173.1240  136.2190 C   0  0  0  0  0  0  0  0  0  0  0  0
  191.0100  172.9680  136.1910 C   0  0  0  0  0  2  0  0  0  0  0  0
  192.1100  173.8120  135.5800 C   0  0  0  0  0  2  0  0  0  0  0  0
  193.3510  173.1790  135.7490 O   0  0  0  0  0  0  0  0  0  0  0  0
  193.6600  175.4980  136.5540 C   0  0  0  0  0  2  0  0  0  0  0  0
  193.9240  174.5470  137.7170 C   0  0  2  0  0  3  0  0  0  0  0  0
  195.7350  173.9790  136.1710 C   0  0  0  0  0  2  0  0  0  0  0  0
  195.2000  174.8680  138.3480 N   0  0  0  0  0  2  0  0  0  0  0  0
  196.2380  174.1700  137.5910 C   0  0  0  0  0  2  0  0  0  0  0  0
  194.2390  174.1240  136.3030 C   0  0  1  0  0  0  0  0  0  0  0  0
  181.6390  179.7040  137.8410 S   0  0  0  0  0  0  0  0  0  0  0  0
  180.9120  180.6930  139.1820 C   0  0  0  0  0  1  0  0  0  0  0  0
  188.4520  176.0530  136.2850 O   0  0  0  0  0  0  0  0  0  0  0  0
  188.8460  177.3940  136.4440 C   0  0  0  0  0  2  0  0  0  0  0  0
  189.8160  177.1970  138.8090 C   0  0  0  0  0  3  0  0  0  0  0  0
  188.9570  177.7600  137.8910 C   0  0  0  0  0  0  0  0  0  0  0  0
  188.8380  178.9150  139.6750 N   0  0  0  0  0  0  0  0  0  0  0  0
  189.7040  177.9440  139.9240 N   0  0  0  0  0  2  0  0  0  0  0  0
  188.3690  178.8360  138.4410 N   0  0  0  0  0  0  0  0  0  0  0  0
  183.5300  178.9040  141.0400 C   0  0  0  0  0  2  0  0  0  0  0  0
  184.8820  179.1960  141.6860 C   0  0  0  0  0  2  0  0  0  0  0  0
  185.0300  178.3450  142.9330 C   0  0  0  0  0  2  0  0  0  0  0  0
  186.4970  178.0230  143.1570 C   0  0  0  0  0  2  0  0  0  0  0  0
  187.2340  176.2040  144.7170 C   0  0  0  0  0  2  0  0  0  0  0  0
  188.2000  177.3120  145.1090 C   0  0  2  0  0  3  0  0  0  0  0  0
  186.7850  177.6490  144.6130 C   0  0  1  0  0  0  0  0  0  0  0  0
  191.0950  177.1130  144.7680 C   0  0  0  0  0  1  0  0  0  0  0  0
  189.5540  177.4050  143.9270 S   0  0  0  0  0  0  0  0  0  0  0  0
  189.4090  176.4370  142.7850 O   0  0  0  0  0  0  0  0  0  0  0  0
  189.5860  178.7990  143.3610 O   0  0  0  0  0  0  0  0  0  0  0  0
  186.3610  178.5330  146.9560 C   0  0  0  0  0  2  0  0  0  0  0  0
  185.7110  179.4670  145.9640 C   0  0  0  0  0  2  0  0  0  0  0  0
  185.7340  177.9740  145.6820 C   0  0  0  0  0  3  0  0  0  0  0  0
  2 11  1  0  0  0  0
  2  9  1  0  0  0  0
  3 14  2  0  0  0  0
  3 17  1  0  0  0  0
  5  8  1  0  0  0  0
  6 44  1  1  0  0  0
  7 16  1  1  0  0  0
  7  4  1  0  0  0  0
  8 12  1  1  0  0  0
  9 25  1  1  0  0  0
  9  1  1  0  0  0  0
 10 19  2  0  0  0  0
 11 19  1  0  0  0  0
 11 37  1  1  0  0  0
 12  6  1  0  0  0  0
 14 18  1  0  0  0  0
 15  1  1  0  0  0  0
 16 18  1  0  0  0  0
 17 15  1  6  0  0  0
 17  7  1  0  0  0  0
 19  5  1  0  0  0  0
 20 35  1  6  0  0  0
 20  6  1  0  0  0  0
 21 13  1  6  0  0  0
 21 20  1  0  0  0  0
 22  8  1  0  0  0  0
 22  4  1  1  0  0  0
 22 21  1  0  0  0  0
 24 26  1  0  0  0  0
 24 25  1  0  0  0  0
 25 23  2  0  0  0  0
 27 28  1  0  0  0  0
 27 26  1  0  0  0  0
 30 29  1  6  0  0  0
 30 32  1  0  0  0  0
 31 34  1  0  0  0  0
 31 33  1  0  0  0  0
 33 32  1  0  0  0  0
 34 28  1  6  0  0  0
 34 29  1  0  0  0  0
 34 30  1  0  0  0  0
 35 36  1  0  0  0  0
 37 38  1  0  0  0  0
 38 40  1  0  0  0  0
 39 42  1  0  0  0  0
 40 43  1  0  0  0  0
 40 39  2  0  0  0  0
 41 42  1  0  0  0  0
 43 41  2  0  0  0  0
 44 45  1  0  0  0  0
 45 46  1  0  0  0  0
 46 47  1  0  0  0  0
 48 49  1  0  0  0  0
 49 52  1  6  0  0  0
 50 47  1  6  0  0  0
 50 48  1  0  0  0  0
 50 49  1  0  0  0  0
 50 57  1  0  0  0  0
 52 51  1  0  0  0  0
 53 52  2  0  0  0  0
 54 52  2  0  0  0  0
 56 55  1  0  0  0  0
 57 56  1  0  0  0  0
 57 55  1  0  0  0  0
M  END
>  <MODEL>
2

>  <REMARK>
 VINA RESULT:      -6.3      1.688      2.180
  Name = 
  16 active torsions:
  status: ('A' for Active; 'I' for Inactive)
    1  A    between atoms: C_4  and  C_7
    2  A    between atoms: C_4  and  C_54
    3  A    between atoms: S_6  and  C_47
    4  A    between atoms: C_7  and  C_18
    5  A    between atoms: S_8  and  C_31
    6  A    between atoms: C_16  and  C_51
    7  A    between atoms: C_17  and  C_52
    8  A    between atoms: C_17  and  C_54
    9  A    between atoms: N_22  and  C_37
   10  A    between atoms: C_23  and  C_32
   11  A    between atoms: O_25  and  C_27
   12  A    between atoms: O_25  and  C_51
   13  A    between atoms: C_37  and  C_49
   14  A    between atoms: O_45  and  C_49
   15  A    between atoms: O_45  and  C_50
   16  A    between atoms: C_52  and  C_55
                            x       y       z     vdW  Elec       q    Type
                         _______ _______ _______ _____ _____    ______ ____

>  <TORSDO>
F 16

$$$$
=
 OpenBabel11062417363D

 57 64  0  0  1  0  0  0  0  0999 V2000
  187.2100  173.4540  136.3130 C   0  0  0  0  0  2  0  0  0  0  0  0
  188.5010  174.8590  134.5940 C   0  0  0  0  0  2  0  0  0  0  0  0
  184.2020  171.3790  135.7550 N   0  0  0  0  0  0  0  0  0  0  0  0
  184.5730  174.7180  137.4920 C   0  0  0  0  0  2  0  0  0  0  0  0
  186.6070  176.6840  137.0760 N   0  0  0  0  0  2  0  0  0  0  0  0
  183.9930  178.3860  139.2010 C   0  0  1  0  0  3  0  0  0  0  0  0
  183.9760  173.7260  136.5020 C   0  0  2  0  0  3  0  0  0  0  0  0
  185.2820  177.1510  137.4800 C   0  0  2  0  0  3  0  0  0  0  0  0
  188.4830  173.6180  135.4980 C   0  0  1  0  0  3  0  0  0  0  0  0
  186.0950  176.6960  134.7990 O   0  0  0  0  0  0  0  0  0  0  0  0
  188.3770  176.2260  135.2900 C   0  0  1  0  0  3  0  0  0  0  0  0
  185.2510  177.5470  138.9440 C   0  0  0  0  0  2  0  0  0  0  0  0
  181.7600  176.1930  137.0330 O   0  0  0  0  0  1  0  0  0  0  0  0
  183.0330  171.0460  136.1810 C   0  0  0  0  0  3  0  0  0  0  0  0
  186.1160  172.8420  135.4570 C   0  0  0  0  0  2  0  0  0  0  0  0
  182.5420  173.3410  136.9300 C   0  0  0  0  0  2  0  0  0  0  0  0
  184.9110  172.5090  136.3240 C   0  0  2  0  0  3  0  0  0  0  0  0
  182.3780  171.8550  137.2560 C   0  0  0  0  0  2  0  0  0  0  0  0
  186.9640  176.5400  135.6970 C   0  0  0  0  0  0  0  0  0  0  0  0
  182.7290  177.8850  138.4730 C   0  0  2  0  0  3  0  0  0  0  0  0
  182.8440  176.4750  137.8630 C   0  0  2  0  0  3  0  0  0  0  0  0
  184.1650  176.1460  137.1480 C   0  0  2  0  0  3  0  0  0  0  0  0
  189.6890  173.6140  137.5770 O   0  0  0  0  0  0  0  0  0  0  0  0
  190.9450  173.1120  135.6770 N   0  0  0  0  0  2  0  0  0  0  0  0
  189.7250  173.4670  136.3220 C   0  0  0  0  0  0  0  0  0  0  0  0
  192.1870  172.9460  136.4170 C   0  0  0  0  0  2  0  0  0  0  0  0
  193.3460  172.8140  135.4510 C   0  0  0  0  0  2  0  0  0  0  0  0
  194.5370  173.2250  136.0710 O   0  0  0  0  0  0  0  0  0  0  0  0
  196.8520  172.4660  135.6390 C   0  0  0  0  0  2  0  0  0  0  0  0
  196.5100  172.1600  137.0930 C   0  0  2  0  0  3  0  0  0  0  0  0
  194.9460  170.7150  135.8870 C   0  0  0  0  0  2  0  0  0  0  0  0
  196.8220  170.7690  137.4000 N   0  0  0  0  0  2  0  0  0  0  0  0
  195.6630  169.9730  137.0000 C   0  0  0  0  0  2  0  0  0  0  0  0
  195.4310  172.1350  136.0380 C   0  0  1  0  0  0  0  0  0  0  0  0
  181.9950  179.1380  137.3500 S   0  0  0  0  0  0  0  0  0  0  0  0
  180.9440  179.9470  138.5920 C   0  0  0  0  0  1  0  0  0  0  0  0
  189.3070  176.3670  136.3350 O   0  0  0  0  0  0  0  0  0  0  0  0
  190.5450  176.6510  135.7310 C   0  0  0  0  0  2  0  0  0  0  0  0
  193.0120  176.4290  136.3920 C   0  0  0  0  0  3  0  0  0  0  0  0
  191.6730  176.4930  136.7040 C   0  0  0  0  0  0  0  0  0  0  0  0
  192.7620  176.5710  138.5300 N   0  0  0  0  0  0  0  0  0  0  0  0
  193.6660  176.4680  137.5680 N   0  0  0  0  0  2  0  0  0  0  0  0
  191.5350  176.5960  138.0360 N   0  0  0  0  0  0  0  0  0  0  0  0
  183.7400  178.6100  140.6860 C   0  0  0  0  0  2  0  0  0  0  0  0
  184.9790  179.1310  141.4090 C   0  0  0  0  0  2  0  0  0  0  0  0
  185.4320  178.0970  142.4230 C   0  0  0  0  0  2  0  0  0  0  0  0
  186.9250  178.2360  142.6570 C   0  0  0  0  0  2  0  0  0  0  0  0
  188.0150  176.1720  143.5730 C   0  0  0  0  0  2  0  0  0  0  0  0
  188.8590  177.2480  144.2390 C   0  0  2  0  0  3  0  0  0  0  0  0
  187.3770  177.5030  143.9230 C   0  0  1  0  0  0  0  0  0  0  0  0
  191.5170  176.8160  143.1050 C   0  0  0  0  0  1  0  0  0  0  0  0
  190.0900  177.8770  143.0840 S   0  0  0  0  0  0  0  0  0  0  0  0
  189.5720  178.0020  141.6780 O   0  0  0  0  0  0  0  0  0  0  0  0
  190.5140  179.2430  143.5510 O   0  0  0  0  0  0  0  0  0  0  0  0
  186.7250  178.2530  146.2600 C   0  0  0  0  0  2  0  0  0  0  0  0
  185.6230  178.6430  145.3040 C   0  0  0  0  0  2  0  0  0  0  0  0
  186.3840  177.3460  145.0810 C   0  0  0  0  0  3  0  0  0  0  0  0
  2 11  1  0  0  0  0
  2  9  1  0  0  0  0
  3 14  2  0  0  0  0
  3 17  1  0  0  0  0
  5  8  1  0  0  0  0
  6 44  1  1  0  0  0
  7 16  1  1  0  0  0
  7  4  1  0  0  0  0
  8 12  1  1  0  0  0
  9  1  1  0  0  0  0
  9 25  1  1  0  0  0
 10 19  2  0  0  0  0
 11 19  1  0  0  0  0
 11 37  1  1  0  0  0
 12  6  1  0  0  0  0
 14 18  1  0  0  0  0
 15  1  1  0  0  0  0
 16 18  1  0  0  0  0
 17 15  1  6  0  0  0
 17  7  1  0  0  0  0
 19  5  1  0  0  0  0
 20 35  1  6  0  0  0
 20  6  1  0  0  0  0
 21 13  1  6  0  0  0
 21 20  1  0  0  0  0
 22  8  1  0  0  0  0
 22  4  1  1  0  0  0
 22 21  1  0  0  0  0
 24 25  1  0  0  0  0
 24 26  1  0  0  0  0
 25 23  2  0  0  0  0
 27 28  1  0  0  0  0
 27 26  1  0  0  0  0
 29 34  1  0  0  0  0
 30 29  1  6  0  0  0
 30 32  1  0  0  0  0
 31 34  1  0  0  0  0
 31 33  1  0  0  0  0
 33 32  1  0  0  0  0
 34 28  1  6  0  0  0
 34 30  1  0  0  0  0
 35 36  1  0  0  0  0
 38 37  1  0  0  0  0
 38 40  1  0  0  0  0
 39 40  2  0  0  0  0
 39 42  1  0  0  0  0
 40 43  1  0  0  0  0
 42 41  1  0  0  0  0
 43 41  2  0  0  0  0
 44 45  1  0  0  0  0
 45 46  1  0  0  0  0
 46 47  1  0  0  0  0
 48 50  1  0  0  0  0
 48 49  1  0  0  0  0
 49 52  1  6  0  0  0
 50 47  1  6  0  0  0
 50 49  1  0  0  0  0
 50 57  1  0  0  0  0
 52 51  1  0  0  0  0
 52 54  2  0  0  0  0
 53 52  2  0  0  0  0
 56 55  1  0  0  0  0
 57 56  1  0  0  0  0
 57 55  1  0  0  0  0
M  END
>  <MODEL>
3

>  <REMARK>
 VINA RESULT:      -6.3      2.261      3.471
  Name = 
  16 active torsions:
  status: ('A' for Active; 'I' for Inactive)
    1  A    between atoms: C_4  and  C_7
    2  A    between atoms: C_4  and  C_54
    3  A    between atoms: S_6  and  C_47
    4  A    between atoms: C_7  and  C_18
    5  A    between atoms: S_8  and  C_31
    6  A    between atoms: C_16  and  C_51
    7  A    between atoms: C_17  and  C_52
    8  A    between atoms: C_17  and  C_54
    9  A    between atoms: N_22  and  C_37
   10  A    between atoms: C_23  and  C_32
   11  A    between atoms: O_25  and  C_27
   12  A    between atoms: O_25  and  C_51
   13  A    between atoms: C_37  and  C_49
   14  A    between atoms: O_45  and  C_49
   15  A    between atoms: O_45  and  C_50
   16  A    between atoms: C_52  and  C_55
                            x       y       z     vdW  Elec       q    Type
                         _______ _______ _______ _____ _____    ______ ____

>  <TORSDO>
F 16

$$$$
=
 OpenBabel11062417363D

 57 64  0  0  1  0  0  0  0  0999 V2000
  187.9510  177.5260  139.6270 C   0  0  0  0  0  2  0  0  0  0  0  0
  187.7620  179.3480  141.4270 C   0  0  0  0  0  2  0  0  0  0  0  0
  188.5560  177.9610  136.0060 N   0  0  0  0  0  0  0  0  0  0  0  0
  185.3960  177.0080  137.8530 C   0  0  0  0  0  2  0  0  0  0  0  0
  184.7110  177.6090  140.5630 N   0  0  0  0  0  2  0  0  0  0  0  0
  181.5420  176.2770  139.0050 C   0  0  1  0  0  3  0  0  0  0  0  0
  186.2450  177.8090  136.8740 C   0  0  2  0  0  3  0  0  0  0  0  0
  183.6220  177.4930  139.5960 C   0  0  2  0  0  3  0  0  0  0  0  0
  188.5840  178.1910  140.8380 C   0  0  1  0  0  3  0  0  0  0  0  0
  185.0730  179.8730  140.1260 O   0  0  0  0  0  0  0  0  0  0  0  0
  186.3520  179.0070  141.9380 C   0  0  1  0  0  3  0  0  0  0  0  0
  182.8840  176.1740  139.7410 C   0  0  0  0  0  2  0  0  0  0  0  0
  183.0120  178.1420  136.0280 O   0  0  0  0  0  1  0  0  0  0  0  0
  188.2160  177.6180  134.8120 C   0  0  0  0  0  3  0  0  0  0  0  0
  188.2200  178.3470  138.3780 C   0  0  0  0  0  2  0  0  0  0  0  0
  185.8320  177.4850  135.4200 C   0  0  0  0  0  2  0  0  0  0  0  0
  187.7480  177.5840  137.1510 C   0  0  2  0  0  3  0  0  0  0  0  0
  186.9510  176.8480  134.5940 C   0  0  0  0  0  2  0  0  0  0  0  0
  185.3530  178.8620  140.8230 C   0  0  0  0  0  0  0  0  0  0  0  0
  181.6070  177.0220  137.6560 C   0  0  2  0  0  3  0  0  0  0  0  0
  183.0290  177.2710  137.1170 C   0  0  2  0  0  3  0  0  0  0  0  0
  184.0790  177.7200  138.1450 C   0  0  2  0  0  3  0  0  0  0  0  0
  188.5610  176.0390  141.9080 O   0  0  0  0  0  0  0  0  0  0  0  0
  190.0680  177.5890  142.7830 N   0  0  0  0  0  2  0  0  0  0  0  0
  189.0440  177.2070  141.8690 C   0  0  0  0  0  0  0  0  0  0  0  0
  190.5630  176.6810  143.8070 C   0  0  0  0  0  2  0  0  0  0  0  0
  190.2970  177.2630  145.1810 C   0  0  0  0  0  2  0  0  0  0  0  0
  188.9150  177.3260  145.4150 O   0  0  0  0  0  0  0  0  0  0  0  0
  189.6190  176.2190  147.5130 C   0  0  0  0  0  2  0  0  0  0  0  0
  189.8390  177.7210  147.6650 C   0  0  2  0  0  3  0  0  0  0  0  0
  187.4050  177.5820  147.4540 C   0  0  0  0  0  2  0  0  0  0  0  0
  189.2320  178.1950  148.9040 N   0  0  0  0  0  2  0  0  0  0  0  0
  187.8260  178.4700  148.6110 C   0  0  0  0  0  2  0  0  0  0  0  0
  188.7130  177.2020  146.8050 C   0  0  1  0  0  0  0  0  0  0  0  0
  180.5020  178.4860  137.5820 S   0  0  0  0  0  0  0  0  0  0  0  0
  180.3020  178.6920  139.3770 C   0  0  0  0  0  1  0  0  0  0  0  0
  186.3660  177.9150  142.8240 O   0  0  0  0  0  0  0  0  0  0  0  0
  186.3780  178.4560  144.1220 C   0  0  0  0  0  2  0  0  0  0  0  0
  184.2250  179.8320  143.9190 C   0  0  0  0  0  3  0  0  0  0  0  0
  185.0080  178.8880  144.5440 C   0  0  1  0  0  3  0  0  0  0  0  0
  183.0800  178.8210  145.4440 N   0  0  0  0  0  0  0  0  0  0  0  0
  183.0220  179.7700  144.5220 N   0  0  0  0  0  0  0  0  0  0  0  0
  184.2770  178.2570  145.4780 N   0  0  0  0  0  0  0  0  0  0  0  0
  180.8490  174.9270  138.8740 C   0  0  0  0  0  2  0  0  0  0  0  0
  179.5840  175.0100  138.0240 C   0  0  0  0  0  2  0  0  0  0  0  0
  179.7760  174.1800  136.7680 C   0  0  0  0  0  2  0  0  0  0  0  0
  180.9120  173.1950  136.9800 C   0  0  0  0  0  2  0  0  0  0  0  0
  181.8240  173.2700  134.6450 C   0  0  0  0  0  2  0  0  0  0  0  0
  182.6440  172.1280  135.2250 C   0  0  2  0  0  3  0  0  0  0  0  0
  181.2110  172.3860  135.7140 C   0  0  1  0  0  0  0  0  0  0  0  0
  185.5310  172.5690  135.3250 C   0  0  0  0  0  1  0  0  0  0  0  0
  184.0040  172.7750  136.2130 S   0  0  0  0  0  0  0  0  0  0  0  0
  183.8260  174.2210  136.5870 O   0  0  0  0  0  0  0  0  0  0  0  0
  184.0860  171.9690  137.4810 O   0  0  0  0  0  0  0  0  0  0  0  0
  179.8790  170.2360  135.9460 C   0  0  0  0  0  2  0  0  0  0  0  0
  178.9340  171.4050  136.0880 C   0  0  0  0  0  2  0  0  0  0  0  0
  180.1060  171.5010  135.1240 C   0  0  0  0  0  3  0  0  0  0  0  0
  1  9  1  0  0  0  0
  2 11  1  0  0  0  0
  3 17  1  0  0  0  0
  5 19  1  0  0  0  0
  6 44  1  6  0  0  0
  6 12  1  0  0  0  0
  7 16  1  6  0  0  0
  7 17  1  0  0  0  0
  7  4  1  0  0  0  0
  8 12  1  6  0  0  0
  8  5  1  0  0  0  0
  9  2  1  0  0  0  0
  9 25  1  1  0  0  0
 10 19  2  0  0  0  0
 11 37  1  6  0  0  0
 14  3  2  0  0  0  0
 15  1  1  0  0  0  0
 17 15  1  1  0  0  0
 18 14  1  0  0  0  0
 18 16  1  0  0  0  0
 19 11  1  0  0  0  0
 20 35  1  1  0  0  0
 20  6  1  0  0  0  0
 21 13  1  6  0  0  0
 21 20  1  0  0  0  0
 21 22  1  0  0  0  0
 22  4  1  6  0  0  0
 22  8  1  0  0  0  0
 24 26  1  0  0  0  0
 25 23  2  0  0  0  0
 25 24  1  0  0  0  0
 26 27  1  0  0  0  0
 27 28  1  0  0  0  0
 30 29  1  1  0  0  0
 30 32  1  0  0  0  0
 31 33  1  0  0  0  0
 33 32  1  0  0  0  0
 34 28  1  6  0  0  0
 34 31  1  0  0  0  0
 34 29  1  0  0  0  0
 34 30  1  0  0  0  0
 35 36  1  0  0  0  0
 37 38  1  0  0  0  0
 39 42  2  0  0  0  0
 39 40  1  0  0  0  0
 40 38  1  6  0  0  0
 40 43  1  0  0  0  0
 41 43  2  0  0  0  0
 42 41  1  0  0  0  0
 45 44  1  0  0  0  0
 46 47  1  0  0  0  0
 46 45  1  0  0  0  0
 48 49  1  0  0  0  0
 48 50  1  0  0  0  0
 49 50  1  0  0  0  0
 49 52  1  1  0  0  0
 50 47  1  1  0  0  0
 51 52  1  0  0  0  0
 52 53  2  0  0  0  0
 52 54  2  0  0  0  0
 55 56  1  0  0  0  0
 57 50  1  0  0  0  0
 57 55  1  0  0  0  0
 57 56  1  0  0  0  0
M  END
>  <MODEL>
4

>  <REMARK>
 VINA RESULT:      -5.5      3.162      8.852
  Name = 
  16 active torsions:
  status: ('A' for Active; 'I' for Inactive)
    1  A    between atoms: C_4  and  C_7
    2  A    between atoms: C_4  and  C_54
    3  A    between atoms: S_6  and  C_47
    4  A    between atoms: C_7  and  C_18
    5  A    between atoms: S_8  and  C_31
    6  A    between atoms: C_16  and  C_51
    7  A    between atoms: C_17  and  C_52
    8  A    between atoms: C_17  and  C_54
    9  A    between atoms: N_22  and  C_37
   10  A    between atoms: C_23  and  C_32
   11  A    between atoms: O_25  and  C_27
   12  A    between atoms: O_25  and  C_51
   13  A    between atoms: C_37  and  C_49
   14  A    between atoms: O_45  and  C_49
   15  A    between atoms: O_45  and  C_50
   16  A    between atoms: C_52  and  C_55
                            x       y       z     vdW  Elec       q    Type
                         _______ _______ _______ _____ _____    ______ ____

>  <TORSDO>
F 16

$$$$
=
 OpenBabel11062417363D

 57 64  0  0  1  0  0  0  0  0999 V2000
  187.6920  173.6340  136.2980 C   0  0  0  0  0  2  0  0  0  0  0  0
  188.9100  175.1220  134.5970 C   0  0  0  0  0  2  0  0  0  0  0  0
  184.7320  171.4910  135.7340 N   0  0  0  0  0  0  0  0  0  0  0  0
  185.0430  174.7880  137.5610 C   0  0  0  0  0  2  0  0  0  0  0  0
  187.0130  176.8220  137.1650 N   0  0  0  0  0  2  0  0  0  0  0  0
  184.3930  178.3880  139.3840 C   0  0  1  0  0  3  0  0  0  0  0  0
  184.4550  173.8080  136.5520 C   0  0  2  0  0  3  0  0  0  0  0  0
  185.6840  177.2390  137.6050 C   0  0  2  0  0  3  0  0  0  0  0  0
  188.9440  173.8560  135.4650 C   0  0  1  0  0  3  0  0  0  0  0  0
  186.4580  176.8830  134.8980 O   0  0  0  0  0  0  0  0  0  0  0  0
  188.7620  176.4650  135.3340 C   0  0  1  0  0  3  0  0  0  0  0  0
  185.6690  177.5920  139.0810 C   0  0  0  0  0  2  0  0  0  0  0  0
  182.1820  176.1950  137.1940 O   0  0  0  0  0  1  0  0  0  0  0  0
  183.5810  171.1130  136.1710 C   0  0  0  0  0  3  0  0  0  0  0  0
  186.5980  173.0140  135.4440 C   0  0  0  0  0  2  0  0  0  0  0  0
  183.0400  173.3700  136.9960 C   0  0  0  0  0  2  0  0  0  0  0  0
  185.4210  172.6240  136.3230 C   0  0  2  0  0  3  0  0  0  0  0  0
  182.9240  171.8720  137.2820 C   0  0  0  0  0  2  0  0  0  0  0  0
  187.3480  176.7270  135.7760 C   0  0  0  0  0  0  0  0  0  0  0  0
  183.1300  177.8730  138.6650 C   0  0  2  0  0  3  0  0  0  0  0  0
  183.2730  176.4840  138.0120 C   0  0  2  0  0  3  0  0  0  0  0  0
  184.5890  176.2130  137.2650 C   0  0  2  0  0  3  0  0  0  0  0  0
  190.2030  173.9080  137.5110 O   0  0  0  0  0  0  0  0  0  0  0  0
  191.4030  173.3230  135.5990 N   0  0  0  0  0  2  0  0  0  0  0  0
  190.2050  173.7170  136.2620 C   0  0  0  0  0  0  0  0  0  0  0  0
  192.6610  173.1670  136.3120 C   0  0  0  0  0  2  0  0  0  0  0  0
  193.7850  173.8000  135.5160 C   0  0  0  0  0  2  0  0  0  0  0  0
  194.6890  174.4320  136.3830 O   0  0  0  0  0  0  0  0  0  0  0  0
  196.1300  175.7170  134.8360 C   0  0  0  0  0  2  0  0  0  0  0  0
  196.8390  175.6210  136.1830 C   0  0  2  0  0  3  0  0  0  0  0  0
  196.7740  173.2790  135.4730 C   0  0  0  0  0  2  0  0  0  0  0  0
  198.2060  175.1460  135.9990 N   0  0  0  0  0  2  0  0  0  0  0  0
  198.1500  173.6860  135.9670 C   0  0  0  0  0  2  0  0  0  0  0  0
  195.9320  174.5070  135.7210 C   0  0  1  0  0  0  0  0  0  0  0  0
  182.3410  179.1360  137.5920 S   0  0  0  0  0  0  0  0  0  0  0  0
  181.4600  180.0180  138.9140 C   0  0  0  0  0  1  0  0  0  0  0  0
  189.7070  176.6020  136.3660 O   0  0  0  0  0  0  0  0  0  0  0  0
  189.3920  177.7980  137.0370 C   0  0  0  0  0  2  0  0  0  0  0  0
  189.2000  178.1430  139.5700 C   0  0  0  0  0  3  0  0  0  0  0  0
  189.9050  177.7820  138.4440 C   0  0  0  0  0  0  0  0  0  0  0  0
  191.0830  177.2530  140.1360 N   0  0  0  0  0  0  0  0  0  0  0  0
  189.9790  177.8060  140.6160 N   0  0  0  0  0  2  0  0  0  0  0  0
  191.0660  177.2170  138.8130 N   0  0  0  0  0  0  0  0  0  0  0  0
  184.1620  178.5630  140.8800 C   0  0  0  0  0  2  0  0  0  0  0  0
  185.2990  177.9740  141.7100 C   0  0  0  0  0  2  0  0  0  0  0  0
  185.0400  178.2590  143.1780 C   0  0  0  0  0  2  0  0  0  0  0  0
  186.0170  177.4680  144.0280 C   0  0  0  0  0  2  0  0  0  0  0  0
  187.0330  177.3260  146.3170 C   0  0  0  0  0  2  0  0  0  0  0  0
  187.9540  178.3490  145.6680 C   0  0  2  0  0  3  0  0  0  0  0  0
  186.4760  178.2580  145.2570 C   0  0  1  0  0  0  0  0  0  0  0  0
  188.3530  176.3410  143.5840 C   0  0  0  0  0  1  0  0  0  0  0  0
  189.1720  177.5220  144.6320 S   0  0  0  0  0  0  0  0  0  0  0  0
  189.9770  178.4730  143.7910 O   0  0  0  0  0  0  0  0  0  0  0  0
  190.1190  176.7730  145.5310 O   0  0  0  0  0  0  0  0  0  0  0  0
  184.2290  178.6380  146.3780 C   0  0  0  0  0  2  0  0  0  0  0  0
  185.3220  178.9920  147.3580 C   0  0  0  0  0  2  0  0  0  0  0  0
  185.5180  179.2830  145.8780 C   0  0  0  0  0  3  0  0  0  0  0  0
  2 11  1  0  0  0  0
  2  9  1  0  0  0  0
  3 14  2  0  0  0  0
  3 17  1  0  0  0  0
  5  8  1  0  0  0  0
  6 44  1  1  0  0  0
  7 16  1  1  0  0  0
  7  4  1  0  0  0  0
  8 12  1  1  0  0  0
  9 25  1  1  0  0  0
  9  1  1  0  0  0  0
 10 19  2  0  0  0  0
 11 19  1  0  0  0  0
 11 37  1  1  0  0  0
 12  6  1  0  0  0  0
 14 18  1  0  0  0  0
 15  1  1  0  0  0  0
 16 18  1  0  0  0  0
 17 15  1  6  0  0  0
 17  7  1  0  0  0  0
 19  5  1  0  0  0  0
 20 35  1  6  0  0  0
 20  6  1  0  0  0  0
 21 13  1  6  0  0  0
 21 20  1  0  0  0  0
 22  4  1  1  0  0  0
 22  8  1  0  0  0  0
 22 21  1  0  0  0  0
 24 25  1  0  0  0  0
 24 26  1  0  0  0  0
 25 23  2  0  0  0  0
 27 26  1  0  0  0  0
 27 28  1  0  0  0  0
 29 34  1  0  0  0  0
 30 29  1  6  0  0  0
 31 34  1  0  0  0  0
 31 33  1  0  0  0  0
 32 30  1  0  0  0  0
 33 32  1  0  0  0  0
 34 30  1  0  0  0  0
 34 28  1  1  0  0  0
 35 36  1  0  0  0  0
 37 38  1  0  0  0  0
 38 40  1  0  0  0  0
 39 42  1  0  0  0  0
 40 43  1  0  0  0  0
 40 39  2  0  0  0  0
 41 42  1  0  0  0  0
 43 41  2  0  0  0  0
 44 45  1  0  0  0  0
 45 46  1  0  0  0  0
 46 47  1  0  0  0  0
 49 52  1  6  0  0  0
 49 48  1  0  0  0  0
 50 47  1  6  0  0  0
 50 49  1  0  0  0  0
 50 57  1  0  0  0  0
 50 48  1  0  0  0  0
 51 52  1  0  0  0  0
 52 54  2  0  0  0  0
 53 52  2  0  0  0  0
 55 56  1  0  0  0  0
 57 55  1  0  0  0  0
 57 56  1  0  0  0  0
M  END
>  <MODEL>
5

>  <REMARK>
 VINA RESULT:      -4.9      2.357      3.505
  Name = 
  16 active torsions:
  status: ('A' for Active; 'I' for Inactive)
    1  A    between atoms: C_4  and  C_7
    2  A    between atoms: C_4  and  C_54
    3  A    between atoms: S_6  and  C_47
    4  A    between atoms: C_7  and  C_18
    5  A    between atoms: S_8  and  C_31
    6  A    between atoms: C_16  and  C_51
    7  A    between atoms: C_17  and  C_52
    8  A    between atoms: C_17  and  C_54
    9  A    between atoms: N_22  and  C_37
   10  A    between atoms: C_23  and  C_32
   11  A    between atoms: O_25  and  C_27
   12  A    between atoms: O_25  and  C_51
   13  A    between atoms: C_37  and  C_49
   14  A    between atoms: O_45  and  C_49
   15  A    between atoms: O_45  and  C_50
   16  A    between atoms: C_52  and  C_55
                            x       y       z     vdW  Elec       q    Type
                         _______ _______ _______ _____ _____    ______ ____

>  <TORSDO>
F 16

$$$$
