=
 OpenBabel11062413283D

 30 33  0  0  1  0  0  0  0  0999 V2000
  185.3430  177.9300  142.8910 C   0  0  2  0  0  3  0  0  0  0  0  0
  185.2670  177.9650  144.4530 C   0  0  2  0  0  0  0  0  0  0  0  0
  185.9920  179.0200  145.3070 C   0  0  1  0  0  3  0  0  0  0  0  0
  186.5130  177.5130  143.6800 C   0  0  0  0  0  2  0  0  0  0  0  0
  184.6910  179.3740  144.7100 C   0  0  0  0  0  2  0  0  0  0  0  0
  185.8090  178.6940  146.7840 C   0  0  2  0  0  3  0  0  0  0  0  0
  185.8500  179.8610  147.5520 O   0  0  0  0  0  1  0  0  0  0  0  0
  186.8160  177.7390  147.2470 N   0  0  0  0  0  2  0  0  0  0  0  0
  187.7670  178.4240  148.0220 N   0  0  0  0  0  2  0  0  0  0  0  0
  188.9970  177.7900  147.8070 N   0  0  0  0  0  2  0  0  0  0  0  0
  189.0010  177.3580  146.4740 N   0  0  0  0  0  2  0  0  0  0  0  0
  191.5370  176.6490  146.2610 S   0  0  0  0  0  0  0  0  0  0  0  0
  190.1910  177.3840  145.6860 C   0  0  0  0  0  0  0  0  0  0  0  0
  190.8650  179.2240  144.3150 O   0  0  0  0  0  1  0  0  0  0  0  0
  190.1800  178.0070  144.3200 C   0  0  1  0  0  3  0  0  0  0  0  0
  190.7370  177.0810  143.2830 C   0  0  0  0  0  0  0  0  0  0  0  0
  189.9640  175.8720  142.8840 C   0  0  0  0  0  1  0  0  0  0  0  0
  191.8190  177.3070  142.7630 O   0  0  0  0  0  0  0  0  0  0  0  0
  185.7360  179.2090  142.1460 C   0  0  0  0  0  2  0  0  0  0  0  0
  188.4060  178.8140  141.2710 O   0  0  0  0  0  0  0  0  0  0  0  0
  187.8030  178.3300  139.0690 N   0  0  0  0  0  2  0  0  0  0  0  0
  186.1240  178.8820  140.7830 N   0  0  0  0  0  2  0  0  0  0  0  0
  187.4880  178.6810  140.4150 C   0  0  0  0  0  0  0  0  0  0  0  0
  189.1740  178.1230  138.6230 C   0  0  0  0  0  2  0  0  0  0  0  0
  189.4450  176.6470  138.3470 C   0  0  2  0  0  3  0  0  0  0  0  0
  191.9530  176.5820  138.0000 C   0  0  0  0  0  2  0  0  0  0  0  0
  191.2800  175.2360  137.8360 C   0  0  2  0  0  3  0  0  0  0  0  0
  190.2390  175.3040  136.7350 C   0  0  0  0  0  2  0  0  0  0  0  0
  190.7870  176.1830  138.8910 C   0  0  2  0  0  3  0  0  0  0  0  0
  189.3370  176.3540  136.9800 O   0  0  0  0  0  0  0  0  0  0  0  0
  1 19  1  6  0  0  0
  1  4  1  0  0  0  0
  1  2  1  0  0  0  0
  2  4  1  1  0  0  0
  2  5  1  0  0  0  0
  2  3  1  0  0  0  0
  3  6  1  1  0  0  0
  5  3  1  0  0  0  0
  6  8  1  0  0  0  0
  6  7  1  1  0  0  0
  8  9  1  0  0  0  0
 10  9  1  0  0  0  0
 11 10  1  0  0  0  0
 13 12  2  0  0  0  0
 13 11  1  0  0  0  0
 15 14  1  1  0  0  0
 15 13  1  0  0  0  0
 16 15  1  0  0  0  0
 17 16  1  0  0  0  0
 18 16  2  0  0  0  0
 21 23  1  0  0  0  0
 22 19  1  0  0  0  0
 23 22  1  0  0  0  0
 23 20  2  0  0  0  0
 24 21  1  0  0  0  0
 25 24  1  6  0  0  0
 25 29  1  0  0  0  0
 27 28  1  6  0  0  0
 27 26  1  0  0  0  0
 27 29  1  0  0  0  0
 28 30  1  0  0  0  0
 29 26  1  6  0  0  0
 30 25  1  0  0  0  0
M  END
>  <MODEL>
1

>  <REMARK>
 VINA RESULT:      -7.2      0.000      0.000
  Name = 
  12 active torsions:
  status: ('A' for Active; 'I' for Inactive)
    1  A    between atoms: C_1  and  C_24
    2  A    between atoms: C_2  and  C_20
    3  A    between atoms: N_4  and  N_10
    4  A    between atoms: N_4  and  N_16
    5  A    between atoms: C_5  and  C_15
    6  A    between atoms: C_5  and  N_16
    7  A    between atoms: C_8  and  C_13
    8  A    between atoms: N_10  and  N_29
    9  A    between atoms: N_12  and  C_20
   10  A    between atoms: C_13  and  N_27
   11  A    between atoms: C_19  and  C_24
   12  A    between atoms: C_19  and  N_29
                            x       y       z     vdW  Elec       q    Type
                         _______ _______ _______ _____ _____    ______ ____

>  <TORSDO>
F 12

$$$$
=
 OpenBabel11062413283D

 30 33  0  0  1  0  0  0  0  0999 V2000
  191.2330  178.3180  143.8530 C   0  0  2  0  0  3  0  0  0  0  0  0
  190.1320  178.4140  144.9610 C   0  0  2  0  0  0  0  0  0  0  0  0
  189.0970  177.3050  145.2160 C   0  0  1  0  0  3  0  0  0  0  0  0
  189.8350  178.5580  143.4620 C   0  0  0  0  0  2  0  0  0  0  0  0
  190.4360  177.1660  145.8170 C   0  0  0  0  0  2  0  0  0  0  0  0
  188.1020  177.7690  146.2730 C   0  0  2  0  0  3  0  0  0  0  0  0
  188.1730  176.9510  147.4040 O   0  0  0  0  0  1  0  0  0  0  0  0
  186.7390  177.7990  145.7450 N   0  0  0  0  0  2  0  0  0  0  0  0
  186.0650  178.9040  146.2920 N   0  0  0  0  0  2  0  0  0  0  0  0
  184.9000  179.0820  145.5340 N   0  0  0  0  0  2  0  0  0  0  0  0
  185.1360  178.4920  144.2860 N   0  0  0  0  0  2  0  0  0  0  0  0
  182.6720  179.1410  143.5860 S   0  0  0  0  0  0  0  0  0  0  0  0
  184.1400  178.4900  143.2630 C   0  0  0  0  0  0  0  0  0  0  0  0
  183.3060  177.7840  141.1360 O   0  0  0  0  0  1  0  0  0  0  0  0
  184.4650  177.9700  141.8930 C   0  0  1  0  0  3  0  0  0  0  0  0
  185.4300  178.8620  141.1740 C   0  0  0  0  0  0  0  0  0  0  0  0
  186.8930  178.6940  141.3960 C   0  0  0  0  0  1  0  0  0  0  0  0
  185.0280  179.7260  140.4100 O   0  0  0  0  0  0  0  0  0  0  0  0
  191.6180  176.9360  143.3190 C   0  0  0  0  0  2  0  0  0  0  0  0
  192.1820  177.4410  140.5850 O   0  0  0  0  0  0  0  0  0  0  0  0
  190.2190  176.4440  139.8100 N   0  0  0  0  0  2  0  0  0  0  0  0
  190.7470  176.5790  142.2110 N   0  0  0  0  0  2  0  0  0  0  0  0
  191.1010  176.8490  140.8550 C   0  0  0  0  0  0  0  0  0  0  0  0
  190.5130  176.7010  138.4060 C   0  0  0  0  0  2  0  0  0  0  0  0
  189.2290  176.8210  137.5900 C   0  0  2  0  0  3  0  0  0  0  0  0
  188.9510  179.3250  137.3280 C   0  0  0  0  0  2  0  0  0  0  0  0
  187.8380  178.5180  136.6940 C   0  0  2  0  0  3  0  0  0  0  0  0
  187.1540  177.6600  137.7410 C   0  0  0  0  0  2  0  0  0  0  0  0
  189.2470  178.0040  136.6350 C   0  0  2  0  0  3  0  0  0  0  0  0
  188.0990  176.8720  138.4200 O   0  0  0  0  0  0  0  0  0  0  0  0
  1 19  1  6  0  0  0
  1  2  1  0  0  0  0
  2  4  1  1  0  0  0
  2  3  1  0  0  0  0
  2  5  1  0  0  0  0
  3  5  1  0  0  0  0
  3  6  1  1  0  0  0
  4  1  1  0  0  0  0
  6  7  1  1  0  0  0
  8  6  1  0  0  0  0
  8  9  1  0  0  0  0
 10  9  1  0  0  0  0
 11 10  1  0  0  0  0
 13 12  2  0  0  0  0
 13 11  1  0  0  0  0
 15 14  1  6  0  0  0
 15 13  1  0  0  0  0
 16 17  1  0  0  0  0
 16 15  1  0  0  0  0
 18 16  2  0  0  0  0
 20 23  2  0  0  0  0
 21 23  1  0  0  0  0
 22 19  1  0  0  0  0
 23 22  1  0  0  0  0
 24 21  1  0  0  0  0
 25 24  1  1  0  0  0
 25 30  1  0  0  0  0
 27 26  1  1  0  0  0
 27 28  1  0  0  0  0
 28 30  1  0  0  0  0
 29 27  1  0  0  0  0
 29 26  1  1  0  0  0
 29 25  1  0  0  0  0
M  END
>  <MODEL>
2

>  <REMARK>
 VINA RESULT:      -7.1      2.898      4.975
  Name = 
  12 active torsions:
  status: ('A' for Active; 'I' for Inactive)
    1  A    between atoms: C_1  and  C_24
    2  A    between atoms: C_2  and  C_20
    3  A    between atoms: N_4  and  N_10
    4  A    between atoms: N_4  and  N_16
    5  A    between atoms: C_5  and  C_15
    6  A    between atoms: C_5  and  N_16
    7  A    between atoms: C_8  and  C_13
    8  A    between atoms: N_10  and  N_29
    9  A    between atoms: N_12  and  C_20
   10  A    between atoms: C_13  and  N_27
   11  A    between atoms: C_19  and  C_24
   12  A    between atoms: C_19  and  N_29
                            x       y       z     vdW  Elec       q    Type
                         _______ _______ _______ _____ _____    ______ ____

>  <TORSDO>
F 12

$$$$
=
 OpenBabel11062413283D

 30 33  0  0  1  0  0  0  0  0999 V2000
  190.5870  177.6820  139.1590 C   0  0  2  0  0  3  0  0  0  0  0  0
  189.2750  178.1060  138.4190 C   0  0  2  0  0  0  0  0  0  0  0  0
  187.9910  177.2580  138.4300 C   0  0  1  0  0  3  0  0  0  0  0  0
  190.1960  176.9830  137.9240 C   0  0  0  0  0  2  0  0  0  0  0  0
  188.2570  178.1430  139.5790 C   0  0  0  0  0  2  0  0  0  0  0  0
  186.9510  177.8950  137.5170 C   0  0  2  0  0  3  0  0  0  0  0  0
  187.4290  179.1010  136.9980 O   0  0  0  0  0  1  0  0  0  0  0  0
  185.6850  178.1040  138.2190 N   0  0  0  0  0  2  0  0  0  0  0  0
  185.3790  179.4760  138.2030 N   0  0  0  0  0  2  0  0  0  0  0  0
  184.3410  179.6700  139.1240 N   0  0  0  0  0  2  0  0  0  0  0  0
  184.8680  179.3890  140.3910 N   0  0  0  0  0  2  0  0  0  0  0  0
  182.4840  178.5190  141.1260 S   0  0  0  0  0  0  0  0  0  0  0  0
  184.0800  178.7630  141.4030 C   0  0  0  0  0  0  0  0  0  0  0  0
  186.0950  178.0620  142.4840 O   0  0  0  0  0  1  0  0  0  0  0  0
  184.7250  178.2680  142.6650 C   0  0  1  0  0  3  0  0  0  0  0  0
  184.4760  179.1930  143.8160 C   0  0  0  0  0  0  0  0  0  0  0  0
  183.5620  178.7720  144.9140 C   0  0  0  0  0  1  0  0  0  0  0  0
  185.0140  180.2890  143.8630 O   0  0  0  0  0  0  0  0  0  0  0  0
  190.4910  176.6670  140.3000 C   0  0  0  0  0  2  0  0  0  0  0  0
  189.5870  175.8490  142.8620 O   0  0  0  0  0  0  0  0  0  0  0  0
  190.8060  177.4750  144.0100 N   0  0  0  0  0  2  0  0  0  0  0  0
  190.8610  177.3030  141.5540 N   0  0  0  0  0  2  0  0  0  0  0  0
  190.3800  176.8280  142.8120 C   0  0  0  0  0  0  0  0  0  0  0  0
  190.3440  177.0500  145.3250 C   0  0  0  0  0  2  0  0  0  0  0  0
  189.2100  177.9420  145.8230 C   0  0  2  0  0  3  0  0  0  0  0  0
  188.4380  176.7640  147.9280 C   0  0  0  0  0  2  0  0  0  0  0  0
  187.6430  178.0100  147.5990 C   0  0  2  0  0  3  0  0  0  0  0  0
  187.0050  177.8750  146.2290 C   0  0  0  0  0  2  0  0  0  0  0  0
  189.1210  177.9900  147.3390 C   0  0  2  0  0  3  0  0  0  0  0  0
  187.9790  177.5640  145.2660 O   0  0  0  0  0  0  0  0  0  0  0  0
  1 19  1  1  0  0  0
  2  4  1  6  0  0  0
  2  3  1  0  0  0  0
  2  1  1  0  0  0  0
  2  5  1  0  0  0  0
  3  6  1  6  0  0  0
  3  5  1  0  0  0  0
  4  1  1  0  0  0  0
  6  7  1  1  0  0  0
  6  8  1  0  0  0  0
  9  8  1  0  0  0  0
  9 10  1  0  0  0  0
 10 11  1  0  0  0  0
 11 13  1  0  0  0  0
 12 13  2  0  0  0  0
 13 15  1  0  0  0  0
 15 14  1  6  0  0  0
 15 16  1  0  0  0  0
 16 18  2  0  0  0  0
 16 17  1  0  0  0  0
 19 22  1  0  0  0  0
 21 24  1  0  0  0  0
 22 23  1  0  0  0  0
 23 20  2  0  0  0  0
 23 21  1  0  0  0  0
 25 24  1  1  0  0  0
 25 29  1  0  0  0  0
 27 28  1  6  0  0  0
 27 26  1  0  0  0  0
 29 27  1  0  0  0  0
 29 26  1  1  0  0  0
 30 25  1  0  0  0  0
 30 28  1  0  0  0  0
M  END
>  <MODEL>
3

>  <REMARK>
 VINA RESULT:      -7.1      3.095      7.911
  Name = 
  12 active torsions:
  status: ('A' for Active; 'I' for Inactive)
    1  A    between atoms: C_1  and  C_24
    2  A    between atoms: C_2  and  C_20
    3  A    between atoms: N_4  and  N_10
    4  A    between atoms: N_4  and  N_16
    5  A    between atoms: C_5  and  C_15
    6  A    between atoms: C_5  and  N_16
    7  A    between atoms: C_8  and  C_13
    8  A    between atoms: N_10  and  N_29
    9  A    between atoms: N_12  and  C_20
   10  A    between atoms: C_13  and  N_27
   11  A    between atoms: C_19  and  C_24
   12  A    between atoms: C_19  and  N_29
                            x       y       z     vdW  Elec       q    Type
                         _______ _______ _______ _____ _____    ______ ____

>  <TORSDO>
F 12

$$$$
=
 OpenBabel11062413283D

 30 33  0  0  1  0  0  0  0  0999 V2000
  187.7250  178.5200  147.6400 C   0  0  2  0  0  3  0  0  0  0  0  0
  189.1980  178.0470  147.4050 C   0  0  2  0  0  0  0  0  0  0  0  0
  189.6040  176.5640  147.3380 C   0  0  1  0  0  3  0  0  0  0  0  0
  188.4870  177.9490  148.7610 C   0  0  0  0  0  2  0  0  0  0  0  0
  189.0550  177.1970  146.1250 C   0  0  0  0  0  2  0  0  0  0  0  0
  191.1200  176.4560  147.2230 C   0  0  2  0  0  3  0  0  0  0  0  0
  191.7420  177.2620  148.1800 O   0  0  0  0  0  1  0  0  0  0  0  0
  191.5770  176.8070  145.8790 N   0  0  0  0  0  2  0  0  0  0  0  0
  192.0290  175.6420  145.2360 N   0  0  0  0  0  2  0  0  0  0  0  0
  191.3970  175.6000  143.9860 N   0  0  0  0  0  2  0  0  0  0  0  0
  191.8580  176.7090  143.2630 N   0  0  0  0  0  2  0  0  0  0  0  0
  190.9650  179.1760  143.5720 S   0  0  0  0  0  0  0  0  0  0  0  0
  190.9640  177.7260  142.8110 C   0  0  0  0  0  0  0  0  0  0  0  0
  190.4720  176.3230  140.9380 O   0  0  0  0  0  1  0  0  0  0  0  0
  190.0990  177.4910  141.6070 C   0  0  1  0  0  3  0  0  0  0  0  0
  188.6450  177.4530  141.9670 C   0  0  0  0  0  0  0  0  0  0  0  0
  187.7310  178.5080  141.4490 C   0  0  0  0  0  1  0  0  0  0  0  0
  188.2030  176.5660  142.6820 O   0  0  0  0  0  0  0  0  0  0  0  0
  186.5830  177.5480  147.3310 C   0  0  0  0  0  2  0  0  0  0  0  0
  186.1220  178.3870  144.6600 O   0  0  0  0  0  0  0  0  0  0  0  0
  184.0560  179.3650  145.1330 N   0  0  0  0  0  2  0  0  0  0  0  0
  185.4160  178.2910  146.8830 N   0  0  0  0  0  2  0  0  0  0  0  0
  185.2390  178.6670  145.5170 C   0  0  0  0  0  0  0  0  0  0  0  0
  183.8200  179.7910  143.7600 C   0  0  0  0  0  2  0  0  0  0  0  0
  183.1560  178.6830  142.9480 C   0  0  2  0  0  3  0  0  0  0  0  0
  184.1400  179.0010  140.6360 C   0  0  0  0  0  2  0  0  0  0  0  0
  183.1330  177.8730  140.7210 C   0  0  2  0  0  3  0  0  0  0  0  0
  181.7920  178.4040  141.1890 C   0  0  0  0  0  2  0  0  0  0  0  0
  184.0670  178.1160  141.8710 C   0  0  2  0  0  3  0  0  0  0  0  0
  181.9410  179.1120  142.3940 O   0  0  0  0  0  0  0  0  0  0  0  0
  1 19  1  6  0  0  0
  1  4  1  0  0  0  0
  2  5  1  6  0  0  0
  2  1  1  0  0  0  0
  2  4  1  0  0  0  0
  3  6  1  6  0  0  0
  3  2  1  0  0  0  0
  5  3  1  0  0  0  0
  6  7  1  1  0  0  0
  8  6  1  0  0  0  0
  9  8  1  0  0  0  0
 10  9  1  0  0  0  0
 11 10  1  0  0  0  0
 13 11  1  0  0  0  0
 13 12  2  0  0  0  0
 15 14  1  1  0  0  0
 15 16  1  0  0  0  0
 15 13  1  0  0  0  0
 16 18  2  0  0  0  0
 17 16  1  0  0  0  0
 20 23  2  0  0  0  0
 21 23  1  0  0  0  0
 22 19  1  0  0  0  0
 23 22  1  0  0  0  0
 24 21  1  0  0  0  0
 25 24  1  6  0  0  0
 27 26  1  6  0  0  0
 27 28  1  0  0  0  0
 27 29  1  0  0  0  0
 28 30  1  0  0  0  0
 29 26  1  6  0  0  0
 29 25  1  0  0  0  0
 30 25  1  0  0  0  0
M  END
>  <MODEL>
4

>  <REMARK>
 VINA RESULT:      -7.0      3.093      6.031
  Name = 
  12 active torsions:
  status: ('A' for Active; 'I' for Inactive)
    1  A    between atoms: C_1  and  C_24
    2  A    between atoms: C_2  and  C_20
    3  A    between atoms: N_4  and  N_10
    4  A    between atoms: N_4  and  N_16
    5  A    between atoms: C_5  and  C_15
    6  A    between atoms: C_5  and  N_16
    7  A    between atoms: C_8  and  C_13
    8  A    between atoms: N_10  and  N_29
    9  A    between atoms: N_12  and  C_20
   10  A    between atoms: C_13  and  N_27
   11  A    between atoms: C_19  and  C_24
   12  A    between atoms: C_19  and  N_29
                            x       y       z     vdW  Elec       q    Type
                         _______ _______ _______ _____ _____    ______ ____

>  <TORSDO>
F 12

$$$$
=
 OpenBabel11062413283D

 30 33  0  0  1  0  0  0  0  0999 V2000
  184.0550  179.5850  143.7030 C   0  0  2  0  0  3  0  0  0  0  0  0
  184.8460  179.4180  145.0430 C   0  0  2  0  0  0  0  0  0  0  0  0
  185.2970  178.0530  145.5890 C   0  0  1  0  0  3  0  0  0  0  0  0
  183.3680  179.0380  144.8840 C   0  0  0  0  0  2  0  0  0  0  0  0
  186.1300  178.7080  144.5650 C   0  0  0  0  0  2  0  0  0  0  0  0
  185.9290  178.2370  146.9640 C   0  0  2  0  0  3  0  0  0  0  0  0
  185.6840  179.5250  147.4460 O   0  0  0  0  0  1  0  0  0  0  0  0
  187.3660  177.9660  146.9280 N   0  0  0  0  0  2  0  0  0  0  0  0
  187.8990  178.1810  148.2110 N   0  0  0  0  0  2  0  0  0  0  0  0
  189.2770  177.9470  148.1210 N   0  0  0  0  0  2  0  0  0  0  0  0
  189.4530  176.9320  147.1710 N   0  0  0  0  0  2  0  0  0  0  0  0
  191.9190  176.0760  146.7630 S   0  0  0  0  0  0  0  0  0  0  0  0
  190.5870  176.9110  146.3050 C   0  0  0  0  0  0  0  0  0  0  0  0
  191.7280  178.2210  144.6610 O   0  0  0  0  0  1  0  0  0  0  0  0
  190.5240  177.5790  144.9620 C   0  0  1  0  0  3  0  0  0  0  0  0
  190.1530  176.6140  143.8780 C   0  0  0  0  0  0  0  0  0  0  0  0
  188.7160  176.3410  143.5970 C   0  0  0  0  0  1  0  0  0  0  0  0
  191.0160  176.0500  143.2240 O   0  0  0  0  0  0  0  0  0  0  0  0
  184.1250  178.4620  142.6650 C   0  0  0  0  0  2  0  0  0  0  0  0
  183.8640  177.5880  139.9790 O   0  0  0  0  0  0  0  0  0  0  0  0
  185.6720  178.8450  139.2040 N   0  0  0  0  0  2  0  0  0  0  0  0
  185.0000  178.8590  141.5730 N   0  0  0  0  0  2  0  0  0  0  0  0
  184.8010  178.3930  140.2390 C   0  0  0  0  0  0  0  0  0  0  0  0
  185.5340  178.3980  137.8250 C   0  0  0  0  0  2  0  0  0  0  0  0
  186.8990  178.1940  137.1740 C   0  0  2  0  0  3  0  0  0  0  0  0
  188.3820  177.5840  139.1340 C   0  0  0  0  0  2  0  0  0  0  0  0
  189.1160  177.6530  137.8120 C   0  0  2  0  0  3  0  0  0  0  0  0
  188.9770  179.0380  137.2100 C   0  0  0  0  0  2  0  0  0  0  0  0
  187.7180  177.1080  137.8510 C   0  0  2  0  0  3  0  0  0  0  0  0
  187.6210  179.3950  137.1150 O   0  0  0  0  0  0  0  0  0  0  0  0
  1 19  1  6  0  0  0
  1  4  1  0  0  0  0
  1  2  1  0  0  0  0
  2  5  1  1  0  0  0
  2  3  1  0  0  0  0
  3  6  1  1  0  0  0
  4  2  1  0  0  0  0
  5  3  1  0  0  0  0
  6  7  1  6  0  0  0
  8  6  1  0  0  0  0
  8  9  1  0  0  0  0
 10  9  1  0  0  0  0
 11 10  1  0  0  0  0
 13 12  2  0  0  0  0
 13 11  1  0  0  0  0
 15 14  1  6  0  0  0
 15 13  1  0  0  0  0
 16 15  1  0  0  0  0
 17 16  1  0  0  0  0
 18 16  2  0  0  0  0
 20 23  2  0  0  0  0
 21 23  1  0  0  0  0
 22 19  1  0  0  0  0
 23 22  1  0  0  0  0
 24 21  1  0  0  0  0
 25 24  1  1  0  0  0
 25 29  1  0  0  0  0
 27 28  1  6  0  0  0
 27 29  1  0  0  0  0
 27 26  1  0  0  0  0
 29 26  1  1  0  0  0
 30 25  1  0  0  0  0
 30 28  1  0  0  0  0
M  END
>  <MODEL>
5

>  <REMARK>
 VINA RESULT:      -6.9      1.803      2.363
  Name = 
  12 active torsions:
  status: ('A' for Active; 'I' for Inactive)
    1  A    between atoms: C_1  and  C_24
    2  A    between atoms: C_2  and  C_20
    3  A    between atoms: N_4  and  N_10
    4  A    between atoms: N_4  and  N_16
    5  A    between atoms: C_5  and  C_15
    6  A    between atoms: C_5  and  N_16
    7  A    between atoms: C_8  and  C_13
    8  A    between atoms: N_10  and  N_29
    9  A    between atoms: N_12  and  C_20
   10  A    between atoms: C_13  and  N_27
   11  A    between atoms: C_19  and  C_24
   12  A    between atoms: C_19  and  N_29
                            x       y       z     vdW  Elec       q    Type
                         _______ _______ _______ _____ _____    ______ ____

>  <TORSDO>
F 12

$$$$
=
 OpenBabel11062413283D

 30 33  0  0  1  0  0  0  0  0999 V2000
  188.0720  178.4960  136.4440 C   0  0  2  0  0  3  0  0  0  0  0  0
  189.3660  177.7710  136.9460 C   0  0  2  0  0  0  0  0  0  0  0  0
  189.4230  176.9640  138.2540 C   0  0  1  0  0  3  0  0  0  0  0  0
  188.8180  179.0550  137.5830 C   0  0  0  0  0  2  0  0  0  0  0  0
  188.8870  176.3070  137.0480 C   0  0  0  0  0  2  0  0  0  0  0  0
  190.8530  176.4970  138.5020 C   0  0  2  0  0  3  0  0  0  0  0  0
  190.9500  175.1130  138.3430 O   0  0  0  0  0  1  0  0  0  0  0  0
  191.3190  176.8950  139.8300 N   0  0  0  0  0  2  0  0  0  0  0  0
  190.4360  176.3780  140.7940 N   0  0  0  0  0  2  0  0  0  0  0  0
  190.3510  177.3310  141.8170 N   0  0  0  0  0  2  0  0  0  0  0  0
  190.9810  176.7770  142.9390 N   0  0  0  0  0  2  0  0  0  0  0  0
  191.3070  179.1160  144.1250 S   0  0  0  0  0  0  0  0  0  0  0  0
  191.0760  177.4940  144.1690 C   0  0  0  0  0  0  0  0  0  0  0  0
  191.9440  177.0440  146.3520 O   0  0  0  0  0  1  0  0  0  0  0  0
  190.8870  176.7810  145.4760 C   0  0  1  0  0  3  0  0  0  0  0  0
  189.5750  177.1250  146.1120 C   0  0  0  0  0  0  0  0  0  0  0  0
  189.5460  177.6240  147.5150 C   0  0  0  0  0  1  0  0  0  0  0  0
  188.5310  176.9990  145.4920 O   0  0  0  0  0  0  0  0  0  0  0  0
  186.7160  178.0310  136.9810 C   0  0  0  0  0  2  0  0  0  0  0  0
  184.5060  177.5040  138.6790 O   0  0  0  0  0  0  0  0  0  0  0  0
  184.9300  179.3130  140.0920 N   0  0  0  0  0  2  0  0  0  0  0  0
  186.3430  178.8360  138.1330 N   0  0  0  0  0  2  0  0  0  0  0  0
  185.2250  178.5030  138.9560 C   0  0  0  0  0  0  0  0  0  0  0  0
  183.7970  179.0380  140.9650 C   0  0  0  0  0  2  0  0  0  0  0  0
  184.2320  178.2510  142.1980 C   0  0  2  0  0  3  0  0  0  0  0  0
  184.1230  179.9790  144.0470 C   0  0  0  0  0  2  0  0  0  0  0  0
  184.6030  178.6200  144.5100 C   0  0  2  0  0  3  0  0  0  0  0  0
  185.8520  178.2210  143.7490 C   0  0  0  0  0  2  0  0  0  0  0  0
  183.5280  178.7060  143.4660 C   0  0  2  0  0  3  0  0  0  0  0  0
  185.6250  178.2910  142.3640 O   0  0  0  0  0  0  0  0  0  0  0  0
  1  2  1  0  0  0  0
  1 19  1  1  0  0  0
  1  4  1  0  0  0  0
  2  5  1  6  0  0  0
  2  4  1  0  0  0  0
  2  3  1  0  0  0  0
  3  6  1  6  0  0  0
  5  3  1  0  0  0  0
  6  7  1  1  0  0  0
  6  8  1  0  0  0  0
  8  9  1  0  0  0  0
  9 10  1  0  0  0  0
 10 11  1  0  0  0  0
 11 13  1  0  0  0  0
 12 13  2  0  0  0  0
 13 15  1  0  0  0  0
 15 16  1  0  0  0  0
 15 14  1  1  0  0  0
 16 17  1  0  0  0  0
 18 16  2  0  0  0  0
 19 22  1  0  0  0  0
 20 23  2  0  0  0  0
 21 24  1  0  0  0  0
 22 23  1  0  0  0  0
 23 21  1  0  0  0  0
 25 24  1  6  0  0  0
 25 30  1  0  0  0  0
 25 29  1  0  0  0  0
 26 27  1  0  0  0  0
 27 28  1  6  0  0  0
 29 26  1  6  0  0  0
 29 27  1  0  0  0  0
 30 28  1  0  0  0  0
M  END
>  <MODEL>
6

>  <REMARK>
 VINA RESULT:      -6.9      2.800      6.820
  Name = 
  12 active torsions:
  status: ('A' for Active; 'I' for Inactive)
    1  A    between atoms: C_1  and  C_24
    2  A    between atoms: C_2  and  C_20
    3  A    between atoms: N_4  and  N_10
    4  A    between atoms: N_4  and  N_16
    5  A    between atoms: C_5  and  C_15
    6  A    between atoms: C_5  and  N_16
    7  A    between atoms: C_8  and  C_13
    8  A    between atoms: N_10  and  N_29
    9  A    between atoms: N_12  and  C_20
   10  A    between atoms: C_13  and  N_27
   11  A    between atoms: C_19  and  C_24
   12  A    between atoms: C_19  and  N_29
                            x       y       z     vdW  Elec       q    Type
                         _______ _______ _______ _____ _____    ______ ____

>  <TORSDO>
F 12

$$$$
=
 OpenBabel11062413283D

 30 33  0  0  1  0  0  0  0  0999 V2000
  182.5020  178.0940  142.1790 C   0  0  2  0  0  3  0  0  0  0  0  0
  183.3300  178.0300  140.8520 C   0  0  2  0  0  0  0  0  0  0  0  0
  184.0160  179.2580  140.2290 C   0  0  1  0  0  3  0  0  0  0  0  0
  181.9360  178.6650  140.9470 C   0  0  0  0  0  2  0  0  0  0  0  0
  184.7090  178.5430  141.3160 C   0  0  0  0  0  2  0  0  0  0  0  0
  184.6270  178.8740  138.8870 C   0  0  2  0  0  3  0  0  0  0  0  0
  183.7860  177.9940  138.2000 O   0  0  0  0  0  1  0  0  0  0  0  0
  185.9560  178.2870  139.0560 N   0  0  0  0  0  2  0  0  0  0  0  0
  186.8430  178.9080  138.1600 N   0  0  0  0  0  2  0  0  0  0  0  0
  188.1280  178.4530  138.4820 N   0  0  0  0  0  2  0  0  0  0  0  0
  188.2440  178.5270  139.8760 N   0  0  0  0  0  2  0  0  0  0  0  0
  190.4330  177.0510  139.7560 S   0  0  0  0  0  0  0  0  0  0  0  0
  189.2000  177.7390  140.5860 C   0  0  0  0  0  0  0  0  0  0  0  0
  188.3770  176.4870  142.4500 O   0  0  0  0  0  1  0  0  0  0  0  0
  189.1150  177.6130  142.0800 C   0  0  1  0  0  3  0  0  0  0  0  0
  190.4730  177.5880  142.7130 C   0  0  0  0  0  0  0  0  0  0  0  0
  191.0620  178.8500  143.2410 C   0  0  0  0  0  1  0  0  0  0  0  0
  191.1010  176.5440  142.7980 O   0  0  0  0  0  0  0  0  0  0  0  0
  182.7490  179.2580  143.1420 C   0  0  0  0  0  2  0  0  0  0  0  0
  185.1920  179.7740  144.4890 O   0  0  0  0  0  0  0  0  0  0  0  0
  184.6140  178.5440  146.3860 N   0  0  0  0  0  2  0  0  0  0  0  0
  183.0990  178.7410  144.4550 N   0  0  0  0  0  2  0  0  0  0  0  0
  184.3420  179.0540  145.0830 C   0  0  0  0  0  0  0  0  0  0  0  0
  185.8670  178.8140  147.0780 C   0  0  0  0  0  2  0  0  0  0  0  0
  186.8820  177.7020  146.8290 C   0  0  2  0  0  3  0  0  0  0  0  0
  188.8470  178.3870  148.2710 C   0  0  0  0  0  2  0  0  0  0  0  0
  189.0840  177.1180  147.4820 C   0  0  2  0  0  3  0  0  0  0  0  0
  188.9420  177.3930  145.9970 C   0  0  0  0  0  2  0  0  0  0  0  0
  187.7230  177.3860  148.0540 C   0  0  2  0  0  3  0  0  0  0  0  0
  187.7020  177.9950  145.7280 O   0  0  0  0  0  0  0  0  0  0  0  0
  1 19  1  1  0  0  0
  2  4  1  6  0  0  0
  2  5  1  0  0  0  0
  2  1  1  0  0  0  0
  3  6  1  6  0  0  0
  3  2  1  0  0  0  0
  3  5  1  0  0  0  0
  4  1  1  0  0  0  0
  6  7  1  1  0  0  0
  6  8  1  0  0  0  0
  9 10  1  0  0  0  0
  9  8  1  0  0  0  0
 10 11  1  0  0  0  0
 11 13  1  0  0  0  0
 12 13  2  0  0  0  0
 13 15  1  0  0  0  0
 15 14  1  6  0  0  0
 15 16  1  0  0  0  0
 16 18  2  0  0  0  0
 16 17  1  0  0  0  0
 19 22  1  0  0  0  0
 20 23  2  0  0  0  0
 21 24  1  0  0  0  0
 22 23  1  0  0  0  0
 23 21  1  0  0  0  0
 25 24  1  1  0  0  0
 25 29  1  0  0  0  0
 27 28  1  6  0  0  0
 27 29  1  0  0  0  0
 27 26  1  0  0  0  0
 29 26  1  1  0  0  0
 30 28  1  0  0  0  0
 30 25  1  0  0  0  0
M  END
>  <MODEL>
7

>  <REMARK>
 VINA RESULT:      -6.8      3.016      6.983
  Name = 
  12 active torsions:
  status: ('A' for Active; 'I' for Inactive)
    1  A    between atoms: C_1  and  C_24
    2  A    between atoms: C_2  and  C_20
    3  A    between atoms: N_4  and  N_10
    4  A    between atoms: N_4  and  N_16
    5  A    between atoms: C_5  and  C_15
    6  A    between atoms: C_5  and  N_16
    7  A    between atoms: C_8  and  C_13
    8  A    between atoms: N_10  and  N_29
    9  A    between atoms: N_12  and  C_20
   10  A    between atoms: C_13  and  N_27
   11  A    between atoms: C_19  and  C_24
   12  A    between atoms: C_19  and  N_29
                            x       y       z     vdW  Elec       q    Type
                         _______ _______ _______ _____ _____    ______ ____

>  <TORSDO>
F 12

$$$$
=
 OpenBabel11062413283D

 30 33  0  0  1  0  0  0  0  0999 V2000
  185.0740  178.0790  142.6290 C   0  0  2  0  0  3  0  0  0  0  0  0
  185.0630  178.0120  144.1920 C   0  0  2  0  0  0  0  0  0  0  0  0
  185.8150  179.0170  145.0820 C   0  0  1  0  0  3  0  0  0  0  0  0
  186.2780  177.6220  143.3410 C   0  0  0  0  0  2  0  0  0  0  0  0
  184.4890  179.3970  144.5630 C   0  0  0  0  0  2  0  0  0  0  0  0
  185.6960  178.5940  146.5420 C   0  0  2  0  0  3  0  0  0  0  0  0
  185.7160  179.7130  147.3780 O   0  0  0  0  0  1  0  0  0  0  0  0
  186.7550  177.6570  146.9130 N   0  0  0  0  0  2  0  0  0  0  0  0
  187.9550  178.0660  146.3050 N   0  0  0  0  0  2  0  0  0  0  0  0
  188.8140  176.9590  146.3200 N   0  0  0  0  0  2  0  0  0  0  0  0
  190.1090  177.4560  146.5180 N   0  0  0  0  0  2  0  0  0  0  0  0
  192.1150  175.8120  147.0190 S   0  0  0  0  0  0  0  0  0  0  0  0
  191.2540  176.7720  146.0100 C   0  0  0  0  0  0  0  0  0  0  0  0
  191.0440  175.8270  143.8230 O   0  0  0  0  0  1  0  0  0  0  0  0
  191.6110  176.8740  144.5550 C   0  0  1  0  0  3  0  0  0  0  0  0
  191.2170  178.1980  143.9770 C   0  0  0  0  0  0  0  0  0  0  0  0
  189.9930  178.2980  143.1340 C   0  0  0  0  0  1  0  0  0  0  0  0
  191.8900  179.1950  144.1900 O   0  0  0  0  0  0  0  0  0  0  0  0
  185.4280  179.4060  141.9530 C   0  0  0  0  0  2  0  0  0  0  0  0
  187.2480  178.4390  140.0030 O   0  0  0  0  0  0  0  0  0  0  0  0
  185.7650  178.7160  138.2220 N   0  0  0  0  0  2  0  0  0  0  0  0
  185.1510  179.3190  140.5290 N   0  0  0  0  0  2  0  0  0  0  0  0
  186.1090  178.8060  139.6030 C   0  0  0  0  0  0  0  0  0  0  0  0
  186.7000  178.2150  137.2230 C   0  0  0  0  0  2  0  0  0  0  0  0
  186.5610  176.7050  137.0490 C   0  0  2  0  0  3  0  0  0  0  0  0
  188.8770  176.0010  136.3030 C   0  0  0  0  0  2  0  0  0  0  0  0
  187.8870  174.8580  136.3810 C   0  0  2  0  0  3  0  0  0  0  0  0
  186.7090  175.1250  135.4640 C   0  0  0  0  0  2  0  0  0  0  0  0
  187.8320  175.9520  137.4070 C   0  0  2  0  0  3  0  0  0  0  0  0
  186.1400  176.3770  135.7520 O   0  0  0  0  0  0  0  0  0  0  0  0
  1 19  1  1  0  0  0
  1  4  1  0  0  0  0
  1  2  1  0  0  0  0
  2  4  1  1  0  0  0
  2  5  1  0  0  0  0
  2  3  1  0  0  0  0
  3  6  1  1  0  0  0
  5  3  1  0  0  0  0
  6  8  1  0  0  0  0
  6  7  1  1  0  0  0
  9 10  1  0  0  0  0
  9  8  1  0  0  0  0
 10 11  1  0  0  0  0
 13 11  1  0  0  0  0
 13 12  2  0  0  0  0
 15 14  1  6  0  0  0
 15 13  1  0  0  0  0
 16 18  2  0  0  0  0
 16 15  1  0  0  0  0
 17 16  1  0  0  0  0
 21 23  1  0  0  0  0
 22 19  1  0  0  0  0
 23 20  2  0  0  0  0
 23 22  1  0  0  0  0
 24 21  1  0  0  0  0
 25 24  1  6  0  0  0
 25 29  1  0  0  0  0
 26 27  1  0  0  0  0
 27 28  1  6  0  0  0
 27 29  1  0  0  0  0
 28 30  1  0  0  0  0
 29 26  1  6  0  0  0
 30 25  1  0  0  0  0
M  END
>  <MODEL>
8

>  <REMARK>
 VINA RESULT:      -6.8      1.773      2.110
  Name = 
  12 active torsions:
  status: ('A' for Active; 'I' for Inactive)
    1  A    between atoms: C_1  and  C_24
    2  A    between atoms: C_2  and  C_20
    3  A    between atoms: N_4  and  N_10
    4  A    between atoms: N_4  and  N_16
    5  A    between atoms: C_5  and  C_15
    6  A    between atoms: C_5  and  N_16
    7  A    between atoms: C_8  and  C_13
    8  A    between atoms: N_10  and  N_29
    9  A    between atoms: N_12  and  C_20
   10  A    between atoms: C_13  and  N_27
   11  A    between atoms: C_19  and  C_24
   12  A    between atoms: C_19  and  N_29
                            x       y       z     vdW  Elec       q    Type
                         _______ _______ _______ _____ _____    ______ ____

>  <TORSDO>
F 12

$$$$
=
 OpenBabel11062413283D

 30 33  0  0  1  0  0  0  0  0999 V2000
  185.8400  177.5030  143.9010 C   0  0  2  0  0  3  0  0  0  0  0  0
  186.4360  177.2950  145.3330 C   0  0  2  0  0  0  0  0  0  0  0  0
  187.4580  178.2540  145.9660 C   0  0  1  0  0  3  0  0  0  0  0  0
  187.2330  177.0520  144.0450 C   0  0  0  0  0  2  0  0  0  0  0  0
  186.0280  178.6060  146.0380 C   0  0  0  0  0  2  0  0  0  0  0  0
  187.9200  177.6950  147.3070 C   0  0  2  0  0  3  0  0  0  0  0  0
  187.2760  178.3520  148.3590 O   0  0  0  0  0  1  0  0  0  0  0  0
  189.3720  177.7930  147.4520 N   0  0  0  0  0  2  0  0  0  0  0  0
  189.9700  176.7480  146.7260 N   0  0  0  0  0  2  0  0  0  0  0  0
  191.3010  177.1240  146.5010 N   0  0  0  0  0  2  0  0  0  0  0  0
  191.6800  176.5560  145.2780 N   0  0  0  0  0  2  0  0  0  0  0  0
  191.0150  178.7520  143.9670 S   0  0  0  0  0  0  0  0  0  0  0  0
  191.2890  177.1380  144.0350 C   0  0  0  0  0  0  0  0  0  0  0  0
  190.1710  175.3650  142.8840 O   0  0  0  0  0  1  0  0  0  0  0  0
  191.2110  176.2940  142.7960 C   0  0  1  0  0  3  0  0  0  0  0  0
  191.0710  177.1300  141.5610 C   0  0  0  0  0  0  0  0  0  0  0  0
  189.7190  177.3670  140.9830 C   0  0  0  0  0  1  0  0  0  0  0  0
  192.0540  177.6180  141.0250 O   0  0  0  0  0  0  0  0  0  0  0  0
  185.8830  178.9040  143.2850 C   0  0  0  0  0  2  0  0  0  0  0  0
  184.5780  178.4490  140.8080 O   0  0  0  0  0  0  0  0  0  0  0  0
  186.5300  178.6250  139.5410 N   0  0  0  0  0  2  0  0  0  0  0  0
  186.5480  178.8510  141.9930 N   0  0  0  0  0  2  0  0  0  0  0  0
  185.8260  178.6330  140.7810 C   0  0  0  0  0  0  0  0  0  0  0  0
  185.8570  178.3950  138.2700 C   0  0  0  0  0  2  0  0  0  0  0  0
  186.8490  178.4200  137.1110 C   0  0  2  0  0  3  0  0  0  0  0  0
  188.0360  176.1930  137.3260 C   0  0  0  0  0  2  0  0  0  0  0  0
  188.5480  177.0500  136.1880 C   0  0  2  0  0  3  0  0  0  0  0  0
  189.0580  178.3750  136.7220 C   0  0  0  0  0  2  0  0  0  0  0  0
  187.0810  177.0460  136.5040 C   0  0  2  0  0  3  0  0  0  0  0  0
  188.0660  179.0050  137.4920 O   0  0  0  0  0  0  0  0  0  0  0  0
  1 19  1  1  0  0  0
  1  4  1  0  0  0  0
  1  2  1  0  0  0  0
  2  4  1  1  0  0  0
  2  3  1  0  0  0  0
  2  5  1  0  0  0  0
  3  5  1  0  0  0  0
  3  6  1  1  0  0  0
  6  8  1  0  0  0  0
  6  7  1  1  0  0  0
  9  8  1  0  0  0  0
 10  9  1  0  0  0  0
 11 10  1  0  0  0  0
 12 13  2  0  0  0  0
 13 11  1  0  0  0  0
 15 14  1  1  0  0  0
 15 13  1  0  0  0  0
 16 15  1  0  0  0  0
 17 16  1  0  0  0  0
 18 16  2  0  0  0  0
 21 23  1  0  0  0  0
 22 19  1  0  0  0  0
 23 20  2  0  0  0  0
 23 22  1  0  0  0  0
 24 21  1  0  0  0  0
 25 30  1  0  0  0  0
 25 24  1  1  0  0  0
 27 29  1  0  0  0  0
 27 28  1  1  0  0  0
 27 26  1  0  0  0  0
 28 30  1  0  0  0  0
 29 25  1  0  0  0  0
 29 26  1  1  0  0  0
M  END
>  <MODEL>
9

>  <REMARK>
 VINA RESULT:      -6.7      2.135      2.709
  Name = 
  12 active torsions:
  status: ('A' for Active; 'I' for Inactive)
    1  A    between atoms: C_1  and  C_24
    2  A    between atoms: C_2  and  C_20
    3  A    between atoms: N_4  and  N_10
    4  A    between atoms: N_4  and  N_16
    5  A    between atoms: C_5  and  C_15
    6  A    between atoms: C_5  and  N_16
    7  A    between atoms: C_8  and  C_13
    8  A    between atoms: N_10  and  N_29
    9  A    between atoms: N_12  and  C_20
   10  A    between atoms: C_13  and  N_27
   11  A    between atoms: C_19  and  C_24
   12  A    between atoms: C_19  and  N_29
                            x       y       z     vdW  Elec       q    Type
                         _______ _______ _______ _____ _____    ______ ____

>  <TORSDO>
F 12

$$$$
