=
 OpenBabel11062414343D

 31 35  0  0  1  0  0  0  0  0999 V2000
  191.6590  177.7990  141.0020 C   0  0  2  0  0  3  0  0  0  0  0  0
  184.3270  177.5400  140.2760 O   0  0  0  0  0  1  0  0  0  0  0  0
  183.6370  179.1870  145.8920 O   0  0  0  0  0  0  0  0  0  0  0  0
  186.3950  179.0540  142.3280 C   0  0  0  0  0  2  0  0  0  0  0  0
  191.2690  177.5720  142.4320 C   0  0  0  0  0  0  0  0  0  0  0  0
  188.5660  178.5260  141.3780 C   0  0  2  0  0  3  0  0  0  0  0  0
  189.3560  178.5280  140.0720 C   0  0  0  0  0  2  0  0  0  0  0  0
  188.6800  177.2640  145.7840 C   0  0  2  0  0  0  0  0  0  0  0  0
  190.4910  177.4920  140.0450 C   0  0  0  0  0  2  0  0  0  0  0  0
  185.3800  178.0940  142.9640 C   0  0  2  0  0  3  0  0  0  0  0  0
  183.9840  178.3960  142.4660 C   0  0  0  0  0  0  0  0  0  0  0  0
  184.0050  178.8620  144.7310 C   0  0  0  0  0  0  0  0  0  0  0  0
  186.3760  178.1110  145.3370 C   0  0  0  0  0  0  0  0  0  0  0  0
  187.4260  178.6250  147.4490 N   0  0  0  0  0  0  0  0  0  0  0  0
  191.0850  178.6860  143.2580 C   0  0  0  0  0  3  0  0  0  0  0  0
  181.8530  179.0960  143.5490 C   0  0  0  0  0  2  0  0  0  0  0  0
  183.1740  178.9440  143.5510 C   0  0  0  0  0  0  0  0  0  0  0  0
  188.5940  176.0210  146.3880 F   0  0  0  0  0  0  0  0  0  0  0  0
  189.8580  177.3150  144.8480 C   0  0  0  0  0  0  0  0  0  0  0  0
  190.1280  176.1860  144.0590 C   0  0  0  0  0  3  0  0  0  0  0  0
  190.8300  176.3120  142.8600 C   0  0  0  0  0  3  0  0  0  0  0  0
  186.3360  178.5780  146.7380 C   0  0  0  0  0  3  0  0  0  0  0  0
  190.3770  178.5590  144.4530 C   0  0  0  0  0  3  0  0  0  0  0  0
  187.8690  177.2430  141.5440 N   0  0  0  0  0  2  0  0  0  0  0  0
  188.7520  178.3460  146.8800 C   0  0  0  0  0  2  0  0  0  0  0  0
  183.5220  178.1290  141.2430 C   0  0  0  0  0  3  0  0  0  0  0  0
  187.4730  177.4860  144.9140 C   0  0  0  0  0  3  0  0  0  0  0  0
  185.3020  178.3600  144.4110 N   0  0  0  0  0  0  0  0  0  0  0  0
  187.1260  178.4440  141.1320 C   0  0  1  0  0  3  0  0  0  0  0  0
  192.9090  177.0130  140.6190 C   0  0  0  0  0  2  0  0  0  0  0  0
  193.1660  177.0990  139.2490 O   0  0  0  0  0  1  0  0  0  0  0  0
  1 30  1  6  0  0  0
  1  5  1  0  0  0  0
  2 26  1  0  0  0  0
  5 21  2  0  0  0  0
  5 15  1  0  0  0  0
  6  7  1  6  0  0  0
  6 24  1  0  0  0  0
  8 18  1  1  0  0  0
  8 25  1  0  0  0  0
  9  7  1  0  0  0  0
  9  1  1  0  0  0  0
 10  4  1  6  0  0  0
 10 28  1  0  0  0  0
 11 10  1  0  0  0  0
 11 17  1  0  0  0  0
 12  3  2  0  0  0  0
 13 22  1  0  0  0  0
 15 23  2  0  0  0  0
 16 17  2  0  0  0  0
 17 12  1  0  0  0  0
 19  8  1  0  0  0  0
 20 19  2  0  0  0  0
 21 20  1  0  0  0  0
 22 14  2  0  0  0  0
 23 19  1  0  0  0  0
 25 14  1  0  0  0  0
 26 11  2  0  0  0  0
 27 13  2  0  0  0  0
 27  8  1  0  0  0  0
 28 12  1  0  0  0  0
 28 13  1  0  0  0  0
 29  6  1  0  0  0  0
 29 24  1  0  0  0  0
 29  4  1  1  0  0  0
 31 30  1  0  0  0  0
M  END
>  <MODEL>
1

>  <REMARK>
 VINA RESULT:      -9.4      0.000      0.000
  Name = 
  1 active torsions:
  status: ('A' for Active; 'I' for Inactive)
    1  A    between atoms: C_1  and  C_21
                            x       y       z     vdW  Elec       q    Type
                         _______ _______ _______ _____ _____    ______ ____

>  <TORSDO>
F 1

$$$$
=
 OpenBabel11062414343D

 31 35  0  0  1  0  0  0  0  0999 V2000
  190.8110  176.3460  146.8520 C   0  0  2  0  0  3  0  0  0  0  0  0
  184.9410  179.8910  144.1450 O   0  0  0  0  0  1  0  0  0  0  0  0
  186.2490  178.0550  138.7000 O   0  0  0  0  0  0  0  0  0  0  0  0
  186.8030  177.3870  143.1240 C   0  0  0  0  0  2  0  0  0  0  0  0
  191.2650  176.5490  145.4380 C   0  0  0  0  0  0  0  0  0  0  0  0
  188.2760  177.0150  145.0180 C   0  0  2  0  0  3  0  0  0  0  0  0
  188.2870  176.8230  146.5330 C   0  0  0  0  0  2  0  0  0  0  0  0
  190.9390  177.5600  141.3260 C   0  0  2  0  0  0  0  0  0  0  0  0
  189.6090  177.2490  147.1910 C   0  0  0  0  0  2  0  0  0  0  0  0
  186.7360  178.6120  142.2010 C   0  0  2  0  0  3  0  0  0  0  0  0
  185.2990  179.0170  141.9650 C   0  0  0  0  0  0  0  0  0  0  0  0
  186.1450  178.3210  139.9280 C   0  0  0  0  0  0  0  0  0  0  0  0
  188.5830  177.8730  140.5670 C   0  0  0  0  0  0  0  0  0  0  0  0
  190.1310  176.7000  139.1340 N   0  0  0  0  0  0  0  0  0  0  0  0
  191.0080  175.5390  144.5040 C   0  0  0  0  0  3  0  0  0  0  0  0
  183.8410  179.2020  139.9530 C   0  0  0  0  0  2  0  0  0  0  0  0
  184.9280  178.7560  140.5760 C   0  0  0  0  0  0  0  0  0  0  0  0
  191.7000  178.6320  140.8890 F   0  0  0  0  0  0  0  0  0  0  0  0
  191.3960  177.1090  142.6870 C   0  0  0  0  0  0  0  0  0  0  0  0
  191.7440  178.0890  143.6290 C   0  0  0  0  0  3  0  0  0  0  0  0
  191.6810  177.8120  144.9950 C   0  0  0  0  0  3  0  0  0  0  0  0
  188.9860  177.3070  139.2640 C   0  0  0  0  0  3  0  0  0  0  0  0
  191.0650  175.8200  143.1380 C   0  0  0  0  0  3  0  0  0  0  0  0
  188.3830  178.4450  144.6900 N   0  0  0  0  0  2  0  0  0  0  0  0
  191.0160  176.4340  140.2760 C   0  0  0  0  0  2  0  0  0  0  0  0
  184.5010  179.6050  142.8580 C   0  0  0  0  0  3  0  0  0  0  0  0
  189.5120  177.9980  141.5120 C   0  0  0  0  0  3  0  0  0  0  0  0
  187.2200  178.2360  140.8610 N   0  0  0  0  0  0  0  0  0  0  0  0
  187.0900  177.7520  144.5810 C   0  0  1  0  0  3  0  0  0  0  0  0
  191.9480  176.5430  147.8500 C   0  0  0  0  0  2  0  0  0  0  0  0
  192.9330  175.5630  147.6990 O   0  0  0  0  0  1  0  0  0  0  0  0
  1  9  1  0  0  0  0
  1 30  1  1  0  0  0
  3 12  2  0  0  0  0
  5  1  1  0  0  0  0
  6  7  1  1  0  0  0
  7  9  1  0  0  0  0
  8 18  1  6  0  0  0
  8 27  1  0  0  0  0
  8 19  1  0  0  0  0
 10  4  1  1  0  0  0
 11 10  1  0  0  0  0
 11 26  2  0  0  0  0
 12 17  1  0  0  0  0
 12 28  1  0  0  0  0
 13 28  1  0  0  0  0
 13 27  2  0  0  0  0
 14 22  2  0  0  0  0
 14 25  1  0  0  0  0
 15  5  2  0  0  0  0
 16 17  2  0  0  0  0
 17 11  1  0  0  0  0
 19 23  2  0  0  0  0
 19 20  1  0  0  0  0
 20 21  2  0  0  0  0
 21  5  1  0  0  0  0
 22 13  1  0  0  0  0
 23 15  1  0  0  0  0
 24  6  1  0  0  0  0
 25  8  1  0  0  0  0
 26  2  1  0  0  0  0
 28 10  1  0  0  0  0
 29  4  1  6  0  0  0
 29 24  1  0  0  0  0
 29  6  1  0  0  0  0
 31 30  1  0  0  0  0
M  END
>  <MODEL>
2

>  <REMARK>
 VINA RESULT:      -8.6      2.585      5.189
  Name = 
  1 active torsions:
  status: ('A' for Active; 'I' for Inactive)
    1  A    between atoms: C_1  and  C_21
                            x       y       z     vdW  Elec       q    Type
                         _______ _______ _______ _____ _____    ______ ____

>  <TORSDO>
F 1

$$$$
=
 OpenBabel11062414343D

 31 35  0  0  1  0  0  0  0  0999 V2000
  190.3730  176.6930  145.6400 C   0  0  2  0  0  3  0  0  0  0  0  0
  183.6070  179.5690  145.0920 O   0  0  0  0  0  1  0  0  0  0  0  0
  183.4780  178.3590  139.3260 O   0  0  0  0  0  0  0  0  0  0  0  0
  185.3650  177.4400  143.3160 C   0  0  0  0  0  2  0  0  0  0  0  0
  190.3710  177.0650  144.1870 C   0  0  0  0  0  0  0  0  0  0  0  0
  187.3560  177.1350  144.6700 C   0  0  2  0  0  3  0  0  0  0  0  0
  187.8280  176.8310  146.0910 C   0  0  0  0  0  2  0  0  0  0  0  0
  188.7530  178.3320  140.4710 C   0  0  2  0  0  0  0  0  0  0  0  0
  189.2270  177.3870  146.4000 C   0  0  0  0  0  2  0  0  0  0  0  0
  184.8940  178.7090  142.5930 C   0  0  2  0  0  3  0  0  0  0  0  0
  183.4140  178.9250  142.8140 C   0  0  0  0  0  0  0  0  0  0  0  0
  183.7050  178.5130  140.5560 C   0  0  0  0  0  0  0  0  0  0  0  0
  186.2580  178.3660  140.4370 C   0  0  0  0  0  0  0  0  0  0  0  0
  187.4460  177.5370  138.5070 N   0  0  0  0  0  0  0  0  0  0  0  0
  189.9700  176.1030  143.2540 C   0  0  0  0  0  3  0  0  0  0  0  0
  181.4240  179.0560  141.3210 C   0  0  0  0  0  2  0  0  0  0  0  0
  182.6880  178.7210  141.5620 C   0  0  0  0  0  0  0  0  0  0  0  0
  189.2270  179.5300  139.9650 F   0  0  0  0  0  0  0  0  0  0  0  0
  189.6330  177.8460  141.5910 C   0  0  0  0  0  0  0  0  0  0  0  0
  190.1260  178.7910  142.5050 C   0  0  0  0  0  3  0  0  0  0  0  0
  190.4940  178.4040  143.7930 C   0  0  0  0  0  3  0  0  0  0  0  0
  186.3270  177.9640  139.0180 C   0  0  0  0  0  3  0  0  0  0  0  0
  189.5960  176.4930  141.9670 C   0  0  0  0  0  3  0  0  0  0  0  0
  187.2010  178.5860  144.4910 N   0  0  0  0  0  2  0  0  0  0  0  0
  188.6490  177.3120  139.3200 C   0  0  0  0  0  2  0  0  0  0  0  0
  182.8490  179.3240  143.9540 C   0  0  0  0  0  3  0  0  0  0  0  0
  187.4010  178.5480  141.0950 C   0  0  0  0  0  3  0  0  0  0  0  0
  185.0080  178.5090  141.1380 N   0  0  0  0  0  0  0  0  0  0  0  0
  186.0190  177.7280  144.6670 C   0  0  1  0  0  3  0  0  0  0  0  0
  191.7210  176.9700  146.2980 C   0  0  0  0  0  2  0  0  0  0  0  0
  191.6590  176.7930  147.6830 O   0  0  0  0  0  1  0  0  0  0  0  0
  1 30  1  1  0  0  0
  1  9  1  0  0  0  0
  3 12  2  0  0  0  0
  5  1  1  0  0  0  0
  6  7  1  1  0  0  0
  7  9  1  0  0  0  0
  8 18  1  6  0  0  0
  8 27  1  0  0  0  0
  8 19  1  0  0  0  0
 10 11  1  0  0  0  0
 10  4  1  1  0  0  0
 11 26  2  0  0  0  0
 12 28  1  0  0  0  0
 12 17  1  0  0  0  0
 13 27  2  0  0  0  0
 13 28  1  0  0  0  0
 14 22  2  0  0  0  0
 14 25  1  0  0  0  0
 15  5  2  0  0  0  0
 16 17  2  0  0  0  0
 17 11  1  0  0  0  0
 19 23  2  0  0  0  0
 19 20  1  0  0  0  0
 20 21  2  0  0  0  0
 21  5  1  0  0  0  0
 22 13  1  0  0  0  0
 23 15  1  0  0  0  0
 24 29  1  0  0  0  0
 24  6  1  0  0  0  0
 25  8  1  0  0  0  0
 26  2  1  0  0  0  0
 28 10  1  0  0  0  0
 29  4  1  6  0  0  0
 29  6  1  0  0  0  0
 30 31  1  0  0  0  0
M  END
>  <MODEL>
3

>  <REMARK>
 VINA RESULT:      -8.2      2.519      4.920
  Name = 
  1 active torsions:
  status: ('A' for Active; 'I' for Inactive)
    1  A    between atoms: C_1  and  C_21
                            x       y       z     vdW  Elec       q    Type
                         _______ _______ _______ _____ _____    ______ ____

>  <TORSDO>
F 1

$$$$
=
 OpenBabel11062414343D

 31 35  0  0  1  0  0  0  0  0999 V2000
  189.4910  176.6850  136.4060 C   0  0  2  0  0  3  0  0  0  0  0  0
  190.7180  178.4330  143.4620 O   0  0  0  0  0  1  0  0  0  0  0  0
  184.9580  178.0310  144.6420 O   0  0  0  0  0  0  0  0  0  0  0  0
  188.3090  176.8960  141.8470 C   0  0  0  0  0  2  0  0  0  0  0  0
  188.1490  177.2490  136.7660 C   0  0  0  0  0  0  0  0  0  0  0  0
  189.1940  176.7450  139.5910 C   0  0  2  0  0  3  0  0  0  0  0  0
  190.4280  176.3300  138.7930 C   0  0  0  0  0  2  0  0  0  0  0  0
  185.0720  178.7300  139.2910 C   0  0  2  0  0  0  0  0  0  0  0  0
  190.5590  177.0650  137.4490 C   0  0  0  0  0  2  0  0  0  0  0  0
  187.9130  178.1570  142.6280 C   0  0  2  0  0  3  0  0  0  0  0  0
  188.4400  178.0880  144.0430 C   0  0  0  0  0  0  0  0  0  0  0  0
  186.1320  178.0490  144.1830 C   0  0  0  0  0  0  0  0  0  0  0  0
  185.5130  178.3500  141.7170 C   0  0  0  0  0  0  0  0  0  0  0  0
  183.2820  178.0080  140.8630 N   0  0  0  0  0  0  0  0  0  0  0  0
  187.1580  176.3730  137.2200 C   0  0  0  0  0  3  0  0  0  0  0  0
  187.3920  178.0890  146.3030 C   0  0  0  0  0  2  0  0  0  0  0  0
  187.3310  177.9410  144.9830 C   0  0  0  0  0  0  0  0  0  0  0  0
  184.6970  180.0500  139.1020 F   0  0  0  0  0  0  0  0  0  0  0  0
  185.9080  178.2490  138.1350 C   0  0  0  0  0  0  0  0  0  0  0  0
  186.8600  179.1260  137.5940 C   0  0  0  0  0  3  0  0  0  0  0  0
  187.9720  178.6320  136.9120 C   0  0  0  0  0  3  0  0  0  0  0  0
  184.0590  178.1670  141.8960 C   0  0  0  0  0  3  0  0  0  0  0  0
  186.0490  176.8700  137.9080 C   0  0  0  0  0  3  0  0  0  0  0  0
  189.2960  178.1600  139.9770 N   0  0  0  0  0  2  0  0  0  0  0  0
  183.8050  177.8770  139.4960 C   0  0  0  0  0  2  0  0  0  0  0  0
  189.7180  178.2240  144.4030 C   0  0  0  0  0  3  0  0  0  0  0  0
  185.9660  178.6280  140.4960 C   0  0  0  0  0  3  0  0  0  0  0  0
  186.4500  178.1830  142.7980 N   0  0  0  0  0  0  0  0  0  0  0  0
  189.5420  177.1000  140.9670 C   0  0  1  0  0  3  0  0  0  0  0  0
  189.9220  177.0900  135.0000 C   0  0  0  0  0  2  0  0  0  0  0  0
  191.0600  176.3900  134.5940 O   0  0  0  0  0  1  0  0  0  0  0  0
  1 30  1  6  0  0  0
  1  5  1  0  0  0  0
  1  9  1  0  0  0  0
  2 26  1  0  0  0  0
  5 21  2  0  0  0  0
  5 15  1  0  0  0  0
  6  7  1  6  0  0  0
  6 24  1  0  0  0  0
  6 29  1  0  0  0  0
  8 18  1  6  0  0  0
  8 25  1  0  0  0  0
  8 27  1  0  0  0  0
  9  7  1  0  0  0  0
 10  4  1  6  0  0  0
 10 28  1  0  0  0  0
 10 11  1  0  0  0  0
 11 26  2  0  0  0  0
 11 17  1  0  0  0  0
 12  3  2  0  0  0  0
 12 17  1  0  0  0  0
 13 22  1  0  0  0  0
 13 28  1  0  0  0  0
 14 22  2  0  0  0  0
 15 23  2  0  0  0  0
 17 16  2  0  0  0  0
 19  8  1  0  0  0  0
 20 19  2  0  0  0  0
 21 20  1  0  0  0  0
 23 19  1  0  0  0  0
 24 29  1  0  0  0  0
 25 14  1  0  0  0  0
 27 13  2  0  0  0  0
 28 12  1  0  0  0  0
 29  4  1  1  0  0  0
 31 30  1  0  0  0  0
M  END
>  <MODEL>
4

>  <REMARK>
 VINA RESULT:      -7.4      3.251      5.744
  Name = 
  1 active torsions:
  status: ('A' for Active; 'I' for Inactive)
    1  A    between atoms: C_1  and  C_21
                            x       y       z     vdW  Elec       q    Type
                         _______ _______ _______ _____ _____    ______ ____

>  <TORSDO>
F 1

$$$$
=
 OpenBabel11062414343D

 31 35  0  0  1  0  0  0  0  0999 V2000
  180.8990  177.6200  135.9940 C   0  0  2  0  0  3  0  0  0  0  0  0
  186.7180  178.8110  140.3610 O   0  0  0  0  0  1  0  0  0  0  0  0
  183.2700  178.6140  145.1370 O   0  0  0  0  0  0  0  0  0  0  0  0
  183.7340  177.5110  140.7890 C   0  0  0  0  0  2  0  0  0  0  0  0
  180.2080  178.2250  137.1800 C   0  0  0  0  0  0  0  0  0  0  0  0
  182.8420  177.4740  138.5320 C   0  0  2  0  0  3  0  0  0  0  0  0
  183.1700  177.0550  137.1000 C   0  0  0  0  0  2  0  0  0  0  0  0
  179.7900  179.6770  141.1490 C   0  0  2  0  0  0  0  0  0  0  0  0
  182.4180  177.8730  136.0390 C   0  0  0  0  0  2  0  0  0  0  0  0
  184.0790  178.7330  141.6530 C   0  0  2  0  0  3  0  0  0  0  0  0
  185.4170  178.5400  142.3300 C   0  0  0  0  0  0  0  0  0  0  0  0
  183.8190  178.6050  144.0020 C   0  0  0  0  0  0  0  0  0  0  0  0
  181.7230  179.1080  142.6210 C   0  0  0  0  0  0  0  0  0  0  0  0
  179.4840  178.9370  143.5060 N   0  0  0  0  0  0  0  0  0  0  0  0
  179.7170  177.3690  138.1730 C   0  0  0  0  0  3  0  0  0  0  0  0
  186.1790  178.4360  144.7000 C   0  0  0  0  0  2  0  0  0  0  0  0
  185.2290  178.3830  143.7710 C   0  0  0  0  0  0  0  0  0  0  0  0
  179.4990  181.0240  141.2890 F   0  0  0  0  0  0  0  0  0  0  0  0
  179.5800  179.2360  139.7250 C   0  0  0  0  0  0  0  0  0  0  0  0
  179.9830  180.1010  138.6960 C   0  0  0  0  0  3  0  0  0  0  0  0
  180.2940  179.6010  137.4320 C   0  0  0  0  0  3  0  0  0  0  0  0
  180.7650  178.9850  143.7380 C   0  0  0  0  0  3  0  0  0  0  0  0
  179.4130  177.8710  139.4390 C   0  0  0  0  0  3  0  0  0  0  0  0
  183.2970  178.8520  138.7700 N   0  0  0  0  0  2  0  0  0  0  0  0
  178.9310  178.8760  142.1460 C   0  0  0  0  0  2  0  0  0  0  0  0
  186.6060  178.5870  141.7280 C   0  0  0  0  0  3  0  0  0  0  0  0
  181.2520  179.4470  141.4230 C   0  0  0  0  0  3  0  0  0  0  0  0
  183.1260  178.8190  142.7730 N   0  0  0  0  0  0  0  0  0  0  0  0
  184.0580  177.7140  139.3100 C   0  0  1  0  0  3  0  0  0  0  0  0
  180.2960  178.1010  134.6780 C   0  0  0  0  0  2  0  0  0  0  0  0
  178.9370  177.7860  134.5940 O   0  0  0  0  0  1  0  0  0  0  0  0
  1 30  1  6  0  0  0
  1  9  1  0  0  0  0
  1  5  1  0  0  0  0
  2 26  1  0  0  0  0
  5 21  2  0  0  0  0
  5 15  1  0  0  0  0
  6  7  1  6  0  0  0
  6 24  1  0  0  0  0
  6 29  1  0  0  0  0
  8 18  1  1  0  0  0
  8 27  1  0  0  0  0
  8 25  1  0  0  0  0
  9  7  1  0  0  0  0
 10  4  1  6  0  0  0
 10 11  1  0  0  0  0
 10 28  1  0  0  0  0
 11 17  1  0  0  0  0
 12  3  2  0  0  0  0
 13 28  1  0  0  0  0
 13 22  1  0  0  0  0
 14 22  2  0  0  0  0
 15 23  2  0  0  0  0
 17 12  1  0  0  0  0
 17 16  2  0  0  0  0
 19  8  1  0  0  0  0
 20 19  2  0  0  0  0
 21 20  1  0  0  0  0
 23 19  1  0  0  0  0
 24 29  1  0  0  0  0
 25 14  1  0  0  0  0
 26 11  2  0  0  0  0
 27 13  2  0  0  0  0
 28 12  1  0  0  0  0
 29  4  1  1  0  0  0
 31 30  1  0  0  0  0
M  END
>  <MODEL>
5

>  <REMARK>
 VINA RESULT:      -6.8      4.394      8.608
  Name = 
  1 active torsions:
  status: ('A' for Active; 'I' for Inactive)
    1  A    between atoms: C_1  and  C_21
                            x       y       z     vdW  Elec       q    Type
                         _______ _______ _______ _____ _____    ______ ____

>  <TORSDO>
F 1

$$$$
=
 OpenBabel11062414343D

 31 35  0  0  1  0  0  0  0  0999 V2000
  182.0300  177.6970  137.4630 C   0  0  2  0  0  3  0  0  0  0  0  0
  189.1330  177.6140  135.4880 O   0  0  0  0  0  1  0  0  0  0  0  0
  190.7600  176.7980  141.0930 O   0  0  0  0  0  0  0  0  0  0  0  0
  187.4360  176.4880  138.0630 C   0  0  0  0  0  2  0  0  0  0  0  0
  182.6600  178.1220  138.7560 C   0  0  0  0  0  0  0  0  0  0  0  0
  185.1380  176.9370  137.4220 C   0  0  2  0  0  3  0  0  0  0  0  0
  184.1370  176.7660  136.2810 C   0  0  0  0  0  2  0  0  0  0  0  0
  185.7830  178.8420  141.5410 C   0  0  2  0  0  0  0  0  0  0  0  0
  183.0200  177.8210  136.2880 C   0  0  0  0  0  2  0  0  0  0  0  0
  188.5500  177.4990  138.3670 C   0  0  2  0  0  3  0  0  0  0  0  0
  189.8390  177.0820  137.6930 C   0  0  0  0  0  0  0  0  0  0  0  0
  190.2010  176.9590  139.9740 C   0  0  0  0  0  0  0  0  0  0  0  0
  187.9730  177.8660  140.8490 C   0  0  0  0  0  0  0  0  0  0  0  0
  187.2950  177.7040  143.1590 N   0  0  0  0  0  0  0  0  0  0  0  0
  182.9750  177.1380  139.6980 C   0  0  0  0  0  3  0  0  0  0  0  0
  192.1190  176.4840  138.4980 C   0  0  0  0  0  2  0  0  0  0  0  0
  190.8190  176.6770  138.6980 C   0  0  0  0  0  0  0  0  0  0  0  0
  185.9790  180.1580  141.9260 F   0  0  0  0  0  0  0  0  0  0  0  0
  184.4630  178.6900  140.8340 C   0  0  0  0  0  0  0  0  0  0  0  0
  184.0690  179.6970  139.9390 C   0  0  0  0  0  3  0  0  0  0  0  0
  183.1730  179.4170  138.9090 C   0  0  0  0  0  3  0  0  0  0  0  0
  188.2480  177.6110  142.2760 C   0  0  0  0  0  3  0  0  0  0  0  0
  183.8770  177.4180  140.7250 C   0  0  0  0  0  3  0  0  0  0  0  0
  185.8610  178.2080  137.2710 N   0  0  0  0  0  2  0  0  0  0  0  0
  185.8930  177.9380  142.7840 C   0  0  0  0  0  2  0  0  0  0  0  0
  190.0870  177.1500  136.3850 C   0  0  0  0  0  3  0  0  0  0  0  0
  186.8240  178.4550  140.5250 C   0  0  0  0  0  3  0  0  0  0  0  0
  188.8720  177.4480  139.8030 N   0  0  0  0  0  0  0  0  0  0  0  0
  186.5150  176.9360  136.9280 C   0  0  1  0  0  3  0  0  0  0  0  0
  180.7380  178.4570  137.1800 C   0  0  0  0  0  2  0  0  0  0  0  0
  180.9090  179.3870  136.1510 O   0  0  0  0  0  1  0  0  0  0  0  0
  1 30  1  6  0  0  0
  1  5  1  0  0  0  0
  2 26  1  0  0  0  0
  5 21  2  0  0  0  0
  5 15  1  0  0  0  0
  6  7  1  6  0  0  0
  7  9  1  0  0  0  0
  8 18  1  1  0  0  0
  8 25  1  0  0  0  0
  9  1  1  0  0  0  0
 10  4  1  1  0  0  0
 10 28  1  0  0  0  0
 11 10  1  0  0  0  0
 11 17  1  0  0  0  0
 12  3  2  0  0  0  0
 13 22  1  0  0  0  0
 15 23  2  0  0  0  0
 16 17  2  0  0  0  0
 17 12  1  0  0  0  0
 19  8  1  0  0  0  0
 20 19  2  0  0  0  0
 21 20  1  0  0  0  0
 22 14  2  0  0  0  0
 23 19  1  0  0  0  0
 24  6  1  0  0  0  0
 25 14  1  0  0  0  0
 26 11  2  0  0  0  0
 27 13  2  0  0  0  0
 27  8  1  0  0  0  0
 28 12  1  0  0  0  0
 28 13  1  0  0  0  0
 29 24  1  0  0  0  0
 29  6  1  0  0  0  0
 29  4  1  1  0  0  0
 31 30  1  0  0  0  0
M  END
>  <MODEL>
6

>  <REMARK>
 VINA RESULT:      -6.7      3.424      7.751
  Name = 
  1 active torsions:
  status: ('A' for Active; 'I' for Inactive)
    1  A    between atoms: C_1  and  C_21
                            x       y       z     vdW  Elec       q    Type
                         _______ _______ _______ _____ _____    ______ ____

>  <TORSDO>
F 1

$$$$
=
 OpenBabel11062414343D

 31 35  0  0  1  0  0  0  0  0999 V2000
  191.7200  176.9490  147.3470 C   0  0  2  0  0  3  0  0  0  0  0  0
  189.7920  176.2590  140.2650 O   0  0  0  0  0  1  0  0  0  0  0  0
  184.9380  179.4710  141.1950 O   0  0  0  0  0  0  0  0  0  0  0  0
  189.0580  178.3750  142.6650 C   0  0  0  0  0  2  0  0  0  0  0  0
  190.2380  177.1420  147.4660 C   0  0  0  0  0  0  0  0  0  0  0  0
  190.5160  177.6590  144.4690 C   0  0  2  0  0  3  0  0  0  0  0  0
  191.9640  177.2980  144.7930 C   0  0  0  0  0  2  0  0  0  0  0  0
  186.2500  177.7590  146.1440 C   0  0  2  0  0  0  0  0  0  0  0  0
  192.1000  176.3370  145.9850 C   0  0  0  0  0  2  0  0  0  0  0  0
  187.8800  177.6160  142.0380 C   0  0  2  0  0  3  0  0  0  0  0  0
  187.9310  177.7130  140.5300 C   0  0  0  0  0  0  0  0  0  0  0  0
  186.0230  178.8290  141.2120 C   0  0  0  0  0  0  0  0  0  0  0  0
  186.0890  178.3650  143.7290 C   0  0  0  0  0  0  0  0  0  0  0  0
  184.6850  179.5120  145.3220 N   0  0  0  0  0  0  0  0  0  0  0  0
  189.7300  178.4450  147.4130 C   0  0  0  0  0  3  0  0  0  0  0  0
  186.4120  178.6350  138.7840 C   0  0  0  0  0  2  0  0  0  0  0  0
  186.8230  178.5320  140.0450 C   0  0  0  0  0  0  0  0  0  0  0  0
  185.3430  176.7480  146.4170 F   0  0  0  0  0  0  0  0  0  0  0  0
  187.5100  177.5670  146.9450 C   0  0  0  0  0  0  0  0  0  0  0  0
  188.0110  176.2650  147.0930 C   0  0  0  0  0  3  0  0  0  0  0  0
  189.3640  176.0520  147.3530 C   0  0  0  0  0  3  0  0  0  0  0  0
  184.9390  179.2230  144.0780 C   0  0  0  0  0  3  0  0  0  0  0  0
  188.3760  178.6550  147.1460 C   0  0  0  0  0  3  0  0  0  0  0  0
  189.7840  176.4600  144.0330 N   0  0  0  0  0  2  0  0  0  0  0  0
  185.5770  179.1180  146.4210 C   0  0  0  0  0  2  0  0  0  0  0  0
  188.8020  177.0820  139.7410 C   0  0  0  0  0  3  0  0  0  0  0  0
  186.6790  177.6770  144.7050 C   0  0  0  0  0  3  0  0  0  0  0  0
  186.6220  178.2950  142.3920 N   0  0  0  0  0  0  0  0  0  0  0  0
  190.2220  177.4620  143.0490 C   0  0  1  0  0  3  0  0  0  0  0  0
  192.2820  176.1240  148.5000 C   0  0  0  0  0  2  0  0  0  0  0  0
  193.3080  176.8040  149.1610 O   0  0  0  0  0  1  0  0  0  0  0  0
  1  5  1  0  0  0  0
  1 30  1  1  0  0  0
  3 12  2  0  0  0  0
  6  7  1  6  0  0  0
  7  9  1  0  0  0  0
  8 18  1  1  0  0  0
  8 25  1  0  0  0  0
  8 19  1  0  0  0  0
  9  1  1  0  0  0  0
 10 28  1  0  0  0  0
 10  4  1  1  0  0  0
 11 10  1  0  0  0  0
 12 28  1  0  0  0  0
 13 22  1  0  0  0  0
 13 27  2  0  0  0  0
 14 25  1  0  0  0  0
 15  5  1  0  0  0  0
 16 17  2  0  0  0  0
 17 11  1  0  0  0  0
 17 12  1  0  0  0  0
 19 20  2  0  0  0  0
 19 23  1  0  0  0  0
 20 21  1  0  0  0  0
 21  5  2  0  0  0  0
 22 14  2  0  0  0  0
 23 15  2  0  0  0  0
 24  6  1  0  0  0  0
 26  2  1  0  0  0  0
 26 11  2  0  0  0  0
 27  8  1  0  0  0  0
 28 13  1  0  0  0  0
 29  4  1  1  0  0  0
 29 24  1  0  0  0  0
 29  6  1  0  0  0  0
 30 31  1  0  0  0  0
M  END
>  <MODEL>
7

>  <REMARK>
 VINA RESULT:      -6.6      2.689      4.688
  Name = 
  1 active torsions:
  status: ('A' for Active; 'I' for Inactive)
    1  A    between atoms: C_1  and  C_21
                            x       y       z     vdW  Elec       q    Type
                         _______ _______ _______ _____ _____    ______ ____

>  <TORSDO>
F 1

$$$$
=
 OpenBabel11062414343D

 31 35  0  0  1  0  0  0  0  0999 V2000
  181.8500  179.2440  140.7300 C   0  0  2  0  0  3  0  0  0  0  0  0
  187.5600  176.7140  144.6470 O   0  0  0  0  0  1  0  0  0  0  0  0
  191.2190  177.8010  140.1560 O   0  0  0  0  0  0  0  0  0  0  0  0
  187.2340  178.7080  142.0590 C   0  0  0  0  0  2  0  0  0  0  0  0
  182.7660  178.8400  139.6140 C   0  0  0  0  0  0  0  0  0  0  0  0
  184.8250  178.9380  141.8670 C   0  0  2  0  0  3  0  0  0  0  0  0
  183.5640  179.2490  142.6700 C   0  0  0  0  0  2  0  0  0  0  0  0
  186.3790  177.5770  137.7740 C   0  0  2  0  0  0  0  0  0  0  0  0
  182.2920  178.6270  142.0710 C   0  0  0  0  0  2  0  0  0  0  0  0
  188.0860  177.4490  141.8500 C   0  0  2  0  0  3  0  0  0  0  0  0
  189.1130  177.3170  142.9520 C   0  0  0  0  0  0  0  0  0  0  0  0
  190.2790  177.6620  140.9850 C   0  0  0  0  0  0  0  0  0  0  0  0
  188.3530  177.6720  139.2990 C   0  0  0  0  0  0  0  0  0  0  0  0
  188.6030  178.3950  137.0100 N   0  0  0  0  0  0  0  0  0  0  0  0
  183.6350  179.8000  139.0840 C   0  0  0  0  0  3  0  0  0  0  0  0
  191.6020  177.2570  143.0260 C   0  0  0  0  0  2  0  0  0  0  0  0
  190.4550  177.5300  142.4130 C   0  0  0  0  0  0  0  0  0  0  0  0
  186.3560  176.3440  137.1440 F   0  0  0  0  0  0  0  0  0  0  0  0
  184.9800  178.0400  138.0800 C   0  0  0  0  0  0  0  0  0  0  0  0
  184.0520  177.0920  138.5360 C   0  0  0  0  0  3  0  0  0  0  0  0
  182.9510  177.4870  139.2960 C   0  0  0  0  0  3  0  0  0  0  0  0
  189.1710  178.0380  138.1260 C   0  0  0  0  0  3  0  0  0  0  0  0
  184.7390  179.4010  138.3300 C   0  0  0  0  0  3  0  0  0  0  0  0
  185.0980  177.4940  141.8960 N   0  0  0  0  0  2  0  0  0  0  0  0
  187.1490  178.5750  136.8870 C   0  0  0  0  0  2  0  0  0  0  0  0
  188.8550  176.9730  144.2150 C   0  0  0  0  0  3  0  0  0  0  0  0
  187.0540  177.4460  139.1130 C   0  0  0  0  0  3  0  0  0  0  0  0
  188.8980  177.6110  140.6310 N   0  0  0  0  0  0  0  0  0  0  0  0
  185.8900  178.4160  142.7250 C   0  0  1  0  0  3  0  0  0  0  0  0
  180.3940  178.9110  140.4220 C   0  0  0  0  0  2  0  0  0  0  0  0
  179.8960  177.9420  141.2980 O   0  0  0  0  0  1  0  0  0  0  0  0
  1 30  1  6  0  0  0
  1  9  1  0  0  0  0
  3 12  2  0  0  0  0
  5  1  1  0  0  0  0
  6 24  1  0  0  0  0
  6  7  1  1  0  0  0
  6 29  1  0  0  0  0
  8 18  1  6  0  0  0
  8 19  1  0  0  0  0
  8 27  1  0  0  0  0
  9  7  1  0  0  0  0
 10  4  1  1  0  0  0
 10 11  1  0  0  0  0
 11 26  2  0  0  0  0
 12 17  1  0  0  0  0
 13 28  1  0  0  0  0
 14 22  2  0  0  0  0
 15  5  2  0  0  0  0
 17 11  1  0  0  0  0
 17 16  2  0  0  0  0
 19 23  2  0  0  0  0
 19 20  1  0  0  0  0
 20 21  2  0  0  0  0
 21  5  1  0  0  0  0
 22 13  1  0  0  0  0
 23 15  1  0  0  0  0
 24 29  1  0  0  0  0
 25 14  1  0  0  0  0
 25  8  1  0  0  0  0
 26  2  1  0  0  0  0
 27 13  2  0  0  0  0
 28 12  1  0  0  0  0
 28 10  1  0  0  0  0
 29  4  1  6  0  0  0
 30 31  1  0  0  0  0
M  END
>  <MODEL>
8

>  <REMARK>
 VINA RESULT:      -6.5      3.051      8.005
  Name = 
  1 active torsions:
  status: ('A' for Active; 'I' for Inactive)
    1  A    between atoms: C_1  and  C_21
                            x       y       z     vdW  Elec       q    Type
                         _______ _______ _______ _____ _____    ______ ____

>  <TORSDO>
F 1

$$$$
