=
 OpenBabel11062412113D

 55 59  0  0  1  0  0  0  0  0999 V2000
  183.4740  173.9490  138.5280 C   0  0  0  0  0  2  0  0  0  0  0  0
  182.0830  178.4090  139.5440 C   0  0  0  0  0  0  0  0  0  0  0  0
  183.4390  175.2260  138.1580 C   0  0  0  0  0  0  0  0  0  0  0  0
  187.2570  177.2110  142.0210 O   0  0  0  0  0  1  0  0  0  0  0  0
  188.4890  178.0990  139.5640 C   0  0  0  0  0  2  0  0  0  0  0  0
  182.8950  178.7880  140.6730 N   0  0  0  0  0  0  0  0  0  0  0  0
  185.2360  180.3360  143.1560 O   0  0  0  0  0  0  0  0  0  0  0  0
  183.8490  175.5790  136.7420 C   0  0  2  0  0  3  0  0  0  0  0  0
  184.7330  178.9060  143.1100 P   0  0  2  0  0  0  0  0  0  0  0  0
  184.3320  178.8920  140.4270 C   0  0  0  0  0  2  0  0  0  0  0  0
  188.9540  177.9660  138.1070 C   0  0  2  0  0  3  0  0  0  0  0  0
  187.8660  180.0910  136.9560 C   0  0  0  0  0  3  0  0  0  0  0  0
  187.9780  177.5060  136.3480 C   0  0  1  0  0  0  0  0  0  0  0  0
  181.1590  179.1690  139.1480 O   0  0  0  0  0  0  0  0  0  0  0  0
  186.5300  177.1770  136.0580 C   0  0  0  0  0  3  0  0  0  0  0  0
  189.9280  175.9530  136.9800 C   0  0  0  0  0  1  0  0  0  0  0  0
  183.2860  176.2620  139.2340 C   0  0  0  0  0  2  0  0  0  0  0  0
  185.1320  178.1510  141.5020 C   0  0  1  0  0  3  0  0  0  0  0  0
  185.5300  177.4020  136.9130 C   0  0  0  0  0  3  0  0  0  0  0  0
  188.7010  177.5370  135.1520 O   0  0  0  0  0  1  0  0  0  0  0  0
  186.9880  177.9410  139.7760 C   0  0  0  0  0  2  0  0  0  0  0  0
  187.7990  175.8230  138.1060 F   0  0  0  0  0  0  0  0  0  0  0  0
  182.3160  177.2250  138.8440 O   0  0  0  0  0  0  0  0  0  0  0  0
  186.6390  178.1860  141.2400 C   0  0  2  0  0  3  0  0  0  0  0  0
  188.1770  178.8120  137.1080 C   0  0  0  0  0  0  0  0  0  0  0  0
  187.1280  180.5050  135.8580 O   0  0  0  0  0  1  0  0  0  0  0  0
  184.1300  177.0630  136.5200 C   0  0  0  0  0  2  0  0  0  0  0  0
  182.3440  179.4810  141.8590 C   0  0  2  0  0  3  0  0  0  0  0  0
  182.9190  178.9050  143.1520 C   0  0  0  0  0  2  0  0  0  0  0  0
  188.6540  176.6660  137.4120 C   0  0  1  0  0  0  0  0  0  0  0  0
  186.9050  177.7510  144.3850 C   0  0  0  0  0  2  0  0  0  0  0  0
  187.7170  178.3630  145.5330 C   0  0  2  0  0  3  0  0  0  0  0  0
  189.0430  177.7640  145.6370 N   0  0  0  0  0  0  0  0  0  0  0  0
  185.6350  178.0520  147.0770 C   0  0  0  0  0  2  0  0  0  0  0  0
  184.9590  178.6650  145.8480 C   0  0  0  0  0  2  0  0  0  0  0  0
  190.3340  176.4910  147.2720 C   0  0  0  0  0  1  0  0  0  0  0  0
  189.1110  177.1930  146.7960 C   0  0  0  0  0  0  0  0  0  0  0  0
  187.9120  177.2590  147.5580 N   0  0  0  0  0  0  0  0  0  0  0  0
  185.3790  177.9690  144.5340 C   0  0  1  0  0  3  0  0  0  0  0  0
  187.1030  177.9440  146.8210 C   0  0  0  0  0  0  0  0  0  0  0  0
  180.9460  175.8820  136.7880 O   0  0  0  0  0  0  0  0  0  0  0  0
  181.4800  175.3430  135.7850 C   0  0  0  0  0  0  0  0  0  0  0  0
  182.8860  175.0880  135.7550 N   0  0  0  0  0  2  0  0  0  0  0  0
  180.6300  174.9440  134.6300 C   0  0  0  0  0  2  0  0  0  0  0  0
  179.6080  173.8900  135.0220 C   0  0  0  0  0  2  0  0  0  0  0  0
  179.1690  171.9230  136.5000 C   0  0  0  0  0  1  0  0  0  0  0  0
  180.2310  172.7080  135.7670 C   0  0  1  0  0  3  0  0  0  0  0  0
  181.0710  171.6080  134.5940 S   0  0  0  0  0  0  0  0  0  0  0  0
  182.6590  171.0930  136.8190 C   0  0  0  0  0  1  0  0  0  0  0  0
  182.6790  171.7650  135.4470 C   0  0  1  0  0  3  0  0  0  0  0  0
  185.1610  171.9240  134.8880 C   0  0  0  0  0  1  0  0  0  0  0  0
  183.8290  171.2270  134.5940 C   0  0  0  0  0  2  0  0  0  0  0  0
  180.2600  178.3380  142.2130 O   0  0  0  0  0  1  0  0  0  0  0  0
  180.1010  180.5760  141.7370 O   0  0  0  0  0  0  0  0  0  0  0  0
  180.8460  179.4230  141.9480 C   0  0  0  0  0  0  0  0  0  0  0  0
  2  6  1  0  0  0  0
  3  1  2  0  0  0  0
  3 17  1  0  0  0  0
  5 21  1  0  0  0  0
  6 28  1  0  0  0  0
  8 43  1  6  0  0  0
  8  3  1  0  0  0  0
  9 29  1  0  0  0  0
  9  7  2  1  0  0  0
  9 39  1  0  0  0  0
 10  6  1  0  0  0  0
 11  5  1  1  0  0  0
 12 25  2  0  0  0  0
 13 20  1  6  0  0  0
 13 25  1  0  0  0  0
 13 30  1  0  0  0  0
 14  2  2  0  0  0  0
 15 13  1  0  0  0  0
 15 19  2  0  0  0  0
 18 10  1  6  0  0  0
 18  9  1  0  0  0  0
 21 24  1  0  0  0  0
 23 17  1  0  0  0  0
 23  2  1  0  0  0  0
 24 18  1  0  0  0  0
 24  4  1  1  0  0  0
 25 11  1  0  0  0  0
 26 12  1  0  0  0  0
 27  8  1  0  0  0  0
 27 19  1  0  0  0  0
 28 55  1  1  0  0  0
 28 29  1  0  0  0  0
 30 16  1  6  0  0  0
 30 22  1  0  0  0  0
 30 11  1  0  0  0  0
 32 31  1  6  0  0  0
 32 33  1  0  0  0  0
 32 40  1  0  0  0  0
 33 37  2  0  0  0  0
 35 34  1  0  0  0  0
 37 36  1  0  0  0  0
 37 38  1  0  0  0  0
 39 31  1  6  0  0  0
 39 35  1  0  0  0  0
 40 34  1  0  0  0  0
 40 38  2  0  0  0  0
 42 41  2  0  0  0  0
 43 42  1  0  0  0  0
 44 45  1  0  0  0  0
 44 42  1  0  0  0  0
 45 47  1  0  0  0  0
 47 46  1  6  0  0  0
 48 50  1  0  0  0  0
 48 47  1  0  0  0  0
 50 49  1  1  0  0  0
 52 51  1  0  0  0  0
 52 50  1  0  0  0  0
 54 55  2  0  0  0  0
 55 53  1  0  0  0  0
M  END
>  <MODEL>
1

>  <REMARK>
 VINA RESULT:      -4.9      0.000      0.000
  Name = 
  9 active torsions:
  status: ('A' for Active; 'I' for Inactive)
    1  A    between atoms: C_14  and  C_24
    2  A    between atoms: C_16  and  N_33
    3  A    between atoms: P_17  and  C_46
    4  A    between atoms: C_19  and  C_55
    5  A    between atoms: C_20  and  C_24
    6  A    between atoms: C_20  and  C_30
    7  A    between atoms: S_21  and  C_30
    8  A    between atoms: S_21  and  C_55
    9  A    between atoms: C_40  and  C_52
                            x       y       z     vdW  Elec       q    Type
                         _______ _______ _______ _____ _____    ______ ____

>  <TORSDO>
F 9

$$$$
=
 OpenBabel11062412113D

 55 59  0  0  1  0  0  0  0  0999 V2000
  185.9800  176.4580  143.6080 C   0  0  0  0  0  2  0  0  0  0  0  0
  188.0100  178.4730  139.7760 C   0  0  0  0  0  0  0  0  0  0  0  0
  186.0200  177.4910  142.7710 C   0  0  0  0  0  0  0  0  0  0  0  0
  183.7170  174.8120  138.1930 O   0  0  0  0  0  1  0  0  0  0  0  0
  181.8980  177.0380  138.4660 C   0  0  0  0  0  2  0  0  0  0  0  0
  187.6080  177.6330  138.6770 N   0  0  0  0  0  0  0  0  0  0  0  0
  186.2590  176.0890  135.5400 O   0  0  0  0  0  0  0  0  0  0  0  0
  185.2420  178.7420  143.1300 C   0  0  2  0  0  3  0  0  0  0  0  0
  186.5930  175.4040  136.8500 P   0  0  2  0  0  0  0  0  0  0  0  0
  186.1780  177.6100  138.3720 C   0  0  0  0  0  2  0  0  0  0  0  0
  181.0110  178.0330  139.2280 C   0  0  2  0  0  3  0  0  0  0  0  0
  181.8980  180.3780  138.3680 C   0  0  0  0  0  3  0  0  0  0  0  0
  181.3760  179.3590  140.7670 C   0  0  1  0  0  0  0  0  0  0  0  0
  188.8400  179.4020  139.5900 O   0  0  0  0  0  0  0  0  0  0  0  0
  182.6360  179.6820  141.5390 C   0  0  0  0  0  3  0  0  0  0  0  0
  179.5680  177.5890  141.2260 C   0  0  0  0  0  1  0  0  0  0  0  0
  186.5790  177.2570  141.3970 C   0  0  0  0  0  2  0  0  0  0  0  0
  185.6690  176.1750  138.2160 C   0  0  1  0  0  3  0  0  0  0  0  0
  183.8610  179.3240  141.1470 C   0  0  0  0  0  3  0  0  0  0  0  0
  180.3370  180.1890  141.1970 O   0  0  0  0  0  1  0  0  0  0  0  0
  183.3730  177.0700  138.8460 C   0  0  0  0  0  2  0  0  0  0  0  0
  181.9140  177.0300  141.2550 F   0  0  0  0  0  0  0  0  0  0  0  0
  187.4730  178.3070  141.0540 O   0  0  0  0  0  0  0  0  0  0  0  0
  184.1610  176.1110  137.9600 C   0  0  2  0  0  3  0  0  0  0  0  0
  181.5310  179.4640  139.2550 C   0  0  0  0  0  0  0  0  0  0  0  0
  182.3110  181.6320  138.7880 O   0  0  0  0  0  1  0  0  0  0  0  0
  185.0440  179.7140  141.9700 C   0  0  0  0  0  2  0  0  0  0  0  0
  188.5460  177.1920  137.6200 C   0  0  2  0  0  3  0  0  0  0  0  0
  188.3300  175.7210  137.2690 C   0  0  0  0  0  2  0  0  0  0  0  0
  180.9720  177.9000  140.7260 C   0  0  1  0  0  0  0  0  0  0  0  0
  184.8510  173.3220  136.2950 C   0  0  0  0  0  2  0  0  0  0  0  0
  184.7340  172.5630  134.9680 C   0  0  2  0  0  3  0  0  0  0  0  0
  183.4410  171.9020  134.8360 N   0  0  0  0  0  0  0  0  0  0  0  0
  187.0840  171.5260  135.4360 C   0  0  0  0  0  2  0  0  0  0  0  0
  187.3760  172.9920  135.7650 C   0  0  0  0  0  2  0  0  0  0  0  0
  182.5850  169.6280  134.5940 C   0  0  0  0  0  1  0  0  0  0  0  0
  183.6720  170.6310  134.7610 C   0  0  0  0  0  0  0  0  0  0  0  0
  185.0410  170.2710  134.8900 N   0  0  0  0  0  0  0  0  0  0  0  0
  186.3170  173.6070  136.7070 C   0  0  1  0  0  3  0  0  0  0  0  0
  185.6580  171.3990  135.0070 C   0  0  0  0  0  0  0  0  0  0  0  0
  184.2560  178.7440  145.8780 O   0  0  0  0  0  0  0  0  0  0  0  0
  185.3420  179.3260  145.6270 C   0  0  0  0  0  0  0  0  0  0  0  0
  185.8200  179.4330  144.2840 N   0  0  0  0  0  2  0  0  0  0  0  0
  186.1220  179.9310  146.7410 C   0  0  0  0  0  2  0  0  0  0  0  0
  186.5540  178.8870  147.7560 C   0  0  0  0  0  2  0  0  0  0  0  0
  188.6250  178.1320  148.9360 C   0  0  0  0  0  1  0  0  0  0  0  0
  188.0190  178.4730  147.5950 C   0  0  1  0  0  3  0  0  0  0  0  0
  188.1380  177.0240  146.5100 S   0  0  0  0  0  0  0  0  0  0  0  0
  190.9090  176.8120  146.3820 C   0  0  0  0  0  1  0  0  0  0  0  0
  189.7240  177.5720  145.7890 C   0  0  1  0  0  3  0  0  0  0  0  0
  190.2580  178.7310  143.5820 C   0  0  0  0  0  1  0  0  0  0  0  0
  189.7200  177.4680  144.2620 C   0  0  0  0  0  2  0  0  0  0  0  0
  190.7490  178.0840  137.2630 O   0  0  0  0  0  0  0  0  0  0  0  0
  190.4960  176.7670  139.1250 O   0  0  0  0  0  1  0  0  0  0  0  0
  189.9920  177.3780  137.9840 C   0  0  0  0  0  0  0  0  0  0  0  0
  2 23  1  0  0  0  0
  3  8  1  0  0  0  0
  3  1  2  0  0  0  0
  5 21  1  0  0  0  0
  6  2  1  0  0  0  0
  8 43  1  1  0  0  0
  9  7  2  6  0  0  0
  9 29  1  0  0  0  0
  9 18  1  0  0  0  0
 10  6  1  0  0  0  0
 11  5  1  6  0  0  0
 11 25  1  0  0  0  0
 11 30  1  0  0  0  0
 12 26  1  0  0  0  0
 12 25  2  0  0  0  0
 13 20  1  1  0  0  0
 13 15  1  0  0  0  0
 14  2  2  0  0  0  0
 17  3  1  0  0  0  0
 18 10  1  6  0  0  0
 19 15  2  0  0  0  0
 19 27  1  0  0  0  0
 23 17  1  0  0  0  0
 24  4  1  1  0  0  0
 24 18  1  0  0  0  0
 24 21  1  0  0  0  0
 25 13  1  0  0  0  0
 27  8  1  0  0  0  0
 28 55  1  1  0  0  0
 28  6  1  0  0  0  0
 29 28  1  0  0  0  0
 30 13  1  0  0  0  0
 30 16  1  1  0  0  0
 30 22  1  0  0  0  0
 31 39  1  0  0  0  0
 32 40  1  0  0  0  0
 32 31  1  1  0  0  0
 33 32  1  0  0  0  0
 34 35  1  0  0  0  0
 36 37  1  0  0  0  0
 37 33  2  0  0  0  0
 37 38  1  0  0  0  0
 38 40  2  0  0  0  0
 39 35  1  6  0  0  0
 39  9  1  0  0  0  0
 40 34  1  0  0  0  0
 42 41  2  0  0  0  0
 42 44  1  0  0  0  0
 43 42  1  0  0  0  0
 44 45  1  0  0  0  0
 47 45  1  0  0  0  0
 47 46  1  1  0  0  0
 48 47  1  0  0  0  0
 50 49  1  1  0  0  0
 50 48  1  0  0  0  0
 51 52  1  0  0  0  0
 52 50  1  0  0  0  0
 53 55  2  0  0  0  0
 55 54  1  0  0  0  0
M  END
>  <MODEL>
2

>  <REMARK>
 VINA RESULT:      -2.2      3.392     10.188
  Name = 
  9 active torsions:
  status: ('A' for Active; 'I' for Inactive)
    1  A    between atoms: C_14  and  C_24
    2  A    between atoms: C_16  and  N_33
    3  A    between atoms: P_17  and  C_46
    4  A    between atoms: C_19  and  C_55
    5  A    between atoms: C_20  and  C_24
    6  A    between atoms: C_20  and  C_30
    7  A    between atoms: S_21  and  C_30
    8  A    between atoms: S_21  and  C_55
    9  A    between atoms: C_40  and  C_52
                            x       y       z     vdW  Elec       q    Type
                         _______ _______ _______ _____ _____    ______ ____

>  <TORSDO>
F 9

$$$$
