=
 OpenBabel11062416313D

 29 32  0  0  1  0  0  0  0  0999 V2000
  190.7330  177.9320  142.9640 C   0  0  0  0  0  2  0  0  0  0  0  0
  191.0550  175.6010  143.2870 O   0  0  0  0  0  0  0  0  0  0  0  0
  190.7250  176.5140  142.4870 C   0  0  0  0  0  0  0  0  0  0  0  0
  190.4320  176.1750  141.1260 N   0  0  0  0  0  2  0  0  0  0  0  0
  187.3530  178.5850  136.6790 S   0  0  0  0  0  0  0  0  0  0  0  0
  190.4180  177.2130  138.9560 C   0  0  0  0  0  2  0  0  0  0  0  0
  189.7660  178.2470  138.0710 C   0  0  2  0  0  3  0  0  0  0  0  0
  188.3180  177.7020  137.9650 C   0  0  2  0  0  0  0  0  0  0  0  0
  188.5240  177.7370  140.3980 C   0  0  0  0  0  3  0  0  0  0  0  0
  189.1140  178.0610  136.7520 C   0  0  1  0  0  0  0  0  0  0  0  0
  187.8210  178.1550  139.3220 C   0  0  0  0  0  3  0  0  0  0  0  0
  189.8280  177.0380  140.1560 C   0  0  1  0  0  3  0  0  0  0  0  0
  190.1440  176.8200  134.9450 O   0  0  0  0  0  0  0  0  0  0  0  0
  189.4180  176.8080  135.9750 C   0  0  0  0  0  0  0  0  0  0  0  0
  188.9040  175.6020  136.4290 O   0  0  0  0  0  1  0  0  0  0  0  0
  191.3490  178.0470  144.3580 C   0  0  0  0  0  2  0  0  0  0  0  0
  190.0360  176.9410  147.5770 O   0  0  0  0  0  1  0  0  0  0  0  0
  192.0920  176.5220  146.6710 O   0  0  0  0  0  0  0  0  0  0  0  0
  190.8070  177.0450  146.5880 C   0  0  0  0  0  0  0  0  0  0  0  0
  190.3770  177.7150  145.3940 N   0  0  0  0  0  0  0  0  0  0  0  0
  189.0260  178.2520  145.2820 C   0  0  0  0  0  2  0  0  0  0  0  0
  185.4510  178.2400  144.3010 C   0  0  1  0  0  3  0  0  0  0  0  0
  187.4690  176.7960  143.9600 C   0  0  0  0  0  2  0  0  0  0  0  0
  186.6260  177.9300  143.3770 C   0  0  0  0  0  2  0  0  0  0  0  0
  186.8150  177.5180  146.2800 C   0  0  0  0  0  2  0  0  0  0  0  0
  187.9800  177.1450  145.3590 C   0  0  2  0  0  3  0  0  0  0  0  0
  185.9660  178.6410  145.6810 C   0  0  0  0  0  2  0  0  0  0  0  0
  183.5010  179.2680  144.4800 C   0  0  0  0  0  1  0  0  0  0  0  0
  184.7000  179.2870  143.7660 O   0  0  0  0  0  0  0  0  0  0  0  0
  1 16  1  0  0  0  0
  3  1  1  0  0  0  0
  3  2  2  0  0  0  0
  4  3  1  0  0  0  0
  5 10  1  0  0  0  0
  5  8  1  0  0  0  0
  6 12  1  0  0  0  0
  7  6  1  6  0  0  0
  8  7  1  0  0  0  0
  8 11  1  1  0  0  0
 10 14  1  6  0  0  0
 10  8  1  0  0  0  0
 10  7  1  0  0  0  0
 11  9  2  0  0  0  0
 12  9  1  0  0  0  0
 12  4  1  6  0  0  0
 13 14  2  0  0  0  0
 14 15  1  0  0  0  0
 16 20  1  0  0  0  0
 19 18  2  0  0  0  0
 19 17  1  0  0  0  0
 20 19  1  0  0  0  0
 21 20  1  0  0  0  0
 22 29  1  6  0  0  0
 22 27  1  0  0  0  0
 23 26  1  0  0  0  0
 24 23  1  0  0  0  0
 24 22  1  0  0  0  0
 26 21  1  6  0  0  0
 26 25  1  0  0  0  0
 27 25  1  0  0  0  0
 29 28  1  0  0  0  0
M  END
>  <MODEL>
1

>  <REMARK>
 VINA RESULT:      -7.9      0.000      0.000
  Name = 
  8 active torsions:
  status: ('A' for Active; 'I' for Inactive)
    1  A    between atoms: C_2  and  O_27
    2  A    between atoms: C_11  and  C_21
    3  A    between atoms: C_11  and  N_28
    4  A    between atoms: C_13  and  C_21
    5  A    between atoms: C_14  and  C_19
    6  A    between atoms: C_15  and  C_22
    7  A    between atoms: C_15  and  N_28
    8  A    between atoms: N_24  and  C_25
                            x       y       z     vdW  Elec       q    Type
                         _______ _______ _______ _____ _____    ______ ____

>  <TORSDO>
F 8

$$$$
=
 OpenBabel11062416313D

 29 32  0  0  1  0  0  0  0  0999 V2000
  186.9990  178.2850  142.2970 C   0  0  0  0  0  2  0  0  0  0  0  0
  185.0680  179.5530  141.7460 O   0  0  0  0  0  0  0  0  0  0  0  0
  186.0580  178.9100  141.3150 C   0  0  0  0  0  0  0  0  0  0  0  0
  186.2110  178.7300  139.9020 N   0  0  0  0  0  2  0  0  0  0  0  0
  190.9790  175.7040  138.1210 S   0  0  0  0  0  0  0  0  0  0  0  0
  188.6010  178.6060  139.6650 C   0  0  0  0  0  2  0  0  0  0  0  0
  189.7470  178.1300  138.8070 C   0  0  2  0  0  3  0  0  0  0  0  0
  189.5380  176.5940  138.8270 C   0  0  2  0  0  0  0  0  0  0  0  0
  187.3050  177.2630  138.0970 C   0  0  0  0  0  3  0  0  0  0  0  0
  190.8560  177.2130  139.1640 C   0  0  1  0  0  0  0  0  0  0  0  0
  188.4030  176.5210  137.8270 C   0  0  0  0  0  3  0  0  0  0  0  0
  187.3770  178.2330  139.2380 C   0  0  1  0  0  3  0  0  0  0  0  0
  192.1380  177.5100  141.1980 O   0  0  0  0  0  0  0  0  0  0  0  0
  191.1490  176.9810  140.6220 C   0  0  0  0  0  0  0  0  0  0  0  0
  190.2830  176.1840  141.3570 O   0  0  0  0  0  1  0  0  0  0  0  0
  186.2570  177.3830  143.2810 C   0  0  0  0  0  2  0  0  0  0  0  0
  185.9210  178.4640  146.7500 O   0  0  0  0  0  1  0  0  0  0  0  0
  184.5620  178.9560  144.9790 O   0  0  0  0  0  0  0  0  0  0  0  0
  185.7100  178.3820  145.5120 C   0  0  0  0  0  0  0  0  0  0  0  0
  186.6310  177.6850  144.6600 N   0  0  0  0  0  0  0  0  0  0  0  0
  187.8500  177.0950  145.1980 C   0  0  0  0  0  2  0  0  0  0  0  0
  191.3970  176.8240  146.2400 C   0  0  1  0  0  3  0  0  0  0  0  0
  190.0290  178.2240  144.6770 C   0  0  0  0  0  2  0  0  0  0  0  0
  190.9030  176.9760  144.8030 C   0  0  0  0  0  2  0  0  0  0  0  0
  189.3190  177.9540  147.0760 C   0  0  0  0  0  2  0  0  0  0  0  0
  188.8400  178.1690  145.6380 C   0  0  2  0  0  3  0  0  0  0  0  0
  190.2080  176.7140  147.1900 C   0  0  0  0  0  2  0  0  0  0  0  0
  192.5240  175.5970  147.6960 C   0  0  0  0  0  1  0  0  0  0  0  0
  192.1810  175.6730  146.3450 O   0  0  0  0  0  0  0  0  0  0  0  0
  1 16  1  0  0  0  0
  3  2  2  0  0  0  0
  3  1  1  0  0  0  0
  4  3  1  0  0  0  0
  5  8  1  0  0  0  0
  5 10  1  0  0  0  0
  7  8  1  0  0  0  0
  7 10  1  0  0  0  0
  7  6  1  1  0  0  0
  8 11  1  1  0  0  0
  8 10  1  0  0  0  0
  9 12  1  0  0  0  0
 10 14  1  1  0  0  0
 11  9  2  0  0  0  0
 12  6  1  0  0  0  0
 12  4  1  1  0  0  0
 14 13  2  0  0  0  0
 14 15  1  0  0  0  0
 16 20  1  0  0  0  0
 18 19  2  0  0  0  0
 19 17  1  0  0  0  0
 20 21  1  0  0  0  0
 20 19  1  0  0  0  0
 22 29  1  6  0  0  0
 22 27  1  0  0  0  0
 23 24  1  0  0  0  0
 23 26  1  0  0  0  0
 24 22  1  0  0  0  0
 25 27  1  0  0  0  0
 26 21  1  6  0  0  0
 26 25  1  0  0  0  0
 29 28  1  0  0  0  0
M  END
>  <MODEL>
2

>  <REMARK>
 VINA RESULT:      -7.9      2.516      5.002
  Name = 
  8 active torsions:
  status: ('A' for Active; 'I' for Inactive)
    1  A    between atoms: C_2  and  O_27
    2  A    between atoms: C_11  and  C_21
    3  A    between atoms: C_11  and  N_28
    4  A    between atoms: C_13  and  C_21
    5  A    between atoms: C_14  and  C_19
    6  A    between atoms: C_15  and  C_22
    7  A    between atoms: C_15  and  N_28
    8  A    between atoms: N_24  and  C_25
                            x       y       z     vdW  Elec       q    Type
                         _______ _______ _______ _____ _____    ______ ____

>  <TORSDO>
F 8

$$$$
=
 OpenBabel11062416313D

 29 32  0  0  1  0  0  0  0  0999 V2000
  185.0390  179.3540  142.3960 C   0  0  0  0  0  2  0  0  0  0  0  0
  186.9270  178.5730  141.1850 O   0  0  0  0  0  0  0  0  0  0  0  0
  185.7050  178.8670  141.1470 C   0  0  0  0  0  0  0  0  0  0  0  0
  185.0100  178.8000  139.8960 N   0  0  0  0  0  2  0  0  0  0  0  0
  179.2070  179.9220  140.2540 S   0  0  0  0  0  0  0  0  0  0  0  0
  182.7870  178.0170  140.3760 C   0  0  0  0  0  2  0  0  0  0  0  0
  181.3270  178.1010  140.0040 C   0  0  2  0  0  3  0  0  0  0  0  0
  181.0100  179.5880  140.3070 C   0  0  2  0  0  0  0  0  0  0  0  0
  182.9420  179.9100  138.8480 C   0  0  0  0  0  3  0  0  0  0  0  0
  180.1730  178.4780  140.8550 C   0  0  1  0  0  0  0  0  0  0  0  0
  181.6400  180.1950  139.0710 C   0  0  0  0  0  3  0  0  0  0  0  0
  183.5920  178.8750  139.7170 C   0  0  1  0  0  3  0  0  0  0  0  0
  179.6570  177.6540  143.0740 O   0  0  0  0  0  1  0  0  0  0  0  0
  180.3410  178.4280  142.3500 C   0  0  0  0  0  0  0  0  0  0  0  0
  181.3010  179.2370  142.9400 O   0  0  0  0  0  0  0  0  0  0  0  0
  184.9420  178.2460  143.4440 C   0  0  0  0  0  2  0  0  0  0  0  0
  185.3860  179.0220  146.9810 O   0  0  0  0  0  1  0  0  0  0  0  0
  183.4460  179.0000  145.7720 O   0  0  0  0  0  0  0  0  0  0  0  0
  184.8290  178.8980  145.8590 C   0  0  0  0  0  0  0  0  0  0  0  0
  185.6080  178.6330  144.6840 N   0  0  0  0  0  0  0  0  0  0  0  0
  187.0610  178.5430  144.7530 C   0  0  0  0  0  2  0  0  0  0  0  0
  190.4490  177.0440  144.6290 C   0  0  1  0  0  3  0  0  0  0  0  0
  188.4760  177.0340  146.1720 C   0  0  0  0  0  2  0  0  0  0  0  0
  189.8130  177.7010  145.8510 C   0  0  0  0  0  2  0  0  0  0  0  0
  188.1690  176.5050  143.7310 C   0  0  0  0  0  2  0  0  0  0  0  0
  187.5190  177.1060  144.9800 C   0  0  2  0  0  3  0  0  0  0  0  0
  189.5160  177.1650  143.4280 C   0  0  0  0  0  2  0  0  0  0  0  0
  191.3050  178.9470  143.8960 C   0  0  0  0  0  1  0  0  0  0  0  0
  191.6610  177.6720  144.3370 O   0  0  0  0  0  0  0  0  0  0  0  0
  1 16  1  0  0  0  0
  3  2  2  0  0  0  0
  3  1  1  0  0  0  0
  4  3  1  0  0  0  0
  5  8  1  0  0  0  0
  5 10  1  0  0  0  0
  7  8  1  0  0  0  0
  7  6  1  1  0  0  0
  7 10  1  0  0  0  0
  8 11  1  1  0  0  0
  8 10  1  0  0  0  0
  9 11  2  0  0  0  0
  9 12  1  0  0  0  0
 10 14  1  1  0  0  0
 12  4  1  1  0  0  0
 12  6  1  0  0  0  0
 14 15  2  0  0  0  0
 14 13  1  0  0  0  0
 16 20  1  0  0  0  0
 18 19  2  0  0  0  0
 19 17  1  0  0  0  0
 20 21  1  0  0  0  0
 20 19  1  0  0  0  0
 22 29  1  6  0  0  0
 22 24  1  0  0  0  0
 24 23  1  0  0  0  0
 25 26  1  0  0  0  0
 26 21  1  6  0  0  0
 26 23  1  0  0  0  0
 27 25  1  0  0  0  0
 27 22  1  0  0  0  0
 28 29  1  0  0  0  0
M  END
>  <MODEL>
3

>  <REMARK>
 VINA RESULT:      -7.7      3.959      7.095
  Name = 
  8 active torsions:
  status: ('A' for Active; 'I' for Inactive)
    1  A    between atoms: C_2  and  O_27
    2  A    between atoms: C_11  and  C_21
    3  A    between atoms: C_11  and  N_28
    4  A    between atoms: C_13  and  C_21
    5  A    between atoms: C_14  and  C_19
    6  A    between atoms: C_15  and  C_22
    7  A    between atoms: C_15  and  N_28
    8  A    between atoms: N_24  and  C_25
                            x       y       z     vdW  Elec       q    Type
                         _______ _______ _______ _____ _____    ______ ____

>  <TORSDO>
F 8

$$$$
=
 OpenBabel11062416313D

 29 32  0  0  1  0  0  0  0  0999 V2000
  186.4170  177.9760  145.2870 C   0  0  0  0  0  2  0  0  0  0  0  0
  185.4450  179.8190  146.4270 O   0  0  0  0  0  0  0  0  0  0  0  0
  185.4750  179.1350  145.3710 C   0  0  0  0  0  0  0  0  0  0  0  0
  184.5540  179.4400  144.3180 N   0  0  0  0  0  2  0  0  0  0  0  0
  184.2880  178.5510  138.4690 S   0  0  0  0  0  0  0  0  0  0  0  0
  183.5050  178.3520  142.4450 C   0  0  0  0  0  2  0  0  0  0  0  0
  183.7140  177.7250  141.0890 C   0  0  2  0  0  3  0  0  0  0  0  0
  184.2410  178.9280  140.2640 C   0  0  2  0  0  0  0  0  0  0  0  0
  185.8250  179.0290  142.1210 C   0  0  0  0  0  3  0  0  0  0  0  0
  183.0960  178.0910  139.7920 C   0  0  1  0  0  0  0  0  0  0  0  0
  185.6640  178.9330  140.7820 C   0  0  0  0  0  3  0  0  0  0  0  0
  184.6020  178.9240  142.9830 C   0  0  1  0  0  3  0  0  0  0  0  0
  181.8510  180.1530  139.5380 O   0  0  0  0  0  0  0  0  0  0  0  0
  181.8410  178.9220  139.8080 C   0  0  0  0  0  0  0  0  0  0  0  0
  180.6350  178.3010  140.1000 O   0  0  0  0  0  1  0  0  0  0  0  0
  186.9890  177.6220  146.6590 C   0  0  0  0  0  2  0  0  0  0  0  0
  190.4310  177.2120  147.7980 O   0  0  0  0  0  0  0  0  0  0  0  0
  188.6630  178.1030  148.9390 O   0  0  0  0  0  1  0  0  0  0  0  0
  189.2270  177.5770  147.7840 C   0  0  0  0  0  0  0  0  0  0  0  0
  188.4350  177.4320  146.5960 N   0  0  0  0  0  0  0  0  0  0  0  0
  189.0150  176.9010  145.3680 C   0  0  0  0  0  2  0  0  0  0  0  0
  190.6980  177.0290  142.0680 C   0  0  1  0  0  3  0  0  0  0  0  0
  189.7030  178.6450  143.7020 C   0  0  0  0  0  2  0  0  0  0  0  0
  189.4400  177.8040  142.4540 C   0  0  0  0  0  2  0  0  0  0  0  0
  191.3880  176.9450  144.4780 C   0  0  0  0  0  2  0  0  0  0  0  0
  190.1630  177.7750  144.8730 C   0  0  2  0  0  3  0  0  0  0  0  0
  191.1230  176.1200  143.2180 C   0  0  0  0  0  2  0  0  0  0  0  0
  190.5600  177.1360  139.8630 C   0  0  0  0  0  1  0  0  0  0  0  0
  190.4400  176.2530  140.9370 O   0  0  0  0  0  0  0  0  0  0  0  0
  1  3  1  0  0  0  0
  1 16  1  0  0  0  0
  3  2  2  0  0  0  0
  4  3  1  0  0  0  0
  5 10  1  0  0  0  0
  5  8  1  0  0  0  0
  6 12  1  0  0  0  0
  7  6  1  1  0  0  0
  8 11  1  1  0  0  0
  8  7  1  0  0  0  0
  9 12  1  0  0  0  0
 10 14  1  6  0  0  0
 10  8  1  0  0  0  0
 10  7  1  0  0  0  0
 11  9  2  0  0  0  0
 12  4  1  6  0  0  0
 13 14  2  0  0  0  0
 14 15  1  0  0  0  0
 19 17  2  0  0  0  0
 19 18  1  0  0  0  0
 20 16  1  0  0  0  0
 20 19  1  0  0  0  0
 21 20  1  0  0  0  0
 22 29  1  6  0  0  0
 22 24  1  0  0  0  0
 22 27  1  0  0  0  0
 23 26  1  0  0  0  0
 24 23  1  0  0  0  0
 25 26  1  0  0  0  0
 26 21  1  6  0  0  0
 27 25  1  0  0  0  0
 28 29  1  0  0  0  0
M  END
>  <MODEL>
4

>  <REMARK>
 VINA RESULT:      -7.6      2.894      5.862
  Name = 
  8 active torsions:
  status: ('A' for Active; 'I' for Inactive)
    1  A    between atoms: C_2  and  O_27
    2  A    between atoms: C_11  and  C_21
    3  A    between atoms: C_11  and  N_28
    4  A    between atoms: C_13  and  C_21
    5  A    between atoms: C_14  and  C_19
    6  A    between atoms: C_15  and  C_22
    7  A    between atoms: C_15  and  N_28
    8  A    between atoms: N_24  and  C_25
                            x       y       z     vdW  Elec       q    Type
                         _______ _______ _______ _____ _____    ______ ____

>  <TORSDO>
F 8

$$$$
=
 OpenBabel11062416313D

 29 32  0  0  1  0  0  0  0  0999 V2000
  188.4240  177.6690  141.5030 C   0  0  0  0  0  2  0  0  0  0  0  0
  186.6420  179.2030  141.8320 O   0  0  0  0  0  0  0  0  0  0  0  0
  187.2910  178.5120  141.0070 C   0  0  0  0  0  0  0  0  0  0  0  0
  186.8770  178.4930  139.6360 N   0  0  0  0  0  2  0  0  0  0  0  0
  190.2300  175.2540  135.9840 S   0  0  0  0  0  0  0  0  0  0  0  0
  188.9410  178.2250  138.4280 C   0  0  0  0  0  2  0  0  0  0  0  0
  189.5900  177.7180  137.1640 C   0  0  2  0  0  3  0  0  0  0  0  0
  189.2840  176.2000  137.2400 C   0  0  2  0  0  0  0  0  0  0  0  0
  187.0110  177.0500  137.5120 C   0  0  0  0  0  3  0  0  0  0  0  0
  190.6690  176.7130  137.0130 C   0  0  1  0  0  0  0  0  0  0  0  0
  187.8360  176.2530  136.7980 C   0  0  0  0  0  3  0  0  0  0  0  0
  187.6240  177.9540  138.5400 C   0  0  1  0  0  3  0  0  0  0  0  0
  191.0290  175.8700  139.2550 O   0  0  0  0  0  1  0  0  0  0  0  0
  191.5160  176.3890  138.2150 C   0  0  0  0  0  0  0  0  0  0  0  0
  192.8790  176.6440  138.1580 O   0  0  0  0  0  0  0  0  0  0  0  0
  189.5160  178.5240  142.1430 C   0  0  0  0  0  2  0  0  0  0  0  0
  191.6870  176.9400  144.6120 O   0  0  0  0  0  1  0  0  0  0  0  0
  191.8800  176.9100  142.3340 O   0  0  0  0  0  0  0  0  0  0  0  0
  191.1940  177.2470  143.4950 C   0  0  0  0  0  0  0  0  0  0  0  0
  189.9500  177.9580  143.4170 N   0  0  0  0  0  0  0  0  0  0  0  0
  189.2070  178.3030  144.6230 C   0  0  0  0  0  2  0  0  0  0  0  0
  185.9480  177.9340  146.3490 C   0  0  1  0  0  3  0  0  0  0  0  0
  187.2200  176.7750  144.5280 C   0  0  0  0  0  2  0  0  0  0  0  0
  186.1690  177.8410  144.8410 C   0  0  0  0  0  2  0  0  0  0  0  0
  188.3240  177.2320  146.7430 C   0  0  0  0  0  2  0  0  0  0  0  0
  188.5430  177.0740  145.2360 C   0  0  2  0  0  3  0  0  0  0  0  0
  187.2580  178.2860  147.0470 C   0  0  0  0  0  2  0  0  0  0  0  0
  184.1370  178.9000  145.5250 C   0  0  0  0  0  1  0  0  0  0  0  0
  184.9990  178.9200  146.6220 O   0  0  0  0  0  0  0  0  0  0  0  0
  1 16  1  0  0  0  0
  3  1  1  0  0  0  0
  3  2  2  0  0  0  0
  4  3  1  0  0  0  0
  5 10  1  0  0  0  0
  5  8  1  0  0  0  0
  6 12  1  0  0  0  0
  7  8  1  0  0  0  0
  7  6  1  1  0  0  0
  8 11  1  1  0  0  0
  9 12  1  0  0  0  0
 10  7  1  0  0  0  0
 10  8  1  0  0  0  0
 10 14  1  1  0  0  0
 11  9  2  0  0  0  0
 12  4  1  1  0  0  0
 14 13  1  0  0  0  0
 15 14  2  0  0  0  0
 16 20  1  0  0  0  0
 18 19  2  0  0  0  0
 19 17  1  0  0  0  0
 20 19  1  0  0  0  0
 20 21  1  0  0  0  0
 22 29  1  6  0  0  0
 22 27  1  0  0  0  0
 23 24  1  0  0  0  0
 23 26  1  0  0  0  0
 24 22  1  0  0  0  0
 25 27  1  0  0  0  0
 26 21  1  6  0  0  0
 26 25  1  0  0  0  0
 28 29  1  0  0  0  0
M  END
>  <MODEL>
5

>  <REMARK>
 VINA RESULT:      -7.5      2.101      3.047
  Name = 
  8 active torsions:
  status: ('A' for Active; 'I' for Inactive)
    1  A    between atoms: C_2  and  O_27
    2  A    between atoms: C_11  and  C_21
    3  A    between atoms: C_11  and  N_28
    4  A    between atoms: C_13  and  C_21
    5  A    between atoms: C_14  and  C_19
    6  A    between atoms: C_15  and  C_22
    7  A    between atoms: C_15  and  N_28
    8  A    between atoms: N_24  and  C_25
                            x       y       z     vdW  Elec       q    Type
                         _______ _______ _______ _____ _____    ______ ____

>  <TORSDO>
F 8

$$$$
=
 OpenBabel11062416313D

 29 32  0  0  1  0  0  0  0  0999 V2000
  185.8550  178.6400  141.3120 C   0  0  0  0  0  2  0  0  0  0  0  0
  184.4750  179.8660  139.8180 O   0  0  0  0  0  0  0  0  0  0  0  0
  185.4520  179.0820  139.9410 C   0  0  0  0  0  0  0  0  0  0  0  0
  186.0940  178.5790  138.7640 N   0  0  0  0  0  2  0  0  0  0  0  0
  191.5500  176.5860  137.6170 S   0  0  0  0  0  0  0  0  0  0  0  0
  187.5090  176.8660  137.8430 C   0  0  0  0  0  2  0  0  0  0  0  0
  188.8090  176.1120  137.9830 C   0  0  2  0  0  3  0  0  0  0  0  0
  189.8510  177.2480  137.8130 C   0  0  2  0  0  0  0  0  0  0  0  0
  188.5040  178.2420  139.5920 C   0  0  0  0  0  3  0  0  0  0  0  0
  189.9210  175.9900  137.0090 C   0  0  1  0  0  0  0  0  0  0  0  0
  189.7360  177.8490  139.1990 C   0  0  0  0  0  3  0  0  0  0  0  0
  187.3390  177.8750  138.7210 C   0  0  1  0  0  3  0  0  0  0  0  0
  189.5700  175.4190  134.6810 O   0  0  0  0  0  0  0  0  0  0  0  0
  189.6440  176.3140  135.5650 C   0  0  0  0  0  0  0  0  0  0  0  0
  189.4360  177.6390  135.2080 O   0  0  0  0  0  1  0  0  0  0  0  0
  184.6380  178.2710  142.1590 C   0  0  0  0  0  2  0  0  0  0  0  0
  183.8120  179.0370  145.6300 O   0  0  0  0  0  1  0  0  0  0  0  0
  182.4090  178.9650  143.8260 O   0  0  0  0  0  0  0  0  0  0  0  0
  183.6800  178.9040  144.3850 C   0  0  0  0  0  0  0  0  0  0  0  0
  184.8240  178.6690  143.5520 N   0  0  0  0  0  0  0  0  0  0  0  0
  186.1670  178.6230  144.1170 C   0  0  0  0  0  2  0  0  0  0  0  0
  189.3870  177.2040  145.2820 C   0  0  1  0  0  3  0  0  0  0  0  0
  187.0070  177.2770  146.0600 C   0  0  0  0  0  2  0  0  0  0  0  0
  188.3770  177.9470  146.1530 C   0  0  0  0  0  2  0  0  0  0  0  0
  187.5450  176.5340  143.7160 C   0  0  0  0  0  2  0  0  0  0  0  0
  186.5120  177.2220  144.6130 C   0  0  2  0  0  3  0  0  0  0  0  0
  188.9180  177.2000  143.8300 C   0  0  0  0  0  2  0  0  0  0  0  0
  191.5430  176.8010  145.5700 C   0  0  0  0  0  1  0  0  0  0  0  0
  190.6290  177.8360  145.3640 O   0  0  0  0  0  0  0  0  0  0  0  0
  1 16  1  0  0  0  0
  2  3  2  0  0  0  0
  3  1  1  0  0  0  0
  4  3  1  0  0  0  0
  5  8  1  0  0  0  0
  6 12  1  0  0  0  0
  7  6  1  6  0  0  0
  8  7  1  0  0  0  0
  8 11  1  6  0  0  0
 10 14  1  6  0  0  0
 10  5  1  0  0  0  0
 10  8  1  0  0  0  0
 10  7  1  0  0  0  0
 11  9  2  0  0  0  0
 12  4  1  6  0  0  0
 12  9  1  0  0  0  0
 13 14  2  0  0  0  0
 15 14  1  0  0  0  0
 16 20  1  0  0  0  0
 18 19  2  0  0  0  0
 19 17  1  0  0  0  0
 20 21  1  0  0  0  0
 20 19  1  0  0  0  0
 22 29  1  6  0  0  0
 22 24  1  0  0  0  0
 23 24  1  0  0  0  0
 25 27  1  0  0  0  0
 25 26  1  0  0  0  0
 26 21  1  6  0  0  0
 26 23  1  0  0  0  0
 27 22  1  0  0  0  0
 29 28  1  0  0  0  0
M  END
>  <MODEL>
6

>  <REMARK>
 VINA RESULT:      -7.5      2.342      4.975
  Name = 
  8 active torsions:
  status: ('A' for Active; 'I' for Inactive)
    1  A    between atoms: C_2  and  O_27
    2  A    between atoms: C_11  and  C_21
    3  A    between atoms: C_11  and  N_28
    4  A    between atoms: C_13  and  C_21
    5  A    between atoms: C_14  and  C_19
    6  A    between atoms: C_15  and  C_22
    7  A    between atoms: C_15  and  N_28
    8  A    between atoms: N_24  and  C_25
                            x       y       z     vdW  Elec       q    Type
                         _______ _______ _______ _____ _____    ______ ____

>  <TORSDO>
F 8

$$$$
=
 OpenBabel11062416313D

 29 32  0  0  1  0  0  0  0  0999 V2000
  185.4930  178.2520  142.9430 C   0  0  0  0  0  2  0  0  0  0  0  0
  183.9680  179.5640  144.2040 O   0  0  0  0  0  0  0  0  0  0  0  0
  185.0540  178.9300  144.2020 C   0  0  0  0  0  0  0  0  0  0  0  0
  185.8710  178.9430  145.3790 N   0  0  0  0  0  2  0  0  0  0  0  0
  191.1890  176.6620  146.6350 S   0  0  0  0  0  0  0  0  0  0  0  0
  187.8630  177.8260  144.6240 C   0  0  0  0  0  2  0  0  0  0  0  0
  188.9380  176.8240  144.9670 C   0  0  2  0  0  3  0  0  0  0  0  0
  189.6200  177.5000  146.1840 C   0  0  2  0  0  0  0  0  0  0  0  0
  187.3120  177.5430  146.9820 C   0  0  0  0  0  3  0  0  0  0  0  0
  190.4070  177.0180  145.0090 C   0  0  1  0  0  0  0  0  0  0  0  0
  188.5820  177.1510  147.2300 C   0  0  0  0  0  3  0  0  0  0  0  0
  187.0030  178.1040  145.6260 C   0  0  1  0  0  3  0  0  0  0  0  0
  190.5640  179.3750  144.4730 O   0  0  0  0  0  1  0  0  0  0  0  0
  190.9920  178.2040  144.2890 C   0  0  0  0  0  0  0  0  0  0  0  0
  192.0550  177.9980  143.4210 O   0  0  0  0  0  0  0  0  0  0  0  0
  185.9240  179.2670  141.8850 C   0  0  0  0  0  2  0  0  0  0  0  0
  185.5860  178.6230  138.3100 O   0  0  0  0  0  0  0  0  0  0  0  0
  184.1810  179.8050  139.6720 O   0  0  0  0  0  1  0  0  0  0  0  0
  185.2970  179.0010  139.4750 C   0  0  0  0  0  0  0  0  0  0  0  0
  186.1210  178.6260  140.5880 N   0  0  0  0  0  0  0  0  0  0  0  0
  187.2840  177.7670  140.4040 C   0  0  0  0  0  2  0  0  0  0  0  0
  190.6390  176.7920  139.1660 C   0  0  1  0  0  3  0  0  0  0  0  0
  188.9880  178.6360  138.7820 C   0  0  0  0  0  2  0  0  0  0  0  0
  189.4780  177.2710  138.2990 C   0  0  0  0  0  2  0  0  0  0  0  0
  189.6980  178.0480  141.1230 C   0  0  0  0  0  2  0  0  0  0  0  0
  188.5610  178.5860  140.2500 C   0  0  2  0  0  3  0  0  0  0  0  0
  190.1950  176.6900  140.6220 C   0  0  0  0  0  2  0  0  0  0  0  0
  190.4930  175.3910  137.4600 C   0  0  0  0  0  1  0  0  0  0  0  0
  191.0660  175.5380  138.7250 O   0  0  0  0  0  0  0  0  0  0  0  0
  1  3  1  0  0  0  0
  3  2  2  0  0  0  0
  3  4  1  0  0  0  0
  6 12  1  0  0  0  0
  7  6  1  6  0  0  0
  7 10  1  0  0  0  0
  7  8  1  0  0  0  0
  8  5  1  0  0  0  0
  8 11  1  1  0  0  0
  9 11  2  0  0  0  0
 10 14  1  6  0  0  0
 10  8  1  0  0  0  0
 10  5  1  0  0  0  0
 12  4  1  1  0  0  0
 12  9  1  0  0  0  0
 14 13  1  0  0  0  0
 15 14  2  0  0  0  0
 16  1  1  0  0  0  0
 17 19  2  0  0  0  0
 19 18  1  0  0  0  0
 19 20  1  0  0  0  0
 20 16  1  0  0  0  0
 21 20  1  0  0  0  0
 22 29  1  6  0  0  0
 22 27  1  0  0  0  0
 23 26  1  0  0  0  0
 24 23  1  0  0  0  0
 24 22  1  0  0  0  0
 26 21  1  6  0  0  0
 26 25  1  0  0  0  0
 27 25  1  0  0  0  0
 28 29  1  0  0  0  0
M  END
>  <MODEL>
7

>  <REMARK>
 VINA RESULT:      -7.5      3.087      7.792
  Name = 
  8 active torsions:
  status: ('A' for Active; 'I' for Inactive)
    1  A    between atoms: C_2  and  O_27
    2  A    between atoms: C_11  and  C_21
    3  A    between atoms: C_11  and  N_28
    4  A    between atoms: C_13  and  C_21
    5  A    between atoms: C_14  and  C_19
    6  A    between atoms: C_15  and  C_22
    7  A    between atoms: C_15  and  N_28
    8  A    between atoms: N_24  and  C_25
                            x       y       z     vdW  Elec       q    Type
                         _______ _______ _______ _____ _____    ______ ____

>  <TORSDO>
F 8

$$$$
=
 OpenBabel11062416313D

 29 32  0  0  1  0  0  0  0  0999 V2000
  185.2990  179.2870  141.7460 C   0  0  0  0  0  2  0  0  0  0  0  0
  187.4790  178.5610  141.1450 O   0  0  0  0  0  0  0  0  0  0  0  0
  186.3040  178.7830  140.7580 C   0  0  0  0  0  0  0  0  0  0  0  0
  185.9850  178.6200  139.3710 N   0  0  0  0  0  2  0  0  0  0  0  0
  180.2090  177.9820  138.2300 S   0  0  0  0  0  0  0  0  0  0  0  0
  184.2380  177.5170  138.1380 C   0  0  0  0  0  3  0  0  0  0  0  0
  182.8930  177.6690  137.4720 C   0  0  2  0  0  3  0  0  0  0  0  0
  181.9880  178.0430  138.6750 C   0  0  2  0  0  0  0  0  0  0  0  0
  183.7110  179.7500  138.9630 C   0  0  0  0  0  3  0  0  0  0  0  0
  181.6360  176.9310  137.7410 C   0  0  1  0  0  0  0  0  0  0  0  0
  182.3940  179.4970  138.8020 C   0  0  0  0  0  3  0  0  0  0  0  0
  184.6700  178.6060  138.8060 C   0  0  0  0  0  0  0  0  0  0  0  0
  181.3750  174.5310  137.9520 O   0  0  0  0  0  0  0  0  0  0  0  0
  181.7200  175.6220  138.4810 C   0  0  0  0  0  0  0  0  0  0  0  0
  182.2240  175.6200  139.7740 O   0  0  0  0  0  1  0  0  0  0  0  0
  184.8920  178.1950  142.7330 C   0  0  0  0  0  2  0  0  0  0  0  0
  184.1930  178.9950  146.2240 O   0  0  0  0  0  1  0  0  0  0  0  0
  182.7210  178.8770  144.4790 O   0  0  0  0  0  0  0  0  0  0  0  0
  184.0130  178.8430  144.9870 C   0  0  0  0  0  0  0  0  0  0  0  0
  185.1270  178.6140  144.1110 N   0  0  0  0  0  0  0  0  0  0  0  0
  186.4920  178.5950  144.6230 C   0  0  0  0  0  2  0  0  0  0  0  0
  189.8610  177.1810  145.2450 C   0  0  1  0  0  3  0  0  0  0  0  0
  187.6240  177.1970  146.3710 C   0  0  0  0  0  2  0  0  0  0  0  0
  188.9870  177.8820  146.2820 C   0  0  0  0  0  2  0  0  0  0  0  0
  187.8110  176.5390  143.9500 C   0  0  0  0  0  2  0  0  0  0  0  0
  186.9180  177.1840  145.0140 C   0  0  2  0  0  3  0  0  0  0  0  0
  189.1800  177.2180  143.8800 C   0  0  0  0  0  2  0  0  0  0  0  0
  191.4750  177.7020  143.8250 C   0  0  0  0  0  1  0  0  0  0  0  0
  191.0970  177.8260  145.1630 O   0  0  0  0  0  0  0  0  0  0  0  0
  1 16  1  0  0  0  0
  3  2  2  0  0  0  0
  3  1  1  0  0  0  0
  4  3  1  0  0  0  0
  5  8  1  0  0  0  0
  6 12  2  0  0  0  0
  7 10  1  0  0  0  0
  7  6  1  1  0  0  0
  7  8  1  0  0  0  0
  8 11  1  1  0  0  0
 10  5  1  0  0  0  0
 10 14  1  1  0  0  0
 10  8  1  0  0  0  0
 11  9  2  0  0  0  0
 12  9  1  0  0  0  0
 12  4  1  0  0  0  0
 13 14  2  0  0  0  0
 14 15  1  0  0  0  0
 16 20  1  0  0  0  0
 18 19  2  0  0  0  0
 19 17  1  0  0  0  0
 20 21  1  0  0  0  0
 20 19  1  0  0  0  0
 22 29  1  6  0  0  0
 22 24  1  0  0  0  0
 24 23  1  0  0  0  0
 25 26  1  0  0  0  0
 26 21  1  6  0  0  0
 26 23  1  0  0  0  0
 27 25  1  0  0  0  0
 27 22  1  0  0  0  0
 28 29  1  0  0  0  0
M  END
>  <MODEL>
8

>  <REMARK>
 VINA RESULT:      -7.2      4.106      6.185
  Name = 
  8 active torsions:
  status: ('A' for Active; 'I' for Inactive)
    1  A    between atoms: C_2  and  O_27
    2  A    between atoms: C_11  and  C_21
    3  A    between atoms: C_11  and  N_28
    4  A    between atoms: C_13  and  C_21
    5  A    between atoms: C_14  and  C_19
    6  A    between atoms: C_15  and  C_22
    7  A    between atoms: C_15  and  N_28
    8  A    between atoms: N_24  and  C_25
                            x       y       z     vdW  Elec       q    Type
                         _______ _______ _______ _____ _____    ______ ____

>  <TORSDO>
F 8

$$$$
=
 OpenBabel11062416313D

 29 32  0  0  1  0  0  0  0  0999 V2000
  189.7090  178.0640  138.7690 C   0  0  0  0  0  2  0  0  0  0  0  0
  188.4010  179.4050  137.3090 O   0  0  0  0  0  0  0  0  0  0  0  0
  189.0790  178.3540  137.4430 C   0  0  0  0  0  0  0  0  0  0  0  0
  189.1610  177.4330  136.3490 N   0  0  0  0  0  2  0  0  0  0  0  0
  193.4330  173.3950  137.0610 S   0  0  0  0  0  0  0  0  0  0  0  0
  191.2230  176.4590  135.5820 C   0  0  0  0  0  2  0  0  0  0  0  0
  192.0220  175.1880  135.4280 C   0  0  2  0  0  3  0  0  0  0  0  0
  192.2140  174.7570  136.9050 C   0  0  2  0  0  0  0  0  0  0  0  0
  189.7840  175.0010  136.9040 C   0  0  0  0  0  3  0  0  0  0  0  0
  193.3670  174.8670  135.9610 C   0  0  1  0  0  0  0  0  0  0  0  0
  190.8320  174.1820  137.1400 C   0  0  0  0  0  3  0  0  0  0  0  0
  190.0590  176.3230  136.2500 C   0  0  1  0  0  3  0  0  0  0  0  0
  195.3250  176.2850  135.7980 O   0  0  0  0  0  0  0  0  0  0  0  0
  194.2520  176.0040  136.3980 C   0  0  0  0  0  0  0  0  0  0  0  0
  193.8550  176.7810  137.4760 O   0  0  0  0  0  1  0  0  0  0  0  0
  188.7760  177.2450  139.6610 C   0  0  0  0  0  2  0  0  0  0  0  0
  186.4410  179.1100  141.7540 O   0  0  0  0  0  1  0  0  0  0  0  0
  186.2430  178.5850  139.5380 O   0  0  0  0  0  0  0  0  0  0  0  0
  186.9640  178.6070  140.7250 C   0  0  0  0  0  0  0  0  0  0  0  0
  188.2810  178.0410  140.7800 N   0  0  0  0  0  0  0  0  0  0  0  0
  189.0610  178.0740  142.0110 C   0  0  0  0  0  2  0  0  0  0  0  0
  189.0690  177.0890  145.5850 C   0  0  1  0  0  3  0  0  0  0  0  0
  187.8720  176.4290  143.4850 C   0  0  0  0  0  2  0  0  0  0  0  0
  187.8250  177.3160  144.7290 C   0  0  0  0  0  2  0  0  0  0  0  0
  190.3860  176.5310  143.5240 C   0  0  0  0  0  2  0  0  0  0  0  0
  189.1320  176.6950  142.6600 C   0  0  2  0  0  3  0  0  0  0  0  0
  190.3220  177.4080  144.7760 C   0  0  0  0  0  2  0  0  0  0  0  0
  188.4520  177.1260  147.7090 C   0  0  0  0  0  1  0  0  0  0  0  0
  189.0200  177.9160  146.7080 O   0  0  0  0  0  0  0  0  0  0  0  0
  1 16  1  0  0  0  0
  2  3  2  0  0  0  0
  3  1  1  0  0  0  0
  4  3  1  0  0  0  0
  6 12  1  0  0  0  0
  7  6  1  1  0  0  0
  7 10  1  0  0  0  0
  7  8  1  0  0  0  0
  8  5  1  0  0  0  0
  8 11  1  1  0  0  0
  9 11  2  0  0  0  0
 10 14  1  1  0  0  0
 10  8  1  0  0  0  0
 10  5  1  0  0  0  0
 12  4  1  1  0  0  0
 12  9  1  0  0  0  0
 13 14  2  0  0  0  0
 14 15  1  0  0  0  0
 16 20  1  0  0  0  0
 18 19  2  0  0  0  0
 19 20  1  0  0  0  0
 19 17  1  0  0  0  0
 20 21  1  0  0  0  0
 22 29  1  1  0  0  0
 23 24  1  0  0  0  0
 24 22  1  0  0  0  0
 25 27  1  0  0  0  0
 26 21  1  1  0  0  0
 26 23  1  0  0  0  0
 26 25  1  0  0  0  0
 27 22  1  0  0  0  0
 29 28  1  0  0  0  0
M  END
>  <MODEL>
9

>  <REMARK>
 VINA RESULT:      -7.2      3.195      5.350
  Name = 
  8 active torsions:
  status: ('A' for Active; 'I' for Inactive)
    1  A    between atoms: C_2  and  O_27
    2  A    between atoms: C_11  and  C_21
    3  A    between atoms: C_11  and  N_28
    4  A    between atoms: C_13  and  C_21
    5  A    between atoms: C_14  and  C_19
    6  A    between atoms: C_15  and  C_22
    7  A    between atoms: C_15  and  N_28
    8  A    between atoms: N_24  and  C_25
                            x       y       z     vdW  Elec       q    Type
                         _______ _______ _______ _____ _____    ______ ____

>  <TORSDO>
F 8

$$$$
