=
 OpenBabel11062417163D

 26 29  0  0  1  0  0  0  0  0999 V2000
  184.2340  179.1240  141.2150 C   0  0  2  0  0  3  0  0  0  0  0  0
  184.4750  177.8760  142.0520 C   0  0  1  0  0  3  0  0  0  0  0  0
  184.3980  178.5840  144.4880 C   0  0  0  0  0  2  0  0  0  0  0  0
  183.4910  179.7340  144.1180 C   0  0  0  0  0  2  0  0  0  0  0  0
  185.2810  178.2900  143.2920 C   0  0  1  0  0  3  0  0  0  0  0  0
  182.4900  179.2770  143.0650 C   0  0  0  0  0  2  0  0  0  0  0  0
  183.0580  178.4510  141.8910 C   0  0  1  0  0  3  0  0  0  0  0  0
  185.4630  178.4710  139.1090 C   0  0  0  0  0  3  0  0  0  0  0  0
  186.6090  178.5150  139.7120 N   0  0  0  0  0  0  0  0  0  0  0  0
  184.2520  178.7640  139.8050 N   0  0  0  0  0  2  0  0  0  0  0  0
  187.8360  178.2250  139.0400 C   0  0  0  0  0  0  0  0  0  0  0  0
  187.9260  177.0960  138.2370 O   0  0  0  0  0  0  0  0  0  0  0  0
  188.8380  178.9800  139.1670 O   0  0  0  0  0  1  0  0  0  0  0  0
  186.2800  177.2040  143.6560 C   0  0  0  0  0  2  0  0  0  0  0  0
  188.2810  178.9150  147.3590 C   0  0  0  0  0  1  0  0  0  0  0  0
  192.0030  179.0910  144.3730 C   0  0  0  0  0  1  0  0  0  0  0  0
  189.0580  178.0100  142.6050 C   0  0  0  0  0  2  0  0  0  0  0  0
  189.8270  177.3300  146.1810 C   0  0  0  0  0  2  0  0  0  0  0  0
  187.2950  177.0980  145.9420 C   0  0  0  0  0  2  0  0  0  0  0  0
  188.4620  177.4850  146.8750 C   0  0  0  0  0  0  0  0  0  0  0  0
  190.5820  178.1120  142.5760 C   0  0  0  0  0  2  0  0  0  0  0  0
  189.8020  178.0520  144.8400 C   0  0  1  0  0  3  0  0  0  0  0  0
  188.4320  176.5710  148.0810 C   0  0  0  0  0  1  0  0  0  0  0  0
  191.0620  177.9570  144.0180 C   0  0  2  0  0  3  0  0  0  0  0  0
  188.7550  177.4310  143.9670 C   0  0  1  0  0  3  0  0  0  0  0  0
  187.3850  177.7520  144.5500 C   0  0  1  0  0  3  0  0  0  0  0  0
  1 10  1  6  0  0  0
  1  7  1  0  0  0  0
  1  2  1  0  0  0  0
  2  5  1  0  0  0  0
  4  3  1  0  0  0  0
  5 14  1  0  0  0  0
  5  3  1  0  0  0  0
  6  4  1  0  0  0  0
  7  2  1  0  0  0  0
  7  6  1  0  0  0  0
  8  9  2  0  0  0  0
  8 10  1  0  0  0  0
 11 13  1  0  0  0  0
 11  9  1  0  0  0  0
 12 11  2  0  0  0  0
 14 26  1  0  0  0  0
 17 25  1  0  0  0  0
 18 20  1  0  0  0  0
 19 20  1  0  0  0  0
 20 15  1  0  0  0  0
 20 23  1  0  0  0  0
 21 17  1  0  0  0  0
 21 24  1  0  0  0  0
 22 18  1  0  0  0  0
 24 16  1  0  0  0  0
 24 22  1  0  0  0  0
 25 26  1  0  0  0  0
 25 22  1  0  0  0  0
 26 19  1  0  0  0  0
M  END
>  <MODEL>
1

>  <REMARK>
 VINA RESULT:      -8.3      0.000      0.000
  Name = 
  4 active torsions:
  status: ('A' for Active; 'I' for Inactive)
    1  A    between atoms: C_1  and  N_21
    2  A    between atoms: C_4  and  N_25
    3  A    between atoms: C_15  and  C_18
    4  A    between atoms: C_18  and  C_26
                            x       y       z     vdW  Elec       q    Type
                         _______ _______ _______ _____ _____    ______ ____

>  <TORSDO>
F 4

$$$$
=
 OpenBabel11062417163D

 26 29  0  0  1  0  0  0  0  0999 V2000
  185.3970  179.3080  142.0200 C   0  0  2  0  0  3  0  0  0  0  0  0
  185.2150  177.9560  142.6960 C   0  0  1  0  0  3  0  0  0  0  0  0
  185.4860  178.3270  145.1920 C   0  0  0  0  0  2  0  0  0  0  0  0
  185.0290  179.7570  145.0230 C   0  0  0  0  0  2  0  0  0  0  0  0
  186.1620  177.9030  143.9040 C   0  0  1  0  0  3  0  0  0  0  0  0
  183.8920  179.8130  144.0110 C   0  0  0  0  0  2  0  0  0  0  0  0
  184.0870  179.0010  142.7130 C   0  0  1  0  0  3  0  0  0  0  0  0
  186.3190  178.7910  139.7270 C   0  0  0  0  0  3  0  0  0  0  0  0
  187.5080  178.5920  140.2020 N   0  0  0  0  0  0  0  0  0  0  0  0
  185.2330  179.1490  140.5840 N   0  0  0  0  0  2  0  0  0  0  0  0
  188.6110  178.2320  139.3690 C   0  0  0  0  0  0  0  0  0  0  0  0
  189.2680  177.0280  139.5860 O   0  0  0  0  0  1  0  0  0  0  0  0
  188.9970  178.9920  138.4410 O   0  0  0  0  0  0  0  0  0  0  0  0
  186.7270  176.5020  144.0670 C   0  0  0  0  0  2  0  0  0  0  0  0
  191.1840  176.1450  143.2590 C   0  0  0  0  0  1  0  0  0  0  0  0
  191.3680  177.1560  147.9220 C   0  0  0  0  0  1  0  0  0  0  0  0
  187.9420  176.7690  146.8820 C   0  0  0  0  0  2  0  0  0  0  0  0
  190.7230  178.0810  144.7870 C   0  0  0  0  0  2  0  0  0  0  0  0
  188.9380  177.2510  143.1600 C   0  0  0  0  0  2  0  0  0  0  0  0
  190.4470  177.4670  143.4020 C   0  0  0  0  0  0  0  0  0  0  0  0
  188.8810  177.2840  147.9720 C   0  0  0  0  0  2  0  0  0  0  0  0
  190.0040  177.2700  145.8560 C   0  0  1  0  0  3  0  0  0  0  0  0
  190.9690  178.4160  142.3450 C   0  0  0  0  0  1  0  0  0  0  0  0
  190.1470  177.7720  147.2700 C   0  0  2  0  0  3  0  0  0  0  0  0
  188.5280  177.3210  145.6030 C   0  0  1  0  0  3  0  0  0  0  0  0
  188.2280  176.5430  144.3290 C   0  0  1  0  0  3  0  0  0  0  0  0
  1 10  1  6  0  0  0
  1  2  1  0  0  0  0
  1  7  1  0  0  0  0
  2  7  1  0  0  0  0
  2  5  1  0  0  0  0
  4  3  1  0  0  0  0
  5 14  1  0  0  0  0
  5  3  1  0  0  0  0
  6  4  1  0  0  0  0
  7  6  1  0  0  0  0
  8  9  2  0  0  0  0
  8 10  1  0  0  0  0
 11 12  1  0  0  0  0
 11  9  1  0  0  0  0
 13 11  2  0  0  0  0
 14 26  1  0  0  0  0
 15 20  1  0  0  0  0
 17 21  1  0  0  0  0
 18 22  1  0  0  0  0
 19 20  1  0  0  0  0
 19 26  1  0  0  0  0
 20 18  1  0  0  0  0
 22 24  1  0  0  0  0
 23 20  1  0  0  0  0
 24 16  1  0  0  0  0
 24 21  1  0  0  0  0
 25 22  1  0  0  0  0
 25 17  1  0  0  0  0
 26 25  1  0  0  0  0
M  END
>  <MODEL>
2

>  <REMARK>
 VINA RESULT:      -8.2      1.187      2.897
  Name = 
  4 active torsions:
  status: ('A' for Active; 'I' for Inactive)
    1  A    between atoms: C_1  and  N_21
    2  A    between atoms: C_4  and  N_25
    3  A    between atoms: C_15  and  C_18
    4  A    between atoms: C_18  and  C_26
                            x       y       z     vdW  Elec       q    Type
                         _______ _______ _______ _____ _____    ______ ____

>  <TORSDO>
F 4

$$$$
=
 OpenBabel11062417163D

 26 29  0  0  1  0  0  0  0  0999 V2000
  184.6220  179.1850  141.9730 C   0  0  2  0  0  3  0  0  0  0  0  0
  185.0700  177.8510  142.5540 C   0  0  1  0  0  3  0  0  0  0  0  0
  186.0740  178.3280  144.8350 C   0  0  0  0  0  2  0  0  0  0  0  0
  185.2080  179.5600  144.9510 C   0  0  0  0  0  2  0  0  0  0  0  0
  186.3510  178.0970  143.3630 C   0  0  1  0  0  3  0  0  0  0  0  0
  183.8230  179.2660  144.3900 C   0  0  0  0  0  2  0  0  0  0  0  0
  183.7740  178.5230  143.0380 C   0  0  1  0  0  3  0  0  0  0  0  0
  184.8030  178.6680  139.5090 C   0  0  0  0  0  3  0  0  0  0  0  0
  186.0940  178.5920  139.5750 N   0  0  0  0  0  0  0  0  0  0  0  0
  184.0210  178.9610  140.6680 N   0  0  0  0  0  2  0  0  0  0  0  0
  186.9010  178.3000  138.4320 C   0  0  0  0  0  0  0  0  0  0  0  0
  186.5460  177.2510  137.5950 O   0  0  0  0  0  0  0  0  0  0  0  0
  187.9290  178.9810  138.1740 O   0  0  0  0  0  1  0  0  0  0  0  0
  187.3040  176.9230  143.2060 C   0  0  0  0  0  2  0  0  0  0  0  0
  191.1430  178.8410  144.7010 C   0  0  0  0  0  1  0  0  0  0  0  0
  192.5630  177.7160  140.2830 C   0  0  0  0  0  1  0  0  0  0  0  0
  189.0670  176.9480  140.6840 C   0  0  0  0  0  2  0  0  0  0  0  0
  191.6560  176.7880  143.3510 C   0  0  0  0  0  2  0  0  0  0  0  0
  189.4140  177.0330  144.5500 C   0  0  0  0  0  2  0  0  0  0  0  0
  190.9260  177.3400  144.5900 C   0  0  0  0  0  0  0  0  0  0  0  0
  190.3180  176.7330  139.8320 C   0  0  0  0  0  2  0  0  0  0  0  0
  190.9350  177.2450  142.0900 C   0  0  1  0  0  3  0  0  0  0  0  0
  191.5130  176.6860  145.8220 C   0  0  0  0  0  1  0  0  0  0  0  0
  191.5100  176.7500  140.7880 C   0  0  2  0  0  3  0  0  0  0  0  0
  189.5390  176.7000  142.0970 C   0  0  1  0  0  3  0  0  0  0  0  0
  188.7540  177.3910  143.2050 C   0  0  1  0  0  3  0  0  0  0  0  0
  1 10  1  6  0  0  0
  1  2  1  0  0  0  0
  1  7  1  0  0  0  0
  2  7  1  0  0  0  0
  2  5  1  0  0  0  0
  3  4  1  0  0  0  0
  5  3  1  0  0  0  0
  6  4  1  0  0  0  0
  7  6  1  0  0  0  0
  8  9  2  0  0  0  0
  8 10  1  0  0  0  0
 11  9  1  0  0  0  0
 12 11  2  0  0  0  0
 13 11  1  0  0  0  0
 14  5  1  0  0  0  0
 16 24  1  0  0  0  0
 17 25  1  0  0  0  0
 18 20  1  0  0  0  0
 19 20  1  0  0  0  0
 20 15  1  0  0  0  0
 20 23  1  0  0  0  0
 21 17  1  0  0  0  0
 21 24  1  0  0  0  0
 22 25  1  0  0  0  0
 22 18  1  0  0  0  0
 24 22  1  0  0  0  0
 25 26  1  0  0  0  0
 26 14  1  0  0  0  0
 26 19  1  0  0  0  0
M  END
>  <MODEL>
3

>  <REMARK>
 VINA RESULT:      -8.1      1.543      2.367
  Name = 
  4 active torsions:
  status: ('A' for Active; 'I' for Inactive)
    1  A    between atoms: C_1  and  N_21
    2  A    between atoms: C_4  and  N_25
    3  A    between atoms: C_15  and  C_18
    4  A    between atoms: C_18  and  C_26
                            x       y       z     vdW  Elec       q    Type
                         _______ _______ _______ _____ _____    ______ ____

>  <TORSDO>
F 4

$$$$
=
 OpenBabel11062417163D

 26 29  0  0  1  0  0  0  0  0999 V2000
  190.9750  176.5780  143.1280 C   0  0  2  0  0  3  0  0  0  0  0  0
  189.5910  176.0040  142.8630 C   0  0  1  0  0  3  0  0  0  0  0  0
  188.3000  177.7420  141.5400 C   0  0  0  0  0  2  0  0  0  0  0  0
  189.6000  178.2800  140.9910 C   0  0  0  0  0  2  0  0  0  0  0  0
  188.5830  177.1610  142.9110 C   0  0  1  0  0  3  0  0  0  0  0  0
  190.5400  177.1240  140.6790 C   0  0  0  0  0  2  0  0  0  0  0  0
  190.6580  176.0240  141.7560 C   0  0  1  0  0  3  0  0  0  0  0  0
  191.9360  175.6900  145.2870 C   0  0  0  0  0  3  0  0  0  0  0  0
  191.3950  176.6470  145.9730 N   0  0  0  0  0  0  0  0  0  0  0  0
  191.7620  175.6070  143.8720 N   0  0  0  0  0  2  0  0  0  0  0  0
  191.5530  176.7540  147.3890 C   0  0  0  0  0  0  0  0  0  0  0  0
  192.5980  176.0870  148.0120 O   0  0  0  0  0  0  0  0  0  0  0  0
  190.7560  177.4450  148.0790 O   0  0  0  0  0  1  0  0  0  0  0  0
  187.2810  176.6990  143.5430 C   0  0  0  0  0  2  0  0  0  0  0  0
  184.5530  180.3250  143.7670 C   0  0  0  0  0  1  0  0  0  0  0  0
  186.0740  180.2790  148.2930 C   0  0  0  0  0  1  0  0  0  0  0  0
  187.7890  177.7450  146.3930 C   0  0  0  0  0  2  0  0  0  0  0  0
  184.3020  178.9120  145.8240 C   0  0  0  0  0  2  0  0  0  0  0  0
  185.0740  177.8780  143.6200 C   0  0  0  0  0  2  0  0  0  0  0  0
  184.1830  178.9460  144.2900 C   0  0  0  0  0  0  0  0  0  0  0  0
  187.4470  178.2610  147.7900 C   0  0  0  0  0  2  0  0  0  0  0  0
  185.7710  178.9510  146.2220 C   0  0  1  0  0  3  0  0  0  0  0  0
  182.7430  178.6700  143.9150 C   0  0  0  0  0  1  0  0  0  0  0  0
  186.0550  178.8840  147.7010 C   0  0  2  0  0  3  0  0  0  0  0  0
  186.4640  177.7430  145.6680 C   0  0  1  0  0  3  0  0  0  0  0  0
  186.5200  177.8700  144.1510 C   0  0  1  0  0  3  0  0  0  0  0  0
  1 10  1  1  0  0  0
  2  5  1  0  0  0  0
  2  1  1  0  0  0  0
  3  5  1  0  0  0  0
  4  3  1  0  0  0  0
  5 14  1  0  0  0  0
  6  4  1  0  0  0  0
  6  7  1  0  0  0  0
  7  2  1  0  0  0  0
  7  1  1  0  0  0  0
  8  9  2  0  0  0  0
  9 11  1  0  0  0  0
 10  8  1  0  0  0  0
 11 12  2  0  0  0  0
 11 13  1  0  0  0  0
 14 26  1  0  0  0  0
 15 20  1  0  0  0  0
 17 21  1  0  0  0  0
 18 22  1  0  0  0  0
 19 26  1  0  0  0  0
 19 20  1  0  0  0  0
 20 18  1  0  0  0  0
 22 24  1  0  0  0  0
 23 20  1  0  0  0  0
 24 21  1  0  0  0  0
 24 16  1  0  0  0  0
 25 22  1  0  0  0  0
 25 17  1  0  0  0  0
 26 25  1  0  0  0  0
M  END
>  <MODEL>
4

>  <REMARK>
 VINA RESULT:      -8.0      3.924      6.693
  Name = 
  4 active torsions:
  status: ('A' for Active; 'I' for Inactive)
    1  A    between atoms: C_1  and  N_21
    2  A    between atoms: C_4  and  N_25
    3  A    between atoms: C_15  and  C_18
    4  A    between atoms: C_18  and  C_26
                            x       y       z     vdW  Elec       q    Type
                         _______ _______ _______ _____ _____    ______ ____

>  <TORSDO>
F 4

$$$$
=
 OpenBabel11062417163D

 26 29  0  0  1  0  0  0  0  0999 V2000
  190.5150  177.1070  141.2210 C   0  0  2  0  0  3  0  0  0  0  0  0
  189.3960  177.4480  142.1950 C   0  0  1  0  0  3  0  0  0  0  0  0
  190.1040  176.5910  144.4760 C   0  0  0  0  0  2  0  0  0  0  0  0
  191.5520  176.7360  144.0740 C   0  0  0  0  0  2  0  0  0  0  0  0
  189.3020  176.3100  143.2210 C   0  0  1  0  0  3  0  0  0  0  0  0
  191.7320  178.0140  143.2660 C   0  0  0  0  0  2  0  0  0  0  0  0
  190.6880  178.2810  142.1610 C   0  0  1  0  0  3  0  0  0  0  0  0
  190.3840  176.8260  138.7160 C   0  0  0  0  0  3  0  0  0  0  0  0
  190.9170  175.6460  138.7770 N   0  0  0  0  0  0  0  0  0  0  0  0
  190.1620  177.5960  139.8980 N   0  0  0  0  0  2  0  0  0  0  0  0
  191.1500  174.8530  137.6110 C   0  0  0  0  0  0  0  0  0  0  0  0
  192.0370  175.3050  136.6440 O   0  0  0  0  0  0  0  0  0  0  0  0
  190.5610  173.7510  137.4490 O   0  0  0  0  0  1  0  0  0  0  0  0
  187.8510  176.0560  143.5940 C   0  0  0  0  0  2  0  0  0  0  0  0
  185.6810  179.9980  142.9620 C   0  0  0  0  0  1  0  0  0  0  0  0
  186.0570  180.1280  147.7200 C   0  0  0  0  0  1  0  0  0  0  0  0
  187.8050  177.2580  146.4260 C   0  0  0  0  0  2  0  0  0  0  0  0
  184.7520  178.7970  144.9590 C   0  0  0  0  0  2  0  0  0  0  0  0
  185.8750  177.5020  143.0660 C   0  0  0  0  0  2  0  0  0  0  0  0
  185.0090  178.7220  143.4430 C   0  0  0  0  0  0  0  0  0  0  0  0
  187.2160  177.9230  147.6700 C   0  0  0  0  0  2  0  0  0  0  0  0
  186.0750  178.6860  145.7050 C   0  0  1  0  0  3  0  0  0  0  0  0
  183.6750  178.5960  142.7380 C   0  0  0  0  0  1  0  0  0  0  0  0
  185.9850  178.7040  147.2100 C   0  0  2  0  0  3  0  0  0  0  0  0
  186.7040  177.3610  145.3980 C   0  0  1  0  0  3  0  0  0  0  0  0
  187.1370  177.3580  143.9380 C   0  0  1  0  0  3  0  0  0  0  0  0
  1 10  1  6  0  0  0
  1  7  1  0  0  0  0
  1  2  1  0  0  0  0
  2  5  1  0  0  0  0
  4  3  1  0  0  0  0
  5 14  1  0  0  0  0
  5  3  1  0  0  0  0
  6  4  1  0  0  0  0
  7  2  1  0  0  0  0
  7  6  1  0  0  0  0
  8  9  2  0  0  0  0
  8 10  1  0  0  0  0
 11  9  1  0  0  0  0
 12 11  2  0  0  0  0
 13 11  1  0  0  0  0
 14 26  1  0  0  0  0
 15 20  1  0  0  0  0
 17 21  1  0  0  0  0
 18 22  1  0  0  0  0
 19 20  1  0  0  0  0
 19 26  1  0  0  0  0
 20 18  1  0  0  0  0
 22 24  1  0  0  0  0
 23 20  1  0  0  0  0
 24 21  1  0  0  0  0
 24 16  1  0  0  0  0
 25 22  1  0  0  0  0
 25 17  1  0  0  0  0
 26 25  1  0  0  0  0
M  END
>  <MODEL>
5

>  <REMARK>
 VINA RESULT:      -7.9      2.445      5.639
  Name = 
  4 active torsions:
  status: ('A' for Active; 'I' for Inactive)
    1  A    between atoms: C_1  and  N_21
    2  A    between atoms: C_4  and  N_25
    3  A    between atoms: C_15  and  C_18
    4  A    between atoms: C_18  and  C_26
                            x       y       z     vdW  Elec       q    Type
                         _______ _______ _______ _____ _____    ______ ____

>  <TORSDO>
F 4

$$$$
=
 OpenBabel11062417163D

 26 29  0  0  1  0  0  0  0  0999 V2000
  185.3860  179.1260  141.6020 C   0  0  2  0  0  3  0  0  0  0  0  0
  185.5330  177.8330  142.3920 C   0  0  1  0  0  3  0  0  0  0  0  0
  185.2900  178.4240  144.8470 C   0  0  0  0  0  2  0  0  0  0  0  0
  184.4420  179.6150  144.4700 C   0  0  0  0  0  2  0  0  0  0  0  0
  186.2530  178.1640  143.7070 C   0  0  1  0  0  3  0  0  0  0  0  0
  183.5120  179.2380  143.3240 C   0  0  0  0  0  2  0  0  0  0  0  0
  184.1470  178.4550  142.1550 C   0  0  1  0  0  3  0  0  0  0  0  0
  184.5200  179.2600  139.2350 C   0  0  0  0  0  3  0  0  0  0  0  0
  183.4760  179.9290  139.6090 N   0  0  0  0  0  0  0  0  0  0  0  0
  185.5010  178.8340  140.1820 N   0  0  0  0  0  2  0  0  0  0  0  0
  182.4800  180.3680  138.6830 C   0  0  0  0  0  0  0  0  0  0  0  0
  182.1780  181.7200  138.5930 O   0  0  0  0  0  1  0  0  0  0  0  0
  181.8720  179.5450  137.9480 O   0  0  0  0  0  0  0  0  0  0  0  0
  187.1960  177.0340  144.0890 C   0  0  0  0  0  2  0  0  0  0  0  0
  191.2910  178.7580  145.0380 C   0  0  0  0  0  1  0  0  0  0  0  0
  192.0080  177.6640  140.4460 C   0  0  0  0  0  1  0  0  0  0  0  0
  188.5760  177.0360  141.3380 C   0  0  0  0  0  2  0  0  0  0  0  0
  191.5120  176.7140  143.6010 C   0  0  0  0  0  2  0  0  0  0  0  0
  189.4800  177.0280  145.1140 C   0  0  0  0  0  2  0  0  0  0  0  0
  190.9940  177.2700  144.9390 C   0  0  0  0  0  0  0  0  0  0  0  0
  189.6810  176.7860  140.3120 C   0  0  0  0  0  2  0  0  0  0  0  0
  190.6380  177.2260  142.4640 C   0  0  1  0  0  3  0  0  0  0  0  0
  191.7230  176.5680  146.0640 C   0  0  0  0  0  1  0  0  0  0  0  0
  190.9980  176.7340  141.0850 C   0  0  2  0  0  3  0  0  0  0  0  0
  189.2350  176.7390  142.6650 C   0  0  1  0  0  3  0  0  0  0  0  0
  188.6500  177.4400  143.8840 C   0  0  1  0  0  3  0  0  0  0  0  0
  1 10  1  6  0  0  0
  1  7  1  0  0  0  0
  1  2  1  0  0  0  0
  2  5  1  0  0  0  0
  4  3  1  0  0  0  0
  5 14  1  0  0  0  0
  5  3  1  0  0  0  0
  6  4  1  0  0  0  0
  7  2  1  0  0  0  0
  7  6  1  0  0  0  0
  8  9  2  0  0  0  0
  8 10  1  0  0  0  0
 11  9  1  0  0  0  0
 12 11  1  0  0  0  0
 13 11  2  0  0  0  0
 16 24  1  0  0  0  0
 17 25  1  0  0  0  0
 18 20  1  0  0  0  0
 20 15  1  0  0  0  0
 20 19  1  0  0  0  0
 20 23  1  0  0  0  0
 21 24  1  0  0  0  0
 21 17  1  0  0  0  0
 22 25  1  0  0  0  0
 22 18  1  0  0  0  0
 24 22  1  0  0  0  0
 25 26  1  0  0  0  0
 26 14  1  0  0  0  0
 26 19  1  0  0  0  0
M  END
>  <MODEL>
6

>  <REMARK>
 VINA RESULT:      -7.8      2.416      3.205
  Name = 
  4 active torsions:
  status: ('A' for Active; 'I' for Inactive)
    1  A    between atoms: C_1  and  N_21
    2  A    between atoms: C_4  and  N_25
    3  A    between atoms: C_15  and  C_18
    4  A    between atoms: C_18  and  C_26
                            x       y       z     vdW  Elec       q    Type
                         _______ _______ _______ _____ _____    ______ ____

>  <TORSDO>
F 4

$$$$
=
 OpenBabel11062417163D

 26 29  0  0  1  0  0  0  0  0999 V2000
  189.0710  177.4540  144.2540 C   0  0  2  0  0  3  0  0  0  0  0  0
  187.9160  177.1310  143.3160 C   0  0  1  0  0  3  0  0  0  0  0  0
  188.6710  177.7300  140.9690 C   0  0  0  0  0  2  0  0  0  0  0  0
  190.1060  177.4950  141.3770 C   0  0  0  0  0  2  0  0  0  0  0  0
  187.9100  178.1830  142.1980 C   0  0  1  0  0  3  0  0  0  0  0  0
  190.1850  176.2780  142.2890 C   0  0  0  0  0  2  0  0  0  0  0  0
  189.1330  176.1960  143.4160 C   0  0  1  0  0  3  0  0  0  0  0  0
  189.6550  176.7660  146.6120 C   0  0  0  0  0  3  0  0  0  0  0  0
  190.9220  176.7450  146.3380 N   0  0  0  0  0  0  0  0  0  0  0  0
  188.6910  177.1100  145.6160 N   0  0  0  0  0  2  0  0  0  0  0  0
  191.9070  176.4040  147.3150 C   0  0  0  0  0  0  0  0  0  0  0  0
  192.6730  175.2590  147.1420 O   0  0  0  0  0  0  0  0  0  0  0  0
  192.0890  177.1270  148.3300 O   0  0  0  0  0  1  0  0  0  0  0  0
  186.4820  178.5280  141.8100 C   0  0  0  0  0  2  0  0  0  0  0  0
  185.0770  177.4400  145.9920 C   0  0  0  0  0  1  0  0  0  0  0  0
  180.8190  178.1810  143.9640 C   0  0  0  0  0  1  0  0  0  0  0  0
  183.4220  178.4460  141.4900 C   0  0  0  0  0  2  0  0  0  0  0  0
  183.7300  179.3520  145.0850 C   0  0  0  0  0  2  0  0  0  0  0  0
  186.1060  178.9230  144.2540 C   0  0  0  0  0  2  0  0  0  0  0  0
  185.1410  178.8610  145.4570 C   0  0  0  0  0  0  0  0  0  0  0  0
  181.9580  178.7380  141.8200 C   0  0  0  0  0  2  0  0  0  0  0  0
  183.2530  178.6280  143.8330 C   0  0  1  0  0  3  0  0  0  0  0  0
  185.6840  179.7540  146.5520 C   0  0  0  0  0  1  0  0  0  0  0  0
  181.8940  179.0300  143.3180 C   0  0  2  0  0  3  0  0  0  0  0  0
  184.1770  178.9470  142.6980 C   0  0  1  0  0  3  0  0  0  0  0  0
  185.5260  178.2950  142.9740 C   0  0  1  0  0  3  0  0  0  0  0  0
  1 10  1  1  0  0  0
  2  7  1  0  0  0  0
  2  1  1  0  0  0  0
  3  4  1  0  0  0  0
  3  5  1  0  0  0  0
  4  6  1  0  0  0  0
  5  2  1  0  0  0  0
  6  7  1  0  0  0  0
  7  1  1  0  0  0  0
  9  8  2  0  0  0  0
  9 11  1  0  0  0  0
 10  8  1  0  0  0  0
 11 13  1  0  0  0  0
 12 11  2  0  0  0  0
 14  5  1  0  0  0  0
 14 26  1  0  0  0  0
 17 21  1  0  0  0  0
 17 25  1  0  0  0  0
 18 20  1  0  0  0  0
 19 20  1  0  0  0  0
 20 15  1  0  0  0  0
 20 23  1  0  0  0  0
 21 24  1  0  0  0  0
 22 18  1  0  0  0  0
 24 22  1  0  0  0  0
 24 16  1  0  0  0  0
 25 26  1  0  0  0  0
 25 22  1  0  0  0  0
 26 19  1  0  0  0  0
M  END
>  <MODEL>
7

>  <REMARK>
 VINA RESULT:      -7.8      3.707      6.930
  Name = 
  4 active torsions:
  status: ('A' for Active; 'I' for Inactive)
    1  A    between atoms: C_1  and  N_21
    2  A    between atoms: C_4  and  N_25
    3  A    between atoms: C_15  and  C_18
    4  A    between atoms: C_18  and  C_26
                            x       y       z     vdW  Elec       q    Type
                         _______ _______ _______ _____ _____    ______ ____

>  <TORSDO>
F 4

$$$$
=
 OpenBabel11062417163D

 26 29  0  0  1  0  0  0  0  0999 V2000
  184.5050  179.2290  144.9140 C   0  0  2  0  0  3  0  0  0  0  0  0
  185.1740  177.8720  144.7470 C   0  0  1  0  0  3  0  0  0  0  0  0
  187.3400  177.9400  146.0670 C   0  0  0  0  0  2  0  0  0  0  0  0
  186.7410  178.9770  146.9860 C   0  0  0  0  0  2  0  0  0  0  0  0
  186.6920  178.0990  144.7070 C   0  0  1  0  0  3  0  0  0  0  0  0
  185.2840  178.6320  147.2650 C   0  0  0  0  0  2  0  0  0  0  0  0
  184.4290  178.2250  146.0450 C   0  0  1  0  0  3  0  0  0  0  0  0
  183.1840  179.0840  142.7680 C   0  0  0  0  0  3  0  0  0  0  0  0
  184.2620  178.9380  142.0640 N   0  0  0  0  0  0  0  0  0  0  0  0
  183.2450  179.2340  144.1870 N   0  0  0  0  0  2  0  0  0  0  0  0
  184.2290  178.7850  140.6430 C   0  0  0  0  0  0  0  0  0  0  0  0
  184.9750  179.6430  139.8470 O   0  0  0  0  0  0  0  0  0  0  0  0
  183.5320  177.8840  140.1040 O   0  0  0  0  0  1  0  0  0  0  0  0
  187.3400  177.1390  143.7220 C   0  0  0  0  0  2  0  0  0  0  0  0
  191.5470  178.4660  144.8110 C   0  0  0  0  0  1  0  0  0  0  0  0
  192.2230  177.6510  140.1550 C   0  0  0  0  0  1  0  0  0  0  0  0
  188.7440  177.2300  140.9850 C   0  0  0  0  0  2  0  0  0  0  0  0
  191.6240  176.5190  143.2310 C   0  0  0  0  0  2  0  0  0  0  0  0
  189.6070  176.8820  144.7550 C   0  0  0  0  0  2  0  0  0  0  0  0
  191.1370  177.0170  144.6040 C   0  0  0  0  0  0  0  0  0  0  0  0
  189.8360  176.9680  139.9480 C   0  0  0  0  0  2  0  0  0  0  0  0
  190.8030  177.1770  142.1300 C   0  0  1  0  0  3  0  0  0  0  0  0
  191.7980  176.1810  145.6780 C   0  0  0  0  0  1  0  0  0  0  0  0
  191.1370  176.7580  140.7210 C   0  0  2  0  0  3  0  0  0  0  0  0
  189.3650  176.7890  142.2900 C   0  0  1  0  0  3  0  0  0  0  0  0
  188.8240  177.4440  143.5540 C   0  0  1  0  0  3  0  0  0  0  0  0
  1 10  1  6  0  0  0
  1  7  1  0  0  0  0
  2  1  1  0  0  0  0
  2  7  1  0  0  0  0
  3  4  1  0  0  0  0
  4  6  1  0  0  0  0
  5  2  1  0  0  0  0
  5  3  1  0  0  0  0
  7  6  1  0  0  0  0
  8 10  1  0  0  0  0
  9  8  2  0  0  0  0
 11  9  1  0  0  0  0
 12 11  2  0  0  0  0
 13 11  1  0  0  0  0
 14  5  1  0  0  0  0
 16 24  1  0  0  0  0
 17 25  1  0  0  0  0
 18 20  1  0  0  0  0
 20 19  1  0  0  0  0
 20 15  1  0  0  0  0
 20 23  1  0  0  0  0
 21 24  1  0  0  0  0
 21 17  1  0  0  0  0
 22 25  1  0  0  0  0
 22 18  1  0  0  0  0
 24 22  1  0  0  0  0
 25 26  1  0  0  0  0
 26 14  1  0  0  0  0
 26 19  1  0  0  0  0
M  END
>  <MODEL>
8

>  <REMARK>
 VINA RESULT:      -7.7      2.168      3.637
  Name = 
  4 active torsions:
  status: ('A' for Active; 'I' for Inactive)
    1  A    between atoms: C_1  and  N_21
    2  A    between atoms: C_4  and  N_25
    3  A    between atoms: C_15  and  C_18
    4  A    between atoms: C_18  and  C_26
                            x       y       z     vdW  Elec       q    Type
                         _______ _______ _______ _____ _____    ______ ____

>  <TORSDO>
F 4

$$$$
=
 OpenBabel11062417163D

 26 29  0  0  1  0  0  0  0  0999 V2000
  189.7760  176.6800  143.5640 C   0  0  2  0  0  3  0  0  0  0  0  0
  189.4420  177.9750  142.8380 C   0  0  1  0  0  3  0  0  0  0  0  0
  186.9160  178.0820  142.6210 C   0  0  0  0  0  2  0  0  0  0  0  0
  186.7800  177.2240  143.8570 C   0  0  0  0  0  2  0  0  0  0  0  0
  188.2210  177.7130  141.9450 C   0  0  1  0  0  3  0  0  0  0  0  0
  187.8220  177.6420  144.8860 C   0  0  0  0  0  2  0  0  0  0  0  0
  189.2570  177.8590  144.3600 C   0  0  1  0  0  3  0  0  0  0  0  0
  191.8310  176.4640  145.0130 C   0  0  0  0  0  3  0  0  0  0  0  0
  191.1200  176.4420  146.0960 N   0  0  0  0  0  0  0  0  0  0  0  0
  191.2170  176.5810  143.7290 N   0  0  0  0  0  2  0  0  0  0  0  0
  191.7080  176.3250  147.3930 C   0  0  0  0  0  0  0  0  0  0  0  0
  191.7150  177.4240  148.2410 O   0  0  0  0  0  1  0  0  0  0  0  0
  192.2210  175.2400  147.7760 O   0  0  0  0  0  0  0  0  0  0  0  0
  188.3500  178.4820  140.6400 C   0  0  0  0  0  2  0  0  0  0  0  0
  187.1160  175.7360  137.2370 C   0  0  0  0  0  1  0  0  0  0  0  0
  191.8440  175.1200  136.9910 C   0  0  0  0  0  1  0  0  0  0  0  0
  191.0190  177.1840  139.8240 C   0  0  0  0  0  2  0  0  0  0  0  0
  189.1570  177.0510  136.6050 C   0  0  0  0  0  2  0  0  0  0  0  0
  187.5130  177.9500  138.3410 C   0  0  0  0  0  2  0  0  0  0  0  0
  187.6830  177.1330  137.0430 C   0  0  0  0  0  0  0  0  0  0  0  0
  192.1300  176.7070  138.8900 C   0  0  0  0  0  2  0  0  0  0  0  0
  190.0110  176.5890  137.7780 C   0  0  1  0  0  3  0  0  0  0  0  0
  186.8950  177.8140  135.9440 C   0  0  0  0  0  1  0  0  0  0  0  0
  191.4930  176.4970  137.5170 C   0  0  2  0  0  3  0  0  0  0  0  0
  189.9030  177.5890  138.8890 C   0  0  1  0  0  3  0  0  0  0  0  0
  188.4900  177.5330  139.4560 C   0  0  1  0  0  3  0  0  0  0  0  0
  1 10  1  1  0  0  0
  1  7  1  0  0  0  0
  2  1  1  0  0  0  0
  2  7  1  0  0  0  0
  3  4  1  0  0  0  0
  4  6  1  0  0  0  0
  5  3  1  0  0  0  0
  5  2  1  0  0  0  0
  7  6  1  0  0  0  0
  8  9  2  0  0  0  0
  9 11  1  0  0  0  0
 10  8  1  0  0  0  0
 11 13  2  0  0  0  0
 11 12  1  0  0  0  0
 14  5  1  0  0  0  0
 16 24  1  0  0  0  0
 18 20  1  0  0  0  0
 18 22  1  0  0  0  0
 19 26  1  0  0  0  0
 20 15  1  0  0  0  0
 20 19  1  0  0  0  0
 21 17  1  0  0  0  0
 22 25  1  0  0  0  0
 23 20  1  0  0  0  0
 24 22  1  0  0  0  0
 24 21  1  0  0  0  0
 25 26  1  0  0  0  0
 25 17  1  0  0  0  0
 26 14  1  0  0  0  0
M  END
>  <MODEL>
9

>  <REMARK>
 VINA RESULT:      -7.5      4.141      7.546
  Name = 
  4 active torsions:
  status: ('A' for Active; 'I' for Inactive)
    1  A    between atoms: C_1  and  N_21
    2  A    between atoms: C_4  and  N_25
    3  A    between atoms: C_15  and  C_18
    4  A    between atoms: C_18  and  C_26
                            x       y       z     vdW  Elec       q    Type
                         _______ _______ _______ _____ _____    ______ ____

>  <TORSDO>
F 4

$$$$
