=
 OpenBabel11062416533D

 34 38  0  0  1  0  0  0  0  0999 V2000
  188.0130  173.2420  136.0540 C   0  0  1  0  0  3  0  0  0  0  0  0
  188.2650  177.3910  134.5940 C   0  0  0  0  0  2  0  0  0  0  0  0
  183.8140  176.0700  135.9230 S   0  0  0  0  0  0  0  0  0  0  0  0
  186.1300  177.4980  135.9740 C   0  0  0  0  0  2  0  0  0  0  0  0
  185.5670  176.1870  135.4080 C   0  0  1  0  0  3  0  0  0  0  0  0
  190.1330  175.9780  135.9440 C   0  0  2  0  0  3  0  0  0  0  0  0
  187.6040  171.6020  137.7600 O   0  0  0  0  0  0  0  0  0  0  0  0
  189.4340  173.5340  136.5330 C   0  0  0  0  0  2  0  0  0  0  0  0
  190.4520  174.3260  135.2400 S   0  0  0  0  0  0  0  0  0  0  0  0
  186.2290  174.9740  135.9570 C   0  0  0  0  0  0  0  0  0  0  0  0
  187.1980  172.6430  137.1810 C   0  0  0  0  0  0  0  0  0  0  0  0
  184.1670  174.9000  137.2940 C   0  0  2  0  0  3  0  0  0  0  0  0
  187.3730  174.4850  135.4880 C   0  0  0  0  0  3  0  0  0  0  0  0
  185.4850  174.2910  136.9910 C   0  0  0  0  0  0  0  0  0  0  0  0
  188.0190  179.0160  136.4790 C   0  0  0  0  0  1  0  0  0  0  0  0
  183.0760  173.8440  137.3330 C   0  0  0  0  0  1  0  0  0  0  0  0
  187.6520  177.6350  135.9720 C   0  0  2  0  0  3  0  0  0  0  0  0
  185.9420  173.2210  137.5710 N   0  0  0  0  0  0  0  0  0  0  0  0
  190.0930  177.2910  134.6720 S   0  0  0  0  0  0  0  0  0  0  0  0
  193.3450  176.8110  137.8480 C   0  0  0  0  0  2  0  0  0  0  0  0
  191.3840  176.9100  139.3970 C   0  0  0  0  0  0  0  0  0  0  0  0
  189.1380  176.8180  138.5090 C   0  0  0  0  0  3  0  0  0  0  0  0
  191.0650  176.2970  137.0330 N   0  0  0  0  0  0  0  0  0  0  0  0
  188.6470  177.1500  139.7720 C   0  0  0  0  0  3  0  0  0  0  0  0
  192.7960  176.8270  139.1980 N   0  0  0  0  0  2  0  0  0  0  0  0
  192.4910  175.9210  136.9450 C   0  0  1  0  0  3  0  0  0  0  0  0
  190.8500  177.2170  140.6560 C   0  0  0  0  0  0  0  0  0  0  0  0
  190.5190  176.6850  138.3130 C   0  0  0  0  0  0  0  0  0  0  0  0
  191.7090  177.4320  141.7720 N   0  0  0  0  0  1  0  0  0  0  0  0
  189.5040  177.3350  140.8100 N   0  0  0  0  0  0  0  0  0  0  0  0
  192.9660  176.0160  135.6060 O   0  0  0  0  0  0  0  0  0  0  0  0
  195.0050  177.1840  134.6890 C   0  0  0  0  0  1  0  0  0  0  0  0
  194.9960  174.9560  135.5090 O   0  0  0  0  0  0  0  0  0  0  0  0
  194.3250  175.9960  135.2830 C   0  0  0  0  0  0  0  0  0  0  0  0
  1 13  1  1  0  0  0
  1  8  1  0  0  0  0
  1 11  1  0  0  0  0
  2 19  1  0  0  0  0
  2 17  1  0  0  0  0
  3 12  1  0  0  0  0
  5  3  1  0  0  0  0
  5 10  1  0  0  0  0
  5  4  1  1  0  0  0
  6 23  1  1  0  0  0
  9  6  1  0  0  0  0
  9  8  1  0  0  0  0
 10 14  1  0  0  0  0
 11 18  1  0  0  0  0
 11  7  2  0  0  0  0
 12 16  1  6  0  0  0
 13 10  2  0  0  0  0
 14 12  1  0  0  0  0
 14 18  2  0  0  0  0
 17  4  1  0  0  0  0
 17 15  1  6  0  0  0
 19  6  1  0  0  0  0
 20 25  1  0  0  0  0
 21 27  1  0  0  0  0
 22 24  2  0  0  0  0
 23 28  1  0  0  0  0
 24 30  1  0  0  0  0
 25 21  1  0  0  0  0
 26 31  1  6  0  0  0
 26 23  1  0  0  0  0
 26 20  1  0  0  0  0
 27 30  2  0  0  0  0
 27 29  1  0  0  0  0
 28 22  1  0  0  0  0
 28 21  2  0  0  0  0
 32 34  1  0  0  0  0
 34 33  2  0  0  0  0
 34 31  1  0  0  0  0
M  END
>  <MODEL>
1

>  <REMARK>
 VINA RESULT:      -5.4      0.000      0.000
  Name = 
  3 active torsions:
  status: ('A' for Active; 'I' for Inactive)
    1  A    between atoms: C_8  and  N_14
    2  A    between atoms: C_20  and  O_22
    3  A    between atoms: O_22  and  C_24
                            x       y       z     vdW  Elec       q    Type
                         _______ _______ _______ _____ _____    ______ ____

>  <TORSDO>
F 3

$$$$
=
 OpenBabel11062416533D

 34 38  0  0  1  0  0  0  0  0999 V2000
  180.5300  177.2590  140.0600 C   0  0  1  0  0  3  0  0  0  0  0  0
  180.2580  177.0400  135.6680 C   0  0  0  0  0  2  0  0  0  0  0  0
  178.9310  181.3150  137.4820 S   0  0  0  0  0  0  0  0  0  0  0  0
  180.4010  179.5570  136.0140 C   0  0  0  0  0  2  0  0  0  0  0  0
  179.3790  179.5680  137.1590 C   0  0  1  0  0  3  0  0  0  0  0  0
  182.0320  175.8110  137.2960 C   0  0  2  0  0  3  0  0  0  0  0  0
  181.4420  178.1400  142.1000 O   0  0  0  0  0  0  0  0  0  0  0  0
  181.6930  176.2930  139.8370 C   0  0  0  0  0  2  0  0  0  0  0  0
  181.2570  174.9360  138.6960 S   0  0  0  0  0  0  0  0  0  0  0  0
  179.9220  179.0490  138.4420 C   0  0  0  0  0  0  0  0  0  0  0  0
  180.9630  178.3940  140.9630 C   0  0  0  0  0  0  0  0  0  0  0  0
  180.0280  181.4530  138.9480 C   0  0  2  0  0  3  0  0  0  0  0  0
  179.9880  177.7560  138.7420 C   0  0  0  0  0  3  0  0  0  0  0  0
  180.2950  180.0650  139.4000 C   0  0  0  0  0  0  0  0  0  0  0  0
  182.0630  178.3960  134.5940 C   0  0  0  0  0  1  0  0  0  0  0  0
  179.3120  182.2470  140.0260 C   0  0  0  0  0  1  0  0  0  0  0  0
  181.1730  178.2540  135.8140 C   0  0  2  0  0  3  0  0  0  0  0  0
  180.7940  179.7620  140.5610 N   0  0  0  0  0  0  0  0  0  0  0  0
  181.2010  175.4690  135.7040 S   0  0  0  0  0  0  0  0  0  0  0  0
  185.3990  174.1780  136.5030 C   0  0  0  0  0  2  0  0  0  0  0  0
  185.7640  176.3910  137.6090 C   0  0  0  0  0  0  0  0  0  0  0  0
  183.9040  177.9020  137.9270 C   0  0  0  0  0  3  0  0  0  0  0  0
  183.4770  175.5590  137.2260 N   0  0  0  0  0  0  0  0  0  0  0  0
  184.8050  178.8970  138.3090 C   0  0  0  0  0  3  0  0  0  0  0  0
  186.2640  175.1130  137.2100 N   0  0  0  0  0  2  0  0  0  0  0  0
  184.0020  174.1820  137.1230 C   0  0  1  0  0  3  0  0  0  0  0  0
  186.6330  177.4090  138.0220 C   0  0  0  0  0  0  0  0  0  0  0  0
  184.3800  176.6300  137.5810 C   0  0  0  0  0  0  0  0  0  0  0  0
  188.0380  177.1820  138.0730 N   0  0  0  0  0  1  0  0  0  0  0  0
  186.1370  178.6310  138.3540 N   0  0  0  0  0  0  0  0  0  0  0  0
  183.1390  173.3590  136.3450 O   0  0  0  0  0  0  0  0  0  0  0  0
  181.3510  171.7010  136.9910 C   0  0  0  0  0  1  0  0  0  0  0  0
  183.6650  171.1880  136.8580 O   0  0  0  0  0  0  0  0  0  0  0  0
  182.7750  172.0680  136.7340 C   0  0  0  0  0  0  0  0  0  0  0  0
  1 13  1  6  0  0  0
  1 11  1  0  0  0  0
  2 19  1  0  0  0  0
  2 17  1  0  0  0  0
  3 12  1  0  0  0  0
  5  4  1  6  0  0  0
  5  3  1  0  0  0  0
  5 10  1  0  0  0  0
  6 23  1  6  0  0  0
  6  9  1  0  0  0  0
  8  1  1  0  0  0  0
  9  8  1  0  0  0  0
 10 13  2  0  0  0  0
 10 14  1  0  0  0  0
 11  7  2  0  0  0  0
 12 14  1  0  0  0  0
 12 16  1  1  0  0  0
 14 18  2  0  0  0  0
 17 15  1  6  0  0  0
 17  4  1  0  0  0  0
 18 11  1  0  0  0  0
 19  6  1  0  0  0  0
 20 26  1  0  0  0  0
 20 25  1  0  0  0  0
 21 27  1  0  0  0  0
 22 24  2  0  0  0  0
 23 28  1  0  0  0  0
 24 30  1  0  0  0  0
 25 21  1  0  0  0  0
 26 31  1  6  0  0  0
 26 23  1  0  0  0  0
 27 29  1  0  0  0  0
 27 30  2  0  0  0  0
 28 21  2  0  0  0  0
 28 22  1  0  0  0  0
 31 34  1  0  0  0  0
 34 33  2  0  0  0  0
 34 32  1  0  0  0  0
M  END
>  <MODEL>
2

>  <REMARK>
 VINA RESULT:      -4.7      5.212      8.398
  Name = 
  3 active torsions:
  status: ('A' for Active; 'I' for Inactive)
    1  A    between atoms: C_8  and  N_14
    2  A    between atoms: C_20  and  O_22
    3  A    between atoms: O_22  and  C_24
                            x       y       z     vdW  Elec       q    Type
                         _______ _______ _______ _____ _____    ______ ____

>  <TORSDO>
F 3

$$$$
=
 OpenBabel11062416533D

 34 38  0  0  1  0  0  0  0  0999 V2000
  186.5350  173.8060  136.5750 C   0  0  1  0  0  3  0  0  0  0  0  0
  187.9080  177.4960  134.5990 C   0  0  0  0  0  2  0  0  0  0  0  0
  183.1020  177.1270  134.8930 S   0  0  0  0  0  0  0  0  0  0  0  0
  185.5710  178.1860  135.3300 C   0  0  0  0  0  2  0  0  0  0  0  0
  184.9160  176.8830  134.8490 C   0  0  1  0  0  3  0  0  0  0  0  0
  189.1040  176.1280  136.6000 C   0  0  2  0  0  3  0  0  0  0  0  0
  185.4330  172.6180  138.3470 O   0  0  0  0  0  0  0  0  0  0  0  0
  187.8340  173.9790  137.3600 C   0  0  0  0  0  2  0  0  0  0  0  0
  189.2570  174.3400  136.2750 S   0  0  0  0  0  0  0  0  0  0  0  0
  185.1870  175.7230  135.7360 C   0  0  0  0  0  0  0  0  0  0  0  0
  185.3800  173.5700  137.5250 C   0  0  0  0  0  0  0  0  0  0  0  0
  182.8950  176.2180  136.4740 C   0  0  2  0  0  3  0  0  0  0  0  0
  186.2940  174.9890  135.6710 C   0  0  0  0  0  3  0  0  0  0  0  0
  184.1060  175.3760  136.6310 C   0  0  0  0  0  0  0  0  0  0  0  0
  187.5440  179.4850  136.0700 C   0  0  0  0  0  1  0  0  0  0  0  0
  181.6440  175.3600  136.3890 C   0  0  0  0  0  1  0  0  0  0  0  0
  187.0480  178.0970  135.7080 C   0  0  2  0  0  3  0  0  0  0  0  0
  184.2020  174.3900  137.4720 N   0  0  0  0  0  0  0  0  0  0  0  0
  189.6140  177.1500  135.1730 S   0  0  0  0  0  0  0  0  0  0  0  0
  189.7620  177.2120  140.2090 C   0  0  0  0  0  2  0  0  0  0  0  0
  191.9290  176.7520  139.0480 C   0  0  0  0  0  0  0  0  0  0  0  0
  191.9330  175.6850  136.8790 C   0  0  0  0  0  3  0  0  0  0  0  0
  189.7990  176.5200  137.8330 N   0  0  0  0  0  0  0  0  0  0  0  0
  193.3170  175.5370  136.9770 C   0  0  0  0  0  3  0  0  0  0  0  0
  191.2120  177.3420  140.1330 N   0  0  0  0  0  2  0  0  0  0  0  0
  189.1460  177.4010  138.8230 C   0  0  1  0  0  3  0  0  0  0  0  0
  193.3220  176.6080  139.0970 C   0  0  0  0  0  0  0  0  0  0  0  0
  191.2250  176.3060  137.9170 C   0  0  0  0  0  0  0  0  0  0  0  0
  194.0560  177.0690  140.2270 N   0  0  0  0  0  1  0  0  0  0  0  0
  193.9770  176.0030  138.0710 N   0  0  0  0  0  0  0  0  0  0  0  0
  187.7460  177.1480  138.8920 O   0  0  0  0  0  0  0  0  0  0  0  0
  185.4790  178.2530  138.8650 C   0  0  0  0  0  1  0  0  0  0  0  0
  187.1750  178.7200  140.4590 O   0  0  0  0  0  0  0  0  0  0  0  0
  186.8410  178.0580  139.4430 C   0  0  0  0  0  0  0  0  0  0  0  0
  1 13  1  1  0  0  0
  1  8  1  0  0  0  0
  1 11  1  0  0  0  0
  2 19  1  0  0  0  0
  2 17  1  0  0  0  0
  3 12  1  0  0  0  0
  4 17  1  0  0  0  0
  5  3  1  0  0  0  0
  5  4  1  1  0  0  0
  5 10  1  0  0  0  0
  6 23  1  1  0  0  0
  9  6  1  0  0  0  0
  9  8  1  0  0  0  0
 10 14  1  0  0  0  0
 11  7  2  0  0  0  0
 12 16  1  6  0  0  0
 12 14  1  0  0  0  0
 13 10  2  0  0  0  0
 14 18  2  0  0  0  0
 17 15  1  6  0  0  0
 18 11  1  0  0  0  0
 19  6  1  0  0  0  0
 21 27  1  0  0  0  0
 21 25  1  0  0  0  0
 22 24  2  0  0  0  0
 22 28  1  0  0  0  0
 23 28  1  0  0  0  0
 23 26  1  0  0  0  0
 24 30  1  0  0  0  0
 25 20  1  0  0  0  0
 26 31  1  1  0  0  0
 26 20  1  0  0  0  0
 27 29  1  0  0  0  0
 28 21  2  0  0  0  0
 30 27  2  0  0  0  0
 31 34  1  0  0  0  0
 32 34  1  0  0  0  0
 34 33  2  0  0  0  0
M  END
>  <MODEL>
3

>  <REMARK>
 VINA RESULT:      -4.6      2.276      3.860
  Name = 
  3 active torsions:
  status: ('A' for Active; 'I' for Inactive)
    1  A    between atoms: C_8  and  N_14
    2  A    between atoms: C_20  and  O_22
    3  A    between atoms: O_22  and  C_24
                            x       y       z     vdW  Elec       q    Type
                         _______ _______ _______ _____ _____    ______ ____

>  <TORSDO>
F 3

$$$$
=
 OpenBabel11062416533D

 34 38  0  0  1  0  0  0  0  0999 V2000
  184.0300  177.5070  139.4710 C   0  0  1  0  0  3  0  0  0  0  0  0
  179.8820  177.3430  140.9450 C   0  0  0  0  0  2  0  0  0  0  0  0
  183.0450  178.9310  144.2310 S   0  0  0  0  0  0  0  0  0  0  0  0
  180.8970  179.0250  142.5620 C   0  0  0  0  0  2  0  0  0  0  0  0
  182.1630  178.1920  142.8060 C   0  0  1  0  0  3  0  0  0  0  0  0
  180.7450  177.8760  138.4390 C   0  0  2  0  0  3  0  0  0  0  0  0
  186.0380  178.6830  138.8750 O   0  0  0  0  0  0  0  0  0  0  0  0
  183.3360  177.8090  138.1440 C   0  0  0  0  0  2  0  0  0  0  0  0
  181.9540  176.6650  137.8090 S   0  0  0  0  0  0  0  0  0  0  0  0
  183.1250  178.2320  141.6740 C   0  0  0  0  0  0  0  0  0  0  0  0
  185.1260  178.5200  139.7280 C   0  0  0  0  0  0  0  0  0  0  0  0
  184.2670  179.8070  143.1780 C   0  0  2  0  0  3  0  0  0  0  0  0
  183.0290  177.4560  140.5990 C   0  0  0  0  0  3  0  0  0  0  0  0
  184.2490  179.1210  141.8630 C   0  0  0  0  0  0  0  0  0  0  0  0
  178.9310  179.6430  141.1910 C   0  0  0  0  0  1  0  0  0  0  0  0
  185.6370  179.7070  143.8250 C   0  0  0  0  0  1  0  0  0  0  0  0
  180.1990  178.8120  141.2190 C   0  0  2  0  0  3  0  0  0  0  0  0
  185.1670  179.2680  140.9540 N   0  0  0  0  0  0  0  0  0  0  0  0
  179.2980  177.0840  139.2270 S   0  0  0  0  0  0  0  0  0  0  0  0
  178.9770  179.4650  135.4420 C   0  0  0  0  0  2  0  0  0  0  0  0
  180.4730  181.1420  136.5380 C   0  0  0  0  0  0  0  0  0  0  0  0
  181.4760  180.6480  138.6810 C   0  0  0  0  0  3  0  0  0  0  0  0
  180.3480  178.8410  137.4060 N   0  0  0  0  0  0  0  0  0  0  0  0
  181.8990  181.9750  138.7660 C   0  0  0  0  0  3  0  0  0  0  0  0
  179.7040  180.7270  135.4080 N   0  0  0  0  0  2  0  0  0  0  0  0
  179.8340  178.3830  136.0990 C   0  0  1  0  0  3  0  0  0  0  0  0
  180.9380  182.4600  136.6490 C   0  0  0  0  0  0  0  0  0  0  0  0
  180.7630  180.2170  137.5540 C   0  0  0  0  0  0  0  0  0  0  0  0
  180.6690  183.4100  135.6220 N   0  0  0  0  0  1  0  0  0  0  0  0
  181.6290  182.8430  137.7550 N   0  0  0  0  0  0  0  0  0  0  0  0
  179.0650  177.1920  136.2370 O   0  0  0  0  0  0  0  0  0  0  0  0
  178.9480  174.6740  136.1520 C   0  0  0  0  0  1  0  0  0  0  0  0
  180.1480  176.0100  134.5990 O   0  0  0  0  0  0  0  0  0  0  0  0
  179.4210  175.9880  135.6250 C   0  0  0  0  0  0  0  0  0  0  0  0
  1  8  1  6  0  0  0
  1 11  1  0  0  0  0
  1 13  1  0  0  0  0
  2 17  1  0  0  0  0
  5  4  1  6  0  0  0
  5  3  1  0  0  0  0
  6 23  1  6  0  0  0
  6 19  1  0  0  0  0
  7 11  2  0  0  0  0
  9  8  1  0  0  0  0
  9  6  1  0  0  0  0
 10 14  1  0  0  0  0
 10  5  1  0  0  0  0
 11 18  1  0  0  0  0
 12 16  1  1  0  0  0
 12  3  1  0  0  0  0
 13 10  2  0  0  0  0
 14 12  1  0  0  0  0
 17 15  1  1  0  0  0
 17  4  1  0  0  0  0
 18 14  2  0  0  0  0
 19  2  1  0  0  0  0
 20 26  1  0  0  0  0
 21 27  2  0  0  0  0
 21 28  1  0  0  0  0
 22 24  1  0  0  0  0
 23 28  1  0  0  0  0
 25 20  1  0  0  0  0
 25 21  1  0  0  0  0
 26 31  1  1  0  0  0
 26 23  1  0  0  0  0
 27 30  1  0  0  0  0
 28 22  2  0  0  0  0
 29 27  1  0  0  0  0
 30 24  2  0  0  0  0
 33 34  2  0  0  0  0
 34 32  1  0  0  0  0
 34 31  1  0  0  0  0
M  END
>  <MODEL>
4

>  <REMARK>
 VINA RESULT:      -4.6      6.823     10.627
  Name = 
  3 active torsions:
  status: ('A' for Active; 'I' for Inactive)
    1  A    between atoms: C_8  and  N_14
    2  A    between atoms: C_20  and  O_22
    3  A    between atoms: O_22  and  C_24
                            x       y       z     vdW  Elec       q    Type
                         _______ _______ _______ _____ _____    ______ ____

>  <TORSDO>
F 3

$$$$
=
 OpenBabel11062416533D

 34 38  0  0  1  0  0  0  0  0999 V2000
  190.2330  176.2840  134.7240 C   0  0  1  0  0  3  0  0  0  0  0  0
  186.3200  174.3660  135.3660 C   0  0  0  0  0  2  0  0  0  0  0  0
  189.9120  171.2310  134.5940 S   0  0  0  0  0  0  0  0  0  0  0  0
  187.8920  172.4520  135.9490 C   0  0  0  0  0  2  0  0  0  0  0  0
  188.7970  172.6780  134.7290 C   0  0  1  0  0  3  0  0  0  0  0  0
  187.2560  176.6570  136.4530 C   0  0  2  0  0  3  0  0  0  0  0  0
  192.5100  176.7450  135.3360 O   0  0  0  0  0  0  0  0  0  0  0  0
  189.6570  177.3260  135.6810 C   0  0  0  0  0  2  0  0  0  0  0  0
  187.9570  177.8150  135.2300 S   0  0  0  0  0  0  0  0  0  0  0  0
  189.6870  173.8600  134.8640 C   0  0  0  0  0  0  0  0  0  0  0  0
  191.6180  175.8710  135.1770 C   0  0  0  0  0  0  0  0  0  0  0  0
  191.3370  172.1050  135.3530 C   0  0  2  0  0  3  0  0  0  0  0  0
  189.3030  175.1040  134.5940 C   0  0  0  0  0  3  0  0  0  0  0  0
  191.0530  173.5550  135.2230 C   0  0  0  0  0  0  0  0  0  0  0  0
  186.2300  173.2490  137.6010 C   0  0  0  0  0  1  0  0  0  0  0  0
  192.6030  171.7300  134.6020 C   0  0  0  0  0  1  0  0  0  0  0  0
  187.1320  173.6760  136.4590 C   0  0  2  0  0  3  0  0  0  0  0  0
  191.9430  174.4880  135.3860 N   0  0  0  0  0  0  0  0  0  0  0  0
  185.6440  175.9720  135.9330 S   0  0  0  0  0  0  0  0  0  0  0  0
  185.9210  178.3070  139.6350 C   0  0  0  0  0  2  0  0  0  0  0  0
  188.3300  177.7080  139.9320 C   0  0  0  0  0  0  0  0  0  0  0  0
  189.4370  176.3120  138.2970 C   0  0  0  0  0  3  0  0  0  0  0  0
  187.1940  177.2500  137.7940 N   0  0  0  0  0  0  0  0  0  0  0  0
  190.5300  176.2060  139.1590 C   0  0  0  0  0  3  0  0  0  0  0  0
  187.1820  178.4480  140.3500 N   0  0  0  0  0  2  0  0  0  0  0  0
  186.1730  178.2650  138.1280 C   0  0  1  0  0  3  0  0  0  0  0  0
  189.4580  177.5970  140.7570 C   0  0  0  0  0  0  0  0  0  0  0  0
  188.3250  177.0770  138.6770 C   0  0  0  0  0  0  0  0  0  0  0  0
  189.4890  178.2430  142.0260 N   0  0  0  0  0  1  0  0  0  0  0  0
  190.5200  176.8500  140.3560 N   0  0  0  0  0  0  0  0  0  0  0  0
  184.9470  178.0020  137.4520 O   0  0  0  0  0  0  0  0  0  0  0  0
  182.9030  179.1960  138.3230 C   0  0  0  0  0  1  0  0  0  0  0  0
  183.2740  176.8600  138.5230 O   0  0  0  0  0  0  0  0  0  0  0  0
  183.7160  177.9620  138.1100 C   0  0  0  0  0  0  0  0  0  0  0  0
  1 13  1  1  0  0  0
  1 11  1  0  0  0  0
  1  8  1  0  0  0  0
  2 19  1  0  0  0  0
  2 17  1  0  0  0  0
  3  5  1  0  0  0  0
  3 12  1  0  0  0  0
  4 17  1  0  0  0  0
  5 10  1  0  0  0  0
  5  4  1  1  0  0  0
  6 23  1  1  0  0  0
  9  8  1  0  0  0  0
  9  6  1  0  0  0  0
 10 14  1  0  0  0  0
 11  7  2  0  0  0  0
 11 18  1  0  0  0  0
 12 16  1  6  0  0  0
 13 10  2  0  0  0  0
 14 12  1  0  0  0  0
 14 18  2  0  0  0  0
 17 15  1  1  0  0  0
 19  6  1  0  0  0  0
 20 25  1  0  0  0  0
 21 25  1  0  0  0  0
 21 27  1  0  0  0  0
 22 28  1  0  0  0  0
 22 24  2  0  0  0  0
 23 26  1  0  0  0  0
 23 28  1  0  0  0  0
 24 30  1  0  0  0  0
 26 31  1  6  0  0  0
 26 20  1  0  0  0  0
 27 29  1  0  0  0  0
 28 21  2  0  0  0  0
 30 27  2  0  0  0  0
 31 34  1  0  0  0  0
 34 32  1  0  0  0  0
 34 33  2  0  0  0  0
M  END
>  <MODEL>
5

>  <REMARK>
 VINA RESULT:      -4.1      2.674      6.218
  Name = 
  3 active torsions:
  status: ('A' for Active; 'I' for Inactive)
    1  A    between atoms: C_8  and  N_14
    2  A    between atoms: C_20  and  O_22
    3  A    between atoms: O_22  and  C_24
                            x       y       z     vdW  Elec       q    Type
                         _______ _______ _______ _____ _____    ______ ____

>  <TORSDO>
F 3

$$$$
=
 OpenBabel11062416533D

 34 38  0  0  1  0  0  0  0  0999 V2000
  184.8580  178.1150  137.2450 C   0  0  1  0  0  3  0  0  0  0  0  0
  188.8780  178.6010  138.9800 C   0  0  0  0  0  2  0  0  0  0  0  0
  185.3040  179.1760  142.1770 S   0  0  0  0  0  0  0  0  0  0  0  0
  187.5210  178.0570  141.0620 C   0  0  0  0  0  2  0  0  0  0  0  0
  186.3780  179.0160  140.7020 C   0  0  1  0  0  3  0  0  0  0  0  0
  188.1150  176.9720  136.9630 C   0  0  2  0  0  3  0  0  0  0  0  0
  182.7440  176.9950  137.0400 O   0  0  0  0  0  0  0  0  0  0  0  0
  185.5870  177.1260  136.3370 C   0  0  0  0  0  2  0  0  0  0  0  0
  187.1410  177.8130  135.6700 S   0  0  0  0  0  0  0  0  0  0  0  0
  185.4980  178.5060  139.6180 C   0  0  0  0  0  0  0  0  0  0  0  0
  183.6110  177.4750  137.8170 C   0  0  0  0  0  0  0  0  0  0  0  0
  184.0400  178.0100  141.5350 C   0  0  2  0  0  3  0  0  0  0  0  0
  185.7790  178.6290  138.3250 C   0  0  0  0  0  3  0  0  0  0  0  0
  184.2460  177.9420  140.0670 C   0  0  0  0  0  0  0  0  0  0  0  0
  189.4630  176.6540  140.4370 C   0  0  0  0  0  1  0  0  0  0  0  0
  182.6590  178.5490  141.8650 C   0  0  0  0  0  1  0  0  0  0  0  0
  188.3310  177.5040  139.8910 C   0  0  2  0  0  3  0  0  0  0  0  0
  183.3790  177.4470  139.2340 N   0  0  0  0  0  0  0  0  0  0  0  0
  189.6060  177.9110  137.4470 S   0  0  0  0  0  0  0  0  0  0  0  0
  187.7750  173.2190  136.3040 C   0  0  0  0  0  2  0  0  0  0  0  0
  190.0360  174.0100  135.5870 C   0  0  0  0  0  0  0  0  0  0  0  0
  190.5110  176.3780  135.4860 C   0  0  0  0  0  3  0  0  0  0  0  0
  188.4330  175.5870  136.5920 N   0  0  0  0  0  0  0  0  0  0  0  0
  191.7120  176.0880  134.8370 C   0  0  0  0  0  3  0  0  0  0  0  0
  189.1560  172.9390  135.9360 N   0  0  0  0  0  2  0  0  0  0  0  0
  187.7110  174.4530  137.2040 C   0  0  1  0  0  3  0  0  0  0  0  0
  191.2620  173.7590  134.9560 C   0  0  0  0  0  0  0  0  0  0  0  0
  189.6630  175.3320  135.8760 C   0  0  0  0  0  0  0  0  0  0  0  0
  191.6670  172.4240  134.6680 N   0  0  0  0  0  1  0  0  0  0  0  0
  192.0620  174.7970  134.5940 N   0  0  0  0  0  0  0  0  0  0  0  0
  186.3490  174.7850  137.4520 O   0  0  0  0  0  0  0  0  0  0  0  0
  184.2650  173.8300  136.4000 C   0  0  0  0  0  1  0  0  0  0  0  0
  185.3060  172.9500  138.3440 O   0  0  0  0  0  0  0  0  0  0  0  0
  185.3270  173.8330  137.4490 C   0  0  0  0  0  0  0  0  0  0  0  0
  1  8  1  1  0  0  0
  1 11  1  0  0  0  0
  1 13  1  0  0  0  0
  2 17  1  0  0  0  0
  5  4  1  1  0  0  0
  5  3  1  0  0  0  0
  6 23  1  6  0  0  0
  6 19  1  0  0  0  0
  7 11  2  0  0  0  0
  9  8  1  0  0  0  0
  9  6  1  0  0  0  0
 10 14  1  0  0  0  0
 10  5  1  0  0  0  0
 11 18  1  0  0  0  0
 12 16  1  6  0  0  0
 12  3  1  0  0  0  0
 13 10  2  0  0  0  0
 14 12  1  0  0  0  0
 17 15  1  1  0  0  0
 17  4  1  0  0  0  0
 18 14  2  0  0  0  0
 19  2  1  0  0  0  0
 20 26  1  0  0  0  0
 21 28  1  0  0  0  0
 21 25  1  0  0  0  0
 22 28  2  0  0  0  0
 23 26  1  0  0  0  0
 24 22  1  0  0  0  0
 25 20  1  0  0  0  0
 26 31  1  6  0  0  0
 27 21  2  0  0  0  0
 28 23  1  0  0  0  0
 29 27  1  0  0  0  0
 30 24  2  0  0  0  0
 30 27  1  0  0  0  0
 32 34  1  0  0  0  0
 34 31  1  0  0  0  0
 34 33  2  0  0  0  0
M  END
>  <MODEL>
6

>  <REMARK>
 VINA RESULT:      -3.9      3.282      6.151
  Name = 
  3 active torsions:
  status: ('A' for Active; 'I' for Inactive)
    1  A    between atoms: C_8  and  N_14
    2  A    between atoms: C_20  and  O_22
    3  A    between atoms: O_22  and  C_24
                            x       y       z     vdW  Elec       q    Type
                         _______ _______ _______ _____ _____    ______ ____

>  <TORSDO>
F 3

$$$$
=
 OpenBabel11062416533D

 34 38  0  0  1  0  0  0  0  0999 V2000
  183.5390  176.4340  134.8100 C   0  0  1  0  0  3  0  0  0  0  0  0
  179.5140  175.3640  136.2460 C   0  0  0  0  0  2  0  0  0  0  0  0
  182.7740  171.8470  136.8160 S   0  0  0  0  0  0  0  0  0  0  0  0
  180.9430  173.7190  137.5590 C   0  0  0  0  0  2  0  0  0  0  0  0
  181.7970  173.3230  136.3460 C   0  0  1  0  0  3  0  0  0  0  0  0
  180.7030  177.7920  136.2600 C   0  0  2  0  0  3  0  0  0  0  0  0
  185.8760  176.8750  135.1440 O   0  0  0  0  0  0  0  0  0  0  0  0
  183.1070  177.8320  135.2490 C   0  0  0  0  0  2  0  0  0  0  0  0
  181.4340  178.2580  134.6560 S   0  0  0  0  0  0  0  0  0  0  0  0
  182.7920  174.3570  135.9610 C   0  0  0  0  0  0  0  0  0  0  0  0
  184.9050  176.1090  135.3780 C   0  0  0  0  0  0  0  0  0  0  0  0
  184.3080  172.8080  137.1220 C   0  0  2  0  0  3  0  0  0  0  0  0
  182.5040  175.4080  135.1990 C   0  0  0  0  0  3  0  0  0  0  0  0
  184.1440  174.0930  136.3980 C   0  0  0  0  0  0  0  0  0  0  0  0
  179.4470  175.2950  138.7450 C   0  0  0  0  0  1  0  0  0  0  0  0
  185.4940  172.0280  136.5810 C   0  0  0  0  0  1  0  0  0  0  0  0
  180.3210  175.1140  137.5180 C   0  0  2  0  0  3  0  0  0  0  0  0
  185.1200  174.9130  136.1440 N   0  0  0  0  0  0  0  0  0  0  0  0
  179.0110  177.1200  136.0960 S   0  0  0  0  0  0  0  0  0  0  0  0
  181.6770  179.9080  139.2940 C   0  0  0  0  0  2  0  0  0  0  0  0
  180.1290  181.2000  137.8140 C   0  0  0  0  0  0  0  0  0  0  0  0
  179.5850  180.3630  135.6130 C   0  0  0  0  0  3  0  0  0  0  0  0
  180.7640  178.8930  137.2290 N   0  0  0  0  0  0  0  0  0  0  0  0
  178.9730  181.5830  135.3220 C   0  0  0  0  0  3  0  0  0  0  0  0
  180.7600  181.0210  139.0840 N   0  0  0  0  0  2  0  0  0  0  0  0
  181.1240  178.6420  138.6400 C   0  0  1  0  0  3  0  0  0  0  0  0
  179.4840  182.4020  137.4920 C   0  0  0  0  0  0  0  0  0  0  0  0
  180.1630  180.1580  136.8730 C   0  0  0  0  0  0  0  0  0  0  0  0
  179.4240  183.4650  138.4380 N   0  0  0  0  0  1  0  0  0  0  0  0
  178.9310  182.5650  136.2610 N   0  0  0  0  0  0  0  0  0  0  0  0
  182.0870  177.5980  138.7480 O   0  0  0  0  0  0  0  0  0  0  0  0
  184.5250  178.2210  138.5740 C   0  0  0  0  0  1  0  0  0  0  0  0
  183.4500  177.5750  140.5900 O   0  0  0  0  0  0  0  0  0  0  0  0
  183.3320  177.7790  139.3540 C   0  0  0  0  0  0  0  0  0  0  0  0
  1 13  1  1  0  0  0
  1  8  1  0  0  0  0
  1 11  1  0  0  0  0
  2 17  1  0  0  0  0
  3 12  1  0  0  0  0
  5  3  1  0  0  0  0
  5  4  1  1  0  0  0
  6 23  1  1  0  0  0
  7 11  2  0  0  0  0
  9  8  1  0  0  0  0
  9  6  1  0  0  0  0
 10  5  1  0  0  0  0
 10 14  1  0  0  0  0
 11 18  1  0  0  0  0
 12 16  1  6  0  0  0
 13 10  2  0  0  0  0
 14 12  1  0  0  0  0
 17  4  1  0  0  0  0
 17 15  1  1  0  0  0
 18 14  2  0  0  0  0
 19  2  1  0  0  0  0
 19  6  1  0  0  0  0
 21 25  1  0  0  0  0
 22 28  1  0  0  0  0
 23 26  1  0  0  0  0
 24 22  2  0  0  0  0
 24 30  1  0  0  0  0
 25 20  1  0  0  0  0
 26 31  1  6  0  0  0
 26 20  1  0  0  0  0
 27 21  1  0  0  0  0
 27 29  1  0  0  0  0
 28 23  1  0  0  0  0
 28 21  2  0  0  0  0
 30 27  2  0  0  0  0
 31 34  1  0  0  0  0
 32 34  1  0  0  0  0
 34 33  2  0  0  0  0
M  END
>  <MODEL>
7

>  <REMARK>
 VINA RESULT:      -3.7      5.945      9.413
  Name = 
  3 active torsions:
  status: ('A' for Active; 'I' for Inactive)
    1  A    between atoms: C_8  and  N_14
    2  A    between atoms: C_20  and  O_22
    3  A    between atoms: O_22  and  C_24
                            x       y       z     vdW  Elec       q    Type
                         _______ _______ _______ _____ _____    ______ ____

>  <TORSDO>
F 3

$$$$
=
 OpenBabel11062416533D

 34 38  0  0  1  0  0  0  0  0999 V2000
  184.1400  175.5890  134.8780 C   0  0  1  0  0  3  0  0  0  0  0  0
  179.7390  175.4500  135.0180 C   0  0  0  0  0  2  0  0  0  0  0  0
  181.8350  171.1400  135.6180 S   0  0  0  0  0  0  0  0  0  0  0  0
  180.3250  173.3110  136.2650 C   0  0  0  0  0  2  0  0  0  0  0  0
  181.3870  172.8760  135.2440 C   0  0  1  0  0  3  0  0  0  0  0  0
  181.3750  177.4400  135.8370 C   0  0  2  0  0  3  0  0  0  0  0  0
  186.3160  175.3320  135.8630 O   0  0  0  0  0  0  0  0  0  0  0  0
  183.9180  176.9740  135.4820 C   0  0  0  0  0  2  0  0  0  0  0  0
  182.6270  177.9150  134.5980 S   0  0  0  0  0  0  0  0  0  0  0  0
  182.6530  173.6480  135.3440 C   0  0  0  0  0  0  0  0  0  0  0  0
  185.1750  174.8300  135.6830 C   0  0  0  0  0  0  0  0  0  0  0  0
  183.3850  171.5990  136.4880 C   0  0  2  0  0  3  0  0  0  0  0  0
  182.8380  174.8350  134.7730 C   0  0  0  0  0  3  0  0  0  0  0  0
  183.7260  172.9700  136.0350 C   0  0  0  0  0  0  0  0  0  0  0  0
  178.9330  175.0460  137.3500 C   0  0  0  0  0  1  0  0  0  0  0  0
  184.4760  170.6130  136.1040 C   0  0  0  0  0  1  0  0  0  0  0  0
  180.0640  174.8130  136.3670 C   0  0  2  0  0  3  0  0  0  0  0  0
  184.8890  173.5250  136.2080 N   0  0  0  0  0  0  0  0  0  0  0  0
  179.7010  177.2790  135.1220 S   0  0  0  0  0  0  0  0  0  0  0  0
  180.7620  180.4570  138.1080 C   0  0  0  0  0  2  0  0  0  0  0  0
  181.9370  178.6540  139.3820 C   0  0  0  0  0  0  0  0  0  0  0  0
  182.1700  176.4490  138.4180 C   0  0  0  0  0  3  0  0  0  0  0  0
  181.3920  178.3340  137.0010 N   0  0  0  0  0  0  0  0  0  0  0  0
  182.6290  175.9820  139.6510 C   0  0  0  0  0  3  0  0  0  0  0  0
  181.5430  180.0220  139.2580 N   0  0  0  0  0  2  0  0  0  0  0  0
  181.2920  179.7990  136.8340 C   0  0  1  0  0  3  0  0  0  0  0  0
  182.4260  178.1510  140.5960 C   0  0  0  0  0  0  0  0  0  0  0  0
  181.8260  177.8010  138.2720 C   0  0  0  0  0  0  0  0  0  0  0  0
  182.5610  179.0040  141.7280 N   0  0  0  0  0  1  0  0  0  0  0  0
  182.7520  176.8360  140.7010 N   0  0  0  0  0  0  0  0  0  0  0  0
  180.4440  180.1350  135.7410 O   0  0  0  0  0  0  0  0  0  0  0  0
  180.6850  182.3690  134.5950 C   0  0  0  0  0  1  0  0  0  0  0  0
  178.9320  181.8200  136.0990 O   0  0  0  0  0  0  0  0  0  0  0  0
  179.9780  181.4330  135.5180 C   0  0  0  0  0  0  0  0  0  0  0  0
  1 13  1  1  0  0  0
  1  8  1  0  0  0  0
  1 11  1  0  0  0  0
  2 19  1  0  0  0  0
  2 17  1  0  0  0  0
  3 12  1  0  0  0  0
  4 17  1  0  0  0  0
  5 10  1  0  0  0  0
  5  3  1  0  0  0  0
  5  4  1  1  0  0  0
  6 23  1  1  0  0  0
  9  8  1  0  0  0  0
  9  6  1  0  0  0  0
 10 14  1  0  0  0  0
 11  7  2  0  0  0  0
 11 18  1  0  0  0  0
 12 16  1  6  0  0  0
 13 10  2  0  0  0  0
 14 18  2  0  0  0  0
 14 12  1  0  0  0  0
 17 15  1  1  0  0  0
 19  6  1  0  0  0  0
 20 25  1  0  0  0  0
 21 27  1  0  0  0  0
 22 24  2  0  0  0  0
 23 28  1  0  0  0  0
 24 30  1  0  0  0  0
 25 21  1  0  0  0  0
 26 31  1  6  0  0  0
 26 23  1  0  0  0  0
 26 20  1  0  0  0  0
 27 30  2  0  0  0  0
 27 29  1  0  0  0  0
 28 22  1  0  0  0  0
 28 21  2  0  0  0  0
 32 34  1  0  0  0  0
 34 31  1  0  0  0  0
 34 33  2  0  0  0  0
M  END
>  <MODEL>
8

>  <REMARK>
 VINA RESULT:      -3.7      5.991      8.961
  Name = 
  3 active torsions:
  status: ('A' for Active; 'I' for Inactive)
    1  A    between atoms: C_8  and  N_14
    2  A    between atoms: C_20  and  O_22
    3  A    between atoms: O_22  and  C_24
                            x       y       z     vdW  Elec       q    Type
                         _______ _______ _______ _____ _____    ______ ____

>  <TORSDO>
F 3

$$$$
=
 OpenBabel11062416533D

 34 38  0  0  1  0  0  0  0  0999 V2000
  188.5660  178.1440  138.9010 C   0  0  1  0  0  3  0  0  0  0  0  0
  188.7010  176.7790  134.7140 C   0  0  0  0  0  2  0  0  0  0  0  0
  192.9500  176.4750  136.9900 S   0  0  0  0  0  0  0  0  0  0  0  0
  190.7390  175.5930  135.6700 C   0  0  0  0  0  2  0  0  0  0  0  0
  191.2470  176.8340  136.4180 C   0  0  1  0  0  3  0  0  0  0  0  0
  186.6520  176.5910  136.4680 C   0  0  2  0  0  3  0  0  0  0  0  0
  188.7450  177.7850  141.2690 O   0  0  0  0  0  0  0  0  0  0  0  0
  187.1390  177.6030  138.8230 C   0  0  0  0  0  2  0  0  0  0  0  0
  186.2690  178.1590  137.3170 S   0  0  0  0  0  0  0  0  0  0  0  0
  190.4680  177.1450  137.6440 C   0  0  0  0  0  0  0  0  0  0  0  0
  189.2600  177.6050  140.1340 C   0  0  0  0  0  0  0  0  0  0  0  0
  192.4240  176.1040  138.7100 C   0  0  2  0  0  3  0  0  0  0  0  0
  189.3280  177.8280  137.6370 C   0  0  0  0  0  3  0  0  0  0  0  0
  191.0910  176.7320  138.8810 C   0  0  0  0  0  0  0  0  0  0  0  0
  188.9290  174.2920  134.5940 C   0  0  0  0  0  1  0  0  0  0  0  0
  193.4340  176.7030  139.6730 C   0  0  0  0  0  1  0  0  0  0  0  0
  189.2340  175.5310  135.4140 C   0  0  2  0  0  3  0  0  0  0  0  0
  190.5230  176.9280  140.0340 N   0  0  0  0  0  0  0  0  0  0  0  0
  186.8690  176.8000  134.6650 S   0  0  0  0  0  0  0  0  0  0  0  0
  185.0950  173.3530  137.7810 C   0  0  0  0  0  2  0  0  0  0  0  0
  183.3120  174.8450  136.8610 C   0  0  0  0  0  0  0  0  0  0  0  0
  183.8330  177.1340  136.2820 C   0  0  0  0  0  3  0  0  0  0  0  0
  185.6730  175.5450  136.7860 N   0  0  0  0  0  0  0  0  0  0  0  0
  182.4690  177.3800  136.1150 C   0  0  0  0  0  3  0  0  0  0  0  0
  183.7390  173.5500  137.2850 N   0  0  0  0  0  2  0  0  0  0  0  0
  186.0880  174.1330  136.9190 C   0  0  1  0  0  3  0  0  0  0  0  0
  181.9540  175.1270  136.6600 C   0  0  0  0  0  0  0  0  0  0  0  0
  184.2670  175.8530  136.6500 C   0  0  0  0  0  0  0  0  0  0  0  0
  180.9700  174.1150  136.8530 N   0  0  0  0  0  1  0  0  0  0  0  0
  181.5680  176.3800  136.3000 N   0  0  0  0  0  0  0  0  0  0  0  0
  187.3890  174.0310  137.4900 O   0  0  0  0  0  0  0  0  0  0  0  0
  187.7160  171.6730  136.6570 C   0  0  0  0  0  1  0  0  0  0  0  0
  189.4400  173.0150  137.5890 O   0  0  0  0  0  0  0  0  0  0  0  0
  188.2250  172.9350  137.2710 C   0  0  0  0  0  0  0  0  0  0  0  0
  1 13  1  6  0  0  0
  1 11  1  0  0  0  0
  2 17  1  0  0  0  0
  3 12  1  0  0  0  0
  5  4  1  1  0  0  0
  5  3  1  0  0  0  0
  5 10  1  0  0  0  0
  6 23  1  6  0  0  0
  6  9  1  0  0  0  0
  8  1  1  0  0  0  0
  9  8  1  0  0  0  0
 10 14  1  0  0  0  0
 11  7  2  0  0  0  0
 12 14  1  0  0  0  0
 12 16  1  1  0  0  0
 13 10  2  0  0  0  0
 14 18  2  0  0  0  0
 17 15  1  6  0  0  0
 17  4  1  0  0  0  0
 18 11  1  0  0  0  0
 19  2  1  0  0  0  0
 19  6  1  0  0  0  0
 21 25  1  0  0  0  0
 22 28  1  0  0  0  0
 23 26  1  0  0  0  0
 24 22  2  0  0  0  0
 24 30  1  0  0  0  0
 25 20  1  0  0  0  0
 26 31  1  1  0  0  0
 26 20  1  0  0  0  0
 27 29  1  0  0  0  0
 27 21  1  0  0  0  0
 28 23  1  0  0  0  0
 28 21  2  0  0  0  0
 30 27  2  0  0  0  0
 32 34  1  0  0  0  0
 34 31  1  0  0  0  0
 34 33  2  0  0  0  0
M  END
>  <MODEL>
9

>  <REMARK>
 VINA RESULT:      -3.6      2.536      7.091
  Name = 
  3 active torsions:
  status: ('A' for Active; 'I' for Inactive)
    1  A    between atoms: C_8  and  N_14
    2  A    between atoms: C_20  and  O_22
    3  A    between atoms: O_22  and  C_24
                            x       y       z     vdW  Elec       q    Type
                         _______ _______ _______ _____ _____    ______ ____

>  <TORSDO>
F 3

$$$$
