=
 OpenBabel11062415343D

 35 38  0  0  1  0  0  0  0  0999 V2000
  185.4560  178.8600  140.8820 C   0  0  1  0  0  3  0  0  0  0  0  0
  189.6020  175.0590  142.9500 O   0  0  0  0  0  1  0  0  0  0  0  0
  189.9230  177.1500  140.5420 C   0  0  0  0  0  2  0  0  0  0  0  0
  187.7940  176.6140  142.9800 C   0  0  0  0  0  2  0  0  0  0  0  0
  191.0280  177.7130  145.5080 N   0  0  0  0  0  0  0  0  0  0  0  0
  186.1590  178.2880  138.3930 C   0  0  0  0  0  2  0  0  0  0  0  0
  191.7220  176.5620  144.9500 C   0  0  0  0  0  2  0  0  0  0  0  0
  190.8930  178.2730  144.1520 C   0  0  2  0  0  3  0  0  0  0  0  0
  188.6570  176.9120  138.4110 C   0  0  0  0  0  2  0  0  0  0  0  0
  187.7320  178.2390  140.3270 C   0  0  0  0  0  3  0  0  0  0  0  0
  190.2920  177.3730  143.0580 C   0  0  1  0  0  0  0  0  0  0  0  0
  191.6980  177.1210  143.5430 C   0  0  2  0  0  3  0  0  0  0  0  0
  189.2240  176.3120  143.4330 C   0  0  2  0  0  3  0  0  0  0  0  0
  185.7800  178.1020  143.2910 C   0  0  0  0  0  2  0  0  0  0  0  0
  188.1280  177.6790  137.1900 C   0  0  0  0  0  2  0  0  0  0  0  0
  185.2270  177.7480  141.9100 C   0  0  0  0  0  2  0  0  0  0  0  0
  188.9750  177.8470  139.5720 C   0  0  1  0  0  3  0  0  0  0  0  0
  186.4990  178.4720  139.8540 C   0  0  0  0  0  0  0  0  0  0  0  0
  190.2590  178.0800  141.7020 C   0  0  0  0  0  2  0  0  0  0  0  0
  187.2350  178.7880  137.5460 N   0  0  0  0  0  2  0  0  0  0  0  0
  187.3020  177.9940  143.3990 C   0  0  0  0  0  2  0  0  0  0  0  0
  188.9570  178.4550  146.3110 O   0  0  0  0  0  1  0  0  0  0  0  0
  189.7390  177.3210  146.0810 C   0  0  2  0  0  3  0  0  0  0  0  0
  189.9530  176.6020  147.4010 C   0  0  0  0  0  1  0  0  0  0  0  0
  184.3640  180.1860  139.1950 O   0  0  0  0  0  1  0  0  0  0  0  0
  184.1300  179.4190  140.3390 C   0  0  1  0  0  3  0  0  0  0  0  0
  183.0310  177.7920  138.9750 O   0  0  0  0  0  0  0  0  0  0  0  0
  183.0550  178.3970  140.0810 C   0  0  0  0  0  0  0  0  0  0  0  0
  182.0630  178.1560  141.0360 O   0  0  0  0  0  0  0  0  0  0  0  0
  181.6250  179.1470  141.9600 C   0  0  1  0  0  3  0  0  0  0  0  0
  180.2540  179.6690  141.5620 C   0  0  0  0  0  1  0  0  0  0  0  0
  182.6750  179.1700  144.2750 C   0  0  0  0  0  1  0  0  0  0  0  0
  181.5860  178.5860  143.3820 C   0  0  1  0  0  3  0  0  0  0  0  0
  179.6340  177.4980  144.2880 O   0  0  0  0  0  1  0  0  0  0  0  0
  180.2080  178.7420  144.0150 C   0  0  0  0  0  2  0  0  0  0  0  0
  1 26  1  6  0  0  0
  1 16  1  0  0  0  0
  3 19  1  0  0  0  0
  4 21  1  0  0  0  0
  4 13  1  0  0  0  0
  5 23  1  0  0  0  0
  6 18  1  0  0  0  0
  7  5  1  0  0  0  0
  8  5  1  1  0  0  0
 11 19  1  6  0  0  0
 11 13  1  0  0  0  0
 11 12  1  0  0  0  0
 11  8  1  0  0  0  0
 12  8  1  0  0  0  0
 12  7  1  1  0  0  0
 13  2  1  6  0  0  0
 14 21  1  0  0  0  0
 15 20  1  0  0  0  0
 15  9  1  0  0  0  0
 16 14  1  0  0  0  0
 17  9  1  6  0  0  0
 17 10  1  0  0  0  0
 17  3  1  0  0  0  0
 18 10  2  0  0  0  0
 18  1  1  0  0  0  0
 20  6  1  0  0  0  0
 23 22  1  0  0  0  0
 23 24  1  1  0  0  0
 26 25  1  6  0  0  0
 27 28  2  0  0  0  0
 28 26  1  0  0  0  0
 28 29  1  0  0  0  0
 29 30  1  0  0  0  0
 30 31  1  6  0  0  0
 30 33  1  0  0  0  0
 33 35  1  0  0  0  0
 33 32  1  1  0  0  0
 35 34  1  0  0  0  0
M  END
>  <MODEL>
1

>  <REMARK>
 VINA RESULT:      -8.1      0.000      0.000
  Name = 
  7 active torsions:
  status: ('A' for Active; 'I' for Inactive)
    1  A    between atoms: C_3  and  C_23
    2  A    between atoms: C_4  and  C_8
    3  A    between atoms: C_4  and  C_16
    4  A    between atoms: N_11  and  C_29
    5  A    between atoms: C_14  and  O_22
    6  A    between atoms: C_14  and  C_23
    7  A    between atoms: C_16  and  O_22
                            x       y       z     vdW  Elec       q    Type
                         _______ _______ _______ _____ _____    ______ ____

>  <TORSDO>
F 7

$$$$
=
 OpenBabel11062415343D

 35 38  0  0  1  0  0  0  0  0999 V2000
  188.1250  177.7010  141.3260 C   0  0  1  0  0  3  0  0  0  0  0  0
  183.5680  180.5490  138.6770 O   0  0  0  0  0  1  0  0  0  0  0  0
  185.5110  178.3670  137.3620 C   0  0  0  0  0  2  0  0  0  0  0  0
  184.8070  179.4350  140.3820 C   0  0  0  0  0  2  0  0  0  0  0  0
  180.9850  177.7250  139.6630 N   0  0  0  0  0  0  0  0  0  0  0  0
  189.6040  178.0260  139.1520 C   0  0  0  0  0  2  0  0  0  0  0  0
  180.8780  178.6760  138.5660 C   0  0  0  0  0  2  0  0  0  0  0  0
  182.2000  177.1670  139.0450 C   0  0  2  0  0  3  0  0  0  0  0  0
  187.9310  178.8130  136.9820 C   0  0  0  0  0  2  0  0  0  0  0  0
  187.1230  177.7850  139.1210 C   0  0  0  0  0  3  0  0  0  0  0  0
  183.3270  178.1450  138.6620 C   0  0  1  0  0  0  0  0  0  0  0  0
  182.0680  178.0930  137.8320 C   0  0  2  0  0  3  0  0  0  0  0  0
  183.5540  179.4260  139.5050 C   0  0  2  0  0  3  0  0  0  0  0  0
  185.9420  178.4410  142.4050 C   0  0  0  0  0  2  0  0  0  0  0  0
  189.3010  178.1460  136.7890 C   0  0  0  0  0  2  0  0  0  0  0  0
  187.3270  178.8680  141.9150 C   0  0  0  0  0  2  0  0  0  0  0  0
  186.9280  177.8680  137.6300 C   0  0  1  0  0  3  0  0  0  0  0  0
  188.2660  177.8160  139.8210 C   0  0  0  0  0  0  0  0  0  0  0  0
  184.4960  177.4210  137.9940 C   0  0  0  0  0  2  0  0  0  0  0  0
  189.6820  177.2750  137.9060 N   0  0  0  0  0  2  0  0  0  0  0  0
  184.9270  178.2130  141.2830 C   0  0  0  0  0  2  0  0  0  0  0  0
  180.8070  177.6380  141.9960 O   0  0  0  0  0  1  0  0  0  0  0  0
  181.2640  178.4110  140.9260 C   0  0  2  0  0  3  0  0  0  0  0  0
  180.5570  179.7530  140.9570 C   0  0  0  0  0  1  0  0  0  0  0  0
  189.8600  178.6090  142.7280 O   0  0  0  0  0  1  0  0  0  0  0  0
  189.4170  177.4330  142.1180 C   0  0  1  0  0  3  0  0  0  0  0  0
  190.0600  175.2910  142.9650 O   0  0  0  0  0  0  0  0  0  0  0  0
  189.3380  176.3130  143.1220 C   0  0  0  0  0  0  0  0  0  0  0  0
  188.4370  176.3810  144.1890 O   0  0  0  0  0  0  0  0  0  0  0  0
  188.5400  177.3540  145.2250 C   0  0  1  0  0  3  0  0  0  0  0  0
  187.1580  177.8460  145.6220 C   0  0  0  0  0  1  0  0  0  0  0  0
  190.7600  177.0940  146.4350 C   0  0  0  0  0  1  0  0  0  0  0  0
  189.2680  176.7790  146.4400 C   0  0  1  0  0  3  0  0  0  0  0  0
  189.3790  178.1880  148.3950 O   0  0  0  0  0  1  0  0  0  0  0  0
  188.6160  177.2120  147.7490 C   0  0  0  0  0  2  0  0  0  0  0  0
  1 16  1  0  0  0  0
  1 26  1  1  0  0  0
  3 17  1  0  0  0  0
  3 19  1  0  0  0  0
  4 21  1  0  0  0  0
  5 23  1  0  0  0  0
  6 18  1  0  0  0  0
  7  5  1  0  0  0  0
  8  5  1  1  0  0  0
 10 18  2  0  0  0  0
 11 19  1  6  0  0  0
 11  8  1  0  0  0  0
 11 13  1  0  0  0  0
 12  7  1  1  0  0  0
 12 11  1  0  0  0  0
 12  8  1  0  0  0  0
 13  2  1  6  0  0  0
 13  4  1  0  0  0  0
 15  9  1  0  0  0  0
 15 20  1  0  0  0  0
 16 14  1  0  0  0  0
 17  9  1  1  0  0  0
 17 10  1  0  0  0  0
 18  1  1  0  0  0  0
 20  6  1  0  0  0  0
 21 14  1  0  0  0  0
 23 24  1  6  0  0  0
 23 22  1  0  0  0  0
 26 25  1  1  0  0  0
 26 28  1  0  0  0  0
 27 28  2  0  0  0  0
 28 29  1  0  0  0  0
 29 30  1  0  0  0  0
 30 31  1  1  0  0  0
 30 33  1  0  0  0  0
 33 32  1  1  0  0  0
 33 35  1  0  0  0  0
 35 34  1  0  0  0  0
M  END
>  <MODEL>
2

>  <REMARK>
 VINA RESULT:      -7.8      2.182      7.494
  Name = 
  7 active torsions:
  status: ('A' for Active; 'I' for Inactive)
    1  A    between atoms: C_3  and  C_23
    2  A    between atoms: C_4  and  C_8
    3  A    between atoms: C_4  and  C_16
    4  A    between atoms: N_11  and  C_29
    5  A    between atoms: C_14  and  O_22
    6  A    between atoms: C_14  and  C_23
    7  A    between atoms: C_16  and  O_22
                            x       y       z     vdW  Elec       q    Type
                         _______ _______ _______ _____ _____    ______ ____

>  <TORSDO>
F 7

$$$$
=
 OpenBabel11062415343D

 35 38  0  0  1  0  0  0  0  0999 V2000
  184.3010  178.4840  141.2000 C   0  0  1  0  0  3  0  0  0  0  0  0
  189.8060  179.3900  143.3870 O   0  0  0  0  0  1  0  0  0  0  0  0
  187.3680  177.9030  144.8410 C   0  0  0  0  0  2  0  0  0  0  0  0
  188.0920  178.9040  141.8020 C   0  0  0  0  0  2  0  0  0  0  0  0
  191.1340  175.9430  141.9820 N   0  0  0  0  0  0  0  0  0  0  0  0
  183.2530  179.1190  143.5490 C   0  0  0  0  0  2  0  0  0  0  0  0
  191.6740  176.7110  143.0940 C   0  0  0  0  0  2  0  0  0  0  0  0
  189.8700  175.7860  142.7210 C   0  0  2  0  0  3  0  0  0  0  0  0
  185.3050  179.1150  145.5290 C   0  0  0  0  0  2  0  0  0  0  0  0
  185.4860  178.0460  143.2690 C   0  0  0  0  0  3  0  0  0  0  0  0
  189.1970  177.0540  143.2760 C   0  0  1  0  0  0  0  0  0  0  0  0
  190.4360  176.5120  143.9440 C   0  0  2  0  0  3  0  0  0  0  0  0
  189.3460  178.3990  142.5190 C   0  0  2  0  0  3  0  0  0  0  0  0
  186.4860  178.5200  139.8940 C   0  0  0  0  0  2  0  0  0  0  0  0
  183.8150  178.9410  145.8610 C   0  0  0  0  0  2  0  0  0  0  0  0
  185.3920  179.3520  140.5650 C   0  0  0  0  0  2  0  0  0  0  0  0
  185.8470  177.9390  144.7270 C   0  0  1  0  0  3  0  0  0  0  0  0
  184.3610  178.5200  142.7140 C   0  0  0  0  0  0  0  0  0  0  0  0
  187.9220  176.7220  144.0520 C   0  0  0  0  0  2  0  0  0  0  0  0
  183.0450  178.3430  144.7640 N   0  0  0  0  0  2  0  0  0  0  0  0
  187.4650  177.8710  140.8740 C   0  0  0  0  0  2  0  0  0  0  0  0
  190.5340  176.0060  139.7190 O   0  0  0  0  0  1  0  0  0  0  0  0
  190.9850  176.7810  140.7900 C   0  0  2  0  0  3  0  0  0  0  0  0
  192.3210  177.3980  140.4170 C   0  0  0  0  0  1  0  0  0  0  0  0
  183.0630  179.5250  139.4160 O   0  0  0  0  0  1  0  0  0  0  0  0
  182.9250  178.7360  140.5610 C   0  0  1  0  0  3  0  0  0  0  0  0
  182.6850  176.5060  139.7300 O   0  0  0  0  0  0  0  0  0  0  0  0
  182.1180  177.5010  140.2580 C   0  0  0  0  0  0  0  0  0  0  0  0
  180.7430  177.4740  140.5130 O   0  0  0  0  0  0  0  0  0  0  0  0
  179.9050  178.6130  140.3450 C   0  0  1  0  0  3  0  0  0  0  0  0
  178.9310  178.3850  139.2010 C   0  0  0  0  0  1  0  0  0  0  0  0
  179.7080  178.1840  142.8430 C   0  0  0  0  0  1  0  0  0  0  0  0
  179.1450  178.9240  141.6350 C   0  0  1  0  0  3  0  0  0  0  0  0
  180.0600  180.8410  142.7770 O   0  0  0  0  0  1  0  0  0  0  0  0
  179.0600  180.4240  141.8940 C   0  0  0  0  0  2  0  0  0  0  0  0
  1 26  1  1  0  0  0
  1 18  1  0  0  0  0
  4 13  1  0  0  0  0
  5  7  1  0  0  0  0
  6 20  1  0  0  0  0
  8  5  1  6  0  0  0
  8 11  1  0  0  0  0
  8 12  1  0  0  0  0
  9 15  1  0  0  0  0
 11 12  1  0  0  0  0
 11 19  1  1  0  0  0
 12  7  1  6  0  0  0
 13 11  1  0  0  0  0
 13  2  1  1  0  0  0
 14 16  1  0  0  0  0
 14 21  1  0  0  0  0
 16  1  1  0  0  0  0
 17 10  1  6  0  0  0
 17  3  1  0  0  0  0
 17  9  1  0  0  0  0
 18 10  2  0  0  0  0
 18  6  1  0  0  0  0
 19  3  1  0  0  0  0
 20 15  1  0  0  0  0
 21  4  1  0  0  0  0
 22 23  1  0  0  0  0
 23 24  1  6  0  0  0
 23  5  1  0  0  0  0
 26 25  1  6  0  0  0
 27 28  2  0  0  0  0
 28 29  1  0  0  0  0
 28 26  1  0  0  0  0
 30 31  1  6  0  0  0
 30 29  1  0  0  0  0
 30 33  1  0  0  0  0
 33 35  1  0  0  0  0
 33 32  1  1  0  0  0
 35 34  1  0  0  0  0
M  END
>  <MODEL>
3

>  <REMARK>
 VINA RESULT:      -7.6      2.261      4.348
  Name = 
  7 active torsions:
  status: ('A' for Active; 'I' for Inactive)
    1  A    between atoms: C_3  and  C_23
    2  A    between atoms: C_4  and  C_8
    3  A    between atoms: C_4  and  C_16
    4  A    between atoms: N_11  and  C_29
    5  A    between atoms: C_14  and  O_22
    6  A    between atoms: C_14  and  C_23
    7  A    between atoms: C_16  and  O_22
                            x       y       z     vdW  Elec       q    Type
                         _______ _______ _______ _____ _____    ______ ____

>  <TORSDO>
F 7

$$$$
=
 OpenBabel11062415343D

 35 38  0  0  1  0  0  0  0  0999 V2000
  184.3150  178.4180  141.1980 C   0  0  1  0  0  3  0  0  0  0  0  0
  189.7990  179.4120  143.3970 O   0  0  0  0  0  1  0  0  0  0  0  0
  187.3700  177.9180  144.8590 C   0  0  0  0  0  2  0  0  0  0  0  0
  188.0980  178.8860  141.8110 C   0  0  0  0  0  2  0  0  0  0  0  0
  191.1700  175.9610  142.0440 N   0  0  0  0  0  0  0  0  0  0  0  0
  183.2490  179.0720  143.5330 C   0  0  0  0  0  2  0  0  0  0  0  0
  191.6970  176.7490  143.1480 C   0  0  0  0  0  2  0  0  0  0  0  0
  189.9040  175.7990  142.7790 C   0  0  2  0  0  3  0  0  0  0  0  0
  185.2920  179.1160  145.5230 C   0  0  0  0  0  2  0  0  0  0  0  0
  185.4940  178.0200  143.2770 C   0  0  0  0  0  3  0  0  0  0  0  0
  189.2160  177.0680  143.3150 C   0  0  1  0  0  0  0  0  0  0  0  0
  190.4570  176.5480  143.9960 C   0  0  2  0  0  3  0  0  0  0  0  0
  189.3540  178.4040  142.5400 C   0  0  2  0  0  3  0  0  0  0  0  0
  186.5050  178.4590  139.9010 C   0  0  0  0  0  2  0  0  0  0  0  0
  183.8020  178.9310  145.8500 C   0  0  0  0  0  2  0  0  0  0  0  0
  185.3980  179.2880  140.5570 C   0  0  0  0  0  2  0  0  0  0  0  0
  185.8500  177.9360  144.7390 C   0  0  1  0  0  3  0  0  0  0  0  0
  184.3670  178.4740  142.7120 C   0  0  0  0  0  0  0  0  0  0  0  0
  187.9410  176.7320  144.0900 C   0  0  0  0  0  2  0  0  0  0  0  0
  183.0440  178.3100  144.7580 N   0  0  0  0  0  2  0  0  0  0  0  0
  187.4860  177.8340  140.8940 C   0  0  0  0  0  2  0  0  0  0  0  0
  190.6370  175.9770  139.7640 O   0  0  0  0  0  1  0  0  0  0  0  0
  191.0180  176.7810  140.8410 C   0  0  2  0  0  3  0  0  0  0  0  0
  192.3330  177.4580  140.5020 C   0  0  0  0  0  1  0  0  0  0  0  0
  183.0440  179.5750  139.5110 O   0  0  0  0  0  1  0  0  0  0  0  0
  182.9380  178.6460  140.5490 C   0  0  1  0  0  3  0  0  0  0  0  0
  180.9850  177.3020  140.2350 O   0  0  0  0  0  0  0  0  0  0  0  0
  182.2330  177.4020  140.0770 C   0  0  0  0  0  0  0  0  0  0  0  0
  182.9580  176.3460  139.5160 O   0  0  0  0  0  0  0  0  0  0  0  0
  183.0440  176.1300  138.1110 C   0  0  1  0  0  3  0  0  0  0  0  0
  184.2210  176.8970  137.5320 C   0  0  0  0  0  1  0  0  0  0  0  0
  182.1690  174.1670  136.7530 C   0  0  0  0  0  1  0  0  0  0  0  0
  183.1750  174.6400  137.7970 C   0  0  1  0  0  3  0  0  0  0  0  0
  184.9870  173.0590  137.9850 O   0  0  0  0  0  1  0  0  0  0  0  0
  184.6000  174.2680  137.4010 C   0  0  0  0  0  2  0  0  0  0  0  0
  1 26  1  6  0  0  0
  1 18  1  0  0  0  0
  4 13  1  0  0  0  0
  5  7  1  0  0  0  0
  6 20  1  0  0  0  0
  8  5  1  6  0  0  0
  8 11  1  0  0  0  0
  8 12  1  0  0  0  0
  9 15  1  0  0  0  0
 11 12  1  0  0  0  0
 11 19  1  1  0  0  0
 12  7  1  6  0  0  0
 13 11  1  0  0  0  0
 13  2  1  1  0  0  0
 14 16  1  0  0  0  0
 14 21  1  0  0  0  0
 16  1  1  0  0  0  0
 17 10  1  6  0  0  0
 17  3  1  0  0  0  0
 17  9  1  0  0  0  0
 18 10  2  0  0  0  0
 18  6  1  0  0  0  0
 19  3  1  0  0  0  0
 20 15  1  0  0  0  0
 21  4  1  0  0  0  0
 22 23  1  0  0  0  0
 23 24  1  6  0  0  0
 23  5  1  0  0  0  0
 26 25  1  6  0  0  0
 28 27  2  0  0  0  0
 28 26  1  0  0  0  0
 29 28  1  0  0  0  0
 30 31  1  1  0  0  0
 30 29  1  0  0  0  0
 33 32  1  6  0  0  0
 33 30  1  0  0  0  0
 35 33  1  0  0  0  0
 35 34  1  0  0  0  0
M  END
>  <MODEL>
4

>  <REMARK>
 VINA RESULT:      -7.6      2.718      5.282
  Name = 
  7 active torsions:
  status: ('A' for Active; 'I' for Inactive)
    1  A    between atoms: C_3  and  C_23
    2  A    between atoms: C_4  and  C_8
    3  A    between atoms: C_4  and  C_16
    4  A    between atoms: N_11  and  C_29
    5  A    between atoms: C_14  and  O_22
    6  A    between atoms: C_14  and  C_23
    7  A    between atoms: C_16  and  O_22
                            x       y       z     vdW  Elec       q    Type
                         _______ _______ _______ _____ _____    ______ ____

>  <TORSDO>
F 7

$$$$
=
 OpenBabel11062415343D

 35 38  0  0  1  0  0  0  0  0999 V2000
  185.3810  178.9560  140.8700 C   0  0  1  0  0  3  0  0  0  0  0  0
  189.4730  175.1030  142.9440 O   0  0  0  0  0  1  0  0  0  0  0  0
  189.7920  177.1190  140.4740 C   0  0  0  0  0  2  0  0  0  0  0  0
  187.7090  176.7060  142.9730 C   0  0  0  0  0  2  0  0  0  0  0  0
  191.0280  177.7840  145.3960 N   0  0  0  0  0  0  0  0  0  0  0  0
  186.0100  178.3000  138.3820 C   0  0  0  0  0  2  0  0  0  0  0  0
  191.6790  176.6000  144.8540 C   0  0  0  0  0  2  0  0  0  0  0  0
  190.8760  178.3120  144.0290 C   0  0  2  0  0  3  0  0  0  0  0  0
  188.4710  176.8590  138.3800 C   0  0  0  0  0  2  0  0  0  0  0  0
  187.6260  178.2600  140.2800 C   0  0  0  0  0  3  0  0  0  0  0  0
  190.2260  177.3990  142.9730 C   0  0  1  0  0  0  0  0  0  0  0  0
  191.6360  177.1230  143.4330 C   0  0  2  0  0  3  0  0  0  0  0  0
  189.1400  176.3780  143.4020 C   0  0  2  0  0  3  0  0  0  0  0  0
  185.7420  178.2540  143.2900 C   0  0  0  0  0  2  0  0  0  0  0  0
  187.9330  177.6070  137.1510 C   0  0  0  0  0  2  0  0  0  0  0  0
  185.1470  177.8780  141.9320 C   0  0  0  0  0  2  0  0  0  0  0  0
  188.8400  177.8150  139.5070 C   0  0  1  0  0  3  0  0  0  0  0  0
  186.3890  178.5140  139.8290 C   0  0  0  0  0  0  0  0  0  0  0  0
  190.1800  178.0700  141.6000 C   0  0  0  0  0  2  0  0  0  0  0  0
  187.0780  178.7480  137.4970 N   0  0  0  0  0  2  0  0  0  0  0  0
  187.2620  178.1090  143.3660 C   0  0  0  0  0  2  0  0  0  0  0  0
  188.9970  178.6020  146.2260 O   0  0  0  0  0  1  0  0  0  0  0  0
  189.7430  177.4420  146.0090 C   0  0  2  0  0  3  0  0  0  0  0  0
  189.9700  176.7520  147.3420 C   0  0  0  0  0  1  0  0  0  0  0  0
  184.2560  180.1290  139.0930 O   0  0  0  0  0  1  0  0  0  0  0  0
  184.0570  179.5360  140.3420 C   0  0  1  0  0  3  0  0  0  0  0  0
  182.1300  178.4800  141.2860 O   0  0  0  0  0  0  0  0  0  0  0  0
  182.9020  178.5700  140.2930 C   0  0  0  0  0  0  0  0  0  0  0  0
  182.7170  177.7450  139.1800 O   0  0  0  0  0  0  0  0  0  0  0  0
  182.9160  176.3350  139.2220 C   0  0  1  0  0  3  0  0  0  0  0  0
  181.5950  175.6250  139.4630 C   0  0  0  0  0  1  0  0  0  0  0  0
  183.6290  174.3170  137.8510 C   0  0  0  0  0  1  0  0  0  0  0  0
  183.5590  175.8380  137.9270 C   0  0  1  0  0  3  0  0  0  0  0  0
  183.7840  177.1260  135.9000 O   0  0  0  0  0  1  0  0  0  0  0  0
  182.8760  176.4230  136.6950 C   0  0  0  0  0  2  0  0  0  0  0  0
  1 26  1  6  0  0  0
  1 16  1  0  0  0  0
  3 19  1  0  0  0  0
  4 21  1  0  0  0  0
  4 13  1  0  0  0  0
  5 23  1  0  0  0  0
  6 18  1  0  0  0  0
  7  5  1  0  0  0  0
  8  5  1  1  0  0  0
 11 19  1  6  0  0  0
 11 13  1  0  0  0  0
 11 12  1  0  0  0  0
 11  8  1  0  0  0  0
 12  8  1  0  0  0  0
 12  7  1  1  0  0  0
 13  2  1  6  0  0  0
 14 21  1  0  0  0  0
 15 20  1  0  0  0  0
 15  9  1  0  0  0  0
 16 14  1  0  0  0  0
 17  9  1  6  0  0  0
 17 10  1  0  0  0  0
 17  3  1  0  0  0  0
 18 10  2  0  0  0  0
 18  1  1  0  0  0  0
 20  6  1  0  0  0  0
 23 22  1  0  0  0  0
 23 24  1  1  0  0  0
 26 25  1  6  0  0  0
 28 26  1  0  0  0  0
 28 27  2  0  0  0  0
 29 30  1  0  0  0  0
 29 28  1  0  0  0  0
 30 31  1  6  0  0  0
 33 32  1  6  0  0  0
 33 30  1  0  0  0  0
 34 35  1  0  0  0  0
 35 33  1  0  0  0  0
M  END
>  <MODEL>
5

>  <REMARK>
 VINA RESULT:      -7.3      1.468      2.984
  Name = 
  7 active torsions:
  status: ('A' for Active; 'I' for Inactive)
    1  A    between atoms: C_3  and  C_23
    2  A    between atoms: C_4  and  C_8
    3  A    between atoms: C_4  and  C_16
    4  A    between atoms: N_11  and  C_29
    5  A    between atoms: C_14  and  O_22
    6  A    between atoms: C_14  and  C_23
    7  A    between atoms: C_16  and  O_22
                            x       y       z     vdW  Elec       q    Type
                         _______ _______ _______ _____ _____    ______ ____

>  <TORSDO>
F 7

$$$$
=
 OpenBabel11062415343D

 35 38  0  0  1  0  0  0  0  0999 V2000
  190.1260  176.7530  139.9290 C   0  0  1  0  0  3  0  0  0  0  0  0
  186.7980  178.6030  135.3020 O   0  0  0  0  0  1  0  0  0  0  0  0
  188.5050  175.8980  135.4970 C   0  0  0  0  0  2  0  0  0  0  0  0
  187.4470  178.2160  137.5640 C   0  0  0  0  0  2  0  0  0  0  0  0
  183.5810  176.7240  136.6240 N   0  0  0  0  0  0  0  0  0  0  0  0
  192.0320  175.9780  138.2610 C   0  0  0  0  0  2  0  0  0  0  0  0
  183.8730  177.1200  135.2540 C   0  0  0  0  0  2  0  0  0  0  0  0
  184.7640  175.8460  136.6080 C   0  0  2  0  0  3  0  0  0  0  0  0
  190.9930  175.9130  135.6060 C   0  0  0  0  0  2  0  0  0  0  0  0
  189.6050  175.9780  137.6930 C   0  0  0  0  0  3  0  0  0  0  0  0
  186.1090  176.4570  136.1740 C   0  0  1  0  0  0  0  0  0  0  0  0
  185.0490  176.1720  135.1390 C   0  0  2  0  0  3  0  0  0  0  0  0
  186.4090  177.9490  136.4720 C   0  0  2  0  0  3  0  0  0  0  0  0
  187.9570  178.0820  140.0310 C   0  0  0  0  0  2  0  0  0  0  0  0
  192.2210  175.1040  136.0490 C   0  0  0  0  0  2  0  0  0  0  0  0
  189.4660  178.1270  139.7860 C   0  0  0  0  0  2  0  0  0  0  0  0
  189.7210  175.4330  136.2930 C   0  0  1  0  0  3  0  0  0  0  0  0
  190.5740  176.1990  138.5910 C   0  0  0  0  0  0  0  0  0  0  0  0
  187.2260  175.4120  136.1680 C   0  0  0  0  0  2  0  0  0  0  0  0
  192.2040  174.7630  137.4750 N   0  0  0  0  0  2  0  0  0  0  0  0
  187.1540  177.4900  138.8710 C   0  0  0  0  0  2  0  0  0  0  0  0
  183.8320  177.3900  138.8540 O   0  0  0  0  0  1  0  0  0  0  0  0
  183.7370  177.8550  137.5410 C   0  0  2  0  0  3  0  0  0  0  0  0
  182.5360  178.7780  137.4360 C   0  0  0  0  0  1  0  0  0  0  0  0
  191.9000  177.9180  141.0670 O   0  0  0  0  0  1  0  0  0  0  0  0
  191.1630  176.7310  141.0650 C   0  0  1  0  0  3  0  0  0  0  0  0
  190.5550  175.2540  142.8450 O   0  0  0  0  0  0  0  0  0  0  0  0
  190.6130  176.4470  142.4370 C   0  0  0  0  0  0  0  0  0  0  0  0
  190.1240  177.4870  143.2330 O   0  0  0  0  0  0  0  0  0  0  0  0
  190.8410  178.0100  144.3470 C   0  0  1  0  0  3  0  0  0  0  0  0
  191.1690  179.4770  144.1190 C   0  0  0  0  0  1  0  0  0  0  0  0
  188.5570  177.5970  145.3840 C   0  0  0  0  0  1  0  0  0  0  0  0
  190.0400  177.8390  145.6380 C   0  0  1  0  0  3  0  0  0  0  0  0
  192.0270  176.8390  146.5720 O   0  0  0  0  0  1  0  0  0  0  0  0
  190.6330  176.7550  146.5320 C   0  0  0  0  0  2  0  0  0  0  0  0
  1 26  1  1  0  0  0
  3 19  1  0  0  0  0
  4 21  1  0  0  0  0
  5 23  1  0  0  0  0
  6 18  1  0  0  0  0
  7  5  1  0  0  0  0
  8  5  1  1  0  0  0
  9 15  1  0  0  0  0
  9 17  1  0  0  0  0
 10 18  2  0  0  0  0
 11 19  1  1  0  0  0
 11 13  1  0  0  0  0
 11  8  1  0  0  0  0
 12  7  1  1  0  0  0
 12 11  1  0  0  0  0
 12  8  1  0  0  0  0
 13  2  1  6  0  0  0
 13  4  1  0  0  0  0
 15 20  1  0  0  0  0
 16  1  1  0  0  0  0
 16 14  1  0  0  0  0
 17  3  1  6  0  0  0
 17 10  1  0  0  0  0
 18  1  1  0  0  0  0
 20  6  1  0  0  0  0
 21 14  1  0  0  0  0
 23 24  1  1  0  0  0
 23 22  1  0  0  0  0
 26 25  1  1  0  0  0
 26 28  1  0  0  0  0
 28 27  2  0  0  0  0
 28 29  1  0  0  0  0
 29 30  1  0  0  0  0
 30 31  1  6  0  0  0
 30 33  1  0  0  0  0
 33 32  1  6  0  0  0
 33 35  1  0  0  0  0
 35 34  1  0  0  0  0
M  END
>  <MODEL>
6

>  <REMARK>
 VINA RESULT:      -7.1      3.476      8.248
  Name = 
  7 active torsions:
  status: ('A' for Active; 'I' for Inactive)
    1  A    between atoms: C_3  and  C_23
    2  A    between atoms: C_4  and  C_8
    3  A    between atoms: C_4  and  C_16
    4  A    between atoms: N_11  and  C_29
    5  A    between atoms: C_14  and  O_22
    6  A    between atoms: C_14  and  C_23
    7  A    between atoms: C_16  and  O_22
                            x       y       z     vdW  Elec       q    Type
                         _______ _______ _______ _____ _____    ______ ____

>  <TORSDO>
F 7

$$$$
=
 OpenBabel11062415343D

 35 38  0  0  1  0  0  0  0  0999 V2000
  184.5510  178.4630  142.9590 C   0  0  1  0  0  3  0  0  0  0  0  0
  190.4370  179.3770  143.6140 O   0  0  0  0  0  1  0  0  0  0  0  0
  188.4960  177.7730  145.5960 C   0  0  0  0  0  2  0  0  0  0  0  0
  188.3600  178.9310  142.5310 C   0  0  0  0  0  2  0  0  0  0  0  0
  191.3560  176.0280  141.7270 N   0  0  0  0  0  0  0  0  0  0  0  0
  184.1770  178.9640  145.5330 C   0  0  0  0  0  2  0  0  0  0  0  0
  192.1730  176.7530  142.6890 C   0  0  0  0  0  2  0  0  0  0  0  0
  190.3420  175.8090  142.7720 C   0  0  2  0  0  3  0  0  0  0  0  0
  186.6910  178.9080  146.8800 C   0  0  0  0  0  2  0  0  0  0  0  0
  186.2570  177.9510  144.6040 C   0  0  0  0  0  3  0  0  0  0  0  0
  189.8370  177.0370  143.5530 C   0  0  1  0  0  0  0  0  0  0  0  0
  191.2150  176.4880  143.8320 C   0  0  2  0  0  3  0  0  0  0  0  0
  189.7650  178.4190  142.8540 C   0  0  2  0  0  3  0  0  0  0  0  0
  186.2980  178.6050  141.1130 C   0  0  0  0  0  2  0  0  0  0  0  0
  185.3480  178.6880  147.5940 C   0  0  0  0  0  2  0  0  0  0  0  0
  185.4220  179.3810  142.0980 C   0  0  0  0  0  2  0  0  0  0  0  0
  187.0020  177.7830  145.9020 C   0  0  1  0  0  3  0  0  0  0  0  0
  185.0210  178.4280  144.4000 C   0  0  0  0  0  0  0  0  0  0  0  0
  188.8240  176.6420  144.6280 C   0  0  0  0  0  2  0  0  0  0  0  0
  184.3130  178.1270  146.7190 N   0  0  0  0  0  2  0  0  0  0  0  0
  187.5110  177.9300  141.7560 C   0  0  0  0  0  2  0  0  0  0  0  0
  190.1410  176.1900  139.7320 O   0  0  0  0  0  1  0  0  0  0  0  0
  190.8830  176.9180  140.6650 C   0  0  2  0  0  3  0  0  0  0  0  0
  192.0630  177.5570  139.9570 C   0  0  0  0  0  1  0  0  0  0  0  0
  182.7190  180.0170  143.1150 O   0  0  0  0  0  1  0  0  0  0  0  0
  183.0510  178.7160  142.7310 C   0  0  1  0  0  3  0  0  0  0  0  0
  181.5530  179.0630  140.8990 O   0  0  0  0  0  0  0  0  0  0  0  0
  182.5520  178.4310  141.3390 C   0  0  0  0  0  0  0  0  0  0  0  0
  183.1580  177.4410  140.5590 O   0  0  0  0  0  0  0  0  0  0  0  0
  182.7350  177.1360  139.2340 C   0  0  1  0  0  3  0  0  0  0  0  0
  183.8740  177.3650  138.2530 C   0  0  0  0  0  1  0  0  0  0  0  0
  180.7630  175.5560  139.5100 C   0  0  0  0  0  1  0  0  0  0  0  0
  182.2350  175.6940  139.1400 C   0  0  1  0  0  3  0  0  0  0  0  0
  181.3470  174.6350  137.1640 O   0  0  0  0  0  1  0  0  0  0  0  0
  182.5220  175.0830  137.7730 C   0  0  0  0  0  2  0  0  0  0  0  0
  1 26  1  1  0  0  0
  1 18  1  0  0  0  0
  3 17  1  0  0  0  0
  4 13  1  0  0  0  0
  5  7  1  0  0  0  0
  6 20  1  0  0  0  0
  8  5  1  6  0  0  0
  8 11  1  0  0  0  0
  8 12  1  0  0  0  0
  9 15  1  0  0  0  0
 11 12  1  0  0  0  0
 11 19  1  1  0  0  0
 12  7  1  6  0  0  0
 13 11  1  0  0  0  0
 13  2  1  1  0  0  0
 14 21  1  0  0  0  0
 14 16  1  0  0  0  0
 16  1  1  0  0  0  0
 17 10  1  6  0  0  0
 17  9  1  0  0  0  0
 18 10  2  0  0  0  0
 18  6  1  0  0  0  0
 19  3  1  0  0  0  0
 20 15  1  0  0  0  0
 21  4  1  0  0  0  0
 22 23  1  0  0  0  0
 23 24  1  6  0  0  0
 23  5  1  0  0  0  0
 26 25  1  6  0  0  0
 27 28  2  0  0  0  0
 28 26  1  0  0  0  0
 29 28  1  0  0  0  0
 30 31  1  6  0  0  0
 30 29  1  0  0  0  0
 33 30  1  0  0  0  0
 33 32  1  6  0  0  0
 34 35  1  0  0  0  0
 35 33  1  0  0  0  0
M  END
>  <MODEL>
7

>  <REMARK>
 VINA RESULT:      -7.1      2.587      5.232
  Name = 
  7 active torsions:
  status: ('A' for Active; 'I' for Inactive)
    1  A    between atoms: C_3  and  C_23
    2  A    between atoms: C_4  and  C_8
    3  A    between atoms: C_4  and  C_16
    4  A    between atoms: N_11  and  C_29
    5  A    between atoms: C_14  and  O_22
    6  A    between atoms: C_14  and  C_23
    7  A    between atoms: C_16  and  O_22
                            x       y       z     vdW  Elec       q    Type
                         _______ _______ _______ _____ _____    ______ ____

>  <TORSDO>
F 7

$$$$
=
 OpenBabel11062415343D

 35 38  0  0  1  0  0  0  0  0999 V2000
  188.0020  177.1840  137.9750 C   0  0  1  0  0  3  0  0  0  0  0  0
  183.4340  175.2880  134.5940 O   0  0  0  0  0  1  0  0  0  0  0  0
  185.5190  173.4770  136.2200 C   0  0  0  0  0  2  0  0  0  0  0  0
  184.6520  176.6400  136.1350 C   0  0  0  0  0  2  0  0  0  0  0  0
  180.9380  175.2490  137.6580 N   0  0  0  0  0  0  0  0  0  0  0  0
  189.5500  175.2860  136.9660 C   0  0  0  0  0  2  0  0  0  0  0  0
  180.8330  174.4850  136.4240 C   0  0  0  0  0  2  0  0  0  0  0  0
  182.1980  174.5540  137.9680 C   0  0  2  0  0  3  0  0  0  0  0  0
  187.9300  173.3710  135.6090 C   0  0  0  0  0  2  0  0  0  0  0  0
  187.0840  175.0590  137.2590 C   0  0  0  0  0  3  0  0  0  0  0  0
  183.2960  174.5390  136.8880 C   0  0  1  0  0  0  0  0  0  0  0  0
  182.0740  173.6700  136.7230 C   0  0  2  0  0  3  0  0  0  0  0  0
  183.4350  175.7390  135.9150 C   0  0  2  0  0  3  0  0  0  0  0  0
  185.7480  178.3250  137.6600 C   0  0  0  0  0  2  0  0  0  0  0  0
  189.3340  173.0550  136.1470 C   0  0  0  0  0  2  0  0  0  0  0  0
  187.1320  178.0560  137.0650 C   0  0  0  0  0  2  0  0  0  0  0  0
  186.9440  173.6540  136.7350 C   0  0  1  0  0  3  0  0  0  0  0  0
  188.1960  175.7930  137.4070 C   0  0  0  0  0  0  0  0  0  0  0  0
  184.5210  173.7440  137.3410 C   0  0  0  0  0  2  0  0  0  0  0  0
  189.7080  173.8770  137.3030 N   0  0  0  0  0  2  0  0  0  0  0  0
  184.7890  177.1370  137.5680 C   0  0  0  0  0  2  0  0  0  0  0  0
  181.3640  177.3630  138.5710 O   0  0  0  0  0  1  0  0  0  0  0  0
  181.1380  176.6720  137.3790 C   0  0  2  0  0  3  0  0  0  0  0  0
  179.9040  177.2490  136.7080 C   0  0  0  0  0  1  0  0  0  0  0  0
  189.0780  179.3050  138.3560 O   0  0  0  0  0  1  0  0  0  0  0  0
  189.2720  177.9230  138.4320 C   0  0  1  0  0  3  0  0  0  0  0  0
  191.0360  177.4980  139.9900 O   0  0  0  0  0  0  0  0  0  0  0  0
  189.7910  177.5350  139.7920 C   0  0  0  0  0  0  0  0  0  0  0  0
  188.9050  177.1700  140.8100 O   0  0  0  0  0  0  0  0  0  0  0  0
  188.5560  178.0440  141.8790 C   0  0  1  0  0  3  0  0  0  0  0  0
  187.1570  178.6000  141.6690 C   0  0  0  0  0  1  0  0  0  0  0  0
  187.2740  176.9920  143.8060 C   0  0  0  0  0  1  0  0  0  0  0  0
  188.6440  177.3210  143.2230 C   0  0  1  0  0  3  0  0  0  0  0  0
  190.8640  176.3910  143.3760 O   0  0  0  0  0  1  0  0  0  0  0  0
  189.5230  176.0770  143.1410 C   0  0  0  0  0  2  0  0  0  0  0  0
  1 26  1  6  0  0  0
  3 17  1  0  0  0  0
  3 19  1  0  0  0  0
  4 21  1  0  0  0  0
  6 20  1  0  0  0  0
  6 18  1  0  0  0  0
  7  5  1  0  0  0  0
  8  5  1  6  0  0  0
  9 15  1  0  0  0  0
 10 18  2  0  0  0  0
 11 19  1  1  0  0  0
 11  8  1  0  0  0  0
 12  7  1  6  0  0  0
 12 11  1  0  0  0  0
 12  8  1  0  0  0  0
 13  2  1  6  0  0  0
 13  4  1  0  0  0  0
 13 11  1  0  0  0  0
 15 20  1  0  0  0  0
 16 14  1  0  0  0  0
 16  1  1  0  0  0  0
 17  9  1  6  0  0  0
 17 10  1  0  0  0  0
 18  1  1  0  0  0  0
 21 14  1  0  0  0  0
 23 24  1  1  0  0  0
 23  5  1  0  0  0  0
 23 22  1  0  0  0  0
 26 25  1  1  0  0  0
 26 28  1  0  0  0  0
 28 27  2  0  0  0  0
 28 29  1  0  0  0  0
 29 30  1  0  0  0  0
 30 31  1  6  0  0  0
 30 33  1  0  0  0  0
 33 32  1  6  0  0  0
 35 33  1  0  0  0  0
 35 34  1  0  0  0  0
M  END
>  <MODEL>
8

>  <REMARK>
 VINA RESULT:      -7.0      3.716      8.444
  Name = 
  7 active torsions:
  status: ('A' for Active; 'I' for Inactive)
    1  A    between atoms: C_3  and  C_23
    2  A    between atoms: C_4  and  C_8
    3  A    between atoms: C_4  and  C_16
    4  A    between atoms: N_11  and  C_29
    5  A    between atoms: C_14  and  O_22
    6  A    between atoms: C_14  and  C_23
    7  A    between atoms: C_16  and  O_22
                            x       y       z     vdW  Elec       q    Type
                         _______ _______ _______ _____ _____    ______ ____

>  <TORSDO>
F 7

$$$$
=
 OpenBabel11062415343D

 35 38  0  0  1  0  0  0  0  0999 V2000
  184.2550  178.4710  141.1870 C   0  0  1  0  0  3  0  0  0  0  0  0
  189.7720  179.4290  143.3190 O   0  0  0  0  0  1  0  0  0  0  0  0
  187.3570  177.9360  144.8050 C   0  0  0  0  0  2  0  0  0  0  0  0
  188.0480  178.9200  141.7520 C   0  0  0  0  0  2  0  0  0  0  0  0
  191.1110  175.9800  141.9280 N   0  0  0  0  0  0  0  0  0  0  0  0
  183.2230  179.1170  143.5400 C   0  0  0  0  0  2  0  0  0  0  0  0
  191.6550  176.7590  143.0300 C   0  0  0  0  0  2  0  0  0  0  0  0
  189.8540  175.8200  142.6780 C   0  0  2  0  0  3  0  0  0  0  0  0
  185.2920  179.1400  145.5020 C   0  0  0  0  0  2  0  0  0  0  0  0
  185.4600  178.0560  143.2480 C   0  0  0  0  0  3  0  0  0  0  0  0
  189.1780  177.0880  143.2310 C   0  0  1  0  0  0  0  0  0  0  0  0
  190.4260  176.5580  143.8920 C   0  0  2  0  0  3  0  0  0  0  0  0
  189.3110  178.4290  142.4620 C   0  0  2  0  0  3  0  0  0  0  0  0
  186.4280  178.5110  139.8620 C   0  0  0  0  0  2  0  0  0  0  0  0
  183.8060  178.9590  145.8480 C   0  0  0  0  0  2  0  0  0  0  0  0
  185.3340  179.3410  140.5360 C   0  0  0  0  0  2  0  0  0  0  0  0
  185.8350  177.9620  144.7040 C   0  0  1  0  0  3  0  0  0  0  0  0
  184.3280  178.5180  142.7000 C   0  0  0  0  0  0  0  0  0  0  0  0
  187.9120  176.7530  144.0200 C   0  0  0  0  0  2  0  0  0  0  0  0
  183.0310  178.3480  144.7630 N   0  0  0  0  0  2  0  0  0  0  0  0
  187.4200  177.8760  140.8380 C   0  0  0  0  0  2  0  0  0  0  0  0
  190.5710  176.0090  139.6490 O   0  0  0  0  0  1  0  0  0  0  0  0
  190.9460  176.8080  140.7310 C   0  0  2  0  0  3  0  0  0  0  0  0
  192.2530  177.5030  140.3950 C   0  0  0  0  0  1  0  0  0  0  0  0
  182.9910  179.5130  139.4220 O   0  0  0  0  0  1  0  0  0  0  0  0
  182.8710  178.7090  140.5570 C   0  0  1  0  0  3  0  0  0  0  0  0
  182.6870  176.4330  139.8460 O   0  0  0  0  0  0  0  0  0  0  0  0
  182.0810  177.4650  140.2450 C   0  0  0  0  0  0  0  0  0  0  0  0
  180.6870  177.4680  140.3460 O   0  0  0  0  0  0  0  0  0  0  0  0
  179.8310  177.2600  139.2270 C   0  0  1  0  0  3  0  0  0  0  0  0
  180.6040  177.4480  137.9320 C   0  0  0  0  0  1  0  0  0  0  0  0
  179.9190  174.8690  138.3670 C   0  0  0  0  0  1  0  0  0  0  0  0
  179.2060  175.8650  139.2740 C   0  0  1  0  0  3  0  0  0  0  0  0
  179.6810  174.0730  140.8160 O   0  0  0  0  0  1  0  0  0  0  0  0
  179.1010  175.3390  140.7010 C   0  0  0  0  0  2  0  0  0  0  0  0
  1 26  1  1  0  0  0
  1 18  1  0  0  0  0
  4 13  1  0  0  0  0
  5  7  1  0  0  0  0
  6 20  1  0  0  0  0
  8  5  1  6  0  0  0
  8 11  1  0  0  0  0
  8 12  1  0  0  0  0
  9 15  1  0  0  0  0
 11 12  1  0  0  0  0
 11 19  1  1  0  0  0
 12  7  1  6  0  0  0
 13 11  1  0  0  0  0
 13  2  1  1  0  0  0
 14 16  1  0  0  0  0
 14 21  1  0  0  0  0
 16  1  1  0  0  0  0
 17 10  1  6  0  0  0
 17  3  1  0  0  0  0
 17  9  1  0  0  0  0
 18 10  2  0  0  0  0
 18  6  1  0  0  0  0
 19  3  1  0  0  0  0
 20 15  1  0  0  0  0
 21  4  1  0  0  0  0
 22 23  1  0  0  0  0
 23 24  1  6  0  0  0
 23  5  1  0  0  0  0
 26 25  1  6  0  0  0
 27 28  2  0  0  0  0
 28 29  1  0  0  0  0
 28 26  1  0  0  0  0
 30 31  1  6  0  0  0
 30 33  1  0  0  0  0
 30 29  1  0  0  0  0
 33 32  1  6  0  0  0
 33 35  1  0  0  0  0
 35 34  1  0  0  0  0
M  END
>  <MODEL>
9

>  <REMARK>
 VINA RESULT:      -7.0      2.734      4.717
  Name = 
  7 active torsions:
  status: ('A' for Active; 'I' for Inactive)
    1  A    between atoms: C_3  and  C_23
    2  A    between atoms: C_4  and  C_8
    3  A    between atoms: C_4  and  C_16
    4  A    between atoms: N_11  and  C_29
    5  A    between atoms: C_14  and  O_22
    6  A    between atoms: C_14  and  C_23
    7  A    between atoms: C_16  and  O_22
                            x       y       z     vdW  Elec       q    Type
                         _______ _______ _______ _____ _____    ______ ____

>  <TORSDO>
F 7

$$$$
