=
 OpenBabel11062415353D

 35 39  0  0  1  0  0  0  0  0999 V2000
  186.8120  177.1710  141.8440 C   0  0  0  0  0  1  0  0  0  0  0  0
  184.6150  177.9740  139.0670 C   0  0  0  0  0  0  0  0  0  0  0  0
  185.8380  178.2390  143.8730 C   0  0  0  0  0  0  0  0  0  0  0  0
  186.8340  177.5350  144.7450 C   0  0  0  0  0  2  0  0  0  0  0  0
  189.1890  178.4260  139.7590 C   0  0  0  0  0  2  0  0  0  0  0  0
  183.7210  179.0780  142.2470 N   0  0  0  0  0  0  0  0  0  0  0  0
  183.7650  179.5550  143.6300 C   0  0  0  0  0  2  0  0  0  0  0  0
  191.7080  178.5700  144.1680 O   0  0  0  0  0  0  0  0  0  0  0  0
  186.9430  179.6230  142.1380 C   0  0  0  0  0  1  0  0  0  0  0  0
  190.7050  177.9800  143.7940 C   0  0  0  0  0  0  0  0  0  0  0  0
  190.0210  177.0290  144.7340 C   0  0  2  0  0  3  0  0  0  0  0  0
  190.1580  178.2480  142.4270 C   0  0  0  0  0  2  0  0  0  0  0  0
  184.6520  178.2550  140.2390 C   0  0  0  0  0  0  0  0  0  0  0  0
  188.8050  177.1510  139.0310 C   0  0  2  0  0  3  0  0  0  0  0  0
  187.9380  178.4940  145.1720 C   0  0  0  0  0  2  0  0  0  0  0  0
  190.2180  176.6260  139.2070 C   0  0  2  0  0  3  0  0  0  0  0  0
  189.2790  176.0710  144.0360 O   0  0  0  0  0  1  0  0  0  0  0  0
  187.1160  179.0150  136.2610 C   0  0  0  0  0  1  0  0  0  0  0  0
  186.0770  178.3980  142.3770 C   0  0  0  0  0  0  0  0  0  0  0  0
  189.1620  177.7760  145.7660 C   0  0  1  0  0  3  0  0  0  0  0  0
  187.1190  178.0420  137.4250 C   0  0  1  0  0  3  0  0  0  0  0  0
  184.7580  178.5780  141.6410 C   0  0  0  0  0  0  0  0  0  0  0  0
  185.9890  177.0100  137.2380 C   0  0  2  0  0  3  0  0  0  0  0  0
  190.5100  176.5240  140.6820 C   0  0  2  0  0  3  0  0  0  0  0  0
  184.7460  178.7630  144.4470 C   0  0  0  0  0  3  0  0  0  0  0  0
  188.5120  177.4360  137.5630 C   0  0  0  0  0  2  0  0  0  0  0  0
  190.6000  177.8870  139.9290 C   0  0  2  0  0  0  0  0  0  0  0  0
  191.1120  177.7310  141.3530 C   0  0  1  0  0  3  0  0  0  0  0  0
  184.6380  177.6130  137.6420 C   0  0  0  0  0  2  0  0  0  0  0  0
  188.8600  176.9420  147.0170 C   0  0  0  0  0  0  0  0  0  0  0  0
  187.6160  176.3440  146.9230 F   0  0  0  0  0  0  0  0  0  0  0  0
  189.8220  175.9590  147.1550 F   0  0  0  0  0  0  0  0  0  0  0  0
  188.8910  177.7510  148.1390 F   0  0  0  0  0  0  0  0  0  0  0  0
  186.3600  174.6490  137.0380 O   0  0  0  0  0  1  0  0  0  0  0  0
  186.2270  175.6850  137.9640 C   0  0  0  0  0  2  0  0  0  0  0  0
  1 19  1  0  0  0  0
  2 13  3  0  0  0  0
  3 25  2  0  0  0  0
  3  4  1  0  0  0  0
  4 15  1  0  0  0  0
  5 27  1  0  0  0  0
  6  7  1  0  0  0  0
  7 25  1  0  0  0  0
  9 19  1  0  0  0  0
 10  8  2  0  0  0  0
 10 11  1  0  0  0  0
 11 17  1  6  0  0  0
 11 20  1  0  0  0  0
 12 10  1  0  0  0  0
 13 22  1  0  0  0  0
 14 26  1  6  0  0  0
 14 16  1  0  0  0  0
 14  5  1  0  0  0  0
 15 20  1  0  0  0  0
 16 27  1  0  0  0  0
 16 24  1  0  0  0  0
 18 21  1  0  0  0  0
 19  3  1  0  0  0  0
 20 30  1  0  0  0  0
 21 26  1  0  0  0  0
 22  6  2  0  0  0  0
 22 19  1  0  0  0  0
 23 21  1  0  0  0  0
 23 29  1  0  0  0  0
 23 35  1  0  0  0  0
 24 28  1  0  0  0  0
 27 24  1  0  0  0  0
 27 28  1  0  0  0  0
 28 12  1  0  0  0  0
 29  2  1  0  0  0  0
 30 32  1  0  0  0  0
 30 33  1  0  0  0  0
 31 30  1  0  0  0  0
 34 35  1  0  0  0  0
M  END
>  <MODEL>
1

>  <REMARK>
 VINA RESULT:      -6.2      0.000      0.000
  Name = 
  2 active torsions:
  status: ('A' for Active; 'I' for Inactive)
    1  A    between atoms: C_2  and  C_24
    2  A    between atoms: C_22  and  C_27
                            x       y       z     vdW  Elec       q    Type
                         _______ _______ _______ _____ _____    ______ ____

>  <TORSDO>
F 2

$$$$
=
 OpenBabel11062415353D

 35 39  0  0  1  0  0  0  0  0999 V2000
  185.3610  177.4200  141.9990 C   0  0  0  0  0  1  0  0  0  0  0  0
  181.9660  178.6910  142.1990 C   0  0  0  0  0  0  0  0  0  0  0  0
  186.5070  178.0750  144.1120 C   0  0  0  0  0  0  0  0  0  0  0  0
  187.6960  177.2380  143.7490 C   0  0  0  0  0  2  0  0  0  0  0  0
  185.3430  179.0790  139.0290 C   0  0  0  0  0  2  0  0  0  0  0  0
  184.0660  179.1680  144.9350 N   0  0  0  0  0  0  0  0  0  0  0  0
  185.2420  179.3800  145.7810 C   0  0  0  0  0  2  0  0  0  0  0  0
  190.3430  178.4410  139.6620 O   0  0  0  0  0  0  0  0  0  0  0  0
  186.0100  179.7760  142.3770 C   0  0  0  0  0  1  0  0  0  0  0  0
  189.3610  177.9140  140.1630 C   0  0  0  0  0  0  0  0  0  0  0  0
  189.5490  176.7940  141.1450 C   0  0  2  0  0  3  0  0  0  0  0  0
  187.9950  178.4230  139.8200 C   0  0  0  0  0  2  0  0  0  0  0  0
  182.9440  178.7490  142.8990 C   0  0  0  0  0  0  0  0  0  0  0  0
  184.3640  177.9570  138.7420 C   0  0  2  0  0  3  0  0  0  0  0  0
  188.8330  178.1180  143.2450 C   0  0  0  0  0  2  0  0  0  0  0  0
  185.2860  177.4310  137.6570 C   0  0  2  0  0  3  0  0  0  0  0  0
  188.4210  175.9710  141.2010 O   0  0  0  0  0  1  0  0  0  0  0  0
  181.4290  180.2760  138.6760 C   0  0  0  0  0  1  0  0  0  0  0  0
  185.5030  178.5140  143.0540 C   0  0  0  0  0  0  0  0  0  0  0  0
  189.9400  177.3220  142.5350 C   0  0  1  0  0  3  0  0  0  0  0  0
  182.2070  179.1030  139.2420 C   0  0  1  0  0  3  0  0  0  0  0  0
  184.1510  178.8060  143.6880 C   0  0  0  0  0  0  0  0  0  0  0  0
  181.2330  178.1060  139.9000 C   0  0  2  0  0  3  0  0  0  0  0  0
  186.6040  177.0610  138.2880 C   0  0  2  0  0  3  0  0  0  0  0  0
  186.3660  178.4660  145.3860 C   0  0  0  0  0  3  0  0  0  0  0  0
  183.0770  178.5050  138.1400 C   0  0  0  0  0  2  0  0  0  0  0  0
  186.2580  178.5410  137.9410 C   0  0  2  0  0  0  0  0  0  0  0  0
  187.6610  178.1300  138.3600 C   0  0  1  0  0  3  0  0  0  0  0  0
  180.8130  178.6020  141.2890 C   0  0  0  0  0  2  0  0  0  0  0  0
  190.6220  176.2650  143.4120 C   0  0  0  0  0  0  0  0  0  0  0  0
  190.1810  174.9940  143.0860 F   0  0  0  0  0  0  0  0  0  0  0  0
  191.9900  176.3260  143.2240 F   0  0  0  0  0  0  0  0  0  0  0  0
  190.3470  176.5120  144.7440 F   0  0  0  0  0  0  0  0  0  0  0  0
  180.7130  175.7670  139.8140 O   0  0  0  0  0  1  0  0  0  0  0  0
  181.7620  176.6730  139.9750 C   0  0  0  0  0  2  0  0  0  0  0  0
  1 19  1  0  0  0  0
  2 13  3  0  0  0  0
  3 25  2  0  0  0  0
  4  3  1  0  0  0  0
  6  7  1  0  0  0  0
  8 10  2  0  0  0  0
  9 19  1  0  0  0  0
 10 11  1  0  0  0  0
 11 17  1  1  0  0  0
 11 20  1  0  0  0  0
 12 10  1  0  0  0  0
 13 22  1  0  0  0  0
 14 26  1  6  0  0  0
 14  5  1  0  0  0  0
 15  4  1  0  0  0  0
 16 27  1  0  0  0  0
 16 24  1  0  0  0  0
 16 14  1  0  0  0  0
 18 21  1  0  0  0  0
 19 22  1  0  0  0  0
 19  3  1  0  0  0  0
 20 15  1  0  0  0  0
 20 30  1  0  0  0  0
 21 23  1  0  0  0  0
 22  6  2  0  0  0  0
 23 35  1  0  0  0  0
 23 29  1  0  0  0  0
 24 28  1  0  0  0  0
 25  7  1  0  0  0  0
 26 21  1  0  0  0  0
 27 24  1  0  0  0  0
 27 28  1  0  0  0  0
 27  5  1  0  0  0  0
 28 12  1  0  0  0  0
 29  2  1  0  0  0  0
 30 33  1  0  0  0  0
 31 30  1  0  0  0  0
 32 30  1  0  0  0  0
 34 35  1  0  0  0  0
M  END
>  <MODEL>
2

>  <REMARK>
 VINA RESULT:      -5.9      2.512      4.043
  Name = 
  2 active torsions:
  status: ('A' for Active; 'I' for Inactive)
    1  A    between atoms: C_2  and  C_24
    2  A    between atoms: C_22  and  C_27
                            x       y       z     vdW  Elec       q    Type
                         _______ _______ _______ _____ _____    ______ ____

>  <TORSDO>
F 2

$$$$
=
 OpenBabel11062415353D

 35 39  0  0  1  0  0  0  0  0999 V2000
  184.4140  176.0640  138.1710 C   0  0  0  0  0  1  0  0  0  0  0  0
  183.2360  179.4320  138.8430 C   0  0  0  0  0  0  0  0  0  0  0  0
  186.6760  176.2770  137.1470 C   0  0  0  0  0  0  0  0  0  0  0  0
  186.8740  174.7940  137.2300 C   0  0  0  0  0  2  0  0  0  0  0  0
  181.4170  175.8010  136.5830 C   0  0  0  0  0  2  0  0  0  0  0  0
  186.4320  179.0400  137.5180 N   0  0  0  0  0  0  0  0  0  0  0  0
  187.5940  178.5380  136.7830 C   0  0  0  0  0  2  0  0  0  0  0  0
  183.8330  171.8000  134.5940 O   0  0  0  0  0  0  0  0  0  0  0  0
  184.6500  176.8690  135.8440 C   0  0  0  0  0  1  0  0  0  0  0  0
  184.0320  172.4930  135.5790 C   0  0  0  0  0  0  0  0  0  0  0  0
  185.1690  172.1530  136.4990 C   0  0  2  0  0  3  0  0  0  0  0  0
  183.1660  173.6890  135.8260 C   0  0  0  0  0  2  0  0  0  0  0  0
  184.2170  178.9540  138.3320 C   0  0  0  0  0  0  0  0  0  0  0  0
  180.9730  175.9030  138.0300 C   0  0  2  0  0  3  0  0  0  0  0  0
  186.6750  174.1530  135.8620 C   0  0  0  0  0  2  0  0  0  0  0  0
  180.3640  174.5160  137.9400 C   0  0  2  0  0  3  0  0  0  0  0  0
  184.9470  172.6480  137.7870 O   0  0  0  0  0  1  0  0  0  0  0  0
  179.5570  179.3330  137.5520 C   0  0  0  0  0  1  0  0  0  0  0  0
  185.2830  176.8900  137.2260 C   0  0  0  0  0  0  0  0  0  0  0  0
  186.5160  172.6250  135.9300 C   0  0  1  0  0  3  0  0  0  0  0  0
  180.5210  178.3500  138.1890 C   0  0  1  0  0  3  0  0  0  0  0  0
  185.3590  178.3300  137.7090 C   0  0  0  0  0  0  0  0  0  0  0  0
  180.9350  178.8610  139.5820 C   0  0  2  0  0  3  0  0  0  0  0  0
  181.4600  173.5330  137.6160 C   0  0  2  0  0  3  0  0  0  0  0  0
  187.7510  177.0550  136.9620 C   0  0  0  0  0  3  0  0  0  0  0  0
  179.8890  176.9620  138.1870 C   0  0  0  0  0  2  0  0  0  0  0  0
  180.8050  174.4120  136.5070 C   0  0  2  0  0  0  0  0  0  0  0  0
  181.7390  173.2630  136.1610 C   0  0  1  0  0  3  0  0  0  0  0  0
  182.0060  179.9530  139.4580 C   0  0  0  0  0  2  0  0  0  0  0  0
  187.7180  171.8910  136.5360 C   0  0  0  0  0  0  0  0  0  0  0  0
  187.6750  171.9310  137.9190 F   0  0  0  0  0  0  0  0  0  0  0  0
  187.7040  170.5710  136.1250 F   0  0  0  0  0  0  0  0  0  0  0  0
  188.8940  172.4760  136.1020 F   0  0  0  0  0  0  0  0  0  0  0  0
  181.6910  178.3080  141.7900 O   0  0  0  0  0  1  0  0  0  0  0  0
  181.3950  177.7620  140.5410 C   0  0  0  0  0  2  0  0  0  0  0  0
  2 29  1  0  0  0  0
  3 19  1  0  0  0  0
  3  4  1  0  0  0  0
  6 22  2  0  0  0  0
  7 25  1  0  0  0  0
  7  6  1  0  0  0  0
  8 10  2  0  0  0  0
  9 19  1  0  0  0  0
 10 12  1  0  0  0  0
 10 11  1  0  0  0  0
 11 17  1  1  0  0  0
 12 28  1  0  0  0  0
 13  2  3  0  0  0  0
 14  5  1  6  0  0  0
 14 26  1  0  0  0  0
 15 20  1  0  0  0  0
 15  4  1  0  0  0  0
 16 14  1  0  0  0  0
 18 21  1  0  0  0  0
 19 22  1  0  0  0  0
 19  1  1  0  0  0  0
 20 11  1  0  0  0  0
 20 30  1  0  0  0  0
 21 23  1  0  0  0  0
 22 13  1  0  0  0  0
 23 35  1  0  0  0  0
 24 16  1  0  0  0  0
 25  3  2  0  0  0  0
 26 21  1  0  0  0  0
 27  5  1  0  0  0  0
 27 24  1  0  0  0  0
 27 16  1  0  0  0  0
 28 27  1  0  0  0  0
 28 24  1  0  0  0  0
 29 23  1  0  0  0  0
 30 31  1  0  0  0  0
 32 30  1  0  0  0  0
 33 30  1  0  0  0  0
 35 34  1  0  0  0  0
M  END
>  <MODEL>
3

>  <REMARK>
 VINA RESULT:      -5.2      6.005      8.884
  Name = 
  2 active torsions:
  status: ('A' for Active; 'I' for Inactive)
    1  A    between atoms: C_2  and  C_24
    2  A    between atoms: C_22  and  C_27
                            x       y       z     vdW  Elec       q    Type
                         _______ _______ _______ _____ _____    ______ ____

>  <TORSDO>
F 2

$$$$
=
 OpenBabel11062415353D

 35 39  0  0  1  0  0  0  0  0999 V2000
  183.6000  176.1110  138.0380 C   0  0  0  0  0  1  0  0  0  0  0  0
  179.9720  176.2630  138.0590 C   0  0  0  0  0  0  0  0  0  0  0  0
  184.4260  178.4250  138.4500 C   0  0  0  0  0  0  0  0  0  0  0  0
  185.8320  177.9210  138.5780 C   0  0  0  0  0  2  0  0  0  0  0  0
  183.0840  174.5790  135.0450 C   0  0  0  0  0  2  0  0  0  0  0  0
  181.7470  179.1860  138.7190 N   0  0  0  0  0  0  0  0  0  0  0  0
  182.7700  180.2320  138.7360 C   0  0  0  0  0  2  0  0  0  0  0  0
  187.9990  175.7770  134.5950 O   0  0  0  0  0  0  0  0  0  0  0  0
  183.4220  177.8250  136.2640 C   0  0  0  0  0  1  0  0  0  0  0  0
  187.2390  175.7000  135.5480 C   0  0  0  0  0  0  0  0  0  0  0  0
  187.7720  175.9370  136.9320 C   0  0  2  0  0  3  0  0  0  0  0  0
  185.7890  175.4150  135.3140 C   0  0  0  0  0  2  0  0  0  0  0  0
  180.8630  177.0670  138.1620 C   0  0  0  0  0  0  0  0  0  0  0  0
  182.5380  173.5380  136.0030 C   0  0  2  0  0  3  0  0  0  0  0  0
  186.6200  178.2190  137.3080 C   0  0  0  0  0  2  0  0  0  0  0  0
  183.6010  172.5570  135.5430 C   0  0  2  0  0  3  0  0  0  0  0  0
  186.9810  175.3060  137.8960 O   0  0  0  0  0  1  0  0  0  0  0  0
  179.0010  174.1330  134.9400 C   0  0  0  0  0  1  0  0  0  0  0  0
  183.3510  177.5920  137.7630 C   0  0  0  0  0  0  0  0  0  0  0  0
  187.9410  177.4360  137.2240 C   0  0  1  0  0  3  0  0  0  0  0  0
  180.1140  174.1220  135.9700 C   0  0  1  0  0  3  0  0  0  0  0  0
  181.9680  177.9900  138.2570 C   0  0  0  0  0  0  0  0  0  0  0  0
  179.5160  173.9200  137.3750 C   0  0  2  0  0  3  0  0  0  0  0  0
  184.9560  173.1430  135.8480 C   0  0  2  0  0  3  0  0  0  0  0  0
  184.1410  179.6480  138.9210 C   0  0  0  0  0  3  0  0  0  0  0  0
  181.1520  173.0780  135.5690 C   0  0  0  0  0  2  0  0  0  0  0  0
  184.1440  173.5880  134.5940 C   0  0  2  0  0  0  0  0  0  0  0  0
  185.5970  173.9960  134.7850 C   0  0  1  0  0  3  0  0  0  0  0  0
  178.9310  175.2360  137.9050 C   0  0  0  0  0  2  0  0  0  0  0  0
  188.9200  177.7220  138.3690 C   0  0  0  0  0  0  0  0  0  0  0  0
  188.4880  177.1330  139.5450 F   0  0  0  0  0  0  0  0  0  0  0  0
  190.1650  177.2150  138.0460 F   0  0  0  0  0  0  0  0  0  0  0  0
  189.0340  179.0860  138.5610 F   0  0  0  0  0  0  0  0  0  0  0  0
  179.9380  173.3660  139.6700 O   0  0  0  0  0  1  0  0  0  0  0  0
  180.4890  173.3170  138.3890 C   0  0  0  0  0  2  0  0  0  0  0  0
  2 13  3  0  0  0  0
  3  4  1  0  0  0  0
  3 25  2  0  0  0  0
  6  7  1  0  0  0  0
  7 25  1  0  0  0  0
  8 10  2  0  0  0  0
  9 19  1  0  0  0  0
 10 11  1  0  0  0  0
 11 20  1  0  0  0  0
 11 17  1  1  0  0  0
 12 10  1  0  0  0  0
 13 22  1  0  0  0  0
 14  5  1  6  0  0  0
 15  4  1  0  0  0  0
 16 24  1  0  0  0  0
 16 14  1  0  0  0  0
 18 21  1  0  0  0  0
 19  1  1  0  0  0  0
 19 22  1  0  0  0  0
 19  3  1  0  0  0  0
 20 15  1  0  0  0  0
 20 30  1  0  0  0  0
 21 23  1  0  0  0  0
 22  6  2  0  0  0  0
 23 29  1  0  0  0  0
 23 35  1  0  0  0  0
 26 21  1  0  0  0  0
 26 14  1  0  0  0  0
 27 28  1  0  0  0  0
 27  5  1  0  0  0  0
 27 16  1  0  0  0  0
 27 24  1  0  0  0  0
 28 12  1  0  0  0  0
 28 24  1  0  0  0  0
 29  2  1  0  0  0  0
 30 33  1  0  0  0  0
 30 31  1  0  0  0  0
 32 30  1  0  0  0  0
 35 34  1  0  0  0  0
M  END
>  <MODEL>
4

>  <REMARK>
 VINA RESULT:      -4.9      4.837      7.585
  Name = 
  2 active torsions:
  status: ('A' for Active; 'I' for Inactive)
    1  A    between atoms: C_2  and  C_24
    2  A    between atoms: C_22  and  C_27
                            x       y       z     vdW  Elec       q    Type
                         _______ _______ _______ _____ _____    ______ ____

>  <TORSDO>
F 2

$$$$
=
 OpenBabel11062415353D

 35 39  0  0  1  0  0  0  0  0999 V2000
  184.3310  177.0600  136.1830 C   0  0  0  0  0  1  0  0  0  0  0  0
  180.9910  175.8550  135.4260 C   0  0  0  0  0  0  0  0  0  0  0  0
  185.9080  175.2030  135.6630 C   0  0  0  0  0  0  0  0  0  0  0  0
  187.0800  176.1130  135.8790 C   0  0  0  0  0  2  0  0  0  0  0  0
  182.9070  177.8160  139.1790 C   0  0  0  0  0  2  0  0  0  0  0  0
  183.6880  173.7490  134.7790 N   0  0  0  0  0  0  0  0  0  0  0  0
  184.9830  173.0700  134.8370 C   0  0  0  0  0  2  0  0  0  0  0  0
  187.8210  178.0570  140.4430 O   0  0  0  0  0  0  0  0  0  0  0  0
  184.4490  175.0840  137.6640 C   0  0  0  0  0  1  0  0  0  0  0  0
  187.2290  178.0750  139.3750 C   0  0  0  0  0  0  0  0  0  0  0  0
  188.0110  178.2550  138.1050 C   0  0  2  0  0  3  0  0  0  0  0  0
  185.7460  177.8750  139.3500 C   0  0  0  0  0  2  0  0  0  0  0  0
  182.0980  175.3800  135.4040 C   0  0  0  0  0  0  0  0  0  0  0  0
  182.2060  178.8040  138.2650 C   0  0  2  0  0  3  0  0  0  0  0  0
  187.7220  175.8400  137.2330 C   0  0  0  0  0  2  0  0  0  0  0  0
  182.8170  179.9560  139.0430 C   0  0  2  0  0  3  0  0  0  0  0  0
  187.2130  178.7860  137.0870 O   0  0  0  0  0  1  0  0  0  0  0  0
  178.9310  177.0160  138.5270 C   0  0  0  0  0  1  0  0  0  0  0  0
  184.5330  175.5480  136.2200 C   0  0  0  0  0  0  0  0  0  0  0  0
  188.6940  176.9490  137.6720 C   0  0  1  0  0  3  0  0  0  0  0  0
  180.1230  177.5370  137.7470 C   0  0  1  0  0  3  0  0  0  0  0  0
  183.4420  174.8550  135.4180 C   0  0  0  0  0  0  0  0  0  0  0  0
  179.7090  177.7990  136.2860 C   0  0  2  0  0  3  0  0  0  0  0  0
  184.3170  179.8580  138.9430 C   0  0  2  0  0  3  0  0  0  0  0  0
  186.1050  174.0550  135.0000 C   0  0  0  0  0  3  0  0  0  0  0  0
  180.6980  178.7510  138.4700 C   0  0  0  0  0  2  0  0  0  0  0  0
  183.5130  178.9790  139.9480 C   0  0  2  0  0  0  0  0  0  0  0  0
  185.0310  179.0570  139.9990 C   0  0  1  0  0  3  0  0  0  0  0  0
  179.6640  176.4860  135.4950 C   0  0  0  0  0  2  0  0  0  0  0  0
  189.8730  177.1710  136.7170 C   0  0  0  0  0  0  0  0  0  0  0  0
  189.6100  178.2130  135.8430 F   0  0  0  0  0  0  0  0  0  0  0  0
  191.0050  177.4760  137.4490 F   0  0  0  0  0  0  0  0  0  0  0  0
  190.1120  176.0200  135.9900 F   0  0  0  0  0  0  0  0  0  0  0  0
  179.8150  179.9540  135.2380 O   0  0  0  0  0  1  0  0  0  0  0  0
  180.5770  178.8330  135.5660 C   0  0  0  0  0  2  0  0  0  0  0  0
  1 19  1  0  0  0  0
  2 29  1  0  0  0  0
  3  4  1  0  0  0  0
  3 19  1  0  0  0  0
  4 15  1  0  0  0  0
  5 27  1  0  0  0  0
  6  7  1  0  0  0  0
  6 22  2  0  0  0  0
  7 25  1  0  0  0  0
 10  8  2  0  0  0  0
 11 17  1  6  0  0  0
 11 10  1  0  0  0  0
 12 10  1  0  0  0  0
 12 28  1  0  0  0  0
 13 22  1  0  0  0  0
 13  2  3  0  0  0  0
 14 26  1  1  0  0  0
 14 16  1  0  0  0  0
 14  5  1  0  0  0  0
 15 20  1  0  0  0  0
 16 27  1  0  0  0  0
 19  9  1  0  0  0  0
 20 11  1  0  0  0  0
 21 26  1  0  0  0  0
 21 18  1  0  0  0  0
 22 19  1  0  0  0  0
 23 21  1  0  0  0  0
 24 16  1  0  0  0  0
 24 27  1  0  0  0  0
 24 28  1  0  0  0  0
 25  3  2  0  0  0  0
 27 28  1  0  0  0  0
 29 23  1  0  0  0  0
 30 32  1  0  0  0  0
 30 20  1  0  0  0  0
 31 30  1  0  0  0  0
 33 30  1  0  0  0  0
 34 35  1  0  0  0  0
 35 23  1  0  0  0  0
M  END
>  <MODEL>
5

>  <REMARK>
 VINA RESULT:      -4.8      4.991      7.992
  Name = 
  2 active torsions:
  status: ('A' for Active; 'I' for Inactive)
    1  A    between atoms: C_2  and  C_24
    2  A    between atoms: C_22  and  C_27
                            x       y       z     vdW  Elec       q    Type
                         _______ _______ _______ _____ _____    ______ ____

>  <TORSDO>
F 2

$$$$
=
 OpenBabel11062415353D

 35 39  0  0  1  0  0  0  0  0999 V2000
  186.3250  177.2730  142.5310 C   0  0  0  0  0  1  0  0  0  0  0  0
  182.9570  178.6000  142.2520 C   0  0  0  0  0  0  0  0  0  0  0  0
  187.1570  177.8750  144.8000 C   0  0  0  0  0  0  0  0  0  0  0  0
  188.3740  177.0220  144.6010 C   0  0  0  0  0  2  0  0  0  0  0  0
  186.7690  178.9780  139.6210 C   0  0  0  0  0  2  0  0  0  0  0  0
  184.6390  178.9980  145.2750 N   0  0  0  0  0  0  0  0  0  0  0  0
  185.6800  179.1760  146.2890 C   0  0  0  0  0  2  0  0  0  0  0  0
  191.6110  178.2410  140.9680 O   0  0  0  0  0  0  0  0  0  0  0  0
  186.9460  179.6110  143.0420 C   0  0  0  0  0  1  0  0  0  0  0  0
  190.5580  177.7240  141.3100 C   0  0  0  0  0  0  0  0  0  0  0  0
  190.5830  176.5860  142.2890 C   0  0  2  0  0  3  0  0  0  0  0  0
  189.2660  178.2630  140.7800 C   0  0  0  0  0  2  0  0  0  0  0  0
  183.8220  178.6300  143.0900 C   0  0  0  0  0  0  0  0  0  0  0  0
  185.8250  177.8780  139.1730 C   0  0  2  0  0  3  0  0  0  0  0  0
  189.5860  177.8890  144.2850 C   0  0  0  0  0  2  0  0  0  0  0  0
  186.8890  177.3520  138.2260 C   0  0  2  0  0  3  0  0  0  0  0  0
  189.4460  175.7820  142.1640 O   0  0  0  0  0  1  0  0  0  0  0  0
  182.9680  180.2500  138.7180 C   0  0  0  0  0  1  0  0  0  0  0  0
  186.3260  178.3480  143.6140 C   0  0  0  0  0  0  0  0  0  0  0  0
  190.7730  177.0850  143.7300 C   0  0  1  0  0  3  0  0  0  0  0  0
  183.6360  179.0540  139.3710 C   0  0  1  0  0  3  0  0  0  0  0  0
  184.9000  178.6540  144.0480 C   0  0  0  0  0  0  0  0  0  0  0  0
  182.5610  178.0650  139.8610 C   0  0  2  0  0  3  0  0  0  0  0  0
  188.0930  176.9490  139.0360 C   0  0  2  0  0  3  0  0  0  0  0  0
  186.8370  178.2480  146.0470 C   0  0  0  0  0  3  0  0  0  0  0  0
  184.6490  178.4580  138.3980 C   0  0  0  0  0  2  0  0  0  0  0  0
  187.8250  178.4400  138.6690 C   0  0  2  0  0  0  0  0  0  0  0  0
  189.1460  177.9990  139.2810 C   0  0  1  0  0  3  0  0  0  0  0  0
  181.9490  178.5460  141.1820 C   0  0  0  0  0  2  0  0  0  0  0  0
  191.3020  176.0030  144.6790 C   0  0  0  0  0  0  0  0  0  0  0  0
  191.7110  174.8850  143.9730 F   0  0  0  0  0  0  0  0  0  0  0  0
  192.3780  176.5020  145.3900 F   0  0  0  0  0  0  0  0  0  0  0  0
  190.3130  175.6370  145.5730 F   0  0  0  0  0  0  0  0  0  0  0  0
  182.2560  175.7770  139.2120 O   0  0  0  0  0  1  0  0  0  0  0  0
  183.0510  176.6220  139.9870 C   0  0  0  0  0  2  0  0  0  0  0  0
  1 19  1  0  0  0  0
  2 13  3  0  0  0  0
  3 25  2  0  0  0  0
  4  3  1  0  0  0  0
  6  7  1  0  0  0  0
  8 10  2  0  0  0  0
  9 19  1  0  0  0  0
 10 11  1  0  0  0  0
 11 17  1  1  0  0  0
 11 20  1  0  0  0  0
 12 10  1  0  0  0  0
 13 22  1  0  0  0  0
 14 26  1  6  0  0  0
 14  5  1  0  0  0  0
 15  4  1  0  0  0  0
 16 27  1  0  0  0  0
 16 24  1  0  0  0  0
 16 14  1  0  0  0  0
 18 21  1  0  0  0  0
 19 22  1  0  0  0  0
 19  3  1  0  0  0  0
 20 15  1  0  0  0  0
 20 30  1  0  0  0  0
 21 23  1  0  0  0  0
 22  6  2  0  0  0  0
 23 35  1  0  0  0  0
 23 29  1  0  0  0  0
 24 28  1  0  0  0  0
 25  7  1  0  0  0  0
 26 21  1  0  0  0  0
 27 24  1  0  0  0  0
 27 28  1  0  0  0  0
 27  5  1  0  0  0  0
 28 12  1  0  0  0  0
 29  2  1  0  0  0  0
 30 32  1  0  0  0  0
 30 33  1  0  0  0  0
 31 30  1  0  0  0  0
 34 35  1  0  0  0  0
M  END
>  <MODEL>
6

>  <REMARK>
 VINA RESULT:      -4.7      1.991      3.209
  Name = 
  2 active torsions:
  status: ('A' for Active; 'I' for Inactive)
    1  A    between atoms: C_2  and  C_24
    2  A    between atoms: C_22  and  C_27
                            x       y       z     vdW  Elec       q    Type
                         _______ _______ _______ _____ _____    ______ ____

>  <TORSDO>
F 2

$$$$
=
 OpenBabel11062415353D

 35 39  0  0  1  0  0  0  0  0999 V2000
  184.1810  176.9240  139.8450 C   0  0  0  0  0  1  0  0  0  0  0  0
  180.6580  176.8600  138.9690 C   0  0  0  0  0  0  0  0  0  0  0  0
  184.3950  178.3260  141.8920 C   0  0  0  0  0  0  0  0  0  0  0  0
  185.8360  177.9380  142.0300 C   0  0  0  0  0  2  0  0  0  0  0  0
  184.5210  177.8940  136.6010 C   0  0  0  0  0  2  0  0  0  0  0  0
  181.6080  178.5660  141.8520 N   0  0  0  0  0  0  0  0  0  0  0  0
  182.3570  179.3470  142.8380 C   0  0  0  0  0  2  0  0  0  0  0  0
  189.0560  179.2780  138.4250 O   0  0  0  0  0  0  0  0  0  0  0  0
  183.9270  179.3790  139.6960 C   0  0  0  0  0  1  0  0  0  0  0  0
  188.1840  178.5250  138.8310 C   0  0  0  0  0  0  0  0  0  0  0  0
  188.4130  177.7510  140.0970 C   0  0  2  0  0  3  0  0  0  0  0  0
  186.8920  178.4210  138.0820 C   0  0  0  0  0  2  0  0  0  0  0  0
  181.3190  177.4020  139.8180 C   0  0  0  0  0  0  0  0  0  0  0  0
  184.0670  176.4570  136.4300 C   0  0  2  0  0  3  0  0  0  0  0  0
  186.7400  179.0700  141.5580 C   0  0  0  0  0  2  0  0  0  0  0  0
  185.3820  176.1230  135.7490 C   0  0  2  0  0  3  0  0  0  0  0  0
  187.6310  176.5930  140.1350 O   0  0  0  0  0  1  0  0  0  0  0  0
  180.7140  177.4710  135.1180 C   0  0  0  0  0  1  0  0  0  0  0  0
  183.6610  178.1630  140.5670 C   0  0  0  0  0  0  0  0  0  0  0  0
  188.1960  178.6270  141.3410 C   0  0  1  0  0  3  0  0  0  0  0  0
  181.6150  176.7920  136.1320 C   0  0  1  0  0  3  0  0  0  0  0  0
  182.1620  178.0430  140.7980 C   0  0  0  0  0  0  0  0  0  0  0  0
  180.8500  175.6420  136.8150 C   0  0  2  0  0  3  0  0  0  0  0  0
  186.5040  176.3880  136.7200 C   0  0  2  0  0  3  0  0  0  0  0  0
  183.7730  178.8600  142.9530 C   0  0  0  0  0  3  0  0  0  0  0  0
  182.9090  176.3710  135.4440 C   0  0  0  0  0  2  0  0  0  0  0  0
  185.8340  177.5460  135.9190 C   0  0  2  0  0  0  0  0  0  0  0  0
  187.1080  177.7670  136.7200 C   0  0  1  0  0  3  0  0  0  0  0  0
  179.9090  176.1880  137.8960 C   0  0  0  0  0  2  0  0  0  0  0  0
  188.8830  178.0750  142.5960 C   0  0  0  0  0  0  0  0  0  0  0  0
  188.0410  178.1480  143.6920 F   0  0  0  0  0  0  0  0  0  0  0  0
  189.2290  176.7530  142.3850 F   0  0  0  0  0  0  0  0  0  0  0  0
  190.0330  178.7970  142.8590 F   0  0  0  0  0  0  0  0  0  0  0  0
  181.5000  173.3350  136.7390 O   0  0  0  0  0  1  0  0  0  0  0  0
  181.7500  174.5450  137.3860 C   0  0  0  0  0  2  0  0  0  0  0  0
  1 19  1  0  0  0  0
  2 13  3  0  0  0  0
  3  4  1  0  0  0  0
  3 25  2  0  0  0  0
  6  7  1  0  0  0  0
  7 25  1  0  0  0  0
  8 10  2  0  0  0  0
  9 19  1  0  0  0  0
 10 11  1  0  0  0  0
 11 17  1  1  0  0  0
 11 20  1  0  0  0  0
 12 10  1  0  0  0  0
 13 22  1  0  0  0  0
 14 26  1  6  0  0  0
 14  5  1  0  0  0  0
 15  4  1  0  0  0  0
 16 27  1  0  0  0  0
 16 14  1  0  0  0  0
 16 24  1  0  0  0  0
 18 21  1  0  0  0  0
 19 22  1  0  0  0  0
 19  3  1  0  0  0  0
 20 15  1  0  0  0  0
 20 30  1  0  0  0  0
 21 23  1  0  0  0  0
 22  6  2  0  0  0  0
 23 35  1  0  0  0  0
 23 29  1  0  0  0  0
 26 21  1  0  0  0  0
 27  5  1  0  0  0  0
 27 28  1  0  0  0  0
 27 24  1  0  0  0  0
 28 24  1  0  0  0  0
 28 12  1  0  0  0  0
 29  2  1  0  0  0  0
 30 33  1  0  0  0  0
 30 31  1  0  0  0  0
 32 30  1  0  0  0  0
 34 35  1  0  0  0  0
M  END
>  <MODEL>
7

>  <REMARK>
 VINA RESULT:      -4.3      2.972      4.742
  Name = 
  2 active torsions:
  status: ('A' for Active; 'I' for Inactive)
    1  A    between atoms: C_2  and  C_24
    2  A    between atoms: C_22  and  C_27
                            x       y       z     vdW  Elec       q    Type
                         _______ _______ _______ _____ _____    ______ ____

>  <TORSDO>
F 2

$$$$
=
 OpenBabel11062415353D

 35 39  0  0  1  0  0  0  0  0999 V2000
  184.4930  176.9010  139.0680 C   0  0  0  0  0  1  0  0  0  0  0  0
  181.2630  177.5420  140.5970 C   0  0  0  0  0  0  0  0  0  0  0  0
  186.1660  178.2730  140.3020 C   0  0  0  0  0  0  0  0  0  0  0  0
  187.2870  177.6010  139.5680 C   0  0  0  0  0  2  0  0  0  0  0  0
  182.8160  177.7110  136.2200 C   0  0  0  0  0  2  0  0  0  0  0  0
  184.0700  179.0790  141.9710 N   0  0  0  0  0  0  0  0  0  0  0  0
  185.3790  179.7100  142.1470 C   0  0  0  0  0  2  0  0  0  0  0  0
  187.6070  178.1740  134.5950 O   0  0  0  0  0  0  0  0  0  0  0  0
  184.5610  179.3520  138.7500 C   0  0  0  0  0  1  0  0  0  0  0  0
  187.0990  177.6240  135.5610 C   0  0  0  0  0  0  0  0  0  0  0  0
  187.9700  176.8470  136.5060 C   0  0  2  0  0  3  0  0  0  0  0  0
  185.6300  177.7720  135.8050 C   0  0  0  0  0  2  0  0  0  0  0  0
  182.3830  177.9550  140.7580 C   0  0  0  0  0  0  0  0  0  0  0  0
  182.1560  176.3940  136.5830 C   0  0  2  0  0  3  0  0  0  0  0  0
  187.8310  178.5130  138.4760 C   0  0  0  0  0  2  0  0  0  0  0  0
  182.6660  175.7830  135.2900 C   0  0  2  0  0  3  0  0  0  0  0  0
  187.2360  175.8760  137.1920 O   0  0  0  0  0  1  0  0  0  0  0  0
  178.9310  178.0460  137.5120 C   0  0  0  0  0  1  0  0  0  0  0  0
  184.7410  178.2360  139.7650 C   0  0  0  0  0  0  0  0  0  0  0  0
  188.7280  177.7760  137.4680 C   0  0  1  0  0  3  0  0  0  0  0  0
  180.1620  177.2190  137.8310 C   0  0  1  0  0  3  0  0  0  0  0  0
  183.7390  178.4310  140.8930 C   0  0  0  0  0  0  0  0  0  0  0  0
  179.8550  176.2650  139.0010 C   0  0  2  0  0  3  0  0  0  0  0  0
  184.1720  175.8330  135.2990 C   0  0  2  0  0  3  0  0  0  0  0  0
  186.4510  178.9450  141.4260 C   0  0  0  0  0  3  0  0  0  0  0  0
  180.6390  176.5270  136.5580 C   0  0  0  0  0  2  0  0  0  0  0  0
  183.3220  177.0860  134.9300 C   0  0  2  0  0  0  0  0  0  0  0  0
  184.8280  177.0590  134.7200 C   0  0  1  0  0  3  0  0  0  0  0  0
  179.9140  177.0160  140.3370 C   0  0  0  0  0  2  0  0  0  0  0  0
  189.9690  177.1210  138.0860 C   0  0  0  0  0  0  0  0  0  0  0  0
  191.0170  177.0990  137.1820 F   0  0  0  0  0  0  0  0  0  0  0  0
  190.3570  177.8370  139.2030 F   0  0  0  0  0  0  0  0  0  0  0  0
  189.6750  175.8260  138.4710 F   0  0  0  0  0  0  0  0  0  0  0  0
  179.9700  173.8760  138.8340 O   0  0  0  0  0  1  0  0  0  0  0  0
  180.7410  175.0200  139.0410 C   0  0  0  0  0  2  0  0  0  0  0  0
  1 19  1  0  0  0  0
  2 13  3  0  0  0  0
  3 25  2  0  0  0  0
  4  3  1  0  0  0  0
  6  7  1  0  0  0  0
  8 10  2  0  0  0  0
  9 19  1  0  0  0  0
 10 12  1  0  0  0  0
 10 11  1  0  0  0  0
 11 17  1  1  0  0  0
 11 20  1  0  0  0  0
 13 22  1  0  0  0  0
 14  5  1  6  0  0  0
 15  4  1  0  0  0  0
 16 24  1  0  0  0  0
 16 14  1  0  0  0  0
 18 21  1  0  0  0  0
 19  3  1  0  0  0  0
 19 22  1  0  0  0  0
 20 30  1  0  0  0  0
 20 15  1  0  0  0  0
 21 23  1  0  0  0  0
 22  6  2  0  0  0  0
 23 35  1  0  0  0  0
 23 29  1  0  0  0  0
 25  7  1  0  0  0  0
 26 14  1  0  0  0  0
 26 21  1  0  0  0  0
 27 16  1  0  0  0  0
 27 24  1  0  0  0  0
 27  5  1  0  0  0  0
 28 27  1  0  0  0  0
 28 24  1  0  0  0  0
 28 12  1  0  0  0  0
 29  2  1  0  0  0  0
 30 33  1  0  0  0  0
 30 32  1  0  0  0  0
 31 30  1  0  0  0  0
 34 35  1  0  0  0  0
M  END
>  <MODEL>
8

>  <REMARK>
 VINA RESULT:      -4.1      4.090      6.970
  Name = 
  2 active torsions:
  status: ('A' for Active; 'I' for Inactive)
    1  A    between atoms: C_2  and  C_24
    2  A    between atoms: C_22  and  C_27
                            x       y       z     vdW  Elec       q    Type
                         _______ _______ _______ _____ _____    ______ ____

>  <TORSDO>
F 2

$$$$
=
 OpenBabel11062415353D

 35 39  0  0  1  0  0  0  0  0999 V2000
  187.4160  177.0370  141.0300 C   0  0  0  0  0  1  0  0  0  0  0  0
  184.8100  177.9860  138.6860 C   0  0  0  0  0  0  0  0  0  0  0  0
  186.9530  178.2440  143.1590 C   0  0  0  0  0  0  0  0  0  0  0  0
  188.0280  177.4670  143.8560 C   0  0  0  0  0  2  0  0  0  0  0  0
  189.4540  178.0000  138.4820 C   0  0  0  0  0  2  0  0  0  0  0  0
  184.6500  179.2490  141.9280 N   0  0  0  0  0  0  0  0  0  0  0  0
  185.0020  179.7520  143.2570 C   0  0  0  0  0  2  0  0  0  0  0  0
  192.7740  178.0010  142.3250 O   0  0  0  0  0  0  0  0  0  0  0  0
  187.8270  179.4700  141.1890 C   0  0  0  0  0  1  0  0  0  0  0  0
  191.6690  177.5040  142.1730 C   0  0  0  0  0  0  0  0  0  0  0  0
  191.0930  176.6480  143.2640 C   0  0  2  0  0  3  0  0  0  0  0  0
  190.8960  177.7910  140.9240 C   0  0  0  0  0  2  0  0  0  0  0  0
  185.0970  178.2900  139.8170 C   0  0  0  0  0  0  0  0  0  0  0  0
  188.8210  176.7530  137.8940 C   0  0  2  0  0  3  0  0  0  0  0  0
  189.2770  178.3220  144.0260 C   0  0  0  0  0  2  0  0  0  0  0  0
  190.1870  176.0950  137.8220 C   0  0  2  0  0  3  0  0  0  0  0  0
  190.1450  175.7520  142.7610 O   0  0  0  0  0  1  0  0  0  0  0  0
  186.8100  178.7080  135.4170 C   0  0  0  0  0  1  0  0  0  0  0  0
  186.9130  178.3430  141.6400 C   0  0  0  0  0  0  0  0  0  0  0  0
  190.5210  177.5010  144.4080 C   0  0  1  0  0  3  0  0  0  0  0  0
  186.9470  177.7670  136.5990 C   0  0  1  0  0  3  0  0  0  0  0  0
  185.5000  178.6340  141.1590 C   0  0  0  0  0  0  0  0  0  0  0  0
  185.7120  176.8480  136.6730 C   0  0  2  0  0  3  0  0  0  0  0  0
  190.7460  176.0000  139.2180 C   0  0  2  0  0  3  0  0  0  0  0  0
  186.0440  178.8870  143.9060 C   0  0  0  0  0  3  0  0  0  0  0  0
  188.2790  177.0310  136.4970 C   0  0  0  0  0  2  0  0  0  0  0  0
  190.8150  177.3290  138.4050 C   0  0  2  0  0  0  0  0  0  0  0  0
  191.5740  177.1570  139.7120 C   0  0  1  0  0  3  0  0  0  0  0  0
  184.5250  177.5910  137.2990 C   0  0  0  0  0  2  0  0  0  0  0  0
  190.3900  176.7310  145.7280 C   0  0  0  0  0  0  0  0  0  0  0  0
  191.1670  175.5850  145.7100 F   0  0  0  0  0  0  0  0  0  0  0  0
  190.8040  177.5370  146.7720 F   0  0  0  0  0  0  0  0  0  0  0  0
  189.0690  176.3800  145.9380 F   0  0  0  0  0  0  0  0  0  0  0  0
  185.7950  174.4560  136.5120 O   0  0  0  0  0  1  0  0  0  0  0  0
  185.9610  175.5230  137.3960 C   0  0  0  0  0  2  0  0  0  0  0  0
  1 19  1  0  0  0  0
  2 13  3  0  0  0  0
  3  4  1  0  0  0  0
  3 25  2  0  0  0  0
  4 15  1  0  0  0  0
  6  7  1  0  0  0  0
  7 25  1  0  0  0  0
  9 19  1  0  0  0  0
 10  8  2  0  0  0  0
 10 11  1  0  0  0  0
 11 17  1  6  0  0  0
 11 20  1  0  0  0  0
 12 10  1  0  0  0  0
 13 22  1  0  0  0  0
 14 26  1  6  0  0  0
 14  5  1  0  0  0  0
 15 20  1  0  0  0  0
 16 14  1  0  0  0  0
 16 27  1  0  0  0  0
 16 24  1  0  0  0  0
 18 21  1  0  0  0  0
 19  3  1  0  0  0  0
 20 30  1  0  0  0  0
 21 23  1  0  0  0  0
 22 19  1  0  0  0  0
 22  6  2  0  0  0  0
 23 29  1  0  0  0  0
 23 35  1  0  0  0  0
 24 28  1  0  0  0  0
 26 21  1  0  0  0  0
 27  5  1  0  0  0  0
 27 24  1  0  0  0  0
 27 28  1  0  0  0  0
 28 12  1  0  0  0  0
 29  2  1  0  0  0  0
 30 33  1  0  0  0  0
 30 32  1  0  0  0  0
 31 30  1  0  0  0  0
 34 35  1  0  0  0  0
M  END
>  <MODEL>
9

>  <REMARK>
 VINA RESULT:      -4.1      1.260      1.569
  Name = 
  2 active torsions:
  status: ('A' for Active; 'I' for Inactive)
    1  A    between atoms: C_2  and  C_24
    2  A    between atoms: C_22  and  C_27
                            x       y       z     vdW  Elec       q    Type
                         _______ _______ _______ _____ _____    ______ ____

>  <TORSDO>
F 2

$$$$
