=
 OpenBabel11062412333D

 33 37  0  0  1  0  0  0  0  0999 V2000
  190.3500  175.5760  143.2130 C   0  0  0  0  0  2  0  0  0  0  0  0
  189.1060  176.4540  143.0360 C   0  0  2  0  0  3  0  0  0  0  0  0
  189.3330  177.5970  142.0280 C   0  0  1  0  0  3  0  0  0  0  0  0
  191.5360  176.3950  143.4480 N   0  0  0  0  0  2  0  0  0  0  0  0
  191.6760  177.7020  142.8820 C   0  0  0  0  0  3  0  0  0  0  0  0
  190.6640  178.2830  142.2340 C   0  0  0  0  0  3  0  0  0  0  0  0
  189.3110  177.0480  145.4950 C   0  0  0  0  0  3  0  0  0  0  0  0
  187.1770  177.2910  144.3790 C   0  0  0  0  0  3  0  0  0  0  0  0
  188.7410  177.5120  146.6840 C   0  0  0  0  0  3  0  0  0  0  0  0
  188.5280  176.9330  144.3360 C   0  0  0  0  0  0  0  0  0  0  0  0
  187.3870  177.8640  146.7220 C   0  0  0  0  0  3  0  0  0  0  0  0
  186.5970  177.7550  145.5720 C   0  0  0  0  0  0  0  0  0  0  0  0
  185.2470  178.1170  145.6400 O   0  0  0  0  0  0  0  0  0  0  0  0
  184.7370  179.3330  145.0980 C   0  0  0  0  0  2  0  0  0  0  0  0
  182.5350  179.1740  143.9880 N   0  0  0  0  0  0  0  0  0  0  0  0
  183.8890  179.0530  143.9060 C   0  0  0  0  0  0  0  0  0  0  0  0
  183.6830  178.4490  141.5790 C   0  0  0  0  0  3  0  0  0  0  0  0
  181.7340  178.9440  142.9110 C   0  0  0  0  0  3  0  0  0  0  0  0
  184.4880  178.6920  142.6930 C   0  0  0  0  0  3  0  0  0  0  0  0
  182.2950  178.5750  141.6850 C   0  0  0  0  0  3  0  0  0  0  0  0
  188.2140  177.8750  139.8680 N   0  0  0  0  0  2  0  0  0  0  0  0
  189.1980  177.0940  140.5850 C   0  0  1  0  0  3  0  0  0  0  0  0
  190.2110  178.0200  138.6720 O   0  0  0  0  0  0  0  0  0  0  0  0
  188.9960  178.6680  138.9330 C   0  0  0  0  0  2  0  0  0  0  0  0
  190.4940  177.2890  139.8320 C   0  0  2  0  0  3  0  0  0  0  0  0
  191.0870  175.9370  139.4660 C   0  0  0  0  0  2  0  0  0  0  0  0
  190.8840  175.6400  136.9580 C   0  0  0  0  0  0  0  0  0  0  0  0
  189.2050  175.1450  137.1110 Cl  0  0  0  0  0  0  0  0  0  0  0  0
  192.7830  176.0890  135.5180 C   0  0  0  0  0  3  0  0  0  0  0  0
  191.4490  175.7040  135.6810 C   0  0  0  0  0  3  0  0  0  0  0  0
  193.5570  176.4130  136.6330 C   0  0  0  0  0  3  0  0  0  0  0  0
  191.6630  175.9670  138.0850 C   0  0  0  0  0  0  0  0  0  0  0  0
  192.9980  176.3540  137.9130 C   0  0  0  0  0  3  0  0  0  0  0  0
  1  4  1  0  0  0  0
  2  1  1  0  0  0  0
  2 10  1  1  0  0  0
  3  6  1  6  0  0  0
  3  2  1  0  0  0  0
  5  4  1  0  0  0  0
  6  5  2  0  0  0  0
  7  9  1  0  0  0  0
  8 12  2  0  0  0  0
  9 11  2  0  0  0  0
 10  8  1  0  0  0  0
 10  7  2  0  0  0  0
 12 13  1  0  0  0  0
 12 11  1  0  0  0  0
 14 13  1  0  0  0  0
 16 15  1  0  0  0  0
 16 14  1  0  0  0  0
 17 20  2  0  0  0  0
 17 19  1  0  0  0  0
 18 15  2  0  0  0  0
 19 16  2  0  0  0  0
 20 18  1  0  0  0  0
 22 21  1  6  0  0  0
 22  3  1  0  0  0  0
 23 24  1  0  0  0  0
 23 25  1  0  0  0  0
 24 21  1  0  0  0  0
 25 26  1  6  0  0  0
 25 22  1  0  0  0  0
 27 28  1  0  0  0  0
 27 32  1  0  0  0  0
 29 30  1  0  0  0  0
 29 31  2  0  0  0  0
 30 27  2  0  0  0  0
 31 33  1  0  0  0  0
 32 26  1  0  0  0  0
 33 32  2  0  0  0  0
M  END
>  <MODEL>
1

>  <REMARK>
 VINA RESULT:      -8.6      0.000      0.000
  Name = 
  7 active torsions:
  status: ('A' for Active; 'I' for Inactive)
    1  A    between atoms: C_2  and  C_15
    2  A    between atoms: C_3  and  C_14
    3  A    between atoms: C_13  and  C_27
    4  A    between atoms: C_13  and  C_30
    5  A    between atoms: C_16  and  C_21
    6  A    between atoms: C_21  and  O_29
    7  A    between atoms: O_29  and  C_33
                            x       y       z     vdW  Elec       q    Type
                         _______ _______ _______ _____ _____    ______ ____

>  <TORSDO>
F 7

$$$$
=
 OpenBabel11062412333D

 33 37  0  0  1  0  0  0  0  0999 V2000
  189.8300  179.2550  143.6020 C   0  0  0  0  0  2  0  0  0  0  0  0
  189.4070  177.8670  143.1090 C   0  0  2  0  0  3  0  0  0  0  0  0
  190.0450  176.7320  143.9340 C   0  0  1  0  0  3  0  0  0  0  0  0
  191.2800  179.3330  143.7610 N   0  0  0  0  0  0  0  0  0  0  0  0
  192.0610  178.1910  144.1290 C   0  0  0  0  0  3  0  0  0  0  0  0
  191.5130  176.9770  144.1990 C   0  0  0  0  0  2  0  0  0  0  0  0
  190.6560  176.9380  141.1040 C   0  0  0  0  0  3  0  0  0  0  0  0
  188.6530  178.2520  140.7620 C   0  0  0  0  0  3  0  0  0  0  0  0
  190.7840  176.7750  139.7220 C   0  0  0  0  0  3  0  0  0  0  0  0
  189.5880  177.6810  141.6310 C   0  0  0  0  0  0  0  0  0  0  0  0
  189.8470  177.3530  138.8580 C   0  0  0  0  0  3  0  0  0  0  0  0
  188.7780  178.0960  139.3720 C   0  0  0  0  0  0  0  0  0  0  0  0
  187.8550  178.6600  138.4830 O   0  0  0  0  0  0  0  0  0  0  0  0
  186.9640  177.8830  137.6870 C   0  0  0  0  0  2  0  0  0  0  0  0
  185.2630  179.2640  138.8290 N   0  0  0  0  0  0  0  0  0  0  0  0
  185.5500  178.1900  138.0440 C   0  0  0  0  0  0  0  0  0  0  0  0
  183.1940  177.7000  137.8730 C   0  0  0  0  0  3  0  0  0  0  0  0
  183.9810  179.5830  139.1570 C   0  0  0  0  0  3  0  0  0  0  0  0
  184.5160  177.3900  137.5450 C   0  0  0  0  0  3  0  0  0  0  0  0
  182.9210  178.8050  138.6850 C   0  0  0  0  0  3  0  0  0  0  0  0
  190.1720  176.6770  146.3790 N   0  0  0  0  0  2  0  0  0  0  0  0
  189.2850  176.5110  145.2480 C   0  0  1  0  0  3  0  0  0  0  0  0
  188.4080  178.1750  146.6630 O   0  0  0  0  0  0  0  0  0  0  0  0
  189.7490  177.9270  146.9870 C   0  0  0  0  0  2  0  0  0  0  0  0
  188.2110  177.5590  145.4210 C   0  0  2  0  0  3  0  0  0  0  0  0
  186.8380  176.9050  145.3760 C   0  0  0  0  0  2  0  0  0  0  0  0
  184.9150  178.5510  145.2770 C   0  0  0  0  0  0  0  0  0  0  0  0
  184.7830  178.5650  147.0290 Cl  0  0  0  0  0  0  0  0  0  0  0  0
  184.1140  179.3660  143.1380 C   0  0  0  0  0  3  0  0  0  0  0  0
  184.0430  179.3530  144.5330 C   0  0  0  0  0  3  0  0  0  0  0  0
  185.0590  178.5770  142.4800 C   0  0  0  0  0  3  0  0  0  0  0  0
  185.8690  177.7550  144.6150 C   0  0  0  0  0  0  0  0  0  0  0  0
  185.9360  177.7750  143.2160 C   0  0  0  0  0  3  0  0  0  0  0  0
  1  4  1  0  0  0  0
  2 10  1  6  0  0  0
  2  1  1  0  0  0  0
  2  3  1  0  0  0  0
  3  6  1  1  0  0  0
  3 22  1  0  0  0  0
  4  5  2  0  0  0  0
  5  6  1  0  0  0  0
  7 10  1  0  0  0  0
  8 10  2  0  0  0  0
  9  7  2  0  0  0  0
 11 12  2  0  0  0  0
 11  9  1  0  0  0  0
 12  8  1  0  0  0  0
 13 12  1  0  0  0  0
 14 16  1  0  0  0  0
 14 13  1  0  0  0  0
 15 18  1  0  0  0  0
 16 15  2  0  0  0  0
 17 20  1  0  0  0  0
 19 17  2  0  0  0  0
 19 16  1  0  0  0  0
 20 18  2  0  0  0  0
 21 24  1  0  0  0  0
 22 25  1  0  0  0  0
 22 21  1  1  0  0  0
 23 24  1  0  0  0  0
 25 26  1  1  0  0  0
 25 23  1  0  0  0  0
 27 28  1  0  0  0  0
 29 30  1  0  0  0  0
 30 27  2  0  0  0  0
 31 29  2  0  0  0  0
 31 33  1  0  0  0  0
 32 27  1  0  0  0  0
 32 26  1  0  0  0  0
 33 32  2  0  0  0  0
M  END
>  <MODEL>
2

>  <REMARK>
 VINA RESULT:      -8.5      3.068      6.985
  Name = 
  7 active torsions:
  status: ('A' for Active; 'I' for Inactive)
    1  A    between atoms: C_2  and  C_15
    2  A    between atoms: C_3  and  C_14
    3  A    between atoms: C_13  and  C_27
    4  A    between atoms: C_13  and  C_30
    5  A    between atoms: C_16  and  C_21
    6  A    between atoms: C_21  and  O_29
    7  A    between atoms: O_29  and  C_33
                            x       y       z     vdW  Elec       q    Type
                         _______ _______ _______ _____ _____    ______ ____

>  <TORSDO>
F 7

$$$$
=
 OpenBabel11062412333D

 33 37  0  0  1  0  0  0  0  0999 V2000
  188.3220  175.7890  137.8290 C   0  0  0  0  0  2  0  0  0  0  0  0
  188.2470  177.1070  138.6090 C   0  0  2  0  0  3  0  0  0  0  0  0
  188.1560  178.3330  137.6800 C   0  0  1  0  0  3  0  0  0  0  0  0
  189.3360  175.8600  136.7810 N   0  0  0  0  0  2  0  0  0  0  0  0
  189.6470  177.0880  136.1130 C   0  0  0  0  0  3  0  0  0  0  0  0
  189.1240  178.2460  136.5230 C   0  0  0  0  0  3  0  0  0  0  0  0
  190.6840  177.1610  139.3160 C   0  0  0  0  0  3  0  0  0  0  0  0
  188.9500  177.4800  140.9740 C   0  0  0  0  0  3  0  0  0  0  0  0
  191.6590  177.3090  140.3070 C   0  0  0  0  0  3  0  0  0  0  0  0
  189.3230  177.2440  139.6460 C   0  0  0  0  0  0  0  0  0  0  0  0
  191.2790  177.5390  141.6340 C   0  0  0  0  0  3  0  0  0  0  0  0
  189.9240  177.6250  141.9760 C   0  0  0  0  0  0  0  0  0  0  0  0
  189.5750  177.8590  143.3110 O   0  0  0  0  0  0  0  0  0  0  0  0
  189.6320  176.8530  144.3200 C   0  0  0  0  0  2  0  0  0  0  0  0
  189.4520  177.4110  146.7200 N   0  0  0  0  0  0  0  0  0  0  0  0
  188.8420  177.2720  145.5120 C   0  0  0  0  0  0  0  0  0  0  0  0
  186.7510  177.9580  146.5010 C   0  0  0  0  0  3  0  0  0  0  0  0
  188.7620  177.8110  147.8240 C   0  0  0  0  0  3  0  0  0  0  0  0
  187.4760  177.5490  145.3800 C   0  0  0  0  0  3  0  0  0  0  0  0
  187.3960  178.0910  147.7340 C   0  0  0  0  0  3  0  0  0  0  0  0
  186.5140  177.8150  135.9380 N   0  0  0  0  0  2  0  0  0  0  0  0
  186.7210  178.5370  137.1760 C   0  0  1  0  0  3  0  0  0  0  0  0
  184.9100  177.0580  137.4520 O   0  0  0  0  0  0  0  0  0  0  0  0
  185.6410  176.7140  136.3060 C   0  0  0  0  0  2  0  0  0  0  0  0
  185.7280  177.9520  138.1530 C   0  0  2  0  0  3  0  0  0  0  0  0
  184.8850  179.0640  138.7590 C   0  0  0  0  0  2  0  0  0  0  0  0
  183.4660  178.5640  140.7970 C   0  0  0  0  0  0  0  0  0  0  0  0
  182.0160  178.4460  139.8100 Cl  0  0  0  0  0  0  0  0  0  0  0  0
  184.4830  178.4470  142.9950 C   0  0  0  0  0  3  0  0  0  0  0  0
  183.3550  178.3570  142.1750 C   0  0  0  0  0  3  0  0  0  0  0  0
  185.7280  178.7430  142.4380 C   0  0  0  0  0  3  0  0  0  0  0  0
  184.7200  178.8630  140.2330 C   0  0  0  0  0  0  0  0  0  0  0  0
  185.8470  178.9490  141.0600 C   0  0  0  0  0  3  0  0  0  0  0  0
  1  2  1  0  0  0  0
  2 10  1  6  0  0  0
  3  6  1  6  0  0  0
  3  2  1  0  0  0  0
  4  1  1  0  0  0  0
  5  6  2  0  0  0  0
  5  4  1  0  0  0  0
  7 10  2  0  0  0  0
  7  9  1  0  0  0  0
  8 12  2  0  0  0  0
  9 11  2  0  0  0  0
 10  8  1  0  0  0  0
 11 12  1  0  0  0  0
 12 13  1  0  0  0  0
 13 14  1  0  0  0  0
 14 16  1  0  0  0  0
 15 18  1  0  0  0  0
 16 15  2  0  0  0  0
 17 20  1  0  0  0  0
 19 16  1  0  0  0  0
 19 17  2  0  0  0  0
 20 18  2  0  0  0  0
 21 24  1  0  0  0  0
 22 21  1  6  0  0  0
 22  3  1  0  0  0  0
 22 25  1  0  0  0  0
 23 25  1  0  0  0  0
 24 23  1  0  0  0  0
 25 26  1  6  0  0  0
 26 32  1  0  0  0  0
 27 30  1  0  0  0  0
 28 27  1  0  0  0  0
 30 29  2  0  0  0  0
 31 29  1  0  0  0  0
 32 27  2  0  0  0  0
 32 33  1  0  0  0  0
 33 31  2  0  0  0  0
M  END
>  <MODEL>
3

>  <REMARK>
 VINA RESULT:      -8.4      2.940      6.792
  Name = 
  7 active torsions:
  status: ('A' for Active; 'I' for Inactive)
    1  A    between atoms: C_2  and  C_15
    2  A    between atoms: C_3  and  C_14
    3  A    between atoms: C_13  and  C_27
    4  A    between atoms: C_13  and  C_30
    5  A    between atoms: C_16  and  C_21
    6  A    between atoms: C_21  and  O_29
    7  A    between atoms: O_29  and  C_33
                            x       y       z     vdW  Elec       q    Type
                         _______ _______ _______ _____ _____    ______ ____

>  <TORSDO>
F 7

$$$$
=
 OpenBabel11062412333D

 33 37  0  0  1  0  0  0  0  0999 V2000
  189.0320  176.0030  143.2180 C   0  0  0  0  0  2  0  0  0  0  0  0
  187.9150  176.9400  142.7460 C   0  0  2  0  0  3  0  0  0  0  0  0
  188.4280  178.0210  141.7750 C   0  0  1  0  0  3  0  0  0  0  0  0
  190.1900  176.7620  143.6800 N   0  0  0  0  0  2  0  0  0  0  0  0
  190.5340  178.0320  143.1150 C   0  0  0  0  0  3  0  0  0  0  0  0
  189.7250  178.6390  142.2440 C   0  0  0  0  0  3  0  0  0  0  0  0
  187.4850  177.3550  145.2130 C   0  0  0  0  0  3  0  0  0  0  0  0
  185.9450  178.2340  143.5660 C   0  0  0  0  0  3  0  0  0  0  0  0
  186.7110  177.9140  146.2340 C   0  0  0  0  0  3  0  0  0  0  0  0
  187.1030  177.5110  143.8720 C   0  0  0  0  0  0  0  0  0  0  0  0
  185.5520  178.6310  145.9210 C   0  0  0  0  0  3  0  0  0  0  0  0
  185.1600  178.7950  144.5880 C   0  0  0  0  0  0  0  0  0  0  0  0
  183.9970  179.5200  144.3060 O   0  0  0  0  0  0  0  0  0  0  0  0
  182.6920  178.9470  144.3460 C   0  0  0  0  0  2  0  0  0  0  0  0
  180.7960  179.6150  142.9080 N   0  0  0  0  0  0  0  0  0  0  0  0
  182.0360  179.0620  143.0130 C   0  0  0  0  0  0  0  0  0  0  0  0
  182.0910  178.7570  140.6210 C   0  0  0  0  0  3  0  0  0  0  0  0
  180.1790  179.7520  141.7030 C   0  0  0  0  0  3  0  0  0  0  0  0
  182.7090  178.6270  141.8660 C   0  0  0  0  0  3  0  0  0  0  0  0
  180.8150  179.3240  140.5350 C   0  0  0  0  0  3  0  0  0  0  0  0
  187.8090  178.2530  139.4170 N   0  0  0  0  0  2  0  0  0  0  0  0
  188.5760  177.4600  140.3540 C   0  0  1  0  0  3  0  0  0  0  0  0
  190.0180  178.2530  138.6720 O   0  0  0  0  0  0  0  0  0  0  0  0
  188.8130  178.9670  138.6450 C   0  0  0  0  0  2  0  0  0  0  0  0
  190.0100  177.5630  139.8900 C   0  0  2  0  0  3  0  0  0  0  0  0
  190.5940  176.1710  139.7050 C   0  0  0  0  0  2  0  0  0  0  0  0
  192.7510  176.4910  138.4170 C   0  0  0  0  0  0  0  0  0  0  0  0
  193.5570  177.1280  139.8430 Cl  0  0  0  0  0  0  0  0  0  0  0  0
  192.8760  175.8850  136.0720 C   0  0  0  0  0  3  0  0  0  0  0  0
  193.4810  176.3820  137.2290 C   0  0  0  0  0  3  0  0  0  0  0  0
  191.5360  175.4920  136.0990 C   0  0  0  0  0  3  0  0  0  0  0  0
  191.4010  176.0960  138.4470 C   0  0  0  0  0  0  0  0  0  0  0  0
  190.8010  175.5960  137.2840 C   0  0  0  0  0  3  0  0  0  0  0  0
  1  4  1  0  0  0  0
  2  1  1  0  0  0  0
  2 10  1  1  0  0  0
  3  6  1  1  0  0  0
  3  2  1  0  0  0  0
  5  4  1  0  0  0  0
  6  5  2  0  0  0  0
  7  9  1  0  0  0  0
  8 10  1  0  0  0  0
  8 12  2  0  0  0  0
 10  7  2  0  0  0  0
 11  9  2  0  0  0  0
 12 11  1  0  0  0  0
 13 14  1  0  0  0  0
 13 12  1  0  0  0  0
 15 16  1  0  0  0  0
 16 14  1  0  0  0  0
 17 19  1  0  0  0  0
 18 15  2  0  0  0  0
 19 16  2  0  0  0  0
 20 17  2  0  0  0  0
 20 18  1  0  0  0  0
 22 21  1  6  0  0  0
 22  3  1  0  0  0  0
 23 25  1  0  0  0  0
 24 23  1  0  0  0  0
 24 21  1  0  0  0  0
 25 26  1  6  0  0  0
 25 22  1  0  0  0  0
 27 32  1  0  0  0  0
 27 28  1  0  0  0  0
 29 31  2  0  0  0  0
 29 30  1  0  0  0  0
 30 27  2  0  0  0  0
 31 33  1  0  0  0  0
 32 26  1  0  0  0  0
 33 32  2  0  0  0  0
M  END
>  <MODEL>
4

>  <REMARK>
 VINA RESULT:      -8.4      1.452      1.936
  Name = 
  7 active torsions:
  status: ('A' for Active; 'I' for Inactive)
    1  A    between atoms: C_2  and  C_15
    2  A    between atoms: C_3  and  C_14
    3  A    between atoms: C_13  and  C_27
    4  A    between atoms: C_13  and  C_30
    5  A    between atoms: C_16  and  C_21
    6  A    between atoms: C_21  and  O_29
    7  A    between atoms: O_29  and  C_33
                            x       y       z     vdW  Elec       q    Type
                         _______ _______ _______ _____ _____    ______ ____

>  <TORSDO>
F 7

$$$$
=
 OpenBabel11062412333D

 33 37  0  0  1  0  0  0  0  0999 V2000
  181.6690  179.0820  140.1380 C   0  0  0  0  0  2  0  0  0  0  0  0
  183.1260  178.7790  140.5050 C   0  0  2  0  0  3  0  0  0  0  0  0
  183.6610  177.5230  139.7900 C   0  0  1  0  0  3  0  0  0  0  0  0
  180.8400  177.8870  140.2640 N   0  0  0  0  0  2  0  0  0  0  0  0
  181.3640  176.5760  140.0260 C   0  0  0  0  0  3  0  0  0  0  0  0
  182.6680  176.3840  139.8200 C   0  0  0  0  0  3  0  0  0  0  0  0
  182.3520  179.0210  142.9100 C   0  0  0  0  0  3  0  0  0  0  0  0
  184.6530  178.4330  142.4480 C   0  0  0  0  0  3  0  0  0  0  0  0
  182.6150  178.9730  144.2820 C   0  0  0  0  0  3  0  0  0  0  0  0
  183.3730  178.7530  141.9850 C   0  0  0  0  0  0  0  0  0  0  0  0
  183.9000  178.6570  144.7370 C   0  0  0  0  0  3  0  0  0  0  0  0
  184.9260  178.3880  143.8250 C   0  0  0  0  0  0  0  0  0  0  0  0
  186.2010  178.0720  144.3120 O   0  0  0  0  0  0  0  0  0  0  0  0
  186.4500  177.7080  145.6670 C   0  0  0  0  0  2  0  0  0  0  0  0
  188.3890  177.3140  147.1470 N   0  0  0  0  0  0  0  0  0  0  0  0
  187.9100  177.5050  145.8870 C   0  0  0  0  0  0  0  0  0  0  0  0
  190.1460  177.2740  145.0130 C   0  0  0  0  0  3  0  0  0  0  0  0
  189.7150  177.1070  147.3800 C   0  0  0  0  0  3  0  0  0  0  0  0
  188.7830  177.4830  144.7940 C   0  0  0  0  0  3  0  0  0  0  0  0
  190.6190  177.0850  146.3140 C   0  0  0  0  0  3  0  0  0  0  0  0
  185.0610  178.9070  138.3330 N   0  0  0  0  0  2  0  0  0  0  0  0
  184.0780  177.8440  138.3490 C   0  0  1  0  0  3  0  0  0  0  0  0
  186.0070  177.0780  137.2390 O   0  0  0  0  0  0  0  0  0  0  0  0
  186.2990  178.2450  137.9580 C   0  0  0  0  0  2  0  0  0  0  0  0
  184.7620  176.6540  137.7180 C   0  0  2  0  0  3  0  0  0  0  0  0
  183.9160  176.1220  136.5700 C   0  0  0  0  0  2  0  0  0  0  0  0
  182.3370  174.1470  136.7220 C   0  0  0  0  0  0  0  0  0  0  0  0
  180.9400  175.1960  136.5290 Cl  0  0  0  0  0  0  0  0  0  0  0  0
  183.2110  171.9040  137.0190 C   0  0  0  0  0  3  0  0  0  0  0  0
  182.1260  172.7710  136.8590 C   0  0  0  0  0  3  0  0  0  0  0  0
  184.5110  172.4100  137.0400 C   0  0  0  0  0  3  0  0  0  0  0  0
  183.6480  174.6600  136.7420 C   0  0  0  0  0  0  0  0  0  0  0  0
  184.7300  173.7840  136.9010 C   0  0  0  0  0  3  0  0  0  0  0  0
  1  4  1  0  0  0  0
  1  2  1  0  0  0  0
  2 10  1  1  0  0  0
  3  6  1  6  0  0  0
  3  2  1  0  0  0  0
  5  4  1  0  0  0  0
  6  5  2  0  0  0  0
  7  9  1  0  0  0  0
  8 12  2  0  0  0  0
  9 11  2  0  0  0  0
 10  8  1  0  0  0  0
 10  7  2  0  0  0  0
 12 13  1  0  0  0  0
 12 11  1  0  0  0  0
 13 14  1  0  0  0  0
 14 16  1  0  0  0  0
 15 18  1  0  0  0  0
 16 15  2  0  0  0  0
 17 20  1  0  0  0  0
 19 17  2  0  0  0  0
 19 16  1  0  0  0  0
 20 18  2  0  0  0  0
 22 21  1  1  0  0  0
 22  3  1  0  0  0  0
 23 25  1  0  0  0  0
 23 24  1  0  0  0  0
 24 21  1  0  0  0  0
 25 26  1  6  0  0  0
 25 22  1  0  0  0  0
 26 32  1  0  0  0  0
 27 32  2  0  0  0  0
 27 30  1  0  0  0  0
 28 27  1  0  0  0  0
 29 31  1  0  0  0  0
 30 29  2  0  0  0  0
 32 33  1  0  0  0  0
 33 31  2  0  0  0  0
M  END
>  <MODEL>
5

>  <REMARK>
 VINA RESULT:      -8.3      4.077      7.336
  Name = 
  7 active torsions:
  status: ('A' for Active; 'I' for Inactive)
    1  A    between atoms: C_2  and  C_15
    2  A    between atoms: C_3  and  C_14
    3  A    between atoms: C_13  and  C_27
    4  A    between atoms: C_13  and  C_30
    5  A    between atoms: C_16  and  C_21
    6  A    between atoms: C_21  and  O_29
    7  A    between atoms: O_29  and  C_33
                            x       y       z     vdW  Elec       q    Type
                         _______ _______ _______ _____ _____    ______ ____

>  <TORSDO>
F 7

$$$$
=
 OpenBabel11062412333D

 33 37  0  0  1  0  0  0  0  0999 V2000
  184.9740  178.9500  139.8480 C   0  0  0  0  0  2  0  0  0  0  0  0
  183.9950  177.9880  140.5320 C   0  0  2  0  0  3  0  0  0  0  0  0
  182.7540  177.7010  139.6650 C   0  0  1  0  0  3  0  0  0  0  0  0
  184.2780  180.1280  139.3380 N   0  0  0  0  0  2  0  0  0  0  0  0
  182.9230  180.0640  138.8800 C   0  0  0  0  0  3  0  0  0  0  0  0
  182.1950  178.9560  139.0360 C   0  0  0  0  0  3  0  0  0  0  0  0
  182.3150  178.6310  142.3220 C   0  0  0  0  0  3  0  0  0  0  0  0
  184.6690  178.5270  142.8730 C   0  0  0  0  0  3  0  0  0  0  0  0
  182.0230  178.9960  143.6390 C   0  0  0  0  0  3  0  0  0  0  0  0
  183.6430  178.3970  141.9320 C   0  0  0  0  0  0  0  0  0  0  0  0
  183.0560  179.1290  144.5740 C   0  0  0  0  0  3  0  0  0  0  0  0
  184.3840  178.8970  144.1980 C   0  0  0  0  0  0  0  0  0  0  0  0
  185.3950  179.0360  145.1560 O   0  0  0  0  0  0  0  0  0  0  0  0
  185.6460  178.0660  146.1700 C   0  0  0  0  0  2  0  0  0  0  0  0
  187.7310  177.9130  147.4870 N   0  0  0  0  0  0  0  0  0  0  0  0
  187.1080  177.8010  146.2820 C   0  0  0  0  0  0  0  0  0  0  0  0
  189.1990  177.1470  145.2730 C   0  0  0  0  0  3  0  0  0  0  0  0
  189.0610  177.6590  147.6260 C   0  0  0  0  0  3  0  0  0  0  0  0
  187.8330  177.4090  145.1510 C   0  0  0  0  0  3  0  0  0  0  0  0
  189.8220  177.2720  146.5180 C   0  0  0  0  0  3  0  0  0  0  0  0
  182.6460  175.3340  139.0440 N   0  0  0  0  0  2  0  0  0  0  0  0
  183.0610  176.6460  138.5940 C   0  0  1  0  0  3  0  0  0  0  0  0
  181.5500  175.7500  137.0280 O   0  0  0  0  0  0  0  0  0  0  0  0
  181.4850  175.0260  138.2260 C   0  0  0  0  0  2  0  0  0  0  0  0
  182.2610  176.9140  137.3410 C   0  0  2  0  0  3  0  0  0  0  0  0
  183.1970  177.2760  136.1980 C   0  0  0  0  0  2  0  0  0  0  0  0
  184.8780  175.3890  136.0280 C   0  0  0  0  0  0  0  0  0  0  0  0
  183.6860  174.3390  135.2770 Cl  0  0  0  0  0  0  0  0  0  0  0  0
  187.1460  175.6970  136.8310 C   0  0  0  0  0  3  0  0  0  0  0  0
  186.1710  174.8950  136.2330 C   0  0  0  0  0  3  0  0  0  0  0  0
  186.8330  176.9990  137.2250 C   0  0  0  0  0  3  0  0  0  0  0  0
  184.5600  176.7020  136.4250 C   0  0  0  0  0  0  0  0  0  0  0  0
  185.5440  177.5010  137.0220 C   0  0  0  0  0  3  0  0  0  0  0  0
  1  2  1  0  0  0  0
  2 10  1  1  0  0  0
  3  6  1  6  0  0  0
  3  2  1  0  0  0  0
  4  1  1  0  0  0  0
  5  6  2  0  0  0  0
  5  4  1  0  0  0  0
  7  9  1  0  0  0  0
  8 12  2  0  0  0  0
  9 11  2  0  0  0  0
 10  7  2  0  0  0  0
 10  8  1  0  0  0  0
 12 11  1  0  0  0  0
 12 13  1  0  0  0  0
 13 14  1  0  0  0  0
 14 16  1  0  0  0  0
 15 18  1  0  0  0  0
 16 15  2  0  0  0  0
 17 20  1  0  0  0  0
 19 17  2  0  0  0  0
 19 16  1  0  0  0  0
 20 18  2  0  0  0  0
 22 21  1  1  0  0  0
 22  3  1  0  0  0  0
 23 25  1  0  0  0  0
 23 24  1  0  0  0  0
 24 21  1  0  0  0  0
 25 26  1  6  0  0  0
 25 22  1  0  0  0  0
 26 32  1  0  0  0  0
 27 30  2  0  0  0  0
 27 32  1  0  0  0  0
 28 27  1  0  0  0  0
 29 31  2  0  0  0  0
 30 29  1  0  0  0  0
 32 33  2  0  0  0  0
 33 31  1  0  0  0  0
M  END
>  <MODEL>
6

>  <REMARK>
 VINA RESULT:      -8.0      3.793      6.859
  Name = 
  7 active torsions:
  status: ('A' for Active; 'I' for Inactive)
    1  A    between atoms: C_2  and  C_15
    2  A    between atoms: C_3  and  C_14
    3  A    between atoms: C_13  and  C_27
    4  A    between atoms: C_13  and  C_30
    5  A    between atoms: C_16  and  C_21
    6  A    between atoms: C_21  and  O_29
    7  A    between atoms: O_29  and  C_33
                            x       y       z     vdW  Elec       q    Type
                         _______ _______ _______ _____ _____    ______ ____

>  <TORSDO>
F 7

$$$$
=
 OpenBabel11062412333D

 33 37  0  0  1  0  0  0  0  0999 V2000
  187.6340  179.0210  142.1740 C   0  0  0  0  0  2  0  0  0  0  0  0
  186.1710  178.8950  142.6110 C   0  0  2  0  0  3  0  0  0  0  0  0
  186.0050  177.9970  143.8520 C   0  0  1  0  0  3  0  0  0  0  0  0
  188.2680  177.7090  142.0870 N   0  0  0  0  0  0  0  0  0  0  0  0
  187.8830  176.6270  142.9430 C   0  0  0  0  0  3  0  0  0  0  0  0
  186.8300  176.7340  143.7550 C   0  0  0  0  0  2  0  0  0  0  0  0
  183.9390  178.0670  141.7310 C   0  0  0  0  0  3  0  0  0  0  0  0
  185.7050  178.6270  140.1740 C   0  0  0  0  0  3  0  0  0  0  0  0
  183.1030  177.7340  140.6620 C   0  0  0  0  0  3  0  0  0  0  0  0
  185.2470  178.5130  141.4910 C   0  0  0  0  0  0  0  0  0  0  0  0
  183.5690  177.8450  139.3470 C   0  0  0  0  0  3  0  0  0  0  0  0
  184.8710  178.2900  139.0950 C   0  0  0  0  0  0  0  0  0  0  0  0
  185.3080  178.3940  137.7690 O   0  0  0  0  0  0  0  0  0  0  0  0
  185.7490  177.2750  137.0040 C   0  0  0  0  0  2  0  0  0  0  0  0
  187.8400  175.9620  136.9000 N   0  0  0  0  0  0  0  0  0  0  0  0
  187.2350  177.1730  137.0490 C   0  0  0  0  0  0  0  0  0  0  0  0
  189.4000  178.2190  137.2390 C   0  0  0  0  0  3  0  0  0  0  0  0
  189.1960  175.8380  136.9170 C   0  0  0  0  0  3  0  0  0  0  0  0
  188.0090  178.3270  137.2170 C   0  0  0  0  0  3  0  0  0  0  0  0
  190.0020  176.9670  137.0880 C   0  0  0  0  0  3  0  0  0  0  0  0
  185.1370  178.9840  145.9180 N   0  0  0  0  0  2  0  0  0  0  0  0
  186.3360  178.7660  145.1380 C   0  0  1  0  0  3  0  0  0  0  0  0
  186.6490  177.8500  147.2830 O   0  0  0  0  0  0  0  0  0  0  0  0
  185.2880  178.1010  147.0630 C   0  0  0  0  0  2  0  0  0  0  0  0
  187.2490  177.9510  146.0220 C   0  0  2  0  0  3  0  0  0  0  0  0
  188.6010  178.6380  146.1420 C   0  0  0  0  0  2  0  0  0  0  0  0
  190.7240  177.5790  145.2540 C   0  0  0  0  0  0  0  0  0  0  0  0
  190.7410  178.6690  143.8760 Cl  0  0  0  0  0  0  0  0  0  0  0  0
  191.7740  175.7540  146.4570 C   0  0  0  0  0  3  0  0  0  0  0  0
  191.7540  176.6410  145.3770 C   0  0  0  0  0  3  0  0  0  0  0  0
  190.7640  175.8030  147.4200 C   0  0  0  0  0  3  0  0  0  0  0  0
  189.7050  177.6310  146.2230 C   0  0  0  0  0  0  0  0  0  0  0  0
  189.7320  176.7400  147.3040 C   0  0  0  0  0  3  0  0  0  0  0  0
  1  2  1  0  0  0  0
  2 10  1  6  0  0  0
  2  3  1  0  0  0  0
  3  6  1  6  0  0  0
  3 22  1  0  0  0  0
  4  1  1  0  0  0  0
  4  5  2  0  0  0  0
  5  6  1  0  0  0  0
  8 10  2  0  0  0  0
  9  7  2  0  0  0  0
 10  7  1  0  0  0  0
 11  9  1  0  0  0  0
 12 11  2  0  0  0  0
 12  8  1  0  0  0  0
 13 12  1  0  0  0  0
 14 16  1  0  0  0  0
 14 13  1  0  0  0  0
 15 18  2  0  0  0  0
 15 16  1  0  0  0  0
 16 19  2  0  0  0  0
 18 20  1  0  0  0  0
 19 17  1  0  0  0  0
 20 17  2  0  0  0  0
 21 24  1  0  0  0  0
 22 21  1  1  0  0  0
 22 25  1  0  0  0  0
 24 23  1  0  0  0  0
 25 26  1  1  0  0  0
 25 23  1  0  0  0  0
 26 32  1  0  0  0  0
 27 30  2  0  0  0  0
 27 32  1  0  0  0  0
 28 27  1  0  0  0  0
 29 31  2  0  0  0  0
 30 29  1  0  0  0  0
 32 33  2  0  0  0  0
 33 31  1  0  0  0  0
M  END
>  <MODEL>
7

>  <REMARK>
 VINA RESULT:      -7.8      2.746      7.645
  Name = 
  7 active torsions:
  status: ('A' for Active; 'I' for Inactive)
    1  A    between atoms: C_2  and  C_15
    2  A    between atoms: C_3  and  C_14
    3  A    between atoms: C_13  and  C_27
    4  A    between atoms: C_13  and  C_30
    5  A    between atoms: C_16  and  C_21
    6  A    between atoms: C_21  and  O_29
    7  A    between atoms: O_29  and  C_33
                            x       y       z     vdW  Elec       q    Type
                         _______ _______ _______ _____ _____    ______ ____

>  <TORSDO>
F 7

$$$$
=
 OpenBabel11062412333D

 33 37  0  0  1  0  0  0  0  0999 V2000
  189.3160  178.4130  142.0260 C   0  0  0  0  0  2  0  0  0  0  0  0
  187.7960  178.6170  142.0290 C   0  0  2  0  0  3  0  0  0  0  0  0
  187.0950  177.7790  143.1150 C   0  0  1  0  0  3  0  0  0  0  0  0
  189.6510  176.9920  142.0360 N   0  0  0  0  0  0  0  0  0  0  0  0
  188.8160  176.0240  142.6800 C   0  0  0  0  0  3  0  0  0  0  0  0
  187.6230  176.3640  143.1720 C   0  0  0  0  0  2  0  0  0  0  0  0
  185.7980  178.6440  140.4650 C   0  0  0  0  0  3  0  0  0  0  0  0
  187.9920  178.1140  139.5930 C   0  0  0  0  0  3  0  0  0  0  0  0
  185.2540  178.4940  139.1860 C   0  0  0  0  0  3  0  0  0  0  0  0
  187.1720  178.4510  140.6740 C   0  0  0  0  0  0  0  0  0  0  0  0
  186.0800  178.1520  138.1090 C   0  0  0  0  0  3  0  0  0  0  0  0
  187.4520  177.9580  138.3060 C   0  0  0  0  0  0  0  0  0  0  0  0
  188.2530  177.6190  137.2090 O   0  0  0  0  0  0  0  0  0  0  0  0
  188.4750  176.2740  136.7920 C   0  0  0  0  0  2  0  0  0  0  0  0
  190.7810  176.7930  137.5110 N   0  0  0  0  0  0  0  0  0  0  0  0
  189.8800  175.8680  137.0810 C   0  0  0  0  0  0  0  0  0  0  0  0
  191.5770  174.1610  137.2300 C   0  0  0  0  0  3  0  0  0  0  0  0
  192.0660  176.4510  137.8030 C   0  0  0  0  0  3  0  0  0  0  0  0
  190.2620  174.5300  136.9380 C   0  0  0  0  0  3  0  0  0  0  0  0
  192.4890  175.1260  137.6660 C   0  0  0  0  0  3  0  0  0  0  0  0
  185.8960  178.5500  145.1060 N   0  0  0  0  0  2  0  0  0  0  0  0
  187.2010  178.4550  144.4880 C   0  0  1  0  0  3  0  0  0  0  0  0
  187.2720  177.3820  146.5820 O   0  0  0  0  0  0  0  0  0  0  0  0
  185.9410  177.5850  146.1920 C   0  0  0  0  0  2  0  0  0  0  0  0
  188.0320  177.6150  145.4290 C   0  0  2  0  0  3  0  0  0  0  0  0
  189.3120  178.3540  145.7890 C   0  0  0  0  0  2  0  0  0  0  0  0
  190.6960  177.1900  147.5620 C   0  0  0  0  0  0  0  0  0  0  0  0
  189.8780  178.0740  148.8410 Cl  0  0  0  0  0  0  0  0  0  0  0  0
  192.3610  175.5450  146.9260 C   0  0  0  0  0  3  0  0  0  0  0  0
  191.6840  176.2650  147.9140 C   0  0  0  0  0  3  0  0  0  0  0  0
  192.0510  175.7460  145.5800 C   0  0  0  0  0  3  0  0  0  0  0  0
  190.3810  177.3940  146.2050 C   0  0  0  0  0  0  0  0  0  0  0  0
  191.0630  176.6670  145.2200 C   0  0  0  0  0  3  0  0  0  0  0  0
  1  2  1  0  0  0  0
  1  4  1  0  0  0  0
  2 10  1  6  0  0  0
  2  3  1  0  0  0  0
  3  6  1  1  0  0  0
  3 22  1  0  0  0  0
  4  5  2  0  0  0  0
  5  6  1  0  0  0  0
  7 10  1  0  0  0  0
  8 10  2  0  0  0  0
  9  7  2  0  0  0  0
 11 12  2  0  0  0  0
 11  9  1  0  0  0  0
 12  8  1  0  0  0  0
 13 12  1  0  0  0  0
 14 16  1  0  0  0  0
 14 13  1  0  0  0  0
 15 18  1  0  0  0  0
 16 15  2  0  0  0  0
 17 20  1  0  0  0  0
 19 16  1  0  0  0  0
 19 17  2  0  0  0  0
 20 18  2  0  0  0  0
 21 24  1  0  0  0  0
 22 21  1  1  0  0  0
 22 25  1  0  0  0  0
 24 23  1  0  0  0  0
 25 26  1  1  0  0  0
 25 23  1  0  0  0  0
 26 32  1  0  0  0  0
 27 30  1  0  0  0  0
 27 28  1  0  0  0  0
 29 30  2  0  0  0  0
 31 29  1  0  0  0  0
 32 27  2  0  0  0  0
 33 31  2  0  0  0  0
 33 32  1  0  0  0  0
M  END
>  <MODEL>
8

>  <REMARK>
 VINA RESULT:      -7.8      3.042      8.162
  Name = 
  7 active torsions:
  status: ('A' for Active; 'I' for Inactive)
    1  A    between atoms: C_2  and  C_15
    2  A    between atoms: C_3  and  C_14
    3  A    between atoms: C_13  and  C_27
    4  A    between atoms: C_13  and  C_30
    5  A    between atoms: C_16  and  C_21
    6  A    between atoms: C_21  and  O_29
    7  A    between atoms: O_29  and  C_33
                            x       y       z     vdW  Elec       q    Type
                         _______ _______ _______ _____ _____    ______ ____

>  <TORSDO>
F 7

$$$$
=
 OpenBabel11062412333D

 33 37  0  0  1  0  0  0  0  0999 V2000
  190.8570  177.9420  141.6960 C   0  0  0  0  0  2  0  0  0  0  0  0
  189.4650  177.8900  141.0560 C   0  0  2  0  0  3  0  0  0  0  0  0
  188.4260  177.2090  141.9670 C   0  0  1  0  0  3  0  0  0  0  0  0
  191.2410  176.6330  142.2160 N   0  0  0  0  0  0  0  0  0  0  0  0
  190.2710  175.7080  142.7210 C   0  0  0  0  0  3  0  0  0  0  0  0
  188.9640  175.9480  142.6020 C   0  0  0  0  0  2  0  0  0  0  0  0
  188.2880  177.1570  138.9300 C   0  0  0  0  0  3  0  0  0  0  0  0
  190.6980  176.9880  139.0830 C   0  0  0  0  0  3  0  0  0  0  0  0
  188.3350  176.6450  137.6300 C   0  0  0  0  0  3  0  0  0  0  0  0
  189.4720  177.3290  139.6640 C   0  0  0  0  0  0  0  0  0  0  0  0
  189.5650  176.3010  137.0570 C   0  0  0  0  0  3  0  0  0  0  0  0
  190.7520  176.4680  137.7790 C   0  0  0  0  0  0  0  0  0  0  0  0
  191.9660  176.1180  137.1770 O   0  0  0  0  0  0  0  0  0  0  0  0
  193.2360  176.4550  137.7300 C   0  0  0  0  0  2  0  0  0  0  0  0
  195.0830  175.2220  138.8140 N   0  0  0  0  0  0  0  0  0  0  0  0
  194.0630  175.2290  137.9130 C   0  0  0  0  0  0  0  0  0  0  0  0
  194.5390  172.9270  137.3730 C   0  0  0  0  0  3  0  0  0  0  0  0
  195.8440  174.1120  139.0180 C   0  0  0  0  0  3  0  0  0  0  0  0
  193.7690  174.0750  137.1780 C   0  0  0  0  0  3  0  0  0  0  0  0
  195.5860  172.9420  138.2990 C   0  0  0  0  0  3  0  0  0  0  0  0
  186.4930  178.4130  142.8680 N   0  0  0  0  0  2  0  0  0  0  0  0
  187.9110  178.1800  143.0380 C   0  0  1  0  0  3  0  0  0  0  0  0
  186.8040  177.6130  145.0360 O   0  0  0  0  0  0  0  0  0  0  0  0
  185.8780  177.7210  143.9890 C   0  0  0  0  0  2  0  0  0  0  0  0
  188.0580  177.5770  144.4150 C   0  0  2  0  0  3  0  0  0  0  0  0
  189.0640  178.3790  145.2260 C   0  0  0  0  0  2  0  0  0  0  0  0
  189.6190  176.9730  147.2580 C   0  0  0  0  0  0  0  0  0  0  0  0
  188.1030  177.4150  148.0290 Cl  0  0  0  0  0  0  0  0  0  0  0  0
  191.7010  175.7340  147.3550 C   0  0  0  0  0  3  0  0  0  0  0  0
  190.4840  176.1060  147.9320 C   0  0  0  0  0  3  0  0  0  0  0  0
  192.0570  176.2270  146.0980 C   0  0  0  0  0  3  0  0  0  0  0  0
  189.9750  177.4720  145.9910 C   0  0  0  0  0  0  0  0  0  0  0  0
  191.1960  177.0930  145.4170 C   0  0  0  0  0  3  0  0  0  0  0  0
  1  4  1  0  0  0  0
  2 10  1  6  0  0  0
  2  1  1  0  0  0  0
  2  3  1  0  0  0  0
  3  6  1  1  0  0  0
  3 22  1  0  0  0  0
  4  5  2  0  0  0  0
  6  5  1  0  0  0  0
  7 10  1  0  0  0  0
  8 10  2  0  0  0  0
  9  7  2  0  0  0  0
 11  9  1  0  0  0  0
 11 12  2  0  0  0  0
 12  8  1  0  0  0  0
 13 14  1  0  0  0  0
 13 12  1  0  0  0  0
 14 16  1  0  0  0  0
 15 18  1  0  0  0  0
 16 15  2  0  0  0  0
 17 20  1  0  0  0  0
 19 17  2  0  0  0  0
 19 16  1  0  0  0  0
 20 18  2  0  0  0  0
 21 24  1  0  0  0  0
 22 21  1  6  0  0  0
 22 25  1  0  0  0  0
 24 23  1  0  0  0  0
 25 23  1  0  0  0  0
 25 26  1  1  0  0  0
 26 32  1  0  0  0  0
 27 30  1  0  0  0  0
 27 28  1  0  0  0  0
 29 30  2  0  0  0  0
 31 29  1  0  0  0  0
 32 27  2  0  0  0  0
 33 32  1  0  0  0  0
 33 31  2  0  0  0  0
M  END
>  <MODEL>
9

>  <REMARK>
 VINA RESULT:      -7.8      3.007      9.045
  Name = 
  7 active torsions:
  status: ('A' for Active; 'I' for Inactive)
    1  A    between atoms: C_2  and  C_15
    2  A    between atoms: C_3  and  C_14
    3  A    between atoms: C_13  and  C_27
    4  A    between atoms: C_13  and  C_30
    5  A    between atoms: C_16  and  C_21
    6  A    between atoms: C_21  and  O_29
    7  A    between atoms: O_29  and  C_33
                            x       y       z     vdW  Elec       q    Type
                         _______ _______ _______ _____ _____    ______ ____

>  <TORSDO>
F 7

$$$$
