=
 OpenBabel11062417483D

 64 71  0  0  1  0  0  0  0  0999 V2000
  188.0420  177.0370  137.3930 C   0  0  0  0  0  1  0  0  0  0  0  0
  191.2860  173.6660  136.8250 C   0  0  0  0  0  3  0  0  0  0  0  0
  188.6390  176.1810  136.2900 C   0  0  2  0  0  0  0  0  0  0  0  0
  192.3110  175.8210  137.3220 C   0  0  0  0  0  0  0  0  0  0  0  0
  190.0920  174.3310  136.5500 C   0  0  0  0  0  0  0  0  0  0  0  0
  188.8330  173.7100  136.0920 C   0  0  0  0  0  2  0  0  0  0  0  0
  187.8260  174.8710  136.1260 C   0  0  2  0  0  3  0  0  0  0  0  0
  189.9940  175.6970  136.6540 C   0  0  0  0  0  0  0  0  0  0  0  0
  191.0980  176.4710  137.0220 C   0  0  0  0  0  3  0  0  0  0  0  0
  192.4000  174.4230  137.2160 C   0  0  0  0  0  3  0  0  0  0  0  0
  188.7050  176.9070  135.0980 O   0  0  0  0  0  1  0  0  0  0  0  0
  186.3150  173.5750  134.6620 O   0  0  0  0  0  0  0  0  0  0  0  0
  182.7390  171.2590  135.8190 C   0  0  0  0  0  2  0  0  0  0  0  0
  186.8560  174.8580  134.9270 C   0  0  1  0  0  3  0  0  0  0  0  0
  184.5310  175.5420  135.8400 C   0  0  0  0  0  2  0  0  0  0  0  0
  185.4260  173.2100  135.6970 C   0  0  2  0  0  3  0  0  0  0  0  0
  183.0290  173.7010  136.6250 C   0  0  1  0  0  3  0  0  0  0  0  0
  185.9150  177.0130  134.6150 O   0  0  0  0  0  0  0  0  0  0  0  0
  185.2250  171.6910  135.6510 C   0  0  0  0  0  2  0  0  0  0  0  0
  182.8160  172.2290  137.0030 C   0  0  0  0  0  2  0  0  0  0  0  0
  184.1410  174.0800  135.6160 C   0  0  1  0  0  3  0  0  0  0  0  0
  183.9620  171.2930  134.8970 C   0  0  0  0  0  2  0  0  0  0  0  0
  185.7670  175.8890  135.0690 C   0  0  0  0  0  0  0  0  0  0  0  0
  181.8190  174.4410  136.5710 O   0  0  0  0  0  0  0  0  0  0  0  0
  179.0940  176.0470  138.2860 C   0  0  0  0  0  2  0  0  0  0  0  0
  181.0320  177.4240  138.4130 O   0  0  0  0  0  0  0  0  0  0  0  0
  182.5880  175.5920  138.7230 C   0  0  1  0  0  3  0  0  0  0  0  0
  179.6670  173.7960  138.6400 O   0  0  0  0  0  0  0  0  0  0  0  0
  181.4870  175.0670  137.7990 C   0  0  1  0  0  0  0  0  0  0  0  0
  178.9310  178.5160  138.1050 C   0  0  0  0  0  1  0  0  0  0  0  0
  181.9100  176.5480  137.7390 C   0  0  1  0  0  3  0  0  0  0  0  0
  179.7840  177.3070  137.7860 C   0  0  2  0  0  3  0  0  0  0  0  0
  180.0540  174.8910  138.2630 C   0  0  0  0  0  0  0  0  0  0  0  0
  182.1060  175.7470  140.0260 O   0  0  0  0  0  1  0  0  0  0  0  0
  193.5330  176.5930  137.7080 C   0  0  0  0  0  2  0  0  0  0  0  0
  193.9200  176.3150  139.0250 O   0  0  0  0  0  0  0  0  0  0  0  0
  193.2850  177.2760  139.8130 C   0  0  0  0  0  2  0  0  0  0  0  0
  191.5290  177.2080  141.5300 C   0  0  2  0  0  3  0  0  0  0  0  0
  191.0600  177.9020  140.4000 O   0  0  0  0  0  0  0  0  0  0  0  0
  191.8910  176.7910  140.1560 C   0  0  1  0  0  3  0  0  0  0  0  0
  190.4050  176.3600  142.1540 C   0  0  1  0  0  3  0  0  0  0  0  0
  190.8100  175.4500  143.3180 C   0  0  0  0  0  1  0  0  0  0  0  0
  189.1820  177.2270  142.4630 C   0  0  2  0  0  3  0  0  0  0  0  0
  188.8040  178.4570  141.1670 S   0  0  0  0  0  1  0  0  0  0  0  0
  188.1660  177.6670  144.5940 C   0  0  0  0  0  0  0  0  0  0  0  0
  189.2260  177.8090  143.8460 C   0  0  0  0  0  0  0  0  0  0  0  0
  187.1090  177.4920  145.3350 C   0  0  0  0  0  3  0  0  0  0  0  0
  191.1140  177.9260  145.5490 N   0  0  0  0  0  0  0  0  0  0  0  0
  190.9000  179.4890  143.8540 O   0  0  0  0  0  0  0  0  0  0  0  0
  190.4430  178.4480  144.3990 C   0  0  0  0  0  0  0  0  0  0  0  0
  192.2360  177.0680  148.0560 N   0  0  0  0  0  1  0  0  0  0  0  0
  191.1440  175.0500  147.7110 O   0  0  0  0  0  0  0  0  0  0  0  0
  190.8320  176.6520  146.0620 N   0  0  0  0  0  0  0  0  0  0  0  0
  191.3880  176.2110  147.2980 C   0  0  0  0  0  0  0  0  0  0  0  0
  185.7770  177.2870  144.6950 C   0  0  0  0  0  2  0  0  0  0  0  0
  185.9260  179.1310  143.0600 C   0  0  0  0  0  2  0  0  0  0  0  0
  183.7030  178.3560  143.7470 C   0  0  1  0  0  3  0  0  0  0  0  0
  183.7060  178.6500  142.2600 C   0  0  0  0  0  2  0  0  0  0  0  0
  184.9100  179.5300  142.0140 C   0  0  2  0  0  3  0  0  0  0  0  0
  185.1430  178.6030  144.2460 C   0  0  1  0  0  0  0  0  0  0  0  0
  185.1970  179.5470  145.2780 O   0  0  0  0  0  1  0  0  0  0  0  0
  185.4210  179.2930  140.7400 O   0  0  0  0  0  1  0  0  0  0  0  0
  181.2530  178.7880  143.9760 C   0  0  0  0  0  1  0  0  0  0  0  0
  182.6380  179.2120  144.4270 C   0  0  0  0  0  2  0  0  0  0  0  0
  2 10  1  0  0  0  0
  3  8  1  0  0  0  0
  3  1  1  1  0  0  0
  4 35  1  0  0  0  0
  5  8  1  0  0  0  0
  5  2  2  0  0  0  0
  6  5  1  0  0  0  0
  7  6  1  6  0  0  0
  7  3  1  0  0  0  0
  8  9  2  0  0  0  0
  9  4  1  0  0  0  0
 10  4  2  0  0  0  0
 11  3  1  0  0  0  0
 12 16  1  0  0  0  0
 13 20  1  0  0  0  0
 14 12  1  1  0  0  0
 14 23  1  0  0  0  0
 14  7  1  0  0  0  0
 16 19  1  6  0  0  0
 17 24  1  6  0  0  0
 17 20  1  0  0  0  0
 18 23  2  0  0  0  0
 21 16  1  0  0  0  0
 21 15  1  1  0  0  0
 21 17  1  0  0  0  0
 22 19  1  0  0  0  0
 22 13  1  0  0  0  0
 23 15  1  0  0  0  0
 27 34  1  1  0  0  0
 29 24  1  6  0  0  0
 29 33  1  0  0  0  0
 29 27  1  0  0  0  0
 31 29  1  0  0  0  0
 31 26  1  1  0  0  0
 31 27  1  0  0  0  0
 32 30  1  1  0  0  0
 32 25  1  0  0  0  0
 32 26  1  0  0  0  0
 33 25  1  0  0  0  0
 33 28  2  0  0  0  0
 35 36  1  0  0  0  0
 36 37  1  0  0  0  0
 38 41  1  6  0  0  0
 39 38  1  0  0  0  0
 40 37  1  1  0  0  0
 40 39  1  0  0  0  0
 40 38  1  0  0  0  0
 41 43  1  0  0  0  0
 41 42  1  1  0  0  0
 43 44  1  6  0  0  0
 43 46  1  0  0  0  0
 45 47  2  0  0  0  0
 46 50  1  0  0  0  0
 46 45  2  0  0  0  0
 48 53  2  0  0  0  0
 49 50  2  0  0  0  0
 50 48  1  0  0  0  0
 53 54  1  0  0  0  0
 54 52  2  0  0  0  0
 54 51  1  0  0  0  0
 55 47  1  0  0  0  0
 56 60  1  0  0  0  0
 57 60  1  0  0  0  0
 57 64  1  1  0  0  0
 58 57  1  0  0  0  0
 59 62  1  6  0  0  0
 59 58  1  0  0  0  0
 59 56  1  0  0  0  0
 60 55  1  0  0  0  0
 60 61  1  1  0  0  0
 63 64  1  0  0  0  0
M  END
>  <MODEL>
1

>  <REMARK>
 VINA RESULT:      -8.2      0.000      0.000
  Name = 
  15 active torsions:
  status: ('A' for Active; 'I' for Inactive)
    1  A    between atoms: N_1  and  N_48
    2  A    between atoms: C_4  and  O_33
    3  A    between atoms: C_4  and  C_44
    4  A    between atoms: O_7  and  C_30
    5  A    between atoms: O_7  and  C_43
    6  A    between atoms: C_11  and  C_20
    7  A    between atoms: C_11  and  C_35
    8  A    between atoms: C_14  and  C_37
    9  A    between atoms: C_16  and  C_18
   10  A    between atoms: C_16  and  O_33
   11  A    between atoms: C_20  and  C_21
   12  A    between atoms: C_25  and  C_56
   13  A    between atoms: C_35  and  C_36
   14  A    between atoms: C_38  and  C_50
   15  A    between atoms: C_40  and  C_50
                            x       y       z     vdW  Elec       q    Type
                         _______ _______ _______ _____ _____    ______ ____

>  <TORSDO>
F 15

$$$$
=
 OpenBabel11062417483D

 64 71  0  0  1  0  0  0  0  0999 V2000
  186.1490  177.1540  137.3840 C   0  0  0  0  0  1  0  0  0  0  0  0
  187.9150  172.8120  136.9000 C   0  0  0  0  0  3  0  0  0  0  0  0
  186.1680  176.0190  136.3750 C   0  0  2  0  0  0  0  0  0  0  0  0
  189.6630  174.5070  136.7910 C   0  0  0  0  0  0  0  0  0  0  0  0
  186.9690  173.8190  136.7190 C   0  0  0  0  0  0  0  0  0  0  0  0
  185.5070  173.6340  136.6170 C   0  0  0  0  0  2  0  0  0  0  0  0
  184.9630  175.0730  136.6080 C   0  0  2  0  0  3  0  0  0  0  0  0
  187.3410  175.1330  136.5790 C   0  0  0  0  0  0  0  0  0  0  0  0
  188.6880  175.5040  136.5930 C   0  0  0  0  0  3  0  0  0  0  0  0
  189.2720  173.1650  136.9380 C   0  0  0  0  0  3  0  0  0  0  0  0
  186.1870  176.5300  135.0740 O   0  0  0  0  0  1  0  0  0  0  0  0
  182.8830  174.1740  135.6210 O   0  0  0  0  0  0  0  0  0  0  0  0
  179.1530  173.0570  137.7020 C   0  0  0  0  0  2  0  0  0  0  0  0
  183.7910  175.2630  135.6230 C   0  0  1  0  0  3  0  0  0  0  0  0
  181.9850  176.6390  136.8690 C   0  0  0  0  0  2  0  0  0  0  0  0
  182.1730  174.1450  136.8420 C   0  0  2  0  0  3  0  0  0  0  0  0
  180.2510  175.3590  138.1390 C   0  0  1  0  0  3  0  0  0  0  0  0
  183.4160  177.5730  135.2380 O   0  0  0  0  0  0  0  0  0  0  0  0
  181.5670  172.7470  137.0180 C   0  0  0  0  0  2  0  0  0  0  0  0
  179.7380  174.0370  138.7250 C   0  0  0  0  0  2  0  0  0  0  0  0
  181.1800  175.3390  136.9010 C   0  0  1  0  0  3  0  0  0  0  0  0
  180.1120  172.6820  136.5690 C   0  0  0  0  0  2  0  0  0  0  0  0
  183.0740  176.5690  135.8430 C   0  0  0  0  0  0  0  0  0  0  0  0
  179.3010  176.4100  138.2260 O   0  0  0  0  0  0  0  0  0  0  0  0
  181.1540  179.2970  139.3120 C   0  0  0  0  0  2  0  0  0  0  0  0
  181.3900  177.5540  140.9160 O   0  0  0  0  0  0  0  0  0  0  0  0
  179.0980  176.7840  140.7480 C   0  0  1  0  0  3  0  0  0  0  0  0
  178.9310  179.4230  138.5640 O   0  0  0  0  0  0  0  0  0  0  0  0
  179.4960  177.2550  139.3470 C   0  0  1  0  0  0  0  0  0  0  0  0
  183.3130  178.8960  140.4670 C   0  0  0  0  0  1  0  0  0  0  0  0
  180.5460  176.6190  140.2800 C   0  0  1  0  0  3  0  0  0  0  0  0
  182.0730  178.2370  139.9010 C   0  0  2  0  0  3  0  0  0  0  0  0
  179.8000  178.7070  139.0360 C   0  0  0  0  0  0  0  0  0  0  0  0
  178.9430  177.8750  141.6090 O   0  0  0  0  0  1  0  0  0  0  0  0
  191.1230  174.8360  136.8010 C   0  0  0  0  0  2  0  0  0  0  0  0
  191.3400  176.2090  136.6310 O   0  0  0  0  0  0  0  0  0  0  0  0
  190.6420  176.8300  137.6690 C   0  0  0  0  0  2  0  0  0  0  0  0
  190.7340  177.2520  140.0870 C   0  0  2  0  0  3  0  0  0  0  0  0
  190.1810  175.9800  139.8480 O   0  0  0  0  0  0  0  0  0  0  0  0
  191.2260  176.3840  138.9940 C   0  0  1  0  0  3  0  0  0  0  0  0
  191.6290  177.2310  141.3390 C   0  0  1  0  0  3  0  0  0  0  0  0
  192.9670  177.9690  141.2280 C   0  0  0  0  0  1  0  0  0  0  0  0
  190.8270  177.6200  142.5840 C   0  0  2  0  0  3  0  0  0  0  0  0
  191.6230  178.9130  143.5990 S   0  0  0  0  0  1  0  0  0  0  0  0
  189.1000  176.1960  143.4530 C   0  0  0  0  0  0  0  0  0  0  0  0
  190.3820  176.4250  143.3770 C   0  0  0  0  0  0  0  0  0  0  0  0
  187.8180  175.9670  143.4970 C   0  0  0  0  0  3  0  0  0  0  0  0
  191.8680  175.6710  145.3010 N   0  0  0  0  0  0  0  0  0  0  0  0
  191.7220  174.4690  143.3280 O   0  0  0  0  0  0  0  0  0  0  0  0
  191.3420  175.4760  143.9850 C   0  0  0  0  0  0  0  0  0  0  0  0
  192.8220  175.8610  148.0090 N   0  0  0  0  0  1  0  0  0  0  0  0
  191.2430  177.5320  148.3170 O   0  0  0  0  0  0  0  0  0  0  0  0
  191.3210  176.6070  146.1900 N   0  0  0  0  0  0  0  0  0  0  0  0
  191.7790  176.7060  147.5360 C   0  0  0  0  0  0  0  0  0  0  0  0
  186.8550  177.0920  143.3110 C   0  0  0  0  0  2  0  0  0  0  0  0
  185.6760  178.9610  144.4120 C   0  0  0  0  0  2  0  0  0  0  0  0
  186.9350  177.3890  145.8100 C   0  0  1  0  0  3  0  0  0  0  0  0
  185.6330  177.7550  146.4960 C   0  0  0  0  0  2  0  0  0  0  0  0
  185.1590  179.0270  145.8310 C   0  0  2  0  0  3  0  0  0  0  0  0
  186.9310  178.1120  144.4460 C   0  0  1  0  0  0  0  0  0  0  0  0
  188.0430  178.9440  144.2800 O   0  0  0  0  0  1  0  0  0  0  0  0
  183.7660  179.0720  145.8280 O   0  0  0  0  0  1  0  0  0  0  0  0
  187.6280  177.9140  148.1530 C   0  0  0  0  0  1  0  0  0  0  0  0
  188.1040  177.7530  146.7220 C   0  0  0  0  0  2  0  0  0  0  0  0
  2 10  1  0  0  0  0
  3  8  1  0  0  0  0
  3  7  1  0  0  0  0
  3  1  1  1  0  0  0
  4 35  1  0  0  0  0
  4 10  2  0  0  0  0
  5  2  2  0  0  0  0
  6  5  1  0  0  0  0
  7  6  1  6  0  0  0
  8  9  2  0  0  0  0
  8  5  1  0  0  0  0
  9  4  1  0  0  0  0
 11  3  1  0  0  0  0
 12 16  1  0  0  0  0
 13 20  1  0  0  0  0
 14 12  1  1  0  0  0
 14 23  1  0  0  0  0
 14  7  1  0  0  0  0
 16 21  1  0  0  0  0
 16 19  1  6  0  0  0
 17 24  1  6  0  0  0
 17 20  1  0  0  0  0
 18 23  2  0  0  0  0
 21 15  1  1  0  0  0
 21 17  1  0  0  0  0
 22 19  1  0  0  0  0
 22 13  1  0  0  0  0
 23 15  1  0  0  0  0
 25 32  1  0  0  0  0
 27 34  1  1  0  0  0
 28 33  2  0  0  0  0
 29 24  1  6  0  0  0
 29 31  1  0  0  0  0
 29 27  1  0  0  0  0
 31 27  1  0  0  0  0
 31 26  1  1  0  0  0
 32 30  1  1  0  0  0
 32 26  1  0  0  0  0
 33 25  1  0  0  0  0
 33 29  1  0  0  0  0
 36 35  1  0  0  0  0
 36 37  1  0  0  0  0
 38 41  1  1  0  0  0
 39 38  1  0  0  0  0
 40 37  1  6  0  0  0
 40 39  1  0  0  0  0
 40 38  1  0  0  0  0
 41 42  1  6  0  0  0
 41 43  1  0  0  0  0
 43 46  1  0  0  0  0
 43 44  1  1  0  0  0
 45 47  2  0  0  0  0
 46 45  2  0  0  0  0
 46 50  1  0  0  0  0
 48 53  2  0  0  0  0
 49 50  2  0  0  0  0
 50 48  1  0  0  0  0
 53 54  1  0  0  0  0
 54 51  1  0  0  0  0
 54 52  2  0  0  0  0
 55 47  1  0  0  0  0
 55 60  1  0  0  0  0
 56 60  1  0  0  0  0
 56 59  1  0  0  0  0
 57 58  1  0  0  0  0
 57 64  1  1  0  0  0
 59 62  1  6  0  0  0
 59 58  1  0  0  0  0
 60 61  1  6  0  0  0
 60 57  1  0  0  0  0
 64 63  1  0  0  0  0
M  END
>  <MODEL>
2

>  <REMARK>
 VINA RESULT:      -7.6      1.907      3.447
  Name = 
  15 active torsions:
  status: ('A' for Active; 'I' for Inactive)
    1  A    between atoms: N_1  and  N_48
    2  A    between atoms: C_4  and  O_33
    3  A    between atoms: C_4  and  C_44
    4  A    between atoms: O_7  and  C_30
    5  A    between atoms: O_7  and  C_43
    6  A    between atoms: C_11  and  C_20
    7  A    between atoms: C_11  and  C_35
    8  A    between atoms: C_14  and  C_37
    9  A    between atoms: C_16  and  C_18
   10  A    between atoms: C_16  and  O_33
   11  A    between atoms: C_20  and  C_21
   12  A    between atoms: C_25  and  C_56
   13  A    between atoms: C_35  and  C_36
   14  A    between atoms: C_38  and  C_50
   15  A    between atoms: C_40  and  C_50
                            x       y       z     vdW  Elec       q    Type
                         _______ _______ _______ _____ _____    ______ ____

>  <TORSDO>
F 15

$$$$
=
 OpenBabel11062417483D

 64 71  0  0  1  0  0  0  0  0999 V2000
  187.4220  176.9580  142.1930 C   0  0  0  0  0  1  0  0  0  0  0  0
  191.2780  176.8000  144.8960 C   0  0  0  0  0  3  0  0  0  0  0  0
  188.7390  177.6930  142.3730 C   0  0  2  0  0  0  0  0  0  0  0  0
  189.3320  177.5550  146.1550 C   0  0  0  0  0  0  0  0  0  0  0  0
  190.5680  177.0290  143.7190 C   0  0  0  0  0  0  0  0  0  0  0  0
  191.0760  176.8450  142.3450 C   0  0  0  0  0  2  0  0  0  0  0  0
  189.8310  177.0670  141.4690 C   0  0  2  0  0  3  0  0  0  0  0  0
  189.2800  177.5050  143.7410 C   0  0  0  0  0  0  0  0  0  0  0  0
  188.6420  177.7940  144.9510 C   0  0  0  0  0  3  0  0  0  0  0  0
  190.6480  177.0640  146.1210 C   0  0  0  0  0  3  0  0  0  0  0  0
  188.5680  179.0570  142.1200 O   0  0  0  0  0  1  0  0  0  0  0  0
  191.2440  177.3450  139.4610 O   0  0  0  0  0  0  0  0  0  0  0  0
  191.9230  174.4500  136.1980 C   0  0  0  0  0  2  0  0  0  0  0  0
  190.1380  177.8610  140.1830 C   0  0  1  0  0  3  0  0  0  0  0  0
  188.6050  176.8990  138.3290 C   0  0  0  0  0  2  0  0  0  0  0  0
  190.9040  176.0940  138.9000 C   0  0  2  0  0  3  0  0  0  0  0  0
  189.5150  175.0110  136.9640 C   0  0  1  0  0  3  0  0  0  0  0  0
  188.1800  178.9550  139.4120 O   0  0  0  0  0  0  0  0  0  0  0  0
  192.1990  175.3540  138.5420 C   0  0  0  0  0  2  0  0  0  0  0  0
  190.5810  173.9320  136.7300 C   0  0  0  0  0  2  0  0  0  0  0  0
  189.8840  176.2950  137.7450 C   0  0  1  0  0  3  0  0  0  0  0  0
  192.5780  175.5190  137.0760 C   0  0  0  0  0  2  0  0  0  0  0  0
  188.9260  177.9950  139.2980 C   0  0  0  0  0  0  0  0  0  0  0  0
  188.6130  175.1440  135.8760 O   0  0  0  0  0  0  0  0  0  0  0  0
  187.8200  171.8600  137.1130 C   0  0  0  0  0  2  0  0  0  0  0  0
  187.3680  171.9580  134.7780 O   0  0  0  0  0  0  0  0  0  0  0  0
  186.4800  174.2120  134.8160 C   0  0  1  0  0  3  0  0  0  0  0  0
  187.0860  173.8260  138.1700 O   0  0  0  0  0  0  0  0  0  0  0  0
  187.5840  174.1690  135.8740 C   0  0  1  0  0  0  0  0  0  0  0  0
  188.3090  169.9340  135.6270 C   0  0  0  0  0  1  0  0  0  0  0  0
  187.7020  173.3170  134.5950 C   0  0  1  0  0  3  0  0  0  0  0  0
  188.2700  171.4440  135.7210 C   0  0  2  0  0  3  0  0  0  0  0  0
  187.4740  173.3220  137.1280 C   0  0  0  0  0  0  0  0  0  0  0  0
  185.3630  173.4850  135.2390 O   0  0  0  0  0  1  0  0  0  0  0  0
  188.7110  177.8580  147.4830 C   0  0  0  0  0  2  0  0  0  0  0  0
  187.6260  178.7340  147.3520 O   0  0  0  0  0  0  0  0  0  0  0  0
  186.5370  177.9310  147.0040 C   0  0  0  0  0  2  0  0  0  0  0  0
  185.2820  178.2020  144.9100 C   0  0  2  0  0  3  0  0  0  0  0  0
  184.3870  177.9870  145.9740 O   0  0  0  0  0  0  0  0  0  0  0  0
  185.5230  178.7710  146.2540 C   0  0  1  0  0  3  0  0  0  0  0  0
  184.7020  179.2160  143.9070 C   0  0  1  0  0  3  0  0  0  0  0  0
  185.5170  180.4960  143.6910 C   0  0  0  0  0  1  0  0  0  0  0  0
  184.3120  178.5210  142.6000 C   0  0  2  0  0  3  0  0  0  0  0  0
  185.1820  179.1720  141.1310 S   0  0  0  0  0  1  0  0  0  0  0  0
  182.3800  177.6920  141.4400 C   0  0  0  0  0  0  0  0  0  0  0  0
  182.8250  178.4280  142.4210 C   0  0  0  0  0  0  0  0  0  0  0  0
  181.9550  176.9310  140.4710 C   0  0  0  0  0  3  0  0  0  0  0  0
  180.9240  180.0440  142.9280 N   0  0  0  0  0  2  0  0  0  0  0  0
  181.8970  178.7460  144.5810 O   0  0  0  0  0  0  0  0  0  0  0  0
  181.8720  179.0630  143.3610 C   0  0  0  0  0  0  0  0  0  0  0  0
  178.9350  178.4940  141.5440 N   0  0  0  0  0  1  0  0  0  0  0  0
  179.4860  179.7100  139.6470 O   0  0  0  0  0  0  0  0  0  0  0  0
  180.6550  180.2710  141.5710 N   0  0  0  0  0  2  0  0  0  0  0  0
  179.6780  179.5050  140.8710 C   0  0  0  0  0  0  0  0  0  0  0  0
  182.8270  176.6740  139.2890 C   0  0  0  0  0  2  0  0  0  0  0  0
  182.0200  177.7350  137.2100 C   0  0  0  0  0  2  0  0  0  0  0  0
  182.7020  175.3810  137.1310 C   0  0  1  0  0  3  0  0  0  0  0  0
  183.1760  176.0930  135.8800 C   0  0  0  0  0  2  0  0  0  0  0  0
  182.3510  177.3550  135.7830 C   0  0  2  0  0  3  0  0  0  0  0  0
  182.0180  176.4480  138.0120 C   0  0  1  0  0  0  0  0  0  0  0  0
  180.6960  176.1150  138.3250 O   0  0  0  0  0  1  0  0  0  0  0  0
  183.0950  178.3670  135.1820 O   0  0  0  0  0  1  0  0  0  0  0  0
  182.5320  172.8950  136.9410 C   0  0  0  0  0  1  0  0  0  0  0  0
  181.8050  174.2110  136.7350 C   0  0  0  0  0  2  0  0  0  0  0  0
  2 10  1  0  0  0  0
  3  1  1  6  0  0  0
  3  8  1  0  0  0  0
  4 35  1  0  0  0  0
  5  8  1  0  0  0  0
  5  2  2  0  0  0  0
  6  5  1  0  0  0  0
  7  6  1  1  0  0  0
  7  3  1  0  0  0  0
  8  9  2  0  0  0  0
  9  4  1  0  0  0  0
 10  4  2  0  0  0  0
 11  3  1  0  0  0  0
 12 14  1  0  0  0  0
 13 20  1  0  0  0  0
 13 22  1  0  0  0  0
 14 23  1  6  0  0  0
 14  7  1  0  0  0  0
 15 23  1  0  0  0  0
 16 19  1  6  0  0  0
 16 12  1  0  0  0  0
 17 24  1  6  0  0  0
 17 21  1  0  0  0  0
 20 17  1  0  0  0  0
 21 15  1  1  0  0  0
 21 16  1  0  0  0  0
 22 19  1  0  0  0  0
 23 18  2  0  0  0  0
 25 33  1  0  0  0  0
 26 32  1  0  0  0  0
 27 34  1  1  0  0  0
 27 29  1  0  0  0  0
 29 24  1  1  0  0  0
 29 33  1  0  0  0  0
 31 26  1  1  0  0  0
 31 27  1  0  0  0  0
 31 29  1  0  0  0  0
 32 30  1  1  0  0  0
 32 25  1  0  0  0  0
 33 28  2  0  0  0  0
 36 35  1  0  0  0  0
 37 36  1  0  0  0  0
 38 41  1  6  0  0  0
 38 39  1  0  0  0  0
 38 40  1  0  0  0  0
 39 40  1  0  0  0  0
 40 37  1  1  0  0  0
 41 42  1  6  0  0  0
 43 44  1  6  0  0  0
 43 41  1  0  0  0  0
 45 46  2  0  0  0  0
 46 43  1  0  0  0  0
 46 50  1  0  0  0  0
 47 45  2  0  0  0  0
 48 50  1  0  0  0  0
 50 49  2  0  0  0  0
 52 54  2  0  0  0  0
 53 48  1  0  0  0  0
 54 51  1  0  0  0  0
 54 53  1  0  0  0  0
 55 47  1  0  0  0  0
 56 60  1  0  0  0  0
 57 64  1  6  0  0  0
 57 60  1  0  0  0  0
 58 57  1  0  0  0  0
 59 62  1  1  0  0  0
 59 58  1  0  0  0  0
 59 56  1  0  0  0  0
 60 61  1  1  0  0  0
 60 55  1  0  0  0  0
 64 63  1  0  0  0  0
M  END
>  <MODEL>
3

>  <REMARK>
 VINA RESULT:      -7.0      3.151      8.412
  Name = 
  15 active torsions:
  status: ('A' for Active; 'I' for Inactive)
    1  A    between atoms: N_1  and  N_48
    2  A    between atoms: C_4  and  O_33
    3  A    between atoms: C_4  and  C_44
    4  A    between atoms: O_7  and  C_30
    5  A    between atoms: O_7  and  C_43
    6  A    between atoms: C_11  and  C_20
    7  A    between atoms: C_11  and  C_35
    8  A    between atoms: C_14  and  C_37
    9  A    between atoms: C_16  and  C_18
   10  A    between atoms: C_16  and  O_33
   11  A    between atoms: C_20  and  C_21
   12  A    between atoms: C_25  and  C_56
   13  A    between atoms: C_35  and  C_36
   14  A    between atoms: C_38  and  C_50
   15  A    between atoms: C_40  and  C_50
                            x       y       z     vdW  Elec       q    Type
                         _______ _______ _______ _____ _____    ______ ____

>  <TORSDO>
F 15

$$$$
=
 OpenBabel11062417483D

 64 71  0  0  1  0  0  0  0  0999 V2000
  184.2220  179.3030  140.4420 C   0  0  0  0  0  1  0  0  0  0  0  0
  184.6830  178.7150  145.0960 C   0  0  0  0  0  3  0  0  0  0  0  0
  183.5230  178.6030  141.5940 C   0  0  2  0  0  0  0  0  0  0  0  0
  186.4080  177.5110  143.8650 C   0  0  0  0  0  0  0  0  0  0  0  0
  183.9750  178.8580  143.9030 C   0  0  0  0  0  0  0  0  0  0  0  0
  182.6570  179.5040  143.7430 C   0  0  0  0  0  2  0  0  0  0  0  0
  182.4530  179.5340  142.2200 C   0  0  2  0  0  3  0  0  0  0  0  0
  184.4550  178.3510  142.7210 C   0  0  0  0  0  0  0  0  0  0  0  0
  185.6660  177.6540  142.6770 C   0  0  0  0  0  3  0  0  0  0  0  0
  185.9100  178.0370  145.0690 C   0  0  0  0  0  3  0  0  0  0  0  0
  182.9730  177.3920  141.1610 O   0  0  0  0  0  1  0  0  0  0  0  0
  180.5450  180.0240  140.7290 O   0  0  0  0  0  0  0  0  0  0  0  0
  180.4070  179.7740  136.3230 C   0  0  0  0  0  2  0  0  0  0  0  0
  181.0010  179.2210  141.8040 C   0  0  1  0  0  3  0  0  0  0  0  0
  181.1110  177.2350  140.1450 C   0  0  0  0  0  2  0  0  0  0  0  0
  181.2210  179.6610  139.5430 C   0  0  2  0  0  3  0  0  0  0  0  0
  181.3160  177.7910  137.7140 C   0  0  1  0  0  3  0  0  0  0  0  0
  180.4440  176.9940  142.3980 O   0  0  0  0  0  0  0  0  0  0  0  0
  181.0770  180.8050  138.5320 C   0  0  0  0  0  2  0  0  0  0  0  0
  181.5710  178.8160  136.6020 C   0  0  0  0  0  2  0  0  0  0  0  0
  180.7400  178.2600  139.0720 C   0  0  1  0  0  3  0  0  0  0  0  0
  179.9410  180.5710  137.5450 C   0  0  0  0  0  2  0  0  0  0  0  0
  180.7990  177.7570  141.5140 C   0  0  0  0  0  0  0  0  0  0  0  0
  180.8830  176.5330  137.2210 O   0  0  0  0  0  0  0  0  0  0  0  0
  181.8360  173.9700  134.8810 C   0  0  0  0  0  2  0  0  0  0  0  0
  182.2260  173.2020  137.1010 O   0  0  0  0  0  0  0  0  0  0  0  0
  183.0250  175.3320  137.9370 C   0  0  1  0  0  3  0  0  0  0  0  0
  182.5160  176.2080  134.6600 O   0  0  0  0  0  0  0  0  0  0  0  0
  181.9490  175.6560  136.8980 C   0  0  1  0  0  0  0  0  0  0  0  0
  181.3880  171.6160  135.5250 C   0  0  0  0  0  1  0  0  0  0  0  0
  181.8350  174.3860  137.7640 C   0  0  1  0  0  3  0  0  0  0  0  0
  181.3690  173.0530  136.0020 C   0  0  2  0  0  3  0  0  0  0  0  0
  182.1230  175.3410  135.4250 C   0  0  0  0  0  0  0  0  0  0  0  0
  184.1800  174.8470  137.3160 O   0  0  0  0  0  1  0  0  0  0  0  0
  187.7050  176.7630  143.8890 C   0  0  0  0  0  2  0  0  0  0  0  0
  188.7620  177.5830  144.3030 O   0  0  0  0  0  0  0  0  0  0  0  0
  189.8010  177.3370  143.4040 C   0  0  0  0  0  2  0  0  0  0  0  0
  189.7700  177.3840  140.9480 C   0  0  2  0  0  3  0  0  0  0  0  0
  190.2810  176.1510  141.3920 O   0  0  0  0  0  0  0  0  0  0  0  0
  189.2320  176.7070  142.1490 C   0  0  1  0  0  3  0  0  0  0  0  0
  188.9000  177.1930  139.6920 C   0  0  1  0  0  3  0  0  0  0  0  0
  187.6130  178.0230  139.6270 C   0  0  0  0  0  1  0  0  0  0  0  0
  189.7510  177.2980  138.4240 C   0  0  2  0  0  3  0  0  0  0  0  0
  189.3700  178.7630  137.4000 S   0  0  0  0  0  1  0  0  0  0  0  0
  190.9480  175.5600  137.2780 C   0  0  0  0  0  0  0  0  0  0  0  0
  189.7810  176.0150  137.6450 C   0  0  0  0  0  0  0  0  0  0  0  0
  192.1230  175.1080  136.9430 C   0  0  0  0  0  3  0  0  0  0  0  0
  187.5270  175.7130  136.5020 N   0  0  0  0  0  2  0  0  0  0  0  0
  188.4070  174.1010  137.9120 O   0  0  0  0  0  0  0  0  0  0  0  0
  188.5580  175.2280  137.3670 C   0  0  0  0  0  0  0  0  0  0  0  0
  185.3620  177.5240  135.9460 N   0  0  0  0  0  1  0  0  0  0  0  0
  186.8460  178.6870  134.5940 O   0  0  0  0  0  0  0  0  0  0  0  0
  187.7170  176.8220  135.6660 N   0  0  0  0  0  2  0  0  0  0  0  0
  186.6510  177.7230  135.3750 C   0  0  0  0  0  0  0  0  0  0  0  0
  193.2700  176.0510  136.7980 C   0  0  0  0  0  2  0  0  0  0  0  0
  195.0360  174.8430  138.0300 C   0  0  0  0  0  2  0  0  0  0  0  0
  194.4310  174.0570  135.7880 C   0  0  1  0  0  3  0  0  0  0  0  0
  194.6660  172.8700  136.7010 C   0  0  0  0  0  2  0  0  0  0  0  0
  195.4580  173.3990  137.8730 C   0  0  2  0  0  3  0  0  0  0  0  0
  194.6050  175.3210  136.6580 C   0  0  1  0  0  0  0  0  0  0  0  0
  195.5830  176.1860  136.1540 O   0  0  0  0  0  1  0  0  0  0  0  0
  195.1400  172.6830  139.0250 O   0  0  0  0  0  1  0  0  0  0  0  0
  196.5430  173.0520  134.9090 C   0  0  0  0  0  1  0  0  0  0  0  0
  195.3770  173.9700  134.5940 C   0  0  0  0  0  2  0  0  0  0  0  0
  3  1  1  6  0  0  0
  3  7  1  0  0  0  0
  3  8  1  0  0  0  0
  4 35  1  0  0  0  0
  4 10  2  0  0  0  0
  5  2  2  0  0  0  0
  6  5  1  0  0  0  0
  7  6  1  1  0  0  0
  8  5  1  0  0  0  0
  9  8  2  0  0  0  0
  9  4  1  0  0  0  0
 10  2  1  0  0  0  0
 11  3  1  0  0  0  0
 13 20  1  0  0  0  0
 13 22  1  0  0  0  0
 14 12  1  6  0  0  0
 14  7  1  0  0  0  0
 15 23  1  0  0  0  0
 16 19  1  6  0  0  0
 16 12  1  0  0  0  0
 17 24  1  6  0  0  0
 17 21  1  0  0  0  0
 20 17  1  0  0  0  0
 21 16  1  0  0  0  0
 21 15  1  1  0  0  0
 22 19  1  0  0  0  0
 23 14  1  0  0  0  0
 23 18  2  0  0  0  0
 25 33  1  0  0  0  0
 25 32  1  0  0  0  0
 27 34  1  6  0  0  0
 28 33  2  0  0  0  0
 29 24  1  1  0  0  0
 29 31  1  0  0  0  0
 29 27  1  0  0  0  0
 31 26  1  6  0  0  0
 31 27  1  0  0  0  0
 32 30  1  6  0  0  0
 32 26  1  0  0  0  0
 33 29  1  0  0  0  0
 35 36  1  0  0  0  0
 37 36  1  0  0  0  0
 38 41  1  6  0  0  0
 38 39  1  0  0  0  0
 38 40  1  0  0  0  0
 39 40  1  0  0  0  0
 40 37  1  1  0  0  0
 41 42  1  6  0  0  0
 43 44  1  6  0  0  0
 43 41  1  0  0  0  0
 45 46  2  0  0  0  0
 46 43  1  0  0  0  0
 47 45  2  0  0  0  0
 48 50  1  0  0  0  0
 50 46  1  0  0  0  0
 50 49  2  0  0  0  0
 52 54  2  0  0  0  0
 53 48  1  0  0  0  0
 54 53  1  0  0  0  0
 54 51  1  0  0  0  0
 55 47  1  0  0  0  0
 57 64  1  6  0  0  0
 57 60  1  0  0  0  0
 57 58  1  0  0  0  0
 58 59  1  0  0  0  0
 59 56  1  0  0  0  0
 59 62  1  1  0  0  0
 60 61  1  6  0  0  0
 60 55  1  0  0  0  0
 60 56  1  0  0  0  0
 64 63  1  0  0  0  0
M  END
>  <MODEL>
4

>  <REMARK>
 VINA RESULT:      -6.8      3.228      9.133
  Name = 
  15 active torsions:
  status: ('A' for Active; 'I' for Inactive)
    1  A    between atoms: N_1  and  N_48
    2  A    between atoms: C_4  and  O_33
    3  A    between atoms: C_4  and  C_44
    4  A    between atoms: O_7  and  C_30
    5  A    between atoms: O_7  and  C_43
    6  A    between atoms: C_11  and  C_20
    7  A    between atoms: C_11  and  C_35
    8  A    between atoms: C_14  and  C_37
    9  A    between atoms: C_16  and  C_18
   10  A    between atoms: C_16  and  O_33
   11  A    between atoms: C_20  and  C_21
   12  A    between atoms: C_25  and  C_56
   13  A    between atoms: C_35  and  C_36
   14  A    between atoms: C_38  and  C_50
   15  A    between atoms: C_40  and  C_50
                            x       y       z     vdW  Elec       q    Type
                         _______ _______ _______ _____ _____    ______ ____

>  <TORSDO>
F 15

$$$$
=
 OpenBabel11062417483D

 64 71  0  0  1  0  0  0  0  0999 V2000
  187.1920  177.0530  141.4880 C   0  0  0  0  0  1  0  0  0  0  0  0
  190.1190  176.9150  145.1800 C   0  0  0  0  0  3  0  0  0  0  0  0
  188.4250  177.7670  142.0140 C   0  0  2  0  0  0  0  0  0  0  0  0
  187.9190  177.7530  145.8110 C   0  0  0  0  0  0  0  0  0  0  0  0
  189.7790  177.1160  143.8430 C   0  0  0  0  0  0  0  0  0  0  0  0
  190.6490  176.8720  142.6750 C   0  0  0  0  0  2  0  0  0  0  0  0
  189.7100  177.0880  141.4760 C   0  0  2  0  0  3  0  0  0  0  0  0
  188.5510  177.6170  143.4850 C   0  0  0  0  0  0  0  0  0  0  0  0
  187.6060  177.9630  144.4540 C   0  0  0  0  0  3  0  0  0  0  0  0
  189.1760  177.2350  146.1670 C   0  0  0  0  0  3  0  0  0  0  0  0
  188.3740  179.1250  141.6840 O   0  0  0  0  0  1  0  0  0  0  0  0
  191.2670  177.0020  139.5590 O   0  0  0  0  0  0  0  0  0  0  0  0
  191.0290  174.4260  135.9820 C   0  0  0  0  0  2  0  0  0  0  0  0
  190.3930  177.8280  140.3080 C   0  0  1  0  0  3  0  0  0  0  0  0
  188.7510  177.7360  138.3060 C   0  0  0  0  0  2  0  0  0  0  0  0
  190.5180  176.0460  138.8370 C   0  0  2  0  0  3  0  0  0  0  0  0
  188.9690  175.7950  136.7430 C   0  0  1  0  0  3  0  0  0  0  0  0
  189.0650  179.6710  139.6240 O   0  0  0  0  0  0  0  0  0  0  0  0
  191.4540  174.9030  138.4280 C   0  0  0  0  0  2  0  0  0  0  0  0
  189.5560  174.4180  136.4070 C   0  0  0  0  0  2  0  0  0  0  0  0
  189.7410  176.7470  137.6880 C   0  0  1  0  0  3  0  0  0  0  0  0
  191.9760  175.0590  137.0050 C   0  0  0  0  0  2  0  0  0  0  0  0
  189.3940  178.5140  139.4130 C   0  0  0  0  0  0  0  0  0  0  0  0
  188.2710  176.3810  135.6550 O   0  0  0  0  0  0  0  0  0  0  0  0
  185.7110  174.6170  137.4680 C   0  0  0  0  0  2  0  0  0  0  0  0
  185.3090  174.4140  135.1290 O   0  0  0  0  0  0  0  0  0  0  0  0
  185.9630  176.6850  134.5940 C   0  0  1  0  0  3  0  0  0  0  0  0
  186.3590  176.8120  137.9980 O   0  0  0  0  0  0  0  0  0  0  0  0
  186.8630  176.2420  135.7490 C   0  0  1  0  0  0  0  0  0  0  0  0
  184.8750  172.4970  136.4850 C   0  0  0  0  0  1  0  0  0  0  0  0
  186.3870  175.2190  134.7000 C   0  0  1  0  0  3  0  0  0  0  0  0
  185.7590  173.7040  136.2510 C   0  0  2  0  0  3  0  0  0  0  0  0
  186.3190  175.9500  137.1340 C   0  0  0  0  0  0  0  0  0  0  0  0
  184.6540  176.8900  135.0380 O   0  0  0  0  0  1  0  0  0  0  0  0
  186.9560  178.1150  146.8980 C   0  0  0  0  0  2  0  0  0  0  0  0
  186.1350  179.1850  146.5200 O   0  0  0  0  0  0  0  0  0  0  0  0
  184.8690  178.6320  146.3160 C   0  0  0  0  0  2  0  0  0  0  0  0
  183.7620  178.3450  144.1410 C   0  0  2  0  0  3  0  0  0  0  0  0
  182.8630  178.9160  145.0600 O   0  0  0  0  0  0  0  0  0  0  0  0
  184.2050  179.3340  145.1500 C   0  0  1  0  0  3  0  0  0  0  0  0
  183.5630  178.9440  142.7370 C   0  0  1  0  0  3  0  0  0  0  0  0
  184.8010  179.5670  142.0840 C   0  0  0  0  0  1  0  0  0  0  0  0
  182.8330  177.9530  141.8260 C   0  0  2  0  0  3  0  0  0  0  0  0
  183.7110  177.6060  140.2630 S   0  0  0  0  0  1  0  0  0  0  0  0
  180.5780  177.3580  141.2520 C   0  0  0  0  0  0  0  0  0  0  0  0
  181.3870  178.3090  141.6340 C   0  0  0  0  0  0  0  0  0  0  0  0
  179.7820  176.3910  140.8960 C   0  0  0  0  0  3  0  0  0  0  0  0
  180.8850  180.7190  140.9890 N   0  0  0  0  0  2  0  0  0  0  0  0
  180.3650  179.8820  143.0850 O   0  0  0  0  0  0  0  0  0  0  0  0
  180.8530  179.6550  141.9450 C   0  0  0  0  0  0  0  0  0  0  0  0
  179.6770  182.3410  138.9440 N   0  0  0  0  0  1  0  0  0  0  0  0
  180.8240  181.0380  137.4060 O   0  0  0  0  0  0  0  0  0  0  0  0
  181.1720  180.4960  139.6350 N   0  0  0  0  0  2  0  0  0  0  0  0
  180.5730  181.2870  138.6110 C   0  0  0  0  0  0  0  0  0  0  0  0
  180.3250  175.2120  140.1600 C   0  0  0  0  0  2  0  0  0  0  0  0
  179.1530  176.4790  138.3950 C   0  0  0  0  0  2  0  0  0  0  0  0
  181.0820  175.1040  137.7600 C   0  0  1  0  0  3  0  0  0  0  0  0
  181.1110  176.4130  136.9950 C   0  0  0  0  0  2  0  0  0  0  0  0
  179.7110  176.9740  137.0790 C   0  0  2  0  0  3  0  0  0  0  0  0
  179.8620  175.1750  138.7040 C   0  0  1  0  0  0  0  0  0  0  0  0
  178.9690  174.1180  138.5040 O   0  0  0  0  0  1  0  0  0  0  0  0
  179.7540  178.3660  137.0740 O   0  0  0  0  0  1  0  0  0  0  0  0
  181.4580  174.4170  135.3880 C   0  0  0  0  0  1  0  0  0  0  0  0
  181.0550  173.9420  136.7710 C   0  0  0  0  0  2  0  0  0  0  0  0
  2 10  1  0  0  0  0
  3  1  1  6  0  0  0
  3  8  1  0  0  0  0
  4 10  2  0  0  0  0
  4 35  1  0  0  0  0
  5  2  2  0  0  0  0
  6  5  1  0  0  0  0
  7  3  1  0  0  0  0
  7  6  1  1  0  0  0
  8  5  1  0  0  0  0
  8  9  2  0  0  0  0
  9  4  1  0  0  0  0
 11  3  1  0  0  0  0
 12 14  1  0  0  0  0
 13 20  1  0  0  0  0
 13 22  1  0  0  0  0
 14 23  1  6  0  0  0
 14  7  1  0  0  0  0
 15 23  1  0  0  0  0
 16 19  1  6  0  0  0
 16 12  1  0  0  0  0
 17 24  1  6  0  0  0
 17 21  1  0  0  0  0
 20 17  1  0  0  0  0
 21 15  1  1  0  0  0
 21 16  1  0  0  0  0
 22 19  1  0  0  0  0
 23 18  2  0  0  0  0
 26 32  1  0  0  0  0
 27 31  1  0  0  0  0
 27 34  1  1  0  0  0
 27 29  1  0  0  0  0
 29 24  1  6  0  0  0
 29 33  1  0  0  0  0
 31 26  1  1  0  0  0
 31 29  1  0  0  0  0
 32 30  1  1  0  0  0
 32 25  1  0  0  0  0
 33 25  1  0  0  0  0
 33 28  2  0  0  0  0
 36 35  1  0  0  0  0
 37 36  1  0  0  0  0
 38 41  1  6  0  0  0
 38 39  1  0  0  0  0
 38 40  1  0  0  0  0
 39 40  1  0  0  0  0
 40 37  1  1  0  0  0
 41 42  1  6  0  0  0
 43 44  1  6  0  0  0
 43 41  1  0  0  0  0
 45 46  2  0  0  0  0
 46 43  1  0  0  0  0
 46 50  1  0  0  0  0
 47 45  2  0  0  0  0
 48 50  1  0  0  0  0
 50 49  2  0  0  0  0
 52 54  2  0  0  0  0
 53 48  1  0  0  0  0
 54 51  1  0  0  0  0
 54 53  1  0  0  0  0
 55 47  1  0  0  0  0
 56 60  1  0  0  0  0
 57 64  1  6  0  0  0
 57 60  1  0  0  0  0
 58 59  1  0  0  0  0
 58 57  1  0  0  0  0
 59 62  1  1  0  0  0
 59 56  1  0  0  0  0
 60 61  1  6  0  0  0
 60 55  1  0  0  0  0
 63 64  1  0  0  0  0
M  END
>  <MODEL>
5

>  <REMARK>
 VINA RESULT:      -6.2      3.334      8.548
  Name = 
  15 active torsions:
  status: ('A' for Active; 'I' for Inactive)
    1  A    between atoms: N_1  and  N_48
    2  A    between atoms: C_4  and  O_33
    3  A    between atoms: C_4  and  C_44
    4  A    between atoms: O_7  and  C_30
    5  A    between atoms: O_7  and  C_43
    6  A    between atoms: C_11  and  C_20
    7  A    between atoms: C_11  and  C_35
    8  A    between atoms: C_14  and  C_37
    9  A    between atoms: C_16  and  C_18
   10  A    between atoms: C_16  and  O_33
   11  A    between atoms: C_20  and  C_21
   12  A    between atoms: C_25  and  C_56
   13  A    between atoms: C_35  and  C_36
   14  A    between atoms: C_38  and  C_50
   15  A    between atoms: C_40  and  C_50
                            x       y       z     vdW  Elec       q    Type
                         _______ _______ _______ _____ _____    ______ ____

>  <TORSDO>
F 15

$$$$
=
 OpenBabel11062417483D

 64 71  0  0  1  0  0  0  0  0999 V2000
  188.0920  176.0950  138.0770 C   0  0  0  0  0  1  0  0  0  0  0  0
  191.1620  174.6120  134.8230 C   0  0  0  0  0  3  0  0  0  0  0  0
  188.4280  176.3250  136.6140 C   0  0  2  0  0  0  0  0  0  0  0  0
  192.2440  176.0010  136.5090 C   0  0  0  0  0  0  0  0  0  0  0  0
  189.9280  175.0700  135.2810 C   0  0  0  0  0  0  0  0  0  0  0  0
  188.6060  174.7170  134.7260 C   0  0  0  0  0  2  0  0  0  0  0  0
  187.6180  175.3560  135.7160 C   0  0  2  0  0  3  0  0  0  0  0  0
  189.8370  175.9650  136.3190 C   0  0  0  0  0  0  0  0  0  0  0  0
  190.9850  176.4620  136.9410 C   0  0  0  0  0  3  0  0  0  0  0  0
  192.3260  175.0830  135.4490 C   0  0  0  0  0  3  0  0  0  0  0  0
  188.2060  177.6630  136.2730 O   0  0  0  0  0  1  0  0  0  0  0  0
  185.1840  175.3060  135.2910 O   0  0  0  0  0  0  0  0  0  0  0  0
  181.9070  175.5650  138.2390 C   0  0  0  0  0  2  0  0  0  0  0  0
  186.3960  175.9880  135.0190 C   0  0  1  0  0  3  0  0  0  0  0  0
  185.5580  177.8910  136.5630 C   0  0  0  0  0  2  0  0  0  0  0  0
  184.8210  175.5020  136.6430 C   0  0  2  0  0  3  0  0  0  0  0  0
  183.8320  177.2940  138.2730 C   0  0  1  0  0  3  0  0  0  0  0  0
  186.8000  178.2860  134.5940 O   0  0  0  0  0  0  0  0  0  0  0  0
  183.8120  174.4170  137.0370 C   0  0  0  0  0  2  0  0  0  0  0  0
  183.0310  176.2330  139.0400 C   0  0  0  0  0  2  0  0  0  0  0  0
  184.3700  176.9730  136.8570 C   0  0  1  0  0  3  0  0  0  0  0  0
  182.3700  174.8990  136.9400 C   0  0  0  0  0  2  0  0  0  0  0  0
  186.2720  177.4590  135.3200 C   0  0  0  0  0  0  0  0  0  0  0  0
  183.3740  178.6160  138.5130 O   0  0  0  0  0  0  0  0  0  0  0  0
  180.5140  180.3520  137.1880 C   0  0  0  0  0  2  0  0  0  0  0  0
  180.4770  180.4630  139.5660 O   0  0  0  0  0  0  0  0  0  0  0  0
  181.2700  178.1990  139.9080 C   0  0  1  0  0  3  0  0  0  0  0  0
  181.1330  178.1980  136.4810 O   0  0  0  0  0  0  0  0  0  0  0  0
  181.9660  178.7100  138.6440 C   0  0  1  0  0  0  0  0  0  0  0  0
  179.7820  182.4080  138.3670 C   0  0  0  0  0  1  0  0  0  0  0  0
  181.6310  179.6820  139.7920 C   0  0  1  0  0  3  0  0  0  0  0  0
  180.7250  181.2250  138.4150 C   0  0  2  0  0  3  0  0  0  0  0  0
  181.2040  179.0290  137.3720 C   0  0  0  0  0  0  0  0  0  0  0  0
  179.9140  177.9650  139.6640 O   0  0  0  0  0  1  0  0  0  0  0  0
  193.5120  176.5060  137.1240 C   0  0  0  0  0  2  0  0  0  0  0  0
  193.6470  176.0710  138.4480 O   0  0  0  0  0  0  0  0  0  0  0  0
  193.1180  177.0980  139.2340 C   0  0  0  0  0  2  0  0  0  0  0  0
  191.6320  177.1790  141.1880 C   0  0  2  0  0  3  0  0  0  0  0  0
  190.9940  177.7690  140.0830 O   0  0  0  0  0  0  0  0  0  0  0  0
  191.7970  176.6430  139.8190 C   0  0  1  0  0  3  0  0  0  0  0  0
  190.6240  176.3880  142.0420 C   0  0  1  0  0  3  0  0  0  0  0  0
  191.2020  175.6200  143.2350 C   0  0  0  0  0  1  0  0  0  0  0  0
  189.4240  177.2640  142.4120 C   0  0  2  0  0  3  0  0  0  0  0  0
  188.9500  178.4530  141.1080 S   0  0  0  0  0  1  0  0  0  0  0  0
  188.5870  177.7250  144.6150 C   0  0  0  0  0  0  0  0  0  0  0  0
  189.5670  177.8890  143.7690 C   0  0  0  0  0  0  0  0  0  0  0  0
  187.6100  177.5290  145.4540 C   0  0  0  0  0  3  0  0  0  0  0  0
  191.6690  178.0630  145.1940 N   0  0  0  0  0  2  0  0  0  0  0  0
  191.0910  179.7030  143.6650 O   0  0  0  0  0  0  0  0  0  0  0  0
  190.7990  178.5950  144.1910 C   0  0  0  0  0  0  0  0  0  0  0  0
  191.6790  177.4660  148.0080 N   0  0  0  0  0  1  0  0  0  0  0  0
  191.5140  175.2310  147.4080 O   0  0  0  0  0  0  0  0  0  0  0  0
  191.5630  176.7410  145.6460 N   0  0  0  0  0  2  0  0  0  0  0  0
  191.5750  176.4300  147.0380 C   0  0  0  0  0  0  0  0  0  0  0  0
  186.2360  177.2480  144.9450 C   0  0  0  0  0  2  0  0  0  0  0  0
  186.2190  179.0570  143.2640 C   0  0  0  0  0  2  0  0  0  0  0  0
  184.0710  178.1880  144.0660 C   0  0  1  0  0  3  0  0  0  0  0  0
  183.9950  178.4440  142.5740 C   0  0  0  0  0  2  0  0  0  0  0  0
  185.1390  179.3780  142.2550 C   0  0  2  0  0  3  0  0  0  0  0  0
  185.5160  178.5190  144.4950 C   0  0  1  0  0  0  0  0  0  0  0  0
  185.5660  179.4890  145.5020 O   0  0  0  0  0  1  0  0  0  0  0  0
  185.6060  179.1360  140.9650 O   0  0  0  0  0  1  0  0  0  0  0  0
  181.8320  179.2720  143.8350 C   0  0  0  0  0  1  0  0  0  0  0  0
  182.9930  179.0040  144.7740 C   0  0  0  0  0  2  0  0  0  0  0  0
  2  5  2  0  0  0  0
  2 10  1  0  0  0  0
  3  1  1  1  0  0  0
  4  9  1  0  0  0  0
  4 35  1  0  0  0  0
  5  8  1  0  0  0  0
  6  5  1  0  0  0  0
  7  6  1  6  0  0  0
  7  3  1  0  0  0  0
  8  3  1  0  0  0  0
  8  9  2  0  0  0  0
 10  4  2  0  0  0  0
 11  3  1  0  0  0  0
 12 16  1  0  0  0  0
 13 20  1  0  0  0  0
 14 12  1  1  0  0  0
 14 23  1  0  0  0  0
 14  7  1  0  0  0  0
 16 21  1  0  0  0  0
 16 19  1  6  0  0  0
 17 24  1  6  0  0  0
 17 20  1  0  0  0  0
 18 23  2  0  0  0  0
 21 15  1  1  0  0  0
 21 17  1  0  0  0  0
 22 19  1  0  0  0  0
 22 13  1  0  0  0  0
 23 15  1  0  0  0  0
 25 33  1  0  0  0  0
 25 32  1  0  0  0  0
 27 34  1  6  0  0  0
 28 33  2  0  0  0  0
 29 24  1  6  0  0  0
 29 31  1  0  0  0  0
 29 27  1  0  0  0  0
 31 26  1  6  0  0  0
 31 27  1  0  0  0  0
 32 30  1  6  0  0  0
 32 26  1  0  0  0  0
 33 29  1  0  0  0  0
 35 36  1  0  0  0  0
 36 37  1  0  0  0  0
 38 41  1  1  0  0  0
 39 38  1  0  0  0  0
 40 37  1  6  0  0  0
 40 39  1  0  0  0  0
 40 38  1  0  0  0  0
 41 43  1  0  0  0  0
 41 42  1  1  0  0  0
 43 44  1  6  0  0  0
 43 46  1  0  0  0  0
 45 47  2  0  0  0  0
 46 50  1  0  0  0  0
 46 45  2  0  0  0  0
 48 53  1  0  0  0  0
 49 50  2  0  0  0  0
 50 48  1  0  0  0  0
 53 54  1  0  0  0  0
 54 52  2  0  0  0  0
 54 51  1  0  0  0  0
 55 47  1  0  0  0  0
 56 60  1  0  0  0  0
 57 60  1  0  0  0  0
 57 64  1  1  0  0  0
 58 57  1  0  0  0  0
 59 62  1  6  0  0  0
 59 58  1  0  0  0  0
 59 56  1  0  0  0  0
 60 55  1  0  0  0  0
 60 61  1  1  0  0  0
 63 64  1  0  0  0  0
M  END
>  <MODEL>
6

>  <REMARK>
 VINA RESULT:      -6.1      1.578      2.291
  Name = 
  15 active torsions:
  status: ('A' for Active; 'I' for Inactive)
    1  A    between atoms: N_1  and  N_48
    2  A    between atoms: C_4  and  O_33
    3  A    between atoms: C_4  and  C_44
    4  A    between atoms: O_7  and  C_30
    5  A    between atoms: O_7  and  C_43
    6  A    between atoms: C_11  and  C_20
    7  A    between atoms: C_11  and  C_35
    8  A    between atoms: C_14  and  C_37
    9  A    between atoms: C_16  and  C_18
   10  A    between atoms: C_16  and  O_33
   11  A    between atoms: C_20  and  C_21
   12  A    between atoms: C_25  and  C_56
   13  A    between atoms: C_35  and  C_36
   14  A    between atoms: C_38  and  C_50
   15  A    between atoms: C_40  and  C_50
                            x       y       z     vdW  Elec       q    Type
                         _______ _______ _______ _____ _____    ______ ____

>  <TORSDO>
F 15

$$$$
=
 OpenBabel11062417483D

 64 71  0  0  1  0  0  0  0  0999 V2000
  183.2910  179.3660  140.1020 C   0  0  0  0  0  1  0  0  0  0  0  0
  183.1250  179.0640  144.8020 C   0  0  0  0  0  3  0  0  0  0  0  0
  182.4940  178.6650  141.1880 C   0  0  2  0  0  0  0  0  0  0  0  0
  185.1050  177.9630  143.9020 C   0  0  0  0  0  0  0  0  0  0  0  0
  182.5870  179.0800  143.5160 C   0  0  0  0  0  0  0  0  0  0  0  0
  181.2560  179.5920  143.1340 C   0  0  0  0  0  2  0  0  0  0  0  0
  181.2710  179.5240  141.5980 C   0  0  2  0  0  3  0  0  0  0  0  0
  183.2730  178.5590  142.4470 C   0  0  0  0  0  0  0  0  0  0  0  0
  184.5320  177.9760  142.6160 C   0  0  0  0  0  3  0  0  0  0  0  0
  184.3960  178.5020  144.9890 C   0  0  0  0  0  3  0  0  0  0  0  0
  182.1170  177.3880  140.7620 O   0  0  0  0  0  1  0  0  0  0  0  0
  179.5480  179.7790  139.8460 O   0  0  0  0  0  0  0  0  0  0  0  0
  180.0400  179.3820  135.4760 C   0  0  0  0  0  2  0  0  0  0  0  0
  179.9260  179.0580  141.0060 C   0  0  1  0  0  3  0  0  0  0  0  0
  180.4470  177.0430  139.4650 C   0  0  0  0  0  2  0  0  0  0  0  0
  180.4120  179.4480  138.7770 C   0  0  2  0  0  3  0  0  0  0  0  0
  180.9310  177.5410  137.0620 C   0  0  1  0  0  3  0  0  0  0  0  0
  179.5030  176.8060  141.6160 O   0  0  0  0  0  0  0  0  0  0  0  0
  180.3020  180.5410  137.7080 C   0  0  0  0  0  2  0  0  0  0  0  0
  181.2390  178.5530  135.9490 C   0  0  0  0  0  2  0  0  0  0  0  0
  180.1330  177.9930  138.3080 C   0  0  1  0  0  3  0  0  0  0  0  0
  179.3390  180.1670  136.5880 C   0  0  0  0  0  2  0  0  0  0  0  0
  179.9020  177.5730  140.7550 C   0  0  0  0  0  0  0  0  0  0  0  0
  180.6890  176.2320  136.5690 O   0  0  0  0  0  0  0  0  0  0  0  0
  182.4910  173.7960  134.6290 C   0  0  0  0  0  2  0  0  0  0  0  0
  182.1070  172.9400  136.8170 O   0  0  0  0  0  0  0  0  0  0  0  0
  182.4870  175.0480  137.9510 C   0  0  1  0  0  3  0  0  0  0  0  0
  183.1260  176.0560  134.7360 O   0  0  0  0  0  0  0  0  0  0  0  0
  181.8310  175.3940  136.6120 C   0  0  1  0  0  0  0  0  0  0  0  0
  181.9300  171.4070  134.9950 C   0  0  0  0  0  1  0  0  0  0  0  0
  181.4670  174.0840  137.3390 C   0  0  1  0  0  3  0  0  0  0  0  0
  181.6940  172.8210  135.4820 C   0  0  2  0  0  3  0  0  0  0  0  0
  182.5210  175.1480  135.2850 C   0  0  0  0  0  0  0  0  0  0  0  0
  183.8020  174.6150  137.7590 O   0  0  0  0  0  1  0  0  0  0  0  0
  186.4430  177.3400  144.1530 C   0  0  0  0  0  2  0  0  0  0  0  0
  186.8380  177.4960  145.4880 O   0  0  0  0  0  0  0  0  0  0  0  0
  188.0140  178.2480  145.4450 C   0  0  0  0  0  2  0  0  0  0  0  0
  189.5700  178.1030  143.5500 C   0  0  2  0  0  3  0  0  0  0  0  0
  190.2940  178.1760  144.7540 O   0  0  0  0  0  0  0  0  0  0  0  0
  189.1010  177.4280  144.7810 C   0  0  1  0  0  3  0  0  0  0  0  0
  190.2620  177.1550  142.5540 C   0  0  1  0  0  3  0  0  0  0  0  0
  189.9430  175.6630  142.7040 C   0  0  0  0  0  1  0  0  0  0  0  0
  190.0990  177.6650  141.1200 C   0  0  2  0  0  3  0  0  0  0  0  0
  188.4060  177.4810  140.4600 S   0  0  0  0  0  1  0  0  0  0  0  0
  190.7700  176.5730  139.0890 C   0  0  0  0  0  0  0  0  0  0  0  0
  191.1610  177.1370  140.1990 C   0  0  0  0  0  0  0  0  0  0  0  0
  190.3620  176.0380  137.9730 C   0  0  0  0  0  3  0  0  0  0  0  0
  193.6000  177.0600  139.4740 N   0  0  0  0  0  2  0  0  0  0  0  0
  192.9820  177.6860  141.6160 O   0  0  0  0  0  0  0  0  0  0  0  0
  192.6060  177.3130  140.4720 C   0  0  0  0  0  0  0  0  0  0  0  0
  194.9190  175.0620  137.8790 N   0  0  0  0  0  1  0  0  0  0  0  0
  193.6300  175.8080  136.1000 O   0  0  0  0  0  0  0  0  0  0  0  0
  193.2710  176.8910  138.1220 N   0  0  0  0  0  2  0  0  0  0  0  0
  193.9230  175.9100  137.3180 C   0  0  0  0  0  0  0  0  0  0  0  0
  188.9940  175.4510  137.8860 C   0  0  0  0  0  2  0  0  0  0  0  0
  188.4820  174.4260  135.6990 C   0  0  0  0  0  2  0  0  0  0  0  0
  186.8340  175.9480  136.6890 C   0  0  1  0  0  3  0  0  0  0  0  0
  186.1240  174.7720  136.0460 C   0  0  0  0  0  2  0  0  0  0  0  0
  187.1220  174.1570  135.0940 C   0  0  2  0  0  3  0  0  0  0  0  0
  188.3470  175.6920  136.5230 C   0  0  1  0  0  0  0  0  0  0  0  0
  188.9950  176.7360  135.8540 O   0  0  0  0  0  1  0  0  0  0  0  0
  186.9070  172.7840  135.0000 O   0  0  0  0  0  1  0  0  0  0  0  0
  185.6000  178.0830  137.0880 C   0  0  0  0  0  1  0  0  0  0  0  0
  186.3330  177.2450  136.0590 C   0  0  0  0  0  2  0  0  0  0  0  0
  2 10  1  0  0  0  0
  3  1  1  6  0  0  0
  3  7  1  0  0  0  0
  3  8  1  0  0  0  0
  4 35  1  0  0  0  0
  4 10  2  0  0  0  0
  5  2  2  0  0  0  0
  6  5  1  0  0  0  0
  7  6  1  1  0  0  0
  8  9  2  0  0  0  0
  8  5  1  0  0  0  0
  9  4  1  0  0  0  0
 11  3  1  0  0  0  0
 13 20  1  0  0  0  0
 13 22  1  0  0  0  0
 14 12  1  6  0  0  0
 14  7  1  0  0  0  0
 15 23  1  0  0  0  0
 16 19  1  6  0  0  0
 16 12  1  0  0  0  0
 17 24  1  6  0  0  0
 17 21  1  0  0  0  0
 20 17  1  0  0  0  0
 21 16  1  0  0  0  0
 21 15  1  1  0  0  0
 22 19  1  0  0  0  0
 23 14  1  0  0  0  0
 23 18  2  0  0  0  0
 25 33  1  0  0  0  0
 25 32  1  0  0  0  0
 27 34  1  6  0  0  0
 28 33  2  0  0  0  0
 29 24  1  1  0  0  0
 29 31  1  0  0  0  0
 29 27  1  0  0  0  0
 31 26  1  6  0  0  0
 31 27  1  0  0  0  0
 32 30  1  6  0  0  0
 32 26  1  0  0  0  0
 33 29  1  0  0  0  0
 35 36  1  0  0  0  0
 37 36  1  0  0  0  0
 38 41  1  6  0  0  0
 38 39  1  0  0  0  0
 38 40  1  0  0  0  0
 39 40  1  0  0  0  0
 40 37  1  1  0  0  0
 41 42  1  6  0  0  0
 43 44  1  6  0  0  0
 43 41  1  0  0  0  0
 45 46  2  0  0  0  0
 46 50  1  0  0  0  0
 46 43  1  0  0  0  0
 47 45  2  0  0  0  0
 48 50  1  0  0  0  0
 50 49  2  0  0  0  0
 52 54  2  0  0  0  0
 53 48  1  0  0  0  0
 54 51  1  0  0  0  0
 54 53  1  0  0  0  0
 55 47  1  0  0  0  0
 56 60  1  0  0  0  0
 57 64  1  6  0  0  0
 58 57  1  0  0  0  0
 59 62  1  1  0  0  0
 59 56  1  0  0  0  0
 59 58  1  0  0  0  0
 60 61  1  6  0  0  0
 60 57  1  0  0  0  0
 60 55  1  0  0  0  0
 64 63  1  0  0  0  0
M  END
>  <MODEL>
7

>  <REMARK>
 VINA RESULT:      -6.0      2.441      7.812
  Name = 
  15 active torsions:
  status: ('A' for Active; 'I' for Inactive)
    1  A    between atoms: N_1  and  N_48
    2  A    between atoms: C_4  and  O_33
    3  A    between atoms: C_4  and  C_44
    4  A    between atoms: O_7  and  C_30
    5  A    between atoms: O_7  and  C_43
    6  A    between atoms: C_11  and  C_20
    7  A    between atoms: C_11  and  C_35
    8  A    between atoms: C_14  and  C_37
    9  A    between atoms: C_16  and  C_18
   10  A    between atoms: C_16  and  O_33
   11  A    between atoms: C_20  and  C_21
   12  A    between atoms: C_25  and  C_56
   13  A    between atoms: C_35  and  C_36
   14  A    between atoms: C_38  and  C_50
   15  A    between atoms: C_40  and  C_50
                            x       y       z     vdW  Elec       q    Type
                         _______ _______ _______ _____ _____    ______ ____

>  <TORSDO>
F 15

$$$$
=
 OpenBabel11062417483D

 64 71  0  0  1  0  0  0  0  0999 V2000
  183.1870  179.3350  139.7010 C   0  0  0  0  0  1  0  0  0  0  0  0
  182.2580  179.1360  144.3170 C   0  0  0  0  0  3  0  0  0  0  0  0
  182.3410  178.5350  140.6770 C   0  0  2  0  0  0  0  0  0  0  0  0
  184.5190  178.3710  143.8240 C   0  0  0  0  0  0  0  0  0  0  0  0
  181.9560  179.0230  142.9610 C   0  0  0  0  0  0  0  0  0  0  0  0
  180.6460  179.2870  142.3330 C   0  0  0  0  0  2  0  0  0  0  0  0
  180.9400  179.1800  140.8270 C   0  0  2  0  0  3  0  0  0  0  0  0
  182.8950  178.6000  142.0520 C   0  0  0  0  0  0  0  0  0  0  0  0
  184.1850  178.2500  142.4620 C   0  0  0  0  0  3  0  0  0  0  0  0
  183.5520  178.8090  144.7450 C   0  0  0  0  0  3  0  0  0  0  0  0
  182.2610  177.2020  140.2660 O   0  0  0  0  0  1  0  0  0  0  0  0
  179.4910  179.1170  138.8270 O   0  0  0  0  0  0  0  0  0  0  0  0
  180.7180  178.8580  134.5940 C   0  0  0  0  0  2  0  0  0  0  0  0
  179.8150  178.4720  140.0460 C   0  0  1  0  0  3  0  0  0  0  0  0
  180.9390  176.6050  138.6460 C   0  0  0  0  0  2  0  0  0  0  0  0
  180.5560  178.9650  137.9110 C   0  0  2  0  0  3  0  0  0  0  0  0
  181.6860  177.2070  136.3360 C   0  0  1  0  0  3  0  0  0  0  0  0
  179.7360  176.1750  140.6330 O   0  0  0  0  0  0  0  0  0  0  0  0
  180.4080  180.0260  136.8140 C   0  0  0  0  0  2  0  0  0  0  0  0
  181.9650  178.2680  135.2620 C   0  0  0  0  0  2  0  0  0  0  0  0
  180.6330  177.4880  137.4360 C   0  0  1  0  0  3  0  0  0  0  0  0
  179.7170  179.4850  135.5680 C   0  0  0  0  0  2  0  0  0  0  0  0
  180.1120  177.0110  139.8270 C   0  0  0  0  0  0  0  0  0  0  0  0
  181.7740  175.8800  135.8400 O   0  0  0  0  0  0  0  0  0  0  0  0
  185.0370  176.4430  137.2510 C   0  0  0  0  0  2  0  0  0  0  0  0
  185.2240  176.2070  134.8890 O   0  0  0  0  0  0  0  0  0  0  0  0
  183.5670  174.4480  134.7080 C   0  0  1  0  0  3  0  0  0  0  0  0
  183.5370  174.8540  138.1130 O   0  0  0  0  0  0  0  0  0  0  0  0
  183.0960  175.3660  135.8380 C   0  0  1  0  0  0  0  0  0  0  0  0
  186.6190  177.8350  135.9410 C   0  0  0  0  0  1  0  0  0  0  0  0
  183.8600  175.9490  134.6330 C   0  0  1  0  0  3  0  0  0  0  0  0
  185.2680  177.1520  135.9240 C   0  0  2  0  0  3  0  0  0  0  0  0
  183.8630  175.5110  137.1380 C   0  0  0  0  0  0  0  0  0  0  0  0
  184.6860  173.7110  135.1060 O   0  0  0  0  0  1  0  0  0  0  0  0
  185.8770  177.9980  144.3300 C   0  0  0  0  0  2  0  0  0  0  0  0
  186.7840  177.8180  143.2770 O   0  0  0  0  0  0  0  0  0  0  0  0
  187.0960  179.1030  142.8280 C   0  0  0  0  0  2  0  0  0  0  0  0
  187.8800  177.6300  141.0250 C   0  0  2  0  0  3  0  0  0  0  0  0
  187.1420  178.6950  140.4800 O   0  0  0  0  0  0  0  0  0  0  0  0
  187.9580  178.9970  141.5870 C   0  0  1  0  0  3  0  0  0  0  0  0
  189.0700  177.2690  140.1170 C   0  0  1  0  0  3  0  0  0  0  0  0
  189.6850  178.4210  139.3160 C   0  0  0  0  0  1  0  0  0  0  0  0
  190.1070  176.4470  140.8870 C   0  0  2  0  0  3  0  0  0  0  0  0
  189.4410  175.6310  142.3790 S   0  0  0  0  0  1  0  0  0  0  0  0
  191.5310  177.7460  142.3180 C   0  0  0  0  0  0  0  0  0  0  0  0
  191.3740  177.2120  141.1380 C   0  0  0  0  0  0  0  0  0  0  0  0
  191.6830  178.2500  143.5110 C   0  0  0  0  0  3  0  0  0  0  0  0
  192.5680  176.3680  139.0550 N   0  0  0  0  0  2  0  0  0  0  0  0
  193.3240  178.2130  140.2330 O   0  0  0  0  0  0  0  0  0  0  0  0
  192.4600  177.3000  140.1340 C   0  0  0  0  0  0  0  0  0  0  0  0
  191.4570  176.3390  136.4010 N   0  0  0  0  0  1  0  0  0  0  0  0
  190.0080  174.6940  137.1600 O   0  0  0  0  0  0  0  0  0  0  0  0
  191.5280  175.4880  138.7230 N   0  0  0  0  0  2  0  0  0  0  0  0
  190.9630  175.4700  137.4140 C   0  0  0  0  0  0  0  0  0  0  0  0
  190.4850  178.5700  144.3410 C   0  0  0  0  0  2  0  0  0  0  0  0
  191.3320  176.6110  145.5830 C   0  0  0  0  0  2  0  0  0  0  0  0
  189.5410  177.9480  146.5920 C   0  0  1  0  0  3  0  0  0  0  0  0
  190.5360  177.5370  147.6580 C   0  0  0  0  0  2  0  0  0  0  0  0
  191.3120  176.3780  147.0770 C   0  0  2  0  0  3  0  0  0  0  0  0
  190.0870  177.4090  145.2520 C   0  0  1  0  0  0  0  0  0  0  0  0
  189.1740  176.5710  144.6020 O   0  0  0  0  0  1  0  0  0  0  0  0
  192.6130  176.3770  147.5750 O   0  0  0  0  0  1  0  0  0  0  0  0
  187.9280  177.5740  148.4620 C   0  0  0  0  0  1  0  0  0  0  0  0
  188.1550  177.4320  146.9690 C   0  0  0  0  0  2  0  0  0  0  0  0
  2 10  1  0  0  0  0
  3  1  1  6  0  0  0
  3  7  1  0  0  0  0
  3  8  1  0  0  0  0
  4 35  1  0  0  0  0
  4 10  2  0  0  0  0
  5  2  2  0  0  0  0
  6  5  1  0  0  0  0
  7  6  1  1  0  0  0
  8  9  2  0  0  0  0
  8  5  1  0  0  0  0
  9  4  1  0  0  0  0
 11  3  1  0  0  0  0
 13 20  1  0  0  0  0
 13 22  1  0  0  0  0
 14 12  1  6  0  0  0
 14  7  1  0  0  0  0
 15 23  1  0  0  0  0
 16 19  1  6  0  0  0
 16 12  1  0  0  0  0
 17 24  1  6  0  0  0
 17 21  1  0  0  0  0
 20 17  1  0  0  0  0
 21 16  1  0  0  0  0
 21 15  1  1  0  0  0
 22 19  1  0  0  0  0
 23 14  1  0  0  0  0
 23 18  2  0  0  0  0
 26 32  1  0  0  0  0
 27 34  1  1  0  0  0
 27 29  1  0  0  0  0
 29 24  1  1  0  0  0
 29 33  1  0  0  0  0
 31 27  1  0  0  0  0
 31 26  1  1  0  0  0
 31 29  1  0  0  0  0
 32 30  1  1  0  0  0
 32 25  1  0  0  0  0
 33 25  1  0  0  0  0
 33 28  2  0  0  0  0
 36 35  1  0  0  0  0
 37 36  1  0  0  0  0
 38 41  1  6  0  0  0
 38 40  1  0  0  0  0
 39 38  1  0  0  0  0
 39 40  1  0  0  0  0
 40 37  1  1  0  0  0
 41 42  1  1  0  0  0
 41 43  1  0  0  0  0
 43 46  1  0  0  0  0
 43 44  1  1  0  0  0
 45 47  2  0  0  0  0
 46 45  2  0  0  0  0
 47 55  1  0  0  0  0
 48 50  1  0  0  0  0
 50 49  2  0  0  0  0
 50 46  1  0  0  0  0
 51 54  1  0  0  0  0
 52 54  2  0  0  0  0
 53 48  1  0  0  0  0
 54 53  1  0  0  0  0
 55 60  1  0  0  0  0
 56 59  1  0  0  0  0
 57 64  1  1  0  0  0
 57 58  1  0  0  0  0
 59 62  1  1  0  0  0
 59 58  1  0  0  0  0
 60 61  1  6  0  0  0
 60 56  1  0  0  0  0
 60 57  1  0  0  0  0
 64 63  1  0  0  0  0
M  END
>  <MODEL>
8

>  <REMARK>
 VINA RESULT:      -5.6      2.614      7.415
  Name = 
  15 active torsions:
  status: ('A' for Active; 'I' for Inactive)
    1  A    between atoms: N_1  and  N_48
    2  A    between atoms: C_4  and  O_33
    3  A    between atoms: C_4  and  C_44
    4  A    between atoms: O_7  and  C_30
    5  A    between atoms: O_7  and  C_43
    6  A    between atoms: C_11  and  C_20
    7  A    between atoms: C_11  and  C_35
    8  A    between atoms: C_14  and  C_37
    9  A    between atoms: C_16  and  C_18
   10  A    between atoms: C_16  and  O_33
   11  A    between atoms: C_20  and  C_21
   12  A    between atoms: C_25  and  C_56
   13  A    between atoms: C_35  and  C_36
   14  A    between atoms: C_38  and  C_50
   15  A    between atoms: C_40  and  C_50
                            x       y       z     vdW  Elec       q    Type
                         _______ _______ _______ _____ _____    ______ ____

>  <TORSDO>
F 15

$$$$
=
 OpenBabel11062417483D

 64 71  0  0  1  0  0  0  0  0999 V2000
  184.0760  177.3230  141.3150 C   0  0  0  0  0  1  0  0  0  0  0  0
  179.7350  178.1820  142.9360 C   0  0  0  0  0  3  0  0  0  0  0  0
  183.2440  178.4830  141.8330 C   0  0  2  0  0  0  0  0  0  0  0  0
  179.7210  177.7020  140.5460 C   0  0  0  0  0  0  0  0  0  0  0  0
  181.1150  178.3620  142.8610 C   0  0  0  0  0  0  0  0  0  0  0  0
  182.0060  178.7510  143.9720 C   0  0  0  0  0  2  0  0  0  0  0  0
  183.4140  178.6240  143.3670 C   0  0  2  0  0  3  0  0  0  0  0  0
  181.7920  178.2200  141.6740 C   0  0  0  0  0  0  0  0  0  0  0  0
  181.1130  177.9060  140.4930 C   0  0  0  0  0  3  0  0  0  0  0  0
  179.0380  177.8460  141.7660 C   0  0  0  0  0  3  0  0  0  0  0  0
  183.5830  179.6590  141.1580 O   0  0  0  0  0  1  0  0  0  0  0  0
  184.6130  179.7590  145.2050 O   0  0  0  0  0  0  0  0  0  0  0  0
  187.6020  178.0420  147.9630 C   0  0  0  0  0  2  0  0  0  0  0  0
  184.3610  179.7570  143.8100 C   0  0  1  0  0  3  0  0  0  0  0  0
  186.7770  178.8860  143.4740 C   0  0  0  0  0  2  0  0  0  0  0  0
  185.4000  178.6360  145.5480 C   0  0  2  0  0  3  0  0  0  0  0  0
  187.8440  177.7120  145.4080 C   0  0  1  0  0  3  0  0  0  0  0  0
  185.7460  180.4180  142.0020 O   0  0  0  0  0  0  0  0  0  0  0  0
  185.2690  178.3940  147.0560 C   0  0  0  0  0  2  0  0  0  0  0  0
  187.7340  177.0600  146.7930 C   0  0  0  0  0  2  0  0  0  0  0  0
  186.8420  178.8200  145.0010 C   0  0  1  0  0  3  0  0  0  0  0  0
  186.4190  179.0060  147.8460 C   0  0  0  0  0  2  0  0  0  0  0  0
  185.6460  179.7600  143.0250 C   0  0  0  0  0  0  0  0  0  0  0  0
  189.1850  177.8480  144.9640 O   0  0  0  0  0  0  0  0  0  0  0  0
  192.0070  176.7200  143.0380 C   0  0  0  0  0  2  0  0  0  0  0  0
  190.0850  176.8290  141.6380 O   0  0  0  0  0  0  0  0  0  0  0  0
  188.5410  176.0030  143.3140 C   0  0  1  0  0  3  0  0  0  0  0  0
  191.4450  175.8000  145.1260 O   0  0  0  0  0  0  0  0  0  0  0  0
  189.5870  176.8280  144.0650 C   0  0  1  0  0  0  0  0  0  0  0  0
  192.1700  177.5030  140.6900 C   0  0  0  0  0  1  0  0  0  0  0  0
  189.1680  177.2230  142.6360 C   0  0  1  0  0  3  0  0  0  0  0  0
  191.2960  177.4740  141.9250 C   0  0  2  0  0  3  0  0  0  0  0  0
  191.0430  176.4110  144.1490 C   0  0  0  0  0  0  0  0  0  0  0  0
  189.0950  174.8030  142.8570 O   0  0  0  0  0  1  0  0  0  0  0  0
  178.9330  177.3780  139.3150 C   0  0  0  0  0  2  0  0  0  0  0  0
  179.7610  176.9180  138.2840 O   0  0  0  0  0  0  0  0  0  0  0  0
  179.5280  177.7740  137.2050 C   0  0  0  0  0  2  0  0  0  0  0  0
  181.2400  176.2110  136.3920 C   0  0  2  0  0  3  0  0  0  0  0  0
  180.1920  176.2950  135.4570 O   0  0  0  0  0  0  0  0  0  0  0  0
  180.5430  177.4880  136.1180 C   0  0  1  0  0  3  0  0  0  0  0  0
  182.5980  176.0860  135.6790 C   0  0  1  0  0  3  0  0  0  0  0  0
  182.9570  177.2100  134.7010 C   0  0  0  0  0  1  0  0  0  0  0  0
  183.7110  175.7840  136.6860 C   0  0  2  0  0  3  0  0  0  0  0  0
  183.1010  175.1930  138.3030 S   0  0  0  0  0  1  0  0  0  0  0  0
  185.7590  176.8490  136.0240 C   0  0  0  0  0  0  0  0  0  0  0  0
  184.7060  176.9020  136.7940 C   0  0  0  0  0  0  0  0  0  0  0  0
  186.7900  176.7920  135.2290 C   0  0  0  0  0  3  0  0  0  0  0  0
  185.5740  178.8120  138.2360 N   0  0  0  0  0  2  0  0  0  0  0  0
  183.3080  178.4450  137.9290 O   0  0  0  0  0  0  0  0  0  0  0  0
  184.4860  178.0790  137.6660 C   0  0  0  0  0  0  0  0  0  0  0  0
  187.6960  178.3900  140.1320 N   0  0  0  0  0  1  0  0  0  0  0  0
  189.1370  178.3190  138.3150 O   0  0  0  0  0  0  0  0  0  0  0  0
  186.8960  178.6380  137.8040 N   0  0  0  0  0  2  0  0  0  0  0  0
  187.9580  178.4360  138.7330 C   0  0  0  0  0  0  0  0  0  0  0  0
  187.2600  175.4740  134.7130 C   0  0  0  0  0  2  0  0  0  0  0  0
  186.8900  173.4520  136.0810 C   0  0  0  0  0  2  0  0  0  0  0  0
  189.1720  173.9610  135.3450 C   0  0  1  0  0  3  0  0  0  0  0  0
  188.9230  172.4690  135.2460 C   0  0  0  0  0  2  0  0  0  0  0  0
  187.7230  172.1900  136.1210 C   0  0  2  0  0  3  0  0  0  0  0  0
  187.8480  174.5970  135.8180 C   0  0  1  0  0  0  0  0  0  0  0  0
  188.0010  175.3360  136.9970 O   0  0  0  0  0  1  0  0  0  0  0  0
  186.9940  171.1220  135.6040 O   0  0  0  0  0  1  0  0  0  0  0  0
  191.5590  173.3900  135.8170 C   0  0  0  0  0  1  0  0  0  0  0  0
  190.3650  174.2130  136.2630 C   0  0  0  0  0  2  0  0  0  0  0  0
  3  1  1  6  0  0  0
  3  7  1  0  0  0  0
  4 10  1  0  0  0  0
  5  2  1  0  0  0  0
  5  6  1  0  0  0  0
  7 14  1  0  0  0  0
  7  6  1  1  0  0  0
  8  3  1  0  0  0  0
  8  5  2  0  0  0  0
  9  4  2  0  0  0  0
  9  8  1  0  0  0  0
 10  2  2  0  0  0  0
 11  3  1  0  0  0  0
 12 16  1  0  0  0  0
 14 23  1  6  0  0  0
 14 12  1  0  0  0  0
 16 19  1  1  0  0  0
 17 24  1  1  0  0  0
 17 20  1  0  0  0  0
 18 23  2  0  0  0  0
 19 22  1  0  0  0  0
 20 13  1  0  0  0  0
 21 15  1  6  0  0  0
 21 17  1  0  0  0  0
 21 16  1  0  0  0  0
 22 13  1  0  0  0  0
 23 15  1  0  0  0  0
 25 33  1  0  0  0  0
 26 32  1  0  0  0  0
 27 34  1  6  0  0  0
 27 29  1  0  0  0  0
 29 33  1  0  0  0  0
 29 24  1  1  0  0  0
 31 26  1  6  0  0  0
 31 27  1  0  0  0  0
 31 29  1  0  0  0  0
 32 30  1  6  0  0  0
 32 25  1  0  0  0  0
 33 28  2  0  0  0  0
 35  4  1  0  0  0  0
 36 35  1  0  0  0  0
 37 36  1  0  0  0  0
 38 41  1  6  0  0  0
 39 40  1  0  0  0  0
 39 38  1  0  0  0  0
 40 38  1  0  0  0  0
 40 37  1  1  0  0  0
 41 42  1  1  0  0  0
 41 43  1  0  0  0  0
 43 46  1  0  0  0  0
 43 44  1  1  0  0  0
 45 46  2  0  0  0  0
 46 50  1  0  0  0  0
 47 45  2  0  0  0  0
 50 49  2  0  0  0  0
 50 48  1  0  0  0  0
 52 54  2  0  0  0  0
 53 48  1  0  0  0  0
 53 54  1  0  0  0  0
 54 51  1  0  0  0  0
 55 47  1  0  0  0  0
 55 60  1  0  0  0  0
 56 59  1  0  0  0  0
 57 60  1  0  0  0  0
 57 64  1  1  0  0  0
 58 57  1  0  0  0  0
 58 59  1  0  0  0  0
 59 62  1  6  0  0  0
 60 56  1  0  0  0  0
 60 61  1  1  0  0  0
 63 64  1  0  0  0  0
M  END
>  <MODEL>
9

>  <REMARK>
 VINA RESULT:      -5.6      2.772     11.001
  Name = 
  15 active torsions:
  status: ('A' for Active; 'I' for Inactive)
    1  A    between atoms: N_1  and  N_48
    2  A    between atoms: C_4  and  O_33
    3  A    between atoms: C_4  and  C_44
    4  A    between atoms: O_7  and  C_30
    5  A    between atoms: O_7  and  C_43
    6  A    between atoms: C_11  and  C_20
    7  A    between atoms: C_11  and  C_35
    8  A    between atoms: C_14  and  C_37
    9  A    between atoms: C_16  and  C_18
   10  A    between atoms: C_16  and  O_33
   11  A    between atoms: C_20  and  C_21
   12  A    between atoms: C_25  and  C_56
   13  A    between atoms: C_35  and  C_36
   14  A    between atoms: C_38  and  C_50
   15  A    between atoms: C_40  and  C_50
                            x       y       z     vdW  Elec       q    Type
                         _______ _______ _______ _____ _____    ______ ____

>  <TORSDO>
F 15

$$$$
