=
 OpenBabel11062416343D

 29 32  0  0  1  0  0  0  0  0999 V2000
  185.3630  178.7710  146.3380 C   0  0  0  0  0  3  0  0  0  0  0  0
  184.7360  179.2230  140.2200 C   0  0  0  0  0  1  0  0  0  0  0  0
  180.7330  178.6980  139.6950 C   0  0  0  0  0  2  0  0  0  0  0  0
  182.7350  177.8540  140.8110 C   0  0  0  0  0  2  0  0  0  0  0  0
  183.9130  178.7650  144.4670 C   0  0  0  0  0  0  0  0  0  0  0  0
  181.6770  179.0450  143.1850 C   0  0  0  0  0  0  0  0  0  0  0  0
  184.7070  177.9390  142.2610 O   0  0  0  0  0  0  0  0  0  0  0  0
  186.2030  177.9850  144.2000 C   0  0  0  0  0  0  0  0  0  0  0  0
  179.5000  179.6270  142.1810 C   0  0  0  0  0  1  0  0  0  0  0  0
  184.1500  179.0110  145.7810 N   0  0  0  0  0  0  0  0  0  0  0  0
  186.3990  178.2550  145.5630 C   0  0  0  0  0  3  0  0  0  0  0  0
  180.8270  179.0390  142.0810 N   0  0  0  0  0  0  0  0  0  0  0  0
  183.8910  178.7010  141.3640 C   0  0  1  0  0  3  0  0  0  0  0  0
  184.9340  178.2470  143.6260 C   0  0  0  0  0  0  0  0  0  0  0  0
  182.6080  178.9690  143.9330 C   0  0  0  0  0  0  0  0  0  0  0  0
  181.4050  178.5880  140.8350 C   0  0  0  0  0  0  0  0  0  0  0  0
  188.1550  176.3850  143.9330 C   0  0  0  0  0  2  0  0  0  0  0  0
  189.3120  177.0710  140.4250 C   0  0  0  0  0  1  0  0  0  0  0  0
  187.7680  178.0090  142.1670 C   0  0  2  0  0  3  0  0  0  0  0  0
  189.0620  178.7870  142.3600 C   0  0  0  0  0  2  0  0  0  0  0  0
  187.3070  177.4570  143.4320 N   0  0  0  0  0  0  0  0  0  0  0  0
  189.2880  176.2280  142.9290 C   0  0  1  0  0  3  0  0  0  0  0  0
  189.0960  177.3430  141.8990 C   0  0  2  0  0  0  0  0  0  0  0  0
  190.6480  176.3290  143.6220 C   0  0  1  0  0  3  0  0  0  0  0  0
  191.6190  176.7500  142.7090 O   0  0  0  0  0  1  0  0  0  0  0  0
  190.5830  177.3240  144.7810 C   0  0  0  0  0  2  0  0  0  0  0  0
  189.7960  177.1760  147.1710 C   0  0  0  0  0  1  0  0  0  0  0  0
  192.0920  176.8500  146.5930 O   0  0  0  0  0  1  0  0  0  0  0  0
  190.7840  176.6600  146.1410 C   0  0  2  0  0  3  0  0  0  0  0  0
  3 16  2  0  0  0  0
  4 16  1  0  0  0  0
  4 13  1  0  0  0  0
  5 10  2  0  0  0  0
  6 15  3  0  0  0  0
  7 14  1  0  0  0  0
  8 11  1  0  0  0  0
 10  1  1  0  0  0  0
 11  1  2  0  0  0  0
 12  9  1  0  0  0  0
 12  6  1  0  0  0  0
 13  2  1  6  0  0  0
 13  7  1  0  0  0  0
 14  8  2  0  0  0  0
 14  5  1  0  0  0  0
 15  5  1  0  0  0  0
 16 12  1  0  0  0  0
 19 20  1  1  0  0  0
 19 21  1  0  0  0  0
 21 17  1  0  0  0  0
 21  8  1  0  0  0  0
 22 24  1  1  0  0  0
 22 17  1  0  0  0  0
 23 18  1  6  0  0  0
 23 19  1  0  0  0  0
 23 20  1  0  0  0  0
 23 22  1  0  0  0  0
 24 25  1  6  0  0  0
 24 26  1  0  0  0  0
 26 29  1  0  0  0  0
 29 28  1  0  0  0  0
 29 27  1  1  0  0  0
M  END
>  <MODEL>
1

>  <REMARK>
 VINA RESULT:      -9.4      0.000      0.000
  Name = 
  4 active torsions:
  status: ('A' for Active; 'I' for Inactive)
    1  A    between atoms: C_7  and  C_24
    2  A    between atoms: C_7  and  C_29
    3  A    between atoms: C_13  and  N_21
    4  A    between atoms: C_14  and  C_29
                            x       y       z     vdW  Elec       q    Type
                         _______ _______ _______ _____ _____    ______ ____

>  <TORSDO>
F 4

$$$$
=
 OpenBabel11062416343D

 29 32  0  0  1  0  0  0  0  0999 V2000
  186.0780  178.8980  140.6730 C   0  0  0  0  0  3  0  0  0  0  0  0
  192.0730  177.5320  140.2060 C   0  0  0  0  0  1  0  0  0  0  0  0
  192.3080  175.8040  136.5260 C   0  0  0  0  0  2  0  0  0  0  0  0
  191.0760  175.8700  138.6340 C   0  0  0  0  0  2  0  0  0  0  0  0
  187.8310  178.0000  139.3610 C   0  0  0  0  0  0  0  0  0  0  0  0
  189.0670  177.3040  137.1900 C   0  0  0  0  0  0  0  0  0  0  0  0
  189.7650  176.8750  140.4440 O   0  0  0  0  0  0  0  0  0  0  0  0
  187.9580  177.8400  141.7870 C   0  0  0  0  0  0  0  0  0  0  0  0
  190.1170  176.9770  134.9820 C   0  0  0  0  0  1  0  0  0  0  0  0
  186.6380  178.6380  139.4650 N   0  0  0  0  0  0  0  0  0  0  0  0
  186.7230  178.5030  141.8420 C   0  0  0  0  0  3  0  0  0  0  0  0
  190.1010  176.7740  136.4220 N   0  0  0  0  0  0  0  0  0  0  0  0
  190.8050  177.1180  139.4890 C   0  0  1  0  0  3  0  0  0  0  0  0
  188.5390  177.5810  140.5200 C   0  0  0  0  0  0  0  0  0  0  0  0
  188.3570  177.6880  138.0730 C   0  0  0  0  0  0  0  0  0  0  0  0
  191.2030  176.1880  137.1540 C   0  0  0  0  0  0  0  0  0  0  0  0
  187.8470  176.8810  144.1330 C   0  0  0  0  0  2  0  0  0  0  0  0
  191.4590  176.7890  145.1610 C   0  0  0  0  0  1  0  0  0  0  0  0
  189.9910  177.7100  143.3460 C   0  0  2  0  0  3  0  0  0  0  0  0
  190.1120  178.8540  144.3430 C   0  0  0  0  0  2  0  0  0  0  0  0
  188.5960  177.4540  143.0240 N   0  0  0  0  0  0  0  0  0  0  0  0
  188.8210  176.7700  145.2980 C   0  0  1  0  0  3  0  0  0  0  0  0
  190.1230  177.4150  144.8210 C   0  0  2  0  0  0  0  0  0  0  0  0
  188.2670  177.4690  146.5400 C   0  0  1  0  0  3  0  0  0  0  0  0
  189.3090  178.0530  147.2640 O   0  0  0  0  0  1  0  0  0  0  0  0
  187.2650  178.5510  146.1400 C   0  0  0  0  0  2  0  0  0  0  0  0
  184.7590  178.2950  146.2550 C   0  0  0  0  0  1  0  0  0  0  0  0
  185.9250  179.7980  147.7010 O   0  0  0  0  0  1  0  0  0  0  0  0
  186.0300  178.5740  147.0380 C   0  0  2  0  0  3  0  0  0  0  0  0
  1 11  1  0  0  0  0
  3 16  2  0  0  0  0
  4 13  1  0  0  0  0
  5 10  1  0  0  0  0
  5 14  2  0  0  0  0
  6 15  3  0  0  0  0
  7 14  1  0  0  0  0
  8 11  2  0  0  0  0
  8 21  1  0  0  0  0
  9 12  1  0  0  0  0
 10  1  2  0  0  0  0
 12 16  1  0  0  0  0
 12  6  1  0  0  0  0
 13  2  1  1  0  0  0
 13  7  1  0  0  0  0
 14  8  1  0  0  0  0
 15  5  1  0  0  0  0
 16  4  1  0  0  0  0
 17 22  1  0  0  0  0
 19 20  1  1  0  0  0
 19 23  1  0  0  0  0
 20 23  1  0  0  0  0
 21 19  1  0  0  0  0
 21 17  1  0  0  0  0
 22 24  1  1  0  0  0
 23 18  1  1  0  0  0
 23 22  1  0  0  0  0
 24 25  1  6  0  0  0
 26 24  1  0  0  0  0
 26 29  1  0  0  0  0
 29 27  1  6  0  0  0
 29 28  1  0  0  0  0
M  END
>  <MODEL>
2

>  <REMARK>
 VINA RESULT:      -8.7      3.213      6.765
  Name = 
  4 active torsions:
  status: ('A' for Active; 'I' for Inactive)
    1  A    between atoms: C_7  and  C_24
    2  A    between atoms: C_7  and  C_29
    3  A    between atoms: C_13  and  N_21
    4  A    between atoms: C_14  and  C_29
                            x       y       z     vdW  Elec       q    Type
                         _______ _______ _______ _____ _____    ______ ____

>  <TORSDO>
F 4

$$$$
=
 OpenBabel11062416343D

 29 32  0  0  1  0  0  0  0  0999 V2000
  185.1700  179.3950  141.7370 C   0  0  0  0  0  3  0  0  0  0  0  0
  190.4580  177.8080  138.9900 C   0  0  0  0  0  1  0  0  0  0  0  0
  189.2020  176.4350  135.3690 C   0  0  0  0  0  2  0  0  0  0  0  0
  188.8300  176.3530  137.7810 C   0  0  0  0  0  2  0  0  0  0  0  0
  186.2490  178.5490  139.8080 C   0  0  0  0  0  0  0  0  0  0  0  0
  186.5530  178.0100  137.2900 C   0  0  0  0  0  0  0  0  0  0  0  0
  188.3510  177.2370  140.0150 O   0  0  0  0  0  0  0  0  0  0  0  0
  187.2370  178.1500  141.9970 C   0  0  0  0  0  0  0  0  0  0  0  0
  186.6980  177.8510  134.8320 C   0  0  0  0  0  1  0  0  0  0  0  0
  185.2300  179.2280  140.3930 N   0  0  0  0  0  0  0  0  0  0  0  0
  186.1630  178.8600  142.5530 C   0  0  0  0  0  3  0  0  0  0  0  0
  187.1910  177.5100  136.1580 N   0  0  0  0  0  0  0  0  0  0  0  0
  188.9870  177.5240  138.7640 C   0  0  1  0  0  3  0  0  0  0  0  0
  187.2950  177.9890  140.5900 C   0  0  0  0  0  0  0  0  0  0  0  0
  186.2440  178.3390  138.3990 C   0  0  0  0  0  0  0  0  0  0  0  0
  188.4340  176.8060  136.3860 C   0  0  0  0  0  0  0  0  0  0  0  0
  187.9290  177.1110  144.2060 C   0  0  0  0  0  2  0  0  0  0  0  0
  191.5900  176.4410  143.6950 C   0  0  0  0  0  1  0  0  0  0  0  0
  189.6790  177.6510  142.6090 C   0  0  2  0  0  3  0  0  0  0  0  0
  190.3620  178.7180  143.4530 C   0  0  0  0  0  2  0  0  0  0  0  0
  188.2500  177.6180  142.8800 N   0  0  0  0  0  0  0  0  0  0  0  0
  189.2580  176.8040  144.8820 C   0  0  1  0  0  3  0  0  0  0  0  0
  190.3420  177.2720  143.9110 C   0  0  2  0  0  0  0  0  0  0  0  0
  189.3610  177.5190  146.2300 C   0  0  1  0  0  3  0  0  0  0  0  0
  188.0880  177.8770  146.6800 O   0  0  0  0  0  1  0  0  0  0  0  0
  190.0230  176.6100  147.2660 C   0  0  0  0  0  2  0  0  0  0  0  0
  192.2420  175.4170  147.1710 C   0  0  0  0  0  1  0  0  0  0  0  0
  191.9490  177.4040  148.4670 O   0  0  0  0  0  1  0  0  0  0  0  0
  191.5420  176.7580  147.2980 C   0  0  2  0  0  3  0  0  0  0  0  0
  1 11  1  0  0  0  0
  3 16  2  0  0  0  0
  4 13  1  0  0  0  0
  5 10  1  0  0  0  0
  5 14  2  0  0  0  0
  6 15  3  0  0  0  0
  7 14  1  0  0  0  0
  8 11  2  0  0  0  0
  8 21  1  0  0  0  0
  9 12  1  0  0  0  0
 10  1  2  0  0  0  0
 12 16  1  0  0  0  0
 12  6  1  0  0  0  0
 13  2  1  1  0  0  0
 13  7  1  0  0  0  0
 14  8  1  0  0  0  0
 15  5  1  0  0  0  0
 16  4  1  0  0  0  0
 17 22  1  0  0  0  0
 19 21  1  0  0  0  0
 19 20  1  1  0  0  0
 19 23  1  0  0  0  0
 20 23  1  0  0  0  0
 21 17  1  0  0  0  0
 22 24  1  1  0  0  0
 23 18  1  6  0  0  0
 23 22  1  0  0  0  0
 24 25  1  1  0  0  0
 24 26  1  0  0  0  0
 26 29  1  0  0  0  0
 29 27  1  1  0  0  0
 29 28  1  0  0  0  0
M  END
>  <MODEL>
3

>  <REMARK>
 VINA RESULT:      -8.3      2.944      5.258
  Name = 
  4 active torsions:
  status: ('A' for Active; 'I' for Inactive)
    1  A    between atoms: C_7  and  C_24
    2  A    between atoms: C_7  and  C_29
    3  A    between atoms: C_13  and  N_21
    4  A    between atoms: C_14  and  C_29
                            x       y       z     vdW  Elec       q    Type
                         _______ _______ _______ _____ _____    ______ ____

>  <TORSDO>
F 4

$$$$
=
 OpenBabel11062416343D

 29 32  0  0  1  0  0  0  0  0999 V2000
  186.0010  178.7390  146.9690 C   0  0  0  0  0  3  0  0  0  0  0  0
  185.3170  179.3970  140.8760 C   0  0  0  0  0  1  0  0  0  0  0  0
  181.4100  178.4000  140.3070 C   0  0  0  0  0  2  0  0  0  0  0  0
  183.5040  177.7620  141.3920 C   0  0  0  0  0  2  0  0  0  0  0  0
  184.5620  178.6400  145.0930 C   0  0  0  0  0  0  0  0  0  0  0  0
  182.3070  178.6970  143.8150 C   0  0  0  0  0  0  0  0  0  0  0  0
  185.4510  178.0250  142.8550 O   0  0  0  0  0  0  0  0  0  0  0  0
  186.9320  178.1670  144.8020 C   0  0  0  0  0  0  0  0  0  0  0  0
  180.0730  179.0480  142.8280 C   0  0  0  0  0  1  0  0  0  0  0  0
  184.7680  178.8510  146.4190 N   0  0  0  0  0  0  0  0  0  0  0  0
  187.0930  178.3950  146.1760 C   0  0  0  0  0  3  0  0  0  0  0  0
  181.4640  178.6370  142.7080 N   0  0  0  0  0  0  0  0  0  0  0  0
  184.5450  178.7200  141.9900 C   0  0  1  0  0  3  0  0  0  0  0  0
  185.6390  178.2950  144.2340 C   0  0  0  0  0  0  0  0  0  0  0  0
  183.2410  178.7040  144.5630 C   0  0  0  0  0  0  0  0  0  0  0  0
  182.0920  178.3210  141.4440 C   0  0  0  0  0  0  0  0  0  0  0  0
  188.4530  178.5470  142.8070 C   0  0  0  0  0  2  0  0  0  0  0  0
  191.2040  176.0530  143.3760 C   0  0  0  0  0  1  0  0  0  0  0  0
  188.9320  176.6550  144.2540 C   0  0  2  0  0  3  0  0  0  0  0  0
  188.6560  175.5720  143.2210 C   0  0  0  0  0  2  0  0  0  0  0  0
  188.0920  177.8190  144.0140 N   0  0  0  0  0  0  0  0  0  0  0  0
  189.6130  177.7890  142.1780 C   0  0  1  0  0  3  0  0  0  0  0  0
  189.8100  176.5360  143.0330 C   0  0  2  0  0  0  0  0  0  0  0  0
  189.3080  177.4360  140.7210 C   0  0  1  0  0  3  0  0  0  0  0  0
  188.3680  178.3290  140.2000 O   0  0  0  0  0  1  0  0  0  0  0  0
  190.5820  177.4990  139.8790 C   0  0  0  0  0  2  0  0  0  0  0  0
  192.0240  176.3470  138.1620 C   0  0  0  0  0  1  0  0  0  0  0  0
  189.6460  176.4330  137.9370 O   0  0  0  0  0  1  0  0  0  0  0  0
  190.6810  176.3580  138.8710 C   0  0  2  0  0  3  0  0  0  0  0  0
  3 16  2  0  0  0  0
  4 16  1  0  0  0  0
  4 13  1  0  0  0  0
  5 10  2  0  0  0  0
  6 15  3  0  0  0  0
  7 14  1  0  0  0  0
  8 11  1  0  0  0  0
 10  1  1  0  0  0  0
 11  1  2  0  0  0  0
 12  9  1  0  0  0  0
 12  6  1  0  0  0  0
 13  2  1  6  0  0  0
 13  7  1  0  0  0  0
 14  8  2  0  0  0  0
 14  5  1  0  0  0  0
 15  5  1  0  0  0  0
 16 12  1  0  0  0  0
 17 21  1  0  0  0  0
 19 20  1  6  0  0  0
 21 19  1  0  0  0  0
 21  8  1  0  0  0  0
 22 24  1  6  0  0  0
 22 17  1  0  0  0  0
 22 23  1  0  0  0  0
 23 20  1  0  0  0  0
 23 18  1  1  0  0  0
 23 19  1  0  0  0  0
 24 25  1  6  0  0  0
 26 24  1  0  0  0  0
 28 29  1  0  0  0  0
 29 27  1  6  0  0  0
 29 26  1  0  0  0  0
M  END
>  <MODEL>
4

>  <REMARK>
 VINA RESULT:      -8.2      1.979      3.397
  Name = 
  4 active torsions:
  status: ('A' for Active; 'I' for Inactive)
    1  A    between atoms: C_7  and  C_24
    2  A    between atoms: C_7  and  C_29
    3  A    between atoms: C_13  and  N_21
    4  A    between atoms: C_14  and  C_29
                            x       y       z     vdW  Elec       q    Type
                         _______ _______ _______ _____ _____    ______ ____

>  <TORSDO>
F 4

$$$$
=
 OpenBabel11062416343D

 29 32  0  0  1  0  0  0  0  0999 V2000
  185.6550  178.7650  147.3700 C   0  0  0  0  0  3  0  0  0  0  0  0
  186.1370  179.2380  141.2410 C   0  0  0  0  0  1  0  0  0  0  0  0
  182.2910  178.7310  140.0040 C   0  0  0  0  0  2  0  0  0  0  0  0
  184.0570  177.8760  141.4580 C   0  0  0  0  0  2  0  0  0  0  0  0
  184.5640  178.7710  145.2700 C   0  0  0  0  0  0  0  0  0  0  0  0
  182.5950  179.0630  143.6090 C   0  0  0  0  0  0  0  0  0  0  0  0
  185.7380  177.9480  143.2390 O   0  0  0  0  0  0  0  0  0  0  0  0
  186.8620  177.9820  145.4160 C   0  0  0  0  0  0  0  0  0  0  0  0
  180.6350  179.6580  142.2320 C   0  0  0  0  0  1  0  0  0  0  0  0
  184.5620  179.0110  146.6060 N   0  0  0  0  0  0  0  0  0  0  0  0
  186.8110  178.2470  146.7920 C   0  0  0  0  0  3  0  0  0  0  0  0
  181.9570  179.0650  142.3710 N   0  0  0  0  0  0  0  0  0  0  0  0
  185.0990  178.7170  142.2130 C   0  0  1  0  0  3  0  0  0  0  0  0
  185.7180  178.2510  144.6240 C   0  0  0  0  0  0  0  0  0  0  0  0
  183.3760  178.9820  144.5120 C   0  0  0  0  0  0  0  0  0  0  0  0
  182.7470  178.6150  141.2460 C   0  0  0  0  0  0  0  0  0  0  0  0
  189.3670  178.1170  145.0330 C   0  0  0  0  0  2  0  0  0  0  0  0
  190.1010  174.9110  143.2170 C   0  0  0  0  0  1  0  0  0  0  0  0
  188.1520  176.3040  143.9640 C   0  0  2  0  0  3  0  0  0  0  0  0
  188.4000  176.7510  142.5300 C   0  0  0  0  0  2  0  0  0  0  0  0
  188.0840  177.4520  144.8550 N   0  0  0  0  0  0  0  0  0  0  0  0
  190.3660  177.3620  144.1680 C   0  0  1  0  0  3  0  0  0  0  0  0
  189.5550  176.3110  143.4080 C   0  0  2  0  0  0  0  0  0  0  0  0
  191.0900  178.3140  143.2140 C   0  0  1  0  0  3  0  0  0  0  0  0
  191.8100  179.2640  143.9440 O   0  0  0  0  0  1  0  0  0  0  0  0
  192.0500  177.5380  142.3140 C   0  0  0  0  0  2  0  0  0  0  0  0
  190.8990  176.8710  140.1730 C   0  0  0  0  0  1  0  0  0  0  0  0
  193.0790  177.8490  140.1630 O   0  0  0  0  0  1  0  0  0  0  0  0
  191.8540  177.8490  140.8330 C   0  0  2  0  0  3  0  0  0  0  0  0
  3 16  2  0  0  0  0
  4 13  1  0  0  0  0
  5 10  1  0  0  0  0
  6 15  3  0  0  0  0
  7 14  1  0  0  0  0
  8 11  2  0  0  0  0
  9 12  1  0  0  0  0
 10  1  2  0  0  0  0
 11  1  1  0  0  0  0
 12  6  1  0  0  0  0
 13  2  1  6  0  0  0
 13  7  1  0  0  0  0
 14  5  2  0  0  0  0
 14  8  1  0  0  0  0
 15  5  1  0  0  0  0
 16  4  1  0  0  0  0
 16 12  1  0  0  0  0
 19 20  1  6  0  0  0
 19 21  1  0  0  0  0
 20 23  1  0  0  0  0
 21 17  1  0  0  0  0
 21  8  1  0  0  0  0
 22 24  1  6  0  0  0
 22 17  1  0  0  0  0
 23 18  1  6  0  0  0
 23 19  1  0  0  0  0
 23 22  1  0  0  0  0
 24 25  1  1  0  0  0
 26 24  1  0  0  0  0
 28 29  1  0  0  0  0
 29 27  1  6  0  0  0
 29 26  1  0  0  0  0
M  END
>  <MODEL>
5

>  <REMARK>
 VINA RESULT:      -8.2      1.500      2.700
  Name = 
  4 active torsions:
  status: ('A' for Active; 'I' for Inactive)
    1  A    between atoms: C_7  and  C_24
    2  A    between atoms: C_7  and  C_29
    3  A    between atoms: C_13  and  N_21
    4  A    between atoms: C_14  and  C_29
                            x       y       z     vdW  Elec       q    Type
                         _______ _______ _______ _____ _____    ______ ____

>  <TORSDO>
F 4

$$$$
=
 OpenBabel11062416343D

 29 32  0  0  1  0  0  0  0  0999 V2000
  183.6780  178.8020  142.8470 C   0  0  0  0  0  3  0  0  0  0  0  0
  189.1760  176.0160  143.0440 C   0  0  0  0  0  1  0  0  0  0  0  0
  190.5020  176.9280  146.7840 C   0  0  0  0  0  2  0  0  0  0  0  0
  189.4840  177.8130  144.7480 C   0  0  0  0  0  2  0  0  0  0  0  0
  185.6180  178.2850  144.1010 C   0  0  0  0  0  0  0  0  0  0  0  0
  187.0400  177.8780  146.2300 C   0  0  0  0  0  0  0  0  0  0  0  0
  187.8120  178.0030  142.9670 O   0  0  0  0  0  0  0  0  0  0  0  0
  185.7870  178.5050  141.6830 C   0  0  0  0  0  0  0  0  0  0  0  0
  188.0850  177.3030  148.3900 C   0  0  0  0  0  1  0  0  0  0  0  0
  184.2900  178.5590  144.0330 N   0  0  0  0  0  0  0  0  0  0  0  0
  184.4120  178.7820  141.6640 C   0  0  0  0  0  3  0  0  0  0  0  0
  188.1850  177.5750  146.9640 N   0  0  0  0  0  0  0  0  0  0  0  0
  188.4700  177.0870  143.8500 C   0  0  1  0  0  3  0  0  0  0  0  0
  186.4150  178.2430  142.9260 C   0  0  0  0  0  0  0  0  0  0  0  0
  186.2370  178.0980  145.3710 C   0  0  0  0  0  0  0  0  0  0  0  0
  189.3980  177.3800  146.2020 C   0  0  0  0  0  0  0  0  0  0  0  0
  185.8420  178.2540  139.1580 C   0  0  0  0  0  2  0  0  0  0  0  0
  189.4300  179.0010  138.3310 C   0  0  0  0  0  1  0  0  0  0  0  0
  187.9580  178.5620  140.3150 C   0  0  2  0  0  3  0  0  0  0  0  0
  188.5410  177.1970  139.9760 C   0  0  0  0  0  2  0  0  0  0  0  0
  186.5090  178.4870  140.4320 N   0  0  0  0  0  0  0  0  0  0  0  0
  186.9420  178.1410  138.1120 C   0  0  1  0  0  3  0  0  0  0  0  0
  188.2630  178.2080  138.8800 C   0  0  2  0  0  0  0  0  0  0  0  0
  186.8120  176.8360  137.3240 C   0  0  1  0  0  3  0  0  0  0  0  0
  185.4670  176.4730  137.2200 O   0  0  0  0  0  1  0  0  0  0  0  0
  187.3990  176.9990  135.9230 C   0  0  0  0  0  2  0  0  0  0  0  0
  188.8220  175.1180  136.8140 C   0  0  0  0  0  1  0  0  0  0  0  0
  189.7700  176.8990  135.5320 O   0  0  0  0  0  1  0  0  0  0  0  0
  188.6230  176.1180  135.6880 C   0  0  2  0  0  3  0  0  0  0  0  0
  1 10  1  0  0  0  0
  4 16  1  0  0  0  0
  5 15  1  0  0  0  0
  6 12  1  0  0  0  0
  7 13  1  0  0  0  0
  8 14  2  0  0  0  0
 10  5  2  0  0  0  0
 11  8  1  0  0  0  0
 11  1  2  0  0  0  0
 12  9  1  0  0  0  0
 13  2  1  6  0  0  0
 13  4  1  0  0  0  0
 14  7  1  0  0  0  0
 14  5  1  0  0  0  0
 15  6  3  0  0  0  0
 16  3  2  0  0  0  0
 16 12  1  0  0  0  0
 17 21  1  0  0  0  0
 19 20  1  1  0  0  0
 19 21  1  0  0  0  0
 21  8  1  0  0  0  0
 22 24  1  1  0  0  0
 22 23  1  0  0  0  0
 22 17  1  0  0  0  0
 23 18  1  6  0  0  0
 23 20  1  0  0  0  0
 23 19  1  0  0  0  0
 24 25  1  6  0  0  0
 26 24  1  0  0  0  0
 28 29  1  0  0  0  0
 29 26  1  0  0  0  0
 29 27  1  1  0  0  0
M  END
>  <MODEL>
6

>  <REMARK>
 VINA RESULT:      -8.1      2.938      6.840
  Name = 
  4 active torsions:
  status: ('A' for Active; 'I' for Inactive)
    1  A    between atoms: C_7  and  C_24
    2  A    between atoms: C_7  and  C_29
    3  A    between atoms: C_13  and  N_21
    4  A    between atoms: C_14  and  C_29
                            x       y       z     vdW  Elec       q    Type
                         _______ _______ _______ _____ _____    ______ ____

>  <TORSDO>
F 4

$$$$
=
 OpenBabel11062416343D

 29 32  0  0  1  0  0  0  0  0999 V2000
  185.6050  179.0120  139.7490 C   0  0  0  0  0  3  0  0  0  0  0  0
  191.6220  177.7980  140.3380 C   0  0  0  0  0  1  0  0  0  0  0  0
  192.3710  175.4300  137.1120 C   0  0  0  0  0  2  0  0  0  0  0  0
  190.8640  175.8390  138.9890 C   0  0  0  0  0  2  0  0  0  0  0  0
  187.5290  177.9510  138.8700 C   0  0  0  0  0  0  0  0  0  0  0  0
  189.0550  176.9100  137.0510 C   0  0  0  0  0  0  0  0  0  0  0  0
  189.3090  177.1140  140.3900 O   0  0  0  0  0  0  0  0  0  0  0  0
  187.3270  178.2460  141.2780 C   0  0  0  0  0  0  0  0  0  0  0  0
  190.3990  176.2190  135.1000 C   0  0  0  0  0  1  0  0  0  0  0  0
  186.3260  178.5540  138.6960 N   0  0  0  0  0  0  0  0  0  0  0  0
  186.0890  178.8630  141.0450 C   0  0  0  0  0  3  0  0  0  0  0  0
  190.1890  176.2840  136.5380 N   0  0  0  0  0  0  0  0  0  0  0  0
  190.4660  177.2130  139.5510 C   0  0  1  0  0  3  0  0  0  0  0  0
  188.0770  177.7790  140.1700 C   0  0  0  0  0  0  0  0  0  0  0  0
  188.2270  177.4250  137.7450 C   0  0  0  0  0  0  0  0  0  0  0  0
  191.1870  175.8830  137.5050 C   0  0  0  0  0  0  0  0  0  0  0  0
  189.2080  178.1850  142.9790 C   0  0  0  0  0  2  0  0  0  0  0  0
  187.3660  177.9370  146.2440 C   0  0  0  0  0  1  0  0  0  0  0  0
  186.9470  177.7860  143.7740 C   0  0  2  0  0  3  0  0  0  0  0  0
  187.1660  176.3410  144.2030 C   0  0  0  0  0  2  0  0  0  0  0  0
  187.7950  178.1180  142.6390 N   0  0  0  0  0  0  0  0  0  0  0  0
  189.3110  177.8420  144.4590 C   0  0  1  0  0  3  0  0  0  0  0  0
  187.8970  177.4700  144.9040 C   0  0  2  0  0  0  0  0  0  0  0  0
  190.2950  176.6930  144.6850 C   0  0  1  0  0  3  0  0  0  0  0  0
  190.7420  176.1990  143.4570 O   0  0  0  0  0  1  0  0  0  0  0  0
  191.4960  177.1720  145.5010 C   0  0  0  0  0  2  0  0  0  0  0  0
  192.4080  175.5180  147.1700 C   0  0  0  0  0  1  0  0  0  0  0  0
  190.1630  176.3240  147.3140 O   0  0  0  0  0  1  0  0  0  0  0  0
  191.4610  176.6840  146.9460 C   0  0  2  0  0  3  0  0  0  0  0  0
  1 11  1  0  0  0  0
  3 16  2  0  0  0  0
  4 13  1  0  0  0  0
  5 14  2  0  0  0  0
  6 15  3  0  0  0  0
  8 21  1  0  0  0  0
  9 12  1  0  0  0  0
 10  5  1  0  0  0  0
 10  1  2  0  0  0  0
 11  8  2  0  0  0  0
 12  6  1  0  0  0  0
 12 16  1  0  0  0  0
 13  2  1  1  0  0  0
 13  7  1  0  0  0  0
 14  7  1  0  0  0  0
 14  8  1  0  0  0  0
 15  5  1  0  0  0  0
 16  4  1  0  0  0  0
 17 22  1  0  0  0  0
 19 20  1  6  0  0  0
 19 23  1  0  0  0  0
 20 23  1  0  0  0  0
 21 17  1  0  0  0  0
 21 19  1  0  0  0  0
 22 24  1  6  0  0  0
 22 23  1  0  0  0  0
 23 18  1  1  0  0  0
 24 25  1  6  0  0  0
 24 26  1  0  0  0  0
 26 29  1  0  0  0  0
 29 27  1  6  0  0  0
 29 28  1  0  0  0  0
M  END
>  <MODEL>
7

>  <REMARK>
 VINA RESULT:      -8.0      3.134      6.518
  Name = 
  4 active torsions:
  status: ('A' for Active; 'I' for Inactive)
    1  A    between atoms: C_7  and  C_24
    2  A    between atoms: C_7  and  C_29
    3  A    between atoms: C_13  and  N_21
    4  A    between atoms: C_14  and  C_29
                            x       y       z     vdW  Elec       q    Type
                         _______ _______ _______ _____ _____    ______ ____

>  <TORSDO>
F 4

$$$$
=
 OpenBabel11062416343D

 29 32  0  0  1  0  0  0  0  0999 V2000
  186.2090  178.6400  147.2950 C   0  0  0  0  0  3  0  0  0  0  0  0
  185.8570  179.5400  141.2050 C   0  0  0  0  0  1  0  0  0  0  0  0
  181.9550  178.6970  140.4050 C   0  0  0  0  0  2  0  0  0  0  0  0
  183.9680  177.9500  141.5680 C   0  0  0  0  0  2  0  0  0  0  0  0
  184.8640  178.6570  145.3470 C   0  0  0  0  0  0  0  0  0  0  0  0
  182.6810  178.8370  143.9610 C   0  0  0  0  0  0  0  0  0  0  0  0
  185.8460  178.0940  143.1340 O   0  0  0  0  0  0  0  0  0  0  0  0
  187.2290  178.1140  145.1560 C   0  0  0  0  0  0  0  0  0  0  0  0
  180.5120  179.3000  142.8780 C   0  0  0  0  0  1  0  0  0  0  0  0
  185.0090  178.8130  146.6880 N   0  0  0  0  0  0  0  0  0  0  0  0
  187.3270  178.2870  146.5450 C   0  0  0  0  0  3  0  0  0  0  0  0
  181.8930  178.8460  142.8120 N   0  0  0  0  0  0  0  0  0  0  0  0
  185.0080  178.8500  142.2530 C   0  0  1  0  0  3  0  0  0  0  0  0
  185.9720  178.3060  144.5300 C   0  0  0  0  0  0  0  0  0  0  0  0
  183.5750  178.7850  144.7550 C   0  0  0  0  0  0  0  0  0  0  0  0
  182.5740  178.5550  141.5700 C   0  0  0  0  0  0  0  0  0  0  0  0
  189.0540  178.6760  143.4850 C   0  0  0  0  0  2  0  0  0  0  0  0
  191.2620  175.6390  143.6170 C   0  0  0  0  0  1  0  0  0  0  0  0
  189.0160  176.4300  144.4110 C   0  0  2  0  0  3  0  0  0  0  0  0
  188.7150  175.7080  143.1050 C   0  0  0  0  0  2  0  0  0  0  0  0
  188.4170  177.7550  144.4150 N   0  0  0  0  0  0  0  0  0  0  0  0
  190.1530  177.8890  142.7860 C   0  0  1  0  0  3  0  0  0  0  0  0
  190.0250  176.4500  143.2890 C   0  0  2  0  0  0  0  0  0  0  0  0
  190.0000  177.9710  141.2660 C   0  0  1  0  0  3  0  0  0  0  0  0
  190.9830  177.1960  140.6450 O   0  0  0  0  0  1  0  0  0  0  0  0
  188.6210  177.4680  140.8410 C   0  0  0  0  0  2  0  0  0  0  0  0
  188.5480  176.7720  138.4190 C   0  0  0  0  0  1  0  0  0  0  0  0
  188.9290  179.0450  139.0520 O   0  0  0  0  0  1  0  0  0  0  0  0
  188.2550  177.8780  139.4170 C   0  0  2  0  0  3  0  0  0  0  0  0
  3 16  2  0  0  0  0
  4 16  1  0  0  0  0
  4 13  1  0  0  0  0
  5 10  2  0  0  0  0
  6 15  3  0  0  0  0
  7 14  1  0  0  0  0
  8 11  1  0  0  0  0
 10  1  1  0  0  0  0
 11  1  2  0  0  0  0
 12  9  1  0  0  0  0
 12  6  1  0  0  0  0
 13  2  1  6  0  0  0
 13  7  1  0  0  0  0
 14  8  2  0  0  0  0
 14  5  1  0  0  0  0
 15  5  1  0  0  0  0
 16 12  1  0  0  0  0
 17 21  1  0  0  0  0
 19 20  1  6  0  0  0
 19 21  1  0  0  0  0
 20 23  1  0  0  0  0
 21  8  1  0  0  0  0
 22 24  1  6  0  0  0
 22 23  1  0  0  0  0
 22 17  1  0  0  0  0
 23 18  1  1  0  0  0
 23 19  1  0  0  0  0
 24 25  1  6  0  0  0
 26 24  1  0  0  0  0
 28 29  1  0  0  0  0
 29 27  1  6  0  0  0
 29 26  1  0  0  0  0
M  END
>  <MODEL>
8

>  <REMARK>
 VINA RESULT:      -7.9      1.751      3.305
  Name = 
  4 active torsions:
  status: ('A' for Active; 'I' for Inactive)
    1  A    between atoms: C_7  and  C_24
    2  A    between atoms: C_7  and  C_29
    3  A    between atoms: C_13  and  N_21
    4  A    between atoms: C_14  and  C_29
                            x       y       z     vdW  Elec       q    Type
                         _______ _______ _______ _____ _____    ______ ____

>  <TORSDO>
F 4

$$$$
=
 OpenBabel11062416343D

 29 32  0  0  1  0  0  0  0  0999 V2000
  192.4060  177.4340  140.5610 C   0  0  0  0  0  3  0  0  0  0  0  0
  186.5660  178.6710  142.1080 C   0  0  0  0  0  1  0  0  0  0  0  0
  186.4160  177.5150  146.0100 C   0  0  0  0  0  2  0  0  0  0  0  0
  187.1370  176.8900  143.7610 C   0  0  0  0  0  2  0  0  0  0  0  0
  190.7380  177.4450  142.2400 C   0  0  0  0  0  0  0  0  0  0  0  0
  189.7840  177.5030  144.6500 C   0  0  0  0  0  0  0  0  0  0  0  0
  188.3480  177.1140  141.6430 O   0  0  0  0  0  0  0  0  0  0  0  0
  190.0840  177.1400  139.9150 C   0  0  0  0  0  0  0  0  0  0  0  0
  189.1470  177.8250  147.0120 C   0  0  0  0  0  1  0  0  0  0  0  0
  192.0390  177.5310  141.8630 N   0  0  0  0  0  0  0  0  0  0  0  0
  191.4420  177.2350  139.5760 C   0  0  0  0  0  3  0  0  0  0  0  0
  188.7990  177.5080  145.6360 N   0  0  0  0  0  0  0  0  0  0  0  0
  187.6920  177.8410  142.6890 C   0  0  1  0  0  3  0  0  0  0  0  0
  189.7110  177.2510  141.2780 C   0  0  0  0  0  0  0  0  0  0  0  0
  190.3980  177.4870  143.6230 C   0  0  0  0  0  0  0  0  0  0  0  0
  187.4370  177.3600  145.1750 C   0  0  0  0  0  0  0  0  0  0  0  0
  189.1820  175.8020  137.9570 C   0  0  0  0  0  2  0  0  0  0  0  0
  186.0300  177.6470  137.0760 C   0  0  0  0  0  1  0  0  0  0  0  0
  188.0770  177.8960  138.5060 C   0  0  2  0  0  3  0  0  0  0  0  0
  188.4340  178.6230  137.2170 C   0  0  0  0  0  2  0  0  0  0  0  0
  189.1170  176.9410  138.8610 N   0  0  0  0  0  0  0  0  0  0  0  0
  188.1130  176.0310  136.8980 C   0  0  1  0  0  3  0  0  0  0  0  0
  187.5220  177.4110  137.1880 C   0  0  2  0  0  0  0  0  0  0  0  0
  188.7130  175.9580  135.4930 C   0  0  1  0  0  3  0  0  0  0  0  0
  190.0090  175.4400  135.5540 O   0  0  0  0  0  1  0  0  0  0  0  0
  187.8580  175.0680  134.5940 C   0  0  0  0  0  2  0  0  0  0  0  0
  187.2290  172.7160  135.2520 C   0  0  0  0  0  1  0  0  0  0  0  0
  185.5730  174.4160  134.9680 O   0  0  0  0  0  1  0  0  0  0  0  0
  186.8870  174.1900  135.3810 C   0  0  2  0  0  3  0  0  0  0  0  0
  1 10  1  0  0  0  0
  4 16  1  0  0  0  0
  5 15  1  0  0  0  0
  6 12  1  0  0  0  0
  7 13  1  0  0  0  0
  8 14  2  0  0  0  0
 10  5  2  0  0  0  0
 11  8  1  0  0  0  0
 11  1  2  0  0  0  0
 12  9  1  0  0  0  0
 13  2  1  6  0  0  0
 13  4  1  0  0  0  0
 14  7  1  0  0  0  0
 14  5  1  0  0  0  0
 15  6  3  0  0  0  0
 16 12  1  0  0  0  0
 16  3  2  0  0  0  0
 17 21  1  0  0  0  0
 19 20  1  6  0  0  0
 19 21  1  0  0  0  0
 21  8  1  0  0  0  0
 22 24  1  6  0  0  0
 22 23  1  0  0  0  0
 22 17  1  0  0  0  0
 23 18  1  6  0  0  0
 23 20  1  0  0  0  0
 23 19  1  0  0  0  0
 24 25  1  1  0  0  0
 26 29  1  0  0  0  0
 26 24  1  0  0  0  0
 28 29  1  0  0  0  0
 29 27  1  6  0  0  0
M  END
>  <MODEL>
9

>  <REMARK>
 VINA RESULT:      -7.9      3.915      7.857
  Name = 
  4 active torsions:
  status: ('A' for Active; 'I' for Inactive)
    1  A    between atoms: C_7  and  C_24
    2  A    between atoms: C_7  and  C_29
    3  A    between atoms: C_13  and  N_21
    4  A    between atoms: C_14  and  C_29
                            x       y       z     vdW  Elec       q    Type
                         _______ _______ _______ _____ _____    ______ ____

>  <TORSDO>
F 4

$$$$
