=
 OpenBabel11062413203D

 30 35  0  0  1  0  0  0  0  0999 V2000
  191.3870  176.9680  139.8170 O   0  0  0  0  0  0  0  0  0  0  0  0
  190.0860  176.4110  141.6400 O   0  0  0  0  0  0  0  0  0  0  0  0
  186.1070  178.6140  142.0960 C   0  0  0  0  0  2  0  0  0  0  0  0
  189.8810  177.4690  146.2000 C   0  0  0  0  0  2  0  0  0  0  0  0
  187.5050  178.1100  141.7510 C   0  0  2  0  0  3  0  0  0  0  0  0
  191.5230  176.1950  144.7270 C   0  0  0  0  0  0  0  0  0  0  0  0
  192.2080  175.5710  138.1770 O   0  0  0  0  0  0  0  0  0  0  0  0
  188.4430  178.7670  142.5400 O   0  0  0  0  0  0  0  0  0  0  0  0
  185.7870  178.3460  145.9270 C   0  0  0  0  0  2  0  0  0  0  0  0
  184.5820  179.6360  143.7990 C   0  0  0  0  0  2  0  0  0  0  0  0
  190.6610  177.2920  144.9870 N   0  0  0  0  0  0  0  0  0  0  0  0
  186.5510  178.1450  144.6050 C   0  0  2  0  0  3  0  0  0  0  0  0
  188.4070  177.3130  145.8540 C   0  0  0  0  0  2  0  0  0  0  0  0
  188.0170  178.2690  144.8060 N   0  0  1  0  0  0  0  0  0  0  0  0
  183.7330  178.5250  144.4090 C   0  0  2  0  0  3  0  0  0  0  0  0
  186.0120  179.1500  143.5360 C   0  0  1  0  0  3  0  0  0  0  0  0
  190.7890  176.8470  142.7200 N   0  0  0  0  0  0  0  0  0  0  0  0
  182.4320  178.9610  144.5710 F   0  0  0  0  0  0  0  0  0  0  0  0
  188.7080  177.8600  143.5650 C   0  0  2  0  0  3  0  0  0  0  0  0
  188.9830  177.4690  139.8210 C   0  0  0  0  0  0  0  0  0  0  0  0
  187.8420  178.3350  140.2840 C   0  0  0  0  0  2  0  0  0  0  0  0
  188.8200  176.7760  138.7300 N   0  0  0  0  0  0  0  0  0  0  0  0
  192.1560  175.4270  145.7440 N   0  0  0  0  0  1  0  0  0  0  0  0
  190.2310  177.7940  143.6920 C   0  0  1  0  0  3  0  0  0  0  0  0
  184.2920  178.0580  145.7590 C   0  0  0  0  0  2  0  0  0  0  0  0
  190.2740  177.3610  140.6280 C   0  0  2  0  0  3  0  0  0  0  0  0
  189.8700  175.9850  138.1680 C   0  0  0  0  0  0  0  0  0  0  0  0
  189.6390  175.2200  137.1950 O   0  0  0  0  0  0  0  0  0  0  0  0
  191.2180  176.1350  138.7120 C   0  0  0  0  0  0  0  0  0  0  0  0
  191.6100  175.9290  143.4390 C   0  0  0  0  0  3  0  0  0  0  0  0
  2 17  1  0  0  0  0
  5 21  1  6  0  0  0
  5  3  1  0  0  0  0
  5  8  1  0  0  0  0
  6 11  1  0  0  0  0
  6 23  1  0  0  0  0
  7 29  2  0  0  0  0
 10 15  1  0  0  0  0
 11  4  1  0  0  0  0
 12 14  1  0  0  0  0
 12  9  1  1  0  0  0
 13  4  1  0  0  0  0
 14 13  1  1  0  0  0
 15 18  1  1  0  0  0
 15 25  1  0  0  0  0
 16  3  1  6  0  0  0
 16 10  1  0  0  0  0
 16 12  1  0  0  0  0
 17 30  1  0  0  0  0
 19  8  1  6  0  0  0
 19 24  1  0  0  0  0
 19 14  1  0  0  0  0
 20 21  1  0  0  0  0
 20 26  1  0  0  0  0
 22 20  2  0  0  0  0
 24 17  1  6  0  0  0
 24 11  1  0  0  0  0
 25  9  1  0  0  0  0
 26  1  1  6  0  0  0
 26  2  1  0  0  0  0
 27 29  1  0  0  0  0
 27 22  1  0  0  0  0
 28 27  2  0  0  0  0
 29  1  1  0  0  0  0
 30  6  2  0  0  0  0
M  END
>  <MODEL>
1

>  <REMARK>
 VINA RESULT:      -9.7      0.000      0.000
  Name = 
  0 active torsions:
  status: ('A' for Active; 'I' for Inactive)
                            x       y       z     vdW  Elec       q    Type
                         _______ _______ _______ _____ _____    ______ ____

>  <TORSDO>
F 0

$$$$
=
 OpenBabel11062413203D

 30 35  0  0  1  0  0  0  0  0999 V2000
  190.0740  176.6020  139.7590 O   0  0  0  0  0  0  0  0  0  0  0  0
  188.9920  177.9900  141.2520 O   0  0  0  0  0  0  0  0  0  0  0  0
  189.5160  177.0600  145.6970 C   0  0  0  0  0  2  0  0  0  0  0  0
  184.6860  178.4700  143.0360 C   0  0  0  0  0  2  0  0  0  0  0  0
  189.4430  177.0810  144.1730 C   0  0  2  0  0  3  0  0  0  0  0  0
  185.7180  178.7940  140.7290 C   0  0  0  0  0  0  0  0  0  0  0  0
  191.5740  177.1850  138.1080 O   0  0  0  0  0  0  0  0  0  0  0  0
  188.2530  176.4940  143.7570 O   0  0  0  0  0  0  0  0  0  0  0  0
  186.1970  178.5640  146.9490 C   0  0  0  0  0  2  0  0  0  0  0  0
  188.2860  177.0110  147.8780 C   0  0  0  0  0  2  0  0  0  0  0  0
  185.5520  178.0720  141.9390 N   0  0  0  0  0  0  0  0  0  0  0  0
  187.1730  178.1580  145.8300 C   0  0  2  0  0  3  0  0  0  0  0  0
  185.5560  178.8620  144.2220 C   0  0  0  0  0  2  0  0  0  0  0  0
  186.4460  177.7530  144.6000 N   0  0  1  0  0  0  0  0  0  0  0  0
  188.2670  178.4260  148.4480 C   0  0  2  0  0  3  0  0  0  0  0  0
  188.1240  177.0330  146.3530 C   0  0  1  0  0  3  0  0  0  0  0  0
  187.6670  177.7520  141.0560 N   0  0  0  0  0  0  0  0  0  0  0  0
  188.4870  178.3880  149.8120 F   0  0  0  0  0  0  0  0  0  0  0  0
  187.4190  177.5800  143.5020 C   0  0  2  0  0  3  0  0  0  0  0  0
  190.8140  176.7210  142.0970 C   0  0  0  0  0  0  0  0  0  0  0  0
  190.6120  176.3400  143.5390 C   0  0  0  0  0  2  0  0  0  0  0  0
  192.0130  177.0620  141.7170 N   0  0  0  0  0  0  0  0  0  0  0  0
  184.7310  179.6620  140.1840 N   0  0  0  0  0  1  0  0  0  0  0  0
  186.7770  177.3140  142.1380 C   0  0  1  0  0  3  0  0  0  0  0  0
  186.9400  179.1380  148.1590 C   0  0  0  0  0  2  0  0  0  0  0  0
  189.6460  176.7580  141.1160 C   0  0  2  0  0  3  0  0  0  0  0  0
  192.3220  177.3640  140.3550 C   0  0  0  0  0  0  0  0  0  0  0  0
  193.4530  177.8230  140.0460 O   0  0  0  0  0  0  0  0  0  0  0  0
  191.3180  177.0690  139.3350 C   0  0  0  0  0  0  0  0  0  0  0  0
  186.9170  178.6210  140.2100 C   0  0  0  0  0  3  0  0  0  0  0  0
  4 13  1  0  0  0  0
  5 21  1  6  0  0  0
  5  3  1  0  0  0  0
  6 11  1  0  0  0  0
  7 29  2  0  0  0  0
  8  5  1  0  0  0  0
  9 25  1  0  0  0  0
 10 15  1  0  0  0  0
 11 24  1  0  0  0  0
 11  4  1  0  0  0  0
 12 16  1  0  0  0  0
 12  9  1  1  0  0  0
 14 13  1  6  0  0  0
 14 12  1  0  0  0  0
 15 18  1  1  0  0  0
 16  3  1  6  0  0  0
 16 10  1  0  0  0  0
 17  2  1  0  0  0  0
 19  8  1  1  0  0  0
 19 14  1  0  0  0  0
 20 21  1  0  0  0  0
 22 20  2  0  0  0  0
 23  6  1  0  0  0  0
 24 17  1  6  0  0  0
 24 19  1  0  0  0  0
 25 15  1  0  0  0  0
 26  1  1  6  0  0  0
 26  2  1  0  0  0  0
 26 20  1  0  0  0  0
 27 22  1  0  0  0  0
 28 27  2  0  0  0  0
 29  1  1  0  0  0  0
 29 27  1  0  0  0  0
 30  6  2  0  0  0  0
 30 17  1  0  0  0  0
M  END
>  <MODEL>
2

>  <REMARK>
 VINA RESULT:      -9.4      2.464      4.620
  Name = 
  0 active torsions:
  status: ('A' for Active; 'I' for Inactive)
                            x       y       z     vdW  Elec       q    Type
                         _______ _______ _______ _____ _____    ______ ____

>  <TORSDO>
F 0

$$$$
=
 OpenBabel11062413203D

 30 35  0  0  1  0  0  0  0  0999 V2000
  189.9200  178.1240  144.6930 O   0  0  0  0  0  0  0  0  0  0  0  0
  188.4850  177.3450  143.0610 O   0  0  0  0  0  0  0  0  0  0  0  0
  190.0900  177.2150  138.7830 C   0  0  0  0  0  2  0  0  0  0  0  0
  184.9600  179.0180  140.4670 C   0  0  0  0  0  2  0  0  0  0  0  0
  189.7920  177.4500  140.2610 C   0  0  2  0  0  3  0  0  0  0  0  0
  185.2820  178.5150  142.9430 C   0  0  0  0  0  0  0  0  0  0  0  0
  190.5780  177.0620  146.6310 O   0  0  0  0  0  0  0  0  0  0  0  0
  189.0830  178.6370  140.4090 O   0  0  0  0  0  0  0  0  0  0  0  0
  186.7250  177.5800  136.9420 C   0  0  0  0  0  2  0  0  0  0  0  0
  189.4350  177.6150  136.3990 C   0  0  0  0  0  2  0  0  0  0  0  0
  185.7270  179.0350  141.7000 N   0  0  0  0  0  0  0  0  0  0  0  0
  187.5830  177.5480  138.2200 C   0  0  2  0  0  3  0  0  0  0  0  0
  185.6300  178.0580  139.4940 C   0  0  0  0  0  2  0  0  0  0  0  0
  187.0300  178.4470  139.2640 N   0  0  1  0  0  0  0  0  0  0  0  0
  188.7180  176.3700  135.8860 C   0  0  2  0  0  3  0  0  0  0  0  0
  189.0640  177.8970  137.8600 C   0  0  1  0  0  3  0  0  0  0  0  0
  187.5040  178.2840  142.9790 N   0  0  0  0  0  0  0  0  0  0  0  0
  189.1220  176.0930  134.5940 F   0  0  0  0  0  0  0  0  0  0  0  0
  187.7590  178.2200  140.5290 C   0  0  2  0  0  3  0  0  0  0  0  0
  190.8060  177.3000  142.5570 C   0  0  0  0  0  0  0  0  0  0  0  0
  191.0670  177.5240  141.0910 C   0  0  0  0  0  2  0  0  0  0  0  0
  191.5410  176.4240  143.1810 N   0  0  0  0  0  0  0  0  0  0  0  0
  183.9110  178.4010  143.3080 N   0  0  0  0  0  1  0  0  0  0  0  0
  187.1800  178.9770  141.7260 C   0  0  1  0  0  3  0  0  0  0  0  0
  187.1940  176.5340  135.9260 C   0  0  0  0  0  2  0  0  0  0  0  0
  189.6840  178.0360  143.2840 C   0  0  2  0  0  3  0  0  0  0  0  0
  191.4240  176.1970  144.5870 C   0  0  0  0  0  0  0  0  0  0  0  0
  192.0480  175.2490  145.1330 O   0  0  0  0  0  0  0  0  0  0  0  0
  190.6150  177.1250  145.3740 C   0  0  0  0  0  0  0  0  0  0  0  0
  186.2820  178.0850  143.6860 C   0  0  0  0  0  3  0  0  0  0  0  0
  1 29  1  0  0  0  0
  2 26  1  0  0  0  0
  4 11  1  0  0  0  0
  5  3  1  6  0  0  0
  5  8  1  0  0  0  0
  5 21  1  0  0  0  0
  6 23  1  0  0  0  0
  6 30  2  0  0  0  0
 11  6  1  0  0  0  0
 12  9  1  6  0  0  0
 12 14  1  0  0  0  0
 13  4  1  0  0  0  0
 14 13  1  1  0  0  0
 14 19  1  0  0  0  0
 15 18  1  6  0  0  0
 15 25  1  0  0  0  0
 15 10  1  0  0  0  0
 16 10  1  6  0  0  0
 16 12  1  0  0  0  0
 16  3  1  0  0  0  0
 17  2  1  0  0  0  0
 17 30  1  0  0  0  0
 19  8  1  6  0  0  0
 19 24  1  0  0  0  0
 20 22  2  0  0  0  0
 21 20  1  0  0  0  0
 22 27  1  0  0  0  0
 24 11  1  6  0  0  0
 24 17  1  0  0  0  0
 25  9  1  0  0  0  0
 26 20  1  6  0  0  0
 26  1  1  0  0  0  0
 27 28  2  0  0  0  0
 27 29  1  0  0  0  0
 29  7  2  0  0  0  0
M  END
>  <MODEL>
3

>  <REMARK>
 VINA RESULT:      -9.0      3.269      6.728
  Name = 
  0 active torsions:
  status: ('A' for Active; 'I' for Inactive)
                            x       y       z     vdW  Elec       q    Type
                         _______ _______ _______ _____ _____    ______ ____

>  <TORSDO>
F 0

$$$$
=
 OpenBabel11062413203D

 30 35  0  0  1  0  0  0  0  0999 V2000
  192.6630  177.1830  139.7560 O   0  0  0  0  0  0  0  0  0  0  0  0
  190.9040  176.6120  141.1370 O   0  0  0  0  0  0  0  0  0  0  0  0
  186.8170  178.3930  140.1290 C   0  0  0  0  0  2  0  0  0  0  0  0
  189.1850  177.9500  145.2860 C   0  0  0  0  0  2  0  0  0  0  0  0
  188.2890  178.0230  140.2820 C   0  0  2  0  0  3  0  0  0  0  0  0
  191.3070  176.7650  144.5210 C   0  0  0  0  0  0  0  0  0  0  0  0
  194.0720  175.7750  138.5950 O   0  0  0  0  0  0  0  0  0  0  0  0
  188.8730  178.8300  141.2510 O   0  0  0  0  0  0  0  0  0  0  0  0
  185.3290  178.3540  143.6830 C   0  0  0  0  0  2  0  0  0  0  0  0
  184.7540  179.3570  141.1720 C   0  0  0  0  0  2  0  0  0  0  0  0
  190.3200  177.7770  144.3950 N   0  0  0  0  0  0  0  0  0  0  0  0
  186.4840  178.1480  142.6870 C   0  0  2  0  0  3  0  0  0  0  0  0
  187.9140  177.6110  144.5210 C   0  0  0  0  0  2  0  0  0  0  0  0
  187.7970  178.4440  143.3140 N   0  0  1  0  0  0  0  0  0  0  0  0
  183.8510  178.2040  141.5980 C   0  0  2  0  0  3  0  0  0  0  0  0
  186.2300  179.0130  141.4100 C   0  0  1  0  0  3  0  0  0  0  0  0
  191.1930  177.1950  142.3320 N   0  0  0  0  0  0  0  0  0  0  0  0
  182.5340  178.5050  141.3080 F   0  0  0  0  0  0  0  0  0  0  0  0
  188.8750  178.0300  142.3920 C   0  0  2  0  0  3  0  0  0  0  0  0
  190.3480  177.4170  138.9720 C   0  0  0  0  0  0  0  0  0  0  0  0
  189.0520  178.1830  138.9740 C   0  0  0  0  0  2  0  0  0  0  0  0
  190.5950  176.6380  137.9580 N   0  0  0  0  0  0  0  0  0  0  0  0
  191.6480  176.1420  145.7550 N   0  0  0  0  0  1  0  0  0  0  0  0
  190.2800  178.1400  142.9880 C   0  0  1  0  0  3  0  0  0  0  0  0
  183.9920  177.8930  143.0930 C   0  0  0  0  0  2  0  0  0  0  0  0
  191.3230  177.5060  140.1430 C   0  0  2  0  0  3  0  0  0  0  0  0
  191.8300  175.9300  137.8270 C   0  0  0  0  0  0  0  0  0  0  0  0
  191.9820  175.0800  136.9100 O   0  0  0  0  0  0  0  0  0  0  0  0
  192.9210  176.2630  138.7410 C   0  0  0  0  0  0  0  0  0  0  0  0
  191.8170  176.4240  143.3560 C   0  0  0  0  0  3  0  0  0  0  0  0
  1 26  1  0  0  0  0
  2 17  1  0  0  0  0
  3  5  1  0  0  0  0
  5 21  1  6  0  0  0
  5  8  1  0  0  0  0
  6 23  1  0  0  0  0
  7 29  2  0  0  0  0
 10 16  1  0  0  0  0
 10 15  1  0  0  0  0
 11  6  1  0  0  0  0
 11  4  1  0  0  0  0
 12 14  1  0  0  0  0
 12  9  1  1  0  0  0
 13  4  1  0  0  0  0
 14 13  1  1  0  0  0
 15 18  1  1  0  0  0
 15 25  1  0  0  0  0
 16  3  1  6  0  0  0
 16 12  1  0  0  0  0
 17 30  1  0  0  0  0
 19  8  1  6  0  0  0
 19 24  1  0  0  0  0
 19 14  1  0  0  0  0
 20 21  1  0  0  0  0
 22 20  2  0  0  0  0
 24 17  1  6  0  0  0
 24 11  1  0  0  0  0
 25  9  1  0  0  0  0
 26 20  1  6  0  0  0
 26  2  1  0  0  0  0
 27 22  1  0  0  0  0
 27 29  1  0  0  0  0
 28 27  2  0  0  0  0
 29  1  1  0  0  0  0
 30  6  2  0  0  0  0
M  END
>  <MODEL>
4

>  <REMARK>
 VINA RESULT:      -8.7      1.463      1.789
  Name = 
  0 active torsions:
  status: ('A' for Active; 'I' for Inactive)
                            x       y       z     vdW  Elec       q    Type
                         _______ _______ _______ _____ _____    ______ ____

>  <TORSDO>
F 0

$$$$
=
 OpenBabel11062413203D

 30 35  0  0  1  0  0  0  0  0999 V2000
  186.0090  178.0880  136.4690 O   0  0  0  0  0  0  0  0  0  0  0  0
  186.6450  177.1240  138.4680 O   0  0  0  0  0  0  0  0  0  0  0  0
  184.6520  178.7160  142.2610 C   0  0  0  0  0  2  0  0  0  0  0  0
  190.1680  177.5150  141.5320 C   0  0  0  0  0  2  0  0  0  0  0  0
  185.2140  178.4470  140.8680 C   0  0  2  0  0  3  0  0  0  0  0  0
  189.9600  176.6750  139.1360 C   0  0  0  0  0  0  0  0  0  0  0  0
  185.1660  177.0440  134.5940 O   0  0  0  0  0  0  0  0  0  0  0  0
  186.4310  179.1050  140.7240 O   0  0  0  0  0  0  0  0  0  0  0  0
  187.4860  177.8880  144.7370 C   0  0  0  0  0  2  0  0  0  0  0  0
  185.1060  179.2920  144.6550 C   0  0  0  0  0  2  0  0  0  0  0  0
  189.6760  177.6060  140.1680 N   0  0  0  0  0  0  0  0  0  0  0  0
  186.8970  177.9700  143.3170 C   0  0  2  0  0  3  0  0  0  0  0  0
  188.9920  177.2190  142.4520 C   0  0  0  0  0  2  0  0  0  0  0  0
  187.9530  178.2520  142.3110 N   0  0  1  0  0  0  0  0  0  0  0  0
  185.0380  178.0080  145.4770 C   0  0  2  0  0  3  0  0  0  0  0  0
  185.7530  179.0340  143.2890 C   0  0  1  0  0  3  0  0  0  0  0  0
  187.9430  177.4950  138.6390 N   0  0  0  0  0  0  0  0  0  0  0  0
  184.3880  178.2480  146.6720 F   0  0  0  0  0  0  0  0  0  0  0  0
  187.3770  178.1080  140.9580 C   0  0  2  0  0  3  0  0  0  0  0  0
  184.5650  178.2700  138.4460 C   0  0  0  0  0  0  0  0  0  0  0  0
  184.2630  178.9120  139.7740 C   0  0  0  0  0  2  0  0  0  0  0  0
  183.5790  177.7180  137.7970 N   0  0  0  0  0  0  0  0  0  0  0  0
  191.1290  175.8620  139.1030 N   0  0  0  0  0  1  0  0  0  0  0  0
  188.4030  178.2210  139.8280 C   0  0  1  0  0  3  0  0  0  0  0  0
  186.4340  177.4360  145.7550 C   0  0  0  0  0  2  0  0  0  0  0  0
  185.9870  178.2200  137.8940 C   0  0  2  0  0  3  0  0  0  0  0  0
  183.7480  177.1520  136.4950 C   0  0  0  0  0  0  0  0  0  0  0  0
  182.8130  176.5040  135.9570 O   0  0  0  0  0  0  0  0  0  0  0  0
  185.0050  177.3980  135.7910 C   0  0  0  0  0  0  0  0  0  0  0  0
  188.9840  176.6010  138.2540 C   0  0  0  0  0  3  0  0  0  0  0  0
  2 17  1  0  0  0  0
  4 13  1  0  0  0  0
  5 21  1  6  0  0  0
  5  3  1  0  0  0  0
  6 11  1  0  0  0  0
  7 29  2  0  0  0  0
  8  5  1  0  0  0  0
  9 25  1  0  0  0  0
 10 15  1  0  0  0  0
 11  4  1  0  0  0  0
 12  9  1  1  0  0  0
 14 13  1  6  0  0  0
 14 12  1  0  0  0  0
 15 25  1  0  0  0  0
 15 18  1  1  0  0  0
 16  3  1  6  0  0  0
 16 12  1  0  0  0  0
 16 10  1  0  0  0  0
 19  8  1  6  0  0  0
 19 14  1  0  0  0  0
 20 21  1  0  0  0  0
 22 20  2  0  0  0  0
 23  6  1  0  0  0  0
 24 17  1  6  0  0  0
 24 11  1  0  0  0  0
 24 19  1  0  0  0  0
 26  1  1  6  0  0  0
 26 20  1  0  0  0  0
 26  2  1  0  0  0  0
 27 22  1  0  0  0  0
 28 27  2  0  0  0  0
 29  1  1  0  0  0  0
 29 27  1  0  0  0  0
 30 17  1  0  0  0  0
 30  6  2  0  0  0  0
M  END
>  <MODEL>
5

>  <REMARK>
 VINA RESULT:      -8.7      3.106      4.583
  Name = 
  0 active torsions:
  status: ('A' for Active; 'I' for Inactive)
                            x       y       z     vdW  Elec       q    Type
                         _______ _______ _______ _____ _____    ______ ____

>  <TORSDO>
F 0

$$$$
=
 OpenBabel11062413203D

 30 35  0  0  1  0  0  0  0  0999 V2000
  186.7930  177.7550  139.6420 O   0  0  0  0  0  0  0  0  0  0  0  0
  186.9600  178.7120  141.7350 O   0  0  0  0  0  0  0  0  0  0  0  0
  190.0970  176.9690  144.5660 C   0  0  0  0  0  2  0  0  0  0  0  0
  184.7480  178.4270  145.8570 C   0  0  0  0  0  2  0  0  0  0  0  0
  189.0880  177.2860  143.4660 C   0  0  2  0  0  3  0  0  0  0  0  0
  184.1270  179.2970  143.5440 C   0  0  0  0  0  0  0  0  0  0  0  0
  186.9600  178.7910  137.5890 O   0  0  0  0  0  0  0  0  0  0  0  0
  187.8700  176.6860  143.7660 O   0  0  0  0  0  0  0  0  0  0  0  0
  188.3760  177.8800  147.8920 C   0  0  0  0  0  2  0  0  0  0  0  0
  190.5010  176.3730  146.9650 C   0  0  0  0  0  2  0  0  0  0  0  0
  184.7160  178.3360  144.4070 N   0  0  0  0  0  0  0  0  0  0  0  0
  188.4150  177.7970  146.3550 C   0  0  2  0  0  3  0  0  0  0  0  0
  186.1880  178.6540  146.2950 C   0  0  0  0  0  2  0  0  0  0  0  0
  187.0580  177.5790  145.7920 N   0  0  1  0  0  0  0  0  0  0  0  0
  190.9180  177.6390  147.7080 C   0  0  2  0  0  3  0  0  0  0  0  0
  189.4220  176.6830  145.9200 C   0  0  1  0  0  3  0  0  0  0  0  0
  185.7920  178.3960  142.3590 N   0  0  0  0  0  0  0  0  0  0  0  0
  191.9400  177.3510  148.5920 F   0  0  0  0  0  0  0  0  0  0  0  0
  187.1190  177.7190  144.3230 C   0  0  2  0  0  3  0  0  0  0  0  0
  188.8380  177.4740  140.9720 C   0  0  0  0  0  0  0  0  0  0  0  0
  189.5630  176.7980  142.1040 C   0  0  0  0  0  2  0  0  0  0  0  0
  189.5520  177.9930  140.0140 N   0  0  0  0  0  0  0  0  0  0  0  0
  183.0630  180.1610  143.9310 N   0  0  0  0  0  1  0  0  0  0  0  0
  185.7530  177.6710  143.6350 C   0  0  1  0  0  3  0  0  0  0  0  0
  189.7420  178.2670  148.4660 C   0  0  0  0  0  2  0  0  0  0  0  0
  187.3170  177.5970  140.9650 C   0  0  2  0  0  3  0  0  0  0  0  0
  188.9570  178.5880  138.8580 C   0  0  0  0  0  0  0  0  0  0  0  0
  189.6680  179.2020  138.0210 O   0  0  0  0  0  0  0  0  0  0  0  0
  187.5210  178.4100  138.6490 C   0  0  0  0  0  0  0  0  0  0  0  0
  184.7260  179.3420  142.3720 C   0  0  0  0  0  3  0  0  0  0  0  0
  2 17  1  0  0  0  0
  4 13  1  0  0  0  0
  5 21  1  6  0  0  0
  5  8  1  0  0  0  0
  5  3  1  0  0  0  0
  6 23  1  0  0  0  0
  6 11  1  0  0  0  0
  7 29  2  0  0  0  0
  9 25  1  0  0  0  0
 10 15  1  0  0  0  0
 11  4  1  0  0  0  0
 12  9  1  1  0  0  0
 14 13  1  1  0  0  0
 14 12  1  0  0  0  0
 15 25  1  0  0  0  0
 15 18  1  1  0  0  0
 16  3  1  6  0  0  0
 16 12  1  0  0  0  0
 16 10  1  0  0  0  0
 17 30  1  0  0  0  0
 19  8  1  6  0  0  0
 19 14  1  0  0  0  0
 20 21  1  0  0  0  0
 22 20  2  0  0  0  0
 24 17  1  6  0  0  0
 24 19  1  0  0  0  0
 24 11  1  0  0  0  0
 26  1  1  6  0  0  0
 26 20  1  0  0  0  0
 26  2  1  0  0  0  0
 27 22  1  0  0  0  0
 28 27  2  0  0  0  0
 29 27  1  0  0  0  0
 29  1  1  0  0  0  0
 30  6  2  0  0  0  0
M  END
>  <MODEL>
6

>  <REMARK>
 VINA RESULT:      -8.5      3.017      5.300
  Name = 
  0 active torsions:
  status: ('A' for Active; 'I' for Inactive)
                            x       y       z     vdW  Elec       q    Type
                         _______ _______ _______ _____ _____    ______ ____

>  <TORSDO>
F 0

$$$$
=
 OpenBabel11062413203D

 30 35  0  0  1  0  0  0  0  0999 V2000
  184.2180  178.9750  138.3420 O   0  0  0  0  0  0  0  0  0  0  0  0
  185.9330  177.5490  138.9360 O   0  0  0  0  0  0  0  0  0  0  0  0
  187.8770  178.2320  143.0160 C   0  0  0  0  0  2  0  0  0  0  0  0
  190.5230  177.1190  138.1000 C   0  0  0  0  0  2  0  0  0  0  0  0
  187.1210  178.2910  141.6920 C   0  0  2  0  0  3  0  0  0  0  0  0
  188.4140  176.8800  136.6910 C   0  0  0  0  0  0  0  0  0  0  0  0
  182.0660  178.4280  137.7210 O   0  0  0  0  0  0  0  0  0  0  0  0
  187.9010  178.9370  140.7400 O   0  0  0  0  0  0  0  0  0  0  0  0
  191.3500  176.7750  142.1990 C   0  0  0  0  0  2  0  0  0  0  0  0
  190.0860  178.2100  144.1960 C   0  0  0  0  0  2  0  0  0  0  0  0
  189.2030  177.5440  137.6660 N   0  0  0  0  0  0  0  0  0  0  0  0
  189.9260  177.2060  141.8050 C   0  0  2  0  0  3  0  0  0  0  0  0
  190.4260  176.6390  139.5410 C   0  0  0  0  0  2  0  0  0  0  0  0
  189.8790  177.6970  140.4040 N   0  0  1  0  0  0  0  0  0  0  0  0
  190.4090  176.7690  144.5800 C   0  0  2  0  0  3  0  0  0  0  0  0
  189.4040  178.2710  142.8230 C   0  0  1  0  0  3  0  0  0  0  0  0
  186.9450  177.8390  138.0740 N   0  0  0  0  0  0  0  0  0  0  0  0
  190.9550  176.7300  145.8480 F   0  0  0  0  0  0  0  0  0  0  0  0
  188.4680  177.8940  140.0110 C   0  0  2  0  0  3  0  0  0  0  0  0
  184.8490  178.7120  140.7010 C   0  0  0  0  0  0  0  0  0  0  0  0
  185.7940  179.0250  141.8300 C   0  0  0  0  0  2  0  0  0  0  0  0
  183.6340  178.3520  141.0030 N   0  0  0  0  0  0  0  0  0  0  0  0
  188.9540  176.0730  135.6500 N   0  0  0  0  0  1  0  0  0  0  0  0
  188.2760  178.2500  138.5350 C   0  0  1  0  0  3  0  0  0  0  0  0
  191.3740  176.1170  143.5820 C   0  0  0  0  0  2  0  0  0  0  0  0
  185.3080  178.7640  139.2460 C   0  0  2  0  0  3  0  0  0  0  0  0
  182.6420  178.1100  140.0030 C   0  0  0  0  0  0  0  0  0  0  0  0
  181.5220  177.6300  140.3200 O   0  0  0  0  0  0  0  0  0  0  0  0
  182.9410  178.4890  138.6230 C   0  0  0  0  0  0  0  0  0  0  0  0
  187.1240  177.0400  136.9070 C   0  0  0  0  0  3  0  0  0  0  0  0
  1 29  1  0  0  0  0
  2 26  1  0  0  0  0
  4 13  1  0  0  0  0
  5 21  1  1  0  0  0
  5  3  1  0  0  0  0
  6 30  2  0  0  0  0
  6 11  1  0  0  0  0
  7 29  2  0  0  0  0
  8  5  1  0  0  0  0
  9 25  1  0  0  0  0
 10 15  1  0  0  0  0
 11  4  1  0  0  0  0
 12  9  1  1  0  0  0
 12 16  1  0  0  0  0
 14 13  1  6  0  0  0
 14 12  1  0  0  0  0
 15 18  1  1  0  0  0
 16  3  1  1  0  0  0
 16 10  1  0  0  0  0
 17 24  1  0  0  0  0
 17  2  1  0  0  0  0
 19 14  1  0  0  0  0
 19  8  1  1  0  0  0
 20 22  2  0  0  0  0
 20 21  1  0  0  0  0
 23  6  1  0  0  0  0
 24 11  1  6  0  0  0
 24 19  1  0  0  0  0
 25 15  1  0  0  0  0
 26  1  1  6  0  0  0
 26 20  1  0  0  0  0
 27 28  2  0  0  0  0
 27 22  1  0  0  0  0
 29 27  1  0  0  0  0
 30 17  1  0  0  0  0
M  END
>  <MODEL>
7

>  <REMARK>
 VINA RESULT:      -8.5      3.621      6.652
  Name = 
  0 active torsions:
  status: ('A' for Active; 'I' for Inactive)
                            x       y       z     vdW  Elec       q    Type
                         _______ _______ _______ _____ _____    ______ ____

>  <TORSDO>
F 0

$$$$
=
 OpenBabel11062413203D

 30 35  0  0  1  0  0  0  0  0999 V2000
  181.5940  179.2430  140.2270 O   0  0  0  0  0  0  0  0  0  0  0  0
  183.4250  177.9910  140.8640 O   0  0  0  0  0  0  0  0  0  0  0  0
  184.8480  178.4520  145.1840 C   0  0  0  0  0  2  0  0  0  0  0  0
  188.0900  178.2530  140.5090 C   0  0  0  0  0  2  0  0  0  0  0  0
  184.2230  178.5630  143.7960 C   0  0  2  0  0  3  0  0  0  0  0  0
  186.1820  177.9060  138.8570 C   0  0  0  0  0  0  0  0  0  0  0  0
  179.6100  178.4980  139.3170 O   0  0  0  0  0  0  0  0  0  0  0  0
  184.9940  179.4080  143.0060 O   0  0  0  0  0  0  0  0  0  0  0  0
  188.5530  177.5560  144.6210 C   0  0  0  0  0  2  0  0  0  0  0  0
  186.9120  178.5800  146.5960 C   0  0  0  0  0  2  0  0  0  0  0  0
  186.7730  178.5520  139.9740 N   0  0  0  0  0  0  0  0  0  0  0  0
  187.1280  177.8430  144.1140 C   0  0  2  0  0  3  0  0  0  0  0  0
  187.9210  177.6040  141.8760 C   0  0  0  0  0  2  0  0  0  0  0  0
  187.1490  178.4790  142.7730 N   0  0  1  0  0  0  0  0  0  0  0  0
  187.3940  177.1590  146.8680 C   0  0  2  0  0  3  0  0  0  0  0  0
  186.3650  178.7090  145.1690 C   0  0  1  0  0  3  0  0  0  0  0  0
  184.4660  178.5060  140.1550 N   0  0  0  0  0  0  0  0  0  0  0  0
  187.8140  177.0470  148.1800 F   0  0  0  0  0  0  0  0  0  0  0  0
  185.7700  178.5360  142.2460 C   0  0  2  0  0  3  0  0  0  0  0  0
  182.0220  178.7980  142.6030 C   0  0  0  0  0  0  0  0  0  0  0  0
  182.7990  179.1000  143.8570 C   0  0  0  0  0  2  0  0  0  0  0  0
  180.8460  178.2530  142.7300 N   0  0  0  0  0  0  0  0  0  0  0  0
  186.9290  177.2990  137.8080 N   0  0  0  0  0  1  0  0  0  0  0  0
  185.6750  179.0300  140.8000 C   0  0  1  0  0  3  0  0  0  0  0  0
  188.5330  176.7540  145.9250 C   0  0  0  0  0  2  0  0  0  0  0  0
  182.6090  179.0730  141.2220 C   0  0  2  0  0  3  0  0  0  0  0  0
  180.0000  178.0010  141.6060 C   0  0  0  0  0  0  0  0  0  0  0  0
  178.9330  177.3480  141.7470 O   0  0  0  0  0  0  0  0  0  0  0  0
  180.3760  178.5690  140.3140 C   0  0  0  0  0  0  0  0  0  0  0  0
  184.8680  177.8740  138.9420 C   0  0  0  0  0  3  0  0  0  0  0  0
  1 29  1  0  0  0  0
  2 26  1  0  0  0  0
  4 13  1  0  0  0  0
  5 21  1  1  0  0  0
  5  3  1  0  0  0  0
  6 30  2  0  0  0  0
  6 11  1  0  0  0  0
  7 29  2  0  0  0  0
  8  5  1  0  0  0  0
  9 25  1  0  0  0  0
 10 15  1  0  0  0  0
 11  4  1  0  0  0  0
 12  9  1  1  0  0  0
 12 16  1  0  0  0  0
 14 13  1  6  0  0  0
 14 12  1  0  0  0  0
 15 18  1  1  0  0  0
 16  3  1  1  0  0  0
 16 10  1  0  0  0  0
 17 24  1  0  0  0  0
 17  2  1  0  0  0  0
 19 14  1  0  0  0  0
 19  8  1  1  0  0  0
 20 22  2  0  0  0  0
 20 21  1  0  0  0  0
 23  6  1  0  0  0  0
 24 11  1  6  0  0  0
 24 19  1  0  0  0  0
 25 15  1  0  0  0  0
 26  1  1  6  0  0  0
 26 20  1  0  0  0  0
 27 28  2  0  0  0  0
 27 22  1  0  0  0  0
 29 27  1  0  0  0  0
 30 17  1  0  0  0  0
M  END
>  <MODEL>
8

>  <REMARK>
 VINA RESULT:      -8.4      4.141      7.094
  Name = 
  0 active torsions:
  status: ('A' for Active; 'I' for Inactive)
                            x       y       z     vdW  Elec       q    Type
                         _______ _______ _______ _____ _____    ______ ____

>  <TORSDO>
F 0

$$$$
=
 OpenBabel11062413203D

 30 35  0  0  1  0  0  0  0  0999 V2000
  182.3140  178.3760  137.6030 O   0  0  0  0  0  0  0  0  0  0  0  0
  183.9600  177.4420  138.9240 O   0  0  0  0  0  0  0  0  0  0  0  0
  183.9390  178.5570  143.3570 C   0  0  0  0  0  2  0  0  0  0  0  0
  188.4680  178.2440  139.9220 C   0  0  0  0  0  2  0  0  0  0  0  0
  183.7650  178.4330  141.8460 C   0  0  2  0  0  3  0  0  0  0  0  0
  187.1980  177.4780  137.8500 C   0  0  0  0  0  0  0  0  0  0  0  0
  180.7780  177.2910  136.2680 O   0  0  0  0  0  0  0  0  0  0  0  0
  184.6670  179.2740  141.2040 O   0  0  0  0  0  0  0  0  0  0  0  0
  187.7000  178.0740  144.0440 C   0  0  0  0  0  2  0  0  0  0  0  0
  185.4500  179.0990  145.2790 C   0  0  0  0  0  2  0  0  0  0  0  0
  187.3580  178.3130  138.9860 N   0  0  0  0  0  0  0  0  0  0  0  0
  186.4810  178.1210  143.1050 C   0  0  2  0  0  3  0  0  0  0  0  0
  187.9420  177.7350  141.2570 C   0  0  0  0  0  2  0  0  0  0  0  0
  186.8600  178.6010  141.7520 N   0  0  1  0  0  0  0  0  0  0  0  0
  185.9440  177.7890  145.8840 C   0  0  2  0  0  3  0  0  0  0  0  0
  185.3600  178.9980  143.7520 C   0  0  1  0  0  3  0  0  0  0  0  0
  185.1210  178.0000  138.4850 N   0  0  0  0  0  0  0  0  0  0  0  0
  185.9480  177.8770  147.2630 F   0  0  0  0  0  0  0  0  0  0  0  0
  185.7110  178.4260  140.8400 C   0  0  2  0  0  3  0  0  0  0  0  0
  182.0270  178.2560  140.0390 C   0  0  0  0  0  0  0  0  0  0  0  0
  182.3510  178.7900  141.4080 C   0  0  0  0  0  2  0  0  0  0  0  0
  180.9200  177.5860  139.8920 N   0  0  0  0  0  0  0  0  0  0  0  0
  188.2800  176.8560  137.1660 N   0  0  0  0  0  1  0  0  0  0  0  0
  186.0240  178.7400  139.3750 C   0  0  1  0  0  3  0  0  0  0  0  0
  187.3490  177.4260  145.3860 C   0  0  0  0  0  2  0  0  0  0  0  0
  182.9850  178.4460  138.8660 C   0  0  2  0  0  3  0  0  0  0  0  0
  180.4850  177.1050  138.6180 C   0  0  0  0  0  0  0  0  0  0  0  0
  179.4860  176.3440  138.5310 O   0  0  0  0  0  0  0  0  0  0  0  0
  181.1910  177.5680  137.4250 C   0  0  0  0  0  0  0  0  0  0  0  0
  185.9290  177.2910  137.5490 C   0  0  0  0  0  3  0  0  0  0  0  0
  4 13  1  0  0  0  0
  5 21  1  1  0  0  0
  5  3  1  0  0  0  0
  6 11  1  0  0  0  0
  7 29  2  0  0  0  0
  8  5  1  0  0  0  0
  9 25  1  0  0  0  0
 10 15  1  0  0  0  0
 11 24  1  0  0  0  0
 11  4  1  0  0  0  0
 12 16  1  0  0  0  0
 12  9  1  1  0  0  0
 14 13  1  6  0  0  0
 14 12  1  0  0  0  0
 15 18  1  1  0  0  0
 16  3  1  1  0  0  0
 16 10  1  0  0  0  0
 17  2  1  0  0  0  0
 19  8  1  1  0  0  0
 19 14  1  0  0  0  0
 20 21  1  0  0  0  0
 22 20  2  0  0  0  0
 23  6  1  0  0  0  0
 24 17  1  6  0  0  0
 24 19  1  0  0  0  0
 25 15  1  0  0  0  0
 26  1  1  6  0  0  0
 26  2  1  0  0  0  0
 26 20  1  0  0  0  0
 27 22  1  0  0  0  0
 28 27  2  0  0  0  0
 29  1  1  0  0  0  0
 29 27  1  0  0  0  0
 30  6  2  0  0  0  0
 30 17  1  0  0  0  0
M  END
>  <MODEL>
9

>  <REMARK>
 VINA RESULT:      -8.3      4.480      6.628
  Name = 
  0 active torsions:
  status: ('A' for Active; 'I' for Inactive)
                            x       y       z     vdW  Elec       q    Type
                         _______ _______ _______ _____ _____    ______ ____

>  <TORSDO>
F 0

$$$$
