=
 OpenBabel11062416123D

 67 73  0  0  1  0  0  0  0  0999 V2000
  182.4970  175.8280  135.8510 C   0  0  0  0  0  3  0  0  0  0  0  0
  180.7690  176.2110  138.8810 O   0  0  0  0  0  0  0  0  0  0  0  0
  181.7500  175.0850  136.9070 C   0  0  0  0  0  2  0  0  0  0  0  0
  189.5210  177.7900  136.9860 O   0  0  0  0  0  0  0  0  0  0  0  0
  189.6650  178.0240  140.1570 C   0  0  2  0  0  3  0  0  0  0  0  0
  187.8800  176.2690  142.3870 O   0  0  0  0  0  1  0  0  0  0  0  0
  191.0880  174.9540  136.3850 C   0  0  0  0  0  2  0  0  0  0  0  0
  181.9210  175.7470  138.2300 C   0  0  0  0  0  0  0  0  0  0  0  0
  183.4330  179.5170  142.6240 O   0  0  0  0  0  1  0  0  0  0  0  0
  191.9050  175.7840  138.3510 C   0  0  0  0  0  0  0  0  0  0  0  0
  185.4510  176.7520  143.8310 C   0  0  0  0  0  1  0  0  0  0  0  0
  184.1030  178.7180  141.5260 P   0  0  2  0  0  0  0  0  0  0  0  0
  183.7920  175.9330  135.8550 N   0  0  0  0  0  0  0  0  0  0  0  0
  190.9970  175.9670  137.4630 C   0  0  0  0  0  0  0  0  0  0  0  0
  186.2550  177.8620  143.1740 C   0  0  0  0  0  0  0  0  0  0  0  0
  185.7730  178.0450  141.7120 C   0  0  0  0  0  2  0  0  0  0  0  0
  187.6780  178.3410  138.6530 C   0  0  0  0  0  2  0  0  0  0  0  0
  192.4120  174.2440  136.7560 C   0  0  1  0  0  3  0  0  0  0  0  0
  183.1280  175.8450  138.7970 C   0  0  0  0  0  3  0  0  0  0  0  0
  185.7250  179.3400  141.3450 O   0  0  0  0  0  0  0  0  0  0  0  0
  181.0900  178.5940  139.3130 C   0  0  1  0  0  3  0  0  0  0  0  0
  188.6980  179.0390  139.5450 C   0  0  0  0  0  2  0  0  0  0  0  0
  188.5180  178.5030  142.6300 O   0  0  0  0  0  0  0  0  0  0  0  0
  187.1570  175.8130  137.0390 C   0  0  0  0  0  2  0  0  0  0  0  0
  189.9300  176.8590  137.9520 C   0  0  1  0  0  3  0  0  0  0  0  0
  193.0350  177.3690  139.8480 C   0  0  0  0  0  1  0  0  0  0  0  0
  191.7530  176.6170  139.5650 C   0  0  1  0  0  3  0  0  0  0  0  0
  187.2120  177.2040  136.4200 C   0  0  0  0  0  2  0  0  0  0  0  0
  188.1560  178.1230  137.1960 C   0  0  2  0  0  3  0  0  0  0  0  0
  190.3360  178.6240  141.2300 O   0  0  0  0  0  0  0  0  0  0  0  0
  186.0440  174.9770  136.4230 C   0  0  0  0  0  2  0  0  0  0  0  0
  189.8210  178.0300  142.3900 C   0  0  1  0  0  3  0  0  0  0  0  0
  182.3130  180.7940  139.5660 C   0  0  0  0  0  1  0  0  0  0  0  0
  192.7820  174.7750  138.0310 O   0  0  0  0  0  0  0  0  0  0  0  0
  190.6570  177.5860  139.0920 C   0  0  2  0  0  3  0  0  0  0  0  0
  187.7330  177.4440  143.1460 C   0  0  2  0  0  3  0  0  0  0  0  0
  186.1150  179.1120  144.0410 C   0  0  0  0  0  1  0  0  0  0  0  0
  184.6840  175.4260  136.8620 C   0  0  0  0  0  0  0  0  0  0  0  0
  182.1530  179.3810  140.1070 C   0  0  2  0  0  3  0  0  0  0  0  0
  184.3970  175.4250  138.1730 C   0  0  0  0  0  3  0  0  0  0  0  0
  180.7500  177.2110  139.9010 C   0  0  2  0  0  3  0  0  0  0  0  0
  183.3840  178.7310  139.9860 O   0  0  0  0  0  0  0  0  0  0  0  0
  190.8980  178.4270  143.7980 P   0  0  0  0  0  0  0  0  0  0  0  0
  191.1830  179.9120  143.8190 O   0  0  0  0  0  1  0  0  0  0  0  0
  190.1370  177.9770  145.2390 O   0  0  0  0  0  1  0  0  0  0  0  0
  192.3540  177.5790  143.6460 O   0  0  0  0  0  0  0  0  0  0  0  0
  179.5270  179.6900  137.6580 C   0  0  2  0  0  3  0  0  0  0  0  0
  180.5650  180.6470  137.0870 C   0  0  2  0  0  3  0  0  0  0  0  0
  180.1180  180.7670  138.5550 C   0  0  2  0  0  0  0  0  0  0  0  0
  179.7970  179.3950  139.1260 C   0  0  2  0  0  3  0  0  0  0  0  0
  179.1200  183.2090  138.3670 C   0  0  0  0  0  1  0  0  0  0  0  0
  178.9340  181.9020  140.5070 C   0  0  0  0  0  1  0  0  0  0  0  0
  179.0750  181.8220  139.0000 C   0  0  0  0  0  3  0  0  0  0  0  0
  180.5960  181.4300  134.7810 F   0  0  0  0  0  0  0  0  0  0  0  0
  179.9760  181.5810  136.0100 C   0  0  2  0  0  3  0  0  0  0  0  0
  179.8950  182.9530  136.3970 O   0  0  0  0  0  0  0  0  0  0  0  0
  180.0000  184.0160  135.4930 C   0  0  0  0  0  0  0  0  0  0  0  0
  179.0530  184.2730  134.5960 C   0  0  0  0  0  2  0  0  0  0  0  0
  181.8660  184.7140  136.8340 N   0  0  0  0  0  1  0  0  0  0  0  0
  181.1800  184.9160  135.5700 C   0  0  0  0  0  2  0  0  0  0  0  0
  180.6400  176.7350  142.0580 C   0  0  0  0  0  1  0  0  0  0  0  0
  181.5380  176.8380  140.9960 O   0  0  0  0  0  0  0  0  0  0  0  0
  192.2100  172.8680  136.8510 O   0  0  0  0  0  0  0  0  0  0  0  0
  193.2580  172.3120  136.1130 C   0  0  0  0  0  2  0  0  0  0  0  0
  195.5790  172.4230  136.0470 C   0  0  0  0  0  1  0  0  0  0  0  0
  194.4510  172.2250  136.9370 N   0  0  0  0  0  0  0  0  0  0  0  0
  194.5300  170.9490  137.3850 O   0  0  0  0  0  1  0  0  0  0  0  0
  1 13  2  0  0  0  0
  1  3  1  0  0  0  0
  2 41  1  0  0  0  0
  3  8  1  0  0  0  0
  4 29  1  0  0  0  0
  5 22  1  6  0  0  0
  5 30  1  0  0  0  0
  6 36  1  0  0  0  0
  7 18  1  0  0  0  0
  7 14  1  0  0  0  0
  8 19  2  0  0  0  0
  8  2  1  0  0  0  0
 10 27  1  0  0  0  0
 12  9  1  1  0  0  0
 13 38  1  0  0  0  0
 14 25  1  0  0  0  0
 14 10  2  0  0  0  0
 15 11  1  0  0  0  0
 15 37  1  0  0  0  0
 16 15  1  0  0  0  0
 17 22  1  0  0  0  0
 18 63  1  1  0  0  0
 18 34  1  0  0  0  0
 20 12  1  0  0  0  0
 20 16  1  0  0  0  0
 21 50  1  1  0  0  0
 21 41  1  0  0  0  0
 21 39  1  0  0  0  0
 23 36  1  0  0  0  0
 25  4  1  6  0  0  0
 25 35  1  0  0  0  0
 27 26  1  6  0  0  0
 28 24  1  0  0  0  0
 29 28  1  1  0  0  0
 29 17  1  0  0  0  0
 30 32  1  0  0  0  0
 31 38  1  0  0  0  0
 31 24  1  0  0  0  0
 32 23  1  0  0  0  0
 32 43  1  1  0  0  0
 33 39  1  0  0  0  0
 34 10  1  0  0  0  0
 35 27  1  0  0  0  0
 35  5  1  0  0  0  0
 36 15  1  0  0  0  0
 38 40  2  0  0  0  0
 40 19  1  0  0  0  0
 41 62  1  0  0  0  0
 42 39  1  0  0  0  0
 42 12  1  0  0  0  0
 43 44  1  0  0  0  0
 43 45  1  0  0  0  0
 46 43  2  0  0  0  0
 47 49  1  0  0  0  0
 47 50  1  0  0  0  0
 48 47  1  0  0  0  0
 48 49  1  0  0  0  0
 49 53  1  0  0  0  0
 49 50  1  0  0  0  0
 51 53  1  0  0  0  0
 53 52  1  0  0  0  0
 54 55  1  0  0  0  0
 55 56  1  0  0  0  0
 55 48  1  0  0  0  0
 57 60  1  0  0  0  0
 57 56  1  0  0  0  0
 58 57  2  0  0  0  0
 60 59  1  0  0  0  0
 62 61  1  0  0  0  0
 64 63  1  0  0  0  0
 64 66  1  0  0  0  0
 65 66  1  0  0  0  0
 66 67  1  0  0  0  0
M  END
>  <MODEL>
1

>  <REMARK>
 VINA RESULT:      -3.1      0.000      0.000
  Name = 
  11 active torsions:
  status: ('A' for Active; 'I' for Inactive)
    1  A    between atoms: P_4  and  C_50
    2  A    between atoms: C_11  and  N_38
    3  A    between atoms: C_11  and  O_49
    4  A    between atoms: C_28  and  O_49
    5  A    between atoms: C_31  and  C_65
    6  A    between atoms: C_32  and  C_61
    7  A    between atoms: O_43  and  C_56
    8  A    between atoms: O_43  and  C_61
    9  A    between atoms: C_46  and  C_56
   10  A    between atoms: C_57  and  C_62
   11  A    between atoms: C_63  and  O_66
                            x       y       z     vdW  Elec       q    Type
                         _______ _______ _______ _____ _____    ______ ____

>  <TORSDO>
F 11

$$$$
=
 OpenBabel11062416123D

 67 73  0  0  1  0  0  0  0  0999 V2000
  192.1440  177.9540  140.5120 C   0  0  0  0  0  3  0  0  0  0  0  0
  192.6350  175.1220  138.4980 O   0  0  0  0  0  0  0  0  0  0  0  0
  192.5410  176.5160  140.5410 C   0  0  0  0  0  2  0  0  0  0  0  0
  185.0110  179.8070  140.1160 O   0  0  0  0  0  0  0  0  0  0  0  0
  183.7280  177.2890  138.6510 C   0  0  2  0  0  3  0  0  0  0  0  0
  184.7780  174.1100  138.8240 O   0  0  0  0  0  1  0  0  0  0  0  0
  184.0640  179.3990  143.2460 C   0  0  0  0  0  2  0  0  0  0  0  0
  191.8440  175.7610  139.4630 C   0  0  0  0  0  0  0  0  0  0  0  0
  188.4860  174.2450  134.7480 O   0  0  0  0  0  1  0  0  0  0  0  0
  182.5200  178.3560  141.9230 C   0  0  0  0  0  0  0  0  0  0  0  0
  186.4720  172.4720  137.1910 C   0  0  0  0  0  1  0  0  0  0  0  0
  188.3370  174.9720  136.0670 P   0  0  2  0  0  0  0  0  0  0  0  0
  190.9290  178.3470  140.7480 N   0  0  0  0  0  0  0  0  0  0  0  0
  183.6600  178.9450  141.8940 C   0  0  0  0  0  0  0  0  0  0  0  0
  185.8420  173.7620  136.6920 C   0  0  0  0  0  0  0  0  0  0  0  0
  186.7890  174.9470  137.0060 C   0  0  0  0  0  2  0  0  0  0  0  0
  186.0750  178.1690  138.4820 C   0  0  0  0  0  2  0  0  0  0  0  0
  182.7760  179.1090  144.0540 C   0  0  1  0  0  3  0  0  0  0  0  0
  190.5110  175.6540  139.4520 C   0  0  0  0  0  3  0  0  0  0  0  0
  186.8290  175.8520  136.0090 O   0  0  0  0  0  0  0  0  0  0  0  0
  191.9340  175.9660  136.3140 C   0  0  1  0  0  3  0  0  0  0  0  0
  184.7370  178.0210  137.7660 C   0  0  0  0  0  2  0  0  0  0  0  0
  183.8660  175.1270  136.9280 O   0  0  0  0  0  0  0  0  0  0  0  0
  187.3950  178.1980  141.2250 C   0  0  0  0  0  2  0  0  0  0  0  0
  184.3850  178.6670  140.6410 C   0  0  1  0  0  3  0  0  0  0  0  0
  180.7740  178.1450  140.2090 C   0  0  0  0  0  1  0  0  0  0  0  0
  182.1440  177.6850  140.6570 C   0  0  1  0  0  3  0  0  0  0  0  0
  187.4180  179.3880  140.2730 C   0  0  0  0  0  2  0  0  0  0  0  0
  186.1700  179.4210  139.3910 C   0  0  2  0  0  3  0  0  0  0  0  0
  182.6610  176.8490  137.8570 O   0  0  0  0  0  0  0  0  0  0  0  0
  188.7350  178.0240  141.9260 C   0  0  0  0  0  2  0  0  0  0  0  0
  182.7900  175.4560  137.7730 C   0  0  1  0  0  3  0  0  0  0  0  0
  190.4790  177.1160  134.5940 C   0  0  0  0  0  1  0  0  0  0  0  0
  181.9250  178.3850  143.1610 O   0  0  0  0  0  0  0  0  0  0  0  0
  183.2290  178.2450  139.7230 C   0  0  2  0  0  3  0  0  0  0  0  0
  184.5230  173.9850  137.4450 C   0  0  2  0  0  3  0  0  0  0  0  0
  185.5340  173.5820  135.2060 C   0  0  0  0  0  1  0  0  0  0  0  0
  189.7950  177.5010  141.0080 C   0  0  0  0  0  0  0  0  0  0  0  0
  190.5830  175.9540  135.5700 C   0  0  2  0  0  3  0  0  0  0  0  0
  189.5970  176.3210  140.3990 C   0  0  0  0  0  3  0  0  0  0  0  0
  192.1860  174.7290  137.1990 C   0  0  2  0  0  3  0  0  0  0  0  0
  189.5500  176.0800  136.5020 O   0  0  0  0  0  0  0  0  0  0  0  0
  181.2480  174.7480  137.1230 P   0  0  0  0  0  0  0  0  0  0  0  0
  180.0670  175.3230  137.8750 O   0  0  0  0  0  1  0  0  0  0  0  0
  181.1030  175.1140  135.4790 O   0  0  0  0  0  0  0  0  0  0  0  0
  181.2750  173.0680  137.3230 O   0  0  0  0  0  1  0  0  0  0  0  0
  193.4300  174.8750  134.5940 C   0  0  2  0  0  3  0  0  0  0  0  0
  193.9560  173.7890  135.5240 C   0  0  2  0  0  3  0  0  0  0  0  0
  194.2770  175.2690  135.7950 C   0  0  2  0  0  0  0  0  0  0  0  0
  193.1190  176.1530  135.3590 C   0  0  2  0  0  3  0  0  0  0  0  0
  196.8050  175.7860  136.3750 C   0  0  0  0  0  1  0  0  0  0  0  0
  195.5020  177.2910  134.8380 C   0  0  0  0  0  1  0  0  0  0  0  0
  195.6390  175.8880  135.3960 C   0  0  0  0  0  3  0  0  0  0  0  0
  194.4990  171.6040  134.5950 F   0  0  0  0  0  0  0  0  0  0  0  0
  194.9910  172.8760  134.8370 C   0  0  2  0  0  3  0  0  0  0  0  0
  196.2640  172.8350  135.4820 O   0  0  0  0  0  0  0  0  0  0  0  0
  196.7590  171.7040  136.1400 C   0  0  0  0  0  0  0  0  0  0  0  0
  197.4030  170.7380  135.4920 C   0  0  0  0  0  2  0  0  0  0  0  0
  195.3920  170.8710  137.9300 N   0  0  0  0  0  1  0  0  0  0  0  0
  196.6070  171.6010  137.6140 C   0  0  0  0  0  2  0  0  0  0  0  0
  191.4480  172.7910  136.4330 C   0  0  0  0  0  1  0  0  0  0  0  0
  191.1050  173.8460  137.2790 O   0  0  0  0  0  0  0  0  0  0  0  0
  183.0740  178.3270  145.1690 O   0  0  0  0  0  0  0  0  0  0  0  0
  184.4600  178.4360  145.3080 C   0  0  0  0  0  2  0  0  0  0  0  0
  186.2370  178.7190  146.7810 C   0  0  0  0  0  1  0  0  0  0  0  0
  184.7920  178.8020  146.6740 N   0  0  0  0  0  0  0  0  0  0  0  0
  184.2890  177.8350  147.4770 O   0  0  0  0  0  1  0  0  0  0  0  0
  1  3  1  0  0  0  0
  1 13  2  0  0  0  0
  2  8  1  0  0  0  0
  5 22  1  6  0  0  0
  5 35  1  0  0  0  0
  7 18  1  0  0  0  0
  8  3  1  0  0  0  0
 10 34  1  0  0  0  0
 12  9  1  6  0  0  0
 12 42  1  0  0  0  0
 13 38  1  0  0  0  0
 14 10  2  0  0  0  0
 14  7  1  0  0  0  0
 15 16  1  0  0  0  0
 15 11  1  0  0  0  0
 15 36  1  0  0  0  0
 18 63  1  1  0  0  0
 19  8  2  0  0  0  0
 19 40  1  0  0  0  0
 20 12  1  0  0  0  0
 20 16  1  0  0  0  0
 21 50  1  6  0  0  0
 21 41  1  0  0  0  0
 22 17  1  0  0  0  0
 23 36  1  0  0  0  0
 23 32  1  0  0  0  0
 24 31  1  0  0  0  0
 25  4  1  6  0  0  0
 25 14  1  0  0  0  0
 27 26  1  6  0  0  0
 27 10  1  0  0  0  0
 28 24  1  0  0  0  0
 29 17  1  1  0  0  0
 29  4  1  0  0  0  0
 29 28  1  0  0  0  0
 30  5  1  0  0  0  0
 32 43  1  6  0  0  0
 32 30  1  0  0  0  0
 33 39  1  0  0  0  0
 34 18  1  0  0  0  0
 35 25  1  0  0  0  0
 35 27  1  0  0  0  0
 36  6  1  0  0  0  0
 37 15  1  0  0  0  0
 38 31  1  0  0  0  0
 39 21  1  0  0  0  0
 39 42  1  0  0  0  0
 40 38  2  0  0  0  0
 41 62  1  0  0  0  0
 41  2  1  0  0  0  0
 43 46  1  0  0  0  0
 43 44  1  0  0  0  0
 45 43  2  0  0  0  0
 47 50  1  0  0  0  0
 47 48  1  0  0  0  0
 47 49  1  0  0  0  0
 48 49  1  0  0  0  0
 50 49  1  0  0  0  0
 52 53  1  0  0  0  0
 53 49  1  0  0  0  0
 53 51  1  0  0  0  0
 54 55  1  0  0  0  0
 55 56  1  0  0  0  0
 55 48  1  0  0  0  0
 56 57  1  0  0  0  0
 57 60  1  0  0  0  0
 58 57  2  0  0  0  0
 60 59  1  0  0  0  0
 61 62  1  0  0  0  0
 63 64  1  0  0  0  0
 64 66  1  0  0  0  0
 66 65  1  0  0  0  0
 66 67  1  0  0  0  0
M  END
>  <MODEL>
2

>  <REMARK>
 VINA RESULT:      -2.2      4.467     12.169
  Name = 
  11 active torsions:
  status: ('A' for Active; 'I' for Inactive)
    1  A    between atoms: P_4  and  C_50
    2  A    between atoms: C_11  and  N_38
    3  A    between atoms: C_11  and  O_49
    4  A    between atoms: C_28  and  O_49
    5  A    between atoms: C_31  and  C_65
    6  A    between atoms: C_32  and  C_61
    7  A    between atoms: O_43  and  C_56
    8  A    between atoms: O_43  and  C_61
    9  A    between atoms: C_46  and  C_56
   10  A    between atoms: C_57  and  C_62
   11  A    between atoms: C_63  and  O_66
                            x       y       z     vdW  Elec       q    Type
                         _______ _______ _______ _____ _____    ______ ____

>  <TORSDO>
F 11

$$$$
=
 OpenBabel11062416123D

 67 73  0  0  1  0  0  0  0  0999 V2000
  184.5360  176.0330  134.5990 C   0  0  0  0  0  3  0  0  0  0  0  0
  182.3440  176.5320  137.2940 O   0  0  0  0  0  0  0  0  0  0  0  0
  183.5540  175.3470  135.4890 C   0  0  0  0  0  2  0  0  0  0  0  0
  191.3950  177.3420  136.9860 O   0  0  0  0  0  0  0  0  0  0  0  0
  191.0030  177.5230  140.1390 C   0  0  2  0  0  3  0  0  0  0  0  0
  188.7110  175.9070  141.9770 O   0  0  0  0  0  1  0  0  0  0  0  0
  192.7930  174.3840  136.5860 C   0  0  0  0  0  2  0  0  0  0  0  0
  183.5470  175.9750  136.8390 C   0  0  0  0  0  0  0  0  0  0  0  0
  184.5890  179.5390  141.5310 O   0  0  0  0  0  1  0  0  0  0  0  0
  193.3230  175.1130  138.6860 C   0  0  0  0  0  0  0  0  0  0  0  0
  186.1180  176.5900  142.9920 C   0  0  0  0  0  1  0  0  0  0  0  0
  185.3680  178.6970  140.5440 P   0  0  2  0  0  0  0  0  0  0  0  0
  185.8140  176.0210  134.8300 N   0  0  0  0  0  0  0  0  0  0  0  0
  192.6030  175.3880  137.6600 C   0  0  0  0  0  0  0  0  0  0  0  0
  187.1170  177.6310  142.5150 C   0  0  0  0  0  0  0  0  0  0  0  0
  186.9160  177.8740  140.9980 C   0  0  0  0  0  2  0  0  0  0  0  0
  189.3440  178.0360  138.3240 C   0  0  0  0  0  2  0  0  0  0  0  0
  193.9660  173.5540  137.1600 C   0  0  1  0  0  3  0  0  0  0  0  0
  184.6400  175.9570  137.6090 C   0  0  0  0  0  3  0  0  0  0  0  0
  187.0450  179.1730  140.6640 O   0  0  0  0  0  0  0  0  0  0  0  0
  182.7900  178.8720  137.8410 C   0  0  1  0  0  3  0  0  0  0  0  0
  190.2490  178.6280  139.3980 C   0  0  0  0  0  2  0  0  0  0  0  0
  189.4870  178.0720  142.3890 O   0  0  0  0  0  0  0  0  0  0  0  0
  188.8970  175.5850  136.5740 C   0  0  0  0  0  2  0  0  0  0  0  0
  191.5480  176.3660  137.9810 C   0  0  1  0  0  3  0  0  0  0  0  0
  194.3060  176.5720  140.4000 C   0  0  0  0  0  1  0  0  0  0  0  0
  193.0330  175.9410  139.8790 C   0  0  1  0  0  3  0  0  0  0  0  0
  189.1800  176.9730  136.0130 C   0  0  0  0  0  2  0  0  0  0  0  0
  190.0490  177.7930  136.9650 C   0  0  2  0  0  3  0  0  0  0  0  0
  191.5260  178.0470  141.3290 O   0  0  0  0  0  0  0  0  0  0  0  0
  187.8410  174.8600  135.7520 C   0  0  0  0  0  2  0  0  0  0  0  0
  190.7660  177.4870  142.3640 C   0  0  1  0  0  3  0  0  0  0  0  0
  184.1350  180.9500  138.3620 C   0  0  0  0  0  1  0  0  0  0  0  0
  194.1510  174.0330  138.4950 O   0  0  0  0  0  0  0  0  0  0  0  0
  192.1250  177.0100  139.2500 C   0  0  2  0  0  3  0  0  0  0  0  0
  188.5360  177.0820  142.7310 C   0  0  2  0  0  3  0  0  0  0  0  0
  186.9370  178.8770  143.3800 C   0  0  0  0  0  1  0  0  0  0  0  0
  186.4690  175.4230  135.9610 C   0  0  0  0  0  0  0  0  0  0  0  0
  183.7610  179.5500  138.8280 C   0  0  2  0  0  3  0  0  0  0  0  0
  185.9580  175.4320  137.2030 C   0  0  0  0  0  3  0  0  0  0  0  0
  182.2330  177.5170  138.3230 C   0  0  2  0  0  3  0  0  0  0  0  0
  184.9330  178.7940  138.9040 O   0  0  0  0  0  0  0  0  0  0  0  0
  191.6110  177.7680  143.9480 P   0  0  0  0  0  0  0  0  0  0  0  0
  192.6510  178.8550  143.7850 O   0  0  0  0  0  0  0  0  0  0  0  0
  190.4830  178.2350  145.1180 O   0  0  0  0  0  1  0  0  0  0  0  0
  192.3690  176.3380  144.4410 O   0  0  0  0  0  1  0  0  0  0  0  0
  180.9990  180.4470  138.6770 C   0  0  2  0  0  3  0  0  0  0  0  0
  180.3030  179.4220  139.5620 C   0  0  2  0  0  3  0  0  0  0  0  0
  180.3260  179.2440  138.0340 C   0  0  2  0  0  0  0  0  0  0  0  0
  181.6230  179.7880  137.4560 C   0  0  2  0  0  3  0  0  0  0  0  0
  178.9310  178.9340  135.8090 C   0  0  0  0  0  1  0  0  0  0  0  0
  178.9310  181.1290  137.0360 C   0  0  0  0  0  1  0  0  0  0  0  0
  179.1110  179.6290  137.1550 C   0  0  0  0  0  3  0  0  0  0  0  0
  178.9310  181.3650  140.0810 F   0  0  0  0  0  0  0  0  0  0  0  0
  179.0570  179.9980  140.2640 C   0  0  2  0  0  3  0  0  0  0  0  0
  178.9310  179.6360  141.6390 O   0  0  0  0  0  0  0  0  0  0  0  0
  179.5250  178.4960  142.1920 C   0  0  0  0  0  0  0  0  0  0  0  0
  179.1940  177.2690  141.8010 C   0  0  0  0  0  2  0  0  0  0  0  0
  180.9600  180.0630  143.3120 N   0  0  0  0  0  1  0  0  0  0  0  0
  180.5930  178.6610  143.2120 C   0  0  0  0  0  2  0  0  0  0  0  0
  181.7300  176.4150  140.1730 C   0  0  0  0  0  1  0  0  0  0  0  0
  182.7830  177.0620  139.5260 O   0  0  0  0  0  0  0  0  0  0  0  0
  193.6310  172.1990  137.1810 O   0  0  0  0  0  0  0  0  0  0  0  0
  193.4550  171.8660  135.8360 C   0  0  0  0  0  2  0  0  0  0  0  0
  192.6690  169.7670  135.2180 C   0  0  0  0  0  1  0  0  0  0  0  0
  193.8640  170.4900  135.6100 N   0  0  0  0  0  0  0  0  0  0  0  0
  194.2450  169.9890  136.8090 O   0  0  0  0  0  1  0  0  0  0  0  0
  1 13  2  0  0  0  0
  1  3  1  0  0  0  0
  2 41  1  0  0  0  0
  3  8  1  0  0  0  0
  5 22  1  6  0  0  0
  5 30  1  0  0  0  0
  6 36  1  0  0  0  0
  7 18  1  0  0  0  0
  7 14  1  0  0  0  0
  8  2  1  0  0  0  0
  8 19  2  0  0  0  0
 10 27  1  0  0  0  0
 12 20  1  0  0  0  0
 12  9  1  1  0  0  0
 13 38  1  0  0  0  0
 14 25  1  0  0  0  0
 14 10  2  0  0  0  0
 15 36  1  0  0  0  0
 15 11  1  0  0  0  0
 15 37  1  0  0  0  0
 16 15  1  0  0  0  0
 17 22  1  0  0  0  0
 18 63  1  1  0  0  0
 18 34  1  0  0  0  0
 20 16  1  0  0  0  0
 21 50  1  1  0  0  0
 21 41  1  0  0  0  0
 21 39  1  0  0  0  0
 23 36  1  0  0  0  0
 25  4  1  6  0  0  0
 25 35  1  0  0  0  0
 27 26  1  6  0  0  0
 28 24  1  0  0  0  0
 29 28  1  1  0  0  0
 29  4  1  0  0  0  0
 29 17  1  0  0  0  0
 30 32  1  0  0  0  0
 31 38  1  0  0  0  0
 31 24  1  0  0  0  0
 32 23  1  0  0  0  0
 32 43  1  1  0  0  0
 33 39  1  0  0  0  0
 34 10  1  0  0  0  0
 35 27  1  0  0  0  0
 35  5  1  0  0  0  0
 38 40  2  0  0  0  0
 39 42  1  0  0  0  0
 40 19  1  0  0  0  0
 41 62  1  0  0  0  0
 42 12  1  0  0  0  0
 43 46  1  0  0  0  0
 43 45  1  0  0  0  0
 44 43  2  0  0  0  0
 47 48  1  0  0  0  0
 48 55  1  0  0  0  0
 49 47  1  0  0  0  0
 49 48  1  0  0  0  0
 50 49  1  0  0  0  0
 50 47  1  0  0  0  0
 51 53  1  0  0  0  0
 52 53  1  0  0  0  0
 53 49  1  0  0  0  0
 54 55  1  0  0  0  0
 55 56  1  0  0  0  0
 56 57  1  0  0  0  0
 57 60  1  0  0  0  0
 58 57  2  0  0  0  0
 60 59  1  0  0  0  0
 62 61  1  0  0  0  0
 64 63  1  0  0  0  0
 65 66  1  0  0  0  0
 66 64  1  0  0  0  0
 66 67  1  0  0  0  0
M  END
>  <MODEL>
3

>  <REMARK>
 VINA RESULT:      -0.8      2.176      3.154
  Name = 
  11 active torsions:
  status: ('A' for Active; 'I' for Inactive)
    1  A    between atoms: P_4  and  C_50
    2  A    between atoms: C_11  and  N_38
    3  A    between atoms: C_11  and  O_49
    4  A    between atoms: C_28  and  O_49
    5  A    between atoms: C_31  and  C_65
    6  A    between atoms: C_32  and  C_61
    7  A    between atoms: O_43  and  C_56
    8  A    between atoms: O_43  and  C_61
    9  A    between atoms: C_46  and  C_56
   10  A    between atoms: C_57  and  C_62
   11  A    between atoms: C_63  and  O_66
                            x       y       z     vdW  Elec       q    Type
                         _______ _______ _______ _____ _____    ______ ____

>  <TORSDO>
F 11

$$$$
