=
 OpenBabel11062417403D

 39 43  0  0  1  0  0  0  0  0999 V2000
  181.2390  176.9520  139.3910 F   0  0  0  0  0  0  0  0  0  0  0  0
  183.6180  178.5830  144.7810 N   0  0  0  0  0  0  0  0  0  0  0  0
  183.8340  178.7020  142.3800 C   0  0  0  0  0  0  0  0  0  0  0  0
  184.3900  178.4380  143.7420 C   0  0  0  0  0  0  0  0  0  0  0  0
  181.6870  178.0290  141.3680 C   0  0  0  0  0  3  0  0  0  0  0  0
  183.0360  178.6250  139.3630 C   0  0  0  0  0  0  0  0  0  0  0  0
  181.6430  179.1770  143.5300 C   0  0  0  0  0  3  0  0  0  0  0  0
  184.2070  178.9740  139.9160 C   0  0  0  0  0  3  0  0  0  0  0  0
  182.3710  179.0350  142.2260 C   0  0  1  0  0  3  0  0  0  0  0  0
  184.6390  178.7590  141.3120 C   0  0  0  0  0  3  0  0  0  0  0  0
  181.9850  177.8470  140.0800 C   0  0  0  0  0  0  0  0  0  0  0  0
  182.2400  178.9650  144.7020 C   0  0  0  0  0  3  0  0  0  0  0  0
  181.5840  179.6180  137.5240 C   0  0  0  0  0  0  0  0  0  0  0  0
  181.9640  176.8610  136.7690 C   0  0  0  0  0  2  0  0  0  0  0  0
  183.1950  177.7420  136.9950 C   0  0  0  0  0  2  0  0  0  0  0  0
  182.8830  178.9450  137.8970 C   0  0  2  0  0  3  0  0  0  0  0  0
  180.8970  179.1560  136.2560 C   0  0  1  0  0  3  0  0  0  0  0  0
  179.6040  177.2220  136.9230 O   0  0  0  0  0  1  0  0  0  0  0  0
  180.8320  181.6970  138.7900 O   0  0  0  0  0  0  0  0  0  0  0  0
  181.1970  180.6880  138.1750 C   0  0  0  0  0  0  0  0  0  0  0  0
  180.7440  177.6250  136.2240 C   0  0  2  0  0  3  0  0  0  0  0  0
  179.5850  179.8710  135.9110 C   0  0  0  0  0  2  0  0  0  0  0  0
  179.6980  180.6240  134.5940 C   0  0  0  0  0  2  0  0  0  0  0  0
  180.8040  182.6060  135.2090 O   0  0  0  0  0  0  0  0  0  0  0  0
  179.7610  182.0940  134.8390 C   0  0  0  0  0  3  0  0  0  0  0  0
  188.6620  177.2190  145.0770 C   0  0  0  0  0  0  0  0  0  0  0  0
  187.5060  177.5890  145.7450 C   0  0  0  0  0  3  0  0  0  0  0  0
  185.7960  178.0090  143.9660 C   0  0  2  0  0  3  0  0  0  0  0  0
  186.2580  177.9390  145.2690 C   0  0  0  0  0  3  0  0  0  0  0  0
  188.8290  177.1290  143.6740 C   0  0  2  0  0  3  0  0  0  0  0  0
  187.8610  177.3800  142.7590 N   0  0  0  0  0  0  0  0  0  0  0  0
  186.5640  177.7570  142.8350 C   0  0  0  0  0  3  0  0  0  0  0  0
  189.6380  176.9430  145.8250 O   0  0  0  0  0  0  0  0  0  0  0  0
  191.3160  177.7060  143.1170 C   0  0  2  0  0  3  0  0  0  0  0  0
  190.2070  176.7510  141.5270 C   0  0  0  0  0  2  0  0  0  0  0  0
  190.1520  176.7160  143.0440 C   0  0  2  0  0  3  0  0  0  0  0  0
  190.9250  179.0160  143.6180 N   0  0  0  0  0  1  0  0  0  0  0  0
  192.5370  177.0980  141.1630 O   0  0  0  0  0  1  0  0  0  0  0  0
  191.3710  177.7290  141.5970 C   0  0  2  0  0  3  0  0  0  0  0  0
  1 11  1  0  0  0  0
  3  4  1  0  0  0  0
  4  2  2  0  0  0  0
  6  8  2  0  0  0  0
  6 11  1  0  0  0  0
  7 12  2  0  0  0  0
  8 10  1  0  0  0  0
  9  5  1  6  0  0  0
  9  3  1  0  0  0  0
  9  7  1  0  0  0  0
 10  3  2  0  0  0  0
 11  5  2  0  0  0  0
 12  2  1  0  0  0  0
 13 16  1  0  0  0  0
 13 20  2  0  0  0  0
 14 15  1  0  0  0  0
 15 16  1  0  0  0  0
 16  6  1  1  0  0  0
 17 22  1  1  0  0  0
 17 13  1  0  0  0  0
 20 19  2  0  0  0  0
 21 17  1  0  0  0  0
 21 14  1  0  0  0  0
 21 18  1  1  0  0  0
 23 25  1  0  0  0  0
 23 22  1  0  0  0  0
 25 24  2  0  0  0  0
 26 27  1  0  0  0  0
 26 33  2  0  0  0  0
 28  4  1  6  0  0  0
 28 29  1  0  0  0  0
 29 27  2  0  0  0  0
 30 31  1  1  0  0  0
 30 26  1  0  0  0  0
 31 32  2  0  0  0  0
 32 28  1  0  0  0  0
 34 37  1  6  0  0  0
 35 39  1  0  0  0  0
 36 35  1  6  0  0  0
 36 34  1  0  0  0  0
 36 30  1  0  0  0  0
 39 38  1  1  0  0  0
 39 34  1  0  0  0  0
M  END
>  <MODEL>
1

>  <REMARK>
 VINA RESULT:      -8.3      0.000      0.000
  Name = 
  6 active torsions:
  status: ('A' for Active; 'I' for Inactive)
    1  A    between atoms: C_7  and  C_14
    2  A    between atoms: C_12  and  C_19
    3  A    between atoms: C_16  and  C_22
    4  A    between atoms: C_16  and  C_37
    5  A    between atoms: C_18  and  C_27
    6  A    between atoms: C_21  and  C_22
                            x       y       z     vdW  Elec       q    Type
                         _______ _______ _______ _____ _____    ______ ____

>  <TORSDO>
F 6

$$$$
=
 OpenBabel11062417403D

 39 43  0  0  1  0  0  0  0  0999 V2000
  189.1920  179.8180  138.2500 F   0  0  0  0  0  0  0  0  0  0  0  0
  189.4010  174.5620  135.1350 N   0  0  0  0  0  0  0  0  0  0  0  0
  189.7870  175.6480  137.2570 C   0  0  0  0  0  0  0  0  0  0  0  0
  190.2180  174.7670  136.1290 C   0  0  2  0  0  3  0  0  0  0  0  0
  188.6440  177.8350  137.2340 C   0  0  0  0  0  3  0  0  0  0  0  0
  189.5740  177.7650  139.5410 C   0  0  0  0  0  0  0  0  0  0  0  0
  187.6460  175.9890  135.9720 C   0  0  0  0  0  3  0  0  0  0  0  0
  190.2080  176.5820  139.5440 C   0  0  0  0  0  3  0  0  0  0  0  0
  188.4580  176.3580  137.1780 C   0  0  0  0  0  0  0  0  0  0  0  0
  190.5090  175.7230  138.3810 C   0  0  0  0  0  3  0  0  0  0  0  0
  189.1440  178.4660  138.2970 C   0  0  0  0  0  0  0  0  0  0  0  0
  188.1000  175.1530  135.0390 C   0  0  0  0  0  3  0  0  0  0  0  0
  190.1750  177.7590  142.0130 C   0  0  0  0  0  0  0  0  0  0  0  0
  187.2990  177.5550  141.9440 C   0  0  0  0  0  2  0  0  0  0  0  0
  187.9740  178.7390  141.2460 C   0  0  0  0  0  2  0  0  0  0  0  0
  189.4350  178.4360  140.8850 C   0  0  2  0  0  3  0  0  0  0  0  0
  189.4660  177.6480  143.3470 C   0  0  1  0  0  3  0  0  0  0  0  0
  188.1020  175.6580  143.1600 O   0  0  0  0  0  1  0  0  0  0  0  0
  192.6470  177.1990  141.7460 O   0  0  0  0  0  0  0  0  0  0  0  0
  191.4470  177.4710  141.8770 C   0  0  0  0  0  0  0  0  0  0  0  0
  188.0550  177.0530  143.1880 C   0  0  2  0  0  3  0  0  0  0  0  0
  190.2550  176.9610  144.4670 C   0  0  0  0  0  2  0  0  0  0  0  0
  189.7470  177.3820  145.8380 C   0  0  0  0  0  2  0  0  0  0  0  0
  191.8530  176.8890  146.7610 O   0  0  0  0  0  0  0  0  0  0  0  0
  190.6430  176.8550  146.9080 C   0  0  0  0  0  3  0  0  0  0  0  0
  194.0480  172.1560  135.9340 C   0  0  0  0  0  0  0  0  0  0  0  0
  192.6930  171.9030  135.7890 C   0  0  0  0  0  2  0  0  0  0  0  0
  191.5520  174.1110  136.0890 C   0  0  0  0  0  0  0  0  0  0  0  0
  191.6020  172.7470  135.8590 C   0  0  0  0  0  3  0  0  0  0  0  0
  194.6430  173.4090  136.2190 C   0  0  2  0  0  3  0  0  0  0  0  0
  193.9640  174.5720  136.3800 N   0  0  0  0  0  0  0  0  0  0  0  0
  192.6570  174.9170  136.3360 C   0  0  0  0  0  3  0  0  0  0  0  0
  194.7910  171.1490  135.7900 O   0  0  0  0  0  0  0  0  0  0  0  0
  196.7650  173.3190  137.7420 C   0  0  2  0  0  3  0  0  0  0  0  0
  196.6650  175.0010  136.3870 C   0  0  0  0  0  2  0  0  0  0  0  0
  196.1490  173.5730  136.3640 C   0  0  2  0  0  3  0  0  0  0  0  0
  195.7700  173.1460  138.7910 N   0  0  0  0  0  1  0  0  0  0  0  0
  198.6760  174.7380  137.6400 O   0  0  0  0  0  1  0  0  0  0  0  0
  197.2860  174.7480  137.7540 C   0  0  2  0  0  3  0  0  0  0  0  0
  1 11  1  0  0  0  0
  2  4  1  0  0  0  0
  3 10  2  0  0  0  0
  4 28  1  6  0  0  0
  4  3  1  0  0  0  0
  5 11  2  0  0  0  0
  6  8  2  0  0  0  0
  7  9  2  0  0  0  0
  9  5  1  0  0  0  0
  9  3  1  0  0  0  0
 10  8  1  0  0  0  0
 11  6  1  0  0  0  0
 12  2  2  0  0  0  0
 12  7  1  0  0  0  0
 13 17  1  0  0  0  0
 14 21  1  0  0  0  0
 15 14  1  0  0  0  0
 16  6  1  6  0  0  0
 16 15  1  0  0  0  0
 16 13  1  0  0  0  0
 17 22  1  1  0  0  0
 19 20  2  0  0  0  0
 20 13  2  0  0  0  0
 21 18  1  6  0  0  0
 21 17  1  0  0  0  0
 22 23  1  0  0  0  0
 23 25  1  0  0  0  0
 24 25  2  0  0  0  0
 27 29  1  0  0  0  0
 27 26  1  0  0  0  0
 28 32  1  0  0  0  0
 29 28  2  0  0  0  0
 30 26  1  6  0  0  0
 30 36  1  0  0  0  0
 30 31  1  0  0  0  0
 32 31  2  0  0  0  0
 33 26  2  0  0  0  0
 34 39  1  0  0  0  0
 34 37  1  1  0  0  0
 35 39  1  0  0  0  0
 36 35  1  1  0  0  0
 36 34  1  0  0  0  0
 39 38  1  6  0  0  0
M  END
>  <MODEL>
2

>  <REMARK>
 VINA RESULT:      -8.0      6.411     10.486
  Name = 
  6 active torsions:
  status: ('A' for Active; 'I' for Inactive)
    1  A    between atoms: C_7  and  C_14
    2  A    between atoms: C_12  and  C_19
    3  A    between atoms: C_16  and  C_22
    4  A    between atoms: C_16  and  C_37
    5  A    between atoms: C_18  and  C_27
    6  A    between atoms: C_21  and  C_22
                            x       y       z     vdW  Elec       q    Type
                         _______ _______ _______ _____ _____    ______ ____

>  <TORSDO>
F 6

$$$$
=
 OpenBabel11062417403D

 39 43  0  0  1  0  0  0  0  0999 V2000
  184.4760  175.5940  136.7730 F   0  0  0  0  0  0  0  0  0  0  0  0
  181.8210  179.0040  141.0970 N   0  0  0  0  0  0  0  0  0  0  0  0
  183.8510  178.5500  139.8710 C   0  0  0  0  0  0  0  0  0  0  0  0
  183.1000  178.7640  141.1460 C   0  0  0  0  0  0  0  0  0  0  0  0
  183.2780  177.2070  137.8820 C   0  0  0  0  0  3  0  0  0  0  0  0
  185.7270  177.5430  137.5890 C   0  0  0  0  0  0  0  0  0  0  0  0
  181.6390  178.8330  138.6980 C   0  0  0  0  0  3  0  0  0  0  0  0
  186.0370  178.2580  138.6810 C   0  0  0  0  0  3  0  0  0  0  0  0
  183.1000  178.5190  138.5630 C   0  0  0  0  0  0  0  0  0  0  0  0
  185.1880  178.5010  139.8650 C   0  0  0  0  0  3  0  0  0  0  0  0
  184.4600  176.7700  137.4430 C   0  0  0  0  0  0  0  0  0  0  0  0
  181.0670  179.0560  139.8800 C   0  0  0  0  0  3  0  0  0  0  0  0
  187.8280  176.3520  136.7900 C   0  0  0  0  0  0  0  0  0  0  0  0
  188.6300  179.0930  137.1910 C   0  0  0  0  0  2  0  0  0  0  0  0
  187.4680  178.7940  136.2400 C   0  0  0  0  0  2  0  0  0  0  0  0
  186.8110  177.4400  136.5450 C   0  0  2  0  0  3  0  0  0  0  0  0
  189.2830  176.6840  136.5270 C   0  0  1  0  0  3  0  0  0  0  0  0
  190.0530  177.7440  138.5620 O   0  0  0  0  0  1  0  0  0  0  0  0
  187.0460  173.9700  137.2440 O   0  0  0  0  0  0  0  0  0  0  0  0
  187.4260  175.1260  137.0220 C   0  0  0  0  0  0  0  0  0  0  0  0
  189.7000  177.9870  137.2330 C   0  0  2  0  0  3  0  0  0  0  0  0
  190.2820  175.5490  136.7810 C   0  0  0  0  0  2  0  0  0  0  0  0
  191.6320  175.8510  136.1470 C   0  0  0  0  0  2  0  0  0  0  0  0
  193.3220  176.7610  137.5040 O   0  0  0  0  0  0  0  0  0  0  0  0
  192.7170  175.7580  137.1660 C   0  0  0  0  0  3  0  0  0  0  0  0
  184.5420  178.7170  145.5550 C   0  0  0  0  0  0  0  0  0  0  0  0
  183.3040  178.8200  144.9410 C   0  0  0  0  0  3  0  0  0  0  0  0
  183.7540  178.7110  142.4800 C   0  0  0  0  0  0  0  0  0  0  0  0
  182.9550  178.8230  143.6050 C   0  0  0  0  0  3  0  0  0  0  0  0
  185.7950  178.6010  144.9060 C   0  0  2  0  0  3  0  0  0  0  0  0
  185.9720  178.5570  143.5630 N   0  0  0  0  0  0  0  0  0  0  0  0
  185.1400  178.6020  142.4980 C   0  0  0  0  0  3  0  0  0  0  0  0
  184.5090  178.7300  146.8150 O   0  0  0  0  0  0  0  0  0  0  0  0
  188.1390  177.4840  145.2030 C   0  0  2  0  0  3  0  0  0  0  0  0
  187.0230  177.7980  147.0270 C   0  0  0  0  0  2  0  0  0  0  0  0
  187.1000  178.5000  145.6830 C   0  0  2  0  0  3  0  0  0  0  0  0
  187.6370  176.5970  144.1630 N   0  0  0  0  0  1  0  0  0  0  0  0
  189.2560  176.9930  147.2500 O   0  0  0  0  0  1  0  0  0  0  0  0
  188.0630  176.7920  146.5550 C   0  0  2  0  0  3  0  0  0  0  0  0
  1 11  1  0  0  0  0
  2  4  1  0  0  0  0
  3  4  1  0  0  0  0
  4 28  2  0  0  0  0
  5  9  1  0  0  0  0
  6  8  2  0  0  0  0
  7 12  1  0  0  0  0
  8 10  1  0  0  0  0
  9  7  2  0  0  0  0
  9  3  1  0  0  0  0
 10  3  2  0  0  0  0
 11  6  1  0  0  0  0
 11  5  2  0  0  0  0
 12  2  2  0  0  0  0
 13 20  2  0  0  0  0
 14 21  1  0  0  0  0
 15 16  1  0  0  0  0
 15 14  1  0  0  0  0
 16 13  1  0  0  0  0
 16  6  1  1  0  0  0
 17 22  1  1  0  0  0
 17 13  1  0  0  0  0
 17 21  1  0  0  0  0
 20 19  2  0  0  0  0
 21 18  1  1  0  0  0
 23 22  1  0  0  0  0
 23 25  1  0  0  0  0
 25 24  2  0  0  0  0
 26 33  2  0  0  0  0
 27 26  1  0  0  0  0
 28 32  1  0  0  0  0
 28 29  1  0  0  0  0
 29 27  2  0  0  0  0
 30 31  1  1  0  0  0
 30 26  1  0  0  0  0
 30 36  1  0  0  0  0
 32 31  2  0  0  0  0
 34 37  1  6  0  0  0
 34 36  1  0  0  0  0
 34 39  1  0  0  0  0
 36 35  1  1  0  0  0
 39 35  1  0  0  0  0
 39 38  1  1  0  0  0
M  END
>  <MODEL>
3

>  <REMARK>
 VINA RESULT:      -7.9      3.619      6.686
  Name = 
  6 active torsions:
  status: ('A' for Active; 'I' for Inactive)
    1  A    between atoms: C_7  and  C_14
    2  A    between atoms: C_12  and  C_19
    3  A    between atoms: C_16  and  C_22
    4  A    between atoms: C_16  and  C_37
    5  A    between atoms: C_18  and  C_27
    6  A    between atoms: C_21  and  C_22
                            x       y       z     vdW  Elec       q    Type
                         _______ _______ _______ _____ _____    ______ ____

>  <TORSDO>
F 6

$$$$
=
 OpenBabel11062417403D

 39 43  0  0  1  0  0  0  0  0999 V2000
  182.6010  176.8840  140.2060 F   0  0  0  0  0  0  0  0  0  0  0  0
  185.3860  178.3060  145.4590 N   0  0  0  0  0  0  0  0  0  0  0  0
  185.3820  178.5720  143.0600 C   0  0  0  0  0  0  0  0  0  0  0  0
  186.0670  178.2550  144.3500 C   0  0  0  0  0  0  0  0  0  0  0  0
  183.1810  177.8640  142.1990 C   0  0  0  0  0  3  0  0  0  0  0  0
  184.3210  178.6340  140.1240 C   0  0  0  0  0  0  0  0  0  0  0  0
  183.2860  178.8830  144.4230 C   0  0  0  0  0  3  0  0  0  0  0  0
  185.5230  179.0010  140.5940 C   0  0  0  0  0  3  0  0  0  0  0  0
  183.8990  178.8490  143.0540 C   0  0  1  0  0  3  0  0  0  0  0  0
  186.0860  178.7260  141.9320 C   0  0  0  0  0  3  0  0  0  0  0  0
  183.3700  177.7690  140.8810 C   0  0  0  0  0  0  0  0  0  0  0  0
  183.9920  178.6300  145.5230 C   0  0  0  0  0  3  0  0  0  0  0  0
  182.5610  179.1860  138.3730 C   0  0  0  0  0  0  0  0  0  0  0  0
  183.9600  176.8910  137.3280 C   0  0  0  0  0  2  0  0  0  0  0  0
  184.7590  178.1490  137.6780 C   0  0  0  0  0  2  0  0  0  0  0  0
  184.0260  179.0300  138.7000 C   0  0  2  0  0  3  0  0  0  0  0  0
  182.0780  178.6380  137.0460 C   0  0  1  0  0  3  0  0  0  0  0  0
  181.6470  176.2940  137.4650 O   0  0  0  0  0  1  0  0  0  0  0  0
  181.0900  180.6590  139.8430 O   0  0  0  0  0  0  0  0  0  0  0  0
  181.8040  179.9450  139.1280 C   0  0  0  0  0  0  0  0  0  0  0  0
  182.5280  177.1800  136.8410 C   0  0  2  0  0  3  0  0  0  0  0  0
  180.5850  178.8250  136.7510 C   0  0  0  0  0  2  0  0  0  0  0  0
  180.3670  179.8060  135.6090 C   0  0  0  0  0  2  0  0  0  0  0  0
  179.2790  181.8120  136.1770 O   0  0  0  0  0  0  0  0  0  0  0  0
  180.3360  181.2050  136.1250 C   0  0  0  0  0  3  0  0  0  0  0  0
  190.4880  176.9070  143.9480 C   0  0  0  0  0  0  0  0  0  0  0  0
  189.4290  177.0350  143.0640 C   0  0  0  0  0  2  0  0  0  0  0  0
  187.5030  177.8770  144.4240 C   0  0  0  0  0  0  0  0  0  0  0  0
  188.1270  177.4510  143.2640 C   0  0  0  0  0  3  0  0  0  0  0  0
  190.4590  177.1780  145.3380 C   0  0  2  0  0  3  0  0  0  0  0  0
  189.3760  177.6250  146.0190 N   0  0  0  0  0  0  0  0  0  0  0  0
  188.1050  177.9330  145.6760 C   0  0  0  0  0  3  0  0  0  0  0  0
  191.5650  176.5110  143.4280 O   0  0  0  0  0  0  0  0  0  0  0  0
  192.3370  175.6130  146.2620 C   0  0  2  0  0  3  0  0  0  0  0  0
  191.4270  176.9290  147.7150 C   0  0  0  0  0  2  0  0  0  0  0  0
  191.6860  176.9970  146.2210 C   0  0  2  0  0  3  0  0  0  0  0  0
  191.5510  174.5890  145.5870 N   0  0  0  0  0  1  0  0  0  0  0  0
  193.2960  175.6400  148.4430 O   0  0  0  0  0  1  0  0  0  0  0  0
  192.0820  175.5550  147.7600 C   0  0  2  0  0  3  0  0  0  0  0  0
  1 11  1  0  0  0  0
  2 12  1  0  0  0  0
  3  4  1  0  0  0  0
  4 28  1  0  0  0  0
  4  2  2  0  0  0  0
  6  8  2  0  0  0  0
  6 11  1  0  0  0  0
  7 12  2  0  0  0  0
  8 10  1  0  0  0  0
  9  5  1  6  0  0  0
  9  3  1  0  0  0  0
  9  7  1  0  0  0  0
 10  3  2  0  0  0  0
 11  5  2  0  0  0  0
 13 16  1  0  0  0  0
 13 20  2  0  0  0  0
 14 15  1  0  0  0  0
 15 16  1  0  0  0  0
 16  6  1  1  0  0  0
 17 22  1  1  0  0  0
 17 13  1  0  0  0  0
 20 19  2  0  0  0  0
 21 17  1  0  0  0  0
 21 14  1  0  0  0  0
 21 18  1  1  0  0  0
 23 25  1  0  0  0  0
 23 22  1  0  0  0  0
 25 24  2  0  0  0  0
 27 29  1  0  0  0  0
 27 26  1  0  0  0  0
 28 32  1  0  0  0  0
 29 28  2  0  0  0  0
 30 26  1  6  0  0  0
 30 31  1  0  0  0  0
 30 36  1  0  0  0  0
 32 31  2  0  0  0  0
 33 26  2  0  0  0  0
 34 37  1  6  0  0  0
 34 39  1  0  0  0  0
 35 39  1  0  0  0  0
 36 34  1  0  0  0  0
 36 35  1  1  0  0  0
 39 38  1  1  0  0  0
M  END
>  <MODEL>
4

>  <REMARK>
 VINA RESULT:      -7.8      2.133      2.905
  Name = 
  6 active torsions:
  status: ('A' for Active; 'I' for Inactive)
    1  A    between atoms: C_7  and  C_14
    2  A    between atoms: C_12  and  C_19
    3  A    between atoms: C_16  and  C_22
    4  A    between atoms: C_16  and  C_37
    5  A    between atoms: C_18  and  C_27
    6  A    between atoms: C_21  and  C_22
                            x       y       z     vdW  Elec       q    Type
                         _______ _______ _______ _____ _____    ______ ____

>  <TORSDO>
F 6

$$$$
=
 OpenBabel11062417403D

 39 43  0  0  1  0  0  0  0  0999 V2000
  191.3430  175.9620  139.9170 F   0  0  0  0  0  0  0  0  0  0  0  0
  186.6040  178.7490  137.2420 N   0  0  0  0  0  0  0  0  0  0  0  0
  187.7700  178.3280  139.3140 C   0  0  0  0  0  0  0  0  0  0  0  0
  186.5260  178.3730  138.4870 C   0  0  2  0  0  3  0  0  0  0  0  0
  190.0150  177.4520  138.7840 C   0  0  0  0  0  3  0  0  0  0  0  0
  190.0870  177.5810  141.2690 C   0  0  0  0  0  0  0  0  0  0  0  0
  188.9970  179.0540  137.2370 C   0  0  0  0  0  3  0  0  0  0  0  0
  188.8590  178.0420  141.5540 C   0  0  0  0  0  3  0  0  0  0  0  0
  189.1010  178.6220  138.6700 C   0  0  0  0  0  0  0  0  0  0  0  0
  187.7040  178.1430  140.6380 C   0  0  0  0  0  3  0  0  0  0  0  0
  190.4580  176.9860  139.9530 C   0  0  0  0  0  0  0  0  0  0  0  0
  187.8310  179.1070  136.5950 C   0  0  0  0  0  3  0  0  0  0  0  0
  190.7090  176.6190  143.5400 C   0  0  0  0  0  0  0  0  0  0  0  0
  190.3970  179.4510  143.9880 C   0  0  0  0  0  2  0  0  0  0  0  0
  191.3950  178.9760  142.9290 C   0  0  0  0  0  2  0  0  0  0  0  0
  191.0630  177.5660  142.4180 C   0  0  2  0  0  3  0  0  0  0  0  0
  190.9060  177.1120  144.9580 C   0  0  1  0  0  3  0  0  0  0  0  0
  188.8860  178.3410  145.4730 O   0  0  0  0  0  1  0  0  0  0  0  0
  190.1850  174.1820  143.0160 O   0  0  0  0  0  0  0  0  0  0  0  0
  190.4410  175.3650  143.2710 C   0  0  0  0  0  0  0  0  0  0  0  0
  190.2430  178.4840  145.1760 C   0  0  2  0  0  3  0  0  0  0  0  0
  190.5430  176.1180  146.0660 C   0  0  0  0  0  2  0  0  0  0  0  0
  191.1230  176.5480  147.4060 C   0  0  0  0  0  2  0  0  0  0  0  0
  193.1250  176.1560  148.5760 O   0  0  0  0  0  0  0  0  0  0  0  0
  192.3550  175.7660  147.7140 C   0  0  0  0  0  3  0  0  0  0  0  0
  182.3220  176.7980  139.6570 C   0  0  0  0  0  0  0  0  0  0  0  0
  183.2430  176.4660  138.6770 C   0  0  0  0  0  2  0  0  0  0  0  0
  185.1900  178.0010  139.0250 C   0  0  0  0  0  0  0  0  0  0  0  0
  184.4900  176.9880  138.3930 C   0  0  0  0  0  3  0  0  0  0  0  0
  182.4600  177.8180  140.6300 C   0  0  2  0  0  3  0  0  0  0  0  0
  183.5420  178.6250  140.7600 N   0  0  0  0  0  0  0  0  0  0  0  0
  184.7190  178.7410  140.1030 C   0  0  0  0  0  3  0  0  0  0  0  0
  181.2710  176.1030  139.6510 O   0  0  0  0  0  0  0  0  0  0  0  0
  180.2310  179.0310  141.2520 C   0  0  2  0  0  3  0  0  0  0  0  0
  181.7570  179.0530  142.7830 C   0  0  0  0  0  2  0  0  0  0  0  0
  181.3770  178.1030  141.6610 C   0  0  2  0  0  3  0  0  0  0  0  0
  180.4500  179.6830  139.9690 N   0  0  0  0  0  1  0  0  0  0  0  0
  179.6250  179.9420  143.3690 O   0  0  0  0  0  1  0  0  0  0  0  0
  180.6120  179.9730  142.3840 C   0  0  2  0  0  3  0  0  0  0  0  0
  1 11  1  0  0  0  0
  2  4  1  0  0  0  0
  3 10  2  0  0  0  0
  4 28  1  6  0  0  0
  4  3  1  0  0  0  0
  5 11  2  0  0  0  0
  6  8  2  0  0  0  0
  7  9  2  0  0  0  0
  9  5  1  0  0  0  0
  9  3  1  0  0  0  0
 10  8  1  0  0  0  0
 11  6  1  0  0  0  0
 12  7  1  0  0  0  0
 12  2  2  0  0  0  0
 13 17  1  0  0  0  0
 14 21  1  0  0  0  0
 15 14  1  0  0  0  0
 16  6  1  6  0  0  0
 16 15  1  0  0  0  0
 16 13  1  0  0  0  0
 17 21  1  0  0  0  0
 17 22  1  1  0  0  0
 19 20  2  0  0  0  0
 20 13  2  0  0  0  0
 21 18  1  6  0  0  0
 22 23  1  0  0  0  0
 23 25  1  0  0  0  0
 25 24  2  0  0  0  0
 27 26  1  0  0  0  0
 28 32  1  0  0  0  0
 29 27  1  0  0  0  0
 29 28  2  0  0  0  0
 30 26  1  1  0  0  0
 30 31  1  0  0  0  0
 30 36  1  0  0  0  0
 32 31  2  0  0  0  0
 33 26  2  0  0  0  0
 34 37  1  6  0  0  0
 34 36  1  0  0  0  0
 34 39  1  0  0  0  0
 36 35  1  1  0  0  0
 39 35  1  0  0  0  0
 39 38  1  1  0  0  0
M  END
>  <MODEL>
5

>  <REMARK>
 VINA RESULT:      -7.6      3.934     10.605
  Name = 
  6 active torsions:
  status: ('A' for Active; 'I' for Inactive)
    1  A    between atoms: C_7  and  C_14
    2  A    between atoms: C_12  and  C_19
    3  A    between atoms: C_16  and  C_22
    4  A    between atoms: C_16  and  C_37
    5  A    between atoms: C_18  and  C_27
    6  A    between atoms: C_21  and  C_22
                            x       y       z     vdW  Elec       q    Type
                         _______ _______ _______ _____ _____    ______ ____

>  <TORSDO>
F 6

$$$$
=
 OpenBabel11062417403D

 39 43  0  0  1  0  0  0  0  0999 V2000
  180.2570  174.8870  138.9500 F   0  0  0  0  0  0  0  0  0  0  0  0
  181.7150  179.3170  142.9020 N   0  0  0  0  0  0  0  0  0  0  0  0
  182.4030  178.0650  140.9560 C   0  0  0  0  0  0  0  0  0  0  0  0
  182.6520  178.6250  142.3190 C   0  0  0  0  0  0  0  0  0  0  0  0
  180.4300  176.8990  140.0400 C   0  0  0  0  0  3  0  0  0  0  0  0
  182.1980  176.2850  138.3990 C   0  0  0  0  0  0  0  0  0  0  0  0
  180.0970  179.0660  141.1310 C   0  0  0  0  0  3  0  0  0  0  0  0
  183.2720  176.9070  138.9100 C   0  0  0  0  0  3  0  0  0  0  0  0
  181.0430  178.2260  140.3230 C   0  0  1  0  0  3  0  0  0  0  0  0
  183.4000  177.5250  140.2450 C   0  0  0  0  0  3  0  0  0  0  0  0
  180.9500  176.0280  139.1730 C   0  0  0  0  0  0  0  0  0  0  0  0
  180.4290  179.5630  142.3220 C   0  0  0  0  0  3  0  0  0  0  0  0
  183.7160  175.0970  136.7390 C   0  0  0  0  0  0  0  0  0  0  0  0
  183.1050  177.6340  135.5100 C   0  0  0  0  0  2  0  0  0  0  0  0
  181.9520  176.7110  135.9150 C   0  0  0  0  0  2  0  0  0  0  0  0
  182.3680  175.7200  137.0110 C   0  0  2  0  0  3  0  0  0  0  0  0
  184.3560  175.3770  135.3950 C   0  0  1  0  0  3  0  0  0  0  0  0
  185.4880  177.4970  135.6780 O   0  0  0  0  0  1  0  0  0  0  0  0
  184.6460  173.3480  138.3410 O   0  0  0  0  0  0  0  0  0  0  0  0
  184.1940  174.1960  137.5620 C   0  0  0  0  0  0  0  0  0  0  0  0
  184.3820  176.8840  135.0850 C   0  0  2  0  0  3  0  0  0  0  0  0
  185.7200  174.7190  135.1560 C   0  0  0  0  0  2  0  0  0  0  0  0
  185.5650  173.3040  134.6200 C   0  0  0  0  0  2  0  0  0  0  0  0
  186.3200  171.1570  135.2090 O   0  0  0  0  0  0  0  0  0  0  0  0
  186.4180  172.3580  135.3950 C   0  0  0  0  0  3  0  0  0  0  0  0
  186.3380  178.2510  145.1120 C   0  0  0  0  0  0  0  0  0  0  0  0
  185.0200  178.6410  145.2920 C   0  0  0  0  0  3  0  0  0  0  0  0
  183.9330  178.4240  143.0470 C   0  0  2  0  0  3  0  0  0  0  0  0
  183.9700  178.7220  144.3980 C   0  0  0  0  0  3  0  0  0  0  0  0
  186.9340  177.8440  143.8940 C   0  0  2  0  0  3  0  0  0  0  0  0
  186.2890  177.7570  142.7040 N   0  0  0  0  0  0  0  0  0  0  0  0
  185.0210  177.9930  142.2980 C   0  0  0  0  0  3  0  0  0  0  0  0
  187.0420  178.2750  146.1560 O   0  0  0  0  0  0  0  0  0  0  0  0
  189.2560  178.0930  142.7200 C   0  0  2  0  0  3  0  0  0  0  0  0
  188.6810  176.0700  143.2200 C   0  0  0  0  0  2  0  0  0  0  0  0
  188.4000  177.4410  143.8080 C   0  0  2  0  0  3  0  0  0  0  0  0
  188.4780  178.8770  141.7710 N   0  0  0  0  0  1  0  0  0  0  0  0
  190.8800  176.3890  142.3560 O   0  0  0  0  0  1  0  0  0  0  0  0
  189.5410  176.7160  142.1420 C   0  0  2  0  0  3  0  0  0  0  0  0
  1 11  1  0  0  0  0
  3  4  1  0  0  0  0
  4  2  2  0  0  0  0
  6  8  2  0  0  0  0
  6 11  1  0  0  0  0
  7 12  2  0  0  0  0
  8 10  1  0  0  0  0
  9  5  1  1  0  0  0
  9  3  1  0  0  0  0
  9  7  1  0  0  0  0
 10  3  2  0  0  0  0
 11  5  2  0  0  0  0
 12  2  1  0  0  0  0
 13 16  1  0  0  0  0
 13 20  2  0  0  0  0
 14 15  1  0  0  0  0
 15 16  1  0  0  0  0
 16  6  1  1  0  0  0
 17 22  1  1  0  0  0
 17 13  1  0  0  0  0
 20 19  2  0  0  0  0
 21 17  1  0  0  0  0
 21 14  1  0  0  0  0
 21 18  1  1  0  0  0
 23 22  1  0  0  0  0
 23 25  1  0  0  0  0
 24 25  2  0  0  0  0
 26 27  1  0  0  0  0
 26 33  2  0  0  0  0
 28  4  1  6  0  0  0
 28 29  1  0  0  0  0
 29 27  2  0  0  0  0
 30 31  1  1  0  0  0
 30 26  1  0  0  0  0
 32 31  2  0  0  0  0
 32 28  1  0  0  0  0
 34 37  1  6  0  0  0
 34 36  1  0  0  0  0
 36 35  1  6  0  0  0
 36 30  1  0  0  0  0
 39 38  1  1  0  0  0
 39 34  1  0  0  0  0
 39 35  1  0  0  0  0
M  END
>  <MODEL>
6

>  <REMARK>
 VINA RESULT:      -7.1      3.048      4.701
  Name = 
  6 active torsions:
  status: ('A' for Active; 'I' for Inactive)
    1  A    between atoms: C_7  and  C_14
    2  A    between atoms: C_12  and  C_19
    3  A    between atoms: C_16  and  C_22
    4  A    between atoms: C_16  and  C_37
    5  A    between atoms: C_18  and  C_27
    6  A    between atoms: C_21  and  C_22
                            x       y       z     vdW  Elec       q    Type
                         _______ _______ _______ _____ _____    ______ ____

>  <TORSDO>
F 6

$$$$
=
 OpenBabel11062417403D

 39 43  0  0  1  0  0  0  0  0999 V2000
  181.7460  175.6610  138.9710 F   0  0  0  0  0  0  0  0  0  0  0  0
  182.7750  179.0660  143.9440 N   0  0  0  0  0  0  0  0  0  0  0  0
  183.6210  178.3470  141.8000 C   0  0  0  0  0  0  0  0  0  0  0  0
  183.7750  178.5730  143.2690 C   0  0  0  0  0  0  0  0  0  0  0  0
  181.7590  177.3570  140.5180 C   0  0  0  0  0  3  0  0  0  0  0  0
  183.6340  177.2280  138.8850 C   0  0  0  0  0  0  0  0  0  0  0  0
  181.2590  179.1820  142.0720 C   0  0  0  0  0  3  0  0  0  0  0  0
  184.6480  177.7510  139.5920 C   0  0  0  0  0  3  0  0  0  0  0  0
  182.2860  178.6010  141.1450 C   0  0  1  0  0  3  0  0  0  0  0  0
  184.6790  178.0340  141.0420 C   0  0  0  0  0  3  0  0  0  0  0  0
  182.3660  176.7420  139.5010 C   0  0  0  0  0  0  0  0  0  0  0  0
  181.5070  179.3910  143.3640 C   0  0  0  0  0  3  0  0  0  0  0  0
  184.6430  175.7500  137.0770 C   0  0  0  0  0  0  0  0  0  0  0  0
  186.0500  178.2580  136.8640 C   0  0  0  0  0  2  0  0  0  0  0  0
  184.5240  178.2550  136.7480 C   0  0  0  0  0  2  0  0  0  0  0  0
  183.9000  177.0200  137.4160 C   0  0  2  0  0  3  0  0  0  0  0  0
  185.7310  175.8360  136.0270 C   0  0  1  0  0  3  0  0  0  0  0  0
  187.6990  176.5640  137.2320 O   0  0  0  0  0  1  0  0  0  0  0  0
  183.8010  173.5180  137.9720 O   0  0  0  0  0  0  0  0  0  0  0  0
  184.2100  174.6020  137.5360 C   0  0  0  0  0  0  0  0  0  0  0  0
  186.7180  176.9780  136.3290 C   0  0  2  0  0  3  0  0  0  0  0  0
  186.4540  174.5230  135.7070 C   0  0  0  0  0  2  0  0  0  0  0  0
  187.4820  174.7140  134.6020 C   0  0  0  0  0  2  0  0  0  0  0  0
  188.5910  172.7370  135.2300 O   0  0  0  0  0  0  0  0  0  0  0  0
  188.7010  173.9000  134.8800 C   0  0  0  0  0  3  0  0  0  0  0  0
  187.4170  177.9040  146.0640 C   0  0  0  0  0  0  0  0  0  0  0  0
  186.1630  178.4710  146.2240 C   0  0  0  0  0  3  0  0  0  0  0  0
  185.0280  178.2540  144.0030 C   0  0  2  0  0  3  0  0  0  0  0  0
  185.1210  178.6310  145.3320 C   0  0  0  0  0  3  0  0  0  0  0  0
  187.9400  177.3450  144.8720 C   0  0  2  0  0  3  0  0  0  0  0  0
  187.2740  177.2670  143.6940 N   0  0  0  0  0  0  0  0  0  0  0  0
  186.0420  177.6390  143.2790 C   0  0  0  0  0  3  0  0  0  0  0  0
  188.1320  177.9020  147.1010 O   0  0  0  0  0  0  0  0  0  0  0  0
  190.5100  177.7100  144.5690 C   0  0  2  0  0  3  0  0  0  0  0  0
  189.6870  176.0000  143.5330 C   0  0  0  0  0  2  0  0  0  0  0  0
  189.3410  176.7520  144.8060 C   0  0  2  0  0  3  0  0  0  0  0  0
  190.0860  179.0620  144.2330 N   0  0  0  0  0  1  0  0  0  0  0  0
  192.0560  176.2580  143.4820 O   0  0  0  0  0  1  0  0  0  0  0  0
  190.8560  176.9470  143.3000 C   0  0  2  0  0  3  0  0  0  0  0  0
  1 11  1  0  0  0  0
  3  4  1  0  0  0  0
  4  2  2  0  0  0  0
  6 11  1  0  0  0  0
  6  8  2  0  0  0  0
  7 12  2  0  0  0  0
  8 10  1  0  0  0  0
  9  5  1  1  0  0  0
  9  3  1  0  0  0  0
  9  7  1  0  0  0  0
 10  3  2  0  0  0  0
 11  5  2  0  0  0  0
 12  2  1  0  0  0  0
 13 16  1  0  0  0  0
 13 20  2  0  0  0  0
 15 14  1  0  0  0  0
 15 16  1  0  0  0  0
 16  6  1  1  0  0  0
 17 22  1  1  0  0  0
 17 21  1  0  0  0  0
 17 13  1  0  0  0  0
 20 19  2  0  0  0  0
 21 14  1  0  0  0  0
 21 18  1  1  0  0  0
 23 25  1  0  0  0  0
 23 22  1  0  0  0  0
 25 24  2  0  0  0  0
 26 27  1  0  0  0  0
 26 33  2  0  0  0  0
 28  4  1  6  0  0  0
 28 29  1  0  0  0  0
 29 27  2  0  0  0  0
 30 31  1  1  0  0  0
 30 26  1  0  0  0  0
 32 31  2  0  0  0  0
 32 28  1  0  0  0  0
 34 37  1  6  0  0  0
 34 36  1  0  0  0  0
 36 35  1  6  0  0  0
 36 30  1  0  0  0  0
 39 38  1  1  0  0  0
 39 35  1  0  0  0  0
 39 34  1  0  0  0  0
M  END
>  <MODEL>
7

>  <REMARK>
 VINA RESULT:      -7.0      3.211      4.654
  Name = 
  6 active torsions:
  status: ('A' for Active; 'I' for Inactive)
    1  A    between atoms: C_7  and  C_14
    2  A    between atoms: C_12  and  C_19
    3  A    between atoms: C_16  and  C_22
    4  A    between atoms: C_16  and  C_37
    5  A    between atoms: C_18  and  C_27
    6  A    between atoms: C_21  and  C_22
                            x       y       z     vdW  Elec       q    Type
                         _______ _______ _______ _____ _____    ______ ____

>  <TORSDO>
F 6

$$$$
=
 OpenBabel11062417403D

 39 43  0  0  1  0  0  0  0  0999 V2000
  190.0750  174.1430  134.7520 F   0  0  0  0  0  0  0  0  0  0  0  0
  187.9100  178.3640  138.6080 N   0  0  0  0  0  0  0  0  0  0  0  0
  189.8780  177.2670  137.7410 C   0  0  0  0  0  0  0  0  0  0  0  0
  189.0270  177.7480  138.8710 C   0  0  2  0  0  3  0  0  0  0  0  0
  189.2620  176.0860  135.6630 C   0  0  0  0  0  3  0  0  0  0  0  0
  191.7090  175.6480  135.7980 C   0  0  0  0  0  0  0  0  0  0  0  0
  188.0870  178.1630  136.2110 C   0  0  0  0  0  3  0  0  0  0  0  0
  192.0360  176.2770  136.9370 C   0  0  0  0  0  3  0  0  0  0  0  0
  189.3830  177.4150  136.3230 C   0  0  0  0  0  0  0  0  0  0  0  0
  191.1170  176.8130  137.9620 C   0  0  0  0  0  3  0  0  0  0  0  0
  190.3090  175.2930  135.4270 C   0  0  0  0  0  0  0  0  0  0  0  0
  187.4220  178.5950  137.2810 C   0  0  0  0  0  3  0  0  0  0  0  0
  193.5870  173.9620  135.4810 C   0  0  0  0  0  0  0  0  0  0  0  0
  194.9030  176.5210  135.6690 C   0  0  0  0  0  2  0  0  0  0  0  0
  193.8330  176.3180  134.5940 C   0  0  0  0  0  2  0  0  0  0  0  0
  192.8670  175.1800  134.9530 C   0  0  2  0  0  3  0  0  0  0  0  0
  195.1000  173.9590  135.4080 C   0  0  1  0  0  3  0  0  0  0  0  0
  195.8180  175.1400  137.3940 O   0  0  0  0  0  1  0  0  0  0  0  0
  192.2590  171.8750  136.0910 O   0  0  0  0  0  0  0  0  0  0  0  0
  192.9050  172.8880  135.7940 C   0  0  0  0  0  0  0  0  0  0  0  0
  195.6960  175.2460  136.0070 C   0  0  2  0  0  3  0  0  0  0  0  0
  195.7910  172.7020  135.9460 C   0  0  0  0  0  2  0  0  0  0  0  0
  197.2340  172.6180  135.4700 C   0  0  0  0  0  2  0  0  0  0  0  0
  198.4980  173.1600  137.3780 O   0  0  0  0  0  0  0  0  0  0  0  0
  198.1380  172.2850  136.6090 C   0  0  0  0  0  3  0  0  0  0  0  0
  190.8160  177.1360  143.1080 C   0  0  0  0  0  0  0  0  0  0  0  0
  191.3540  177.3630  141.8510 C   0  0  0  0  0  3  0  0  0  0  0  0
  189.4000  177.5500  140.2970 C   0  0  2  0  0  3  0  0  0  0  0  0
  190.7450  177.5400  140.6240 C   0  0  0  0  0  3  0  0  0  0  0  0
  189.4410  177.0110  143.4220 C   0  0  2  0  0  3  0  0  0  0  0  0
  188.4270  177.1130  142.5280 N   0  0  0  0  0  0  0  0  0  0  0  0
  188.3620  177.3390  141.1960 C   0  0  0  0  0  3  0  0  0  0  0  0
  191.6630  177.0370  144.0350 O   0  0  0  0  0  0  0  0  0  0  0  0
  187.5160  177.1310  145.1860 C   0  0  2  0  0  3  0  0  0  0  0  0
  189.4700  177.7110  145.9050 C   0  0  0  0  0  2  0  0  0  0  0  0
  188.9590  176.7530  144.8430 C   0  0  2  0  0  3  0  0  0  0  0  0
  186.8540  177.8850  144.1310 N   0  0  0  0  0  1  0  0  0  0  0  0
  187.7190  177.5810  147.5170 O   0  0  0  0  0  1  0  0  0  0  0  0
  188.0350  178.0810  146.2530 C   0  0  2  0  0  3  0  0  0  0  0  0
  1 11  1  0  0  0  0
  2  4  1  0  0  0  0
  3 10  2  0  0  0  0
  4  3  1  1  0  0  0
  4 28  1  0  0  0  0
  5  9  1  0  0  0  0
  6  8  2  0  0  0  0
  7  9  2  0  0  0  0
  7 12  1  0  0  0  0
  8 10  1  0  0  0  0
  9  3  1  0  0  0  0
 11  5  2  0  0  0  0
 11  6  1  0  0  0  0
 12  2  2  0  0  0  0
 13 20  2  0  0  0  0
 14 21  1  0  0  0  0
 15 16  1  0  0  0  0
 15 14  1  0  0  0  0
 16 13  1  0  0  0  0
 16  6  1  1  0  0  0
 17 13  1  0  0  0  0
 17 22  1  1  0  0  0
 17 21  1  0  0  0  0
 20 19  2  0  0  0  0
 21 18  1  1  0  0  0
 23 22  1  0  0  0  0
 23 25  1  0  0  0  0
 25 24  2  0  0  0  0
 26 30  1  0  0  0  0
 26 33  2  0  0  0  0
 27 26  1  0  0  0  0
 28 29  1  6  0  0  0
 28 32  1  0  0  0  0
 29 27  2  0  0  0  0
 30 31  1  1  0  0  0
 30 36  1  0  0  0  0
 32 31  2  0  0  0  0
 34 37  1  6  0  0  0
 34 39  1  0  0  0  0
 35 39  1  0  0  0  0
 36 34  1  0  0  0  0
 36 35  1  1  0  0  0
 39 38  1  1  0  0  0
M  END
>  <MODEL>
8

>  <REMARK>
 VINA RESULT:      -6.9      6.102     10.771
  Name = 
  6 active torsions:
  status: ('A' for Active; 'I' for Inactive)
    1  A    between atoms: C_7  and  C_14
    2  A    between atoms: C_12  and  C_19
    3  A    between atoms: C_16  and  C_22
    4  A    between atoms: C_16  and  C_37
    5  A    between atoms: C_18  and  C_27
    6  A    between atoms: C_21  and  C_22
                            x       y       z     vdW  Elec       q    Type
                         _______ _______ _______ _____ _____    ______ ____

>  <TORSDO>
F 6

$$$$
=
 OpenBabel11062417403D

 39 43  0  0  1  0  0  0  0  0999 V2000
  181.1940  176.9390  140.6810 F   0  0  0  0  0  0  0  0  0  0  0  0
  187.0550  178.3500  141.6950 N   0  0  0  0  0  0  0  0  0  0  0  0
  185.1360  178.6750  140.2660 C   0  0  0  0  0  0  0  0  0  0  0  0
  186.5800  178.3560  140.4820 C   0  0  0  0  0  0  0  0  0  0  0  0
  183.1270  177.8930  141.4670 C   0  0  0  0  0  3  0  0  0  0  0  0
  182.1530  178.7630  139.3480 C   0  0  0  0  0  0  0  0  0  0  0  0
  184.9590  178.8610  142.7730 C   0  0  0  0  0  3  0  0  0  0  0  0
  183.2510  179.1710  138.6910 C   0  0  0  0  0  3  0  0  0  0  0  0
  184.2360  178.8870  141.4590 C   0  0  1  0  0  3  0  0  0  0  0  0
  184.6590  178.8870  139.0340 C   0  0  0  0  0  3  0  0  0  0  0  0
  182.1910  177.8400  140.5190 C   0  0  0  0  0  0  0  0  0  0  0  0
  186.2640  178.6120  142.8600 C   0  0  0  0  0  3  0  0  0  0  0  0
  180.9180  179.6780  137.3210 C   0  0  0  0  0  0  0  0  0  0  0  0
  180.4420  181.6010  139.4170 C   0  0  0  0  0  2  0  0  0  0  0  0
  180.0500  180.1390  139.6510 C   0  0  0  0  0  2  0  0  0  0  0  0
  180.8360  179.1810  138.7440 C   0  0  2  0  0  3  0  0  0  0  0  0
  180.0930  180.8950  136.9570 C   0  0  1  0  0  3  0  0  0  0  0  0
  181.4590  182.7850  137.6040 O   0  0  0  0  0  1  0  0  0  0  0  0
  182.0950  178.2650  135.5570 O   0  0  0  0  0  0  0  0  0  0  0  0
  181.5220  178.9510  136.4130 C   0  0  0  0  0  0  0  0  0  0  0  0
  180.3230  182.0490  137.9490 C   0  0  2  0  0  3  0  0  0  0  0  0
  180.1990  181.3610  135.5010 C   0  0  0  0  0  2  0  0  0  0  0  0
  179.1180  182.3780  135.1670 C   0  0  0  0  0  2  0  0  0  0  0  0
  179.8560  184.6070  135.2880 O   0  0  0  0  0  0  0  0  0  0  0  0
  179.7260  183.6130  134.5940 C   0  0  0  0  0  3  0  0  0  0  0  0
  188.9740  177.5310  136.5950 C   0  0  0  0  0  0  0  0  0  0  0  0
  187.7160  178.0420  136.8680 C   0  0  0  0  0  2  0  0  0  0  0  0
  187.5070  178.0390  139.3630 C   0  0  0  0  0  0  0  0  0  0  0  0
  187.0690  178.2620  138.0690 C   0  0  0  0  0  3  0  0  0  0  0  0
  189.9230  177.0800  137.5450 C   0  0  2  0  0  3  0  0  0  0  0  0
  189.7430  177.0960  138.8890 N   0  0  0  0  0  0  0  0  0  0  0  0
  188.7390  177.4910  139.7030 C   0  0  0  0  0  3  0  0  0  0  0  0
  189.2680  177.4790  135.3710 O   0  0  0  0  0  0  0  0  0  0  0  0
  191.3890  175.0240  136.8710 C   0  0  2  0  0  3  0  0  0  0  0  0
  192.3200  176.4220  138.2320 C   0  0  0  0  0  2  0  0  0  0  0  0
  191.2800  176.5280  137.1310 C   0  0  2  0  0  3  0  0  0  0  0  0
  190.1950  174.2870  137.2590 N   0  0  0  0  0  1  0  0  0  0  0  0
  193.6810  174.6490  137.4020 O   0  0  0  0  0  1  0  0  0  0  0  0
  192.4360  174.9270  137.9680 C   0  0  2  0  0  3  0  0  0  0  0  0
  2 12  1  0  0  0  0
  3  4  1  0  0  0  0
  3  9  1  0  0  0  0
  4  2  2  0  0  0  0
  6 11  1  0  0  0  0
  7 12  2  0  0  0  0
  8 10  1  0  0  0  0
  8  6  2  0  0  0  0
  9  5  1  1  0  0  0
  9  7  1  0  0  0  0
 10  3  2  0  0  0  0
 11  1  1  0  0  0  0
 11  5  2  0  0  0  0
 13 16  1  0  0  0  0
 14 15  1  0  0  0  0
 16  6  1  1  0  0  0
 16 15  1  0  0  0  0
 17 22  1  6  0  0  0
 17 13  1  0  0  0  0
 17 21  1  0  0  0  0
 19 20  2  0  0  0  0
 20 13  2  0  0  0  0
 21 18  1  6  0  0  0
 21 14  1  0  0  0  0
 23 22  1  0  0  0  0
 25 23  1  0  0  0  0
 25 24  2  0  0  0  0
 26 27  1  0  0  0  0
 27 29  1  0  0  0  0
 28 32  1  0  0  0  0
 28  4  1  0  0  0  0
 29 28  2  0  0  0  0
 30 26  1  1  0  0  0
 30 31  1  0  0  0  0
 31 32  2  0  0  0  0
 33 26  2  0  0  0  0
 34 36  1  0  0  0  0
 34 37  1  1  0  0  0
 34 39  1  0  0  0  0
 36 30  1  0  0  0  0
 36 35  1  1  0  0  0
 39 38  1  6  0  0  0
 39 35  1  0  0  0  0
M  END
>  <MODEL>
9

>  <REMARK>
 VINA RESULT:      -6.8      3.030      4.726
  Name = 
  6 active torsions:
  status: ('A' for Active; 'I' for Inactive)
    1  A    between atoms: C_7  and  C_14
    2  A    between atoms: C_12  and  C_19
    3  A    between atoms: C_16  and  C_22
    4  A    between atoms: C_16  and  C_37
    5  A    between atoms: C_18  and  C_27
    6  A    between atoms: C_21  and  C_22
                            x       y       z     vdW  Elec       q    Type
                         _______ _______ _______ _____ _____    ______ ____

>  <TORSDO>
F 6

$$$$
