=
 OpenBabel11062417003D

 26 28  0  0  1  0  0  0  0  0999 V2000
  188.0280  177.5160  147.2320 C   0  0  0  0  0  3  0  0  0  0  0  0
  189.8680  177.1600  145.7510 N   0  0  0  0  0  0  0  0  0  0  0  0
  187.7730  177.8680  144.8560 C   0  0  0  0  0  3  0  0  0  0  0  0
  187.2290  177.8770  146.1450 C   0  0  0  0  0  0  0  0  0  0  0  0
  189.1140  177.5020  144.6680 C   0  0  0  0  0  0  0  0  0  0  0  0
  189.3590  177.1590  147.0130 C   0  0  0  0  0  3  0  0  0  0  0  0
  191.6360  177.1480  141.8700 C   0  0  0  0  0  3  0  0  0  0  0  0
  188.9330  177.7720  142.1830 C   0  0  0  0  0  3  0  0  0  0  0  0
  189.4960  177.7520  140.9030 C   0  0  0  0  0  0  0  0  0  0  0  0
  191.4250  177.4080  139.5180 F   0  0  0  0  0  0  0  0  0  0  0  0
  190.8540  177.4370  140.7490 C   0  0  0  0  0  0  0  0  0  0  0  0
  189.7090  177.4830  143.3160 C   0  0  0  0  0  0  0  0  0  0  0  0
  191.0660  177.1710  143.1470 C   0  0  0  0  0  3  0  0  0  0  0  0
  187.1040  178.4720  139.9570 O   0  0  0  0  0  0  0  0  0  0  0  0
  189.0790  179.2770  138.7560 O   0  0  0  0  0  0  0  0  0  0  0  0
  188.4930  178.1130  139.5060 S   0  0  0  0  0  0  0  0  0  0  0  0
  188.9570  177.0190  137.0740 C   0  0  0  0  0  1  0  0  0  0  0  0
  188.4150  176.6820  138.4490 C   0  0  0  0  0  2  0  0  0  0  0  0
  185.7950  178.2430  146.3760 C   0  0  1  0  0  3  0  0  0  0  0  0
  185.6960  179.3800  147.1820 O   0  0  0  0  0  1  0  0  0  0  0  0
  185.6210  178.0380  143.8640 C   0  0  0  0  0  3  0  0  0  0  0  0
  185.0570  178.4330  145.0870 C   0  0  0  0  0  0  0  0  0  0  0  0
  184.9040  178.2050  142.6740 C   0  0  0  0  0  3  0  0  0  0  0  0
  183.7700  178.9830  145.1100 C   0  0  0  0  0  3  0  0  0  0  0  0
  183.0550  179.1490  143.9200 C   0  0  0  0  0  3  0  0  0  0  0  0
  183.6220  178.7610  142.7030 C   0  0  0  0  0  3  0  0  0  0  0  0
  2  6  2  0  0  0  0
  3  4  1  0  0  0  0
  4 19  1  0  0  0  0
  4  1  2  0  0  0  0
  5  3  2  0  0  0  0
  5  2  1  0  0  0  0
  6  1  1  0  0  0  0
  7 13  1  0  0  0  0
  8 12  1  0  0  0  0
  9  8  2  0  0  0  0
 10 11  1  0  0  0  0
 11  9  1  0  0  0  0
 11  7  2  0  0  0  0
 12  5  1  0  0  0  0
 13 12  2  0  0  0  0
 15 16  2  0  0  0  0
 16 14  2  0  0  0  0
 16  9  1  0  0  0  0
 17 18  1  0  0  0  0
 18 16  1  0  0  0  0
 19 20  1  1  0  0  0
 21 22  1  0  0  0  0
 22 24  2  0  0  0  0
 22 19  1  0  0  0  0
 23 26  1  0  0  0  0
 23 21  2  0  0  0  0
 25 24  1  0  0  0  0
 26 25  2  0  0  0  0
M  END
>  <MODEL>
1

>  <REMARK>
 VINA RESULT:      -9.8      0.000      0.000
  Name = 
  5 active torsions:
  status: ('A' for Active; 'I' for Inactive)
    1  A    between atoms: C_5  and  C_8
    2  A    between atoms: C_8  and  C_16
    3  A    between atoms: C_12  and  S_25
    4  A    between atoms: C_18  and  C_20
    5  A    between atoms: C_24  and  S_25
                            x       y       z     vdW  Elec       q    Type
                         _______ _______ _______ _____ _____    ______ ____

>  <TORSDO>
F 5

$$$$
=
 OpenBabel11062417003D

 26 28  0  0  1  0  0  0  0  0999 V2000
  186.7400  178.2570  147.2590 C   0  0  0  0  0  3  0  0  0  0  0  0
  184.6160  178.6570  146.2410 N   0  0  0  0  0  0  0  0  0  0  0  0
  186.5080  178.2190  144.8550 C   0  0  0  0  0  3  0  0  0  0  0  0
  187.3090  178.0910  145.9950 C   0  0  0  0  0  0  0  0  0  0  0  0
  185.1420  178.5070  144.9920 C   0  0  0  0  0  0  0  0  0  0  0  0
  185.3770  178.5410  147.3630 C   0  0  0  0  0  3  0  0  0  0  0  0
  182.0600  178.8850  142.8300 C   0  0  0  0  0  3  0  0  0  0  0  0
  184.8270  178.6900  142.5120 C   0  0  0  0  0  3  0  0  0  0  0  0
  184.0090  178.8260  141.3860 C   0  0  0  0  0  0  0  0  0  0  0  0
  181.8020  179.0610  140.4750 F   0  0  0  0  0  0  0  0  0  0  0  0
  182.6190  178.9250  141.5500 C   0  0  0  0  0  0  0  0  0  0  0  0
  184.2770  178.6490  143.8030 C   0  0  0  0  0  0  0  0  0  0  0  0
  182.8850  178.7480  143.9500 C   0  0  0  0  0  3  0  0  0  0  0  0
  184.4220  180.1980  139.1330 O   0  0  0  0  0  0  0  0  0  0  0  0
  186.2230  178.7320  139.9060 O   0  0  0  0  0  0  0  0  0  0  0  0
  184.7320  178.8800  139.7860 S   0  0  0  0  0  0  0  0  0  0  0  0
  184.7640  177.5170  137.4480 C   0  0  0  0  0  1  0  0  0  0  0  0
  184.0650  177.5620  138.7920 C   0  0  0  0  0  2  0  0  0  0  0  0
  188.7750  177.8050  145.8810 C   0  0  1  0  0  3  0  0  0  0  0  0
  189.1440  176.7570  146.7280 O   0  0  0  0  0  1  0  0  0  0  0  0
  190.1200  178.3140  143.8040 C   0  0  0  0  0  3  0  0  0  0  0  0
  189.1750  177.5170  144.4670 C   0  0  0  0  0  0  0  0  0  0  0  0
  190.4950  178.0140  142.4900 C   0  0  0  0  0  3  0  0  0  0  0  0
  188.6200  176.4120  143.8100 C   0  0  0  0  0  3  0  0  0  0  0  0
  188.9960  176.1130  142.4970 C   0  0  0  0  0  3  0  0  0  0  0  0
  189.9330  176.9140  141.8370 C   0  0  0  0  0  3  0  0  0  0  0  0
  1  6  1  0  0  0  0
  2  6  2  0  0  0  0
  3  5  2  0  0  0  0
  3  4  1  0  0  0  0
  4  1  2  0  0  0  0
  5  2  1  0  0  0  0
  7 13  1  0  0  0  0
  8 12  1  0  0  0  0
  9 11  1  0  0  0  0
  9  8  2  0  0  0  0
 10 11  1  0  0  0  0
 11  7  2  0  0  0  0
 12 13  2  0  0  0  0
 12  5  1  0  0  0  0
 14 16  2  0  0  0  0
 16 15  2  0  0  0  0
 16  9  1  0  0  0  0
 17 18  1  0  0  0  0
 18 16  1  0  0  0  0
 19  4  1  0  0  0  0
 19 20  1  1  0  0  0
 21 22  1  0  0  0  0
 22 19  1  0  0  0  0
 23 21  2  0  0  0  0
 24 22  2  0  0  0  0
 25 24  1  0  0  0  0
 26 23  1  0  0  0  0
 26 25  2  0  0  0  0
M  END
>  <MODEL>
2

>  <REMARK>
 VINA RESULT:      -9.7      2.957      5.462
  Name = 
  5 active torsions:
  status: ('A' for Active; 'I' for Inactive)
    1  A    between atoms: C_5  and  C_8
    2  A    between atoms: C_8  and  C_16
    3  A    between atoms: C_12  and  S_25
    4  A    between atoms: C_18  and  C_20
    5  A    between atoms: C_24  and  S_25
                            x       y       z     vdW  Elec       q    Type
                         _______ _______ _______ _____ _____    ______ ____

>  <TORSDO>
F 5

$$$$
=
 OpenBabel11062417003D

 26 28  0  0  1  0  0  0  0  0999 V2000
  183.3110  179.0810  143.6410 C   0  0  0  0  0  3  0  0  0  0  0  0
  184.7360  178.5050  145.4700 N   0  0  0  0  0  0  0  0  0  0  0  0
  185.6000  178.4190  143.2480 C   0  0  0  0  0  3  0  0  0  0  0  0
  184.3600  178.8380  142.7520 C   0  0  0  0  0  0  0  0  0  0  0  0
  185.7800  178.2540  144.6290 C   0  0  0  0  0  0  0  0  0  0  0  0
  183.5210  178.9090  145.0100 C   0  0  0  0  0  3  0  0  0  0  0  0
  188.5100  177.3440  147.0850 C   0  0  0  0  0  3  0  0  0  0  0  0
  188.1260  177.4260  144.3210 C   0  0  0  0  0  3  0  0  0  0  0  0
  189.3550  177.0050  144.8370 C   0  0  0  0  0  0  0  0  0  0  0  0
  190.7270  176.5560  146.7530 F   0  0  0  0  0  0  0  0  0  0  0  0
  189.5450  176.9640  146.2260 C   0  0  0  0  0  0  0  0  0  0  0  0
  187.0800  177.8100  145.1740 C   0  0  0  0  0  0  0  0  0  0  0  0
  187.2840  177.7650  146.5610 C   0  0  0  0  0  3  0  0  0  0  0  0
  191.7410  175.8500  144.5100 O   0  0  0  0  0  0  0  0  0  0  0  0
  190.0960  175.5650  142.7200 O   0  0  0  0  0  0  0  0  0  0  0  0
  190.6410  176.5260  143.7390 S   0  0  0  0  0  0  0  0  0  0  0  0
  191.4320  179.1080  143.9210 C   0  0  0  0  0  1  0  0  0  0  0  0
  191.2950  177.9700  142.9290 C   0  0  0  0  0  2  0  0  0  0  0  0
  184.1310  179.0030  141.2820 C   0  0  1  0  0  3  0  0  0  0  0  0
  185.2940  178.7130  140.5630 O   0  0  0  0  0  1  0  0  0  0  0  0
  181.6560  178.5850  140.9960 C   0  0  0  0  0  3  0  0  0  0  0  0
  182.9830  178.1700  140.8030 C   0  0  0  0  0  0  0  0  0  0  0  0
  180.5990  177.8020  140.5200 C   0  0  0  0  0  3  0  0  0  0  0  0
  183.2410  176.9750  140.1210 C   0  0  0  0  0  3  0  0  0  0  0  0
  182.1840  176.1930  139.6460 C   0  0  0  0  0  3  0  0  0  0  0  0
  180.8640  176.6060  139.8460 C   0  0  0  0  0  3  0  0  0  0  0  0
  1  6  1  0  0  0  0
  3  5  2  0  0  0  0
  4  3  1  0  0  0  0
  4  1  2  0  0  0  0
  5 12  1  0  0  0  0
  5  2  1  0  0  0  0
  6  2  2  0  0  0  0
  8  9  2  0  0  0  0
  8 12  1  0  0  0  0
  9 11  1  0  0  0  0
 11 10  1  0  0  0  0
 11  7  2  0  0  0  0
 12 13  2  0  0  0  0
 13  7  1  0  0  0  0
 15 16  2  0  0  0  0
 16 14  2  0  0  0  0
 16  9  1  0  0  0  0
 18 16  1  0  0  0  0
 18 17  1  0  0  0  0
 19 20  1  6  0  0  0
 19  4  1  0  0  0  0
 22 21  1  0  0  0  0
 22 19  1  0  0  0  0
 23 21  2  0  0  0  0
 24 22  2  0  0  0  0
 25 26  2  0  0  0  0
 25 24  1  0  0  0  0
 26 23  1  0  0  0  0
M  END
>  <MODEL>
3

>  <REMARK>
 VINA RESULT:      -9.6      3.245      5.339
  Name = 
  5 active torsions:
  status: ('A' for Active; 'I' for Inactive)
    1  A    between atoms: C_5  and  C_8
    2  A    between atoms: C_8  and  C_16
    3  A    between atoms: C_12  and  S_25
    4  A    between atoms: C_18  and  C_20
    5  A    between atoms: C_24  and  S_25
                            x       y       z     vdW  Elec       q    Type
                         _______ _______ _______ _____ _____    ______ ____

>  <TORSDO>
F 5

$$$$
=
 OpenBabel11062417003D

 26 28  0  0  1  0  0  0  0  0999 V2000
  189.0060  177.7870  139.5330 C   0  0  0  0  0  3  0  0  0  0  0  0
  186.8270  178.5060  140.1950 N   0  0  0  0  0  0  0  0  0  0  0  0
  188.3380  177.6910  141.8510 C   0  0  0  0  0  3  0  0  0  0  0  0
  189.3050  177.4810  140.8620 C   0  0  0  0  0  0  0  0  0  0  0  0
  187.0840  178.2120  141.5010 C   0  0  0  0  0  0  0  0  0  0  0  0
  187.7500  178.3060  139.2160 C   0  0  0  0  0  3  0  0  0  0  0  0
  183.7360  178.9190  143.1160 C   0  0  0  0  0  3  0  0  0  0  0  0
  186.3650  178.3960  143.8960 C   0  0  0  0  0  3  0  0  0  0  0  0
  185.3840  178.6100  144.8690 C   0  0  0  0  0  0  0  0  0  0  0  0
  183.0910  179.0800  145.3970 F   0  0  0  0  0  0  0  0  0  0  0  0
  184.0630  178.8710  144.4730 C   0  0  0  0  0  0  0  0  0  0  0  0
  186.0470  178.4410  142.5300 C   0  0  0  0  0  0  0  0  0  0  0  0
  184.7230  178.7040  142.1490 C   0  0  0  0  0  3  0  0  0  0  0  0
  185.7820  179.9230  147.1600 O   0  0  0  0  0  0  0  0  0  0  0  0
  184.8310  177.6720  147.3020 O   0  0  0  0  0  0  0  0  0  0  0  0
  185.8160  178.5400  146.5710 S   0  0  0  0  0  0  0  0  0  0  0  0
  187.9300  177.9970  148.1700 C   0  0  0  0  0  1  0  0  0  0  0  0
  187.4590  177.8740  146.7350 C   0  0  0  0  0  2  0  0  0  0  0  0
  190.6460  176.9070  141.2010 C   0  0  1  0  0  3  0  0  0  0  0  0
  191.6380  177.4460  140.3780 O   0  0  0  0  0  1  0  0  0  0  0  0
  190.9980  176.0220  143.5400 C   0  0  0  0  0  3  0  0  0  0  0  0
  190.9830  177.1030  142.6460 C   0  0  0  0  0  0  0  0  0  0  0  0
  191.3380  176.2240  144.8820 C   0  0  0  0  0  3  0  0  0  0  0  0
  191.3210  178.3820  143.1030 C   0  0  0  0  0  3  0  0  0  0  0  0
  191.6610  178.5840  144.4440 C   0  0  0  0  0  3  0  0  0  0  0  0
  191.6680  177.5050  145.3340 C   0  0  0  0  0  3  0  0  0  0  0  0
  1  4  1  0  0  0  0
  2  5  2  0  0  0  0
  4 19  1  0  0  0  0
  4  3  2  0  0  0  0
  5  3  1  0  0  0  0
  5 12  1  0  0  0  0
  6  1  2  0  0  0  0
  6  2  1  0  0  0  0
  7 11  1  0  0  0  0
  8  9  1  0  0  0  0
  9 16  1  0  0  0  0
 11  9  2  0  0  0  0
 11 10  1  0  0  0  0
 12  8  2  0  0  0  0
 13 12  1  0  0  0  0
 13  7  2  0  0  0  0
 16 18  1  0  0  0  0
 16 14  2  0  0  0  0
 16 15  2  0  0  0  0
 18 17  1  0  0  0  0
 19 20  1  6  0  0  0
 19 22  1  0  0  0  0
 21 23  1  0  0  0  0
 22 24  1  0  0  0  0
 22 21  2  0  0  0  0
 23 26  2  0  0  0  0
 24 25  2  0  0  0  0
 25 26  1  0  0  0  0
M  END
>  <MODEL>
4

>  <REMARK>
 VINA RESULT:      -9.5      3.255      7.434
  Name = 
  5 active torsions:
  status: ('A' for Active; 'I' for Inactive)
    1  A    between atoms: C_5  and  C_8
    2  A    between atoms: C_8  and  C_16
    3  A    between atoms: C_12  and  S_25
    4  A    between atoms: C_18  and  C_20
    5  A    between atoms: C_24  and  S_25
                            x       y       z     vdW  Elec       q    Type
                         _______ _______ _______ _____ _____    ______ ____

>  <TORSDO>
F 5

$$$$
=
 OpenBabel11062417003D

 26 28  0  0  1  0  0  0  0  0999 V2000
  188.7190  177.8540  142.2760 C   0  0  0  0  0  3  0  0  0  0  0  0
  186.6060  178.6850  141.5340 N   0  0  0  0  0  0  0  0  0  0  0  0
  186.7680  177.6700  143.6870 C   0  0  0  0  0  3  0  0  0  0  0  0
  188.1340  177.4510  143.4780 C   0  0  0  0  0  0  0  0  0  0  0  0
  186.0020  178.2980  142.6940 C   0  0  0  0  0  0  0  0  0  0  0  0
  187.9310  178.4780  141.3070 C   0  0  0  0  0  3  0  0  0  0  0  0
  182.6840  178.9790  144.3780 C   0  0  0  0  0  3  0  0  0  0  0  0
  183.6750  178.5640  141.8020 C   0  0  0  0  0  3  0  0  0  0  0  0
  182.3080  178.7930  141.9890 C   0  0  0  0  0  0  0  0  0  0  0  0
  180.4930  179.2300  143.4950 F   0  0  0  0  0  0  0  0  0  0  0  0
  181.8140  179.0020  143.2860 C   0  0  0  0  0  0  0  0  0  0  0  0
  184.5580  178.5380  142.8920 C   0  0  0  0  0  0  0  0  0  0  0  0
  184.0490  178.7490  144.1820 C   0  0  0  0  0  3  0  0  0  0  0  0
  180.3020  177.6440  140.6530 O   0  0  0  0  0  0  0  0  0  0  0  0
  180.4200  180.0880  140.6240 O   0  0  0  0  0  0  0  0  0  0  0  0
  181.2320  178.8240  140.6000 S   0  0  0  0  0  0  0  0  0  0  0  0
  182.6740  180.1290  138.7190 C   0  0  0  0  0  1  0  0  0  0  0  0
  182.1960  178.7440  139.1050 C   0  0  0  0  0  2  0  0  0  0  0  0
  188.9740  176.7650  144.5110 C   0  0  1  0  0  3  0  0  0  0  0  0
  190.3300  176.8570  144.1890 O   0  0  0  0  0  1  0  0  0  0  0  0
  187.4190  177.6770  146.2810 C   0  0  0  0  0  3  0  0  0  0  0  0
  188.7110  177.3020  145.8840 C   0  0  0  0  0  0  0  0  0  0  0  0
  187.1920  178.1550  147.5760 C   0  0  0  0  0  3  0  0  0  0  0  0
  189.7690  177.3980  146.7950 C   0  0  0  0  0  3  0  0  0  0  0  0
  189.5420  177.8760  148.0890 C   0  0  0  0  0  3  0  0  0  0  0  0
  188.2540  178.2540  148.4790 C   0  0  0  0  0  3  0  0  0  0  0  0
  1  4  1  0  0  0  0
  2  5  2  0  0  0  0
  4  3  2  0  0  0  0
  4 19  1  0  0  0  0
  5 12  1  0  0  0  0
  5  3  1  0  0  0  0
  6  2  1  0  0  0  0
  6  1  2  0  0  0  0
  8  9  2  0  0  0  0
  8 12  1  0  0  0  0
  9 11  1  0  0  0  0
 11 10  1  0  0  0  0
 11  7  2  0  0  0  0
 12 13  2  0  0  0  0
 13  7  1  0  0  0  0
 16 15  2  0  0  0  0
 16 14  2  0  0  0  0
 16  9  1  0  0  0  0
 17 18  1  0  0  0  0
 18 16  1  0  0  0  0
 19 20  1  6  0  0  0
 19 22  1  0  0  0  0
 21 23  1  0  0  0  0
 22 21  2  0  0  0  0
 22 24  1  0  0  0  0
 23 26  2  0  0  0  0
 24 25  2  0  0  0  0
 25 26  1  0  0  0  0
M  END
>  <MODEL>
5

>  <REMARK>
 VINA RESULT:      -9.5      3.948      6.619
  Name = 
  5 active torsions:
  status: ('A' for Active; 'I' for Inactive)
    1  A    between atoms: C_5  and  C_8
    2  A    between atoms: C_8  and  C_16
    3  A    between atoms: C_12  and  S_25
    4  A    between atoms: C_18  and  C_20
    5  A    between atoms: C_24  and  S_25
                            x       y       z     vdW  Elec       q    Type
                         _______ _______ _______ _____ _____    ______ ____

>  <TORSDO>
F 5

$$$$
=
 OpenBabel11062417003D

 26 28  0  0  1  0  0  0  0  0999 V2000
  182.6520  178.9980  142.4520 C   0  0  0  0  0  3  0  0  0  0  0  0
  183.9870  178.4130  144.3440 N   0  0  0  0  0  0  0  0  0  0  0  0
  184.9950  178.4790  142.1830 C   0  0  0  0  0  3  0  0  0  0  0  0
  183.7680  178.8540  141.6250 C   0  0  0  0  0  0  0  0  0  0  0  0
  185.0940  178.2580  143.5640 C   0  0  0  0  0  0  0  0  0  0  0  0
  182.7830  178.7720  143.8230 C   0  0  0  0  0  3  0  0  0  0  0  0
  187.7130  177.3940  146.1550 C   0  0  0  0  0  3  0  0  0  0  0  0
  187.4950  177.5600  143.3760 C   0  0  0  0  0  3  0  0  0  0  0  0
  188.7110  177.1820  143.9540 C   0  0  0  0  0  0  0  0  0  0  0  0
  189.9840  176.7300  145.9370 F   0  0  0  0  0  0  0  0  0  0  0  0
  188.8170  177.0980  145.3510 C   0  0  0  0  0  0  0  0  0  0  0  0
  186.3800  177.8600  144.1750 C   0  0  0  0  0  0  0  0  0  0  0  0
  186.5010  177.7730  145.5700 C   0  0  0  0  0  3  0  0  0  0  0  0
  190.2950  175.3200  142.8780 O   0  0  0  0  0  0  0  0  0  0  0  0
  189.8150  177.3070  141.5310 O   0  0  0  0  0  0  0  0  0  0  0  0
  190.0840  176.8080  142.9240 S   0  0  0  0  0  0  0  0  0  0  0  0
  191.2940  179.0660  143.7960 C   0  0  0  0  0  1  0  0  0  0  0  0
  191.5440  177.5870  143.5810 C   0  0  0  0  0  2  0  0  0  0  0  0
  183.6240  179.0770  140.1510 C   0  0  1  0  0  3  0  0  0  0  0  0
  184.6530  179.8910  139.6700 O   0  0  0  0  0  1  0  0  0  0  0  0
  182.6940  176.7560  139.7880 C   0  0  0  0  0  3  0  0  0  0  0  0
  183.5660  177.7840  139.3980 C   0  0  0  0  0  0  0  0  0  0  0  0
  182.6410  175.5650  139.0570 C   0  0  0  0  0  3  0  0  0  0  0  0
  184.3730  177.6150  138.2670 C   0  0  0  0  0  3  0  0  0  0  0  0
  184.3190  176.4240  137.5360 C   0  0  0  0  0  3  0  0  0  0  0  0
  183.4530  175.3990  137.9310 C   0  0  0  0  0  3  0  0  0  0  0  0
  1  6  1  0  0  0  0
  3  5  2  0  0  0  0
  4  3  1  0  0  0  0
  4  1  2  0  0  0  0
  5 12  1  0  0  0  0
  5  2  1  0  0  0  0
  6  2  2  0  0  0  0
  8  9  2  0  0  0  0
  8 12  1  0  0  0  0
  9 11  1  0  0  0  0
 11 10  1  0  0  0  0
 11  7  2  0  0  0  0
 12 13  2  0  0  0  0
 13  7  1  0  0  0  0
 14 16  2  0  0  0  0
 15 16  2  0  0  0  0
 16 18  1  0  0  0  0
 16  9  1  0  0  0  0
 18 17  1  0  0  0  0
 19 20  1  6  0  0  0
 19  4  1  0  0  0  0
 22 21  1  0  0  0  0
 22 19  1  0  0  0  0
 23 21  2  0  0  0  0
 24 22  2  0  0  0  0
 25 26  2  0  0  0  0
 25 24  1  0  0  0  0
 26 23  1  0  0  0  0
M  END
>  <MODEL>
6

>  <REMARK>
 VINA RESULT:      -9.5      3.266      5.687
  Name = 
  5 active torsions:
  status: ('A' for Active; 'I' for Inactive)
    1  A    between atoms: C_5  and  C_8
    2  A    between atoms: C_8  and  C_16
    3  A    between atoms: C_12  and  S_25
    4  A    between atoms: C_18  and  C_20
    5  A    between atoms: C_24  and  S_25
                            x       y       z     vdW  Elec       q    Type
                         _______ _______ _______ _____ _____    ______ ____

>  <TORSDO>
F 5

$$$$
=
 OpenBabel11062417003D

 26 28  0  0  1  0  0  0  0  0999 V2000
  190.0280  178.0290  145.1620 C   0  0  0  0  0  3  0  0  0  0  0  0
  190.9910  178.2170  142.9840 N   0  0  0  0  0  0  0  0  0  0  0  0
  188.7870  177.3310  143.2100 C   0  0  0  0  0  3  0  0  0  0  0  0
  188.8650  177.5010  144.5970 C   0  0  0  0  0  0  0  0  0  0  0  0
  189.8730  177.6990  142.4010 C   0  0  0  0  0  0  0  0  0  0  0  0
  191.0900  178.3870  144.3300 C   0  0  0  0  0  3  0  0  0  0  0  0
  190.8770  176.8660  138.8500 C   0  0  0  0  0  3  0  0  0  0  0  0
  188.6500  177.8470  140.2180 C   0  0  0  0  0  3  0  0  0  0  0  0
  188.5940  177.6830  138.8300 C   0  0  0  0  0  0  0  0  0  0  0  0
  189.6850  177.0160  136.8010 F   0  0  0  0  0  0  0  0  0  0  0  0
  189.7140  177.1880  138.1460 C   0  0  0  0  0  0  0  0  0  0  0  0
  189.8130  177.5260  140.9350 C   0  0  0  0  0  0  0  0  0  0  0  0
  190.9260  177.0340  140.2370 C   0  0  0  0  0  3  0  0  0  0  0  0
  186.0910  178.6080  138.9320 O   0  0  0  0  0  0  0  0  0  0  0  0
  187.4130  179.1530  136.9460 O   0  0  0  0  0  0  0  0  0  0  0  0
  187.1190  178.0890  137.9660 S   0  0  0  0  0  0  0  0  0  0  0  0
  186.5120  176.8120  135.6580 C   0  0  0  0  0  1  0  0  0  0  0  0
  186.4850  176.6310  137.1620 C   0  0  0  0  0  2  0  0  0  0  0  0
  187.7310  177.1000  145.4900 C   0  0  1  0  0  3  0  0  0  0  0  0
  188.0340  177.3660  146.8270 O   0  0  0  0  0  1  0  0  0  0  0  0
  186.0600  177.8320  143.7430 C   0  0  0  0  0  3  0  0  0  0  0  0
  186.4500  177.7620  145.0890 C   0  0  0  0  0  0  0  0  0  0  0  0
  184.8470  178.4360  143.3930 C   0  0  0  0  0  3  0  0  0  0  0  0
  185.6120  178.2890  146.0790 C   0  0  0  0  0  3  0  0  0  0  0  0
  184.4010  178.8920  145.7290 C   0  0  0  0  0  3  0  0  0  0  0  0
  184.0190  178.9660  144.3860 C   0  0  0  0  0  3  0  0  0  0  0  0
  2  6  1  0  0  0  0
  3  4  2  0  0  0  0
  4  1  1  0  0  0  0
  4 19  1  0  0  0  0
  5  2  2  0  0  0  0
  5  3  1  0  0  0  0
  6  1  2  0  0  0  0
  7 13  1  0  0  0  0
  8 12  1  0  0  0  0
  9  8  2  0  0  0  0
 10 11  1  0  0  0  0
 11  9  1  0  0  0  0
 11  7  2  0  0  0  0
 12  5  1  0  0  0  0
 13 12  2  0  0  0  0
 15 16  2  0  0  0  0
 16  9  1  0  0  0  0
 16 14  2  0  0  0  0
 17 18  1  0  0  0  0
 18 16  1  0  0  0  0
 19 20  1  1  0  0  0
 21 22  1  0  0  0  0
 22 19  1  0  0  0  0
 22 24  2  0  0  0  0
 23 21  2  0  0  0  0
 23 26  1  0  0  0  0
 25 24  1  0  0  0  0
 26 25  2  0  0  0  0
M  END
>  <MODEL>
7

>  <REMARK>
 VINA RESULT:      -9.4      1.708      2.438
  Name = 
  5 active torsions:
  status: ('A' for Active; 'I' for Inactive)
    1  A    between atoms: C_5  and  C_8
    2  A    between atoms: C_8  and  C_16
    3  A    between atoms: C_12  and  S_25
    4  A    between atoms: C_18  and  C_20
    5  A    between atoms: C_24  and  S_25
                            x       y       z     vdW  Elec       q    Type
                         _______ _______ _______ _____ _____    ______ ____

>  <TORSDO>
F 5

$$$$
=
 OpenBabel11062417003D

 26 28  0  0  1  0  0  0  0  0999 V2000
  184.1390  178.6830  144.3490 C   0  0  0  0  0  3  0  0  0  0  0  0
  185.0280  178.3260  142.1610 N   0  0  0  0  0  0  0  0  0  0  0  0
  186.5200  178.4500  144.0180 C   0  0  0  0  0  3  0  0  0  0  0  0
  185.4320  178.6440  144.8760 C   0  0  0  0  0  0  0  0  0  0  0  0
  186.3030  178.2890  142.6420 C   0  0  0  0  0  0  0  0  0  0  0  0
  183.9550  178.5190  142.9760 C   0  0  0  0  0  3  0  0  0  0  0  0
  189.7510  177.4410  141.3370 C   0  0  0  0  0  3  0  0  0  0  0  0
  187.2980  178.3260  140.3410 C   0  0  0  0  0  3  0  0  0  0  0  0
  188.3710  178.1310  139.4660 C   0  0  0  0  0  0  0  0  0  0  0  0
  190.6580  177.4840  139.1420 F   0  0  0  0  0  0  0  0  0  0  0  0
  189.6020  177.6840  139.9690 C   0  0  0  0  0  0  0  0  0  0  0  0
  187.4370  178.0840  141.7170 C   0  0  0  0  0  0  0  0  0  0  0  0
  188.6740  177.6390  142.2060 C   0  0  0  0  0  3  0  0  0  0  0  0
  186.7310  178.8160  137.4730 O   0  0  0  0  0  0  0  0  0  0  0  0
  189.0550  179.5710  137.3290 O   0  0  0  0  0  0  0  0  0  0  0  0
  188.1600  178.4380  137.7490 S   0  0  0  0  0  0  0  0  0  0  0  0
  187.5660  175.8690  137.1380 C   0  0  0  0  0  1  0  0  0  0  0  0
  188.5650  176.9670  136.8310 C   0  0  0  0  0  2  0  0  0  0  0  0
  185.6330  178.8390  146.3470 C   0  0  1  0  0  3  0  0  0  0  0  0
  184.5710  178.2880  147.0700 O   0  0  0  0  0  1  0  0  0  0  0  0
  187.7370  177.4980  145.9520 C   0  0  0  0  0  3  0  0  0  0  0  0
  186.9420  178.2770  146.8070 C   0  0  0  0  0  0  0  0  0  0  0  0
  188.9680  177.0020  146.3950 C   0  0  0  0  0  3  0  0  0  0  0  0
  187.3940  178.5650  148.1000 C   0  0  0  0  0  3  0  0  0  0  0  0
  188.6250  178.0690  148.5420 C   0  0  0  0  0  3  0  0  0  0  0  0
  189.4110  177.2870  147.6900 C   0  0  0  0  0  3  0  0  0  0  0  0
  1  4  1  0  0  0  0
  2  5  2  0  0  0  0
  2  6  1  0  0  0  0
  3  4  2  0  0  0  0
  4 19  1  0  0  0  0
  5  3  1  0  0  0  0
  6  1  2  0  0  0  0
  7 13  1  0  0  0  0
  8 12  1  0  0  0  0
  9 11  1  0  0  0  0
  9  8  2  0  0  0  0
 10 11  1  0  0  0  0
 11  7  2  0  0  0  0
 12 13  2  0  0  0  0
 12  5  1  0  0  0  0
 14 16  2  0  0  0  0
 15 16  2  0  0  0  0
 16  9  1  0  0  0  0
 18 17  1  0  0  0  0
 18 16  1  0  0  0  0
 19 22  1  0  0  0  0
 19 20  1  1  0  0  0
 21 23  2  0  0  0  0
 21 22  1  0  0  0  0
 22 24  2  0  0  0  0
 23 26  1  0  0  0  0
 24 25  1  0  0  0  0
 26 25  2  0  0  0  0
M  END
>  <MODEL>
8

>  <REMARK>
 VINA RESULT:      -9.4      1.771      3.755
  Name = 
  5 active torsions:
  status: ('A' for Active; 'I' for Inactive)
    1  A    between atoms: C_5  and  C_8
    2  A    between atoms: C_8  and  C_16
    3  A    between atoms: C_12  and  S_25
    4  A    between atoms: C_18  and  C_20
    5  A    between atoms: C_24  and  S_25
                            x       y       z     vdW  Elec       q    Type
                         _______ _______ _______ _____ _____    ______ ____

>  <TORSDO>
F 5

$$$$
=
 OpenBabel11062417003D

 26 28  0  0  1  0  0  0  0  0999 V2000
  190.7760  177.7590  145.3080 C   0  0  0  0  0  3  0  0  0  0  0  0
  191.3250  178.1100  143.0090 N   0  0  0  0  0  0  0  0  0  0  0  0
  189.1930  177.1990  143.5720 C   0  0  0  0  0  3  0  0  0  0  0  0
  189.5250  177.2680  144.9300 C   0  0  0  0  0  0  0  0  0  0  0  0
  190.1140  177.6290  142.6060 C   0  0  0  0  0  0  0  0  0  0  0  0
  191.6710  178.1820  144.3230 C   0  0  0  0  0  3  0  0  0  0  0  0
  188.3090  178.1320  139.3190 C   0  0  0  0  0  3  0  0  0  0  0  0
  190.6210  176.8860  140.2670 C   0  0  0  0  0  3  0  0  0  0  0  0
  190.3110  176.8260  138.9040 C   0  0  0  0  0  0  0  0  0  0  0  0
  188.8260  177.4140  137.1140 F   0  0  0  0  0  0  0  0  0  0  0  0
  189.1490  177.4540  138.4310 C   0  0  0  0  0  0  0  0  0  0  0  0
  189.7850  177.5640  141.1670 C   0  0  0  0  0  0  0  0  0  0  0  0
  188.6260  178.1870  140.6800 C   0  0  0  0  0  3  0  0  0  0  0  0
  191.1810  174.4900  137.9460 O   0  0  0  0  0  0  0  0  0  0  0  0
  191.0740  176.3770  136.3900 O   0  0  0  0  0  0  0  0  0  0  0  0
  191.3840  175.9730  137.8050 S   0  0  0  0  0  0  0  0  0  0  0  0
  193.9940  175.2640  137.7350 C   0  0  0  0  0  1  0  0  0  0  0  0
  193.0730  176.3740  138.1990 C   0  0  0  0  0  2  0  0  0  0  0  0
  188.5720  176.7970  145.9840 C   0  0  1  0  0  3  0  0  0  0  0  0
  189.1520  176.8810  147.2520 O   0  0  0  0  0  1  0  0  0  0  0  0
  186.8280  178.2890  147.0410 C   0  0  0  0  0  3  0  0  0  0  0  0
  187.2780  177.5490  145.9370 C   0  0  0  0  0  0  0  0  0  0  0  0
  185.6270  179.0020  146.9670 C   0  0  0  0  0  3  0  0  0  0  0  0
  186.5230  177.5400  144.7580 C   0  0  0  0  0  3  0  0  0  0  0  0
  185.3230  178.2530  144.6850 C   0  0  0  0  0  3  0  0  0  0  0  0
  184.8750  178.9840  145.7890 C   0  0  0  0  0  3  0  0  0  0  0  0
  2  6  1  0  0  0  0
  3  4  2  0  0  0  0
  4  1  1  0  0  0  0
  4 19  1  0  0  0  0
  5  2  2  0  0  0  0
  5  3  1  0  0  0  0
  6  1  2  0  0  0  0
  7 13  1  0  0  0  0
  8 12  1  0  0  0  0
  9  8  2  0  0  0  0
 10 11  1  0  0  0  0
 11  9  1  0  0  0  0
 11  7  2  0  0  0  0
 12  5  1  0  0  0  0
 13 12  2  0  0  0  0
 15 16  2  0  0  0  0
 16 14  2  0  0  0  0
 16 18  1  0  0  0  0
 16  9  1  0  0  0  0
 17 18  1  0  0  0  0
 19 20  1  1  0  0  0
 22 19  1  0  0  0  0
 22 21  2  0  0  0  0
 23 21  1  0  0  0  0
 24 22  1  0  0  0  0
 25 24  2  0  0  0  0
 25 26  1  0  0  0  0
 26 23  2  0  0  0  0
M  END
>  <MODEL>
9

>  <REMARK>
 VINA RESULT:      -9.1      2.505      3.596
  Name = 
  5 active torsions:
  status: ('A' for Active; 'I' for Inactive)
    1  A    between atoms: C_5  and  C_8
    2  A    between atoms: C_8  and  C_16
    3  A    between atoms: C_12  and  S_25
    4  A    between atoms: C_18  and  C_20
    5  A    between atoms: C_24  and  S_25
                            x       y       z     vdW  Elec       q    Type
                         _______ _______ _______ _____ _____    ______ ____

>  <TORSDO>
F 5

$$$$
