=
 OpenBabel11062417263D

 45 51  0  0  1  0  0  0  0  0999 V2000
  180.8480  179.9770  139.5520 O   0  0  0  0  0  0  0  0  0  0  0  0
  185.6250  177.4090  136.8320 C   0  0  1  0  0  0  0  0  0  0  0  0
  184.5410  176.3280  136.7690 C   0  0  1  0  0  0  0  0  0  0  0  0
  180.9760  176.8970  139.3580 C   0  0  0  0  0  0  0  0  0  0  0  0
  181.9820  179.2440  139.1390 C   0  0  1  0  0  3  0  0  0  0  0  0
  181.4000  175.5620  139.2680 C   0  0  0  0  0  3  0  0  0  0  0  0
  183.0100  179.0130  140.2590 C   0  0  0  0  0  2  0  0  0  0  0  0
  184.9480  177.0850  135.5130 C   0  0  0  0  0  2  0  0  0  0  0  0
  181.5370  177.9610  138.4340 C   0  0  1  0  0  3  0  0  0  0  0  0
  185.2020  178.3820  139.2080 C   0  0  0  0  0  2  0  0  0  0  0  0
  179.9290  177.2240  140.2460 C   0  0  0  0  0  0  0  0  0  0  0  0
  179.5420  178.5490  140.4590 O   0  0  0  0  0  0  0  0  0  0  0  0
  180.4600  179.4970  140.7240 O   0  0  0  0  0  0  0  0  0  0  0  0
  184.9640  174.8840  136.9820 C   0  0  0  0  0  1  0  0  0  0  0  0
  180.7730  174.5630  140.0170 C   0  0  0  0  0  3  0  0  0  0  0  0
  184.3920  179.4970  139.8510 C   0  0  0  0  0  2  0  0  0  0  0  0
  179.7060  174.8880  140.8560 C   0  0  0  0  0  3  0  0  0  0  0  0
  182.4620  177.5190  137.2820 C   0  0  1  0  0  3  0  0  0  0  0  0
  184.6860  178.1020  137.8080 C   0  0  2  0  0  3  0  0  0  0  0  0
  183.7310  176.9930  137.8060 N   0  0  2  0  0  0  0  0  0  0  0  0
  179.2840  176.2140  140.9680 C   0  0  0  0  0  3  0  0  0  0  0  0
  187.1640  177.0760  137.0440 C   0  0  1  0  0  0  0  0  0  0  0  0
  187.4120  175.6040  136.5680 C   0  0  2  0  0  3  0  0  0  0  0  0
  188.8570  175.2250  136.2960 C   0  0  2  0  0  3  0  0  0  0  0  0
  187.8900  175.4620  135.1310 C   0  0  1  0  0  3  0  0  0  0  0  0
  187.4000  174.2680  134.5940 O   0  0  0  0  0  1  0  0  0  0  0  0
  189.0680  173.7570  136.6430 C   0  0  0  0  0  2  0  0  0  0  0  0
  190.5530  173.4160  136.6150 C   0  0  1  0  0  3  0  0  0  0  0  0
  191.1230  173.6360  135.2250 C   0  0  0  0  0  1  0  0  0  0  0  0
  191.3030  174.1740  137.6170 N   0  0  0  0  0  2  0  0  0  0  0  0
  192.2630  174.9010  136.9870 O   0  0  0  0  0  1  0  0  0  0  0  0
  187.4640  178.6360  134.9530 C   0  0  0  0  0  1  0  0  0  0  0  0
  187.9990  178.1780  136.3050 C   0  0  0  0  0  3  0  0  0  0  0  0
  188.3980  179.3750  137.1570 C   0  0  0  0  0  1  0  0  0  0  0  0
  187.5980  177.0380  138.5310 C   0  0  0  0  0  2  0  0  0  0  0  0
  189.0340  176.6220  138.8330 C   0  0  0  0  0  2  0  0  0  0  0  0
  189.5470  177.2640  140.1150 C   0  0  0  0  0  2  0  0  0  0  0  0
  188.9410  178.1990  142.3470 C   0  0  0  0  0  1  0  0  0  0  0  0
  188.4270  177.4630  141.1240 C   0  0  0  0  0  2  0  0  0  0  0  0
  181.7350  176.5280  136.3620 C   0  0  0  0  0  2  0  0  0  0  0  0
  181.1070  177.2440  135.1780 C   0  0  0  0  0  3  0  0  0  0  0  0
  179.2460  178.6510  134.6170 C   0  0  0  0  0  2  0  0  0  0  0  0
  180.4890  179.5230  134.6150 C   0  0  0  0  0  2  0  0  0  0  0  0
  179.6150  177.3920  135.3670 C   0  0  0  0  0  2  0  0  0  0  0  0
  181.6440  178.6550  135.0810 C   0  0  0  0  0  2  0  0  0  0  0  0
  1 13  1  0  0  0  0
  2 22  1  1  0  0  0
  2 19  1  0  0  0  0
  3  2  1  0  0  0  0
  3 14  1  1  0  0  0
  3 20  1  0  0  0  0
  4 11  1  0  0  0  0
  5  1  1  0  0  0  0
  5  7  1  1  0  0  0
  6  4  2  0  0  0  0
  6 15  1  0  0  0  0
  8  3  1  0  0  0  0
  8  2  1  0  0  0  0
  9  5  1  0  0  0  0
  9  4  1  1  0  0  0
 10 16  1  0  0  0  0
 11 12  1  0  0  0  0
 11 21  2  0  0  0  0
 12 13  1  0  0  0  0
 15 17  2  0  0  0  0
 16  7  1  0  0  0  0
 17 21  1  0  0  0  0
 18 40  1  1  0  0  0
 18 20  1  0  0  0  0
 18  9  1  0  0  0  0
 19 10  1  1  0  0  0
 20 19  1  0  0  0  0
 22 35  1  0  0  0  0
 23 22  1  0  0  0  0
 24 23  1  0  0  0  0
 24 27  1  0  0  0  0
 25 24  1  0  0  0  0
 25 23  1  0  0  0  0
 26 25  1  0  0  0  0
 28 27  1  0  0  0  0
 28 30  1  0  0  0  0
 29 28  1  0  0  0  0
 31 30  1  0  0  0  0
 32 33  1  0  0  0  0
 33 22  1  0  0  0  0
 33 34  1  0  0  0  0
 35 36  1  0  0  0  0
 36 37  1  0  0  0  0
 37 39  1  0  0  0  0
 39 38  1  0  0  0  0
 41 44  1  0  0  0  0
 41 40  1  0  0  0  0
 42 44  1  0  0  0  0
 43 42  1  0  0  0  0
 43 45  1  0  0  0  0
 45 41  1  0  0  0  0
M  END
>  <MODEL>
1

>  <REMARK>
 VINA RESULT:      -4.5      0.000      0.000
  Name = 
  12 active torsions:
  status: ('A' for Active; 'I' for Inactive)
    1  A    between atoms: C_2  and  C_3
    2  A    between atoms: C_3  and  C_16
    3  A    between atoms: C_3  and  C_30
    4  A    between atoms: C_3  and  C_44
    5  A    between atoms: N_4  and  C_12
    6  A    between atoms: C_6  and  C_24
    7  A    between atoms: C_12  and  C_33
    8  A    between atoms: C_19  and  C_33
    9  A    between atoms: C_21  and  C_37
   10  A    between atoms: C_24  and  C_35
   11  A    between atoms: C_32  and  C_37
   12  A    between atoms: C_32  and  C_44
                            x       y       z     vdW  Elec       q    Type
                         _______ _______ _______ _____ _____    ______ ____

>  <TORSDO>
F 12

$$$$
=
 OpenBabel11062417263D

 45 51  0  0  1  0  0  0  0  0999 V2000
  187.5440  177.8330  140.0340 O   0  0  0  0  0  0  0  0  0  0  0  0
  181.9820  176.6770  137.9010 C   0  0  1  0  0  0  0  0  0  0  0  0
  182.9110  176.2140  136.7750 C   0  0  1  0  0  0  0  0  0  0  0  0
  187.1480  177.5360  136.9850 C   0  0  0  0  0  0  0  0  0  0  0  0
  186.2890  177.7720  139.3890 C   0  0  1  0  0  3  0  0  0  0  0  0
  186.6260  177.5210  135.6820 C   0  0  0  0  0  3  0  0  0  0  0  0
  185.6600  179.1510  139.1310 C   0  0  0  0  0  2  0  0  0  0  0  0
  182.1780  175.1960  137.6370 C   0  0  0  0  0  2  0  0  0  0  0  0
  186.3950  176.8980  138.1370 C   0  0  1  0  0  3  0  0  0  0  0  0
  183.2090  178.8360  138.6830 C   0  0  0  0  0  2  0  0  0  0  0  0
  188.4430  178.0540  137.1970 C   0  0  0  0  0  0  0  0  0  0  0  0
  188.9680  178.1960  138.4830 O   0  0  0  0  0  0  0  0  0  0  0  0
  188.2520  178.7910  139.4540 O   0  0  0  0  0  0  0  0  0  0  0  0
  182.4800  176.4790  135.3420 C   0  0  0  0  0  1  0  0  0  0  0  0
  187.3890  177.9760  134.6040 C   0  0  0  0  0  3  0  0  0  0  0  0
  184.2570  179.2370  139.7090 C   0  0  0  0  0  2  0  0  0  0  0  0
  188.6880  178.4400  134.8160 C   0  0  0  0  0  3  0  0  0  0  0  0
  185.1230  176.0860  137.8230 C   0  0  1  0  0  3  0  0  0  0  0  0
  183.2290  177.3320  138.4770 C   0  0  2  0  0  3  0  0  0  0  0  0
  184.0540  176.9650  137.3250 N   0  0  2  0  0  0  0  0  0  0  0  0
  189.2140  178.4760  136.1080 C   0  0  0  0  0  3  0  0  0  0  0  0
  180.5730  177.3590  137.6300 C   0  0  1  0  0  0  0  0  0  0  0  0
  179.6570  177.0910  138.8720 C   0  0  2  0  0  3  0  0  0  0  0  0
  180.2490  177.4400  140.2260 C   0  0  2  0  0  3  0  0  0  0  0  0
  180.1280  175.9750  139.7920 C   0  0  1  0  0  3  0  0  0  0  0  0
  179.0180  175.3420  140.3600 O   0  0  0  0  0  1  0  0  0  0  0  0
  179.1390  177.9090  141.1570 C   0  0  0  0  0  2  0  0  0  0  0  0
  179.7310  178.6050  142.3770 C   0  0  1  0  0  3  0  0  0  0  0  0
  181.1960  178.9300  142.1440 C   0  0  0  0  0  1  0  0  0  0  0  0
  178.9780  179.8070  142.7360 N   0  0  0  0  0  2  0  0  0  0  0  0
  179.7850  180.8900  142.5890 O   0  0  0  0  0  1  0  0  0  0  0  0
  180.9320  179.2190  135.8100 C   0  0  0  0  0  1  0  0  0  0  0  0
  180.8290  178.8680  137.2890 C   0  0  0  0  0  3  0  0  0  0  0  0
  179.9300  179.8610  138.0140 C   0  0  0  0  0  1  0  0  0  0  0  0
  179.7780  176.7160  136.4660 C   0  0  0  0  0  2  0  0  0  0  0  0
  178.9310  175.4880  136.7880 C   0  0  0  0  0  2  0  0  0  0  0  0
  178.9730  174.4650  135.6610 C   0  0  0  0  0  2  0  0  0  0  0  0
  179.1030  173.0450  137.7090 C   0  0  0  0  0  1  0  0  0  0  0  0
  179.1990  173.0590  136.1940 C   0  0  0  0  0  2  0  0  0  0  0  0
  185.4470  174.9320  136.8640 C   0  0  0  0  0  2  0  0  0  0  0  0
  186.6530  174.1440  137.3470 C   0  0  0  0  0  3  0  0  0  0  0  0
  187.6480  171.9660  137.1920 C   0  0  0  0  0  2  0  0  0  0  0  0
  188.4770  172.9030  136.3320 C   0  0  0  0  0  2  0  0  0  0  0  0
  186.3330  172.6700  137.4390 C   0  0  0  0  0  2  0  0  0  0  0  0
  187.7780  174.2510  136.3410 C   0  0  0  0  0  2  0  0  0  0  0  0
  2 22  1  6  0  0  0
  2 19  1  0  0  0  0
  3 14  1  6  0  0  0
  3 20  1  0  0  0  0
  3  8  1  0  0  0  0
  3  2  1  0  0  0  0
  4 11  1  0  0  0  0
  5  7  1  6  0  0  0
  5  1  1  0  0  0  0
  6  4  2  0  0  0  0
  7 16  1  0  0  0  0
  8  2  1  0  0  0  0
  9  4  1  6  0  0  0
  9  5  1  0  0  0  0
 10 16  1  0  0  0  0
 11 12  1  0  0  0  0
 12 13  1  0  0  0  0
 13  1  1  0  0  0  0
 15 17  2  0  0  0  0
 15  6  1  0  0  0  0
 17 21  1  0  0  0  0
 18 40  1  6  0  0  0
 18  9  1  0  0  0  0
 19 10  1  6  0  0  0
 20 18  1  0  0  0  0
 20 19  1  0  0  0  0
 21 11  2  0  0  0  0
 22 23  1  0  0  0  0
 23 25  1  0  0  0  0
 23 24  1  0  0  0  0
 24 27  1  0  0  0  0
 25 24  1  0  0  0  0
 25 26  1  0  0  0  0
 27 28  1  0  0  0  0
 28 30  1  0  0  0  0
 29 28  1  0  0  0  0
 31 30  1  0  0  0  0
 32 33  1  0  0  0  0
 33 22  1  0  0  0  0
 33 34  1  0  0  0  0
 35 36  1  0  0  0  0
 35 22  1  0  0  0  0
 37 39  1  0  0  0  0
 37 36  1  0  0  0  0
 39 38  1  0  0  0  0
 40 41  1  0  0  0  0
 41 44  1  0  0  0  0
 42 44  1  0  0  0  0
 43 45  1  0  0  0  0
 43 42  1  0  0  0  0
 45 41  1  0  0  0  0
M  END
>  <MODEL>
2

>  <REMARK>
 VINA RESULT:      -3.9      2.555      8.599
  Name = 
  12 active torsions:
  status: ('A' for Active; 'I' for Inactive)
    1  A    between atoms: C_2  and  C_3
    2  A    between atoms: C_3  and  C_16
    3  A    between atoms: C_3  and  C_30
    4  A    between atoms: C_3  and  C_44
    5  A    between atoms: N_4  and  C_12
    6  A    between atoms: C_6  and  C_24
    7  A    between atoms: C_12  and  C_33
    8  A    between atoms: C_19  and  C_33
    9  A    between atoms: C_21  and  C_37
   10  A    between atoms: C_24  and  C_35
   11  A    between atoms: C_32  and  C_37
   12  A    between atoms: C_32  and  C_44
                            x       y       z     vdW  Elec       q    Type
                         _______ _______ _______ _____ _____    ______ ____

>  <TORSDO>
F 12

$$$$
=
 OpenBabel11062417263D

 45 51  0  0  1  0  0  0  0  0999 V2000
  196.1390  174.4460  139.9140 O   0  0  0  0  0  0  0  0  0  0  0  0
  190.7220  174.9100  137.2200 C   0  0  1  0  0  0  0  0  0  0  0  0
  191.6490  174.4270  136.1010 C   0  0  1  0  0  0  0  0  0  0  0  0
  196.0210  174.7160  136.8400 C   0  0  0  0  0  0  0  0  0  0  0  0
  194.9770  174.7680  139.1800 C   0  0  1  0  0  3  0  0  0  0  0  0
  195.6510  175.0180  135.5200 C   0  0  0  0  0  3  0  0  0  0  0  0
  194.6820  176.2760  139.1200 C   0  0  0  0  0  2  0  0  0  0  0  0
  190.6300  173.4800  136.7190 C   0  0  0  0  0  2  0  0  0  0  0  0
  195.0320  174.0950  137.8070 C   0  0  1  0  0  3  0  0  0  0  0  0
  192.2820  176.5910  138.4500 C   0  0  0  0  0  2  0  0  0  0  0  0
  197.3650  174.8900  137.2300 C   0  0  0  0  0  0  0  0  0  0  0  0
  197.7670  174.7120  138.5560 O   0  0  0  0  0  0  0  0  0  0  0  0
  197.0900  175.2970  139.5620 O   0  0  0  0  0  0  0  0  0  0  0  0
  191.4410  174.9980  134.7090 C   0  0  0  0  0  1  0  0  0  0  0  0
  196.6040  175.4500  134.5940 C   0  0  0  0  0  3  0  0  0  0  0  0
  193.2740  176.5850  139.6030 C   0  0  0  0  0  2  0  0  0  0  0  0
  197.9410  175.5720  134.9760 C   0  0  0  0  0  3  0  0  0  0  0  0
  193.6590  173.6470  137.2670 C   0  0  1  0  0  3  0  0  0  0  0  0
  192.0090  175.1710  137.9890 C   0  0  2  0  0  3  0  0  0  0  0  0
  192.8580  174.8090  136.8530 N   0  0  2  0  0  0  0  0  0  0  0  0
  198.3200  175.2910  136.2900 C   0  0  0  0  0  3  0  0  0  0  0  0
  189.5240  175.9240  136.9710 C   0  0  1  0  0  0  0  0  0  0  0  0
  189.6570  177.0940  138.0030 C   0  0  2  0  0  3  0  0  0  0  0  0
  188.6710  177.0810  139.1580 C   0  0  2  0  0  3  0  0  0  0  0  0
  188.5020  178.0830  138.0100 C   0  0  1  0  0  3  0  0  0  0  0  0
  188.9810  179.3550  138.3390 O   0  0  0  0  0  1  0  0  0  0  0  0
  189.3380  177.6610  140.3990 C   0  0  0  0  0  2  0  0  0  0  0  0
  188.5350  177.3060  141.6440 C   0  0  1  0  0  3  0  0  0  0  0  0
  189.4300  176.6570  142.6860 C   0  0  0  0  0  1  0  0  0  0  0  0
  187.8460  178.4720  142.1970 N   0  0  0  0  0  2  0  0  0  0  0  0
  186.8710  178.8540  141.3310 O   0  0  0  0  0  1  0  0  0  0  0  0
  188.4050  175.8530  134.5960 C   0  0  0  0  0  1  0  0  0  0  0  0
  189.5600  176.3440  135.4600 C   0  0  0  0  0  3  0  0  0  0  0  0
  189.8350  177.8190  135.2010 C   0  0  0  0  0  1  0  0  0  0  0  0
  188.1280  175.3350  137.2900 C   0  0  0  0  0  2  0  0  0  0  0  0
  187.8720  173.8830  136.9000 C   0  0  0  0  0  2  0  0  0  0  0  0
  186.4440  173.6750  136.4130 C   0  0  0  0  0  2  0  0  0  0  0  0
  184.4490  172.3730  137.1560 C   0  0  0  0  0  1  0  0  0  0  0  0
  185.4980  173.3890  137.5690 C   0  0  0  0  0  2  0  0  0  0  0  0
  193.8350  172.6100  136.1480 C   0  0  0  0  0  2  0  0  0  0  0  0
  194.3070  171.2790  136.7090 C   0  0  0  0  0  3  0  0  0  0  0  0
  196.0320  169.6360  136.4200 C   0  0  0  0  0  2  0  0  0  0  0  0
  196.3440  170.3980  137.6950 C   0  0  0  0  0  2  0  0  0  0  0  0
  195.0380  170.4790  135.6550 C   0  0  0  0  0  2  0  0  0  0  0  0
  195.3160  171.5100  137.8120 C   0  0  0  0  0  2  0  0  0  0  0  0
  2 22  1  6  0  0  0
  2 19  1  0  0  0  0
  3 14  1  6  0  0  0
  3  8  1  0  0  0  0
  3 20  1  0  0  0  0
  3  2  1  0  0  0  0
  4 11  1  0  0  0  0
  5  7  1  6  0  0  0
  5  1  1  0  0  0  0
  6  4  2  0  0  0  0
  7 16  1  0  0  0  0
  8  2  1  0  0  0  0
  9  4  1  6  0  0  0
  9  5  1  0  0  0  0
 10 16  1  0  0  0  0
 11 12  1  0  0  0  0
 12 13  1  0  0  0  0
 13  1  1  0  0  0  0
 15 17  2  0  0  0  0
 15  6  1  0  0  0  0
 17 21  1  0  0  0  0
 18 40  1  6  0  0  0
 18  9  1  0  0  0  0
 19 10  1  6  0  0  0
 20 18  1  0  0  0  0
 20 19  1  0  0  0  0
 21 11  2  0  0  0  0
 22 35  1  0  0  0  0
 22 23  1  0  0  0  0
 23 25  1  0  0  0  0
 23 24  1  0  0  0  0
 24 27  1  0  0  0  0
 25 26  1  0  0  0  0
 25 24  1  0  0  0  0
 27 28  1  0  0  0  0
 28 30  1  0  0  0  0
 28 29  1  0  0  0  0
 31 30  1  0  0  0  0
 32 33  1  0  0  0  0
 33 22  1  0  0  0  0
 34 33  1  0  0  0  0
 36 35  1  0  0  0  0
 37 36  1  0  0  0  0
 37 39  1  0  0  0  0
 38 39  1  0  0  0  0
 40 41  1  0  0  0  0
 41 45  1  0  0  0  0
 42 43  1  0  0  0  0
 43 45  1  0  0  0  0
 44 42  1  0  0  0  0
 44 41  1  0  0  0  0
M  END
>  <MODEL>
3

>  <REMARK>
 VINA RESULT:      -3.6      4.828     11.563
  Name = 
  12 active torsions:
  status: ('A' for Active; 'I' for Inactive)
    1  A    between atoms: C_2  and  C_3
    2  A    between atoms: C_3  and  C_16
    3  A    between atoms: C_3  and  C_30
    4  A    between atoms: C_3  and  C_44
    5  A    between atoms: N_4  and  C_12
    6  A    between atoms: C_6  and  C_24
    7  A    between atoms: C_12  and  C_33
    8  A    between atoms: C_19  and  C_33
    9  A    between atoms: C_21  and  C_37
   10  A    between atoms: C_24  and  C_35
   11  A    between atoms: C_32  and  C_37
   12  A    between atoms: C_32  and  C_44
                            x       y       z     vdW  Elec       q    Type
                         _______ _______ _______ _____ _____    ______ ____

>  <TORSDO>
F 12

$$$$
=
 OpenBabel11062417263D

 45 51  0  0  1  0  0  0  0  0999 V2000
  181.2810  174.7980  138.7660 O   0  0  0  0  0  0  0  0  0  0  0  0
  187.0310  176.3110  137.5550 C   0  0  1  0  0  0  0  0  0  0  0  0
  186.2280  177.5370  137.1120 C   0  0  1  0  0  0  0  0  0  0  0  0
  181.8340  177.0240  136.6970 C   0  0  0  0  0  0  0  0  0  0  0  0
  182.5540  175.1060  138.2370 C   0  0  1  0  0  3  0  0  0  0  0  0
  182.4010  177.8460  135.7110 C   0  0  0  0  0  3  0  0  0  0  0  0
  182.9750  174.1980  137.0700 C   0  0  0  0  0  2  0  0  0  0  0  0
  187.0750  177.5860  138.3760 C   0  0  0  0  0  2  0  0  0  0  0  0
  182.6310  176.6000  137.9160 C   0  0  1  0  0  3  0  0  0  0  0  0
  185.4610  174.3910  136.7670 C   0  0  0  0  0  2  0  0  0  0  0  0
  180.4680  176.6850  136.6030 C   0  0  0  0  0  0  0  0  0  0  0  0
  179.8780  175.7830  137.4910 O   0  0  0  0  0  0  0  0  0  0  0  0
  180.4580  174.5960  137.7480 O   0  0  0  0  0  0  0  0  0  0  0  0
  186.6670  178.2570  135.8490 C   0  0  0  0  0  1  0  0  0  0  0  0
  181.6190  178.3540  134.6700 C   0  0  0  0  0  3  0  0  0  0  0  0
  184.3250  173.5500  137.3290 C   0  0  0  0  0  2  0  0  0  0  0  0
  180.2570  178.0540  134.6120 C   0  0  0  0  0  3  0  0  0  0  0  0
  184.0230  177.2240  138.1360 C   0  0  1  0  0  3  0  0  0  0  0  0
  185.6780  175.6200  137.6320 C   0  0  2  0  0  3  0  0  0  0  0  0
  184.9630  176.7800  137.0960 N   0  0  2  0  0  0  0  0  0  0  0  0
  179.6830  177.2240  135.5770 C   0  0  0  0  0  3  0  0  0  0  0  0
  188.3300  175.8080  136.7890 C   0  0  1  0  0  0  0  0  0  0  0  0
  189.5470  175.9280  137.7660 C   0  0  2  0  0  3  0  0  0  0  0  0
  189.4100  176.9510  138.8810 C   0  0  2  0  0  3  0  0  0  0  0  0
  190.3190  177.2350  137.6800 C   0  0  1  0  0  3  0  0  0  0  0  0
  191.6670  176.9980  137.9640 O   0  0  0  0  0  1  0  0  0  0  0  0
  190.1480  176.4530  140.1170 C   0  0  0  0  0  2  0  0  0  0  0  0
  190.0540  177.4810  141.2380 C   0  0  1  0  0  3  0  0  0  0  0  0
  188.8210  177.2310  142.0880 C   0  0  0  0  0  1  0  0  0  0  0  0
  191.2640  177.5000  142.0600 N   0  0  0  0  0  2  0  0  0  0  0  0
  192.3490  177.5080  141.2430 O   0  0  0  0  0  1  0  0  0  0  0  0
  187.9870  174.2140  134.7290 C   0  0  0  0  0  1  0  0  0  0  0  0
  188.0360  174.3670  136.2450 C   0  0  0  0  0  3  0  0  0  0  0  0
  188.8650  173.2530  136.8700 C   0  0  0  0  0  1  0  0  0  0  0  0
  188.7460  176.7110  135.6010 C   0  0  0  0  0  2  0  0  0  0  0  0
  190.2370  176.8420  135.3080 C   0  0  0  0  0  2  0  0  0  0  0  0
  190.7800  175.6110  134.5950 C   0  0  0  0  0  2  0  0  0  0  0  0
  192.5930  173.9250  134.9090 C   0  0  0  0  0  1  0  0  0  0  0  0
  192.2580  175.4050  134.8860 C   0  0  0  0  0  2  0  0  0  0  0  0
  183.9170  178.7520  138.2350 C   0  0  0  0  0  2  0  0  0  0  0  0
  183.8250  179.1990  139.6850 C   0  0  0  0  0  3  0  0  0  0  0  0
  183.3040  178.3570  141.8710 C   0  0  0  0  0  2  0  0  0  0  0  0
  184.8100  178.5390  141.8040 C   0  0  0  0  0  2  0  0  0  0  0  0
  182.8130  178.3700  140.4420 C   0  0  0  0  0  2  0  0  0  0  0  0
  185.1450  178.9620  140.3850 C   0  0  0  0  0  2  0  0  0  0  0  0
  2 22  1  6  0  0  0
  2 19  1  0  0  0  0
  2  8  1  0  0  0  0
  3 14  1  6  0  0  0
  3  2  1  0  0  0  0
  3  8  1  0  0  0  0
  5  7  1  6  0  0  0
  5  1  1  0  0  0  0
  6  4  2  0  0  0  0
  7 16  1  0  0  0  0
  9  4  1  6  0  0  0
  9 18  1  0  0  0  0
  9  5  1  0  0  0  0
 10 16  1  0  0  0  0
 11  4  1  0  0  0  0
 11 12  1  0  0  0  0
 12 13  1  0  0  0  0
 13  1  1  0  0  0  0
 15  6  1  0  0  0  0
 17 15  2  0  0  0  0
 17 21  1  0  0  0  0
 18 40  1  6  0  0  0
 19 10  1  6  0  0  0
 20  3  1  0  0  0  0
 20 19  1  0  0  0  0
 20 18  1  0  0  0  0
 21 11  2  0  0  0  0
 22 23  1  0  0  0  0
 23 24  1  0  0  0  0
 24 27  1  0  0  0  0
 25 23  1  0  0  0  0
 25 26  1  0  0  0  0
 25 24  1  0  0  0  0
 27 28  1  0  0  0  0
 28 30  1  0  0  0  0
 28 29  1  0  0  0  0
 31 30  1  0  0  0  0
 32 33  1  0  0  0  0
 33 22  1  0  0  0  0
 33 34  1  0  0  0  0
 35 22  1  0  0  0  0
 36 35  1  0  0  0  0
 37 39  1  0  0  0  0
 37 36  1  0  0  0  0
 39 38  1  0  0  0  0
 40 41  1  0  0  0  0
 41 45  1  0  0  0  0
 41 44  1  0  0  0  0
 43 42  1  0  0  0  0
 44 42  1  0  0  0  0
 45 43  1  0  0  0  0
M  END
>  <MODEL>
4

>  <REMARK>
 VINA RESULT:      -3.2      2.331      5.160
  Name = 
  12 active torsions:
  status: ('A' for Active; 'I' for Inactive)
    1  A    between atoms: C_2  and  C_3
    2  A    between atoms: C_3  and  C_16
    3  A    between atoms: C_3  and  C_30
    4  A    between atoms: C_3  and  C_44
    5  A    between atoms: N_4  and  C_12
    6  A    between atoms: C_6  and  C_24
    7  A    between atoms: C_12  and  C_33
    8  A    between atoms: C_19  and  C_33
    9  A    between atoms: C_21  and  C_37
   10  A    between atoms: C_24  and  C_35
   11  A    between atoms: C_32  and  C_37
   12  A    between atoms: C_32  and  C_44
                            x       y       z     vdW  Elec       q    Type
                         _______ _______ _______ _____ _____    ______ ____

>  <TORSDO>
F 12

$$$$
=
 OpenBabel11062417263D

 45 51  0  0  1  0  0  0  0  0999 V2000
  180.0790  176.5800  140.2840 O   0  0  0  0  0  0  0  0  0  0  0  0
  185.2660  176.0950  137.1730 C   0  0  1  0  0  0  0  0  0  0  0  0
  185.2860  177.5340  137.6980 C   0  0  1  0  0  0  0  0  0  0  0  0
  181.4630  179.1520  139.2810 C   0  0  0  0  0  0  0  0  0  0  0  0
  181.1650  176.6090  139.3810 C   0  0  1  0  0  3  0  0  0  0  0  0
  182.2180  180.0930  138.5620 C   0  0  0  0  0  3  0  0  0  0  0  0
  180.7440  176.5040  137.9060 C   0  0  0  0  0  2  0  0  0  0  0  0
  186.2060  176.4820  138.3000 C   0  0  0  0  0  2  0  0  0  0  0  0
  182.0550  177.8160  139.6840 C   0  0  1  0  0  3  0  0  0  0  0  0
  182.7520  175.8400  136.5510 C   0  0  0  0  0  2  0  0  0  0  0  0
  180.1740  179.5110  139.7290 C   0  0  0  0  0  0  0  0  0  0  0  0
  179.3360  178.5820  140.3510 O   0  0  0  0  0  0  0  0  0  0  0  0
  179.1310  177.3700  139.8040 O   0  0  0  0  0  0  0  0  0  0  0  0
  185.8300  178.6170  136.7830 C   0  0  0  0  0  1  0  0  0  0  0  0
  181.7200  181.3750  138.3240 C   0  0  0  0  0  3  0  0  0  0  0  0
  181.4630  175.3640  137.2040 C   0  0  0  0  0  2  0  0  0  0  0  0
  180.4640  181.7370  138.8140 C   0  0  0  0  0  3  0  0  0  0  0  0
  183.5570  177.5730  139.4350 C   0  0  1  0  0  3  0  0  0  0  0  0
  183.8090  176.0990  137.6100 C   0  0  2  0  0  3  0  0  0  0  0  0
  183.8420  177.5110  137.9940 N   0  0  2  0  0  0  0  0  0  0  0  0
  179.6950  180.8080  139.5170 C   0  0  0  0  0  3  0  0  0  0  0  0
  185.8460  175.6880  135.7510 C   0  0  1  0  0  0  0  0  0  0  0  0
  186.2920  174.1890  135.8200 C   0  0  2  0  0  3  0  0  0  0  0  0
  185.2680  173.2120  136.3710 C   0  0  2  0  0  3  0  0  0  0  0  0
  186.4710  173.6310  137.2230 C   0  0  1  0  0  3  0  0  0  0  0  0
  187.4890  172.6730  137.2180 O   0  0  0  0  0  1  0  0  0  0  0  0
  185.4330  171.8640  135.6800 C   0  0  0  0  0  2  0  0  0  0  0  0
  184.0950  171.1380  135.6110 C   0  0  1  0  0  3  0  0  0  0  0  0
  184.3070  169.6360  135.5480 C   0  0  0  0  0  1  0  0  0  0  0  0
  183.2230  171.4990  136.7290 N   0  0  0  0  0  2  0  0  0  0  0  0
  182.0750  172.0320  136.2340 O   0  0  0  0  0  1  0  0  0  0  0  0
  183.5710  175.0650  134.5960 C   0  0  0  0  0  1  0  0  0  0  0  0
  184.7540  176.0220  134.6760 C   0  0  0  0  0  3  0  0  0  0  0  0
  184.2770  177.4680  134.6590 C   0  0  0  0  0  1  0  0  0  0  0  0
  187.1560  176.4240  135.3740 C   0  0  0  0  0  2  0  0  0  0  0  0
  188.4140  175.5780  135.2060 C   0  0  0  0  0  2  0  0  0  0  0  0
  189.5440  176.0700  136.1000 C   0  0  0  0  0  2  0  0  0  0  0  0
  189.4340  177.8070  137.8880 C   0  0  0  0  0  1  0  0  0  0  0  0
  189.4170  177.5570  136.3920 C   0  0  0  0  0  2  0  0  0  0  0  0
  184.4000  178.6250  140.1690 C   0  0  0  0  0  2  0  0  0  0  0  0
  184.7120  178.1800  141.5880 C   0  0  0  0  0  3  0  0  0  0  0  0
  186.0610  178.7780  143.4800 C   0  0  0  0  0  2  0  0  0  0  0  0
  184.6290  179.1620  143.8070 C   0  0  0  0  0  2  0  0  0  0  0  0
  186.1150  178.5810  141.9820 C   0  0  0  0  0  2  0  0  0  0  0  0
  183.8000  178.8880  142.5650 C   0  0  0  0  0  2  0  0  0  0  0  0
  2 22  1  6  0  0  0
  2 19  1  0  0  0  0
  2  3  1  0  0  0  0
  2  8  1  0  0  0  0
  3 14  1  6  0  0  0
  3 20  1  0  0  0  0
  3  8  1  0  0  0  0
  4 11  1  0  0  0  0
  5  7  1  6  0  0  0
  5  9  1  0  0  0  0
  5  1  1  0  0  0  0
  6  4  2  0  0  0  0
  9  4  1  6  0  0  0
 10 16  1  0  0  0  0
 11 12  1  0  0  0  0
 13  1  1  0  0  0  0
 13 12  1  0  0  0  0
 15  6  1  0  0  0  0
 15 17  2  0  0  0  0
 16  7  1  0  0  0  0
 17 21  1  0  0  0  0
 18  9  1  0  0  0  0
 18 40  1  6  0  0  0
 19 10  1  6  0  0  0
 19 20  1  0  0  0  0
 20 18  1  0  0  0  0
 21 11  2  0  0  0  0
 22 23  1  0  0  0  0
 23 24  1  0  0  0  0
 23 25  1  0  0  0  0
 24 25  1  0  0  0  0
 26 25  1  0  0  0  0
 27 24  1  0  0  0  0
 28 27  1  0  0  0  0
 28 30  1  0  0  0  0
 29 28  1  0  0  0  0
 31 30  1  0  0  0  0
 32 33  1  0  0  0  0
 33 22  1  0  0  0  0
 34 33  1  0  0  0  0
 35 22  1  0  0  0  0
 36 35  1  0  0  0  0
 36 37  1  0  0  0  0
 37 39  1  0  0  0  0
 39 38  1  0  0  0  0
 40 41  1  0  0  0  0
 41 44  1  0  0  0  0
 41 45  1  0  0  0  0
 42 43  1  0  0  0  0
 44 42  1  0  0  0  0
 45 43  1  0  0  0  0
M  END
>  <MODEL>
5

>  <REMARK>
 VINA RESULT:      -2.8      2.484      5.314
  Name = 
  12 active torsions:
  status: ('A' for Active; 'I' for Inactive)
    1  A    between atoms: C_2  and  C_3
    2  A    between atoms: C_3  and  C_16
    3  A    between atoms: C_3  and  C_30
    4  A    between atoms: C_3  and  C_44
    5  A    between atoms: N_4  and  C_12
    6  A    between atoms: C_6  and  C_24
    7  A    between atoms: C_12  and  C_33
    8  A    between atoms: C_19  and  C_33
    9  A    between atoms: C_21  and  C_37
   10  A    between atoms: C_24  and  C_35
   11  A    between atoms: C_32  and  C_37
   12  A    between atoms: C_32  and  C_44
                            x       y       z     vdW  Elec       q    Type
                         _______ _______ _______ _____ _____    ______ ____

>  <TORSDO>
F 12

$$$$
=
 OpenBabel11062417263D

 45 51  0  0  1  0  0  0  0  0999 V2000
  181.7460  179.7280  141.6420 O   0  0  0  0  0  0  0  0  0  0  0  0
  186.5760  178.2510  138.2790 C   0  0  1  0  0  0  0  0  0  0  0  0
  185.4230  177.4860  137.6230 C   0  0  1  0  0  0  0  0  0  0  0  0
  181.6480  177.1520  139.9410 C   0  0  0  0  0  0  0  0  0  0  0  0
  182.8560  179.1570  140.9820 C   0  0  1  0  0  3  0  0  0  0  0  0
  181.9700  175.9910  139.2200 C   0  0  0  0  0  3  0  0  0  0  0  0
  183.7310  178.2800  141.8930 C   0  0  0  0  0  2  0  0  0  0  0  0
  186.0260  178.7050  136.9390 C   0  0  0  0  0  2  0  0  0  0  0  0
  182.3920  178.4520  139.7070 C   0  0  1  0  0  3  0  0  0  0  0  0
  185.9690  177.9770  140.7950 C   0  0  0  0  0  2  0  0  0  0  0  0
  180.5380  177.1280  140.8120 C   0  0  0  0  0  0  0  0  0  0  0  0
  180.2370  178.2150  141.6360 O   0  0  0  0  0  0  0  0  0  0  0  0
  181.1920  178.7880  142.3920 O   0  0  0  0  0  0  0  0  0  0  0  0
  185.7020  176.0840  137.1090 C   0  0  0  0  0  1  0  0  0  0  0  0
  181.1860  174.8410  139.3320 C   0  0  0  0  0  3  0  0  0  0  0  0
  185.1840  178.7240  141.8620 C   0  0  0  0  0  2  0  0  0  0  0  0
  180.0610  174.8430  140.1580 C   0  0  0  0  0  3  0  0  0  0  0  0
  183.4010  178.5210  138.5430 C   0  0  1  0  0  3  0  0  0  0  0  0
  185.5930  178.4870  139.4160 C   0  0  2  0  0  3  0  0  0  0  0  0
  184.5580  177.6520  138.8050 N   0  0  2  0  0  0  0  0  0  0  0  0
  179.7370  175.9840  140.8940 C   0  0  0  0  0  3  0  0  0  0  0  0
  188.0500  177.6670  138.3840 C   0  0  1  0  0  0  0  0  0  0  0  0
  188.3390  176.8440  137.0830 C   0  0  2  0  0  3  0  0  0  0  0  0
  189.7910  176.7810  136.6420 C   0  0  2  0  0  3  0  0  0  0  0  0
  188.7920  177.6650  135.8870 C   0  0  1  0  0  3  0  0  0  0  0  0
  188.3330  177.0650  134.7100 O   0  0  0  0  0  1  0  0  0  0  0  0
  190.0600  175.4370  135.9780 C   0  0  0  0  0  2  0  0  0  0  0  0
  191.3510  174.8320  136.5150 C   0  0  1  0  0  3  0  0  0  0  0  0
  192.0270  175.7910  137.4790 C   0  0  0  0  0  1  0  0  0  0  0  0
  191.1220  173.5310  137.1430 N   0  0  0  0  0  2  0  0  0  0  0  0
  189.8070  173.4280  137.4700 O   0  0  0  0  0  1  0  0  0  0  0  0
  189.0600  179.9600  137.5960 C   0  0  0  0  0  1  0  0  0  0  0  0
  189.0220  178.8670  138.6580 C   0  0  0  0  0  3  0  0  0  0  0  0
  188.9300  179.4750  140.0510 C   0  0  0  0  0  1  0  0  0  0  0  0
  188.2300  176.6160  139.5080 C   0  0  0  0  0  2  0  0  0  0  0  0
  189.5140  176.6770  140.3280 C   0  0  0  0  0  2  0  0  0  0  0  0
  189.2330  176.5800  141.8210 C   0  0  0  0  0  2  0  0  0  0  0  0
  190.5940  177.1870  143.8220 C   0  0  0  0  0  1  0  0  0  0  0  0
  190.5000  176.2820  142.6080 C   0  0  0  0  0  2  0  0  0  0  0  0
  182.7050  178.2090  137.2110 C   0  0  0  0  0  2  0  0  0  0  0  0
  181.4390  179.0330  137.0510 C   0  0  0  0  0  3  0  0  0  0  0  0
  180.7120  181.2900  136.6830 C   0  0  0  0  0  2  0  0  0  0  0  0
  180.5010  180.5310  135.3860 C   0  0  0  0  0  2  0  0  0  0  0  0
  181.6600  180.4560  137.5130 C   0  0  0  0  0  2  0  0  0  0  0  0
  181.0680  179.1370  135.5890 C   0  0  0  0  0  2  0  0  0  0  0  0
  1 13  1  0  0  0  0
  2 22  1  1  0  0  0
  2 19  1  0  0  0  0
  3 14  1  6  0  0  0
  3  2  1  0  0  0  0
  3 20  1  0  0  0  0
  4 11  1  0  0  0  0
  5  1  1  0  0  0  0
  5  7  1  1  0  0  0
  6 15  1  0  0  0  0
  6  4  2  0  0  0  0
  8  3  1  0  0  0  0
  8  2  1  0  0  0  0
  9  4  1  1  0  0  0
  9  5  1  0  0  0  0
 10 16  1  0  0  0  0
 11 21  2  0  0  0  0
 11 12  1  0  0  0  0
 12 13  1  0  0  0  0
 15 17  2  0  0  0  0
 16  7  1  0  0  0  0
 17 21  1  0  0  0  0
 18 40  1  6  0  0  0
 18 20  1  0  0  0  0
 18  9  1  0  0  0  0
 19 10  1  1  0  0  0
 20 19  1  0  0  0  0
 22 33  1  0  0  0  0
 22 35  1  0  0  0  0
 23 22  1  0  0  0  0
 24 23  1  0  0  0  0
 25 24  1  0  0  0  0
 25 23  1  0  0  0  0
 26 25  1  0  0  0  0
 27 28  1  0  0  0  0
 27 24  1  0  0  0  0
 28 30  1  0  0  0  0
 28 29  1  0  0  0  0
 30 31  1  0  0  0  0
 32 33  1  0  0  0  0
 33 34  1  0  0  0  0
 35 36  1  0  0  0  0
 36 37  1  0  0  0  0
 37 39  1  0  0  0  0
 39 38  1  0  0  0  0
 41 40  1  0  0  0  0
 41 44  1  0  0  0  0
 42 44  1  0  0  0  0
 43 45  1  0  0  0  0
 43 42  1  0  0  0  0
 45 41  1  0  0  0  0
M  END
>  <MODEL>
6

>  <REMARK>
 VINA RESULT:      -2.6      1.609      2.115
  Name = 
  12 active torsions:
  status: ('A' for Active; 'I' for Inactive)
    1  A    between atoms: C_2  and  C_3
    2  A    between atoms: C_3  and  C_16
    3  A    between atoms: C_3  and  C_30
    4  A    between atoms: C_3  and  C_44
    5  A    between atoms: N_4  and  C_12
    6  A    between atoms: C_6  and  C_24
    7  A    between atoms: C_12  and  C_33
    8  A    between atoms: C_19  and  C_33
    9  A    between atoms: C_21  and  C_37
   10  A    between atoms: C_24  and  C_35
   11  A    between atoms: C_32  and  C_37
   12  A    between atoms: C_32  and  C_44
                            x       y       z     vdW  Elec       q    Type
                         _______ _______ _______ _____ _____    ______ ____

>  <TORSDO>
F 12

$$$$
=
 OpenBabel11062417263D

 45 51  0  0  1  0  0  0  0  0999 V2000
  188.5440  176.8590  139.8360 O   0  0  0  0  0  0  0  0  0  0  0  0
  182.6230  177.4790  138.6650 C   0  0  1  0  0  0  0  0  0  0  0  0
  183.2130  177.0040  137.3340 C   0  0  1  0  0  0  0  0  0  0  0  0
  187.6310  177.1990  136.9050 C   0  0  0  0  0  0  0  0  0  0  0  0
  187.2370  177.2180  139.4380 C   0  0  1  0  0  3  0  0  0  0  0  0
  186.9350  177.5360  135.7330 C   0  0  0  0  0  3  0  0  0  0  0  0
  186.9720  178.7320  139.4820 C   0  0  0  0  0  2  0  0  0  0  0  0
  182.3700  176.0620  138.1820 C   0  0  0  0  0  2  0  0  0  0  0  0
  186.9160  176.5740  138.0880 C   0  0  1  0  0  3  0  0  0  0  0  0
  184.4880  179.1040  139.4710 C   0  0  0  0  0  2  0  0  0  0  0  0
  189.0340  177.3410  136.9320 C   0  0  0  0  0  0  0  0  0  0  0  0
  189.7650  177.1260  138.1030 O   0  0  0  0  0  0  0  0  0  0  0  0
  189.3890  177.7010  139.2600 O   0  0  0  0  0  0  0  0  0  0  0  0
  182.6600  177.6090  136.0550 C   0  0  0  0  0  1  0  0  0  0  0  0
  187.6220  177.9720  134.5980 C   0  0  0  0  0  3  0  0  0  0  0  0
  185.7480  179.0550  140.3220 C   0  0  0  0  0  2  0  0  0  0  0  0
  189.0150  178.0620  134.6170 C   0  0  0  0  0  3  0  0  0  0  0  0
  185.4390  176.1630  137.9190 C   0  0  1  0  0  3  0  0  0  0  0  0
  184.0710  177.7000  139.0740 C   0  0  2  0  0  3  0  0  0  0  0  0
  184.5850  177.3480  137.7490 N   0  0  2  0  0  0  0  0  0  0  0  0
  189.7180  177.7450  135.7810 C   0  0  0  0  0  3  0  0  0  0  0  0
  181.4250  178.5190  138.7560 C   0  0  1  0  0  0  0  0  0  0  0  0
  181.0850  178.7370  140.2690 C   0  0  2  0  0  3  0  0  0  0  0  0
  181.9780  178.0170  141.2640 C   0  0  2  0  0  3  0  0  0  0  0  0
  180.5570  177.5100  140.9960 C   0  0  1  0  0  3  0  0  0  0  0  0
  179.6530  177.9080  141.9850 O   0  0  0  0  0  1  0  0  0  0  0  0
  182.1110  178.8600  142.5260 C   0  0  0  0  0  2  0  0  0  0  0  0
  183.5800  179.0360  142.8920 C   0  0  1  0  0  3  0  0  0  0  0  0
  183.7130  179.6790  144.2610 C   0  0  0  0  0  1  0  0  0  0  0  0
  184.3100  177.7700  142.8330 N   0  0  0  0  0  2  0  0  0  0  0  0
  185.5040  177.9230  143.4620 O   0  0  0  0  0  1  0  0  0  0  0  0
  181.0940  180.0770  136.6670 C   0  0  0  0  0  1  0  0  0  0  0  0
  181.8470  179.8050  137.9640 C   0  0  0  0  0  3  0  0  0  0  0  0
  181.9590  181.0750  138.7960 C   0  0  0  0  0  1  0  0  0  0  0  0
  180.0910  177.9920  138.1710 C   0  0  0  0  0  2  0  0  0  0  0  0
  180.0820  176.5750  137.6060 C   0  0  0  0  0  2  0  0  0  0  0  0
  178.9320  175.7520  138.1700 C   0  0  0  0  0  2  0  0  0  0  0  0
  179.0070  174.5190  140.3390 C   0  0  0  0  0  1  0  0  0  0  0  0
  179.4360  174.5070  138.8830 C   0  0  0  0  0  2  0  0  0  0  0  0
  185.2920  175.1480  136.7760 C   0  0  0  0  0  2  0  0  0  0  0  0
  185.0690  173.7460  137.3180 C   0  0  0  0  0  3  0  0  0  0  0  0
  183.7450  171.7830  136.9340 C   0  0  0  0  0  2  0  0  0  0  0  0
  185.1520  171.4800  136.4490 C   0  0  0  0  0  2  0  0  0  0  0  0
  183.6530  173.2860  137.0560 C   0  0  0  0  0  2  0  0  0  0  0  0
  185.9550  172.7610  136.5890 C   0  0  0  0  0  2  0  0  0  0  0  0
  2 22  1  1  0  0  0
  2 19  1  0  0  0  0
  3 14  1  6  0  0  0
  3 20  1  0  0  0  0
  3  8  1  0  0  0  0
  3  2  1  0  0  0  0
  4 11  1  0  0  0  0
  5  7  1  6  0  0  0
  5  1  1  0  0  0  0
  6  4  2  0  0  0  0
  7 16  1  0  0  0  0
  8  2  1  0  0  0  0
  9  4  1  6  0  0  0
  9  5  1  0  0  0  0
 10 16  1  0  0  0  0
 11 12  1  0  0  0  0
 12 13  1  0  0  0  0
 13  1  1  0  0  0  0
 15 17  2  0  0  0  0
 15  6  1  0  0  0  0
 17 21  1  0  0  0  0
 18 40  1  6  0  0  0
 18  9  1  0  0  0  0
 19 10  1  6  0  0  0
 20 18  1  0  0  0  0
 20 19  1  0  0  0  0
 21 11  2  0  0  0  0
 22 23  1  0  0  0  0
 23 25  1  0  0  0  0
 23 24  1  0  0  0  0
 24 27  1  0  0  0  0
 25 24  1  0  0  0  0
 25 26  1  0  0  0  0
 27 28  1  0  0  0  0
 28 29  1  0  0  0  0
 30 28  1  0  0  0  0
 30 31  1  0  0  0  0
 32 33  1  0  0  0  0
 33 22  1  0  0  0  0
 33 34  1  0  0  0  0
 35 22  1  0  0  0  0
 36 37  1  0  0  0  0
 36 35  1  0  0  0  0
 37 39  1  0  0  0  0
 39 38  1  0  0  0  0
 40 41  1  0  0  0  0
 42 44  1  0  0  0  0
 43 45  1  0  0  0  0
 43 42  1  0  0  0  0
 44 41  1  0  0  0  0
 45 41  1  0  0  0  0
M  END
>  <MODEL>
7

>  <REMARK>
 VINA RESULT:      -2.4      2.446      7.964
  Name = 
  12 active torsions:
  status: ('A' for Active; 'I' for Inactive)
    1  A    between atoms: C_2  and  C_3
    2  A    between atoms: C_3  and  C_16
    3  A    between atoms: C_3  and  C_30
    4  A    between atoms: C_3  and  C_44
    5  A    between atoms: N_4  and  C_12
    6  A    between atoms: C_6  and  C_24
    7  A    between atoms: C_12  and  C_33
    8  A    between atoms: C_19  and  C_33
    9  A    between atoms: C_21  and  C_37
   10  A    between atoms: C_24  and  C_35
   11  A    between atoms: C_32  and  C_37
   12  A    between atoms: C_32  and  C_44
                            x       y       z     vdW  Elec       q    Type
                         _______ _______ _______ _____ _____    ______ ____

>  <TORSDO>
F 12

$$$$
=
 OpenBabel11062417263D

 45 51  0  0  1  0  0  0  0  0999 V2000
  189.6380  178.6500  138.6370 O   0  0  0  0  0  0  0  0  0  0  0  0
  183.5970  178.1790  138.9660 C   0  0  1  0  0  0  0  0  0  0  0  0
  184.0430  178.2190  140.4310 C   0  0  1  0  0  0  0  0  0  0  0  0
  188.3650  177.5800  141.2400 C   0  0  0  0  0  0  0  0  0  0  0  0
  188.2790  178.2950  138.7800 C   0  0  1  0  0  3  0  0  0  0  0  0
  187.5190  176.9830  142.1890 C   0  0  0  0  0  3  0  0  0  0  0  0
  187.9550  176.8770  138.2790 C   0  0  0  0  0  2  0  0  0  0  0  0
  183.3500  179.4210  139.8030 C   0  0  0  0  0  2  0  0  0  0  0  0
  187.8250  178.5600  140.2170 C   0  0  1  0  0  3  0  0  0  0  0  0
  185.4740  176.7050  137.9280 C   0  0  0  0  0  2  0  0  0  0  0  0
  189.7540  177.3450  141.3190 C   0  0  0  0  0  0  0  0  0  0  0  0
  190.6290  177.8200  140.3390 O   0  0  0  0  0  0  0  0  0  0  0  0
  190.3700  177.6200  139.0340 O   0  0  0  0  0  0  0  0  0  0  0  0
  183.3150  177.3260  141.4210 C   0  0  0  0  0  1  0  0  0  0  0  0
  188.0450  176.1990  143.2190 C   0  0  0  0  0  3  0  0  0  0  0  0
  186.8280  176.8930  137.2600 C   0  0  0  0  0  2  0  0  0  0  0  0
  189.4250  176.0130  143.3180 C   0  0  0  0  0  3  0  0  0  0  0  0
  186.3580  179.0190  140.3420 C   0  0  1  0  0  3  0  0  0  0  0  0
  185.0740  177.9720  138.6630 C   0  0  2  0  0  3  0  0  0  0  0  0
  185.4390  177.9020  140.0790 N   0  0  2  0  0  0  0  0  0  0  0  0
  190.2760  176.5860  142.3720 C   0  0  0  0  0  3  0  0  0  0  0  0
  182.3750  177.2990  138.4600 C   0  0  1  0  0  0  0  0  0  0  0  0
  181.2830  177.2950  139.5830 C   0  0  2  0  0  3  0  0  0  0  0  0
  179.9680  176.6210  139.2320 C   0  0  2  0  0  3  0  0  0  0  0  0
  180.0590  178.1500  139.2960 C   0  0  1  0  0  3  0  0  0  0  0  0
  179.5590  178.6630  140.4970 O   0  0  0  0  0  1  0  0  0  0  0  0
  179.3800  175.9780  140.4820 C   0  0  0  0  0  2  0  0  0  0  0  0
  178.9310  174.5530  140.1820 C   0  0  1  0  0  3  0  0  0  0  0  0
  179.3530  174.1470  138.7810 C   0  0  0  0  0  1  0  0  0  0  0  0
  179.4300  173.6050  141.1770 N   0  0  0  0  0  2  0  0  0  0  0  0
  179.3220  174.1670  142.4090 O   0  0  0  0  0  1  0  0  0  0  0  0
  181.5240  179.3380  137.0410 C   0  0  0  0  0  1  0  0  0  0  0  0
  181.9190  177.8670  137.0720 C   0  0  0  0  0  3  0  0  0  0  0  0
  182.8310  177.5310  135.8990 C   0  0  0  0  0  1  0  0  0  0  0  0
  182.7110  175.7960  138.2960 C   0  0  0  0  0  2  0  0  0  0  0  0
  182.3740  175.1420  136.9590 C   0  0  0  0  0  2  0  0  0  0  0  0
  182.4680  173.6250  137.0360 C   0  0  0  0  0  2  0  0  0  0  0  0
  184.5510  172.2840  137.3400 C   0  0  0  0  0  1  0  0  0  0  0  0
  183.7330  173.1110  136.3660 C   0  0  0  0  0  2  0  0  0  0  0  0
  186.1190  179.6850  141.7050 C   0  0  0  0  0  2  0  0  0  0  0  0
  185.2640  178.8030  142.5990 C   0  0  0  0  0  3  0  0  0  0  0  0
  185.0300  178.1350  144.8920 C   0  0  0  0  0  2  0  0  0  0  0  0
  183.8960  179.0950  144.5840 C   0  0  0  0  0  2  0  0  0  0  0  0
  186.0530  178.3220  143.7960 C   0  0  0  0  0  2  0  0  0  0  0  0
  184.1140  179.6030  143.1700 C   0  0  0  0  0  2  0  0  0  0  0  0
  1  5  1  0  0  0  0
  1 13  1  0  0  0  0
  2 22  1  6  0  0  0
  2  8  1  0  0  0  0
  2  3  1  0  0  0  0
  3 14  1  1  0  0  0
  4 11  2  0  0  0  0
  4  6  1  0  0  0  0
  5  7  1  1  0  0  0
  5  9  1  0  0  0  0
  6 15  2  0  0  0  0
  8  3  1  0  0  0  0
  9 18  1  0  0  0  0
  9  4  1  1  0  0  0
 11 21  1  0  0  0  0
 12 11  1  0  0  0  0
 13 12  1  0  0  0  0
 15 17  1  0  0  0  0
 16 10  1  0  0  0  0
 16  7  1  0  0  0  0
 18 40  1  1  0  0  0
 19 10  1  6  0  0  0
 19  2  1  0  0  0  0
 19 20  1  0  0  0  0
 20 18  1  0  0  0  0
 20  3  1  0  0  0  0
 21 17  2  0  0  0  0
 22 23  1  0  0  0  0
 24 25  1  0  0  0  0
 24 23  1  0  0  0  0
 24 27  1  0  0  0  0
 25 23  1  0  0  0  0
 25 26  1  0  0  0  0
 28 27  1  0  0  0  0
 28 30  1  0  0  0  0
 29 28  1  0  0  0  0
 30 31  1  0  0  0  0
 32 33  1  0  0  0  0
 33 22  1  0  0  0  0
 34 33  1  0  0  0  0
 35 22  1  0  0  0  0
 36 37  1  0  0  0  0
 36 35  1  0  0  0  0
 39 37  1  0  0  0  0
 39 38  1  0  0  0  0
 40 41  1  0  0  0  0
 41 45  1  0  0  0  0
 41 44  1  0  0  0  0
 43 42  1  0  0  0  0
 44 42  1  0  0  0  0
 45 43  1  0  0  0  0
M  END
>  <MODEL>
8

>  <REMARK>
 VINA RESULT:      -2.4      2.558      8.388
  Name = 
  12 active torsions:
  status: ('A' for Active; 'I' for Inactive)
    1  A    between atoms: C_2  and  C_3
    2  A    between atoms: C_3  and  C_16
    3  A    between atoms: C_3  and  C_30
    4  A    between atoms: C_3  and  C_44
    5  A    between atoms: N_4  and  C_12
    6  A    between atoms: C_6  and  C_24
    7  A    between atoms: C_12  and  C_33
    8  A    between atoms: C_19  and  C_33
    9  A    between atoms: C_21  and  C_37
   10  A    between atoms: C_24  and  C_35
   11  A    between atoms: C_32  and  C_37
   12  A    between atoms: C_32  and  C_44
                            x       y       z     vdW  Elec       q    Type
                         _______ _______ _______ _____ _____    ______ ____

>  <TORSDO>
F 12

$$$$
=
 OpenBabel11062417263D

 45 51  0  0  1  0  0  0  0  0999 V2000
  182.3290  179.8870  143.0850 O   0  0  0  0  0  0  0  0  0  0  0  0
  185.9700  178.5450  138.4200 C   0  0  1  0  0  0  0  0  0  0  0  0
  184.5680  178.2210  137.8970 C   0  0  1  0  0  0  0  0  0  0  0  0
  181.3070  177.9550  140.9020 C   0  0  0  0  0  0  0  0  0  0  0  0
  183.1310  179.3290  142.0660 C   0  0  1  0  0  3  0  0  0  0  0  0
  181.2040  177.0050  139.8740 C   0  0  0  0  0  3  0  0  0  0  0  0
  183.9190  178.0850  142.5110 C   0  0  0  0  0  2  0  0  0  0  0  0
  185.3140  179.4500  137.3940 C   0  0  0  0  0  2  0  0  0  0  0  0
  182.2880  179.1080  140.8080 C   0  0  1  0  0  3  0  0  0  0  0  0
  185.7810  177.6930  140.8720 C   0  0  0  0  0  2  0  0  0  0  0  0
  180.4000  177.8940  141.9820 C   0  0  0  0  0  0  0  0  0  0  0  0
  180.5250  178.7420  143.0850 O   0  0  0  0  0  0  0  0  0  0  0  0
  181.7100  178.8930  143.7040 O   0  0  0  0  0  0  0  0  0  0  0  0
  184.4030  176.9930  137.0180 C   0  0  0  0  0  1  0  0  0  0  0  0
  180.1990  176.0350  139.8970 C   0  0  0  0  0  3  0  0  0  0  0  0
  185.4050  178.2430  142.2400 C   0  0  0  0  0  2  0  0  0  0  0  0
  179.2770  176.0130  140.9440 C   0  0  0  0  0  3  0  0  0  0  0  0
  183.0560  179.3120  139.4870 C   0  0  1  0  0  3  0  0  0  0  0  0
  185.2950  178.6310  139.7810 C   0  0  2  0  0  3  0  0  0  0  0  0
  183.9970  178.2060  139.2550 N   0  0  2  0  0  0  0  0  0  0  0  0
  179.3760  176.9420  141.9820 C   0  0  0  0  0  3  0  0  0  0  0  0
  187.2540  177.6930  138.0320 C   0  0  1  0  0  0  0  0  0  0  0  0
  186.7710  176.3910  137.3070 C   0  0  2  0  0  3  0  0  0  0  0  0
  187.7800  175.2590  137.2240 C   0  0  2  0  0  3  0  0  0  0  0  0
  187.4560  176.0970  135.9820 C   0  0  1  0  0  3  0  0  0  0  0  0
  186.5570  175.4540  135.1260 O   0  0  0  0  0  1  0  0  0  0  0  0
  187.0480  173.9240  137.2840 C   0  0  0  0  0  2  0  0  0  0  0  0
  188.0170  172.7780  137.0230 C   0  0  1  0  0  3  0  0  0  0  0  0
  187.7890  172.1930  135.6400 C   0  0  0  0  0  1  0  0  0  0  0  0
  189.4090  173.1940  137.1930 N   0  0  0  0  0  2  0  0  0  0  0  0
  190.0660  173.0200  136.0160 O   0  0  0  0  0  1  0  0  0  0  0  0
  189.6850  178.2390  137.2000 C   0  0  0  0  0  1  0  0  0  0  0  0
  188.2090  178.6180  137.2000 C   0  0  0  0  0  3  0  0  0  0  0  0
  187.7370  178.9390  135.7880 C   0  0  0  0  0  1  0  0  0  0  0  0
  188.0340  177.1430  139.2510 C   0  0  0  0  0  2  0  0  0  0  0  0
  188.7770  178.1500  140.1230 C   0  0  0  0  0  2  0  0  0  0  0  0
  189.9470  177.5060  140.8550 C   0  0  0  0  0  2  0  0  0  0  0  0
  188.9280  177.5030  143.1330 C   0  0  0  0  0  1  0  0  0  0  0  0
  189.4700  176.6390  142.0100 C   0  0  0  0  0  2  0  0  0  0  0  0
  182.0760  179.5210  138.3240 C   0  0  0  0  0  2  0  0  0  0  0  0
  181.1010  180.6460  138.6280 C   0  0  0  0  0  3  0  0  0  0  0  0
  180.2870  182.7110  137.7170 C   0  0  0  0  0  2  0  0  0  0  0  0
  179.1920  181.6750  137.5360 C   0  0  0  0  0  2  0  0  0  0  0  0
  181.5570  181.9400  137.9940 C   0  0  0  0  0  2  0  0  0  0  0  0
  179.7540  180.3460  138.0090 C   0  0  0  0  0  2  0  0  0  0  0  0
  1 13  1  0  0  0  0
  2 22  1  6  0  0  0
  2 19  1  0  0  0  0
  3 14  1  6  0  0  0
  3  2  1  0  0  0  0
  3 20  1  0  0  0  0
  4 11  1  0  0  0  0
  5  7  1  1  0  0  0
  5  1  1  0  0  0  0
  6 15  1  0  0  0  0
  6  4  2  0  0  0  0
  8  3  1  0  0  0  0
  8  2  1  0  0  0  0
  9  4  1  6  0  0  0
  9  5  1  0  0  0  0
 10 16  1  0  0  0  0
 11 21  2  0  0  0  0
 11 12  1  0  0  0  0
 12 13  1  0  0  0  0
 15 17  2  0  0  0  0
 16  7  1  0  0  0  0
 17 21  1  0  0  0  0
 18 40  1  6  0  0  0
 18  9  1  0  0  0  0
 19 10  1  1  0  0  0
 20 18  1  0  0  0  0
 20 19  1  0  0  0  0
 22 35  1  0  0  0  0
 23 22  1  0  0  0  0
 24 27  1  0  0  0  0
 24 23  1  0  0  0  0
 25 24  1  0  0  0  0
 25 23  1  0  0  0  0
 26 25  1  0  0  0  0
 28 30  1  0  0  0  0
 28 27  1  0  0  0  0
 29 28  1  0  0  0  0
 31 30  1  0  0  0  0
 33 32  1  0  0  0  0
 33 22  1  0  0  0  0
 34 33  1  0  0  0  0
 35 36  1  0  0  0  0
 36 37  1  0  0  0  0
 37 39  1  0  0  0  0
 39 38  1  0  0  0  0
 40 41  1  0  0  0  0
 42 44  1  0  0  0  0
 43 42  1  0  0  0  0
 43 45  1  0  0  0  0
 44 41  1  0  0  0  0
 45 41  1  0  0  0  0
M  END
>  <MODEL>
9

>  <REMARK>
 VINA RESULT:      -2.4      2.044      2.665
  Name = 
  12 active torsions:
  status: ('A' for Active; 'I' for Inactive)
    1  A    between atoms: C_2  and  C_3
    2  A    between atoms: C_3  and  C_16
    3  A    between atoms: C_3  and  C_30
    4  A    between atoms: C_3  and  C_44
    5  A    between atoms: N_4  and  C_12
    6  A    between atoms: C_6  and  C_24
    7  A    between atoms: C_12  and  C_33
    8  A    between atoms: C_19  and  C_33
    9  A    between atoms: C_21  and  C_37
   10  A    between atoms: C_24  and  C_35
   11  A    between atoms: C_32  and  C_37
   12  A    between atoms: C_32  and  C_44
                            x       y       z     vdW  Elec       q    Type
                         _______ _______ _______ _____ _____    ______ ____

>  <TORSDO>
F 12

$$$$
