=
 OpenBabel11062412473D

 54 60  0  0  1  0  0  0  0  0999 V2000
  188.4150  178.3200  138.8700 C   0  0  2  0  0  3  0  0  0  0  0  0
  188.8580  177.5820  145.4480 C   0  0  0  0  0  0  0  0  0  0  0  0
  187.4820  178.8660  141.4440 C   0  0  2  0  0  3  0  0  0  0  0  0
  188.9040  178.3550  141.8250 C   0  0  1  0  0  3  0  0  0  0  0  0
  188.9480  176.2990  145.9670 F   0  0  0  0  0  0  0  0  0  0  0  0
  188.7970  178.1590  137.4490 C   0  0  0  0  0  0  0  0  0  0  0  0
  187.4170  177.9620  145.0770 C   0  0  1  0  0  3  0  0  0  0  0  0
  189.5700  177.6410  144.1410 C   0  0  2  0  0  3  0  0  0  0  0  0
  188.3080  178.8250  136.5000 O   0  0  0  0  0  0  0  0  0  0  0  0
  187.3060  177.6730  143.5850 C   0  0  1  0  0  3  0  0  0  0  0  0
  191.0100  178.0280  144.0150 C   0  0  0  0  0  1  0  0  0  0  0  0
  189.8490  177.2300  137.2740 N   0  0  0  0  0  0  0  0  0  0  0  0
  189.1710  177.1610  139.5220 C   0  0  1  0  0  3  0  0  0  0  0  0
  186.7470  178.8540  142.8020 C   0  0  2  0  0  3  0  0  0  0  0  0
  186.3740  177.1770  145.8580 C   0  0  0  0  0  1  0  0  0  0  0  0
  190.6300  176.6790  141.3580 O   0  0  0  0  0  1  0  0  0  0  0  0
  186.7510  177.9500  140.4340 C   0  0  0  0  0  2  0  0  0  0  0  0
  190.1010  176.7130  138.4320 C   0  0  0  0  0  0  0  0  0  0  0  0
  188.7060  177.6420  143.1270 C   0  0  1  0  0  3  0  0  0  0  0  0
  189.3770  178.4970  146.3460 F   0  0  0  0  0  0  0  0  0  0  0  0
  189.8550  177.6870  140.7780 C   0  0  2  0  0  3  0  0  0  0  0  0
  191.0840  175.6880  138.6220 N   0  0  0  0  0  2  0  0  0  0  0  0
  187.0220  178.2420  139.0740 O   0  0  0  0  0  0  0  0  0  0  0  0
  191.5450  175.6490  136.2100 C   0  0  0  0  0  2  0  0  0  0  0  0
  191.9790  175.1780  137.5850 C   0  0  1  0  0  0  0  0  0  0  0  0
  195.0900  175.7060  136.1230 F   0  0  0  0  0  0  0  0  0  0  0  0
  193.3990  175.6780  137.7930 C   0  0  0  0  0  2  0  0  0  0  0  0
  192.8250  175.8560  135.4340 C   0  0  0  0  0  2  0  0  0  0  0  0
  193.8640  176.2470  136.4640 C   0  0  2  0  0  3  0  0  0  0  0  0
  191.9740  173.7840  137.6170 O   0  0  0  0  0  1  0  0  0  0  0  0
  185.2410  178.9330  142.7710 C   0  0  0  0  0  0  0  0  0  0  0  0
  184.5710  179.7800  143.5560 C   0  0  0  0  0  2  0  0  0  0  0  0
  184.5170  178.2230  141.6750 C   0  0  0  0  0  2  0  0  0  0  0  0
  182.0590  178.5120  141.3340 C   0  0  0  0  0  1  0  0  0  0  0  0
  183.4300  179.1050  141.0650 C   0  0  2  0  0  3  0  0  0  0  0  0
  183.6270  179.3020  139.5600 C   0  0  2  0  0  3  0  0  0  0  0  0
  183.0530  180.4990  139.1170 O   0  0  0  0  0  1  0  0  0  0  0  0
  184.1370  177.6990  137.7440 C   0  0  0  0  0  3  0  0  0  0  0  0
  181.8650  178.4230  138.0790 N   0  0  0  0  0  0  0  0  0  0  0  0
  181.5810  176.1480  137.2310 C   0  0  0  0  0  2  0  0  0  0  0  0
  181.1650  177.5520  137.4200 C   0  0  0  0  0  3  0  0  0  0  0  0
  182.8330  175.6890  137.0920 C   0  0  0  0  0  0  0  0  0  0  0  0
  185.2180  175.0400  135.3770 C   0  0  0  0  0  2  0  0  0  0  0  0
  182.9740  174.2600  137.0800 N   0  0  0  0  0  0  0  0  0  0  0  0
  185.4680  174.0520  136.4990 C   0  0  1  0  0  3  0  0  0  0  0  0
  184.0190  176.6020  136.9950 C   0  0  0  0  0  0  0  0  0  0  0  0
  184.1220  172.2670  137.3400 O   0  0  0  0  0  0  0  0  0  0  0  0
  184.1690  173.4740  136.9840 C   0  0  0  0  0  0  0  0  0  0  0  0
  185.0730  176.4420  135.9360 C   0  0  0  0  0  2  0  0  0  0  0  0
  183.1190  178.1050  138.7530 C   0  0  2  0  0  3  0  0  0  0  0  0
  188.3780  174.0980  136.6870 O   0  0  0  0  0  0  0  0  0  0  0  0
  187.8250  173.0900  136.1730 C   0  0  0  0  0  0  0  0  0  0  0  0
  186.4000  173.0110  136.0620 N   0  0  0  0  0  2  0  0  0  0  0  0
  188.6610  171.9650  135.6800 C   0  0  0  0  0  1  0  0  0  0  0  0
  1  6  1  6  0  0  0
  1 23  1  0  0  0  0
  1 13  1  0  0  0  0
  2  5  1  0  0  0  0
  2 20  1  0  0  0  0
  3 17  1  6  0  0  0
  3  4  1  0  0  0  0
  3 14  1  0  0  0  0
  4 19  1  0  0  0  0
  7  2  1  0  0  0  0
  7 15  1  0  0  0  0
  8  2  1  0  0  0  0
  9  6  2  0  0  0  0
 10  7  1  0  0  0  0
 11  8  1  0  0  0  0
 12  6  1  0  0  0  0
 12 18  2  0  0  0  0
 13 21  1  0  0  0  0
 14 10  1  0  0  0  0
 18 22  1  0  0  0  0
 18 13  1  0  0  0  0
 19 10  1  0  0  0  0
 19  8  1  0  0  0  0
 21 16  1  0  0  0  0
 21  4  1  0  0  0  0
 23 17  1  0  0  0  0
 24 25  1  0  0  0  0
 25 30  1  0  0  0  0
 25 27  1  0  0  0  0
 25 22  1  0  0  0  0
 26 29  1  0  0  0  0
 28 24  1  0  0  0  0
 28 29  1  0  0  0  0
 29 27  1  0  0  0  0
 31 14  1  0  0  0  0
 31 32  2  0  0  0  0
 33 31  1  0  0  0  0
 35 34  1  0  0  0  0
 35 33  1  0  0  0  0
 36 35  1  0  0  0  0
 37 36  1  0  0  0  0
 38 50  1  0  0  0  0
 39 50  1  0  0  0  0
 40 41  1  0  0  0  0
 41 39  2  0  0  0  0
 42 40  1  0  0  0  0
 43 49  1  0  0  0  0
 43 45  1  0  0  0  0
 44 42  2  0  0  0  0
 45 48  1  0  0  0  0
 46 42  1  0  0  0  0
 46 38  2  0  0  0  0
 48 44  1  0  0  0  0
 48 47  2  0  0  0  0
 49 46  1  0  0  0  0
 50 36  1  0  0  0  0
 52 51  2  0  0  0  0
 53 52  1  0  0  0  0
 53 45  1  0  0  0  0
 54 52  1  0  0  0  0
M  END
>  <MODEL>
1

>  <REMARK>
 VINA RESULT:     -10.0      0.000      0.000
  Name = 
  7 active torsions:
  status: ('A' for Active; 'I' for Inactive)
    1  A    between atoms: C_5  and  C_33
    2  A    between atoms: C_5  and  C_52
    3  A    between atoms: C_6  and  N_53
    4  A    between atoms: C_26  and  N_49
    5  A    between atoms: C_37  and  C_44
    6  A    between atoms: C_37  and  C_48
    7  A    between atoms: C_44  and  C_52
                            x       y       z     vdW  Elec       q    Type
                         _______ _______ _______ _____ _____    ______ ____

>  <TORSDO>
F 7

$$$$
=
 OpenBabel11062412473D

 54 60  0  0  1  0  0  0  0  0999 V2000
  186.9660  178.7540  139.7950 C   0  0  2  0  0  3  0  0  0  0  0  0
  181.3060  178.8130  143.2540 C   0  0  0  0  0  0  0  0  0  0  0  0
  184.2200  179.2300  139.9510 C   0  0  2  0  0  3  0  0  0  0  0  0
  184.5320  179.2160  141.4770 C   0  0  1  0  0  3  0  0  0  0  0  0
  180.9480  177.6740  143.9580 F   0  0  0  0  0  0  0  0  0  0  0  0
  188.4160  178.5830  139.5510 C   0  0  0  0  0  0  0  0  0  0  0  0
  180.9830  178.6980  141.7570 C   0  0  1  0  0  3  0  0  0  0  0  0
  182.7880  178.9620  143.2690 C   0  0  2  0  0  3  0  0  0  0  0  0
  189.0160  178.9760  138.5170 O   0  0  0  0  0  0  0  0  0  0  0  0
  182.2860  178.2490  141.1070 C   0  0  1  0  0  3  0  0  0  0  0  0
  183.5150  179.7570  144.3080 C   0  0  0  0  0  1  0  0  0  0  0  0
  189.0850  178.0070  140.6560 N   0  0  0  0  0  0  0  0  0  0  0  0
  186.7750  177.9480  141.0800 C   0  0  1  0  0  3  0  0  0  0  0  0
  182.6800  179.1230  139.9230 C   0  0  2  0  0  3  0  0  0  0  0  0
  179.8650  177.7100  141.4620 C   0  0  0  0  0  1  0  0  0  0  0  0
  185.7990  178.1110  143.2600 O   0  0  0  0  0  1  0  0  0  0  0  0
  184.8500  178.0430  139.1850 C   0  0  0  0  0  2  0  0  0  0  0  0
  188.1860  177.7040  141.5330 C   0  0  0  0  0  0  0  0  0  0  0  0
  183.3150  178.6040  142.1000 C   0  0  1  0  0  3  0  0  0  0  0  0
  180.6820  179.9240  143.7930 F   0  0  0  0  0  0  0  0  0  0  0  0
  185.9240  178.7740  142.0370 C   0  0  2  0  0  3  0  0  0  0  0  0
  188.5030  177.0510  142.7680 N   0  0  0  0  0  2  0  0  0  0  0  0
  186.1740  178.2750  138.7310 O   0  0  0  0  0  0  0  0  0  0  0  0
  190.8270  177.8380  142.8470 C   0  0  0  0  0  2  0  0  0  0  0  0
  189.8530  176.7420  143.2350 C   0  0  1  0  0  0  0  0  0  0  0  0
  191.8680  176.7840  146.0700 F   0  0  0  0  0  0  0  0  0  0  0  0
  189.8960  176.6320  144.7510 C   0  0  0  0  0  2  0  0  0  0  0  0
  191.8180  177.9160  143.9860 C   0  0  0  0  0  2  0  0  0  0  0  0
  191.0460  177.5050  145.2220 C   0  0  2  0  0  3  0  0  0  0  0  0
  190.2700  175.5350  142.6750 O   0  0  0  0  0  1  0  0  0  0  0  0
  182.0390  178.7360  138.6140 C   0  0  0  0  0  0  0  0  0  0  0  0
  181.8690  179.6230  137.6300 C   0  0  0  0  0  2  0  0  0  0  0  0
  181.8170  177.2850  138.3370 C   0  0  0  0  0  2  0  0  0  0  0  0
  179.6460  176.0490  138.4070 C   0  0  0  0  0  1  0  0  0  0  0  0
  180.4820  177.0530  137.6320 C   0  0  2  0  0  3  0  0  0  0  0  0
  180.6680  176.5740  136.1900 C   0  0  2  0  0  3  0  0  0  0  0  0
  179.4400  176.3910  135.5450 O   0  0  0  0  0  1  0  0  0  0  0  0
  182.8490  175.6400  135.4870 C   0  0  0  0  0  3  0  0  0  0  0  0
  180.8730  174.2720  135.3380 N   0  0  0  0  0  0  0  0  0  0  0  0
  182.6270  172.6290  135.7900 C   0  0  0  0  0  3  0  0  0  0  0  0
  181.3420  173.0680  135.2110 C   0  0  0  0  0  3  0  0  0  0  0  0
  183.7370  173.3650  135.9420 C   0  0  0  0  0  0  0  0  0  0  0  0
  186.3260  174.4650  134.8750 C   0  0  0  0  0  2  0  0  0  0  0  0
  184.8010  172.7420  136.6780 N   0  0  0  0  0  2  0  0  0  0  0  0
  186.6610  174.4840  136.3530 C   0  0  1  0  0  3  0  0  0  0  0  0
  183.8540  174.7650  135.4140 C   0  0  0  0  0  0  0  0  0  0  0  0
  186.7250  172.7220  137.9650 O   0  0  0  0  0  0  0  0  0  0  0  0
  186.0820  173.2770  137.0350 C   0  0  0  0  0  0  0  0  0  0  0  0
  185.0410  175.2290  134.6200 C   0  0  0  0  0  2  0  0  0  0  0  0
  181.5360  175.3170  136.1110 C   0  0  2  0  0  3  0  0  0  0  0  0
  188.3210  176.8720  136.1280 O   0  0  0  0  0  0  0  0  0  0  0  0
  188.8770  175.7780  136.4150 C   0  0  0  0  0  0  0  0  0  0  0  0
  188.1100  174.5770  136.5450 N   0  0  0  0  0  2  0  0  0  0  0  0
  190.3470  175.7340  136.6250 C   0  0  0  0  0  1  0  0  0  0  0  0
  1 23  1  6  0  0  0
  1 13  1  0  0  0  0
  2  8  1  0  0  0  0
  2 20  1  0  0  0  0
  2  5  1  0  0  0  0
  3 17  1  6  0  0  0
  3  4  1  0  0  0  0
  4 21  1  0  0  0  0
  4 19  1  0  0  0  0
  6  1  1  0  0  0  0
  6 12  1  0  0  0  0
  7  2  1  0  0  0  0
  8 11  1  0  0  0  0
  9  6  2  0  0  0  0
 10  7  1  0  0  0  0
 10 19  1  0  0  0  0
 12 18  2  0  0  0  0
 13 18  1  0  0  0  0
 13 21  1  0  0  0  0
 14  3  1  0  0  0  0
 14 10  1  0  0  0  0
 15  7  1  0  0  0  0
 18 22  1  0  0  0  0
 19  8  1  0  0  0  0
 21 16  1  0  0  0  0
 22 25  1  0  0  0  0
 23 17  1  0  0  0  0
 24 25  1  0  0  0  0
 24 28  1  0  0  0  0
 25 27  1  0  0  0  0
 27 29  1  0  0  0  0
 28 29  1  0  0  0  0
 29 26  1  0  0  0  0
 30 25  1  0  0  0  0
 31 14  1  0  0  0  0
 32 31  2  0  0  0  0
 33 31  1  0  0  0  0
 35 33  1  0  0  0  0
 35 34  1  0  0  0  0
 36 35  1  0  0  0  0
 37 36  1  0  0  0  0
 38 50  1  0  0  0  0
 39 50  1  0  0  0  0
 40 42  2  0  0  0  0
 41 39  2  0  0  0  0
 41 40  1  0  0  0  0
 42 44  1  0  0  0  0
 43 45  1  0  0  0  0
 44 48  1  0  0  0  0
 45 53  1  0  0  0  0
 45 48  1  0  0  0  0
 46 38  2  0  0  0  0
 46 42  1  0  0  0  0
 48 47  2  0  0  0  0
 49 43  1  0  0  0  0
 49 46  1  0  0  0  0
 50 36  1  0  0  0  0
 51 52  2  0  0  0  0
 52 53  1  0  0  0  0
 52 54  1  0  0  0  0
M  END
>  <MODEL>
2

>  <REMARK>
 VINA RESULT:      -9.7      2.669      5.306
  Name = 
  7 active torsions:
  status: ('A' for Active; 'I' for Inactive)
    1  A    between atoms: C_5  and  C_33
    2  A    between atoms: C_5  and  C_52
    3  A    between atoms: C_6  and  N_53
    4  A    between atoms: C_26  and  N_49
    5  A    between atoms: C_37  and  C_44
    6  A    between atoms: C_37  and  C_48
    7  A    between atoms: C_44  and  C_52
                            x       y       z     vdW  Elec       q    Type
                         _______ _______ _______ _____ _____    ______ ____

>  <TORSDO>
F 7

$$$$
=
 OpenBabel11062412473D

 54 60  0  0  1  0  0  0  0  0999 V2000
  186.5350  178.7380  140.3500 C   0  0  2  0  0  3  0  0  0  0  0  0
  180.4900  178.5540  143.0770 C   0  0  0  0  0  0  0  0  0  0  0  0
  183.7660  179.0230  140.1400 C   0  0  2  0  0  3  0  0  0  0  0  0
  183.8830  179.1030  141.6910 C   0  0  1  0  0  3  0  0  0  0  0  0
  180.1210  177.4270  143.7950 F   0  0  0  0  0  0  0  0  0  0  0  0
  188.0120  178.6610  140.2960 C   0  0  0  0  0  0  0  0  0  0  0  0
  180.3680  178.3450  141.5600 C   0  0  1  0  0  3  0  0  0  0  0  0
  181.9460  178.8100  143.2660 C   0  0  2  0  0  3  0  0  0  0  0  0
  188.7110  179.0470  139.3240 O   0  0  0  0  0  0  0  0  0  0  0  0
  181.7690  177.9600  141.1020 C   0  0  1  0  0  3  0  0  0  0  0  0
  182.4810  179.7040  144.3410 C   0  0  0  0  0  1  0  0  0  0  0  0
  188.5730  178.1890  141.5060 N   0  0  0  0  0  0  0  0  0  0  0  0
  186.2360  177.9830  141.6450 C   0  0  1  0  0  3  0  0  0  0  0  0
  182.2520  178.8030  139.9280 C   0  0  2  0  0  3  0  0  0  0  0  0
  179.3640  177.2660  141.1870 C   0  0  0  0  0  1  0  0  0  0  0  0
  184.9830  178.1780  143.6750 O   0  0  0  0  0  1  0  0  0  0  0  0
  184.5650  177.8490  139.5250 C   0  0  0  0  0  2  0  0  0  0  0  0
  187.5910  177.8640  142.2820 C   0  0  0  0  0  0  0  0  0  0  0  0
  182.6390  178.4350  142.1930 C   0  0  1  0  0  3  0  0  0  0  0  0
  179.7310  179.6410  143.4720 F   0  0  0  0  0  0  0  0  0  0  0  0
  185.2180  178.7900  142.4420 C   0  0  2  0  0  3  0  0  0  0  0  0
  187.7910  177.2940  143.5810 N   0  0  0  0  0  2  0  0  0  0  0  0
  185.9170  178.1530  139.2250 O   0  0  0  0  0  0  0  0  0  0  0  0
  189.8630  175.9780  143.5750 C   0  0  0  0  0  2  0  0  0  0  0  0
  189.0880  177.1070  144.2270 C   0  0  1  0  0  0  0  0  0  0  0  0
  192.3060  178.4180  144.3880 F   0  0  0  0  0  0  0  0  0  0  0  0
  189.9460  178.3560  144.1070 C   0  0  0  0  0  2  0  0  0  0  0  0
  191.3140  176.3980  143.6400 C   0  0  0  0  0  2  0  0  0  0  0  0
  191.3010  177.9110  143.5850 C   0  0  2  0  0  3  0  0  0  0  0  0
  188.8930  176.8120  145.5760 O   0  0  0  0  0  1  0  0  0  0  0  0
  181.8090  178.3090  138.5740 C   0  0  0  0  0  0  0  0  0  0  0  0
  181.6350  179.1460  137.5480 C   0  0  0  0  0  2  0  0  0  0  0  0
  181.8030  176.8360  138.3260 C   0  0  0  0  0  2  0  0  0  0  0  0
  181.1350  176.1320  136.0230 C   0  0  0  0  0  1  0  0  0  0  0  0
  182.3020  176.5080  136.9210 C   0  0  2  0  0  3  0  0  0  0  0  0
  183.3390  175.3820  136.9260 C   0  0  2  0  0  3  0  0  0  0  0  0
  183.5840  174.9140  138.2220 O   0  0  0  0  0  1  0  0  0  0  0  0
  185.7700  175.7620  137.1880 C   0  0  0  0  0  3  0  0  0  0  0  0
  184.5180  177.1290  135.6500 N   0  0  0  0  0  0  0  0  0  0  0  0
  186.7210  177.0220  134.5960 C   0  0  0  0  0  3  0  0  0  0  0  0
  185.4320  177.6720  134.9070 C   0  0  0  0  0  3  0  0  0  0  0  0
  187.4300  176.2130  135.3960 C   0  0  0  0  0  0  0  0  0  0  0  0
  189.4720  175.7960  137.5660 C   0  0  0  0  0  2  0  0  0  0  0  0
  188.5740  175.5880  134.7920 N   0  0  0  0  0  2  0  0  0  0  0  0
  189.6210  174.4670  136.8530 C   0  0  1  0  0  3  0  0  0  0  0  0
  187.0400  175.9420  136.8190 C   0  0  0  0  0  0  0  0  0  0  0  0
  190.2100  173.9620  134.5940 O   0  0  0  0  0  0  0  0  0  0  0  0
  189.4980  174.6550  135.3680 C   0  0  0  0  0  0  0  0  0  0  0  0
  188.0230  176.0220  137.9520 C   0  0  0  0  0  2  0  0  0  0  0  0
  184.6340  175.7920  136.2240 C   0  0  2  0  0  3  0  0  0  0  0  0
  192.2940  175.6180  136.6500 O   0  0  0  0  0  0  0  0  0  0  0  0
  192.1770  174.4450  137.0920 C   0  0  0  0  0  0  0  0  0  0  0  0
  190.8890  173.8330  137.2200 N   0  0  0  0  0  2  0  0  0  0  0  0
  193.3910  173.6860  137.4920 C   0  0  0  0  0  1  0  0  0  0  0  0
  1 23  1  6  0  0  0
  1 13  1  0  0  0  0
  2  8  1  0  0  0  0
  2 20  1  0  0  0  0
  2  5  1  0  0  0  0
  3 17  1  1  0  0  0
  3  4  1  0  0  0  0
  4 19  1  0  0  0  0
  4 21  1  0  0  0  0
  6  1  1  0  0  0  0
  6 12  1  0  0  0  0
  7  2  1  0  0  0  0
  8 11  1  0  0  0  0
  9  6  2  0  0  0  0
 10  7  1  0  0  0  0
 10 19  1  0  0  0  0
 12 18  2  0  0  0  0
 13 18  1  0  0  0  0
 13 21  1  0  0  0  0
 14  3  1  0  0  0  0
 14 10  1  0  0  0  0
 15  7  1  0  0  0  0
 18 22  1  0  0  0  0
 19  8  1  0  0  0  0
 21 16  1  0  0  0  0
 22 25  1  0  0  0  0
 23 17  1  0  0  0  0
 24 28  1  0  0  0  0
 24 25  1  0  0  0  0
 25 30  1  0  0  0  0
 27 25  1  0  0  0  0
 29 28  1  0  0  0  0
 29 27  1  0  0  0  0
 29 26  1  0  0  0  0
 31 14  1  0  0  0  0
 32 31  2  0  0  0  0
 33 31  1  0  0  0  0
 34 35  1  0  0  0  0
 35 36  1  0  0  0  0
 35 33  1  0  0  0  0
 36 37  1  0  0  0  0
 39 50  1  0  0  0  0
 40 41  1  0  0  0  0
 40 42  2  0  0  0  0
 41 39  2  0  0  0  0
 42 46  1  0  0  0  0
 43 49  1  0  0  0  0
 44 48  1  0  0  0  0
 44 42  1  0  0  0  0
 45 53  1  0  0  0  0
 45 43  1  0  0  0  0
 46 38  2  0  0  0  0
 46 49  1  0  0  0  0
 47 48  2  0  0  0  0
 48 45  1  0  0  0  0
 50 36  1  0  0  0  0
 50 38  1  0  0  0  0
 51 52  2  0  0  0  0
 52 53  1  0  0  0  0
 52 54  1  0  0  0  0
M  END
>  <MODEL>
3

>  <REMARK>
 VINA RESULT:      -8.8      2.912      5.986
  Name = 
  7 active torsions:
  status: ('A' for Active; 'I' for Inactive)
    1  A    between atoms: C_5  and  C_33
    2  A    between atoms: C_5  and  C_52
    3  A    between atoms: C_6  and  N_53
    4  A    between atoms: C_26  and  N_49
    5  A    between atoms: C_37  and  C_44
    6  A    between atoms: C_37  and  C_48
    7  A    between atoms: C_44  and  C_52
                            x       y       z     vdW  Elec       q    Type
                         _______ _______ _______ _____ _____    ______ ____

>  <TORSDO>
F 7

$$$$
=
 OpenBabel11062412473D

 54 60  0  0  1  0  0  0  0  0999 V2000
  189.0200  177.9750  138.3630 C   0  0  2  0  0  3  0  0  0  0  0  0
  189.3040  177.7110  144.9860 C   0  0  0  0  0  0  0  0  0  0  0  0
  187.9320  178.5620  140.8660 C   0  0  2  0  0  3  0  0  0  0  0  0
  189.3900  178.2550  141.3210 C   0  0  1  0  0  3  0  0  0  0  0  0
  189.5290  176.4850  145.5910 F   0  0  0  0  0  0  0  0  0  0  0  0
  189.4700  177.7740  136.9680 C   0  0  0  0  0  0  0  0  0  0  0  0
  187.8420  177.8870  144.5480 C   0  0  1  0  0  3  0  0  0  0  0  0
  190.0510  177.7760  143.6980 C   0  0  2  0  0  3  0  0  0  0  0  0
  188.9410  178.3140  135.9620 O   0  0  0  0  0  0  0  0  0  0  0  0
  187.8220  177.4920  143.0760 C   0  0  1  0  0  3  0  0  0  0  0  0
  191.4380  178.3300  143.5900 C   0  0  0  0  0  1  0  0  0  0  0  0
  190.6340  176.9730  136.8860 N   0  0  0  0  0  0  0  0  0  0  0  0
  189.8850  176.9620  139.1130 C   0  0  1  0  0  3  0  0  0  0  0  0
  187.1540  178.5440  142.1990 C   0  0  2  0  0  3  0  0  0  0  0  0
  186.8740  177.0290  145.3480 C   0  0  0  0  0  1  0  0  0  0  0  0
  191.3230  176.7800  141.0180 O   0  0  0  0  0  1  0  0  0  0  0  0
  187.3560  177.5010  139.8990 C   0  0  0  0  0  2  0  0  0  0  0  0
  190.9030  176.5650  138.0820 C   0  0  0  0  0  0  0  0  0  0  0  0
  189.2320  177.6070  142.6620 C   0  0  1  0  0  3  0  0  0  0  0  0
  189.6740  178.7380  145.8350 F   0  0  0  0  0  0  0  0  0  0  0  0
  190.4540  177.6460  140.3500 C   0  0  2  0  0  3  0  0  0  0  0  0
  191.9950  175.6840  138.3680 N   0  0  0  0  0  2  0  0  0  0  0  0
  187.6400  177.7390  138.5300 O   0  0  0  0  0  0  0  0  0  0  0  0
  194.2070  174.6550  138.0880 C   0  0  0  0  0  2  0  0  0  0  0  0
  192.9840  175.2240  137.3950 C   0  0  1  0  0  0  0  0  0  0  0  0
  193.7210  172.5910  135.2450 F   0  0  0  0  0  0  0  0  0  0  0  0
  192.4180  174.1160  136.5220 C   0  0  0  0  0  2  0  0  0  0  0  0
  194.6780  173.5220  137.2060 C   0  0  0  0  0  2  0  0  0  0  0  0
  193.4290  172.9830  136.5390 C   0  0  2  0  0  3  0  0  0  0  0  0
  193.3680  176.2940  136.5880 O   0  0  0  0  0  1  0  0  0  0  0  0
  185.6520  178.4340  142.1200 C   0  0  0  0  0  0  0  0  0  0  0  0
  184.9730  177.5760  142.8850 C   0  0  0  0  0  2  0  0  0  0  0  0
  184.9070  179.4730  141.3470 C   0  0  0  0  0  2  0  0  0  0  0  0
  184.2520  179.2940  138.9420 C   0  0  0  0  0  1  0  0  0  0  0  0
  183.9350  178.8360  140.3550 C   0  0  2  0  0  3  0  0  0  0  0  0
  182.4770  179.1550  140.6920 C   0  0  2  0  0  3  0  0  0  0  0  0
  182.2310  179.0500  142.0660 O   0  0  0  0  0  1  0  0  0  0  0  0
  182.2170  177.6360  138.7560 C   0  0  0  0  0  3  0  0  0  0  0  0
  180.4120  179.1160  139.3500 N   0  0  0  0  0  0  0  0  0  0  0  0
  179.2350  177.1860  138.4190 C   0  0  0  0  0  2  0  0  0  0  0  0
  179.3900  178.6230  138.7190 C   0  0  0  0  0  3  0  0  0  0  0  0
  180.2100  176.3110  138.1340 C   0  0  0  0  0  0  0  0  0  0  0  0
  182.0470  174.9760  136.1600 C   0  0  0  0  0  2  0  0  0  0  0  0
  179.8040  174.9370  138.0340 N   0  0  0  0  0  0  0  0  0  0  0  0
  181.9900  173.8750  137.2000 C   0  0  1  0  0  3  0  0  0  0  0  0
  181.6420  176.7270  137.9670 C   0  0  0  0  0  0  0  0  0  0  0  0
  180.1390  172.6470  138.0770 O   0  0  0  0  0  0  0  0  0  0  0  0
  180.6080  173.7770  137.7810 C   0  0  0  0  0  0  0  0  0  0  0  0
  182.4790  176.2800  136.8020 C   0  0  0  0  0  2  0  0  0  0  0  0
  181.5010  178.3030  139.8800 C   0  0  2  0  0  3  0  0  0  0  0  0
  184.5230  172.5060  137.6670 O   0  0  0  0  0  0  0  0  0  0  0  0
  183.6920  171.9800  136.8810 C   0  0  0  0  0  0  0  0  0  0  0  0
  182.4300  172.6050  136.6200 N   0  0  0  0  0  2  0  0  0  0  0  0
  184.0210  170.6920  136.2170 C   0  0  0  0  0  1  0  0  0  0  0  0
  1  6  1  6  0  0  0
  1 23  1  0  0  0  0
  1 13  1  0  0  0  0
  2  5  1  0  0  0  0
  2 20  1  0  0  0  0
  3 17  1  6  0  0  0
  3  4  1  0  0  0  0
  3 14  1  0  0  0  0
  4 19  1  0  0  0  0
  7  2  1  0  0  0  0
  7 15  1  0  0  0  0
  8  2  1  0  0  0  0
  9  6  2  0  0  0  0
 10  7  1  0  0  0  0
 11  8  1  0  0  0  0
 12  6  1  0  0  0  0
 12 18  2  0  0  0  0
 13 21  1  0  0  0  0
 14 10  1  0  0  0  0
 18 22  1  0  0  0  0
 18 13  1  0  0  0  0
 19 10  1  0  0  0  0
 19  8  1  0  0  0  0
 21 16  1  0  0  0  0
 21  4  1  0  0  0  0
 23 17  1  0  0  0  0
 25 24  1  0  0  0  0
 25 22  1  0  0  0  0
 26 29  1  0  0  0  0
 27 29  1  0  0  0  0
 27 25  1  0  0  0  0
 28 24  1  0  0  0  0
 29 28  1  0  0  0  0
 30 25  1  0  0  0  0
 31 14  1  0  0  0  0
 31 32  2  0  0  0  0
 33 31  1  0  0  0  0
 34 35  1  0  0  0  0
 35 36  1  0  0  0  0
 35 33  1  0  0  0  0
 36 37  1  0  0  0  0
 38 50  1  0  0  0  0
 39 50  1  0  0  0  0
 40 41  1  0  0  0  0
 41 39  2  0  0  0  0
 42 40  1  0  0  0  0
 43 49  1  0  0  0  0
 43 45  1  0  0  0  0
 44 42  2  0  0  0  0
 45 48  1  0  0  0  0
 46 42  1  0  0  0  0
 46 38  2  0  0  0  0
 48 44  1  0  0  0  0
 48 47  2  0  0  0  0
 49 46  1  0  0  0  0
 50 36  1  0  0  0  0
 52 51  2  0  0  0  0
 53 52  1  0  0  0  0
 53 45  1  0  0  0  0
 54 52  1  0  0  0  0
M  END
>  <MODEL>
4

>  <REMARK>
 VINA RESULT:      -8.4      1.863      2.365
  Name = 
  7 active torsions:
  status: ('A' for Active; 'I' for Inactive)
    1  A    between atoms: C_5  and  C_33
    2  A    between atoms: C_5  and  C_52
    3  A    between atoms: C_6  and  N_53
    4  A    between atoms: C_26  and  N_49
    5  A    between atoms: C_37  and  C_44
    6  A    between atoms: C_37  and  C_48
    7  A    between atoms: C_44  and  C_52
                            x       y       z     vdW  Elec       q    Type
                         _______ _______ _______ _____ _____    ______ ____

>  <TORSDO>
F 7

$$$$
=
 OpenBabel11062412473D

 54 60  0  0  1  0  0  0  0  0999 V2000
  184.0740  177.3970  137.9210 C   0  0  2  0  0  3  0  0  0  0  0  0
  181.1740  171.8190  135.8040 C   0  0  0  0  0  0  0  0  0  0  0  0
  184.0960  175.0980  136.3370 C   0  0  2  0  0  3  0  0  0  0  0  0
  182.5680  175.1490  136.6380 C   0  0  1  0  0  3  0  0  0  0  0  0
  180.6880  170.9260  136.7460 F   0  0  0  0  0  0  0  0  0  0  0  0
  184.2090  178.6680  138.6680 C   0  0  0  0  0  0  0  0  0  0  0  0
  182.6940  171.7020  135.6180 C   0  0  1  0  0  3  0  0  0  0  0  0
  181.0020  173.2120  136.3030 C   0  0  2  0  0  3  0  0  0  0  0  0
  185.1120  179.5210  138.4660 O   0  0  0  0  0  0  0  0  0  0  0  0
  183.2840  172.7850  136.5120 C   0  0  1  0  0  3  0  0  0  0  0  0
  179.7910  174.0400  136.0040 C   0  0  0  0  0  1  0  0  0  0  0  0
  183.1490  178.8720  139.5820 N   0  0  0  0  0  0  0  0  0  0  0  0
  182.9500  176.7060  138.6930 C   0  0  1  0  0  3  0  0  0  0  0  0
  184.2790  173.6720  135.7750 C   0  0  2  0  0  3  0  0  0  0  0  0
  183.2370  170.3330  136.0000 C   0  0  0  0  0  1  0  0  0  0  0  0
  180.8690  175.5740  138.3510 O   0  0  0  0  0  1  0  0  0  0  0  0
  184.9750  175.2910  137.5960 C   0  0  0  0  0  2  0  0  0  0  0  0
  182.4140  177.8090  139.5600 C   0  0  0  0  0  0  0  0  0  0  0  0
  182.1600  173.7110  136.7320 C   0  0  1  0  0  3  0  0  0  0  0  0
  180.5300  171.6340  134.5940 F   0  0  0  0  0  0  0  0  0  0  0  0
  181.9590  176.1380  137.6850 C   0  0  2  0  0  3  0  0  0  0  0  0
  181.2700  177.6450  140.4070 N   0  0  0  0  0  2  0  0  0  0  0  0
  185.2660  176.6440  137.9060 O   0  0  0  0  0  0  0  0  0  0  0  0
  179.2640  178.4260  141.5880 C   0  0  0  0  0  2  0  0  0  0  0  0
  180.7350  178.6650  141.3070 C   0  0  1  0  0  0  0  0  0  0  0  0
  180.6070  179.5950  144.6560 F   0  0  0  0  0  0  0  0  0  0  0  0
  181.4490  178.6400  142.6490 C   0  0  0  0  0  2  0  0  0  0  0  0
  179.0540  178.8610  143.0200 C   0  0  0  0  0  2  0  0  0  0  0  0
  180.3730  178.6050  143.7190 C   0  0  2  0  0  3  0  0  0  0  0  0
  180.8950  179.9220  140.7260 O   0  0  0  0  0  1  0  0  0  0  0  0
  185.6850  173.1290  135.7180 C   0  0  0  0  0  0  0  0  0  0  0  0
  186.0020  171.9540  136.2670 C   0  0  0  0  0  2  0  0  0  0  0  0
  186.6710  173.8080  134.8240 C   0  0  0  0  0  2  0  0  0  0  0  0
  188.0450  173.3810  136.8670 C   0  0  0  0  0  1  0  0  0  0  0  0
  187.9400  174.1870  135.5840 C   0  0  2  0  0  3  0  0  0  0  0  0
  187.9950  175.6830  135.9020 C   0  0  2  0  0  3  0  0  0  0  0  0
  188.2930  176.4410  134.7640 O   0  0  0  0  0  1  0  0  0  0  0  0
  188.3400  176.9640  137.9920 C   0  0  0  0  0  3  0  0  0  0  0  0
  190.2160  176.5340  136.5440 N   0  0  0  0  0  0  0  0  0  0  0  0
  191.2500  176.5780  138.7600 C   0  0  0  0  0  3  0  0  0  0  0  0
  191.2460  176.7750  137.2960 C   0  0  0  0  0  3  0  0  0  0  0  0
  190.2210  176.7530  139.6000 C   0  0  0  0  0  0  0  0  0  0  0  0
  188.5430  178.5190  141.3660 C   0  0  0  0  0  2  0  0  0  0  0  0
  190.4480  176.3410  140.9570 N   0  0  0  0  0  2  0  0  0  0  0  0
  188.2920  177.1960  142.0620 C   0  0  1  0  0  3  0  0  0  0  0  0
  188.9000  177.3070  139.1530 C   0  0  0  0  0  0  0  0  0  0  0  0
  189.8060  175.6480  143.0710 O   0  0  0  0  0  0  0  0  0  0  0  0
  189.5440  176.3660  142.0690 C   0  0  0  0  0  0  0  0  0  0  0  0
  188.1980  178.4090  139.8930 C   0  0  0  0  0  2  0  0  0  0  0  0
  188.9600  175.9900  137.0490 C   0  0  2  0  0  3  0  0  0  0  0  0
  185.5900  177.9970  142.8110 O   0  0  0  0  0  0  0  0  0  0  0  0
  186.4400  177.8220  143.7240 C   0  0  0  0  0  0  0  0  0  0  0  0
  187.7790  177.4220  143.4140 N   0  0  0  0  0  2  0  0  0  0  0  0
  186.0480  178.0290  145.1430 C   0  0  0  0  0  1  0  0  0  0  0  0
  1 23  1  1  0  0  0
  1  6  1  0  0  0  0
  1 13  1  0  0  0  0
  2  8  1  0  0  0  0
  2  5  1  0  0  0  0
  3  4  1  0  0  0  0
  3 17  1  1  0  0  0
  4 19  1  0  0  0  0
  4 21  1  0  0  0  0
  6 12  1  0  0  0  0
  7  2  1  0  0  0  0
  7 15  1  0  0  0  0
  7 10  1  0  0  0  0
  8 19  1  0  0  0  0
  9  6  2  0  0  0  0
 10 19  1  0  0  0  0
 11  8  1  0  0  0  0
 13 18  1  0  0  0  0
 14  3  1  0  0  0  0
 14 10  1  0  0  0  0
 17 23  1  0  0  0  0
 18 12  2  0  0  0  0
 18 22  1  0  0  0  0
 20  2  1  0  0  0  0
 21 16  1  0  0  0  0
 21 13  1  0  0  0  0
 22 25  1  0  0  0  0
 24 28  1  0  0  0  0
 25 24  1  0  0  0  0
 25 27  1  0  0  0  0
 27 29  1  0  0  0  0
 28 29  1  0  0  0  0
 29 26  1  0  0  0  0
 30 25  1  0  0  0  0
 31 14  1  0  0  0  0
 31 32  2  0  0  0  0
 33 35  1  0  0  0  0
 33 31  1  0  0  0  0
 35 36  1  0  0  0  0
 35 34  1  0  0  0  0
 36 50  1  0  0  0  0
 37 36  1  0  0  0  0
 38 46  2  0  0  0  0
 39 50  1  0  0  0  0
 39 41  2  0  0  0  0
 40 42  2  0  0  0  0
 41 40  1  0  0  0  0
 42 44  1  0  0  0  0
 43 45  1  0  0  0  0
 44 48  1  0  0  0  0
 45 48  1  0  0  0  0
 45 53  1  0  0  0  0
 46 42  1  0  0  0  0
 46 49  1  0  0  0  0
 48 47  2  0  0  0  0
 49 43  1  0  0  0  0
 50 38  1  0  0  0  0
 51 52  2  0  0  0  0
 52 54  1  0  0  0  0
 53 52  1  0  0  0  0
M  END
>  <MODEL>
5

>  <REMARK>
 VINA RESULT:      -8.2      3.732      9.963
  Name = 
  7 active torsions:
  status: ('A' for Active; 'I' for Inactive)
    1  A    between atoms: C_5  and  C_33
    2  A    between atoms: C_5  and  C_52
    3  A    between atoms: C_6  and  N_53
    4  A    between atoms: C_26  and  N_49
    5  A    between atoms: C_37  and  C_44
    6  A    between atoms: C_37  and  C_48
    7  A    between atoms: C_44  and  C_52
                            x       y       z     vdW  Elec       q    Type
                         _______ _______ _______ _____ _____    ______ ____

>  <TORSDO>
F 7

$$$$
=
 OpenBabel11062412473D

 54 60  0  0  1  0  0  0  0  0999 V2000
  188.8650  178.1510  138.7600 C   0  0  2  0  0  3  0  0  0  0  0  0
  189.3540  177.6400  145.3560 C   0  0  0  0  0  0  0  0  0  0  0  0
  187.8710  178.6690  141.3160 C   0  0  2  0  0  3  0  0  0  0  0  0
  189.3360  178.3150  141.7130 C   0  0  1  0  0  3  0  0  0  0  0  0
  189.5710  176.3880  145.9090 F   0  0  0  0  0  0  0  0  0  0  0  0
  189.2660  177.9910  137.3440 C   0  0  0  0  0  0  0  0  0  0  0  0
  187.8840  177.8620  144.9730 C   0  0  1  0  0  3  0  0  0  0  0  0
  190.0610  177.7350  144.0480 C   0  0  2  0  0  3  0  0  0  0  0  0
  188.7170  178.5790  136.3770 O   0  0  0  0  0  0  0  0  0  0  0  0
  187.8080  177.5230  143.4890 C   0  0  1  0  0  3  0  0  0  0  0  0
  191.4560  178.2630  143.9140 C   0  0  0  0  0  1  0  0  0  0  0  0
  190.4080  177.1690  137.1950 N   0  0  0  0  0  0  0  0  0  0  0  0
  189.7310  177.0930  139.4440 C   0  0  1  0  0  3  0  0  0  0  0  0
  187.1350  178.6190  142.6730 C   0  0  2  0  0  3  0  0  0  0  0  0
  186.9220  176.9970  145.7730 C   0  0  0  0  0  1  0  0  0  0  0  0
  191.2240  176.8110  141.2940 O   0  0  0  0  0  1  0  0  0  0  0  0
  187.2410  177.6570  140.3310 C   0  0  0  0  0  2  0  0  0  0  0  0
  190.7060  176.7120  138.3670 C   0  0  0  0  0  0  0  0  0  0  0  0
  189.2060  177.6220  143.0340 C   0  0  1  0  0  3  0  0  0  0  0  0
  189.7740  178.6270  146.2290 F   0  0  0  0  0  0  0  0  0  0  0  0
  190.3540  177.7190  140.6860 C   0  0  2  0  0  3  0  0  0  0  0  0
  191.7870  175.7980  138.5860 N   0  0  0  0  0  2  0  0  0  0  0  0
  187.4860  177.9390  138.9630 O   0  0  0  0  0  0  0  0  0  0  0  0
  193.9960  174.8010  138.1970 C   0  0  0  0  0  2  0  0  0  0  0  0
  192.7330  175.3530  137.5650 C   0  0  1  0  0  0  0  0  0  0  0  0
  193.4010  172.7320  135.3780 F   0  0  0  0  0  0  0  0  0  0  0  0
  192.1410  174.2380  136.7190 C   0  0  0  0  0  2  0  0  0  0  0  0
  194.4390  173.6750  137.2910 C   0  0  0  0  0  2  0  0  0  0  0  0
  193.1670  173.1190  136.6850 C   0  0  2  0  0  3  0  0  0  0  0  0
  193.0620  176.4290  136.7410 O   0  0  0  0  0  1  0  0  0  0  0  0
  185.6300  178.5450  142.6390 C   0  0  0  0  0  0  0  0  0  0  0  0
  184.8760  179.2710  143.4680 C   0  0  0  0  0  2  0  0  0  0  0  0
  184.9820  177.8290  141.4980 C   0  0  0  0  0  2  0  0  0  0  0  0
  182.5430  178.3060  141.2380 C   0  0  0  0  0  1  0  0  0  0  0  0
  183.9430  178.7100  140.8090 C   0  0  2  0  0  3  0  0  0  0  0  0
  184.0580  178.6500  139.2840 C   0  0  2  0  0  3  0  0  0  0  0  0
  184.9680  179.5960  138.7980 O   0  0  0  0  0  1  0  0  0  0  0  0
  181.9160  179.8890  139.2190 C   0  0  0  0  0  3  0  0  0  0  0  0
  181.9390  177.5370  138.7010 N   0  0  0  0  0  0  0  0  0  0  0  0
  180.1100  178.3720  137.3100 C   0  0  0  0  0  2  0  0  0  0  0  0
  180.8000  177.3410  138.1110 C   0  0  0  0  0  3  0  0  0  0  0  0
  180.1090  179.6950  137.5260 C   0  0  0  0  0  0  0  0  0  0  0  0
  178.9720  182.1370  138.8670 C   0  0  0  0  0  2  0  0  0  0  0  0
  179.4870  180.4920  136.5060 N   0  0  0  0  0  0  0  0  0  0  0  0
  179.5460  182.8010  137.6310 C   0  0  1  0  0  3  0  0  0  0  0  0
  180.7490  180.3150  138.7340 C   0  0  0  0  0  0  0  0  0  0  0  0
  179.1030  182.4380  135.3120 O   0  0  0  0  0  0  0  0  0  0  0  0
  179.3590  181.9180  136.4300 C   0  0  0  0  0  0  0  0  0  0  0  0
  180.0480  181.3390  139.5790 C   0  0  0  0  0  2  0  0  0  0  0  0
  182.6960  178.7800  138.6000 C   0  0  2  0  0  3  0  0  0  0  0  0
  180.9150  185.3760  137.5900 O   0  0  0  0  0  0  0  0  0  0  0  0
  179.6660  185.3580  137.4330 C   0  0  0  0  0  0  0  0  0  0  0  0
  178.9440  184.1210  137.4370 N   0  0  0  0  0  2  0  0  0  0  0  0
  178.9310  186.6340  137.2360 C   0  0  0  0  0  1  0  0  0  0  0  0
  1  6  1  6  0  0  0
  1 23  1  0  0  0  0
  1 13  1  0  0  0  0
  2  5  1  0  0  0  0
  2 20  1  0  0  0  0
  3 17  1  6  0  0  0
  3  4  1  0  0  0  0
  3 14  1  0  0  0  0
  4 19  1  0  0  0  0
  7  2  1  0  0  0  0
  7 15  1  0  0  0  0
  8  2  1  0  0  0  0
  9  6  2  0  0  0  0
 10  7  1  0  0  0  0
 11  8  1  0  0  0  0
 12  6  1  0  0  0  0
 12 18  2  0  0  0  0
 13 21  1  0  0  0  0
 14 10  1  0  0  0  0
 18 22  1  0  0  0  0
 18 13  1  0  0  0  0
 19 10  1  0  0  0  0
 19  8  1  0  0  0  0
 21 16  1  0  0  0  0
 21  4  1  0  0  0  0
 23 17  1  0  0  0  0
 25 24  1  0  0  0  0
 25 22  1  0  0  0  0
 26 29  1  0  0  0  0
 27 25  1  0  0  0  0
 28 24  1  0  0  0  0
 29 27  1  0  0  0  0
 29 28  1  0  0  0  0
 30 25  1  0  0  0  0
 31 14  1  0  0  0  0
 31 32  2  0  0  0  0
 33 31  1  0  0  0  0
 35 34  1  0  0  0  0
 35 33  1  0  0  0  0
 36 35  1  0  0  0  0
 37 36  1  0  0  0  0
 40 42  1  0  0  0  0
 40 41  1  0  0  0  0
 41 39  2  0  0  0  0
 42 46  1  0  0  0  0
 43 49  1  0  0  0  0
 44 42  2  0  0  0  0
 45 43  1  0  0  0  0
 46 38  2  0  0  0  0
 46 49  1  0  0  0  0
 47 48  2  0  0  0  0
 48 44  1  0  0  0  0
 48 45  1  0  0  0  0
 50 39  1  0  0  0  0
 50 38  1  0  0  0  0
 50 36  1  0  0  0  0
 52 53  1  0  0  0  0
 52 51  2  0  0  0  0
 53 45  1  0  0  0  0
 54 52  1  0  0  0  0
M  END
>  <MODEL>
6

>  <REMARK>
 VINA RESULT:      -7.5      2.810      5.437
  Name = 
  7 active torsions:
  status: ('A' for Active; 'I' for Inactive)
    1  A    between atoms: C_5  and  C_33
    2  A    between atoms: C_5  and  C_52
    3  A    between atoms: C_6  and  N_53
    4  A    between atoms: C_26  and  N_49
    5  A    between atoms: C_37  and  C_44
    6  A    between atoms: C_37  and  C_48
    7  A    between atoms: C_44  and  C_52
                            x       y       z     vdW  Elec       q    Type
                         _______ _______ _______ _____ _____    ______ ____

>  <TORSDO>
F 7

$$$$
=
 OpenBabel11062412473D

 54 60  0  0  1  0  0  0  0  0999 V2000
  188.7690  178.3550  142.4620 C   0  0  2  0  0  3  0  0  0  0  0  0
  182.1880  178.6240  141.6720 C   0  0  0  0  0  0  0  0  0  0  0  0
  186.5320  178.7690  140.8450 C   0  0  2  0  0  3  0  0  0  0  0  0
  185.8380  178.9260  142.2310 C   0  0  1  0  0  3  0  0  0  0  0  0
  181.4230  177.5570  142.1160 F   0  0  0  0  0  0  0  0  0  0  0  0
  190.0530  178.2000  143.1820 C   0  0  0  0  0  0  0  0  0  0  0  0
  182.8500  178.3430  140.3150 C   0  0  1  0  0  3  0  0  0  0  0  0
  183.3520  178.8150  142.5820 C   0  0  2  0  0  3  0  0  0  0  0  0
  191.1780  178.4970  142.7050 O   0  0  0  0  0  0  0  0  0  0  0  0
  184.2560  177.8630  140.6550 C   0  0  1  0  0  3  0  0  0  0  0  0
  183.3200  179.7360  143.7620 C   0  0  0  0  0  1  0  0  0  0  0  0
  189.8750  177.7640  144.5160 N   0  0  0  0  0  0  0  0  0  0  0  0
  187.7930  177.6860  143.4300 C   0  0  1  0  0  3  0  0  0  0  0  0
  185.3320  178.6170  139.8850 C   0  0  2  0  0  3  0  0  0  0  0  0
  182.1080  177.2980  139.4960 C   0  0  0  0  0  1  0  0  0  0  0  0
  185.6910  178.0520  144.5150 O   0  0  0  0  0  1  0  0  0  0  0  0
  187.4480  177.5260  140.7540 C   0  0  0  0  0  2  0  0  0  0  0  0
  188.6140  177.5310  144.6780 C   0  0  0  0  0  0  0  0  0  0  0  0
  184.4710  178.3500  142.0290 C   0  0  1  0  0  3  0  0  0  0  0  0
  181.4140  179.7680  141.5970 F   0  0  0  0  0  0  0  0  0  0  0  0
  186.5710  178.5850  143.5710 C   0  0  2  0  0  3  0  0  0  0  0  0
  188.0750  177.0210  145.9040 N   0  0  0  0  0  2  0  0  0  0  0  0
  188.7790  177.7440  141.1920 O   0  0  0  0  0  0  0  0  0  0  0  0
  190.2010  176.2120  146.8280 C   0  0  0  0  0  2  0  0  0  0  0  0
  188.8370  176.8020  147.1320 C   0  0  1  0  0  0  0  0  0  0  0  0
  190.7490  178.4510  149.5240 F   0  0  0  0  0  0  0  0  0  0  0  0
  189.0780  178.1090  147.8680 C   0  0  0  0  0  2  0  0  0  0  0  0
  191.1340  176.8060  147.8580 C   0  0  0  0  0  2  0  0  0  0  0  0
  190.5620  178.1710  148.1820 C   0  0  2  0  0  3  0  0  0  0  0  0
  188.1330  175.9300  147.9620 O   0  0  0  0  0  1  0  0  0  0  0  0
  185.6160  178.0750  138.5070 C   0  0  0  0  0  0  0  0  0  0  0  0
  184.9170  177.0570  137.9990 C   0  0  0  0  0  2  0  0  0  0  0  0
  186.5300  178.8520  137.6160 C   0  0  0  0  0  2  0  0  0  0  0  0
  188.9930  179.1920  137.8600 C   0  0  0  0  0  1  0  0  0  0  0  0
  187.9030  178.1910  137.5180 C   0  0  2  0  0  3  0  0  0  0  0  0
  188.1580  177.5970  136.1300 C   0  0  2  0  0  3  0  0  0  0  0  0
  186.9630  177.3660  135.4410 O   0  0  0  0  0  1  0  0  0  0  0  0
  190.3100  176.5590  135.4850 C   0  0  0  0  0  3  0  0  0  0  0  0
  188.3280  175.1970  135.6030 N   0  0  0  0  0  0  0  0  0  0  0  0
  190.0950  173.6220  136.2160 C   0  0  0  0  0  3  0  0  0  0  0  0
  188.7900  173.9840  135.6280 C   0  0  0  0  0  3  0  0  0  0  0  0
  191.2110  174.3650  136.2220 C   0  0  0  0  0  0  0  0  0  0  0  0
  193.7610  175.2870  134.9170 C   0  0  0  0  0  2  0  0  0  0  0  0
  192.3010  173.8440  136.9990 N   0  0  0  0  0  2  0  0  0  0  0  0
  194.1510  175.5110  136.3650 C   0  0  1  0  0  3  0  0  0  0  0  0
  191.3110  175.6760  135.5000 C   0  0  0  0  0  0  0  0  0  0  0  0
  194.2720  173.9930  138.2050 O   0  0  0  0  0  0  0  0  0  0  0  0
  193.5950  174.4150  137.2300 C   0  0  0  0  0  0  0  0  0  0  0  0
  192.4680  176.0160  134.6050 C   0  0  0  0  0  2  0  0  0  0  0  0
  189.0200  176.3350  136.1970 C   0  0  2  0  0  3  0  0  0  0  0  0
  196.1620  173.8570  135.0510 O   0  0  0  0  0  0  0  0  0  0  0  0
  196.5490  174.7740  135.8230 C   0  0  0  0  0  0  0  0  0  0  0  0
  195.6050  175.6200  136.4890 N   0  0  0  0  0  2  0  0  0  0  0  0
  198.0030  174.9850  136.0430 C   0  0  0  0  0  1  0  0  0  0  0  0
  1 23  1  6  0  0  0
  1  6  1  0  0  0  0
  1 13  1  0  0  0  0
  2  5  1  0  0  0  0
  2  8  1  0  0  0  0
  3 17  1  1  0  0  0
  3  4  1  0  0  0  0
  4 21  1  0  0  0  0
  6 12  1  0  0  0  0
  7 10  1  0  0  0  0
  7  2  1  0  0  0  0
  8 11  1  0  0  0  0
  9  6  2  0  0  0  0
 10 19  1  0  0  0  0
 12 18  2  0  0  0  0
 13 21  1  0  0  0  0
 13 18  1  0  0  0  0
 14 10  1  0  0  0  0
 14  3  1  0  0  0  0
 15  7  1  0  0  0  0
 17 23  1  0  0  0  0
 18 22  1  0  0  0  0
 19  4  1  0  0  0  0
 19  8  1  0  0  0  0
 20  2  1  0  0  0  0
 21 16  1  0  0  0  0
 22 25  1  0  0  0  0
 24 25  1  0  0  0  0
 24 28  1  0  0  0  0
 25 27  1  0  0  0  0
 25 30  1  0  0  0  0
 27 29  1  0  0  0  0
 28 29  1  0  0  0  0
 29 26  1  0  0  0  0
 31 14  1  0  0  0  0
 32 31  2  0  0  0  0
 33 31  1  0  0  0  0
 35 33  1  0  0  0  0
 35 34  1  0  0  0  0
 36 50  1  0  0  0  0
 36 35  1  0  0  0  0
 37 36  1  0  0  0  0
 38 46  2  0  0  0  0
 38 50  1  0  0  0  0
 39 41  2  0  0  0  0
 39 50  1  0  0  0  0
 40 42  2  0  0  0  0
 41 40  1  0  0  0  0
 42 44  1  0  0  0  0
 43 45  1  0  0  0  0
 44 48  1  0  0  0  0
 45 53  1  0  0  0  0
 45 48  1  0  0  0  0
 46 42  1  0  0  0  0
 48 47  2  0  0  0  0
 49 43  1  0  0  0  0
 49 46  1  0  0  0  0
 51 52  2  0  0  0  0
 52 54  1  0  0  0  0
 52 53  1  0  0  0  0
M  END
>  <MODEL>
7

>  <REMARK>
 VINA RESULT:      -7.3      3.298      7.825
  Name = 
  7 active torsions:
  status: ('A' for Active; 'I' for Inactive)
    1  A    between atoms: C_5  and  C_33
    2  A    between atoms: C_5  and  C_52
    3  A    between atoms: C_6  and  N_53
    4  A    between atoms: C_26  and  N_49
    5  A    between atoms: C_37  and  C_44
    6  A    between atoms: C_37  and  C_48
    7  A    between atoms: C_44  and  C_52
                            x       y       z     vdW  Elec       q    Type
                         _______ _______ _______ _____ _____    ______ ____

>  <TORSDO>
F 7

$$$$
=
 OpenBabel11062412473D

 54 60  0  0  1  0  0  0  0  0999 V2000
  188.2130  178.4450  142.6770 C   0  0  2  0  0  3  0  0  0  0  0  0
  181.5960  178.9060  142.7750 C   0  0  0  0  0  0  0  0  0  0  0  0
  185.7950  178.9590  141.3810 C   0  0  2  0  0  3  0  0  0  0  0  0
  185.2960  179.0980  142.8500 C   0  0  1  0  0  3  0  0  0  0  0  0
  180.8660  177.8480  143.2940 F   0  0  0  0  0  0  0  0  0  0  0  0
  189.5760  178.2380  143.2160 C   0  0  0  0  0  0  0  0  0  0  0  0
  182.0640  178.6420  141.3360 C   0  0  1  0  0  3  0  0  0  0  0  0
  182.8760  179.0430  143.5260 C   0  0  2  0  0  3  0  0  0  0  0  0
  190.6370  178.5180  142.6000 O   0  0  0  0  0  0  0  0  0  0  0  0
  183.4880  178.1170  141.4760 C   0  0  1  0  0  3  0  0  0  0  0  0
  183.0270  179.9340  144.7190 C   0  0  0  0  0  1  0  0  0  0  0  0
  189.5640  177.7720  144.5520 N   0  0  0  0  0  0  0  0  0  0  0  0
  187.3550  177.7770  143.7510 C   0  0  1  0  0  3  0  0  0  0  0  0
  184.4750  178.8620  140.5860 C   0  0  2  0  0  3  0  0  0  0  0  0
  181.1900  177.6380  140.6000 C   0  0  0  0  0  1  0  0  0  0  0  0
  185.4270  178.1700  145.1140 O   0  0  0  0  0  1  0  0  0  0  0  0
  186.6540  177.6940  141.1420 C   0  0  0  0  0  2  0  0  0  0  0  0
  188.3290  177.5690  144.8750 C   0  0  0  0  0  0  0  0  0  0  0  0
  183.8970  178.5630  142.8190 C   0  0  1  0  0  3  0  0  0  0  0  0
  180.8530  180.0720  142.8280 F   0  0  0  0  0  0  0  0  0  0  0  0
  186.1880  178.7040  144.0730 C   0  0  2  0  0  3  0  0  0  0  0  0
  187.9420  177.0420  146.1500 N   0  0  0  0  0  2  0  0  0  0  0  0
  188.0370  177.8670  141.4030 O   0  0  0  0  0  0  0  0  0  0  0  0
  190.1890  176.2590  146.7570 C   0  0  0  0  0  2  0  0  0  0  0  0
  188.8530  176.7710  147.2610 C   0  0  1  0  0  0  0  0  0  0  0  0
  190.9850  178.3320  149.5230 F   0  0  0  0  0  0  0  0  0  0  0  0
  189.1380  178.0350  148.0560 C   0  0  0  0  0  2  0  0  0  0  0  0
  191.2190  176.8210  147.7100 C   0  0  0  0  0  2  0  0  0  0  0  0
  190.6470  178.1350  148.1960 C   0  0  2  0  0  3  0  0  0  0  0  0
  188.2830  175.8180  148.1030 O   0  0  0  0  0  1  0  0  0  0  0  0
  184.5580  178.3490  139.1710 C   0  0  0  0  0  0  0  0  0  0  0  0
  185.2360  179.0080  138.2270 C   0  0  0  0  0  2  0  0  0  0  0  0
  184.0750  176.9630  138.8910 C   0  0  0  0  0  2  0  0  0  0  0  0
  182.1830  175.6820  137.8790 C   0  0  0  0  0  1  0  0  0  0  0  0
  183.0040  176.9570  137.8020 C   0  0  2  0  0  3  0  0  0  0  0  0
  183.6060  177.1060  136.4030 C   0  0  2  0  0  3  0  0  0  0  0  0
  182.6130  177.2460  135.4270 O   0  0  0  0  0  1  0  0  0  0  0  0
  185.8900  176.5100  135.6590 C   0  0  0  0  0  3  0  0  0  0  0  0
  184.0320  175.1300  134.9950 N   0  0  0  0  0  0  0  0  0  0  0  0
  185.8660  173.5210  135.1400 C   0  0  0  0  0  3  0  0  0  0  0  0
  184.5930  174.0310  134.5930 C   0  0  0  0  0  3  0  0  0  0  0  0
  186.9080  174.2460  135.5710 C   0  0  0  0  0  0  0  0  0  0  0  0
  189.4750  175.7250  135.0460 C   0  0  0  0  0  2  0  0  0  0  0  0
  187.9650  173.5050  136.2010 N   0  0  0  0  0  2  0  0  0  0  0  0
  189.7120  175.3650  136.4990 C   0  0  1  0  0  3  0  0  0  0  0  0
  186.9580  175.7400  135.4410 C   0  0  0  0  0  0  0  0  0  0  0  0
  189.7970  173.2420  137.5910 O   0  0  0  0  0  0  0  0  0  0  0  0
  189.1780  173.9910  136.7890 C   0  0  0  0  0  0  0  0  0  0  0  0
  188.1580  176.4620  134.8970 C   0  0  0  0  0  2  0  0  0  0  0  0
  184.5660  175.9630  136.0670 C   0  0  2  0  0  3  0  0  0  0  0  0
  190.8840  176.5960  138.8690 O   0  0  0  0  0  0  0  0  0  0  0  0
  191.6550  176.1020  138.0050 C   0  0  0  0  0  0  0  0  0  0  0  0
  191.1340  175.4790  136.8260 N   0  0  0  0  0  2  0  0  0  0  0  0
  193.1250  176.1610  138.2130 C   0  0  0  0  0  1  0  0  0  0  0  0
  1 23  1  6  0  0  0
  1  6  1  0  0  0  0
  1 13  1  0  0  0  0
  2 20  1  0  0  0  0
  2  5  1  0  0  0  0
  2  8  1  0  0  0  0
  3 17  1  1  0  0  0
  3  4  1  0  0  0  0
  4 21  1  0  0  0  0
  6 12  1  0  0  0  0
  7 10  1  0  0  0  0
  7  2  1  0  0  0  0
  8 11  1  0  0  0  0
  9  6  2  0  0  0  0
 10 19  1  0  0  0  0
 12 18  2  0  0  0  0
 13 21  1  0  0  0  0
 13 18  1  0  0  0  0
 14  3  1  0  0  0  0
 14 10  1  0  0  0  0
 15  7  1  0  0  0  0
 17 23  1  0  0  0  0
 18 22  1  0  0  0  0
 19  4  1  0  0  0  0
 19  8  1  0  0  0  0
 21 16  1  0  0  0  0
 22 25  1  0  0  0  0
 24 25  1  0  0  0  0
 24 28  1  0  0  0  0
 25 27  1  0  0  0  0
 25 30  1  0  0  0  0
 27 29  1  0  0  0  0
 28 29  1  0  0  0  0
 29 26  1  0  0  0  0
 31 14  1  0  0  0  0
 32 31  2  0  0  0  0
 33 31  1  0  0  0  0
 35 34  1  0  0  0  0
 35 33  1  0  0  0  0
 36 35  1  0  0  0  0
 37 36  1  0  0  0  0
 38 50  1  0  0  0  0
 39 50  1  0  0  0  0
 40 42  2  0  0  0  0
 41 39  2  0  0  0  0
 41 40  1  0  0  0  0
 42 44  1  0  0  0  0
 43 45  1  0  0  0  0
 44 48  1  0  0  0  0
 45 48  1  0  0  0  0
 45 53  1  0  0  0  0
 46 42  1  0  0  0  0
 46 38  2  0  0  0  0
 48 47  2  0  0  0  0
 49 43  1  0  0  0  0
 49 46  1  0  0  0  0
 50 36  1  0  0  0  0
 52 54  1  0  0  0  0
 52 51  2  0  0  0  0
 53 52  1  0  0  0  0
M  END
>  <MODEL>
8

>  <REMARK>
 VINA RESULT:      -7.2      3.168      6.624
  Name = 
  7 active torsions:
  status: ('A' for Active; 'I' for Inactive)
    1  A    between atoms: C_5  and  C_33
    2  A    between atoms: C_5  and  C_52
    3  A    between atoms: C_6  and  N_53
    4  A    between atoms: C_26  and  N_49
    5  A    between atoms: C_37  and  C_44
    6  A    between atoms: C_37  and  C_48
    7  A    between atoms: C_44  and  C_52
                            x       y       z     vdW  Elec       q    Type
                         _______ _______ _______ _____ _____    ______ ____

>  <TORSDO>
F 7

$$$$
=
 OpenBabel11062412473D

 54 60  0  0  1  0  0  0  0  0999 V2000
  191.2790  176.2500  138.1010 C   0  0  2  0  0  3  0  0  0  0  0  0
  185.5800  173.6290  135.9430 C   0  0  0  0  0  0  0  0  0  0  0  0
  188.4920  176.2910  137.9450 C   0  0  2  0  0  3  0  0  0  0  0  0
  188.7190  174.8100  137.5180 C   0  0  1  0  0  3  0  0  0  0  0  0
  185.4540  173.3370  134.5940 F   0  0  0  0  0  0  0  0  0  0  0  0
  192.7400  176.3580  138.3090 C   0  0  0  0  0  0  0  0  0  0  0  0
  185.3710  175.1210  136.2400 C   0  0  1  0  0  3  0  0  0  0  0  0
  186.9870  173.3930  136.3740 C   0  0  2  0  0  3  0  0  0  0  0  0
  193.2890  177.1510  139.1170 O   0  0  0  0  0  0  0  0  0  0  0  0
  186.7740  175.7140  136.2850 C   0  0  1  0  0  3  0  0  0  0  0  0
  187.4580  172.0880  136.9330 C   0  0  0  0  0  1  0  0  0  0  0  0
  193.4640  175.3980  137.5640 N   0  0  0  0  0  0  0  0  0  0  0  0
  191.2090  175.2890  136.9140 C   0  0  1  0  0  3  0  0  0  0  0  0
  187.0210  176.5330  137.5460 C   0  0  2  0  0  3  0  0  0  0  0  0
  184.5240  175.8240  135.1890 C   0  0  0  0  0  1  0  0  0  0  0  0
  190.1090  173.2910  136.1890 O   0  0  0  0  0  1  0  0  0  0  0  0
  189.4160  177.2900  137.2080 C   0  0  0  0  0  2  0  0  0  0  0  0
  192.6130  174.7620  136.8290 C   0  0  0  0  0  0  0  0  0  0  0  0
  187.6420  174.5440  136.5120 C   0  0  1  0  0  3  0  0  0  0  0  0
  184.6920  172.8670  136.6820 F   0  0  0  0  0  0  0  0  0  0  0  0
  190.1440  174.2410  137.2120 C   0  0  2  0  0  3  0  0  0  0  0  0
  193.0050  173.7440  135.9000 N   0  0  0  0  0  2  0  0  0  0  0  0
  190.6740  177.4940  137.8300 O   0  0  0  0  0  0  0  0  0  0  0  0
  195.3400  174.3530  135.4510 C   0  0  0  0  0  2  0  0  0  0  0  0
  194.3630  173.2290  135.7380 C   0  0  1  0  0  0  0  0  0  0  0  0
  197.1180  172.1010  137.5370 F   0  0  0  0  0  0  0  0  0  0  0  0
  194.8430  172.5420  137.0060 C   0  0  0  0  0  2  0  0  0  0  0  0
  196.6270  173.9500  136.1340 C   0  0  0  0  0  2  0  0  0  0  0  0
  196.2080  173.1220  137.3310 C   0  0  2  0  0  3  0  0  0  0  0  0
  194.3880  172.3170  134.6840 O   0  0  0  0  0  1  0  0  0  0  0  0
  186.5550  177.9650  137.4660 C   0  0  0  0  0  0  0  0  0  0  0  0
  187.3920  178.9550  137.1460 C   0  0  0  0  0  2  0  0  0  0  0  0
  185.0860  178.2350  137.5110 C   0  0  0  0  0  2  0  0  0  0  0  0
  183.5150  176.8600  138.8840 C   0  0  0  0  0  1  0  0  0  0  0  0
  184.5210  177.9970  138.9100 C   0  0  2  0  0  3  0  0  0  0  0  0
  183.8700  179.2550  139.4890 C   0  0  2  0  0  3  0  0  0  0  0  0
  184.6200  180.4020  139.2030 O   0  0  0  0  0  1  0  0  0  0  0  0
  184.6180  178.2330  141.6150 C   0  0  0  0  0  3  0  0  0  0  0  0
  182.2660  178.5840  141.2340 N   0  0  0  0  0  0  0  0  0  0  0  0
  182.4580  178.8350  143.6590 C   0  0  0  0  0  3  0  0  0  0  0  0
  181.7440  178.4750  142.4180 C   0  0  0  0  0  3  0  0  0  0  0  0
  183.7700  178.7080  143.9010 C   0  0  0  0  0  0  0  0  0  0  0  0
  186.1270  177.0750  144.8140 C   0  0  0  0  0  2  0  0  0  0  0  0
  184.2330  179.2800  145.1350 N   0  0  0  0  0  2  0  0  0  0  0  0
  186.6670  178.4550  145.1330 C   0  0  1  0  0  3  0  0  0  0  0  0
  184.7080  178.0480  142.9340 C   0  0  0  0  0  0  0  0  0  0  0  0
  185.8220  180.1740  146.5610 O   0  0  0  0  0  0  0  0  0  0  0  0
  185.5680  179.3380  145.6540 C   0  0  0  0  0  0  0  0  0  0  0  0
  185.7000  177.0040  143.3600 C   0  0  0  0  0  2  0  0  0  0  0  0
  183.6000  179.1230  140.9890 C   0  0  2  0  0  3  0  0  0  0  0  0
  189.0990  176.8750  144.8310 O   0  0  0  0  0  0  0  0  0  0  0  0
  188.9540  177.5590  145.8780 C   0  0  0  0  0  0  0  0  0  0  0  0
  187.7830  178.3590  146.0760 N   0  0  0  0  0  2  0  0  0  0  0  0
  190.0120  177.5410  146.9210 C   0  0  0  0  0  1  0  0  0  0  0  0
  1 23  1  6  0  0  0
  1  6  1  0  0  0  0
  2  7  1  0  0  0  0
  2  8  1  0  0  0  0
  2 20  1  0  0  0  0
  3 17  1  6  0  0  0
  4  3  1  0  0  0  0
  5  2  1  0  0  0  0
  6  9  2  0  0  0  0
  7 10  1  0  0  0  0
  8 19  1  0  0  0  0
  8 11  1  0  0  0  0
 10 19  1  0  0  0  0
 10 14  1  0  0  0  0
 12  6  1  0  0  0  0
 13 21  1  0  0  0  0
 13  1  1  0  0  0  0
 14  3  1  0  0  0  0
 15  7  1  0  0  0  0
 16 21  1  0  0  0  0
 17 23  1  0  0  0  0
 18 13  1  0  0  0  0
 18 12  2  0  0  0  0
 19  4  1  0  0  0  0
 21  4  1  0  0  0  0
 22 18  1  0  0  0  0
 24 25  1  0  0  0  0
 24 28  1  0  0  0  0
 25 22  1  0  0  0  0
 25 27  1  0  0  0  0
 27 29  1  0  0  0  0
 28 29  1  0  0  0  0
 29 26  1  0  0  0  0
 30 25  1  0  0  0  0
 31 33  1  0  0  0  0
 31 14  1  0  0  0  0
 32 31  2  0  0  0  0
 33 35  1  0  0  0  0
 34 35  1  0  0  0  0
 35 36  1  0  0  0  0
 36 50  1  0  0  0  0
 37 36  1  0  0  0  0
 38 46  2  0  0  0  0
 39 41  2  0  0  0  0
 40 42  2  0  0  0  0
 41 40  1  0  0  0  0
 42 44  1  0  0  0  0
 43 45  1  0  0  0  0
 44 48  1  0  0  0  0
 45 48  1  0  0  0  0
 45 53  1  0  0  0  0
 46 49  1  0  0  0  0
 46 42  1  0  0  0  0
 48 47  2  0  0  0  0
 49 43  1  0  0  0  0
 50 39  1  0  0  0  0
 50 38  1  0  0  0  0
 51 52  2  0  0  0  0
 52 53  1  0  0  0  0
 52 54  1  0  0  0  0
M  END
>  <MODEL>
9

>  <REMARK>
 VINA RESULT:      -7.1      3.458      7.118
  Name = 
  7 active torsions:
  status: ('A' for Active; 'I' for Inactive)
    1  A    between atoms: C_5  and  C_33
    2  A    between atoms: C_5  and  C_52
    3  A    between atoms: C_6  and  N_53
    4  A    between atoms: C_26  and  N_49
    5  A    between atoms: C_37  and  C_44
    6  A    between atoms: C_37  and  C_48
    7  A    between atoms: C_44  and  C_52
                            x       y       z     vdW  Elec       q    Type
                         _______ _______ _______ _____ _____    ______ ____

>  <TORSDO>
F 7

$$$$
