=
 OpenBabel11062413223D

 46 51  0  0  1  0  0  0  0  0999 V2000
  188.9300  176.7560  138.6900 C   0  0  1  0  0  3  0  0  0  0  0  0
  188.6150  175.6290  137.7040 C   0  0  0  0  0  1  0  0  0  0  0  0
  192.4050  177.5130  140.4340 C   0  0  0  0  0  2  0  0  0  0  0  0
  191.3460  176.0440  138.1850 C   0  0  0  0  0  3  0  0  0  0  0  0
  190.4360  177.0580  138.8270 C   0  0  2  0  0  3  0  0  0  0  0  0
  190.8730  177.3730  140.2750 C   0  0  1  0  0  3  0  0  0  0  0  0
  193.1900  177.3510  139.1240 C   0  0  0  0  0  2  0  0  0  0  0  0
  192.6680  176.1810  138.3280 C   0  0  0  0  0  0  0  0  0  0  0  0
  193.8450  175.3400  136.2850 C   0  0  0  0  0  2  0  0  0  0  0  0
  193.5810  175.1230  137.7790 C   0  0  1  0  0  3  0  0  0  0  0  0
  195.2970  175.1820  136.2330 C   0  0  0  0  0  0  0  0  0  0  0  0
  194.8630  175.0770  138.5040 N   0  0  0  0  0  0  0  0  0  0  0  0
  195.8510  175.0210  137.5120 N   0  0  0  0  0  0  0  0  0  0  0  0
  195.9820  175.1870  135.1800 O   0  0  0  0  0  0  0  0  0  0  0  0
  190.3710  176.3240  141.2590 C   0  0  0  0  0  2  0  0  0  0  0  0
  189.5760  176.9910  142.3730 C   0  0  1  0  0  3  0  0  0  0  0  0
  188.9070  175.9270  143.2360 C   0  0  0  0  0  2  0  0  0  0  0  0
  190.1070  176.6810  143.7700 C   0  0  1  0  0  0  0  0  0  0  0  0
  191.3740  175.8440  143.9060 C   0  0  0  0  0  1  0  0  0  0  0  0
  189.8740  177.3270  146.2490 C   0  0  0  0  0  2  0  0  0  0  0  0
  190.4090  179.0300  144.6100 O   0  0  0  0  0  1  0  0  0  0  0  0
  188.5580  177.7680  145.6180 C   0  0  0  0  0  2  0  0  0  0  0  0
  189.8350  177.7740  144.8050 C   0  0  0  0  0  0  0  0  0  0  0  0
  188.0480  178.0240  138.5090 C   0  0  1  0  0  0  0  0  0  0  0  0
  186.9090  178.6750  140.7970 N   0  0  0  0  0  0  0  0  0  0  0  0
  187.4090  178.3890  139.7930 C   0  0  0  0  0  0  0  0  0  0  0  0
  188.9160  179.0420  136.6050 C   0  0  0  0  0  1  0  0  0  0  0  0
  188.7970  179.1240  138.0060 O   0  0  0  0  0  0  0  0  0  0  0  0
  186.9010  177.7310  137.5340 C   0  0  0  0  0  2  0  0  0  0  0  0
  185.7520  178.5860  137.7930 N   0  0  0  0  0  2  0  0  0  0  0  0
  184.5660  177.8300  137.4290 C   0  0  0  0  0  2  0  0  0  0  0  0
  181.9750  175.7750  138.5600 N   0  0  0  0  0  2  0  0  0  0  0  0
  182.6100  179.2000  139.5950 C   0  0  0  0  0  3  0  0  0  0  0  0
  182.7440  177.8990  139.1130 C   0  0  0  0  0  0  0  0  0  0  0  0
  181.3730  179.6350  139.9730 N   0  0  0  0  0  0  0  0  0  0  0  0
  184.0540  174.8740  137.9180 O   0  0  0  0  0  0  0  0  0  0  0  0
  180.2700  178.8290  139.9010 C   0  0  0  0  0  3  0  0  0  0  0  0
  181.6480  177.0710  139.0370 C   0  0  0  0  0  0  0  0  0  0  0  0
  180.3820  177.5110  139.4310 C   0  0  0  0  0  0  0  0  0  0  0  0
  183.3830  175.8530  138.3400 C   0  0  0  0  0  0  0  0  0  0  0  0
  183.9810  177.1870  138.6750 C   0  0  1  0  0  3  0  0  0  0  0  0
  179.1800  176.6250  139.3780 C   0  0  0  0  0  2  0  0  0  0  0  0
  179.1640  176.2940  141.7890 O   0  0  0  0  0  1  0  0  0  0  0  0
  178.9580  173.5820  141.3670 O   0  0  0  0  0  0  0  0  0  0  0  0
  179.0290  174.3480  140.3700 C   0  0  0  0  0  3  0  0  0  0  0  0
  179.1290  175.7590  140.5460 N   0  0  0  0  0  0  0  0  0  0  0  0
  1  2  1  6  0  0  0
  4  8  2  0  0  0  0
  4  5  1  0  0  0  0
  5  1  1  1  0  0  0
  5  6  1  0  0  0  0
  6  3  1  0  0  0  0
  6 15  1  1  0  0  0
  7  3  1  0  0  0  0
  8  7  1  0  0  0  0
  9 10  1  0  0  0  0
 10  8  1  1  0  0  0
 10 12  1  0  0  0  0
 11  9  1  0  0  0  0
 11 13  1  0  0  0  0
 13 12  2  0  0  0  0
 14 11  2  0  0  0  0
 16 15  1  6  0  0  0
 16 17  1  0  0  0  0
 16 18  1  0  0  0  0
 17 18  1  0  0  0  0
 18 19  1  1  0  0  0
 18 23  1  0  0  0  0
 21 23  1  0  0  0  0
 22 20  1  0  0  0  0
 23 22  1  0  0  0  0
 23 20  1  0  0  0  0
 24 29  1  6  0  0  0
 24  1  1  0  0  0  0
 24 26  1  0  0  0  0
 26 25  3  0  0  0  0
 27 28  1  0  0  0  0
 28 24  1  0  0  0  0
 29 30  1  0  0  0  0
 31 30  1  0  0  0  0
 32 38  1  0  0  0  0
 33 35  1  0  0  0  0
 34 33  2  0  0  0  0
 36 40  2  0  0  0  0
 37 35  2  0  0  0  0
 38 34  1  0  0  0  0
 38 39  2  0  0  0  0
 39 37  1  0  0  0  0
 40 32  1  0  0  0  0
 40 41  1  0  0  0  0
 41 31  1  6  0  0  0
 41 34  1  0  0  0  0
 42 39  1  0  0  0  0
 42 46  1  0  0  0  0
 45 46  1  0  0  0  0
 45 44  2  0  0  0  0
 46 43  1  0  0  0  0
M  END
>  <MODEL>
1

>  <REMARK>
 VINA RESULT:      -7.2      0.000      0.000
  Name = 
  14 active torsions:
  status: ('A' for Active; 'I' for Inactive)
    1  A    between atoms: C_1  and  C_43
    2  A    between atoms: C_6  and  N_38
    3  A    between atoms: C_6  and  C_46
    4  A    between atoms: C_12  and  C_42
    5  A    between atoms: C_13  and  C_32
    6  A    between atoms: C_13  and  N_39
    7  A    between atoms: C_17  and  C_26
    8  A    between atoms: C_21  and  N_38
    9  A    between atoms: C_21  and  C_44
   10  A    between atoms: C_23  and  C_34
   11  A    between atoms: C_26  and  C_46
   12  A    between atoms: O_29  and  C_46
   13  A    between atoms: C_35  and  C_43
   14  A    between atoms: C_36  and  C_46
                            x       y       z     vdW  Elec       q    Type
                         _______ _______ _______ _____ _____    ______ ____

>  <TORSDO>
F 14

$$$$
=
 OpenBabel11062413223D

 46 51  0  0  1  0  0  0  0  0999 V2000
  188.6680  176.5660  137.9030 C   0  0  1  0  0  3  0  0  0  0  0  0
  188.4490  175.1250  137.4340 C   0  0  0  0  0  1  0  0  0  0  0  0
  191.8440  177.5590  140.0520 C   0  0  0  0  0  2  0  0  0  0  0  0
  191.1260  175.8170  137.8650 C   0  0  0  0  0  3  0  0  0  0  0  0
  190.1390  176.8940  138.2310 C   0  0  2  0  0  3  0  0  0  0  0  0
  190.3530  177.3880  139.6790 C   0  0  1  0  0  3  0  0  0  0  0  0
  192.8180  177.2440  138.9070 C   0  0  0  0  0  2  0  0  0  0  0  0
  192.4110  175.9800  138.1910 C   0  0  0  0  0  0  0  0  0  0  0  0
  193.4900  174.5760  136.4220 C   0  0  0  0  0  2  0  0  0  0  0  0
  193.3860  174.8710  137.9220 C   0  0  1  0  0  3  0  0  0  0  0  0
  194.9400  174.5210  136.2480 C   0  0  0  0  0  0  0  0  0  0  0  0
  194.7250  175.1770  138.4580 N   0  0  0  0  0  0  0  0  0  0  0  0
  195.6200  174.8560  137.4290 N   0  0  0  0  0  0  0  0  0  0  0  0
  195.5240  174.2130  135.1800 O   0  0  0  0  0  0  0  0  0  0  0  0
  189.6950  176.4640  140.6950 C   0  0  0  0  0  2  0  0  0  0  0  0
  189.2340  177.2640  141.9060 C   0  0  1  0  0  3  0  0  0  0  0  0
  188.4190  176.3690  142.8330 C   0  0  0  0  0  2  0  0  0  0  0  0
  189.8260  176.7700  143.2230 C   0  0  1  0  0  0  0  0  0  0  0  0
  190.8410  175.6320  143.1930 C   0  0  0  0  0  1  0  0  0  0  0  0
  190.3290  177.3540  145.6780 C   0  0  0  0  0  2  0  0  0  0  0  0
  190.6180  179.0380  143.9600 O   0  0  0  0  0  1  0  0  0  0  0  0
  188.9560  177.9640  145.4170 C   0  0  0  0  0  2  0  0  0  0  0  0
  189.9680  177.8510  144.2970 C   0  0  0  0  0  0  0  0  0  0  0  0
  187.9670  177.6360  137.0190 C   0  0  1  0  0  0  0  0  0  0  0  0
  189.0410  180.0070  137.4350 N   0  0  0  0  0  0  0  0  0  0  0  0
  188.5700  178.9660  137.2530 C   0  0  0  0  0  0  0  0  0  0  0  0
  186.7520  177.3800  135.0510 C   0  0  0  0  0  1  0  0  0  0  0  0
  188.0300  177.3070  135.6360 O   0  0  0  0  0  0  0  0  0  0  0  0
  186.4910  177.7630  137.4200 C   0  0  0  0  0  2  0  0  0  0  0  0
  186.3510  178.3080  138.7620 N   0  0  0  0  0  2  0  0  0  0  0  0
  185.0190  177.9630  139.2270 C   0  0  0  0  0  2  0  0  0  0  0  0
  182.8340  178.8420  141.8080 N   0  0  0  0  0  2  0  0  0  0  0  0
  182.5070  179.7640  138.3090 C   0  0  0  0  0  3  0  0  0  0  0  0
  183.0050  179.3770  139.5510 C   0  0  0  0  0  0  0  0  0  0  0  0
  181.1620  179.9460  138.1690 N   0  0  0  0  0  0  0  0  0  0  0  0
  185.1340  178.5390  142.2080 O   0  0  0  0  0  0  0  0  0  0  0  0
  180.2960  179.7680  139.2130 C   0  0  0  0  0  3  0  0  0  0  0  0
  182.1510  179.1980  140.6160 C   0  0  0  0  0  0  0  0  0  0  0  0
  180.7750  179.3910  140.4780 C   0  0  0  0  0  0  0  0  0  0  0  0
  184.2030  178.8110  141.4060 C   0  0  0  0  0  0  0  0  0  0  0  0
  184.4220  179.1510  139.9620 C   0  0  1  0  0  3  0  0  0  0  0  0
  179.8300  179.2230  141.6230 C   0  0  0  0  0  2  0  0  0  0  0  0
  179.8240  177.4000  143.2360 O   0  0  0  0  0  1  0  0  0  0  0  0
  179.1850  175.6640  141.1970 O   0  0  0  0  0  0  0  0  0  0  0  0
  179.3500  176.8820  140.9270 C   0  0  0  0  0  3  0  0  0  0  0  0
  179.6740  177.8160  141.9560 N   0  0  0  0  0  0  0  0  0  0  0  0
  1  2  1  6  0  0  0
  4  8  2  0  0  0  0
  4  5  1  0  0  0  0
  5  1  1  1  0  0  0
  5  6  1  0  0  0  0
  6  3  1  0  0  0  0
  6 15  1  1  0  0  0
  7  3  1  0  0  0  0
  8  7  1  0  0  0  0
  9 10  1  0  0  0  0
 10  8  1  6  0  0  0
 10 12  1  0  0  0  0
 11  9  1  0  0  0  0
 11 13  1  0  0  0  0
 13 12  2  0  0  0  0
 14 11  2  0  0  0  0
 16 15  1  6  0  0  0
 16 17  1  0  0  0  0
 16 18  1  0  0  0  0
 17 18  1  0  0  0  0
 18 19  1  6  0  0  0
 18 23  1  0  0  0  0
 21 23  1  0  0  0  0
 22 20  1  0  0  0  0
 23 22  1  0  0  0  0
 23 20  1  0  0  0  0
 24 26  1  1  0  0  0
 24 29  1  0  0  0  0
 24  1  1  0  0  0  0
 26 25  3  0  0  0  0
 27 28  1  0  0  0  0
 28 24  1  0  0  0  0
 29 30  1  0  0  0  0
 30 31  1  0  0  0  0
 33 34  1  0  0  0  0
 34 41  1  0  0  0  0
 34 38  2  0  0  0  0
 35 33  2  0  0  0  0
 35 37  1  0  0  0  0
 37 39  2  0  0  0  0
 38 32  1  0  0  0  0
 39 38  1  0  0  0  0
 39 42  1  0  0  0  0
 40 32  1  0  0  0  0
 40 36  2  0  0  0  0
 41 31  1  6  0  0  0
 41 40  1  0  0  0  0
 42 46  1  0  0  0  0
 45 44  2  0  0  0  0
 45 46  1  0  0  0  0
 46 43  1  0  0  0  0
M  END
>  <MODEL>
2

>  <REMARK>
 VINA RESULT:      -7.1      1.698      2.065
  Name = 
  14 active torsions:
  status: ('A' for Active; 'I' for Inactive)
    1  A    between atoms: C_1  and  C_43
    2  A    between atoms: C_6  and  N_38
    3  A    between atoms: C_6  and  C_46
    4  A    between atoms: C_12  and  C_42
    5  A    between atoms: C_13  and  C_32
    6  A    between atoms: C_13  and  N_39
    7  A    between atoms: C_17  and  C_26
    8  A    between atoms: C_21  and  N_38
    9  A    between atoms: C_21  and  C_44
   10  A    between atoms: C_23  and  C_34
   11  A    between atoms: C_26  and  C_46
   12  A    between atoms: O_29  and  C_46
   13  A    between atoms: C_35  and  C_43
   14  A    between atoms: C_36  and  C_46
                            x       y       z     vdW  Elec       q    Type
                         _______ _______ _______ _____ _____    ______ ____

>  <TORSDO>
F 14

$$$$
=
 OpenBabel11062413223D

 46 51  0  0  1  0  0  0  0  0999 V2000
  182.9880  177.3110  139.3030 C   0  0  1  0  0  3  0  0  0  0  0  0
  182.6390  176.0900  140.1580 C   0  0  0  0  0  1  0  0  0  0  0  0
  182.7840  177.4300  135.3480 C   0  0  0  0  0  2  0  0  0  0  0  0
  181.5910  176.0260  137.5700 C   0  0  0  0  0  3  0  0  0  0  0  0
  182.3660  177.2770  137.8920 C   0  0  2  0  0  3  0  0  0  0  0  0
  183.3670  177.6240  136.7670 C   0  0  1  0  0  3  0  0  0  0  0  0
  181.3200  176.9680  135.3290 C   0  0  0  0  0  2  0  0  0  0  0  0
  181.0900  175.8740  136.3410 C   0  0  0  0  0  0  0  0  0  0  0  0
  181.2560  173.7550  135.0180 C   0  0  0  0  0  2  0  0  0  0  0  0
  180.4030  174.5890  135.9800 C   0  0  1  0  0  3  0  0  0  0  0  0
  181.1760  172.4380  135.6460 C   0  0  0  0  0  0  0  0  0  0  0  0
  180.0810  173.7870  137.1740 N   0  0  0  0  0  0  0  0  0  0  0  0
  180.4900  172.4820  136.8680 N   0  0  0  0  0  0  0  0  0  0  0  0
  181.6580  171.3830  135.1630 O   0  0  0  0  0  0  0  0  0  0  0  0
  184.6530  176.8170  136.8850 C   0  0  0  0  0  2  0  0  0  0  0  0
  185.8580  177.7480  136.8580 C   0  0  1  0  0  3  0  0  0  0  0  0
  186.5230  177.7680  138.2300 C   0  0  0  0  0  2  0  0  0  0  0  0
  187.1860  177.0310  137.0860 C   0  0  1  0  0  0  0  0  0  0  0  0
  187.1880  175.5120  137.2250 C   0  0  0  0  0  1  0  0  0  0  0  0
  189.7050  177.5490  137.1580 C   0  0  0  0  0  2  0  0  0  0  0  0
  188.5240  177.6240  135.0430 O   0  0  0  0  0  1  0  0  0  0  0  0
  189.0400  178.9180  137.0680 C   0  0  0  0  0  2  0  0  0  0  0  0
  188.3900  177.7090  136.4290 C   0  0  0  0  0  0  0  0  0  0  0  0
  182.8130  178.6710  140.0340 C   0  0  1  0  0  0  0  0  0  0  0  0
  184.2010  180.5480  138.8070 N   0  0  0  0  0  0  0  0  0  0  0  0
  183.5910  179.7250  139.3450 C   0  0  0  0  0  0  0  0  0  0  0  0
  181.0120  179.0230  141.4640 C   0  0  0  0  0  1  0  0  0  0  0  0
  181.4460  179.0540  140.1250 O   0  0  0  0  0  0  0  0  0  0  0  0
  183.3870  178.5820  141.4540 C   0  0  0  0  0  2  0  0  0  0  0  0
  184.7650  179.0480  141.5000 N   0  0  0  0  0  2  0  0  0  0  0  0
  185.0370  179.4430  142.8720 C   0  0  0  0  0  2  0  0  0  0  0  0
  185.4300  178.3700  146.1740 N   0  0  0  0  0  2  0  0  0  0  0  0
  187.3390  177.2270  143.3020 C   0  0  0  0  0  3  0  0  0  0  0  0
  186.3480  177.7510  144.1290 C   0  0  0  0  0  0  0  0  0  0  0  0
  188.5190  176.8310  143.8620 N   0  0  0  0  0  0  0  0  0  0  0  0
  183.3290  179.0470  145.3540 O   0  0  0  0  0  0  0  0  0  0  0  0
  188.7480  176.9250  145.2070 C   0  0  0  0  0  3  0  0  0  0  0  0
  186.5570  177.8500  145.4850 C   0  0  0  0  0  0  0  0  0  0  0  0
  187.7600  177.4380  146.0630 C   0  0  0  0  0  0  0  0  0  0  0  0
  184.4820  178.5920  145.1310 C   0  0  0  0  0  0  0  0  0  0  0  0
  184.9770  178.2160  143.7660 C   0  0  1  0  0  3  0  0  0  0  0  0
  188.0040  177.5160  147.5350 C   0  0  0  0  0  2  0  0  0  0  0  0
  189.8320  178.7220  148.5950 O   0  0  0  0  0  1  0  0  0  0  0  0
  191.5950  176.9110  147.5040 O   0  0  0  0  0  0  0  0  0  0  0  0
  190.3670  176.7860  147.2580 C   0  0  0  0  0  3  0  0  0  0  0  0
  189.4200  177.6990  147.8100 N   0  0  0  0  0  0  0  0  0  0  0  0
  1 24  1  0  0  0  0
  1  2  1  1  0  0  0
  3  6  1  0  0  0  0
  4  5  1  0  0  0  0
  5  1  1  1  0  0  0
  6 15  1  6  0  0  0
  6  5  1  0  0  0  0
  7  3  1  0  0  0  0
  7  8  1  0  0  0  0
  8  4  2  0  0  0  0
  9 11  1  0  0  0  0
  9 10  1  0  0  0  0
 10  8  1  1  0  0  0
 10 12  1  0  0  0  0
 11 13  1  0  0  0  0
 13 12  2  0  0  0  0
 14 11  2  0  0  0  0
 16 15  1  1  0  0  0
 16 18  1  0  0  0  0
 16 17  1  0  0  0  0
 18 19  1  1  0  0  0
 18 17  1  0  0  0  0
 21 23  1  0  0  0  0
 22 20  1  0  0  0  0
 23 22  1  0  0  0  0
 23 18  1  0  0  0  0
 23 20  1  0  0  0  0
 24 26  1  6  0  0  0
 24 28  1  0  0  0  0
 24 29  1  0  0  0  0
 25 26  3  0  0  0  0
 28 27  1  0  0  0  0
 29 30  1  0  0  0  0
 30 31  1  0  0  0  0
 33 35  2  0  0  0  0
 33 34  1  0  0  0  0
 34 38  2  0  0  0  0
 35 37  1  0  0  0  0
 37 39  2  0  0  0  0
 38 39  1  0  0  0  0
 38 32  1  0  0  0  0
 39 42  1  0  0  0  0
 40 36  2  0  0  0  0
 40 32  1  0  0  0  0
 41 31  1  6  0  0  0
 41 34  1  0  0  0  0
 41 40  1  0  0  0  0
 42 46  1  0  0  0  0
 45 44  2  0  0  0  0
 45 46  1  0  0  0  0
 46 43  1  0  0  0  0
M  END
>  <MODEL>
3

>  <REMARK>
 VINA RESULT:      -7.1      3.704      9.696
  Name = 
  14 active torsions:
  status: ('A' for Active; 'I' for Inactive)
    1  A    between atoms: C_1  and  C_43
    2  A    between atoms: C_6  and  N_38
    3  A    between atoms: C_6  and  C_46
    4  A    between atoms: C_12  and  C_42
    5  A    between atoms: C_13  and  C_32
    6  A    between atoms: C_13  and  N_39
    7  A    between atoms: C_17  and  C_26
    8  A    between atoms: C_21  and  N_38
    9  A    between atoms: C_21  and  C_44
   10  A    between atoms: C_23  and  C_34
   11  A    between atoms: C_26  and  C_46
   12  A    between atoms: O_29  and  C_46
   13  A    between atoms: C_35  and  C_43
   14  A    between atoms: C_36  and  C_46
                            x       y       z     vdW  Elec       q    Type
                         _______ _______ _______ _____ _____    ______ ____

>  <TORSDO>
F 14

$$$$
=
 OpenBabel11062413223D

 46 51  0  0  1  0  0  0  0  0999 V2000
  182.2050  177.2730  138.6550 C   0  0  1  0  0  3  0  0  0  0  0  0
  182.6260  176.0640  139.4940 C   0  0  0  0  0  1  0  0  0  0  0  0
  181.6940  176.9020  134.7440 C   0  0  0  0  0  2  0  0  0  0  0  0
  181.1780  175.4380  137.1780 C   0  0  0  0  0  3  0  0  0  0  0  0
  181.5290  176.8960  137.3210 C   0  0  2  0  0  3  0  0  0  0  0  0
  182.2830  177.4190  136.0770 C   0  0  1  0  0  3  0  0  0  0  0  0
  180.4590  176.0040  134.9090 C   0  0  0  0  0  2  0  0  0  0  0  0
  180.6670  175.0070  136.0210 C   0  0  0  0  0  0  0  0  0  0  0  0
  181.6600  172.8150  135.3290 C   0  0  0  0  0  2  0  0  0  0  0  0
  180.4070  173.5400  135.8330 C   0  0  1  0  0  3  0  0  0  0  0  0
  181.6900  171.6580  136.2210 C   0  0  0  0  0  0  0  0  0  0  0  0
  179.9370  172.9040  137.0760 N   0  0  0  0  0  0  0  0  0  0  0  0
  180.6890  171.7270  137.2010 N   0  0  0  0  0  0  0  0  0  0  0  0
  182.5060  170.7070  136.1350 O   0  0  0  0  0  0  0  0  0  0  0  0
  183.7650  177.0740  136.1270 C   0  0  0  0  0  2  0  0  0  0  0  0
  183.9750  175.6190  135.7290 C   0  0  1  0  0  3  0  0  0  0  0  0
  185.1000  175.5230  134.7050 C   0  0  0  0  0  2  0  0  0  0  0  0
  185.3430  175.0710  136.1290 C   0  0  1  0  0  0  0  0  0  0  0  0
  186.2890  175.9620  136.9260 C   0  0  0  0  0  1  0  0  0  0  0  0
  184.7000  173.1060  137.6600 C   0  0  0  0  0  2  0  0  0  0  0  0
  185.1300  172.7050  135.3080 O   0  0  0  0  0  1  0  0  0  0  0  0
  186.2100  172.9800  137.4980 C   0  0  0  0  0  2  0  0  0  0  0  0
  185.3680  173.5620  136.3830 C   0  0  0  0  0  0  0  0  0  0  0  0
  181.4490  178.3710  139.4550 C   0  0  1  0  0  0  0  0  0  0  0  0
  182.0740  180.7600  138.5300 N   0  0  0  0  0  0  0  0  0  0  0  0
  181.8000  179.7120  138.9360 C   0  0  0  0  0  0  0  0  0  0  0  0
  179.5450  177.8550  140.6880 C   0  0  0  0  0  1  0  0  0  0  0  0
  180.0400  178.1840  139.4110 O   0  0  0  0  0  0  0  0  0  0  0  0
  181.8970  178.3540  140.9220 C   0  0  0  0  0  2  0  0  0  0  0  0
  183.1970  178.9850  141.0880 N   0  0  0  0  0  2  0  0  0  0  0  0
  183.8430  178.3430  142.2200 C   0  0  0  0  0  2  0  0  0  0  0  0
  187.3140  177.9670  142.0930 N   0  0  0  0  0  2  0  0  0  0  0  0
  185.3280  178.5880  145.0710 C   0  0  0  0  0  3  0  0  0  0  0  0
  185.7840  178.5140  143.7570 C   0  0  0  0  0  0  0  0  0  0  0  0
  186.0940  178.0480  146.0630 N   0  0  0  0  0  0  0  0  0  0  0  0
  186.1220  178.8970  140.2880 O   0  0  0  0  0  0  0  0  0  0  0  0
  187.2970  177.4490  145.8030 C   0  0  0  0  0  3  0  0  0  0  0  0
  186.9930  177.9200  143.4750 C   0  0  0  0  0  0  0  0  0  0  0  0
  187.7840  177.3740  144.4880 C   0  0  0  0  0  0  0  0  0  0  0  0
  186.1990  178.6480  141.5200 C   0  0  0  0  0  0  0  0  0  0  0  0
  185.1530  179.0530  142.5160 C   0  0  1  0  0  3  0  0  0  0  0  0
  189.1090  176.7420  144.2100 C   0  0  0  0  0  2  0  0  0  0  0  0
  190.8470  177.3970  145.7830 O   0  0  0  0  0  1  0  0  0  0  0  0
  191.5160  179.4730  144.1040 O   0  0  0  0  0  0  0  0  0  0  0  0
  190.5650  178.7140  143.7820 C   0  0  0  0  0  3  0  0  0  0  0  0
  190.1920  177.6220  144.6200 N   0  0  0  0  0  0  0  0  0  0  0  0
  1 24  1  0  0  0  0
  1  2  1  1  0  0  0
  3  7  1  0  0  0  0
  3  6  1  0  0  0  0
  4  5  1  0  0  0  0
  5  1  1  1  0  0  0
  6 15  1  1  0  0  0
  6  5  1  0  0  0  0
  7  8  1  0  0  0  0
  8  4  2  0  0  0  0
  9 10  1  0  0  0  0
  9 11  1  0  0  0  0
 10  8  1  1  0  0  0
 10 12  1  0  0  0  0
 11 13  1  0  0  0  0
 12 13  2  0  0  0  0
 14 11  2  0  0  0  0
 16 15  1  1  0  0  0
 16 18  1  0  0  0  0
 17 16  1  0  0  0  0
 17 18  1  0  0  0  0
 18 23  1  0  0  0  0
 18 19  1  1  0  0  0
 21 23  1  0  0  0  0
 22 20  1  0  0  0  0
 23 22  1  0  0  0  0
 23 20  1  0  0  0  0
 24 26  1  6  0  0  0
 24 29  1  0  0  0  0
 25 26  3  0  0  0  0
 28 24  1  0  0  0  0
 28 27  1  0  0  0  0
 29 30  1  0  0  0  0
 30 31  1  0  0  0  0
 32 38  1  0  0  0  0
 33 35  1  0  0  0  0
 34 33  2  0  0  0  0
 36 40  2  0  0  0  0
 37 35  2  0  0  0  0
 38 34  1  0  0  0  0
 38 39  2  0  0  0  0
 39 37  1  0  0  0  0
 40 32  1  0  0  0  0
 40 41  1  0  0  0  0
 41 31  1  6  0  0  0
 41 34  1  0  0  0  0
 42 39  1  0  0  0  0
 42 46  1  0  0  0  0
 45 44  2  0  0  0  0
 45 46  1  0  0  0  0
 46 43  1  0  0  0  0
M  END
>  <MODEL>
4

>  <REMARK>
 VINA RESULT:      -6.9      4.309      9.933
  Name = 
  14 active torsions:
  status: ('A' for Active; 'I' for Inactive)
    1  A    between atoms: C_1  and  C_43
    2  A    between atoms: C_6  and  N_38
    3  A    between atoms: C_6  and  C_46
    4  A    between atoms: C_12  and  C_42
    5  A    between atoms: C_13  and  C_32
    6  A    between atoms: C_13  and  N_39
    7  A    between atoms: C_17  and  C_26
    8  A    between atoms: C_21  and  N_38
    9  A    between atoms: C_21  and  C_44
   10  A    between atoms: C_23  and  C_34
   11  A    between atoms: C_26  and  C_46
   12  A    between atoms: O_29  and  C_46
   13  A    between atoms: C_35  and  C_43
   14  A    between atoms: C_36  and  C_46
                            x       y       z     vdW  Elec       q    Type
                         _______ _______ _______ _____ _____    ______ ____

>  <TORSDO>
F 14

$$$$
=
 OpenBabel11062413223D

 46 51  0  0  1  0  0  0  0  0999 V2000
  182.5660  177.2200  138.6530 C   0  0  1  0  0  3  0  0  0  0  0  0
  182.5810  176.0600  139.6510 C   0  0  0  0  0  1  0  0  0  0  0  0
  182.7300  176.5010  134.7600 C   0  0  0  0  0  2  0  0  0  0  0  0
  181.4940  175.4380  137.1440 C   0  0  0  0  0  3  0  0  0  0  0  0
  182.0900  176.8180  137.2420 C   0  0  2  0  0  3  0  0  0  0  0  0
  183.1490  177.0550  136.1420 C   0  0  1  0  0  3  0  0  0  0  0  0
  181.3350  175.8580  134.7380 C   0  0  0  0  0  2  0  0  0  0  0  0
  181.1340  174.9740  135.9440 C   0  0  0  0  0  0  0  0  0  0  0  0
  181.6430  172.6790  135.0820 C   0  0  0  0  0  2  0  0  0  0  0  0
  180.6320  173.5640  135.8200 C   0  0  1  0  0  3  0  0  0  0  0  0
  181.6810  171.5100  135.9570 C   0  0  0  0  0  0  0  0  0  0  0  0
  180.3300  172.9730  137.1360 N   0  0  0  0  0  0  0  0  0  0  0  0
  180.9140  171.6990  137.1160 N   0  0  0  0  0  0  0  0  0  0  0  0
  182.3180  170.4540  135.7170 O   0  0  0  0  0  0  0  0  0  0  0  0
  184.5000  176.4620  136.5200 C   0  0  0  0  0  2  0  0  0  0  0  0
  185.5390  177.5690  136.6440 C   0  0  1  0  0  3  0  0  0  0  0  0
  186.0170  177.6660  138.0890 C   0  0  0  0  0  2  0  0  0  0  0  0
  186.9240  177.0620  137.0380 C   0  0  1  0  0  0  0  0  0  0  0  0
  187.1450  175.5600  137.1780 C   0  0  0  0  0  1  0  0  0  0  0  0
  188.6560  177.5370  135.1960 C   0  0  0  0  0  2  0  0  0  0  0  0
  187.9910  179.3120  136.7050 O   0  0  0  0  0  1  0  0  0  0  0  0
  189.4870  177.3770  136.4640 C   0  0  0  0  0  2  0  0  0  0  0  0
  188.0800  177.9310  136.5370 C   0  0  0  0  0  0  0  0  0  0  0  0
  181.9020  178.5170  139.1940 C   0  0  1  0  0  0  0  0  0  0  0  0
  183.5540  180.5570  138.9400 N   0  0  0  0  0  0  0  0  0  0  0  0
  182.8290  179.6620  139.0520 C   0  0  0  0  0  0  0  0  0  0  0  0
  179.5830  178.5230  139.3850 C   0  0  0  0  0  1  0  0  0  0  0  0
  180.6730  178.7990  138.5360 O   0  0  0  0  0  0  0  0  0  0  0  0
  181.6280  178.3790  140.6970 C   0  0  0  0  0  2  0  0  0  0  0  0
  182.4650  179.2800  141.4750 N   0  0  0  0  0  2  0  0  0  0  0  0
  183.1590  178.4720  142.4630 C   0  0  0  0  0  2  0  0  0  0  0  0
  186.6050  177.9930  142.7830 N   0  0  0  0  0  2  0  0  0  0  0  0
  184.3070  178.9080  145.4450 C   0  0  0  0  0  3  0  0  0  0  0  0
  184.9120  178.7150  144.2040 C   0  0  0  0  0  0  0  0  0  0  0  0
  184.9320  178.4300  146.5600 N   0  0  0  0  0  0  0  0  0  0  0  0
  185.6680  178.8050  140.7820 O   0  0  0  0  0  0  0  0  0  0  0  0
  186.1330  177.7790  146.4930 C   0  0  0  0  0  3  0  0  0  0  0  0
  186.1230  178.0670  144.1160 C   0  0  0  0  0  0  0  0  0  0  0  0
  186.7680  177.5840  145.2560 C   0  0  0  0  0  0  0  0  0  0  0  0
  185.5900  178.6550  142.0300 C   0  0  0  0  0  0  0  0  0  0  0  0
  184.4510  179.1680  142.8590 C   0  0  1  0  0  3  0  0  0  0  0  0
  188.0930  176.8960  145.1890 C   0  0  0  0  0  2  0  0  0  0  0  0
  189.5210  178.2630  146.6090 O   0  0  0  0  0  1  0  0  0  0  0  0
  190.8340  179.1450  144.3560 O   0  0  0  0  0  0  0  0  0  0  0  0
  189.8770  178.3380  144.2240 C   0  0  0  0  0  3  0  0  0  0  0  0
  189.1760  177.8510  145.3660 N   0  0  0  0  0  0  0  0  0  0  0  0
  1 24  1  0  0  0  0
  1  2  1  1  0  0  0
  3  6  1  0  0  0  0
  4  5  1  0  0  0  0
  5  1  1  1  0  0  0
  6 15  1  1  0  0  0
  6  5  1  0  0  0  0
  7  3  1  0  0  0  0
  7  8  1  0  0  0  0
  8  4  2  0  0  0  0
  9 10  1  0  0  0  0
  9 11  1  0  0  0  0
 10  8  1  1  0  0  0
 10 12  1  0  0  0  0
 11 13  1  0  0  0  0
 13 12  2  0  0  0  0
 14 11  2  0  0  0  0
 16 15  1  1  0  0  0
 16 18  1  0  0  0  0
 16 17  1  0  0  0  0
 18 19  1  1  0  0  0
 18 17  1  0  0  0  0
 20 22  1  0  0  0  0
 20 23  1  0  0  0  0
 22 23  1  0  0  0  0
 23 21  1  0  0  0  0
 23 18  1  0  0  0  0
 24 26  1  6  0  0  0
 24 29  1  0  0  0  0
 25 26  3  0  0  0  0
 28 24  1  0  0  0  0
 28 27  1  0  0  0  0
 29 30  1  0  0  0  0
 30 31  1  0  0  0  0
 32 38  1  0  0  0  0
 33 35  1  0  0  0  0
 34 33  2  0  0  0  0
 36 40  2  0  0  0  0
 37 35  2  0  0  0  0
 38 34  1  0  0  0  0
 38 39  2  0  0  0  0
 39 37  1  0  0  0  0
 40 32  1  0  0  0  0
 40 41  1  0  0  0  0
 41 31  1  6  0  0  0
 41 34  1  0  0  0  0
 42 39  1  0  0  0  0
 42 46  1  0  0  0  0
 45 44  2  0  0  0  0
 45 46  1  0  0  0  0
 46 43  1  0  0  0  0
M  END
>  <MODEL>
5

>  <REMARK>
 VINA RESULT:      -6.8      3.869      9.375
  Name = 
  14 active torsions:
  status: ('A' for Active; 'I' for Inactive)
    1  A    between atoms: C_1  and  C_43
    2  A    between atoms: C_6  and  N_38
    3  A    between atoms: C_6  and  C_46
    4  A    between atoms: C_12  and  C_42
    5  A    between atoms: C_13  and  C_32
    6  A    between atoms: C_13  and  N_39
    7  A    between atoms: C_17  and  C_26
    8  A    between atoms: C_21  and  N_38
    9  A    between atoms: C_21  and  C_44
   10  A    between atoms: C_23  and  C_34
   11  A    between atoms: C_26  and  C_46
   12  A    between atoms: O_29  and  C_46
   13  A    between atoms: C_35  and  C_43
   14  A    between atoms: C_36  and  C_46
                            x       y       z     vdW  Elec       q    Type
                         _______ _______ _______ _____ _____    ______ ____

>  <TORSDO>
F 14

$$$$
=
 OpenBabel11062413223D

 46 51  0  0  1  0  0  0  0  0999 V2000
  185.6730  178.3630  138.7000 C   0  0  1  0  0  3  0  0  0  0  0  0
  186.9290  177.8850  139.4330 C   0  0  0  0  0  1  0  0  0  0  0  0
  185.9150  177.1300  134.9430 C   0  0  0  0  0  2  0  0  0  0  0  0
  185.4540  176.0590  137.5850 C   0  0  0  0  0  3  0  0  0  0  0  0
  185.3520  177.5540  137.4280 C   0  0  2  0  0  3  0  0  0  0  0  0
  186.1140  178.0430  136.1760 C   0  0  1  0  0  3  0  0  0  0  0  0
  184.9740  175.9410  135.1880 C   0  0  0  0  0  2  0  0  0  0  0  0
  185.2760  175.2830  136.5110 C   0  0  0  0  0  0  0  0  0  0  0  0
  184.4110  173.1720  137.5430 C   0  0  0  0  0  2  0  0  0  0  0  0
  185.4740  173.8000  136.6340 C   0  0  1  0  0  3  0  0  0  0  0  0
  183.9990  172.0250  136.7370 C   0  0  0  0  0  0  0  0  0  0  0  0
  185.4530  173.1350  135.3190 N   0  0  0  0  0  0  0  0  0  0  0  0
  184.6170  172.0210  135.4780 N   0  0  0  0  0  0  0  0  0  0  0  0
  183.1890  171.1400  137.1110 O   0  0  0  0  0  0  0  0  0  0  0  0
  187.6060  178.1900  136.4430 C   0  0  0  0  0  2  0  0  0  0  0  0
  188.3740  177.0830  135.7320 C   0  0  1  0  0  3  0  0  0  0  0  0
  189.6650  177.6460  135.1480 C   0  0  0  0  0  2  0  0  0  0  0  0
  189.7210  176.7650  136.3780 C   0  0  1  0  0  0  0  0  0  0  0  0
  190.1100  177.4910  137.6610 C   0  0  0  0  0  1  0  0  0  0  0  0
  189.2360  174.2540  136.6540 C   0  0  0  0  0  2  0  0  0  0  0  0
  190.8230  174.9930  134.9790 O   0  0  0  0  0  1  0  0  0  0  0  0
  190.5680  174.4620  137.3640 C   0  0  0  0  0  2  0  0  0  0  0  0
  190.1920  175.3240  136.1780 C   0  0  0  0  0  0  0  0  0  0  0  0
  184.4450  178.5930  139.6260 C   0  0  1  0  0  0  0  0  0  0  0  0
  182.7640  180.2850  138.5030 N   0  0  0  0  0  0  0  0  0  0  0  0
  183.5020  179.5430  138.9960 C   0  0  0  0  0  0  0  0  0  0  0  0
  182.3820  177.5470  139.8780 C   0  0  0  0  0  1  0  0  0  0  0  0
  183.7780  177.3750  139.9360 O   0  0  0  0  0  0  0  0  0  0  0  0
  184.8930  179.2480  140.9390 C   0  0  0  0  0  2  0  0  0  0  0  0
  184.3080  178.5790  142.0920 N   0  0  0  0  0  2  0  0  0  0  0  0
  184.9240  179.1530  143.2760 C   0  0  0  0  0  2  0  0  0  0  0  0
  186.4820  178.4950  146.3340 N   0  0  0  0  0  2  0  0  0  0  0  0
  187.3880  177.0800  143.1120 C   0  0  0  0  0  3  0  0  0  0  0  0
  186.6980  177.6660  144.1720 C   0  0  0  0  0  0  0  0  0  0  0  0
  188.7130  176.7920  143.2710 N   0  0  0  0  0  0  0  0  0  0  0  0
  184.1850  179.0010  146.2200 O   0  0  0  0  0  0  0  0  0  0  0  0
  189.3750  177.0540  144.4390 C   0  0  0  0  0  3  0  0  0  0  0  0
  187.3450  177.9330  145.3570 C   0  0  0  0  0  0  0  0  0  0  0  0
  188.6980  177.6320  145.5250 C   0  0  0  0  0  0  0  0  0  0  0  0
  185.2250  178.5600  145.6620 C   0  0  0  0  0  0  0  0  0  0  0  0
  185.2560  178.0400  144.2560 C   0  0  1  0  0  3  0  0  0  0  0  0
  189.4180  177.8930  146.8090 C   0  0  0  0  0  2  0  0  0  0  0  0
  189.5650  175.6370  147.7120 O   0  0  0  0  0  1  0  0  0  0  0  0
  192.2940  175.7310  147.3690 O   0  0  0  0  0  0  0  0  0  0  0  0
  191.6080  176.7380  147.0540 C   0  0  0  0  0  3  0  0  0  0  0  0
  190.1910  176.7270  147.2090 N   0  0  0  0  0  0  0  0  0  0  0  0
  1  2  1  1  0  0  0
  1 24  1  0  0  0  0
  3  7  1  0  0  0  0
  3  6  1  0  0  0  0
  5  4  1  0  0  0  0
  5  1  1  1  0  0  0
  6 15  1  1  0  0  0
  6  5  1  0  0  0  0
  7  8  1  0  0  0  0
  8  4  2  0  0  0  0
 10  8  1  6  0  0  0
 10  9  1  0  0  0  0
 11 14  2  0  0  0  0
 11  9  1  0  0  0  0
 12 13  2  0  0  0  0
 12 10  1  0  0  0  0
 13 11  1  0  0  0  0
 16 18  1  0  0  0  0
 16 15  1  1  0  0  0
 17 16  1  0  0  0  0
 17 18  1  0  0  0  0
 18 19  1  1  0  0  0
 20 22  1  0  0  0  0
 21 23  1  0  0  0  0
 23 18  1  0  0  0  0
 23 20  1  0  0  0  0
 23 22  1  0  0  0  0
 24 26  1  6  0  0  0
 24 28  1  0  0  0  0
 24 29  1  0  0  0  0
 25 26  3  0  0  0  0
 27 28  1  0  0  0  0
 29 30  1  0  0  0  0
 30 31  1  0  0  0  0
 33 35  2  0  0  0  0
 33 34  1  0  0  0  0
 34 41  1  0  0  0  0
 34 38  2  0  0  0  0
 35 37  1  0  0  0  0
 37 39  2  0  0  0  0
 38 39  1  0  0  0  0
 38 32  1  0  0  0  0
 39 42  1  0  0  0  0
 40 36  2  0  0  0  0
 40 32  1  0  0  0  0
 41 31  1  6  0  0  0
 41 40  1  0  0  0  0
 42 46  1  0  0  0  0
 45 46  1  0  0  0  0
 45 44  2  0  0  0  0
 46 43  1  0  0  0  0
M  END
>  <MODEL>
6

>  <REMARK>
 VINA RESULT:      -6.6      3.545      8.752
  Name = 
  14 active torsions:
  status: ('A' for Active; 'I' for Inactive)
    1  A    between atoms: C_1  and  C_43
    2  A    between atoms: C_6  and  N_38
    3  A    between atoms: C_6  and  C_46
    4  A    between atoms: C_12  and  C_42
    5  A    between atoms: C_13  and  C_32
    6  A    between atoms: C_13  and  N_39
    7  A    between atoms: C_17  and  C_26
    8  A    between atoms: C_21  and  N_38
    9  A    between atoms: C_21  and  C_44
   10  A    between atoms: C_23  and  C_34
   11  A    between atoms: C_26  and  C_46
   12  A    between atoms: O_29  and  C_46
   13  A    between atoms: C_35  and  C_43
   14  A    between atoms: C_36  and  C_46
                            x       y       z     vdW  Elec       q    Type
                         _______ _______ _______ _____ _____    ______ ____

>  <TORSDO>
F 14

$$$$
=
 OpenBabel11062413223D

 46 51  0  0  1  0  0  0  0  0999 V2000
  186.0720  173.9570  136.3590 C   0  0  1  0  0  3  0  0  0  0  0  0
  186.1040  173.0550  137.5940 C   0  0  0  0  0  1  0  0  0  0  0  0
  182.5610  174.8710  134.7690 C   0  0  0  0  0  2  0  0  0  0  0  0
  183.8200  174.6830  137.3600 C   0  0  0  0  0  3  0  0  0  0  0  0
  184.7290  174.6880  136.1590 C   0  0  2  0  0  3  0  0  0  0  0  0
  183.9770  174.2590  134.8800 C   0  0  1  0  0  3  0  0  0  0  0  0
  182.1910  175.8120  135.9250 C   0  0  0  0  0  2  0  0  0  0  0  0
  182.6010  175.2190  137.2500 C   0  0  0  0  0  0  0  0  0  0  0  0
  182.0890  176.0460  139.5570 C   0  0  0  0  0  2  0  0  0  0  0  0
  181.6510  175.1300  138.4090 C   0  0  1  0  0  3  0  0  0  0  0  0
  180.8260  176.7050  139.8850 C   0  0  0  0  0  0  0  0  0  0  0  0
  180.2710  175.4640  138.0120 N   0  0  0  0  0  0  0  0  0  0  0  0
  179.8030  176.3460  138.9950 N   0  0  0  0  0  0  0  0  0  0  0  0
  180.6590  177.5000  140.8430 O   0  0  0  0  0  0  0  0  0  0  0  0
  183.8660  172.7440  134.7690 C   0  0  0  0  0  2  0  0  0  0  0  0
  182.4050  172.3210  134.8360 C   0  0  1  0  0  3  0  0  0  0  0  0
  182.2990  170.8090  134.6680 C   0  0  0  0  0  2  0  0  0  0  0  0
  182.0830  171.4290  136.0320 C   0  0  1  0  0  0  0  0  0  0  0  0
  183.1840  171.1330  137.0450 C   0  0  0  0  0  1  0  0  0  0  0  0
  179.7100  170.4380  136.0560 C   0  0  0  0  0  2  0  0  0  0  0  0
  180.4180  171.8990  137.8550 O   0  0  0  0  0  1  0  0  0  0  0  0
  179.5170  171.8690  135.5690 C   0  0  0  0  0  2  0  0  0  0  0  0
  180.6390  171.5330  136.5270 C   0  0  0  0  0  0  0  0  0  0  0  0
  187.3170  174.8770  136.2110 C   0  0  1  0  0  0  0  0  0  0  0  0
  189.4480  173.6930  137.2170 N   0  0  0  0  0  0  0  0  0  0  0  0
  188.5130  174.2120  136.7750 C   0  0  0  0  0  0  0  0  0  0  0  0
  187.0890  176.5430  134.6030 C   0  0  0  0  0  1  0  0  0  0  0  0
  187.5530  175.2380  134.8550 O   0  0  0  0  0  0  0  0  0  0  0  0
  187.1220  176.1600  137.0280 C   0  0  0  0  0  2  0  0  0  0  0  0
  188.2130  176.3620  137.9690 N   0  0  0  0  0  2  0  0  0  0  0  0
  188.7140  177.7090  137.7610 C   0  0  0  0  0  2  0  0  0  0  0  0
  190.5930  176.3790  140.3900 N   0  0  0  0  0  2  0  0  0  0  0  0
  187.8280  178.7170  140.6930 C   0  0  0  0  0  3  0  0  0  0  0  0
  188.9080  177.9730  140.2210 C   0  0  0  0  0  0  0  0  0  0  0  0
  187.3510  178.4590  141.9450 N   0  0  0  0  0  0  0  0  0  0  0  0
  191.5510  176.7470  138.2710 O   0  0  0  0  0  0  0  0  0  0  0  0
  187.9080  177.5020  142.7490 C   0  0  0  0  0  3  0  0  0  0  0  0
  189.4850  177.0090  141.0160 C   0  0  0  0  0  0  0  0  0  0  0  0
  189.0050  176.7480  142.3010 C   0  0  0  0  0  0  0  0  0  0  0  0
  190.6680  177.0310  139.1230 C   0  0  0  0  0  0  0  0  0  0  0  0
  189.6250  178.0880  138.9170 C   0  0  1  0  0  3  0  0  0  0  0  0
  189.6270  175.7210  143.1900 C   0  0  0  0  0  2  0  0  0  0  0  0
  192.0060  176.2160  143.3370 O   0  0  0  0  0  1  0  0  0  0  0  0
  191.5560  177.4130  145.7750 O   0  0  0  0  0  0  0  0  0  0  0  0
  190.5830  176.9020  145.1610 C   0  0  0  0  0  3  0  0  0  0  0  0
  190.7730  176.2790  143.8920 N   0  0  0  0  0  0  0  0  0  0  0  0
  1  2  1  1  0  0  0
  3  6  1  0  0  0  0
  3  7  1  0  0  0  0
  5  1  1  1  0  0  0
  5  4  1  0  0  0  0
  6 15  1  1  0  0  0
  6  5  1  0  0  0  0
  7  8  1  0  0  0  0
  8  4  2  0  0  0  0
  9 11  1  0  0  0  0
 10  8  1  6  0  0  0
 10  9  1  0  0  0  0
 11 14  2  0  0  0  0
 12 10  1  0  0  0  0
 12 13  2  0  0  0  0
 13 11  1  0  0  0  0
 16 15  1  1  0  0  0
 16 18  1  0  0  0  0
 17 16  1  0  0  0  0
 17 18  1  0  0  0  0
 18 23  1  0  0  0  0
 18 19  1  1  0  0  0
 20 23  1  0  0  0  0
 22 20  1  0  0  0  0
 22 23  1  0  0  0  0
 23 21  1  0  0  0  0
 24  1  1  0  0  0  0
 24 26  1  1  0  0  0
 24 29  1  0  0  0  0
 26 25  3  0  0  0  0
 27 28  1  0  0  0  0
 28 24  1  0  0  0  0
 29 30  1  0  0  0  0
 31 30  1  0  0  0  0
 32 38  1  0  0  0  0
 33 35  1  0  0  0  0
 34 33  2  0  0  0  0
 34 38  1  0  0  0  0
 35 37  2  0  0  0  0
 36 40  2  0  0  0  0
 38 39  2  0  0  0  0
 39 37  1  0  0  0  0
 39 42  1  0  0  0  0
 40 32  1  0  0  0  0
 41 31  1  6  0  0  0
 41 40  1  0  0  0  0
 41 34  1  0  0  0  0
 42 46  1  0  0  0  0
 43 46  1  0  0  0  0
 45 44  2  0  0  0  0
 46 45  1  0  0  0  0
M  END
>  <MODEL>
7

>  <REMARK>
 VINA RESULT:      -6.4      3.352     10.307
  Name = 
  14 active torsions:
  status: ('A' for Active; 'I' for Inactive)
    1  A    between atoms: C_1  and  C_43
    2  A    between atoms: C_6  and  N_38
    3  A    between atoms: C_6  and  C_46
    4  A    between atoms: C_12  and  C_42
    5  A    between atoms: C_13  and  C_32
    6  A    between atoms: C_13  and  N_39
    7  A    between atoms: C_17  and  C_26
    8  A    between atoms: C_21  and  N_38
    9  A    between atoms: C_21  and  C_44
   10  A    between atoms: C_23  and  C_34
   11  A    between atoms: C_26  and  C_46
   12  A    between atoms: O_29  and  C_46
   13  A    between atoms: C_35  and  C_43
   14  A    between atoms: C_36  and  C_46
                            x       y       z     vdW  Elec       q    Type
                         _______ _______ _______ _____ _____    ______ ____

>  <TORSDO>
F 14

$$$$
=
 OpenBabel11062413223D

 46 51  0  0  1  0  0  0  0  0999 V2000
  186.1980  175.0660  137.1550 C   0  0  1  0  0  3  0  0  0  0  0  0
  186.4500  173.5720  137.3670 C   0  0  0  0  0  1  0  0  0  0  0  0
  188.9680  177.8850  136.8740 C   0  0  0  0  0  2  0  0  0  0  0  0
  188.6970  175.0280  136.5560 C   0  0  0  0  0  3  0  0  0  0  0  0
  187.4230  175.8310  136.6160 C   0  0  2  0  0  3  0  0  0  0  0  0
  187.6500  177.1970  137.3020 C   0  0  1  0  0  3  0  0  0  0  0  0
  189.7750  177.1000  135.8300 C   0  0  0  0  0  2  0  0  0  0  0  0
  189.8260  175.6350  136.1820 C   0  0  0  0  0  0  0  0  0  0  0  0
  192.3100  175.7820  135.9040 C   0  0  0  0  0  2  0  0  0  0  0  0
  191.1180  174.8700  136.2150 C   0  0  1  0  0  3  0  0  0  0  0  0
  193.2360  175.4040  136.9690 C   0  0  0  0  0  0  0  0  0  0  0  0
  191.3300  174.2110  137.5170 N   0  0  0  0  0  0  0  0  0  0  0  0
  192.6560  174.4970  137.8680 N   0  0  0  0  0  0  0  0  0  0  0  0
  194.4130  175.8290  137.0810 O   0  0  0  0  0  0  0  0  0  0  0  0
  187.6270  177.0790  138.8200 C   0  0  0  0  0  2  0  0  0  0  0  0
  189.0470  177.1170  139.3670 C   0  0  1  0  0  3  0  0  0  0  0  0
  189.4270  178.5530  139.7130 C   0  0  0  0  0  2  0  0  0  0  0  0
  189.1260  177.5690  140.8240 C   0  0  1  0  0  0  0  0  0  0  0  0
  187.8310  177.8420  141.5800 C   0  0  0  0  0  1  0  0  0  0  0  0
  190.9760  177.9610  142.5680 C   0  0  0  0  0  2  0  0  0  0  0  0
  190.2400  175.7020  142.0850 O   0  0  0  0  0  1  0  0  0  0  0  0
  191.7230  177.5060  141.3190 C   0  0  0  0  0  2  0  0  0  0  0  0
  190.3220  177.0060  141.5950 C   0  0  0  0  0  0  0  0  0  0  0  0
  184.8750  175.3880  136.4040 C   0  0  1  0  0  0  0  0  0  0  0  0
  185.1740  177.5450  134.9170 N   0  0  0  0  0  0  0  0  0  0  0  0
  185.0430  176.5980  135.5700 C   0  0  0  0  0  0  0  0  0  0  0  0
  183.1220  174.5030  135.1550 C   0  0  0  0  0  1  0  0  0  0  0  0
  184.4420  174.2970  135.6000 O   0  0  0  0  0  0  0  0  0  0  0  0
  183.7660  175.7180  137.4110 C   0  0  0  0  0  2  0  0  0  0  0  0
  184.0770  176.9230  138.1670 N   0  0  0  0  0  2  0  0  0  0  0  0
  182.9720  177.1500  139.0820 C   0  0  0  0  0  2  0  0  0  0  0  0
  184.8730  179.3790  140.9870 N   0  0  0  0  0  2  0  0  0  0  0  0
  181.4390  178.3840  141.6360 C   0  0  0  0  0  3  0  0  0  0  0  0
  182.6610  178.6610  141.0260 C   0  0  0  0  0  0  0  0  0  0  0  0
  181.3240  178.5580  142.9850 N   0  0  0  0  0  0  0  0  0  0  0  0
  185.2020  179.1720  138.6650 O   0  0  0  0  0  0  0  0  0  0  0  0
  182.3690  179.0030  143.7480 C   0  0  0  0  0  3  0  0  0  0  0  0
  183.7230  179.1150  141.7760 C   0  0  0  0  0  0  0  0  0  0  0  0
  183.6060  179.3010  143.1550 C   0  0  0  0  0  0  0  0  0  0  0  0
  184.4460  179.0530  139.6650 C   0  0  0  0  0  0  0  0  0  0  0  0
  183.0240  178.5840  139.5810 C   0  0  1  0  0  3  0  0  0  0  0  0
  184.7370  179.8120  143.9870 C   0  0  0  0  0  2  0  0  0  0  0  0
  184.3310  178.9010  146.2070 O   0  0  0  0  0  1  0  0  0  0  0  0
  186.3680  177.0980  145.7870 O   0  0  0  0  0  0  0  0  0  0  0  0
  186.1000  177.9320  144.8830 C   0  0  0  0  0  3  0  0  0  0  0  0
  185.0470  178.8780  145.0590 N   0  0  0  0  0  0  0  0  0  0  0  0
  1  2  1  6  0  0  0
  3  6  1  0  0  0  0
  4  5  1  0  0  0  0
  5  1  1  1  0  0  0
  5  6  1  0  0  0  0
  6 15  1  1  0  0  0
  7  8  1  0  0  0  0
  7  3  1  0  0  0  0
  8  4  2  0  0  0  0
  9 10  1  0  0  0  0
  9 11  1  0  0  0  0
 10  8  1  1  0  0  0
 10 12  1  0  0  0  0
 11 14  2  0  0  0  0
 11 13  1  0  0  0  0
 12 13  2  0  0  0  0
 16 15  1  6  0  0  0
 16 17  1  0  0  0  0
 16 18  1  0  0  0  0
 17 18  1  0  0  0  0
 18 19  1  1  0  0  0
 18 23  1  0  0  0  0
 22 23  1  0  0  0  0
 22 20  1  0  0  0  0
 23 21  1  0  0  0  0
 23 20  1  0  0  0  0
 24 26  1  6  0  0  0
 24  1  1  0  0  0  0
 24 29  1  0  0  0  0
 25 26  3  0  0  0  0
 27 28  1  0  0  0  0
 28 24  1  0  0  0  0
 29 30  1  0  0  0  0
 30 31  1  0  0  0  0
 32 38  1  0  0  0  0
 33 35  1  0  0  0  0
 34 33  2  0  0  0  0
 34 38  1  0  0  0  0
 35 37  2  0  0  0  0
 36 40  2  0  0  0  0
 38 39  2  0  0  0  0
 39 37  1  0  0  0  0
 39 42  1  0  0  0  0
 40 32  1  0  0  0  0
 41 31  1  1  0  0  0
 41 40  1  0  0  0  0
 41 34  1  0  0  0  0
 42 46  1  0  0  0  0
 45 46  1  0  0  0  0
 45 44  2  0  0  0  0
 46 43  1  0  0  0  0
M  END
>  <MODEL>
8

>  <REMARK>
 VINA RESULT:      -6.3      2.803      4.749
  Name = 
  14 active torsions:
  status: ('A' for Active; 'I' for Inactive)
    1  A    between atoms: C_1  and  C_43
    2  A    between atoms: C_6  and  N_38
    3  A    between atoms: C_6  and  C_46
    4  A    between atoms: C_12  and  C_42
    5  A    between atoms: C_13  and  C_32
    6  A    between atoms: C_13  and  N_39
    7  A    between atoms: C_17  and  C_26
    8  A    between atoms: C_21  and  N_38
    9  A    between atoms: C_21  and  C_44
   10  A    between atoms: C_23  and  C_34
   11  A    between atoms: C_26  and  C_46
   12  A    between atoms: O_29  and  C_46
   13  A    between atoms: C_35  and  C_43
   14  A    between atoms: C_36  and  C_46
                            x       y       z     vdW  Elec       q    Type
                         _______ _______ _______ _____ _____    ______ ____

>  <TORSDO>
F 14

$$$$
=
 OpenBabel11062413223D

 46 51  0  0  1  0  0  0  0  0999 V2000
  189.6430  177.9440  139.4640 C   0  0  1  0  0  3  0  0  0  0  0  0
  189.0550  179.2920  139.0420 C   0  0  0  0  0  1  0  0  0  0  0  0
  189.1120  176.0180  142.8850 C   0  0  0  0  0  2  0  0  0  0  0  0
  187.9540  178.1950  141.3830 C   0  0  0  0  0  3  0  0  0  0  0  0
  188.9020  177.2860  140.6450 C   0  0  2  0  0  3  0  0  0  0  0  0
  189.8360  176.5350  141.6200 C   0  0  1  0  0  3  0  0  0  0  0  0
  187.6060  176.3170  142.9130 C   0  0  0  0  0  2  0  0  0  0  0  0
  187.3330  177.7340  142.4730 C   0  0  0  0  0  0  0  0  0  0  0  0
  185.0490  178.7360  142.6900 C   0  0  0  0  0  2  0  0  0  0  0  0
  186.4640  178.6610  143.2730 C   0  0  1  0  0  3  0  0  0  0  0  0
  184.2410  178.5780  143.8970 C   0  0  0  0  0  0  0  0  0  0  0  0
  186.3920  178.2570  144.6890 N   0  0  0  0  0  0  0  0  0  0  0  0
  185.0330  178.3180  145.0250 N   0  0  0  0  0  0  0  0  0  0  0  0
  182.9880  178.6610  143.9380 O   0  0  0  0  0  0  0  0  0  0  0  0
  191.0190  177.3940  142.0470 C   0  0  0  0  0  2  0  0  0  0  0  0
  191.4430  177.0310  143.4640 C   0  0  1  0  0  3  0  0  0  0  0  0
  192.4220  178.0740  143.9900 C   0  0  0  0  0  2  0  0  0  0  0  0
  191.0010  178.0490  144.5110 C   0  0  1  0  0  0  0  0  0  0  0  0
  190.1430  179.2310  144.0720 C   0  0  0  0  0  1  0  0  0  0  0  0
  189.4650  176.7550  146.1190 C   0  0  0  0  0  2  0  0  0  0  0  0
  191.8520  176.8180  146.5290 O   0  0  0  0  0  1  0  0  0  0  0  0
  189.7570  178.0630  146.8460 C   0  0  0  0  0  2  0  0  0  0  0  0
  190.7830  177.4640  145.9080 C   0  0  0  0  0  0  0  0  0  0  0  0
  189.9270  176.9750  138.2820 C   0  0  1  0  0  0  0  0  0  0  0  0
  192.5230  176.6110  138.0040 N   0  0  0  0  0  0  0  0  0  0  0  0
  191.3840  176.7710  138.1260 C   0  0  0  0  0  0  0  0  0  0  0  0
  189.8240  174.7550  137.5900 C   0  0  0  0  0  1  0  0  0  0  0  0
  189.2740  175.7220  138.4540 O   0  0  0  0  0  0  0  0  0  0  0  0
  189.4430  177.5970  136.9650 C   0  0  0  0  0  2  0  0  0  0  0  0
  188.3850  176.8010  136.3600 N   0  0  0  0  0  2  0  0  0  0  0  0
  187.1560  177.5670  136.4750 C   0  0  0  0  0  2  0  0  0  0  0  0
  183.9100  176.3760  136.9810 N   0  0  0  0  0  2  0  0  0  0  0  0
  185.5550  179.0030  138.8770 C   0  0  0  0  0  3  0  0  0  0  0  0
  185.2900  177.8910  138.0800 C   0  0  0  0  0  0  0  0  0  0  0  0
  184.5060  179.7520  139.3270 N   0  0  0  0  0  0  0  0  0  0  0  0
  185.6140  174.9650  136.1760 O   0  0  0  0  0  0  0  0  0  0  0  0
  183.2100  179.4360  139.0260 C   0  0  0  0  0  3  0  0  0  0  0  0
  183.9930  177.5540  137.7690 C   0  0  0  0  0  0  0  0  0  0  0  0
  182.9170  178.3130  138.2350 C   0  0  0  0  0  0  0  0  0  0  0  0
  185.2750  175.9920  136.8200 C   0  0  0  0  0  0  0  0  0  0  0  0
  186.2500  176.9060  137.5010 C   0  0  1  0  0  3  0  0  0  0  0  0
  181.4990  177.9560  137.9280 C   0  0  0  0  0  2  0  0  0  0  0  0
  180.4650  177.7080  140.1180 O   0  0  0  0  0  1  0  0  0  0  0  0
  180.3760  174.9860  139.7130 O   0  0  0  0  0  0  0  0  0  0  0  0
  180.8810  175.7160  138.8200 C   0  0  0  0  0  3  0  0  0  0  0  0
  180.9380  177.1320  138.9880 N   0  0  0  0  0  0  0  0  0  0  0  0
  1  2  1  6  0  0  0
  3  7  1  0  0  0  0
  4  8  2  0  0  0  0
  5  1  1  6  0  0  0
  5  4  1  0  0  0  0
  5  6  1  0  0  0  0
  6 15  1  1  0  0  0
  6  3  1  0  0  0  0
  8  7  1  0  0  0  0
  9 10  1  0  0  0  0
  9 11  1  0  0  0  0
 10  8  1  6  0  0  0
 10 12  1  0  0  0  0
 11 14  2  0  0  0  0
 11 13  1  0  0  0  0
 12 13  2  0  0  0  0
 16 15  1  6  0  0  0
 16 17  1  0  0  0  0
 16 18  1  0  0  0  0
 17 18  1  0  0  0  0
 18 19  1  6  0  0  0
 18 23  1  0  0  0  0
 20 22  1  0  0  0  0
 23 20  1  0  0  0  0
 23 21  1  0  0  0  0
 23 22  1  0  0  0  0
 24 29  1  6  0  0  0
 24 28  1  0  0  0  0
 24  1  1  0  0  0  0
 25 26  3  0  0  0  0
 26 24  1  0  0  0  0
 27 28  1  0  0  0  0
 30 31  1  0  0  0  0
 30 29  1  0  0  0  0
 32 38  1  0  0  0  0
 33 35  1  0  0  0  0
 34 33  2  0  0  0  0
 36 40  2  0  0  0  0
 37 35  2  0  0  0  0
 38 34  1  0  0  0  0
 38 39  2  0  0  0  0
 39 37  1  0  0  0  0
 40 32  1  0  0  0  0
 40 41  1  0  0  0  0
 41 31  1  6  0  0  0
 41 34  1  0  0  0  0
 42 39  1  0  0  0  0
 42 46  1  0  0  0  0
 45 46  1  0  0  0  0
 45 44  2  0  0  0  0
 46 43  1  0  0  0  0
M  END
>  <MODEL>
9

>  <REMARK>
 VINA RESULT:      -6.2      2.375      5.606
  Name = 
  14 active torsions:
  status: ('A' for Active; 'I' for Inactive)
    1  A    between atoms: C_1  and  C_43
    2  A    between atoms: C_6  and  N_38
    3  A    between atoms: C_6  and  C_46
    4  A    between atoms: C_12  and  C_42
    5  A    between atoms: C_13  and  C_32
    6  A    between atoms: C_13  and  N_39
    7  A    between atoms: C_17  and  C_26
    8  A    between atoms: C_21  and  N_38
    9  A    between atoms: C_21  and  C_44
   10  A    between atoms: C_23  and  C_34
   11  A    between atoms: C_26  and  C_46
   12  A    between atoms: O_29  and  C_46
   13  A    between atoms: C_35  and  C_43
   14  A    between atoms: C_36  and  C_46
                            x       y       z     vdW  Elec       q    Type
                         _______ _______ _______ _____ _____    ______ ____

>  <TORSDO>
F 14

$$$$
