=
 OpenBabel11062413523D

 25 27  0  0  1  0  0  0  0  0999 V2000
  186.9390  179.0350  141.6900 C   0  0  0  0  0  3  0  0  0  0  0  0
  188.2490  178.8480  141.2290 O   0  0  0  0  0  0  0  0  0  0  0  0
  187.2700  177.2070  143.3070 C   0  0  0  0  0  2  0  0  0  0  0  0
  186.4140  178.2610  142.6500 C   0  0  0  0  0  0  0  0  0  0  0  0
  188.3780  176.7030  142.3870 C   0  0  2  0  0  3  0  0  0  0  0  0
  189.3020  175.8020  143.1860 C   0  0  0  0  0  1  0  0  0  0  0  0
  189.1430  177.9030  141.8190 C   0  0  1  0  0  3  0  0  0  0  0  0
  191.5820  177.5290  141.1460 C   0  0  0  0  0  0  0  0  0  0  0  0
  190.4370  176.2230  137.3180 N   0  0  0  0  0  1  0  0  0  0  0  0
  192.0690  177.9590  142.4890 C   0  0  0  0  0  1  0  0  0  0  0  0
  192.1390  176.7550  138.9700 C   0  0  0  0  0  3  0  0  0  0  0  0
  190.2060  177.5000  140.8280 C   0  0  0  0  0  0  0  0  0  0  0  0
  189.8130  177.1090  139.5360 C   0  0  0  0  0  0  0  0  0  0  0  0
  190.7940  176.7170  138.6060 C   0  0  0  0  0  0  0  0  0  0  0  0
  192.4990  177.1610  140.2130 N   0  0  0  0  0  0  0  0  0  0  0  0
  188.4490  177.0850  139.2150 O   0  0  0  0  0  0  0  0  0  0  0  0
  187.8510  177.9560  138.3010 C   0  0  0  0  0  0  0  0  0  0  0  0
  186.6990  177.7000  137.8640 O   0  0  0  0  0  0  0  0  0  0  0  0
  188.4910  179.1250  137.9020 O   0  0  0  0  0  1  0  0  0  0  0  0
  183.4680  178.8910  144.9490 C   0  0  0  0  0  3  0  0  0  0  0  0
  183.9480  178.5120  142.2240 C   0  0  0  0  0  3  0  0  0  0  0  0
  184.7720  178.6790  144.4920 C   0  0  0  0  0  3  0  0  0  0  0  0
  185.0280  178.4880  143.1240 C   0  0  0  0  0  0  0  0  0  0  0  0
  182.4050  178.9130  144.0440 C   0  0  0  0  0  3  0  0  0  0  0  0
  182.6450  178.7240  142.6810 C   0  0  0  0  0  3  0  0  0  0  0  0
  1  4  2  0  0  0  0
  2  1  1  0  0  0  0
  2  7  1  0  0  0  0
  4 23  1  0  0  0  0
  4  3  1  0  0  0  0
  5  6  1  1  0  0  0
  5  3  1  0  0  0  0
  7 12  1  6  0  0  0
  7  5  1  0  0  0  0
  8 10  1  0  0  0  0
  9 14  1  0  0  0  0
 11 15  1  0  0  0  0
 12  8  1  0  0  0  0
 13 12  2  0  0  0  0
 14 11  2  0  0  0  0
 14 13  1  0  0  0  0
 15  8  2  0  0  0  0
 16 13  1  0  0  0  0
 17 16  1  0  0  0  0
 18 17  2  0  0  0  0
 19 17  1  0  0  0  0
 21 25  2  0  0  0  0
 21 23  1  0  0  0  0
 22 20  1  0  0  0  0
 23 22  2  0  0  0  0
 24 20  2  0  0  0  0
 25 24  1  0  0  0  0
M  END
>  <MODEL>
1

>  <REMARK>
 VINA RESULT:      -7.9      0.000      0.000
  Name = 
  4 active torsions:
  status: ('A' for Active; 'I' for Inactive)
    1  A    between atoms: C_8  and  O_21
    2  A    between atoms: C_11  and  C_23
    3  A    between atoms: C_12  and  O_21
    4  A    between atoms: C_15  and  C_16
                            x       y       z     vdW  Elec       q    Type
                         _______ _______ _______ _____ _____    ______ ____

>  <TORSDO>
F 4

$$$$
=
 OpenBabel11062413523D

 25 27  0  0  1  0  0  0  0  0999 V2000
  189.4260  176.2240  142.8880 C   0  0  0  0  0  3  0  0  0  0  0  0
  190.1170  175.9150  141.7100 O   0  0  0  0  0  0  0  0  0  0  0  0
  188.1460  177.9350  141.6630 C   0  0  0  0  0  2  0  0  0  0  0  0
  188.5050  177.1980  142.9290 C   0  0  0  0  0  0  0  0  0  0  0  0
  189.2960  177.9600  140.6600 C   0  0  2  0  0  3  0  0  0  0  0  0
  188.7880  178.5420  139.3530 C   0  0  0  0  0  1  0  0  0  0  0  0
  189.8150  176.5330  140.4580 C   0  0  1  0  0  3  0  0  0  0  0  0
  192.2430  177.0870  139.8720 C   0  0  0  0  0  0  0  0  0  0  0  0
  191.9560  174.9940  136.2380 N   0  0  0  0  0  1  0  0  0  0  0  0
  192.4320  177.8280  141.1520 C   0  0  0  0  0  1  0  0  0  0  0  0
  193.2000  176.3500  137.8260 C   0  0  0  0  0  3  0  0  0  0  0  0
  191.0130  176.4740  139.5430 C   0  0  0  0  0  0  0  0  0  0  0  0
  190.8910  175.8100  138.3090 C   0  0  0  0  0  0  0  0  0  0  0  0
  192.0050  175.7370  137.4530 C   0  0  0  0  0  0  0  0  0  0  0  0
  193.2890  177.0090  139.0090 N   0  0  0  0  0  0  0  0  0  0  0  0
  189.6710  175.2070  137.9770 O   0  0  0  0  0  0  0  0  0  0  0  0
  188.6960  175.8140  137.1820 C   0  0  0  0  0  0  0  0  0  0  0  0
  187.4880  175.4930  137.3280 O   0  0  0  0  0  1  0  0  0  0  0  0
  189.0340  176.8010  136.2620 O   0  0  0  0  0  0  0  0  0  0  0  0
  185.7440  178.1680  145.3360 C   0  0  0  0  0  3  0  0  0  0  0  0
  188.4290  177.4060  145.4340 C   0  0  0  0  0  3  0  0  0  0  0  0
  186.4330  177.8810  144.1540 C   0  0  0  0  0  3  0  0  0  0  0  0
  187.7820  177.4960  144.1890 C   0  0  0  0  0  0  0  0  0  0  0  0
  186.3980  178.0730  146.5670 C   0  0  0  0  0  3  0  0  0  0  0  0
  187.7400  177.6920  146.6160 C   0  0  0  0  0  3  0  0  0  0  0  0
  1  4  2  0  0  0  0
  2  1  1  0  0  0  0
  3  4  1  0  0  0  0
  4 23  1  0  0  0  0
  5  6  1  6  0  0  0
  5  3  1  0  0  0  0
  7 12  1  6  0  0  0
  7  5  1  0  0  0  0
  7  2  1  0  0  0  0
  8 10  1  0  0  0  0
  9 14  1  0  0  0  0
 11 15  1  0  0  0  0
 12  8  1  0  0  0  0
 13 12  2  0  0  0  0
 14 11  2  0  0  0  0
 14 13  1  0  0  0  0
 15  8  2  0  0  0  0
 16 13  1  0  0  0  0
 17 18  1  0  0  0  0
 17 16  1  0  0  0  0
 19 17  2  0  0  0  0
 20 24  1  0  0  0  0
 21 25  1  0  0  0  0
 22 23  1  0  0  0  0
 22 20  2  0  0  0  0
 23 21  2  0  0  0  0
 24 25  2  0  0  0  0
M  END
>  <MODEL>
2

>  <REMARK>
 VINA RESULT:      -7.8      2.090      3.087
  Name = 
  4 active torsions:
  status: ('A' for Active; 'I' for Inactive)
    1  A    between atoms: C_8  and  O_21
    2  A    between atoms: C_11  and  C_23
    3  A    between atoms: C_12  and  O_21
    4  A    between atoms: C_15  and  C_16
                            x       y       z     vdW  Elec       q    Type
                         _______ _______ _______ _____ _____    ______ ____

>  <TORSDO>
F 4

$$$$
=
 OpenBabel11062413523D

 25 27  0  0  1  0  0  0  0  0999 V2000
  189.5040  176.2860  141.9850 C   0  0  0  0  0  3  0  0  0  0  0  0
  189.5360  176.2280  143.3850 O   0  0  0  0  0  0  0  0  0  0  0  0
  191.0920  178.1680  142.0490 C   0  0  0  0  0  2  0  0  0  0  0  0
  190.1980  177.2100  141.3040 C   0  0  0  0  0  0  0  0  0  0  0  0
  190.6160  178.4160  143.4770 C   0  0  2  0  0  3  0  0  0  0  0  0
  191.6710  179.2250  144.2080 C   0  0  0  0  0  1  0  0  0  0  0  0
  190.3850  177.0680  144.1690 C   0  0  1  0  0  3  0  0  0  0  0  0
  190.5400  176.7950  146.7080 C   0  0  0  0  0  0  0  0  0  0  0  0
  186.7680  178.5710  147.2380 N   0  0  0  0  0  1  0  0  0  0  0  0
  191.8940  176.1760  146.6060 C   0  0  0  0  0  1  0  0  0  0  0  0
  188.7660  177.5040  148.1190 C   0  0  0  0  0  3  0  0  0  0  0  0
  189.8280  177.2180  145.5630 C   0  0  0  0  0  0  0  0  0  0  0  0
  188.5460  177.7710  145.7240 C   0  0  0  0  0  0  0  0  0  0  0  0
  188.0210  177.9290  147.0200 C   0  0  0  0  0  0  0  0  0  0  0  0
  189.9900  176.9480  147.9410 N   0  0  0  0  0  0  0  0  0  0  0  0
  187.8340  178.1860  144.5900 O   0  0  0  0  0  0  0  0  0  0  0  0
  186.6220  177.6220  144.1860 C   0  0  0  0  0  0  0  0  0  0  0  0
  186.5600  176.3870  143.9520 O   0  0  0  0  0  0  0  0  0  0  0  0
  185.4710  178.3970  144.0800 O   0  0  0  0  0  1  0  0  0  0  0  0
  190.9050  176.3730  137.6760 C   0  0  0  0  0  3  0  0  0  0  0  0
  189.3320  178.1570  139.1410 C   0  0  0  0  0  3  0  0  0  0  0  0
  190.9380  176.3500  139.0730 C   0  0  0  0  0  3  0  0  0  0  0  0
  190.1520  177.2400  139.8220 C   0  0  0  0  0  0  0  0  0  0  0  0
  190.0850  177.2880  137.0120 C   0  0  0  0  0  3  0  0  0  0  0  0
  189.2980  178.1800  137.7440 C   0  0  0  0  0  3  0  0  0  0  0  0
  1  2  1  0  0  0  0
  2  7  1  0  0  0  0
  3  5  1  0  0  0  0
  4  1  2  0  0  0  0
  4  3  1  0  0  0  0
  5  7  1  0  0  0  0
  5  6  1  1  0  0  0
  7 12  1  1  0  0  0
  8 15  1  0  0  0  0
 10  8  1  0  0  0  0
 12 13  1  0  0  0  0
 12  8  2  0  0  0  0
 13 14  2  0  0  0  0
 14  9  1  0  0  0  0
 14 11  1  0  0  0  0
 15 11  2  0  0  0  0
 16 13  1  0  0  0  0
 17 16  1  0  0  0  0
 18 17  2  0  0  0  0
 19 17  1  0  0  0  0
 20 22  1  0  0  0  0
 21 23  1  0  0  0  0
 22 23  2  0  0  0  0
 23  4  1  0  0  0  0
 24 20  2  0  0  0  0
 24 25  1  0  0  0  0
 25 21  2  0  0  0  0
M  END
>  <MODEL>
3

>  <REMARK>
 VINA RESULT:      -7.5      3.930      6.841
  Name = 
  4 active torsions:
  status: ('A' for Active; 'I' for Inactive)
    1  A    between atoms: C_8  and  O_21
    2  A    between atoms: C_11  and  C_23
    3  A    between atoms: C_12  and  O_21
    4  A    between atoms: C_15  and  C_16
                            x       y       z     vdW  Elec       q    Type
                         _______ _______ _______ _____ _____    ______ ____

>  <TORSDO>
F 4

$$$$
=
 OpenBabel11062413523D

 25 27  0  0  1  0  0  0  0  0999 V2000
  186.7350  177.2740  144.0520 C   0  0  0  0  0  3  0  0  0  0  0  0
  185.8230  177.4000  142.9960 O   0  0  0  0  0  0  0  0  0  0  0  0
  185.4280  178.9120  145.3470 C   0  0  0  0  0  2  0  0  0  0  0  0
  186.6130  177.9950  145.1760 C   0  0  0  0  0  0  0  0  0  0  0  0
  184.8840  179.4110  144.0120 C   0  0  2  0  0  3  0  0  0  0  0  0
  183.5880  180.1590  144.2640 C   0  0  0  0  0  1  0  0  0  0  0  0
  184.6520  178.2130  143.0850 C   0  0  1  0  0  3  0  0  0  0  0  0
  185.0960  179.0660  140.7140 C   0  0  0  0  0  0  0  0  0  0  0  0
  181.0090  178.8440  139.7560 N   0  0  0  0  0  1  0  0  0  0  0  0
  186.5630  179.1510  140.9680 C   0  0  0  0  0  1  0  0  0  0  0  0
  183.3090  179.3760  139.1790 C   0  0  0  0  0  3  0  0  0  0  0  0
  184.1940  178.6220  141.7080 C   0  0  0  0  0  0  0  0  0  0  0  0
  182.8190  178.5870  141.4130 C   0  0  0  0  0  0  0  0  0  0  0  0
  182.3800  178.9540  140.1280 C   0  0  0  0  0  0  0  0  0  0  0  0
  184.6290  179.4290  139.4910 N   0  0  0  0  0  0  0  0  0  0  0  0
  181.9220  178.1540  142.3990 O   0  0  0  0  0  0  0  0  0  0  0  0
  180.7100  178.7920  142.6800 C   0  0  0  0  0  0  0  0  0  0  0  0
  180.6960  180.0330  142.8850 O   0  0  0  0  0  1  0  0  0  0  0  0
  179.5140  178.0820  142.6920 O   0  0  0  0  0  0  0  0  0  0  0  0
  188.1560  178.0650  148.6370 C   0  0  0  0  0  3  0  0  0  0  0  0
  188.8720  177.3090  146.0450 C   0  0  0  0  0  3  0  0  0  0  0  0
  187.2420  178.2100  147.5890 C   0  0  0  0  0  3  0  0  0  0  0  0
  187.5880  177.8330  146.2810 C   0  0  0  0  0  0  0  0  0  0  0  0
  189.4270  177.5420  148.3890 C   0  0  0  0  0  3  0  0  0  0  0  0
  189.7850  177.1640  147.0930 C   0  0  0  0  0  3  0  0  0  0  0  0
  1  4  2  0  0  0  0
  2  7  1  0  0  0  0
  2  1  1  0  0  0  0
  4  3  1  0  0  0  0
  4 23  1  0  0  0  0
  5  6  1  1  0  0  0
  5  3  1  0  0  0  0
  7 12  1  6  0  0  0
  7  5  1  0  0  0  0
  8 10  1  0  0  0  0
  8 12  1  0  0  0  0
  9 14  1  0  0  0  0
 11 15  1  0  0  0  0
 11 14  2  0  0  0  0
 13 12  2  0  0  0  0
 13 16  1  0  0  0  0
 14 13  1  0  0  0  0
 15  8  2  0  0  0  0
 16 17  1  0  0  0  0
 17 19  2  0  0  0  0
 17 18  1  0  0  0  0
 21 23  2  0  0  0  0
 21 25  1  0  0  0  0
 22 20  2  0  0  0  0
 23 22  1  0  0  0  0
 24 20  1  0  0  0  0
 25 24  2  0  0  0  0
M  END
>  <MODEL>
4

>  <REMARK>
 VINA RESULT:      -7.4      4.420      6.887
  Name = 
  4 active torsions:
  status: ('A' for Active; 'I' for Inactive)
    1  A    between atoms: C_8  and  O_21
    2  A    between atoms: C_11  and  C_23
    3  A    between atoms: C_12  and  O_21
    4  A    between atoms: C_15  and  C_16
                            x       y       z     vdW  Elec       q    Type
                         _______ _______ _______ _____ _____    ______ ____

>  <TORSDO>
F 4

$$$$
=
 OpenBabel11062413523D

 25 27  0  0  1  0  0  0  0  0999 V2000
  189.9890  176.0140  141.8730 C   0  0  0  0  0  3  0  0  0  0  0  0
  189.6650  176.1490  143.2290 O   0  0  0  0  0  0  0  0  0  0  0  0
  191.3020  178.0930  142.0020 C   0  0  0  0  0  2  0  0  0  0  0  0
  190.7340  176.9270  141.2340 C   0  0  0  0  0  0  0  0  0  0  0  0
  190.4510  178.4600  143.2140 C   0  0  2  0  0  3  0  0  0  0  0  0
  191.1920  179.5020  144.0320 C   0  0  0  0  0  1  0  0  0  0  0  0
  190.1900  177.1980  144.0440 C   0  0  1  0  0  3  0  0  0  0  0  0
  187.8780  177.5430  145.0820 C   0  0  0  0  0  0  0  0  0  0  0  0
  189.5440  177.9540  148.9190 N   0  0  0  0  0  1  0  0  0  0  0  0
  187.2080  177.3860  143.7590 C   0  0  0  0  0  1  0  0  0  0  0  0
  187.6370  177.9310  147.4130 C   0  0  0  0  0  3  0  0  0  0  0  0
  189.2810  177.4530  145.2200 C   0  0  0  0  0  0  0  0  0  0  0  0
  189.8540  177.6340  146.4910 C   0  0  0  0  0  0  0  0  0  0  0  0
  189.0160  177.8590  147.5990 C   0  0  0  0  0  0  0  0  0  0  0  0
  187.1050  177.7800  146.1740 N   0  0  0  0  0  0  0  0  0  0  0  0
  191.2460  177.5520  146.6310 O   0  0  0  0  0  0  0  0  0  0  0  0
  191.9190  176.3950  147.0310 C   0  0  0  0  0  0  0  0  0  0  0  0
  192.0350  175.4350  146.2270 O   0  0  0  0  0  0  0  0  0  0  0  0
  192.5040  176.3070  148.2910 O   0  0  0  0  0  1  0  0  0  0  0  0
  190.3540  176.3800  137.5030 C   0  0  0  0  0  3  0  0  0  0  0  0
  192.4040  176.7770  139.3580 C   0  0  0  0  0  3  0  0  0  0  0  0
  190.0480  176.5500  138.8570 C   0  0  0  0  0  3  0  0  0  0  0  0
  191.0690  176.7520  139.8000 C   0  0  0  0  0  0  0  0  0  0  0  0
  191.6830  176.4100  137.0780 C   0  0  0  0  0  3  0  0  0  0  0  0
  192.7090  176.6080  138.0050 C   0  0  0  0  0  3  0  0  0  0  0  0
  1  2  1  0  0  0  0
  2  7  1  0  0  0  0
  3  5  1  0  0  0  0
  4  1  2  0  0  0  0
  4  3  1  0  0  0  0
  5  6  1  1  0  0  0
  5  7  1  0  0  0  0
  7 12  1  1  0  0  0
  8 12  2  0  0  0  0
  8 15  1  0  0  0  0
 10  8  1  0  0  0  0
 11 14  1  0  0  0  0
 12 13  1  0  0  0  0
 13 16  1  0  0  0  0
 13 14  2  0  0  0  0
 14  9  1  0  0  0  0
 15 11  2  0  0  0  0
 16 17  1  0  0  0  0
 17 19  1  0  0  0  0
 18 17  2  0  0  0  0
 20 22  1  0  0  0  0
 21 23  1  0  0  0  0
 22 23  2  0  0  0  0
 23  4  1  0  0  0  0
 24 20  2  0  0  0  0
 24 25  1  0  0  0  0
 25 21  2  0  0  0  0
M  END
>  <MODEL>
5

>  <REMARK>
 VINA RESULT:      -7.3      4.194      7.949
  Name = 
  4 active torsions:
  status: ('A' for Active; 'I' for Inactive)
    1  A    between atoms: C_8  and  O_21
    2  A    between atoms: C_11  and  C_23
    3  A    between atoms: C_12  and  O_21
    4  A    between atoms: C_15  and  C_16
                            x       y       z     vdW  Elec       q    Type
                         _______ _______ _______ _____ _____    ______ ____

>  <TORSDO>
F 4

$$$$
=
 OpenBabel11062413523D

 25 27  0  0  1  0  0  0  0  0999 V2000
  189.8460  176.0480  141.8250 C   0  0  0  0  0  3  0  0  0  0  0  0
  189.5390  176.1860  143.1850 O   0  0  0  0  0  0  0  0  0  0  0  0
  191.2550  178.0640  141.9610 C   0  0  0  0  0  2  0  0  0  0  0  0
  190.6280  176.9310  141.1880 C   0  0  0  0  0  0  0  0  0  0  0  0
  190.4300  178.4590  143.1820 C   0  0  2  0  0  3  0  0  0  0  0  0
  191.2250  179.4590  144.0020 C   0  0  0  0  0  1  0  0  0  0  0  0
  190.1180  177.2040  144.0040 C   0  0  1  0  0  3  0  0  0  0  0  0
  187.8330  177.6540  145.0620 C   0  0  0  0  0  0  0  0  0  0  0  0
  189.5420  177.9300  148.8920 N   0  0  0  0  0  1  0  0  0  0  0  0
  187.1480  177.5480  143.7420 C   0  0  0  0  0  1  0  0  0  0  0  0
  187.6270  178.0240  147.4000 C   0  0  0  0  0  3  0  0  0  0  0  0
  189.2310  177.4900  145.1890 C   0  0  0  0  0  0  0  0  0  0  0  0
  189.8200  177.6250  146.4590 C   0  0  0  0  0  0  0  0  0  0  0  0
  189.0020  177.8790  147.5750 C   0  0  0  0  0  0  0  0  0  0  0  0
  187.0810  177.9160  146.1620 N   0  0  0  0  0  0  0  0  0  0  0  0
  191.2070  177.4700  146.5880 O   0  0  0  0  0  0  0  0  0  0  0  0
  191.8290  176.2500  146.8640 C   0  0  0  0  0  0  0  0  0  0  0  0
  192.1210  175.9590  148.0530 O   0  0  0  0  0  1  0  0  0  0  0  0
  192.0910  175.3340  145.8510 O   0  0  0  0  0  0  0  0  0  0  0  0
  192.5860  176.5800  137.9620 C   0  0  0  0  0  3  0  0  0  0  0  0
  189.9200  176.5970  138.7970 C   0  0  0  0  0  3  0  0  0  0  0  0
  192.2780  176.7430  139.3160 C   0  0  0  0  0  3  0  0  0  0  0  0
  190.9430  176.7530  139.7500 C   0  0  0  0  0  0  0  0  0  0  0  0
  191.5610  176.4250  137.0260 C   0  0  0  0  0  3  0  0  0  0  0  0
  190.2280  176.4330  137.4440 C   0  0  0  0  0  3  0  0  0  0  0  0
  1  2  1  0  0  0  0
  2  7  1  0  0  0  0
  3  5  1  0  0  0  0
  4  1  2  0  0  0  0
  4  3  1  0  0  0  0
  5  6  1  1  0  0  0
  5  7  1  0  0  0  0
  7 12  1  1  0  0  0
  8 12  2  0  0  0  0
  8 15  1  0  0  0  0
 10  8  1  0  0  0  0
 11 14  1  0  0  0  0
 12 13  1  0  0  0  0
 13 16  1  0  0  0  0
 13 14  2  0  0  0  0
 14  9  1  0  0  0  0
 15 11  2  0  0  0  0
 16 17  1  0  0  0  0
 17 18  1  0  0  0  0
 19 17  2  0  0  0  0
 20 22  1  0  0  0  0
 21 23  1  0  0  0  0
 22 23  2  0  0  0  0
 23  4  1  0  0  0  0
 24 25  1  0  0  0  0
 24 20  2  0  0  0  0
 25 21  2  0  0  0  0
M  END
>  <MODEL>
6

>  <REMARK>
 VINA RESULT:      -7.1      4.140      7.852
  Name = 
  4 active torsions:
  status: ('A' for Active; 'I' for Inactive)
    1  A    between atoms: C_8  and  O_21
    2  A    between atoms: C_11  and  C_23
    3  A    between atoms: C_12  and  O_21
    4  A    between atoms: C_15  and  C_16
                            x       y       z     vdW  Elec       q    Type
                         _______ _______ _______ _____ _____    ______ ____

>  <TORSDO>
F 4

$$$$
=
 OpenBabel11062413523D

 25 27  0  0  1  0  0  0  0  0999 V2000
  188.3060  176.5900  142.8730 C   0  0  0  0  0  3  0  0  0  0  0  0
  189.1510  176.2210  141.8180 O   0  0  0  0  0  0  0  0  0  0  0  0
  187.2830  178.3010  141.4260 C   0  0  0  0  0  2  0  0  0  0  0  0
  187.4250  177.5940  142.7500 C   0  0  0  0  0  0  0  0  0  0  0  0
  188.5680  178.2560  140.6030 C   0  0  2  0  0  3  0  0  0  0  0  0
  188.2790  178.8110  139.2200 C   0  0  0  0  0  1  0  0  0  0  0  0
  189.0590  176.8070  140.5190 C   0  0  1  0  0  3  0  0  0  0  0  0
  190.4920  176.0030  138.5590 C   0  0  0  0  0  0  0  0  0  0  0  0
  193.9340  177.7540  140.2180 N   0  0  0  0  0  1  0  0  0  0  0  0
  189.3140  175.3740  137.8930 C   0  0  0  0  0  1  0  0  0  0  0  0
  192.8220  176.4600  138.4870 C   0  0  0  0  0  3  0  0  0  0  0  0
  190.3750  176.6800  139.7930 C   0  0  0  0  0  0  0  0  0  0  0  0
  191.5280  177.2300  140.3810 C   0  0  0  0  0  0  0  0  0  0  0  0
  192.7600  177.1300  139.7080 C   0  0  0  0  0  0  0  0  0  0  0  0
  191.7030  175.9120  137.9500 N   0  0  0  0  0  0  0  0  0  0  0  0
  191.4160  177.8960  141.6090 O   0  0  0  0  0  0  0  0  0  0  0  0
  191.8440  177.3590  142.8260 C   0  0  0  0  0  0  0  0  0  0  0  0
  192.0550  178.1250  143.8010 O   0  0  0  0  0  1  0  0  0  0  0  0
  191.9950  175.9850  142.9880 O   0  0  0  0  0  0  0  0  0  0  0  0
  186.1030  178.0290  146.2750 C   0  0  0  0  0  3  0  0  0  0  0  0
  185.2860  178.5570  143.6570 C   0  0  0  0  0  3  0  0  0  0  0  0
  186.9350  177.6950  145.2020 C   0  0  0  0  0  3  0  0  0  0  0  0
  186.5370  177.9560  143.8810 C   0  0  0  0  0  0  0  0  0  0  0  0
  184.8640  178.6270  146.0380 C   0  0  0  0  0  3  0  0  0  0  0  0
  184.4550  178.8920  144.7290 C   0  0  0  0  0  3  0  0  0  0  0  0
  2  1  1  0  0  0  0
  3  4  1  0  0  0  0
  4  1  2  0  0  0  0
  4 23  1  0  0  0  0
  5  6  1  6  0  0  0
  5  3  1  0  0  0  0
  7 12  1  1  0  0  0
  7  5  1  0  0  0  0
  7  2  1  0  0  0  0
  8 12  1  0  0  0  0
 10  8  1  0  0  0  0
 11 14  2  0  0  0  0
 12 13  2  0  0  0  0
 13 16  1  0  0  0  0
 14  9  1  0  0  0  0
 14 13  1  0  0  0  0
 15 11  1  0  0  0  0
 15  8  2  0  0  0  0
 16 17  1  0  0  0  0
 17 19  2  0  0  0  0
 17 18  1  0  0  0  0
 21 23  2  0  0  0  0
 21 25  1  0  0  0  0
 22 20  2  0  0  0  0
 23 22  1  0  0  0  0
 24 20  1  0  0  0  0
 25 24  2  0  0  0  0
M  END
>  <MODEL>
7

>  <REMARK>
 VINA RESULT:      -7.1      1.998      3.739
  Name = 
  4 active torsions:
  status: ('A' for Active; 'I' for Inactive)
    1  A    between atoms: C_8  and  O_21
    2  A    between atoms: C_11  and  C_23
    3  A    between atoms: C_12  and  O_21
    4  A    between atoms: C_15  and  C_16
                            x       y       z     vdW  Elec       q    Type
                         _______ _______ _______ _____ _____    ______ ____

>  <TORSDO>
F 4

$$$$
=
 OpenBabel11062413523D

 25 27  0  0  1  0  0  0  0  0999 V2000
  182.8250  178.6200  142.4210 C   0  0  0  0  0  3  0  0  0  0  0  0
  182.1690  178.7520  141.1900 O   0  0  0  0  0  0  0  0  0  0  0  0
  184.9910  178.7590  141.2570 C   0  0  0  0  0  2  0  0  0  0  0  0
  184.1630  178.5830  142.5050 C   0  0  0  0  0  0  0  0  0  0  0  0
  184.2530  178.3030  140.0020 C   0  0  2  0  0  3  0  0  0  0  0  0
  185.0740  178.6970  138.7860 C   0  0  0  0  0  1  0  0  0  0  0  0
  182.8710  178.9650  139.9650 C   0  0  1  0  0  3  0  0  0  0  0  0
  181.7150  177.1430  138.5910 C   0  0  0  0  0  0  0  0  0  0  0  0
  180.2400  179.9830  135.8660 N   0  0  0  0  0  1  0  0  0  0  0  0
  182.1810  176.0770  139.5250 C   0  0  0  0  0  1  0  0  0  0  0  0
  180.4990  177.6880  136.6250 C   0  0  0  0  0  3  0  0  0  0  0  0
  182.0370  178.5030  138.7970 C   0  0  0  0  0  0  0  0  0  0  0  0
  181.5870  179.4570  137.8660 C   0  0  0  0  0  0  0  0  0  0  0  0
  180.7960  179.0410  136.7790 C   0  0  0  0  0  0  0  0  0  0  0  0
  180.9640  176.7800  137.5190 N   0  0  0  0  0  0  0  0  0  0  0  0
  181.9100  180.8060  138.0630 O   0  0  0  0  0  0  0  0  0  0  0  0
  181.0020  181.7620  138.5260 C   0  0  0  0  0  0  0  0  0  0  0  0
  180.3350  181.5310  139.5670 O   0  0  0  0  0  1  0  0  0  0  0  0
  180.8570  182.9850  137.8780 O   0  0  0  0  0  0  0  0  0  0  0  0
  186.7730  177.8190  145.1430 C   0  0  0  0  0  3  0  0  0  0  0  0
  184.1680  178.8160  145.0090 C   0  0  0  0  0  3  0  0  0  0  0  0
  186.1380  177.9500  143.9050 C   0  0  0  0  0  3  0  0  0  0  0  0
  184.8290  178.4510  143.8230 C   0  0  0  0  0  0  0  0  0  0  0  0
  186.1060  178.1870  146.3140 C   0  0  0  0  0  3  0  0  0  0  0  0
  184.8030  178.6860  146.2470 C   0  0  0  0  0  3  0  0  0  0  0  0
  1  4  2  0  0  0  0
  2  1  1  0  0  0  0
  3  4  1  0  0  0  0
  4 23  1  0  0  0  0
  5  6  1  6  0  0  0
  5  3  1  0  0  0  0
  7 12  1  6  0  0  0
  7  5  1  0  0  0  0
  7  2  1  0  0  0  0
  8 12  1  0  0  0  0
  8 10  1  0  0  0  0
  9 14  1  0  0  0  0
 11 14  2  0  0  0  0
 11 15  1  0  0  0  0
 13 16  1  0  0  0  0
 13 12  2  0  0  0  0
 14 13  1  0  0  0  0
 15  8  2  0  0  0  0
 16 17  1  0  0  0  0
 17 18  1  0  0  0  0
 19 17  2  0  0  0  0
 20 24  1  0  0  0  0
 21 25  1  0  0  0  0
 22 20  2  0  0  0  0
 23 22  1  0  0  0  0
 23 21  2  0  0  0  0
 25 24  2  0  0  0  0
M  END
>  <MODEL>
8

>  <REMARK>
 VINA RESULT:      -7.1      5.157      7.403
  Name = 
  4 active torsions:
  status: ('A' for Active; 'I' for Inactive)
    1  A    between atoms: C_8  and  O_21
    2  A    between atoms: C_11  and  C_23
    3  A    between atoms: C_12  and  O_21
    4  A    between atoms: C_15  and  C_16
                            x       y       z     vdW  Elec       q    Type
                         _______ _______ _______ _____ _____    ______ ____

>  <TORSDO>
F 4

$$$$
=
 OpenBabel11062413523D

 25 27  0  0  1  0  0  0  0  0999 V2000
  189.4950  176.1270  141.5830 C   0  0  0  0  0  3  0  0  0  0  0  0
  188.8550  176.2640  142.8210 O   0  0  0  0  0  0  0  0  0  0  0  0
  191.0740  177.9030  142.2270 C   0  0  0  0  0  2  0  0  0  0  0  0
  190.5310  176.9040  141.2370 C   0  0  0  0  0  0  0  0  0  0  0  0
  190.0130  178.3760  143.2160 C   0  0  2  0  0  3  0  0  0  0  0  0
  190.6850  179.2170  144.2860 C   0  0  0  0  0  1  0  0  0  0  0  0
  189.3240  177.1540  143.8340 C   0  0  1  0  0  3  0  0  0  0  0  0
  188.3720  177.6150  146.1630 C   0  0  0  0  0  0  0  0  0  0  0  0
  184.5870  178.4910  144.5600 N   0  0  0  0  0  1  0  0  0  0  0  0
  189.6890  177.3420  146.8080 C   0  0  0  0  0  1  0  0  0  0  0  0
  186.0920  178.2190  146.4480 C   0  0  0  0  0  3  0  0  0  0  0  0
  188.1970  177.5300  144.7640 C   0  0  0  0  0  0  0  0  0  0  0  0
  186.9240  177.7760  144.2200 C   0  0  0  0  0  0  0  0  0  0  0  0
  185.8680  178.1400  145.0750 C   0  0  0  0  0  0  0  0  0  0  0  0
  187.3220  177.9520  146.9560 N   0  0  0  0  0  0  0  0  0  0  0  0
  186.7460  177.6860  142.8330 O   0  0  0  0  0  0  0  0  0  0  0  0
  186.7050  178.7930  141.9820 C   0  0  0  0  0  0  0  0  0  0  0  0
  187.6390  178.9760  141.1590 O   0  0  0  0  0  0  0  0  0  0  0  0
  185.6250  179.6700  141.9990 O   0  0  0  0  0  1  0  0  0  0  0  0
  191.0700  176.1340  137.5660 C   0  0  0  0  0  3  0  0  0  0  0  0
  192.5710  176.9750  139.7660 C   0  0  0  0  0  3  0  0  0  0  0  0
  190.4530  176.3050  138.8090 C   0  0  0  0  0  3  0  0  0  0  0  0
  191.1950  176.7290  139.9230 C   0  0  0  0  0  0  0  0  0  0  0  0
  192.4370  176.3840  137.4240 C   0  0  0  0  0  3  0  0  0  0  0  0
  193.1880  176.8050  138.5240 C   0  0  0  0  0  3  0  0  0  0  0  0
  1  2  1  0  0  0  0
  2  7  1  0  0  0  0
  3  5  1  0  0  0  0
  4  1  2  0  0  0  0
  4  3  1  0  0  0  0
  5  7  1  0  0  0  0
  5  6  1  1  0  0  0
  7 12  1  6  0  0  0
  8 10  1  0  0  0  0
  8 15  1  0  0  0  0
  9 14  1  0  0  0  0
 11 15  2  0  0  0  0
 12  8  2  0  0  0  0
 13 12  1  0  0  0  0
 13 14  2  0  0  0  0
 14 11  1  0  0  0  0
 16 13  1  0  0  0  0
 17 19  1  0  0  0  0
 17 16  1  0  0  0  0
 18 17  2  0  0  0  0
 20 22  1  0  0  0  0
 21 23  1  0  0  0  0
 22 23  2  0  0  0  0
 23  4  1  0  0  0  0
 24 20  2  0  0  0  0
 24 25  1  0  0  0  0
 25 21  2  0  0  0  0
M  END
>  <MODEL>
9

>  <REMARK>
 VINA RESULT:      -6.9      3.308      6.936
  Name = 
  4 active torsions:
  status: ('A' for Active; 'I' for Inactive)
    1  A    between atoms: C_8  and  O_21
    2  A    between atoms: C_11  and  C_23
    3  A    between atoms: C_12  and  O_21
    4  A    between atoms: C_15  and  C_16
                            x       y       z     vdW  Elec       q    Type
                         _______ _______ _______ _____ _____    ______ ____

>  <TORSDO>
F 4

$$$$
