=
 OpenBabel11062413563D

 61 67  0  0  1  0  0  0  0  0999 V2000
  193.2260  175.4100  138.2530 C   0  0  0  0  0  2  0  0  0  0  0  0
  190.3170  177.0900  139.0010 C   0  0  2  0  0  3  0  0  0  0  0  0
  188.6020  178.2060  137.7970 C   0  0  1  0  0  3  0  0  0  0  0  0
  192.7470  174.4800  136.0840 C   0  0  2  0  0  3  0  0  0  0  0  0
  190.8510  173.3280  134.8980 C   0  0  0  0  0  2  0  0  0  0  0  0
  189.7710  173.6760  135.7110 O   0  0  0  0  0  0  0  0  0  0  0  0
  187.4310  174.1450  135.4690 C   0  0  1  0  0  3  0  0  0  0  0  0
  192.0900  175.0750  137.3200 C   0  0  2  0  0  3  0  0  0  0  0  0
  189.4320  177.9690  138.7330 C   0  0  0  0  0  2  0  0  0  0  0  0
  191.3750  176.2910  136.9610 N   0  0  0  0  0  2  0  0  0  0  0  0
  194.3550  174.5210  137.7860 C   0  0  0  0  0  2  0  0  0  0  0  0
  188.6500  173.4180  134.9190 C   0  0  0  0  0  2  0  0  0  0  0  0
  187.7770  176.1960  136.8160 C   0  0  2  0  0  3  0  0  0  0  0  0
  192.1130  173.1410  135.7340 C   0  0  0  0  0  2  0  0  0  0  0  0
  189.0220  177.0640  136.9250 C   0  0  2  0  0  3  0  0  0  0  0  0
  187.6200  175.6530  135.4060 C   0  0  0  0  0  2  0  0  0  0  0  0
  194.1690  174.2870  136.3620 N   0  0  0  0  0  2  0  0  0  0  0  0
  190.1370  176.3030  137.7280 C   0  0  2  0  0  3  0  0  0  0  0  0
  186.5900  177.0800  137.1820 C   0  0  0  0  0  2  0  0  0  0  0  0
  187.1390  178.2020  138.0560 C   0  0  0  0  0  2  0  0  0  0  0  0
  186.1670  173.7260  134.7290 C   0  0  0  0  0  2  0  0  0  0  0  0
  185.0120  173.7190  135.6220 N   0  0  0  0  0  0  0  0  0  0  0  0
  184.6780  170.1160  135.0600 N   0  0  0  0  0  2  0  0  0  0  0  0
  183.2290  169.9330  135.0380 C   0  0  0  0  0  2  0  0  0  0  0  0
  183.4040  171.9970  136.5240 C   0  0  0  0  0  2  0  0  0  0  0  0
  182.5590  170.7840  136.1210 C   0  0  0  0  0  2  0  0  0  0  0  0
  184.9950  171.4670  134.5950 C   0  0  0  0  0  2  0  0  0  0  0  0
  184.1770  172.5500  135.3170 C   0  0  2  0  0  3  0  0  0  0  0  0
  184.2770  174.9630  135.4110 C   0  0  0  0  0  2  0  0  0  0  0  0
  182.8510  174.7000  135.5000 N   0  0  0  0  0  2  0  0  0  0  0  0
  182.2090  175.9440  135.8800 C   0  0  0  0  0  2  0  0  0  0  0  0
  183.1050  176.7220  136.8330 C   0  0  0  0  0  2  0  0  0  0  0  0
  182.4410  179.9890  138.6400 C   0  0  0  0  0  3  0  0  0  0  0  0
  180.6360  182.0170  138.3560 Cl  0  0  0  0  0  0  0  0  0  0  0  0
  181.3960  178.5220  136.5040 C   0  0  0  0  0  3  0  0  0  0  0  0
  182.4860  178.0250  137.2250 C   0  0  0  0  0  0  0  0  0  0  0  0
  180.8250  179.7500  136.8530 C   0  0  0  0  0  3  0  0  0  0  0  0
  183.0120  178.7610  138.2910 C   0  0  0  0  0  3  0  0  0  0  0  0
  181.3480  180.4820  137.9200 C   0  0  0  0  0  0  0  0  0  0  0  0
  190.4060  176.4200  140.3400 C   0  0  0  0  0  2  0  0  0  0  0  0
  190.7400  177.5830  142.6020 N   0  0  0  0  0  0  0  0  0  0  0  0
  192.4570  177.4380  141.0220 O   0  0  0  0  0  0  0  0  0  0  0  0
  188.5750  178.0350  141.7910 O   0  0  0  0  0  0  0  0  0  0  0  0
  189.3620  177.9860  142.7740 C   0  0  0  0  0  0  0  0  0  0  0  0
  191.2630  177.1700  141.3240 C   0  0  0  0  0  0  0  0  0  0  0  0
  191.6560  177.6520  143.7350 C   0  0  0  0  0  2  0  0  0  0  0  0
  191.8300  176.2700  144.3590 C   0  0  0  0  0  2  0  0  0  0  0  0
  192.0720  175.3980  146.5590 O   0  0  0  0  0  0  0  0  0  0  0  0
  191.7540  176.3800  145.8400 C   0  0  0  0  0  0  0  0  0  0  0  0
  191.3390  177.5950  146.4450 N   0  0  0  0  0  1  0  0  0  0  0  0
  188.8510  178.4050  144.1170 C   0  0  0  0  0  2  0  0  0  0  0  0
  187.8720  177.3840  144.6560 C   0  0  0  0  0  2  0  0  0  0  0  0
  186.4740  177.8230  144.3870 C   0  0  0  0  0  0  0  0  0  0  0  0
  184.6750  178.2680  142.8250 C   0  0  0  0  0  3  0  0  0  0  0  0
  185.9830  177.8400  143.0770 C   0  0  0  0  0  3  0  0  0  0  0  0
  183.5420  179.0690  146.2610 O   0  0  0  0  0  1  0  0  0  0  0  0
  184.3460  178.6690  145.1980 C   0  0  0  0  0  0  0  0  0  0  0  0
  185.6550  178.2450  145.4450 C   0  0  0  0  0  3  0  0  0  0  0  0
  183.8550  178.6850  143.8810 C   0  0  0  0  0  0  0  0  0  0  0  0
  182.4560  179.1090  143.5960 C   0  0  0  0  0  2  0  0  0  0  0  0
  182.1390  178.8480  142.1980 N   0  0  0  0  0  1  0  0  0  0  0  0
  2 40  1  1  0  0  0
  3 20  1  1  0  0  0
  3  9  1  0  0  0  0
  4 14  1  1  0  0  0
  4 17  1  0  0  0  0
  4  8  1  0  0  0  0
  5  6  1  0  0  0  0
  5 14  1  0  0  0  0
  7 21  1  6  0  0  0
  8  1  1  1  0  0  0
  9  2  1  0  0  0  0
 10  8  1  0  0  0  0
 10 18  1  0  0  0  0
 11  1  1  0  0  0  0
 12  7  1  0  0  0  0
 12  6  1  0  0  0  0
 13 16  1  6  0  0  0
 13 15  1  0  0  0  0
 13 19  1  0  0  0  0
 15 18  1  0  0  0  0
 15  3  1  0  0  0  0
 16  7  1  0  0  0  0
 17 11  1  0  0  0  0
 18  2  1  0  0  0  0
 19 20  1  0  0  0  0
 21 22  1  0  0  0  0
 24 23  1  0  0  0  0
 24 26  1  0  0  0  0
 26 25  1  0  0  0  0
 27 23  1  0  0  0  0
 27 28  1  0  0  0  0
 28 22  1  0  0  0  0
 28 25  1  0  0  0  0
 29 30  1  0  0  0  0
 29 22  1  0  0  0  0
 30 31  1  0  0  0  0
 31 32  1  0  0  0  0
 32 36  1  0  0  0  0
 35 37  2  0  0  0  0
 35 36  1  0  0  0  0
 36 38  2  0  0  0  0
 37 39  1  0  0  0  0
 38 33  1  0  0  0  0
 39 34  1  0  0  0  0
 39 33  2  0  0  0  0
 40 45  1  0  0  0  0
 41 44  1  0  0  0  0
 41 46  1  0  0  0  0
 42 45  2  0  0  0  0
 43 44  2  0  0  0  0
 44 51  1  0  0  0  0
 45 41  1  0  0  0  0
 46 47  1  0  0  0  0
 47 49  1  0  0  0  0
 49 50  1  0  0  0  0
 49 48  2  0  0  0  0
 51 52  1  0  0  0  0
 53 52  1  0  0  0  0
 53 58  1  0  0  0  0
 54 55  1  0  0  0  0
 54 59  2  0  0  0  0
 55 53  2  0  0  0  0
 57 58  2  0  0  0  0
 57 56  1  0  0  0  0
 59 57  1  0  0  0  0
 60 59  1  0  0  0  0
 61 60  1  0  0  0  0
M  END
>  <MODEL>
1

>  <REMARK>
 VINA RESULT:      -8.2      0.000      0.000
  Name = 
  17 active torsions:
  status: ('A' for Active; 'I' for Inactive)
    1  A    between atoms: C_1  and  C_35
    2  A    between atoms: N_2  and  C_55
    3  A    between atoms: C_5  and  C_6
    4  A    between atoms: C_5  and  C_57
    5  A    between atoms: N_10  and  C_22
    6  A    between atoms: N_10  and  C_23
    7  A    between atoms: N_10  and  C_59
    8  A    between atoms: C_15  and  C_22
    9  A    between atoms: N_21  and  C_23
   10  A    between atoms: N_21  and  C_61
   11  A    between atoms: C_24  and  C_51
   12  A    between atoms: C_24  and  C_55
   13  A    between atoms: C_31  and  C_35
   14  A    between atoms: C_31  and  C_45
   15  A    between atoms: C_34  and  C_44
   16  A    between atoms: C_34  and  C_61
   17  A    between atoms: C_48  and  C_53
                            x       y       z     vdW  Elec       q    Type
                         _______ _______ _______ _____ _____    ______ ____

>  <TORSDO>
F 17

$$$$
=
 OpenBabel11062413563D

 61 67  0  0  1  0  0  0  0  0999 V2000
  188.7220  178.1810  139.6700 C   0  0  0  0  0  2  0  0  0  0  0  0
  185.4090  178.9010  140.2580 C   0  0  2  0  0  3  0  0  0  0  0  0
  183.5550  179.6810  138.9970 C   0  0  1  0  0  3  0  0  0  0  0  0
  188.7010  177.4740  137.3680 C   0  0  2  0  0  3  0  0  0  0  0  0
  187.3050  176.0410  135.8430 C   0  0  0  0  0  2  0  0  0  0  0  0
  186.1080  175.9700  136.5590 O   0  0  0  0  0  0  0  0  0  0  0  0
  183.7580  175.8290  136.0980 C   0  0  1  0  0  3  0  0  0  0  0  0
  187.8050  177.6920  138.5770 C   0  0  2  0  0  3  0  0  0  0  0  0
  184.3390  179.5420  139.9910 C   0  0  0  0  0  2  0  0  0  0  0  0
  186.8110  178.7110  138.2790 N   0  0  0  0  0  2  0  0  0  0  0  0
  190.0880  177.7000  139.2400 C   0  0  0  0  0  2  0  0  0  0  0  0
  185.1730  175.5380  135.6160 C   0  0  0  0  0  2  0  0  0  0  0  0
  183.4060  177.6840  137.7010 C   0  0  2  0  0  3  0  0  0  0  0  0
  188.4960  176.0790  136.7940 C   0  0  0  0  0  2  0  0  0  0  0  0
  184.3460  178.8270  138.0550 C   0  0  2  0  0  3  0  0  0  0  0  0
  183.5240  177.3250  136.2310 C   0  0  0  0  0  2  0  0  0  0  0  0
  190.0920  177.6300  137.7870 N   0  0  0  0  0  2  0  0  0  0  0  0
  185.5600  178.2850  138.8910 C   0  0  2  0  0  3  0  0  0  0  0  0
  181.9950  178.1600  138.0240 C   0  0  0  0  0  2  0  0  0  0  0  0
  182.1340  179.2510  139.0790 C   0  0  0  0  0  2  0  0  0  0  0  0
  182.7260  175.1980  135.1710 C   0  0  0  0  0  2  0  0  0  0  0  0
  182.0090  174.1170  135.8410 N   0  0  0  0  0  0  0  0  0  0  0  0
  178.9440  175.5090  137.2840 N   0  0  0  0  0  2  0  0  0  0  0  0
  179.2500  175.5330  138.7130 C   0  0  0  0  0  2  0  0  0  0  0  0
  180.7390  173.6050  137.9610 C   0  0  0  0  0  2  0  0  0  0  0  0
  179.9940  174.2600  139.1290 C   0  0  0  0  0  2  0  0  0  0  0  0
  180.1890  175.6490  136.5280 C   0  0  0  0  0  2  0  0  0  0  0  0
  181.2780  174.6680  136.9910 C   0  0  2  0  0  3  0  0  0  0  0  0
  182.9920  173.1250  136.2670 C   0  0  0  0  0  2  0  0  0  0  0  0
  183.0200  172.0330  135.3090 N   0  0  0  0  0  2  0  0  0  0  0  0
  184.3710  171.9540  134.7880 C   0  0  0  0  0  2  0  0  0  0  0  0
  185.2510  171.1560  135.7400 C   0  0  0  0  0  2  0  0  0  0  0  0
  188.7360  172.1410  134.6190 C   0  0  0  0  0  3  0  0  0  0  0  0
  190.8830  173.3310  135.8160 Cl  0  0  0  0  0  0  0  0  0  0  0  0
  187.1700  172.2360  136.9310 C   0  0  0  0  0  3  0  0  0  0  0  0
  186.6510  171.6770  135.7580 C   0  0  0  0  0  0  0  0  0  0  0  0
  188.4730  172.7440  136.9500 C   0  0  0  0  0  3  0  0  0  0  0  0
  187.4340  171.6340  134.6000 C   0  0  0  0  0  3  0  0  0  0  0  0
  189.2550  172.6960  135.7940 C   0  0  0  0  0  0  0  0  0  0  0  0
  185.5710  178.0960  141.5120 C   0  0  0  0  0  2  0  0  0  0  0  0
  184.3030  178.1760  143.7400 N   0  0  0  0  0  0  0  0  0  0  0  0
  183.2220  177.7130  141.7200 O   0  0  0  0  0  0  0  0  0  0  0  0
  186.4210  177.2000  144.0690 O   0  0  0  0  0  0  0  0  0  0  0  0
  185.4200  177.7780  144.5690 C   0  0  0  0  0  0  0  0  0  0  0  0
  184.3020  177.9820  142.3130 C   0  0  0  0  0  0  0  0  0  0  0  0
  183.1080  178.7340  144.3650 C   0  0  0  0  0  2  0  0  0  0  0  0
  182.4640  179.7670  143.4450 C   0  0  0  0  0  2  0  0  0  0  0  0
  180.2490  180.3950  142.8490 O   0  0  0  0  0  0  0  0  0  0  0  0
  180.9940  179.5470  143.4010 C   0  0  0  0  0  0  0  0  0  0  0  0
  180.4320  178.3720  143.9660 N   0  0  0  0  0  1  0  0  0  0  0  0
  185.3890  177.9980  146.0490 C   0  0  0  0  0  2  0  0  0  0  0  0
  186.4360  179.0130  146.4580 C   0  0  0  0  0  2  0  0  0  0  0  0
  187.7410  178.3350  146.6940 C   0  0  0  0  0  0  0  0  0  0  0  0
  189.4770  177.5890  148.2120 C   0  0  0  0  0  3  0  0  0  0  0  0
  188.2440  178.2130  147.9940 C   0  0  0  0  0  3  0  0  0  0  0  0
  190.4210  176.7040  144.7400 O   0  0  0  0  0  1  0  0  0  0  0  0
  189.7100  177.2070  145.8250 C   0  0  0  0  0  0  0  0  0  0  0  0
  188.4800  177.8360  145.6110 C   0  0  0  0  0  3  0  0  0  0  0  0
  190.2130  177.0880  147.1310 C   0  0  0  0  0  0  0  0  0  0  0  0
  191.5090  176.3990  147.3870 C   0  0  0  0  0  2  0  0  0  0  0  0
  192.1730  177.0110  148.5290 N   0  0  0  0  0  1  0  0  0  0  0  0
  2 40  1  1  0  0  0
  3 20  1  1  0  0  0
  3  9  1  0  0  0  0
  4 14  1  1  0  0  0
  4 17  1  0  0  0  0
  4  8  1  0  0  0  0
  5  6  1  0  0  0  0
  5 14  1  0  0  0  0
  7 21  1  6  0  0  0
  7 16  1  0  0  0  0
  8  1  1  1  0  0  0
  9  2  1  0  0  0  0
 10  8  1  0  0  0  0
 10 18  1  0  0  0  0
 11  1  1  0  0  0  0
 12  7  1  0  0  0  0
 12  6  1  0  0  0  0
 13 16  1  6  0  0  0
 13 19  1  0  0  0  0
 13 15  1  0  0  0  0
 15 18  1  0  0  0  0
 15  3  1  0  0  0  0
 17 11  1  0  0  0  0
 18  2  1  0  0  0  0
 19 20  1  0  0  0  0
 21 22  1  0  0  0  0
 22 29  1  0  0  0  0
 22 28  1  0  0  0  0
 23 24  1  0  0  0  0
 24 26  1  0  0  0  0
 25 26  1  0  0  0  0
 27 28  1  0  0  0  0
 27 23  1  0  0  0  0
 28 25  1  0  0  0  0
 30 29  1  0  0  0  0
 31 30  1  0  0  0  0
 31 32  1  0  0  0  0
 32 36  1  0  0  0  0
 33 39  1  0  0  0  0
 35 37  1  0  0  0  0
 36 35  2  0  0  0  0
 38 33  2  0  0  0  0
 38 36  1  0  0  0  0
 39 34  1  0  0  0  0
 39 37  2  0  0  0  0
 40 45  1  0  0  0  0
 41 46  1  0  0  0  0
 41 44  1  0  0  0  0
 42 45  2  0  0  0  0
 43 44  2  0  0  0  0
 44 51  1  0  0  0  0
 45 41  1  0  0  0  0
 47 46  1  0  0  0  0
 48 49  2  0  0  0  0
 49 47  1  0  0  0  0
 49 50  1  0  0  0  0
 51 52  1  0  0  0  0
 52 53  1  0  0  0  0
 53 55  1  0  0  0  0
 55 54  2  0  0  0  0
 56 57  1  0  0  0  0
 57 59  2  0  0  0  0
 58 57  1  0  0  0  0
 58 53  2  0  0  0  0
 59 60  1  0  0  0  0
 59 54  1  0  0  0  0
 60 61  1  0  0  0  0
M  END
>  <MODEL>
2

>  <REMARK>
 VINA RESULT:      -7.1      2.959      6.939
  Name = 
  17 active torsions:
  status: ('A' for Active; 'I' for Inactive)
    1  A    between atoms: C_1  and  C_35
    2  A    between atoms: N_2  and  C_55
    3  A    between atoms: C_5  and  C_6
    4  A    between atoms: C_5  and  C_57
    5  A    between atoms: N_10  and  C_22
    6  A    between atoms: N_10  and  C_23
    7  A    between atoms: N_10  and  C_59
    8  A    between atoms: C_15  and  C_22
    9  A    between atoms: N_21  and  C_23
   10  A    between atoms: N_21  and  C_61
   11  A    between atoms: C_24  and  C_51
   12  A    between atoms: C_24  and  C_55
   13  A    between atoms: C_31  and  C_35
   14  A    between atoms: C_31  and  C_45
   15  A    between atoms: C_34  and  C_44
   16  A    between atoms: C_34  and  C_61
   17  A    between atoms: C_48  and  C_53
                            x       y       z     vdW  Elec       q    Type
                         _______ _______ _______ _____ _____    ______ ____

>  <TORSDO>
F 17

$$$$
=
 OpenBabel11062413563D

 61 67  0  0  1  0  0  0  0  0999 V2000
  189.2560  177.6970  136.9740 C   0  0  0  0  0  2  0  0  0  0  0  0
  187.4680  177.9660  139.9010 C   0  0  2  0  0  3  0  0  0  0  0  0
  185.5830  179.1850  140.6750 C   0  0  1  0  0  3  0  0  0  0  0  0
  187.5810  178.1340  135.2990 C   0  0  2  0  0  3  0  0  0  0  0  0
  185.1890  177.5260  134.8140 C   0  0  0  0  0  2  0  0  0  0  0  0
  184.7580  177.0970  136.0710 O   0  0  0  0  0  0  0  0  0  0  0  0
  182.7410  177.1160  137.3700 C   0  0  1  0  0  3  0  0  0  0  0  0
  187.7650  177.7410  136.7560 C   0  0  2  0  0  3  0  0  0  0  0  0
  186.7270  178.6270  140.7030 C   0  0  0  0  0  2  0  0  0  0  0  0
  187.1730  178.7530  137.6190 N   0  0  0  0  0  2  0  0  0  0  0  0
  189.8200  177.5090  135.5850 C   0  0  0  0  0  2  0  0  0  0  0  0
  183.3650  177.1230  135.9810 C   0  0  0  0  0  2  0  0  0  0  0  0
  184.0580  178.0090  139.2680 C   0  0  2  0  0  3  0  0  0  0  0  0
  186.6520  177.1560  134.5940 C   0  0  0  0  0  2  0  0  0  0  0  0
  185.3010  178.8870  139.2350 C   0  0  2  0  0  3  0  0  0  0  0  0
  183.1100  178.3740  138.1400 C   0  0  0  0  0  2  0  0  0  0  0  0
  188.8890  178.1190  134.6460 N   0  0  0  0  0  2  0  0  0  0  0  0
  186.5310  178.0560  138.7240 C   0  0  2  0  0  3  0  0  0  0  0  0
  183.3930  178.2400  140.6200 C   0  0  0  0  0  2  0  0  0  0  0  0
  184.4860  178.7240  141.5660 C   0  0  0  0  0  2  0  0  0  0  0  0
  181.2290  176.9540  137.2870 C   0  0  0  0  0  2  0  0  0  0  0  0
  180.8330  175.5720  137.5380 N   0  0  0  0  0  0  0  0  0  0  0  0
  179.7840  173.9000  140.6230 N   0  0  0  0  0  2  0  0  0  0  0  0
  178.9350  174.9060  141.2550 C   0  0  0  0  0  2  0  0  0  0  0  0
  180.4820  176.4070  139.8930 C   0  0  0  0  0  2  0  0  0  0  0  0
  179.5430  176.3040  141.1000 C   0  0  0  0  0  2  0  0  0  0  0  0
  179.7300  174.0730  139.1710 C   0  0  0  0  0  2  0  0  0  0  0  0
  179.9850  175.5260  138.7370 C   0  0  2  0  0  3  0  0  0  0  0  0
  182.0500  174.7860  137.7220 C   0  0  0  0  0  2  0  0  0  0  0  0
  182.0610  173.6860  136.7730 N   0  0  0  0  0  2  0  0  0  0  0  0
  183.4150  173.5730  136.2640 C   0  0  0  0  0  2  0  0  0  0  0  0
  184.4120  173.6690  137.4110 C   0  0  0  0  0  2  0  0  0  0  0  0
  187.4080  172.0040  135.7920 C   0  0  0  0  0  3  0  0  0  0  0  0
  190.0420  172.6530  135.4820 Cl  0  0  0  0  0  0  0  0  0  0  0  0
  186.8130  174.3450  137.1940 C   0  0  0  0  0  3  0  0  0  0  0  0
  185.8070  173.4050  136.9470 C   0  0  0  0  0  0  0  0  0  0  0  0
  188.1160  174.1140  136.7460 C   0  0  0  0  0  3  0  0  0  0  0  0
  186.1050  172.2350  136.2410 C   0  0  0  0  0  3  0  0  0  0  0  0
  188.4130  172.9430  136.0450 C   0  0  0  0  0  0  0  0  0  0  0  0
  188.1280  176.6780  140.2930 C   0  0  0  0  0  2  0  0  0  0  0  0
  190.5440  177.1120  141.0360 N   0  0  0  0  0  0  0  0  0  0  0  0
  188.8230  176.7530  142.5770 O   0  0  0  0  0  0  0  0  0  0  0  0
  190.5390  175.7760  139.0970 O   0  0  0  0  0  0  0  0  0  0  0  0
  191.1710  176.5570  139.8570 C   0  0  0  0  0  0  0  0  0  0  0  0
  189.1670  176.8460  141.3680 C   0  0  0  0  0  0  0  0  0  0  0  0
  191.3360  177.9160  141.9600 C   0  0  0  0  0  2  0  0  0  0  0  0
  191.7550  177.0790  143.1650 C   0  0  0  0  0  2  0  0  0  0  0  0
  191.6930  177.3490  145.5270 O   0  0  0  0  0  0  0  0  0  0  0  0
  191.6670  177.9030  144.3990 C   0  0  0  0  0  0  0  0  0  0  0  0
  191.5730  179.3170  144.3080 N   0  0  0  0  0  1  0  0  0  0  0  0
  192.6030  176.8570  139.5410 C   0  0  0  0  0  2  0  0  0  0  0  0
  192.8420  176.7930  138.0460 C   0  0  0  0  0  2  0  0  0  0  0  0
  193.4390  175.4780  137.6810 C   0  0  0  0  0  0  0  0  0  0  0  0
  194.9640  173.6560  138.1620 C   0  0  0  0  0  3  0  0  0  0  0  0
  194.3920  174.8830  138.5150 C   0  0  0  0  0  3  0  0  0  0  0  0
  193.2360  172.9950  134.9510 O   0  0  0  0  0  1  0  0  0  0  0  0
  193.6300  173.6160  136.1320 C   0  0  0  0  0  0  0  0  0  0  0  0
  193.0660  174.8450  136.4860 C   0  0  0  0  0  3  0  0  0  0  0  0
  194.5870  173.0210  136.9710 C   0  0  0  0  0  0  0  0  0  0  0  0
  195.1840  171.7000  136.6280 C   0  0  0  0  0  2  0  0  0  0  0  0
  194.1420  170.6840  136.5890 N   0  0  0  0  0  1  0  0  0  0  0  0
  2 40  1  1  0  0  0
  2  9  1  0  0  0  0
  3  9  1  1  0  0  0
  3 20  1  0  0  0  0
  4 14  1  6  0  0  0
  4  8  1  0  0  0  0
  5  6  1  0  0  0  0
  7 21  1  6  0  0  0
  7 16  1  0  0  0  0
  8  1  1  1  0  0  0
  8 10  1  0  0  0  0
 10 18  1  0  0  0  0
 11  1  1  0  0  0  0
 12  6  1  0  0  0  0
 12  7  1  0  0  0  0
 13 16  1  6  0  0  0
 13 19  1  0  0  0  0
 14  5  1  0  0  0  0
 15 13  1  0  0  0  0
 15  3  1  0  0  0  0
 17  4  1  0  0  0  0
 17 11  1  0  0  0  0
 18 15  1  0  0  0  0
 18  2  1  0  0  0  0
 19 20  1  0  0  0  0
 21 22  1  0  0  0  0
 22 29  1  0  0  0  0
 22 28  1  0  0  0  0
 23 24  1  0  0  0  0
 25 26  1  0  0  0  0
 26 24  1  0  0  0  0
 27 23  1  0  0  0  0
 28 27  1  0  0  0  0
 28 25  1  0  0  0  0
 30 29  1  0  0  0  0
 31 30  1  0  0  0  0
 31 32  1  0  0  0  0
 33 39  2  0  0  0  0
 33 38  1  0  0  0  0
 34 39  1  0  0  0  0
 36 35  1  0  0  0  0
 36 32  1  0  0  0  0
 37 35  2  0  0  0  0
 38 36  2  0  0  0  0
 39 37  1  0  0  0  0
 40 45  1  0  0  0  0
 41 45  1  0  0  0  0
 41 46  1  0  0  0  0
 43 44  2  0  0  0  0
 44 41  1  0  0  0  0
 45 42  2  0  0  0  0
 46 47  1  0  0  0  0
 47 49  1  0  0  0  0
 49 48  2  0  0  0  0
 50 49  1  0  0  0  0
 51 44  1  0  0  0  0
 52 51  1  0  0  0  0
 53 52  1  0  0  0  0
 53 55  1  0  0  0  0
 54 55  2  0  0  0  0
 56 57  1  0  0  0  0
 57 58  1  0  0  0  0
 57 59  2  0  0  0  0
 58 53  2  0  0  0  0
 59 54  1  0  0  0  0
 60 59  1  0  0  0  0
 61 60  1  0  0  0  0
M  END
>  <MODEL>
3

>  <REMARK>
 VINA RESULT:      -6.3      3.112      7.554
  Name = 
  17 active torsions:
  status: ('A' for Active; 'I' for Inactive)
    1  A    between atoms: C_1  and  C_35
    2  A    between atoms: N_2  and  C_55
    3  A    between atoms: C_5  and  C_6
    4  A    between atoms: C_5  and  C_57
    5  A    between atoms: N_10  and  C_22
    6  A    between atoms: N_10  and  C_23
    7  A    between atoms: N_10  and  C_59
    8  A    between atoms: C_15  and  C_22
    9  A    between atoms: N_21  and  C_23
   10  A    between atoms: N_21  and  C_61
   11  A    between atoms: C_24  and  C_51
   12  A    between atoms: C_24  and  C_55
   13  A    between atoms: C_31  and  C_35
   14  A    between atoms: C_31  and  C_45
   15  A    between atoms: C_34  and  C_44
   16  A    between atoms: C_34  and  C_61
   17  A    between atoms: C_48  and  C_53
                            x       y       z     vdW  Elec       q    Type
                         _______ _______ _______ _____ _____    ______ ____

>  <TORSDO>
F 17

$$$$
=
 OpenBabel11062413563D

 61 67  0  0  1  0  0  0  0  0999 V2000
  186.1570  178.2260  141.3460 C   0  0  0  0  0  2  0  0  0  0  0  0
  185.9460  177.8960  137.9280 C   0  0  2  0  0  3  0  0  0  0  0  0
  187.2580  178.5040  136.0440 C   0  0  1  0  0  3  0  0  0  0  0  0
  188.5350  178.2090  141.7260 C   0  0  2  0  0  3  0  0  0  0  0  0
  190.5660  176.9550  140.9340 C   0  0  0  0  0  2  0  0  0  0  0  0
  190.0910  176.3880  139.7510 O   0  0  0  0  0  0  0  0  0  0  0  0
  190.9410  175.7950  137.5870 C   0  0  1  0  0  3  0  0  0  0  0  0
  187.4680  177.8470  140.7050 C   0  0  2  0  0  3  0  0  0  0  0  0
  186.2160  178.2950  136.7460 C   0  0  0  0  0  2  0  0  0  0  0  0
  187.6620  178.6250  139.4900 N   0  0  0  0  0  2  0  0  0  0  0  0
  186.4670  178.2440  142.8250 C   0  0  0  0  0  2  0  0  0  0  0  0
  191.2480  176.0160  139.0620 C   0  0  0  0  0  2  0  0  0  0  0  0
  189.0090  176.9780  136.5840 C   0  0  2  0  0  3  0  0  0  0  0  0
  189.4580  177.0240  141.9780 C   0  0  0  0  0  2  0  0  0  0  0  0
  188.2410  178.1750  137.1250 C   0  0  2  0  0  3  0  0  0  0  0  0
  190.4850  177.0850  136.9250 C   0  0  0  0  0  2  0  0  0  0  0  0
  187.8740  178.5860  142.9740 N   0  0  0  0  0  2  0  0  0  0  0  0
  187.3810  177.7440  138.3650 C   0  0  2  0  0  3  0  0  0  0  0  0
  188.8090  176.9730  135.0730 C   0  0  0  0  0  2  0  0  0  0  0  0
  187.5110  177.7250  134.8040 C   0  0  0  0  0  2  0  0  0  0  0  0
  192.1460  175.2090  136.8620 C   0  0  0  0  0  2  0  0  0  0  0  0
  191.9210  173.8100  136.5130 N   0  0  0  0  0  0  0  0  0  0  0  0
  195.2200  173.2700  135.0180 N   0  0  0  0  0  2  0  0  0  0  0  0
  195.8730  172.4040  135.9970 C   0  0  0  0  0  2  0  0  0  0  0  0
  194.2340  173.6440  137.5060 C   0  0  0  0  0  2  0  0  0  0  0  0
  195.5470  172.8580  137.4240 C   0  0  0  0  0  2  0  0  0  0  0  0
  193.7760  173.0390  135.0660 C   0  0  0  0  0  2  0  0  0  0  0  0
  193.2110  173.1070  136.4940 C   0  0  2  0  0  3  0  0  0  0  0  0
  191.2820  173.7750  135.2000 C   0  0  0  0  0  2  0  0  0  0  0  0
  190.2490  172.7520  135.1950 N   0  0  0  0  0  2  0  0  0  0  0  0
  188.9900  173.4140  135.4780 C   0  0  0  0  0  2  0  0  0  0  0  0
  188.4500  172.9540  136.8250 C   0  0  0  0  0  2  0  0  0  0  0  0
  184.7190  172.8180  137.4830 C   0  0  0  0  0  3  0  0  0  0  0  0
  182.6190  171.4490  136.4020 Cl  0  0  0  0  0  0  0  0  0  0  0  0
  186.5930  171.6390  135.7800 C   0  0  0  0  0  3  0  0  0  0  0  0
  187.0090  172.5720  136.7360 C   0  0  0  0  0  0  0  0  0  0  0  0
  185.2430  171.2920  135.6780 C   0  0  0  0  0  3  0  0  0  0  0  0
  186.0690  173.1650  137.5850 C   0  0  0  0  0  3  0  0  0  0  0  0
  184.3070  171.8820  136.5300 C   0  0  0  0  0  0  0  0  0  0  0  0
  184.9180  176.8400  138.2040 C   0  0  0  0  0  2  0  0  0  0  0  0
  182.7500  176.2870  136.9500 N   0  0  0  0  0  0  0  0  0  0  0  0
  184.8480  176.0880  135.9380 O   0  0  0  0  0  0  0  0  0  0  0  0
  182.5720  175.5810  139.1900 O   0  0  0  0  0  0  0  0  0  0  0  0
  181.9910  175.8960  138.1170 C   0  0  0  0  0  0  0  0  0  0  0  0
  184.1880  176.3850  136.9690 C   0  0  0  0  0  0  0  0  0  0  0  0
  182.0560  176.5300  135.6900 C   0  0  0  0  0  2  0  0  0  0  0  0
  182.3220  177.9520  135.2060 C   0  0  0  0  0  2  0  0  0  0  0  0
  181.0220  179.8490  134.5970 O   0  0  0  0  0  0  0  0  0  0  0  0
  181.0300  178.6650  135.0190 C   0  0  0  0  0  0  0  0  0  0  0  0
  179.8050  178.0050  135.3010 N   0  0  0  0  0  1  0  0  0  0  0  0
  180.4980  175.8080  138.0630 C   0  0  0  0  0  2  0  0  0  0  0  0
  179.9270  175.5970  139.4500 C   0  0  0  0  0  2  0  0  0  0  0  0
  179.6870  176.9110  140.1090 C   0  0  0  0  0  0  0  0  0  0  0  0
  178.9380  179.2130  139.9960 C   0  0  0  0  0  3  0  0  0  0  0  0
  179.1470  177.9750  139.3790 C   0  0  0  0  0  3  0  0  0  0  0  0
  180.1370  178.4810  143.4250 O   0  0  0  0  0  1  0  0  0  0  0  0
  179.8110  178.3250  142.0810 C   0  0  0  0  0  0  0  0  0  0  0  0
  180.0250  177.0910  141.4590 C   0  0  0  0  0  3  0  0  0  0  0  0
  179.2700  179.3920  141.3450 C   0  0  0  0  0  0  0  0  0  0  0  0
  179.0110  180.7080  141.9920 C   0  0  0  0  0  2  0  0  0  0  0  0
  179.2820  181.7830  141.0470 N   0  0  0  0  0  1  0  0  0  0  0  0
  1 11  1  0  0  0  0
  2 40  1  6  0  0  0
  2 18  1  0  0  0  0
  3 20  1  6  0  0  0
  3  9  1  0  0  0  0
  3 15  1  0  0  0  0
  4 14  1  1  0  0  0
  4 17  1  0  0  0  0
  5 14  1  0  0  0  0
  6  5  1  0  0  0  0
  7 21  1  6  0  0  0
  7 12  1  0  0  0  0
  8  1  1  1  0  0  0
  8  4  1  0  0  0  0
  9  2  1  0  0  0  0
 10  8  1  0  0  0  0
 11 17  1  0  0  0  0
 12  6  1  0  0  0  0
 13 19  1  6  0  0  0
 13 16  1  0  0  0  0
 13 15  1  0  0  0  0
 15 18  1  0  0  0  0
 16  7  1  0  0  0  0
 18 10  1  0  0  0  0
 20 19  1  0  0  0  0
 22 21  1  0  0  0  0
 23 27  1  0  0  0  0
 23 24  1  0  0  0  0
 24 26  1  0  0  0  0
 26 25  1  0  0  0  0
 27 28  1  0  0  0  0
 28 22  1  0  0  0  0
 28 25  1  0  0  0  0
 29 22  1  0  0  0  0
 30 29  1  0  0  0  0
 30 31  1  0  0  0  0
 31 32  1  0  0  0  0
 33 38  1  0  0  0  0
 34 39  1  0  0  0  0
 35 36  1  0  0  0  0
 36 32  1  0  0  0  0
 36 38  2  0  0  0  0
 37 35  2  0  0  0  0
 37 39  1  0  0  0  0
 39 33  2  0  0  0  0
 41 45  1  0  0  0  0
 41 44  1  0  0  0  0
 42 45  2  0  0  0  0
 44 43  2  0  0  0  0
 45 40  1  0  0  0  0
 46 41  1  0  0  0  0
 47 46  1  0  0  0  0
 48 49  2  0  0  0  0
 49 47  1  0  0  0  0
 49 50  1  0  0  0  0
 51 44  1  0  0  0  0
 51 52  1  0  0  0  0
 52 53  1  0  0  0  0
 53 58  1  0  0  0  0
 54 59  2  0  0  0  0
 55 54  1  0  0  0  0
 55 53  2  0  0  0  0
 57 56  1  0  0  0  0
 58 57  2  0  0  0  0
 59 60  1  0  0  0  0
 59 57  1  0  0  0  0
 61 60  1  0  0  0  0
M  END
>  <MODEL>
4

>  <REMARK>
 VINA RESULT:      -6.3      3.281      8.400
  Name = 
  17 active torsions:
  status: ('A' for Active; 'I' for Inactive)
    1  A    between atoms: C_1  and  C_35
    2  A    between atoms: N_2  and  C_55
    3  A    between atoms: C_5  and  C_6
    4  A    between atoms: C_5  and  C_57
    5  A    between atoms: N_10  and  C_22
    6  A    between atoms: N_10  and  C_23
    7  A    between atoms: N_10  and  C_59
    8  A    between atoms: C_15  and  C_22
    9  A    between atoms: N_21  and  C_23
   10  A    between atoms: N_21  and  C_61
   11  A    between atoms: C_24  and  C_51
   12  A    between atoms: C_24  and  C_55
   13  A    between atoms: C_31  and  C_35
   14  A    between atoms: C_31  and  C_45
   15  A    between atoms: C_34  and  C_44
   16  A    between atoms: C_34  and  C_61
   17  A    between atoms: C_48  and  C_53
                            x       y       z     vdW  Elec       q    Type
                         _______ _______ _______ _____ _____    ______ ____

>  <TORSDO>
F 17

$$$$
=
 OpenBabel11062413563D

 61 67  0  0  1  0  0  0  0  0999 V2000
  189.2060  178.1310  141.2760 C   0  0  0  0  0  2  0  0  0  0  0  0
  185.8610  178.7670  140.7790 C   0  0  2  0  0  3  0  0  0  0  0  0
  184.4840  179.5040  138.9900 C   0  0  1  0  0  3  0  0  0  0  0  0
  189.9340  177.4320  139.0900 C   0  0  2  0  0  3  0  0  0  0  0  0
  189.1300  175.9680  137.2080 C   0  0  0  0  0  2  0  0  0  0  0  0
  187.7710  175.8650  137.5070 O   0  0  0  0  0  0  0  0  0  0  0  0
  185.6930  175.6670  136.3250 C   0  0  1  0  0  3  0  0  0  0  0  0
  188.6960  177.6230  139.9520 C   0  0  2  0  0  3  0  0  0  0  0  0
  184.9160  179.3820  140.1820 C   0  0  0  0  0  2  0  0  0  0  0  0
  187.8230  178.6180  139.3470 N   0  0  0  0  0  2  0  0  0  0  0  0
  190.6490  177.6860  141.3050 C   0  0  0  0  0  2  0  0  0  0  0  0
  187.1940  175.4130  136.3180 C   0  0  0  0  0  2  0  0  0  0  0  0
  184.8040  177.5080  137.7240 C   0  0  2  0  0  3  0  0  0  0  0  0
  189.9570  176.0330  138.4880 C   0  0  0  0  0  2  0  0  0  0  0  0
  185.5550  178.6730  138.3530 C   0  0  2  0  0  3  0  0  0  0  0  0
  185.3910  177.1570  136.3690 C   0  0  0  0  0  2  0  0  0  0  0  0
  191.1170  177.6210  139.9280 N   0  0  0  0  0  2  0  0  0  0  0  0
  186.4530  178.1590  139.5330 C   0  0  2  0  0  3  0  0  0  0  0  0
  183.3520  177.9470  137.5800 C   0  0  0  0  0  2  0  0  0  0  0  0
  183.1230  179.0390  138.6190 C   0  0  0  0  0  2  0  0  0  0  0  0
  185.0240  175.0130  135.1220 C   0  0  0  0  0  2  0  0  0  0  0  0
  185.1510  173.5600  135.1750 N   0  0  0  0  0  0  0  0  0  0  0  0
  183.0190  170.6380  135.7430 N   0  0  0  0  0  2  0  0  0  0  0  0
  181.6990  171.2390  135.9200 C   0  0  0  0  0  2  0  0  0  0  0  0
  183.1820  173.1590  136.7010 C   0  0  0  0  0  2  0  0  0  0  0  0
  181.7940  172.5150  136.7620 C   0  0  0  0  0  2  0  0  0  0  0  0
  183.8200  171.4950  134.8690 C   0  0  0  0  0  2  0  0  0  0  0  0
  183.8140  172.9670  135.3140 C   0  0  2  0  0  3  0  0  0  0  0  0
  185.9980  173.2270  136.3170 C   0  0  0  0  0  2  0  0  0  0  0  0
  186.4550  171.8540  136.1930 N   0  0  0  0  0  2  0  0  0  0  0  0
  187.9050  171.8860  136.1640 C   0  0  0  0  0  2  0  0  0  0  0  0
  188.3870  172.4430  134.8320 C   0  0  0  0  0  2  0  0  0  0  0  0
  191.8080  174.0620  134.6100 C   0  0  0  0  0  3  0  0  0  0  0  0
  194.3790  173.1770  134.8530 Cl  0  0  0  0  0  0  0  0  0  0  0  0
  190.7080  171.5320  135.0550 C   0  0  0  0  0  3  0  0  0  0  0  0
  189.8690  172.6260  134.8190 C   0  0  0  0  0  0  0  0  0  0  0  0
  192.0960  171.7010  135.0640 C   0  0  0  0  0  3  0  0  0  0  0  0
  190.4200  173.8930  134.6000 C   0  0  0  0  0  3  0  0  0  0  0  0
  192.6450  172.9650  134.8410 C   0  0  0  0  0  0  0  0  0  0  0  0
  185.6370  177.9630  142.0230 C   0  0  0  0  0  2  0  0  0  0  0  0
  184.1770  178.5400  144.0520 N   0  0  0  0  0  0  0  0  0  0  0  0
  183.2540  178.1220  141.9460 O   0  0  0  0  0  0  0  0  0  0  0  0
  185.9660  177.1650  144.7290 O   0  0  0  0  0  0  0  0  0  0  0  0
  185.0730  177.9950  145.0480 C   0  0  0  0  0  0  0  0  0  0  0  0
  184.2920  178.2080  142.6550 C   0  0  0  0  0  0  0  0  0  0  0  0
  183.0780  179.4050  144.4700 C   0  0  0  0  0  2  0  0  0  0  0  0
  181.8310  178.5750  144.7560 C   0  0  0  0  0  2  0  0  0  0  0  0
  180.8780  180.0300  143.1350 O   0  0  0  0  0  0  0  0  0  0  0  0
  180.7130  179.0430  143.8940 C   0  0  0  0  0  0  0  0  0  0  0  0
  179.4650  178.3660  143.9150 N   0  0  0  0  0  1  0  0  0  0  0  0
  184.9260  178.3650  146.4910 C   0  0  0  0  0  2  0  0  0  0  0  0
  186.0500  179.2840  146.9210 C   0  0  0  0  0  2  0  0  0  0  0  0
  187.3200  178.5160  147.0460 C   0  0  0  0  0  0  0  0  0  0  0  0
  188.9690  177.3920  148.4210 C   0  0  0  0  0  3  0  0  0  0  0  0
  187.7680  178.1000  148.3050 C   0  0  0  0  0  3  0  0  0  0  0  0
  190.0130  177.2230  144.8690 O   0  0  0  0  0  1  0  0  0  0  0  0
  189.2790  177.5140  146.0150 C   0  0  0  0  0  0  0  0  0  0  0  0
  188.0810  178.2270  145.9040 C   0  0  0  0  0  3  0  0  0  0  0  0
  189.7280  177.0990  147.2800 C   0  0  0  0  0  0  0  0  0  0  0  0
  190.9880  176.3170  147.4220 C   0  0  0  0  0  2  0  0  0  0  0  0
  192.0260  177.1590  148.0010 N   0  0  0  0  0  1  0  0  0  0  0  0
  1 11  1  0  0  0  0
  2 40  1  1  0  0  0
  3 20  1  1  0  0  0
  3  9  1  0  0  0  0
  4 14  1  1  0  0  0
  4 17  1  0  0  0  0
  4  8  1  0  0  0  0
  5  6  1  0  0  0  0
  5 14  1  0  0  0  0
  7 21  1  6  0  0  0
  7 16  1  0  0  0  0
  8  1  1  1  0  0  0
  9  2  1  0  0  0  0
 10 18  1  0  0  0  0
 10  8  1  0  0  0  0
 12  7  1  0  0  0  0
 12  6  1  0  0  0  0
 13 16  1  6  0  0  0
 13 15  1  0  0  0  0
 15  3  1  0  0  0  0
 15 18  1  0  0  0  0
 17 11  1  0  0  0  0
 18  2  1  0  0  0  0
 19 13  1  0  0  0  0
 19 20  1  0  0  0  0
 21 22  1  0  0  0  0
 22 28  1  0  0  0  0
 22 29  1  0  0  0  0
 23 24  1  0  0  0  0
 24 26  1  0  0  0  0
 25 26  1  0  0  0  0
 27 28  1  0  0  0  0
 27 23  1  0  0  0  0
 28 25  1  0  0  0  0
 30 29  1  0  0  0  0
 31 30  1  0  0  0  0
 32 31  1  0  0  0  0
 33 39  1  0  0  0  0
 35 37  1  0  0  0  0
 36 32  1  0  0  0  0
 36 35  2  0  0  0  0
 38 33  2  0  0  0  0
 38 36  1  0  0  0  0
 39 34  1  0  0  0  0
 39 37  2  0  0  0  0
 40 45  1  0  0  0  0
 41 46  1  0  0  0  0
 41 44  1  0  0  0  0
 42 45  2  0  0  0  0
 43 44  2  0  0  0  0
 44 51  1  0  0  0  0
 45 41  1  0  0  0  0
 46 47  1  0  0  0  0
 48 49  2  0  0  0  0
 49 50  1  0  0  0  0
 49 47  1  0  0  0  0
 51 52  1  0  0  0  0
 52 53  1  0  0  0  0
 53 55  1  0  0  0  0
 55 54  2  0  0  0  0
 56 57  1  0  0  0  0
 57 59  2  0  0  0  0
 58 57  1  0  0  0  0
 58 53  2  0  0  0  0
 59 60  1  0  0  0  0
 59 54  1  0  0  0  0
 60 61  1  0  0  0  0
M  END
>  <MODEL>
5

>  <REMARK>
 VINA RESULT:      -6.0      3.020      7.036
  Name = 
  17 active torsions:
  status: ('A' for Active; 'I' for Inactive)
    1  A    between atoms: C_1  and  C_35
    2  A    between atoms: N_2  and  C_55
    3  A    between atoms: C_5  and  C_6
    4  A    between atoms: C_5  and  C_57
    5  A    between atoms: N_10  and  C_22
    6  A    between atoms: N_10  and  C_23
    7  A    between atoms: N_10  and  C_59
    8  A    between atoms: C_15  and  C_22
    9  A    between atoms: N_21  and  C_23
   10  A    between atoms: N_21  and  C_61
   11  A    between atoms: C_24  and  C_51
   12  A    between atoms: C_24  and  C_55
   13  A    between atoms: C_31  and  C_35
   14  A    between atoms: C_31  and  C_45
   15  A    between atoms: C_34  and  C_44
   16  A    between atoms: C_34  and  C_61
   17  A    between atoms: C_48  and  C_53
                            x       y       z     vdW  Elec       q    Type
                         _______ _______ _______ _____ _____    ______ ____

>  <TORSDO>
F 17

$$$$
=
 OpenBabel11062413563D

 61 67  0  0  1  0  0  0  0  0999 V2000
  188.8020  177.9490  138.8830 C   0  0  0  0  0  2  0  0  0  0  0  0
  185.6930  178.6670  140.1700 C   0  0  2  0  0  3  0  0  0  0  0  0
  183.6830  179.6650  139.3930 C   0  0  1  0  0  3  0  0  0  0  0  0
  188.3260  177.5750  136.5520 C   0  0  2  0  0  3  0  0  0  0  0  0
  186.6050  176.4080  135.1370 C   0  0  0  0  0  2  0  0  0  0  0  0
  185.5560  176.2680  136.0470 O   0  0  0  0  0  0  0  0  0  0  0  0
  183.1570  176.2560  136.0180 C   0  0  1  0  0  3  0  0  0  0  0  0
  187.6780  177.6430  137.9250 C   0  0  2  0  0  3  0  0  0  0  0  0
  184.6260  179.3670  140.1950 C   0  0  0  0  0  2  0  0  0  0  0  0
  186.7000  178.7200  137.9560 N   0  0  0  0  0  2  0  0  0  0  0  0
  190.0400  177.4970  138.1450 C   0  0  0  0  0  2  0  0  0  0  0  0
  184.4430  175.9990  135.2460 C   0  0  0  0  0  2  0  0  0  0  0  0
  183.1990  177.8750  137.8930 C   0  0  2  0  0  3  0  0  0  0  0  0
  187.9490  176.2800  135.8450 C   0  0  0  0  0  2  0  0  0  0  0  0
  184.2460  178.9320  138.2150 C   0  0  2  0  0  3  0  0  0  0  0  0
  183.0280  177.7240  136.3920 C   0  0  0  0  0  2  0  0  0  0  0  0
  189.7770  177.6330  136.7200 N   0  0  0  0  0  2  0  0  0  0  0  0
  185.5610  178.2450  138.7290 C   0  0  2  0  0  3  0  0  0  0  0  0
  181.8960  178.3380  138.5350 C   0  0  0  0  0  2  0  0  0  0  0  0
  182.2810  179.2650  139.6810 C   0  0  0  0  0  2  0  0  0  0  0  0
  181.9430  175.7900  135.2250 C   0  0  0  0  0  2  0  0  0  0  0  0
  181.5190  174.4580  135.6470 N   0  0  0  0  0  0  0  0  0  0  0  0
  179.1390  172.9540  137.9880 N   0  0  0  0  0  2  0  0  0  0  0  0
  178.9350  174.0230  138.9630 C   0  0  0  0  0  2  0  0  0  0  0  0
  181.2870  174.5830  138.1560 C   0  0  0  0  0  2  0  0  0  0  0  0
  180.2600  174.7220  139.2840 C   0  0  0  0  0  2  0  0  0  0  0  0
  179.4680  173.5470  136.6920 C   0  0  0  0  0  2  0  0  0  0  0  0
  180.5970  174.5850  136.7840 C   0  0  2  0  0  3  0  0  0  0  0  0
  182.7140  173.7060  136.0190 C   0  0  0  0  0  2  0  0  0  0  0  0
  182.7870  172.4930  135.2220 N   0  0  0  0  0  2  0  0  0  0  0  0
  184.0950  172.4690  134.5960 C   0  0  0  0  0  2  0  0  0  0  0  0
  184.9630  171.3980  135.2420 C   0  0  0  0  0  2  0  0  0  0  0  0
  187.5720  172.8450  137.5820 C   0  0  0  0  0  3  0  0  0  0  0  0
  190.1720  173.6380  137.3180 Cl  0  0  0  0  0  0  0  0  0  0  0  0
  187.3370  172.1150  134.8950 C   0  0  0  0  0  3  0  0  0  0  0  0
  186.2450  171.9690  135.7570 C   0  0  0  0  0  0  0  0  0  0  0  0
  188.5450  172.6300  135.3740 C   0  0  0  0  0  3  0  0  0  0  0  0
  186.3640  172.3300  137.1020 C   0  0  0  0  0  3  0  0  0  0  0  0
  188.6620  172.9950  136.7170 C   0  0  0  0  0  0  0  0  0  0  0  0
  186.0370  177.6890  141.2530 C   0  0  0  0  0  2  0  0  0  0  0  0
  186.4610  178.3270  143.7010 N   0  0  0  0  0  0  0  0  0  0  0  0
  184.3070  178.2710  142.7940 O   0  0  0  0  0  0  0  0  0  0  0  0
  187.9340  176.6030  143.0650 O   0  0  0  0  0  0  0  0  0  0  0  0
  187.6670  177.5440  143.8590 C   0  0  0  0  0  0  0  0  0  0  0  0
  185.5440  178.1080  142.6120 C   0  0  0  0  0  0  0  0  0  0  0  0
  186.1190  179.3300  144.7040 C   0  0  0  0  0  2  0  0  0  0  0  0
  185.3070  178.6970  145.8290 C   0  0  0  0  0  2  0  0  0  0  0  0
  185.6800  179.9760  147.7990 O   0  0  0  0  0  0  0  0  0  0  0  0
  185.9760  178.9530  147.1320 C   0  0  0  0  0  0  0  0  0  0  0  0
  186.9370  178.0350  147.6330 N   0  0  0  0  0  1  0  0  0  0  0  0
  188.6000  177.8010  145.0010 C   0  0  0  0  0  2  0  0  0  0  0  0
  189.9290  177.1140  144.7660 C   0  0  0  0  0  2  0  0  0  0  0  0
  190.6770  176.9970  146.0490 C   0  0  0  0  0  0  0  0  0  0  0  0
  190.9260  177.5520  148.3950 C   0  0  0  0  0  3  0  0  0  0  0  0
  190.2130  177.6510  147.1950 C   0  0  0  0  0  3  0  0  0  0  0  0
  193.7420  175.3850  147.3420 O   0  0  0  0  0  1  0  0  0  0  0  0
  192.5760  176.1440  147.3020 C   0  0  0  0  0  0  0  0  0  0  0  0
  191.8630  176.2500  146.1040 C   0  0  0  0  0  3  0  0  0  0  0  0
  192.1080  176.8020  148.4510 C   0  0  0  0  0  0  0  0  0  0  0  0
  192.8360  176.6850  149.7460 C   0  0  0  0  0  2  0  0  0  0  0  0
  193.6500  177.8730  149.9620 N   0  0  0  0  0  1  0  0  0  0  0  0
  2  9  1  0  0  0  0
  2 40  1  1  0  0  0
  3 20  1  1  0  0  0
  3  9  1  0  0  0  0
  4 14  1  1  0  0  0
  4 17  1  0  0  0  0
  4  8  1  0  0  0  0
  5 14  1  0  0  0  0
  5  6  1  0  0  0  0
  7 21  1  6  0  0  0
  7 16  1  0  0  0  0
  8 10  1  0  0  0  0
  8  1  1  1  0  0  0
 10 18  1  0  0  0  0
 11  1  1  0  0  0  0
 12  7  1  0  0  0  0
 12  6  1  0  0  0  0
 13 16  1  6  0  0  0
 13 15  1  0  0  0  0
 13 19  1  0  0  0  0
 15 18  1  0  0  0  0
 15  3  1  0  0  0  0
 17 11  1  0  0  0  0
 18  2  1  0  0  0  0
 19 20  1  0  0  0  0
 21 22  1  0  0  0  0
 22 29  1  0  0  0  0
 22 28  1  0  0  0  0
 23 24  1  0  0  0  0
 24 26  1  0  0  0  0
 25 26  1  0  0  0  0
 27 28  1  0  0  0  0
 27 23  1  0  0  0  0
 28 25  1  0  0  0  0
 30 29  1  0  0  0  0
 31 30  1  0  0  0  0
 31 32  1  0  0  0  0
 32 36  1  0  0  0  0
 35 37  2  0  0  0  0
 35 36  1  0  0  0  0
 36 38  2  0  0  0  0
 37 39  1  0  0  0  0
 38 33  1  0  0  0  0
 39 34  1  0  0  0  0
 39 33  2  0  0  0  0
 40 45  1  0  0  0  0
 41 44  1  0  0  0  0
 41 46  1  0  0  0  0
 43 44  2  0  0  0  0
 44 51  1  0  0  0  0
 45 42  2  0  0  0  0
 45 41  1  0  0  0  0
 46 47  1  0  0  0  0
 47 49  1  0  0  0  0
 49 50  1  0  0  0  0
 49 48  2  0  0  0  0
 52 51  1  0  0  0  0
 52 53  1  0  0  0  0
 53 58  2  0  0  0  0
 53 55  1  0  0  0  0
 54 59  1  0  0  0  0
 55 54  2  0  0  0  0
 57 56  1  0  0  0  0
 57 59  2  0  0  0  0
 58 57  1  0  0  0  0
 59 60  1  0  0  0  0
 60 61  1  0  0  0  0
M  END
>  <MODEL>
6

>  <REMARK>
 VINA RESULT:      -5.3      2.970      6.602
  Name = 
  17 active torsions:
  status: ('A' for Active; 'I' for Inactive)
    1  A    between atoms: C_1  and  C_35
    2  A    between atoms: N_2  and  C_55
    3  A    between atoms: C_5  and  C_6
    4  A    between atoms: C_5  and  C_57
    5  A    between atoms: N_10  and  C_22
    6  A    between atoms: N_10  and  C_23
    7  A    between atoms: N_10  and  C_59
    8  A    between atoms: C_15  and  C_22
    9  A    between atoms: N_21  and  C_23
   10  A    between atoms: N_21  and  C_61
   11  A    between atoms: C_24  and  C_51
   12  A    between atoms: C_24  and  C_55
   13  A    between atoms: C_31  and  C_35
   14  A    between atoms: C_31  and  C_45
   15  A    between atoms: C_34  and  C_44
   16  A    between atoms: C_34  and  C_61
   17  A    between atoms: C_48  and  C_53
                            x       y       z     vdW  Elec       q    Type
                         _______ _______ _______ _____ _____    ______ ____

>  <TORSDO>
F 17

$$$$
