=
 OpenBabel11062414483D

 33 34  0  0  1  0  0  0  0  0999 V2000
  185.6680  178.7200  144.9720 C   0  0  1  0  0  3  0  0  0  0  0  0
  182.8880  178.9030  141.9450 C   0  0  0  0  0  0  0  0  0  0  0  0
  185.2620  179.3970  140.6540 N   0  0  0  0  0  2  0  0  0  0  0  0
  183.4480  179.3220  144.1810 O   0  0  0  0  0  0  0  0  0  0  0  0
  185.3750  178.3130  138.4760 C   0  0  0  0  0  1  0  0  0  0  0  0
  185.6980  177.6000  143.9360 C   0  0  0  0  0  2  0  0  0  0  0  0
  184.2170  179.0070  145.3410 C   0  0  0  0  0  2  0  0  0  0  0  0
  182.3130  179.0310  140.7870 C   0  0  0  0  0  0  0  0  0  0  0  0
  184.6170  178.3880  139.7910 C   0  0  2  0  0  3  0  0  0  0  0  0
  185.9160  178.8230  141.7820 N   0  0  0  0  0  0  0  0  0  0  0  0
  183.1230  178.7420  139.5350 C   0  0  1  0  0  3  0  0  0  0  0  0
  183.7050  178.7380  142.9380 C   0  0  0  0  0  0  0  0  0  0  0  0
  185.0030  178.0230  142.6360 C   0  0  2  0  0  3  0  0  0  0  0  0
  187.7870  177.8460  146.0550 N   0  0  0  0  0  2  0  0  0  0  0  0
  186.4390  178.3230  146.1860 C   0  0  0  0  0  0  0  0  0  0  0  0
  190.0140  176.9510  146.8150 C   0  0  0  0  0  1  0  0  0  0  0  0
  185.8930  178.4200  147.3180 O   0  0  0  0  0  0  0  0  0  0  0  0
  188.2670  177.5220  148.3590 N   0  0  0  0  0  2  0  0  0  0  0  0
  188.6410  177.4220  147.1250 C   0  0  0  0  0  0  0  0  0  0  0  0
  181.8000  177.9790  137.5580 O   0  0  0  0  0  0  0  0  0  0  0  0
  182.5220  176.4580  139.1120 O   0  0  0  0  0  1  0  0  0  0  0  0
  182.4580  177.6590  138.7370 C   0  0  0  0  0  0  0  0  0  0  0  0
  180.9440  179.6250  140.6960 C   0  0  0  0  0  2  0  0  0  0  0  0
  180.1850  180.5540  142.7400 O   0  0  0  0  0  0  0  0  0  0  0  0
  180.2320  179.5290  142.0070 C   0  0  0  0  0  0  0  0  0  0  0  0
  179.5430  178.2930  142.4530 C   0  0  0  0  0  0  0  0  0  0  0  0
  179.4930  178.0490  143.6870 O   0  0  0  0  0  0  0  0  0  0  0  0
  178.9320  177.3820  141.5800 O   0  0  0  0  0  0  0  0  0  0  0  0
  179.6030  176.3000  140.9490 C   0  0  0  0  0  1  0  0  0  0  0  0
  187.0230  177.9840  141.3150 C   0  0  0  0  0  2  0  0  0  0  0  0
  188.3500  178.7390  141.3420 C   0  0  0  0  0  3  0  0  0  0  0  0
  189.2500  178.2540  142.4640 C   0  0  0  0  0  1  0  0  0  0  0  0
  189.0710  178.6420  140.0100 C   0  0  0  0  0  1  0  0  0  0  0  0
  1  7  1  0  0  0  0
  1 15  1  1  0  0  0
  2 12  2  0  0  0  0
  3 10  1  0  0  0  0
  4  7  1  0  0  0  0
  6  1  1  0  0  0  0
  8  2  2  0  0  0  0
  9  5  1  6  0  0  0
  9  3  1  0  0  0  0
 10 13  1  0  0  0  0
 11 22  1  1  0  0  0
 11  9  1  0  0  0  0
 11  8  1  0  0  0  0
 12  4  1  0  0  0  0
 13 12  1  0  0  0  0
 13  6  1  1  0  0  0
 14 15  1  0  0  0  0
 14 19  1  0  0  0  0
 15 17  2  0  0  0  0
 16 19  1  0  0  0  0
 19 18  2  0  0  0  0
 20 22  2  0  0  0  0
 22 21  1  0  0  0  0
 23  8  1  0  0  0  0
 23 25  1  0  0  0  0
 25 26  1  0  0  0  0
 25 24  2  0  0  0  0
 26 27  2  0  0  0  0
 28 26  1  0  0  0  0
 29 28  1  0  0  0  0
 30 31  1  0  0  0  0
 30 10  1  0  0  0  0
 31 32  1  0  0  0  0
 33 31  1  0  0  0  0
M  END
>  <MODEL>
1

>  <REMARK>
 VINA RESULT:      -7.7      0.000      0.000
  Name = 
  8 active torsions:
  status: ('A' for Active; 'I' for Inactive)
    1  A    between atoms: C_2  and  C_9
    2  A    between atoms: C_3  and  C_19
    3  A    between atoms: C_4  and  C_10
    4  A    between atoms: C_4  and  C_22
    5  A    between atoms: C_10  and  C_13
    6  A    between atoms: C_13  and  O_20
    7  A    between atoms: C_19  and  N_27
    8  A    between atoms: C_29  and  C_32
                            x       y       z     vdW  Elec       q    Type
                         _______ _______ _______ _____ _____    ______ ____

>  <TORSDO>
F 8

$$$$
=
 OpenBabel11062414483D

 33 34  0  0  1  0  0  0  0  0999 V2000
  184.7920  178.9400  143.7590 C   0  0  1  0  0  3  0  0  0  0  0  0
  188.5410  177.8060  142.5030 C   0  0  0  0  0  0  0  0  0  0  0  0
  188.8820  178.2460  145.1930 N   0  0  0  0  0  2  0  0  0  0  0  0
  186.5400  178.9440  142.0680 O   0  0  0  0  0  0  0  0  0  0  0  0
  190.3500  176.5980  146.2230 C   0  0  0  0  0  1  0  0  0  0  0  0
  185.2990  177.5820  144.2350 C   0  0  0  0  0  2  0  0  0  0  0  0
  185.1390  179.1020  142.2830 C   0  0  0  0  0  2  0  0  0  0  0  0
  189.8040  177.4990  142.4650 C   0  0  0  0  0  0  0  0  0  0  0  0
  189.5420  176.9430  144.9820 C   0  0  2  0  0  3  0  0  0  0  0  0
  187.4670  178.1350  145.3200 N   0  0  0  0  0  0  0  0  0  0  0  0
  190.4650  176.9790  143.7290 C   0  0  1  0  0  3  0  0  0  0  0  0
  187.3140  178.0640  142.8300 C   0  0  0  0  0  0  0  0  0  0  0  0
  186.8280  177.4940  144.1440 C   0  0  2  0  0  3  0  0  0  0  0  0
  182.4390  179.0000  142.8180 N   0  0  0  0  0  2  0  0  0  0  0  0
  183.3150  179.0380  143.9540 C   0  0  0  0  0  0  0  0  0  0  0  0
  180.2490  179.0400  141.5770 C   0  0  0  0  0  1  0  0  0  0  0  0
  182.8580  179.1460  145.1230 O   0  0  0  0  0  0  0  0  0  0  0  0
  180.3670  179.1370  143.9730 N   0  0  0  0  0  2  0  0  0  0  0  0
  181.0090  179.0930  142.8510 C   0  0  0  0  0  0  0  0  0  0  0  0
  192.3180  175.3190  143.9590 O   0  0  0  0  0  1  0  0  0  0  0  0
  190.3940  174.7450  142.8540 O   0  0  0  0  0  0  0  0  0  0  0  0
  191.0530  175.6220  143.4740 C   0  0  0  0  0  0  0  0  0  0  0  0
  190.6140  177.8280  141.2530 C   0  0  0  0  0  2  0  0  0  0  0  0
  190.4640  176.0090  139.7400 O   0  0  0  0  0  0  0  0  0  0  0  0
  190.0520  177.1640  140.0380 C   0  0  0  0  0  0  0  0  0  0  0  0
  188.9990  177.7910  139.2010 C   0  0  0  0  0  0  0  0  0  0  0  0
  188.9320  179.0480  139.1670 O   0  0  0  0  0  0  0  0  0  0  0  0
  188.0770  177.0660  138.4330 O   0  0  0  0  0  0  0  0  0  0  0  0
  186.9960  177.6460  137.7160 C   0  0  0  0  0  1  0  0  0  0  0  0
  187.1570  177.3710  146.5330 C   0  0  0  0  0  2  0  0  0  0  0  0
  186.8810  178.2900  147.7200 C   0  0  0  0  0  3  0  0  0  0  0  0
  188.1360  178.5500  148.5340 C   0  0  0  0  0  1  0  0  0  0  0  0
  186.2630  179.6020  147.2740 C   0  0  0  0  0  1  0  0  0  0  0  0
  1 15  1  6  0  0  0
  1  6  1  0  0  0  0
  2 12  2  0  0  0  0
  3 10  1  0  0  0  0
  4  7  1  0  0  0  0
  4 12  1  0  0  0  0
  7  1  1  0  0  0  0
  8  2  2  0  0  0  0
  8 11  1  0  0  0  0
  9  3  1  0  0  0  0
  9  5  1  1  0  0  0
 10 30  1  0  0  0  0
 11 22  1  6  0  0  0
 11  9  1  0  0  0  0
 12 13  1  0  0  0  0
 13  6  1  1  0  0  0
 13 10  1  0  0  0  0
 14 19  1  0  0  0  0
 14 15  1  0  0  0  0
 15 17  2  0  0  0  0
 16 19  1  0  0  0  0
 19 18  2  0  0  0  0
 21 22  2  0  0  0  0
 22 20  1  0  0  0  0
 23  8  1  0  0  0  0
 24 25  2  0  0  0  0
 25 23  1  0  0  0  0
 26 25  1  0  0  0  0
 27 26  2  0  0  0  0
 28 26  1  0  0  0  0
 29 28  1  0  0  0  0
 30 31  1  0  0  0  0
 31 32  1  0  0  0  0
 33 31  1  0  0  0  0
M  END
>  <MODEL>
2

>  <REMARK>
 VINA RESULT:      -7.5      3.390      7.758
  Name = 
  8 active torsions:
  status: ('A' for Active; 'I' for Inactive)
    1  A    between atoms: C_2  and  C_9
    2  A    between atoms: C_3  and  C_19
    3  A    between atoms: C_4  and  C_10
    4  A    between atoms: C_4  and  C_22
    5  A    between atoms: C_10  and  C_13
    6  A    between atoms: C_13  and  O_20
    7  A    between atoms: C_19  and  N_27
    8  A    between atoms: C_29  and  C_32
                            x       y       z     vdW  Elec       q    Type
                         _______ _______ _______ _____ _____    ______ ____

>  <TORSDO>
F 8

$$$$
=
 OpenBabel11062414483D

 33 34  0  0  1  0  0  0  0  0999 V2000
  192.5690  176.7810  137.9370 C   0  0  1  0  0  3  0  0  0  0  0  0
  191.0000  177.5010  141.6710 C   0  0  0  0  0  0  0  0  0  0  0  0
  189.2070  178.7240  139.9860 N   0  0  0  0  0  2  0  0  0  0  0  0
  192.8840  177.2680  140.3000 O   0  0  0  0  0  0  0  0  0  0  0  0
  186.9000  178.4150  140.7050 C   0  0  0  0  0  1  0  0  0  0  0  0
  191.2690  176.0640  138.2920 C   0  0  0  0  0  2  0  0  0  0  0  0
  193.5050  176.7190  139.1390 C   0  0  0  0  0  2  0  0  0  0  0  0
  190.2450  177.9030  142.6510 C   0  0  0  0  0  0  0  0  0  0  0  0
  188.3370  177.9560  140.8980 C   0  0  2  0  0  3  0  0  0  0  0  0
  189.7520  177.9250  138.9400 N   0  0  0  0  0  0  0  0  0  0  0  0
  188.7710  178.1480  142.3810 C   0  0  1  0  0  3  0  0  0  0  0  0
  191.5110  177.1520  140.5330 C   0  0  0  0  0  0  0  0  0  0  0  0
  190.5370  176.7700  139.4410 C   0  0  2  0  0  3  0  0  0  0  0  0
  194.6370  176.0220  136.6850 N   0  0  0  0  0  2  0  0  0  0  0  0
  193.2080  176.1380  136.7520 C   0  0  0  0  0  0  0  0  0  0  0  0
  196.8690  175.4020  135.6990 C   0  0  0  0  0  1  0  0  0  0  0  0
  192.4770  175.6970  135.8250 O   0  0  0  0  0  0  0  0  0  0  0  0
  194.7950  174.8740  134.6110 N   0  0  0  0  0  2  0  0  0  0  0  0
  195.3880  175.4410  135.6120 C   0  0  0  0  0  0  0  0  0  0  0  0
  187.9890  175.9060  143.1590 O   0  0  0  0  0  0  0  0  0  0  0  0
  187.2190  177.8090  144.1800 O   0  0  0  0  0  1  0  0  0  0  0  0
  187.9380  177.2880  143.2850 C   0  0  0  0  0  0  0  0  0  0  0  0
  190.8610  178.2850  143.9580 C   0  0  0  0  0  2  0  0  0  0  0  0
  191.7670  176.1130  144.2350 O   0  0  0  0  0  0  0  0  0  0  0  0
  191.1610  177.0750  144.7810 C   0  0  0  0  0  0  0  0  0  0  0  0
  190.8170  176.9840  146.2220 C   0  0  0  0  0  0  0  0  0  0  0  0
  189.6000  176.9590  146.5440 O   0  0  0  0  0  0  0  0  0  0  0  0
  191.7680  176.9110  147.2490 O   0  0  0  0  0  0  0  0  0  0  0  0
  192.3840  175.7100  147.6900 C   0  0  0  0  0  1  0  0  0  0  0  0
  188.6590  177.4510  138.0850 C   0  0  0  0  0  2  0  0  0  0  0  0
  188.5680  178.2580  136.7920 C   0  0  0  0  0  3  0  0  0  0  0  0
  189.1310  177.4910  135.6090 C   0  0  0  0  0  1  0  0  0  0  0  0
  187.1410  178.6890  136.5080 C   0  0  0  0  0  1  0  0  0  0  0  0
  1 15  1  6  0  0  0
  1  6  1  0  0  0  0
  1  7  1  0  0  0  0
  2  8  2  0  0  0  0
  3  9  1  0  0  0  0
  4 12  1  0  0  0  0
  7  4  1  0  0  0  0
  8 23  1  0  0  0  0
  9  5  1  1  0  0  0
  9 11  1  0  0  0  0
 10 13  1  0  0  0  0
 10  3  1  0  0  0  0
 11  8  1  0  0  0  0
 11 22  1  1  0  0  0
 12  2  2  0  0  0  0
 13  6  1  6  0  0  0
 13 12  1  0  0  0  0
 14 15  1  0  0  0  0
 17 15  2  0  0  0  0
 18 19  2  0  0  0  0
 19 16  1  0  0  0  0
 19 14  1  0  0  0  0
 20 22  2  0  0  0  0
 22 21  1  0  0  0  0
 23 25  1  0  0  0  0
 24 25  2  0  0  0  0
 25 26  1  0  0  0  0
 26 27  2  0  0  0  0
 26 28  1  0  0  0  0
 28 29  1  0  0  0  0
 30 10  1  0  0  0  0
 31 30  1  0  0  0  0
 32 31  1  0  0  0  0
 33 31  1  0  0  0  0
M  END
>  <MODEL>
3

>  <REMARK>
 VINA RESULT:      -7.5      5.466      9.757
  Name = 
  8 active torsions:
  status: ('A' for Active; 'I' for Inactive)
    1  A    between atoms: C_2  and  C_9
    2  A    between atoms: C_3  and  C_19
    3  A    between atoms: C_4  and  C_10
    4  A    between atoms: C_4  and  C_22
    5  A    between atoms: C_10  and  C_13
    6  A    between atoms: C_13  and  O_20
    7  A    between atoms: C_19  and  N_27
    8  A    between atoms: C_29  and  C_32
                            x       y       z     vdW  Elec       q    Type
                         _______ _______ _______ _____ _____    ______ ____

>  <TORSDO>
F 8

$$$$
=
 OpenBabel11062414483D

 33 34  0  0  1  0  0  0  0  0999 V2000
  187.7900  178.0500  143.0640 C   0  0  1  0  0  3  0  0  0  0  0  0
  189.2720  177.3930  139.2840 C   0  0  0  0  0  0  0  0  0  0  0  0
  191.5110  178.0460  140.7360 N   0  0  0  0  0  2  0  0  0  0  0  0
  187.5480  178.2000  140.6490 O   0  0  0  0  0  0  0  0  0  0  0  0
  193.4420  176.6940  140.1190 C   0  0  0  0  0  1  0  0  0  0  0  0
  188.6600  176.8120  142.8680 C   0  0  0  0  0  2  0  0  0  0  0  0
  186.8330  178.1680  141.8820 C   0  0  0  0  0  2  0  0  0  0  0  0
  190.0600  177.2700  138.2570 C   0  0  0  0  0  0  0  0  0  0  0  0
  191.9340  176.8410  139.9950 C   0  0  2  0  0  3  0  0  0  0  0  0
  190.7580  177.7390  141.9050 N   0  0  0  0  0  0  0  0  0  0  0  0
  191.5210  176.9310  138.4960 C   0  0  1  0  0  3  0  0  0  0  0  0
  188.7370  177.4910  140.4600 C   0  0  0  0  0  0  0  0  0  0  0  0
  189.5400  176.9410  141.6180 C   0  0  2  0  0  3  0  0  0  0  0  0
  187.7130  177.9900  145.5970 N   0  0  0  0  0  2  0  0  0  0  0  0
  187.0220  177.9460  144.3400 C   0  0  0  0  0  0  0  0  0  0  0  0
  187.9770  177.9520  148.1010 C   0  0  0  0  0  1  0  0  0  0  0  0
  185.7680  177.8290  144.2920 O   0  0  0  0  0  0  0  0  0  0  0  0
  185.8280  177.8390  147.0350 N   0  0  0  0  0  2  0  0  0  0  0  0
  187.1130  177.8920  146.8940 C   0  0  0  0  0  0  0  0  0  0  0  0
  191.1970  174.4870  138.0890 O   0  0  0  0  0  1  0  0  0  0  0  0
  192.7520  175.6570  136.8770 O   0  0  0  0  0  0  0  0  0  0  0  0
  191.8720  175.6600  137.7800 C   0  0  0  0  0  0  0  0  0  0  0  0
  189.5700  177.6360  136.8930 C   0  0  0  0  0  2  0  0  0  0  0  0
  188.7400  179.8240  137.2670 O   0  0  0  0  0  0  0  0  0  0  0  0
  188.4570  178.6300  136.9750 C   0  0  0  0  0  0  0  0  0  0  0  0
  187.0460  178.2760  136.6790 C   0  0  0  0  0  0  0  0  0  0  0  0
  186.7170  178.0850  135.4790 O   0  0  0  0  0  0  0  0  0  0  0  0
  186.0570  178.1300  137.6610 O   0  0  0  0  0  0  0  0  0  0  0  0
  184.8090  177.4830  137.4530 C   0  0  0  0  0  1  0  0  0  0  0  0
  191.6160  177.0160  142.8480 C   0  0  0  0  0  2  0  0  0  0  0  0
  191.8670  177.8290  144.1160 C   0  0  0  0  0  3  0  0  0  0  0  0
  191.2310  179.2050  144.0370 C   0  0  0  0  0  1  0  0  0  0  0  0
  191.3790  177.0940  145.3510 C   0  0  0  0  0  1  0  0  0  0  0  0
  1 15  1  1  0  0  0
  2 12  2  0  0  0  0
  3 10  1  0  0  0  0
  4  7  1  0  0  0  0
  6  1  1  0  0  0  0
  7  1  1  0  0  0  0
  8 11  1  0  0  0  0
  8  2  2  0  0  0  0
  9  5  1  6  0  0  0
  9  3  1  0  0  0  0
 10 30  1  0  0  0  0
 11 22  1  1  0  0  0
 11  9  1  0  0  0  0
 12  4  1  0  0  0  0
 12 13  1  0  0  0  0
 13 10  1  0  0  0  0
 13  6  1  1  0  0  0
 14 19  1  0  0  0  0
 15 14  1  0  0  0  0
 17 15  2  0  0  0  0
 19 18  2  0  0  0  0
 19 16  1  0  0  0  0
 21 22  2  0  0  0  0
 22 20  1  0  0  0  0
 23 25  1  0  0  0  0
 23  8  1  0  0  0  0
 25 24  2  0  0  0  0
 26 25  1  0  0  0  0
 26 28  1  0  0  0  0
 27 26  2  0  0  0  0
 29 28  1  0  0  0  0
 30 31  1  0  0  0  0
 31 33  1  0  0  0  0
 32 31  1  0  0  0  0
M  END
>  <MODEL>
4

>  <REMARK>
 VINA RESULT:      -7.4      4.029      6.837
  Name = 
  8 active torsions:
  status: ('A' for Active; 'I' for Inactive)
    1  A    between atoms: C_2  and  C_9
    2  A    between atoms: C_3  and  C_19
    3  A    between atoms: C_4  and  C_10
    4  A    between atoms: C_4  and  C_22
    5  A    between atoms: C_10  and  C_13
    6  A    between atoms: C_13  and  O_20
    7  A    between atoms: C_19  and  N_27
    8  A    between atoms: C_29  and  C_32
                            x       y       z     vdW  Elec       q    Type
                         _______ _______ _______ _____ _____    ______ ____

>  <TORSDO>
F 8

$$$$
=
 OpenBabel11062414483D

 33 34  0  0  1  0  0  0  0  0999 V2000
  184.9390  178.5290  140.8200 C   0  0  1  0  0  3  0  0  0  0  0  0
  187.3520  177.7140  144.0510 C   0  0  0  0  0  0  0  0  0  0  0  0
  188.7690  176.6920  141.9310 N   0  0  0  0  0  2  0  0  0  0  0  0
  185.1950  177.9020  143.1570 O   0  0  0  0  0  0  0  0  0  0  0  0
  191.1610  177.1040  142.1300 C   0  0  0  0  0  1  0  0  0  0  0  0
  186.2500  179.3050  140.9190 C   0  0  0  0  0  2  0  0  0  0  0  0
  184.3000  178.4720  142.2040 C   0  0  0  0  0  2  0  0  0  0  0  0
  188.3290  177.3090  144.8070 C   0  0  0  0  0  0  0  0  0  0  0  0
  189.7870  177.4630  142.6710 C   0  0  2  0  0  3  0  0  0  0  0  0
  187.9620  177.5090  141.0870 N   0  0  0  0  0  0  0  0  0  0  0  0
  189.7120  177.1680  144.1980 C   0  0  1  0  0  3  0  0  0  0  0  0
  186.5780  178.0900  143.0820 C   0  0  0  0  0  0  0  0  0  0  0  0
  187.2570  178.5870  141.8250 C   0  0  2  0  0  3  0  0  0  0  0  0
  182.6240  178.8450  139.8400 N   0  0  0  0  0  2  0  0  0  0  0  0
  184.0160  179.1920  139.8540 C   0  0  0  0  0  0  0  0  0  0  0  0
  180.2240  178.9140  139.0810 C   0  0  0  0  0  1  0  0  0  0  0  0
  184.4760  180.0600  139.0640 O   0  0  0  0  0  0  0  0  0  0  0  0
  181.9080  180.3420  138.1390 N   0  0  0  0  0  2  0  0  0  0  0  0
  181.6260  179.3880  138.9660 C   0  0  0  0  0  0  0  0  0  0  0  0
  191.5910  177.4440  145.8210 O   0  0  0  0  0  1  0  0  0  0  0  0
  190.7150  179.2750  144.7560 O   0  0  0  0  0  0  0  0  0  0  0  0
  190.6880  178.0300  144.9440 C   0  0  0  0  0  0  0  0  0  0  0  0
  188.0460  176.8220  146.1920 C   0  0  0  0  0  2  0  0  0  0  0  0
  188.5980  178.4300  147.8430 O   0  0  0  0  0  0  0  0  0  0  0  0
  187.6970  177.9590  147.0970 C   0  0  0  0  0  0  0  0  0  0  0  0
  186.3490  178.5800  147.1160 C   0  0  0  0  0  0  0  0  0  0  0  0
  186.2140  179.6980  147.6800 O   0  0  0  0  0  0  0  0  0  0  0  0
  185.2150  178.0000  146.5310 O   0  0  0  0  0  0  0  0  0  0  0  0
  184.1270  178.7350  145.9880 C   0  0  0  0  0  1  0  0  0  0  0  0
  188.8060  178.0930  140.0410 C   0  0  0  0  0  2  0  0  0  0  0  0
  188.6990  177.3130  138.7330 C   0  0  0  0  0  3  0  0  0  0  0  0
  188.4360  178.2290  137.5510 C   0  0  0  0  0  1  0  0  0  0  0  0
  189.9410  176.4760  138.4830 C   0  0  0  0  0  1  0  0  0  0  0  0
  1 15  1  6  0  0  0
  1  6  1  0  0  0  0
  1  7  1  0  0  0  0
  2  8  2  0  0  0  0
  3  9  1  0  0  0  0
  7  4  1  0  0  0  0
  8 23  1  0  0  0  0
  9  5  1  6  0  0  0
  9 11  1  0  0  0  0
 10 13  1  0  0  0  0
 10  3  1  0  0  0  0
 11  8  1  0  0  0  0
 11 22  1  1  0  0  0
 12  4  1  0  0  0  0
 12  2  2  0  0  0  0
 13  6  1  6  0  0  0
 13 12  1  0  0  0  0
 14 15  1  0  0  0  0
 17 15  2  0  0  0  0
 18 19  2  0  0  0  0
 19 16  1  0  0  0  0
 19 14  1  0  0  0  0
 21 22  2  0  0  0  0
 22 20  1  0  0  0  0
 23 25  1  0  0  0  0
 25 26  1  0  0  0  0
 25 24  2  0  0  0  0
 26 27  2  0  0  0  0
 28 26  1  0  0  0  0
 29 28  1  0  0  0  0
 30 10  1  0  0  0  0
 31 30  1  0  0  0  0
 32 31  1  0  0  0  0
 33 31  1  0  0  0  0
M  END
>  <MODEL>
5

>  <REMARK>
 VINA RESULT:      -7.3      2.964      7.559
  Name = 
  8 active torsions:
  status: ('A' for Active; 'I' for Inactive)
    1  A    between atoms: C_2  and  C_9
    2  A    between atoms: C_3  and  C_19
    3  A    between atoms: C_4  and  C_10
    4  A    between atoms: C_4  and  C_22
    5  A    between atoms: C_10  and  C_13
    6  A    between atoms: C_13  and  O_20
    7  A    between atoms: C_19  and  N_27
    8  A    between atoms: C_29  and  C_32
                            x       y       z     vdW  Elec       q    Type
                         _______ _______ _______ _____ _____    ______ ____

>  <TORSDO>
F 8

$$$$
=
 OpenBabel11062414483D

 33 34  0  0  1  0  0  0  0  0999 V2000
  184.5680  178.9930  141.9070 C   0  0  1  0  0  3  0  0  0  0  0  0
  188.5080  177.8580  141.5780 C   0  0  0  0  0  0  0  0  0  0  0  0
  188.2840  178.6080  144.2120 N   0  0  0  0  0  2  0  0  0  0  0  0
  186.6260  178.8690  140.6170 O   0  0  0  0  0  0  0  0  0  0  0  0
  189.5270  177.1380  145.7030 C   0  0  0  0  0  1  0  0  0  0  0  0
  184.9820  177.7160  142.6310 C   0  0  0  0  0  2  0  0  0  0  0  0
  185.2090  179.0020  140.5230 C   0  0  0  0  0  2  0  0  0  0  0  0
  189.7550  177.5940  141.8330 C   0  0  0  0  0  0  0  0  0  0  0  0
  188.9880  177.3140  144.2930 C   0  0  2  0  0  3  0  0  0  0  0  0
  186.8750  178.4620  144.0610 N   0  0  0  0  0  0  0  0  0  0  0  0
  190.1480  177.2420  143.2570 C   0  0  1  0  0  3  0  0  0  0  0  0
  187.2370  178.1080  141.6170 C   0  0  0  0  0  0  0  0  0  0  0  0
  186.4980  177.6720  142.8630 C   0  0  2  0  0  3  0  0  0  0  0  0
  182.2590  178.8500  142.9420 N   0  0  0  0  0  2  0  0  0  0  0  0
  183.0820  179.0610  141.7860 C   0  0  0  0  0  0  0  0  0  0  0  0
  180.1260  178.6310  144.2620 C   0  0  0  0  0  1  0  0  0  0  0  0
  182.5690  179.3120  140.6620 O   0  0  0  0  0  0  0  0  0  0  0  0
  180.1380  179.1870  141.9270 N   0  0  0  0  0  2  0  0  0  0  0  0
  180.8270  178.8740  142.9760 C   0  0  0  0  0  0  0  0  0  0  0  0
  192.0560  175.7370  143.8410 O   0  0  0  0  0  1  0  0  0  0  0  0
  190.1800  174.8780  142.8440 O   0  0  0  0  0  0  0  0  0  0  0  0
  190.7920  175.8860  143.2870 C   0  0  0  0  0  0  0  0  0  0  0  0
  190.7930  177.8130  140.7810 C   0  0  0  0  0  2  0  0  0  0  0  0
  190.6930  175.9020  139.3830 O   0  0  0  0  0  0  0  0  0  0  0  0
  190.4170  177.1270  139.5080 C   0  0  0  0  0  0  0  0  0  0  0  0
  189.6940  177.8180  138.4110 C   0  0  0  0  0  0  0  0  0  0  0  0
  189.3160  179.0040  138.6010 O   0  0  0  0  0  0  0  0  0  0  0  0
  189.4160  177.2330  137.1680 O   0  0  0  0  0  0  0  0  0  0  0  0
  188.2550  176.4650  136.8840 C   0  0  0  0  0  1  0  0  0  0  0  0
  186.3310  177.8280  145.2660 C   0  0  0  0  0  2  0  0  0  0  0  0
  185.6120  178.8390  146.1570 C   0  0  0  0  0  3  0  0  0  0  0  0
  184.1090  178.6280  146.1480 C   0  0  0  0  0  1  0  0  0  0  0  0
  186.1410  178.7990  147.5790 C   0  0  0  0  0  1  0  0  0  0  0  0
  1 15  1  6  0  0  0
  1  6  1  0  0  0  0
  2 12  2  0  0  0  0
  2  8  2  0  0  0  0
  3  9  1  0  0  0  0
  4 12  1  0  0  0  0
  7  4  1  0  0  0  0
  7  1  1  0  0  0  0
  8 11  1  0  0  0  0
  9  5  1  1  0  0  0
 10  3  1  0  0  0  0
 10 30  1  0  0  0  0
 11 22  1  6  0  0  0
 11  9  1  0  0  0  0
 12 13  1  0  0  0  0
 13  6  1  6  0  0  0
 13 10  1  0  0  0  0
 14 19  1  0  0  0  0
 15 14  1  0  0  0  0
 17 15  2  0  0  0  0
 18 19  2  0  0  0  0
 19 16  1  0  0  0  0
 21 22  2  0  0  0  0
 22 20  1  0  0  0  0
 23  8  1  0  0  0  0
 24 25  2  0  0  0  0
 25 23  1  0  0  0  0
 26 27  2  0  0  0  0
 26 25  1  0  0  0  0
 28 26  1  0  0  0  0
 29 28  1  0  0  0  0
 30 31  1  0  0  0  0
 31 33  1  0  0  0  0
 32 31  1  0  0  0  0
M  END
>  <MODEL>
6

>  <REMARK>
 VINA RESULT:      -7.2      3.595      7.966
  Name = 
  8 active torsions:
  status: ('A' for Active; 'I' for Inactive)
    1  A    between atoms: C_2  and  C_9
    2  A    between atoms: C_3  and  C_19
    3  A    between atoms: C_4  and  C_10
    4  A    between atoms: C_4  and  C_22
    5  A    between atoms: C_10  and  C_13
    6  A    between atoms: C_13  and  O_20
    7  A    between atoms: C_19  and  N_27
    8  A    between atoms: C_29  and  C_32
                            x       y       z     vdW  Elec       q    Type
                         _______ _______ _______ _____ _____    ______ ____

>  <TORSDO>
F 8

$$$$
=
 OpenBabel11062414483D

 33 34  0  0  1  0  0  0  0  0999 V2000
  190.1420  177.8510  142.0650 C   0  0  1  0  0  3  0  0  0  0  0  0
  187.5630  177.8620  138.8610 C   0  0  0  0  0  0  0  0  0  0  0  0
  190.0330  177.6230  137.6830 N   0  0  0  0  0  2  0  0  0  0  0  0
  188.1110  178.6550  140.9960 O   0  0  0  0  0  0  0  0  0  0  0  0
  190.0150  176.0840  135.7950 C   0  0  0  0  0  1  0  0  0  0  0  0
  189.9930  176.5440  141.2920 C   0  0  0  0  0  2  0  0  0  0  0  0
  188.7610  178.4690  142.2520 C   0  0  0  0  0  2  0  0  0  0  0  0
  187.0660  177.8340  137.6600 C   0  0  0  0  0  0  0  0  0  0  0  0
  189.2380  176.5820  137.0030 C   0  0  2  0  0  3  0  0  0  0  0  0
  190.5220  177.2040  138.9530 N   0  0  0  0  0  0  0  0  0  0  0  0
  187.8500  177.1350  136.5630 C   0  0  1  0  0  3  0  0  0  0  0  0
  188.2950  177.7750  139.9260 C   0  0  0  0  0  0  0  0  0  0  0  0
  189.4420  176.7890  139.8820 C   0  0  2  0  0  3  0  0  0  0  0  0
  189.9580  177.4630  144.5630 N   0  0  0  0  0  2  0  0  0  0  0  0
  190.7770  177.5990  143.3920 C   0  0  0  0  0  0  0  0  0  0  0  0
  189.4390  177.1170  147.0020 C   0  0  0  0  0  1  0  0  0  0  0  0
  192.0310  177.5000  143.4630 O   0  0  0  0  0  0  0  0  0  0  0  0
  191.6790  177.0320  146.1430 N   0  0  0  0  0  2  0  0  0  0  0  0
  190.4250  177.2300  145.8970 C   0  0  0  0  0  0  0  0  0  0  0  0
  186.6280  174.9630  136.7430 O   0  0  0  0  0  1  0  0  0  0  0  0
  186.6450  176.1100  134.7590 O   0  0  0  0  0  0  0  0  0  0  0  0
  187.0190  176.0410  135.9600 C   0  0  0  0  0  0  0  0  0  0  0  0
  185.8420  178.6290  137.3410 C   0  0  0  0  0  2  0  0  0  0  0  0
  184.2120  177.2330  138.3470 O   0  0  0  0  0  0  0  0  0  0  0  0
  184.7600  178.3690  138.3390 C   0  0  0  0  0  0  0  0  0  0  0  0
  184.3430  179.3780  139.3450 C   0  0  0  0  0  0  0  0  0  0  0  0
  183.3390  180.0940  139.0910 O   0  0  0  0  0  0  0  0  0  0  0  0
  184.9950  179.5740  140.5710 O   0  0  0  0  0  0  0  0  0  0  0  0
  184.7350  178.8230  141.7480 C   0  0  0  0  0  1  0  0  0  0  0  0
  191.4640  176.0970  138.7590 C   0  0  0  0  0  2  0  0  0  0  0  0
  192.8900  176.6020  138.5540 C   0  0  0  0  0  3  0  0  0  0  0  0
  193.4910  177.1290  139.8450 C   0  0  0  0  0  1  0  0  0  0  0  0
  193.7790  175.5260  137.9600 C   0  0  0  0  0  1  0  0  0  0  0  0
  1  7  1  0  0  0  0
  1 15  1  1  0  0  0
  2 12  2  0  0  0  0
  3 10  1  0  0  0  0
  4  7  1  0  0  0  0
  6  1  1  0  0  0  0
  8  2  2  0  0  0  0
  9  5  1  6  0  0  0
  9  3  1  0  0  0  0
 10 13  1  0  0  0  0
 11 22  1  1  0  0  0
 11  9  1  0  0  0  0
 11  8  1  0  0  0  0
 12  4  1  0  0  0  0
 13 12  1  0  0  0  0
 13  6  1  1  0  0  0
 14 19  1  0  0  0  0
 15 17  2  0  0  0  0
 15 14  1  0  0  0  0
 19 18  2  0  0  0  0
 19 16  1  0  0  0  0
 21 22  2  0  0  0  0
 22 20  1  0  0  0  0
 23  8  1  0  0  0  0
 23 25  1  0  0  0  0
 25 24  2  0  0  0  0
 25 26  1  0  0  0  0
 26 28  1  0  0  0  0
 27 26  2  0  0  0  0
 28 29  1  0  0  0  0
 30 10  1  0  0  0  0
 31 30  1  0  0  0  0
 31 32  1  0  0  0  0
 33 31  1  0  0  0  0
M  END
>  <MODEL>
7

>  <REMARK>
 VINA RESULT:      -7.0      3.689      5.543
  Name = 
  8 active torsions:
  status: ('A' for Active; 'I' for Inactive)
    1  A    between atoms: C_2  and  C_9
    2  A    between atoms: C_3  and  C_19
    3  A    between atoms: C_4  and  C_10
    4  A    between atoms: C_4  and  C_22
    5  A    between atoms: C_10  and  C_13
    6  A    between atoms: C_13  and  O_20
    7  A    between atoms: C_19  and  N_27
    8  A    between atoms: C_29  and  C_32
                            x       y       z     vdW  Elec       q    Type
                         _______ _______ _______ _____ _____    ______ ____

>  <TORSDO>
F 8

$$$$
=
 OpenBabel11062414483D

 33 34  0  0  1  0  0  0  0  0999 V2000
  184.4860  178.8560  142.5050 C   0  0  1  0  0  3  0  0  0  0  0  0
  188.4390  177.8460  141.9790 C   0  0  0  0  0  0  0  0  0  0  0  0
  188.2690  178.3530  144.6740 N   0  0  0  0  0  2  0  0  0  0  0  0
  186.5110  178.8950  141.1580 O   0  0  0  0  0  0  0  0  0  0  0  0
  189.5820  176.7850  145.9960 C   0  0  0  0  0  1  0  0  0  0  0  0
  184.9460  177.5290  143.1000 C   0  0  0  0  0  2  0  0  0  0  0  0
  185.0900  179.0030  141.1120 C   0  0  0  0  0  2  0  0  0  0  0  0
  189.6980  177.5890  142.1790 C   0  0  0  0  0  0  0  0  0  0  0  0
  189.0020  177.0730  144.6210 C   0  0  2  0  0  3  0  0  0  0  0  0
  186.8600  178.1880  144.5460 N   0  0  0  0  0  0  0  0  0  0  0  0
  190.1360  177.1200  143.5550 C   0  0  1  0  0  3  0  0  0  0  0  0
  187.1650  178.0620  142.0710 C   0  0  0  0  0  0  0  0  0  0  0  0
  186.4680  177.5000  143.2910 C   0  0  2  0  0  3  0  0  0  0  0  0
  182.3370  178.6510  141.1760 N   0  0  0  0  0  2  0  0  0  0  0  0
  182.9960  178.9000  142.4260 C   0  0  0  0  0  0  0  0  0  0  0  0
  180.4030  178.3910  139.5850 C   0  0  0  0  0  1  0  0  0  0  0  0
  182.3350  179.1480  143.4700 O   0  0  0  0  0  0  0  0  0  0  0  0
  180.0900  178.8370  141.9230 N   0  0  0  0  0  2  0  0  0  0  0  0
  180.9230  178.6680  140.9480 C   0  0  0  0  0  0  0  0  0  0  0  0
  192.0490  175.5870  144.0390 O   0  0  0  0  0  1  0  0  0  0  0  0
  190.2400  174.8280  142.8540 O   0  0  0  0  0  0  0  0  0  0  0  0
  190.8080  175.7830  143.4470 C   0  0  0  0  0  0  0  0  0  0  0  0
  190.7030  177.9250  141.1260 C   0  0  0  0  0  2  0  0  0  0  0  0
  190.5760  176.0190  139.7230 O   0  0  0  0  0  0  0  0  0  0  0  0
  190.3650  177.2580  139.8310 C   0  0  0  0  0  0  0  0  0  0  0  0
  189.7510  177.9860  138.6940 C   0  0  0  0  0  0  0  0  0  0  0  0
  189.0560  179.0060  138.9430 O   0  0  0  0  0  0  0  0  0  0  0  0
  189.9080  177.6130  137.3520 O   0  0  0  0  0  0  0  0  0  0  0  0
  188.8500  177.5550  136.4060 C   0  0  0  0  0  1  0  0  0  0  0  0
  186.3610  177.4370  145.7020 C   0  0  0  0  0  2  0  0  0  0  0  0
  185.5830  178.3340  146.6610 C   0  0  0  0  0  3  0  0  0  0  0  0
  186.4770  179.3790  147.3050 C   0  0  0  0  0  1  0  0  0  0  0  0
  184.4090  179.0000  145.9680 C   0  0  0  0  0  1  0  0  0  0  0  0
  1 15  1  6  0  0  0
  1  6  1  0  0  0  0
  2 12  2  0  0  0  0
  2  8  2  0  0  0  0
  4 12  1  0  0  0  0
  7  4  1  0  0  0  0
  7  1  1  0  0  0  0
  8 11  1  0  0  0  0
  9  3  1  0  0  0  0
  9  5  1  1  0  0  0
 10  3  1  0  0  0  0
 10 30  1  0  0  0  0
 11 22  1  6  0  0  0
 11  9  1  0  0  0  0
 12 13  1  0  0  0  0
 13  6  1  6  0  0  0
 13 10  1  0  0  0  0
 14 15  1  0  0  0  0
 15 17  2  0  0  0  0
 16 19  1  0  0  0  0
 19 14  1  0  0  0  0
 19 18  2  0  0  0  0
 21 22  2  0  0  0  0
 22 20  1  0  0  0  0
 23  8  1  0  0  0  0
 24 25  2  0  0  0  0
 25 23  1  0  0  0  0
 26 27  2  0  0  0  0
 26 25  1  0  0  0  0
 28 26  1  0  0  0  0
 29 28  1  0  0  0  0
 30 31  1  0  0  0  0
 31 32  1  0  0  0  0
 33 31  1  0  0  0  0
M  END
>  <MODEL>
8

>  <REMARK>
 VINA RESULT:      -6.9      3.509      8.052
  Name = 
  8 active torsions:
  status: ('A' for Active; 'I' for Inactive)
    1  A    between atoms: C_2  and  C_9
    2  A    between atoms: C_3  and  C_19
    3  A    between atoms: C_4  and  C_10
    4  A    between atoms: C_4  and  C_22
    5  A    between atoms: C_10  and  C_13
    6  A    between atoms: C_13  and  O_20
    7  A    between atoms: C_19  and  N_27
    8  A    between atoms: C_29  and  C_32
                            x       y       z     vdW  Elec       q    Type
                         _______ _______ _______ _____ _____    ______ ____

>  <TORSDO>
F 8

$$$$
=
 OpenBabel11062414483D

 33 34  0  0  1  0  0  0  0  0999 V2000
  189.7900  177.1800  140.3980 C   0  0  1  0  0  3  0  0  0  0  0  0
  186.0650  178.3270  141.7140 C   0  0  0  0  0  0  0  0  0  0  0  0
  186.9440  176.6380  143.6950 N   0  0  0  0  0  2  0  0  0  0  0  0
  187.4770  177.7680  139.9300 O   0  0  0  0  0  0  0  0  0  0  0  0
  186.3400  177.4260  145.9200 C   0  0  0  0  0  1  0  0  0  0  0  0
  189.7380  178.0860  141.6240 C   0  0  0  0  0  2  0  0  0  0  0  0
  188.7860  177.6910  139.3700 C   0  0  0  0  0  2  0  0  0  0  0  0
  184.9780  178.4660  142.4130 C   0  0  0  0  0  0  0  0  0  0  0  0
  186.4350  177.8010  144.4500 C   0  0  2  0  0  3  0  0  0  0  0  0
  188.2600  176.8400  143.1890 N   0  0  0  0  0  0  0  0  0  0  0  0
  185.0440  178.2510  143.9150 C   0  0  1  0  0  3  0  0  0  0  0  0
  187.2600  178.0900  141.2730 C   0  0  0  0  0  0  0  0  0  0  0  0
  188.3640  178.0280  142.3050 C   0  0  2  0  0  3  0  0  0  0  0  0
  191.3880  176.6150  138.5130 N   0  0  0  0  0  2  0  0  0  0  0  0
  191.1640  177.1740  139.8160 C   0  0  0  0  0  0  0  0  0  0  0  0
  192.7050  175.9150  136.4840 C   0  0  0  0  0  1  0  0  0  0  0  0
  192.1130  177.6710  140.4800 O   0  0  0  0  0  0  0  0  0  0  0  0
  193.7150  177.0560  138.3390 N   0  0  0  0  0  2  0  0  0  0  0  0
  192.6470  176.5310  137.8350 C   0  0  0  0  0  0  0  0  0  0  0  0
  183.7090  179.3830  145.6980 O   0  0  0  0  0  1  0  0  0  0  0  0
  185.0190  180.6220  144.2840 O   0  0  0  0  0  0  0  0  0  0  0  0
  184.5870  179.4900  144.6270 C   0  0  0  0  0  0  0  0  0  0  0  0
  183.6660  178.6530  141.7210 C   0  0  0  0  0  2  0  0  0  0  0  0
  183.3090  176.8340  140.2450 O   0  0  0  0  0  0  0  0  0  0  0  0
  183.6860  178.0320  140.3620 C   0  0  0  0  0  0  0  0  0  0  0  0
  184.0850  178.7830  139.1460 C   0  0  0  0  0  0  0  0  0  0  0  0
  184.3990  179.9970  139.2700 O   0  0  0  0  0  0  0  0  0  0  0  0
  184.1460  178.2190  137.8650 O   0  0  0  0  0  0  0  0  0  0  0  0
  185.1790  177.3520  137.4170 C   0  0  0  0  0  1  0  0  0  0  0  0
  189.1880  176.9760  144.3150 C   0  0  0  0  0  2  0  0  0  0  0  0
  190.5960  176.5190  143.9410 C   0  0  0  0  0  3  0  0  0  0  0  0
  191.5310  176.5380  145.1370 C   0  0  0  0  0  1  0  0  0  0  0  0
  190.5810  175.1400  143.3070 C   0  0  0  0  0  1  0  0  0  0  0  0
  1 15  1  6  0  0  0
  1  6  1  0  0  0  0
  2  8  2  0  0  0  0
  3  9  1  0  0  0  0
  4 12  1  0  0  0  0
  7  4  1  0  0  0  0
  7  1  1  0  0  0  0
  8 11  1  0  0  0  0
  9  5  1  1  0  0  0
 10  3  1  0  0  0  0
 10 30  1  0  0  0  0
 11  9  1  0  0  0  0
 11 22  1  1  0  0  0
 12  2  2  0  0  0  0
 12 13  1  0  0  0  0
 13  6  1  6  0  0  0
 13 10  1  0  0  0  0
 14 15  1  0  0  0  0
 15 17  2  0  0  0  0
 16 19  1  0  0  0  0
 19 18  2  0  0  0  0
 19 14  1  0  0  0  0
 21 22  2  0  0  0  0
 22 20  1  0  0  0  0
 23  8  1  0  0  0  0
 24 25  2  0  0  0  0
 25 23  1  0  0  0  0
 26 27  2  0  0  0  0
 26 25  1  0  0  0  0
 28 26  1  0  0  0  0
 29 28  1  0  0  0  0
 31 30  1  0  0  0  0
 31 32  1  0  0  0  0
 33 31  1  0  0  0  0
M  END
>  <MODEL>
9

>  <REMARK>
 VINA RESULT:      -6.9      3.423      6.444
  Name = 
  8 active torsions:
  status: ('A' for Active; 'I' for Inactive)
    1  A    between atoms: C_2  and  C_9
    2  A    between atoms: C_3  and  C_19
    3  A    between atoms: C_4  and  C_10
    4  A    between atoms: C_4  and  C_22
    5  A    between atoms: C_10  and  C_13
    6  A    between atoms: C_13  and  O_20
    7  A    between atoms: C_19  and  N_27
    8  A    between atoms: C_29  and  C_32
                            x       y       z     vdW  Elec       q    Type
                         _______ _______ _______ _____ _____    ______ ____

>  <TORSDO>
F 8

$$$$
