=
 OpenBabel11062417213D

 60 66  0  0  1  0  0  0  0  0999 V2000
  189.3290  175.9710  135.1440 C   0  0  0  0  0  2  0  0  0  0  0  0
  192.6440  174.8550  136.5680 O   0  0  0  0  0  0  0  0  0  0  0  0
  188.9790  176.3480  138.8260 S   0  0  0  0  0  0  0  0  0  0  0  0
  187.2250  173.6820  135.4560 C   0  0  0  0  0  1  0  0  0  0  0  0
  192.4570  177.4760  140.7110 C   0  0  0  0  0  3  0  0  0  0  0  0
  184.4710  178.3790  140.8070 C   0  0  0  0  0  3  0  0  0  0  0  0
  186.5620  178.5210  137.3180 N   0  0  0  0  0  0  0  0  0  0  0  0
  190.6680  176.8310  139.2010 C   0  0  0  0  0  0  0  0  0  0  0  0
  194.4030  175.7550  135.3650 O   0  0  0  0  0  0  0  0  0  0  0  0
  185.9420  178.4710  140.8000 C   0  0  0  0  0  0  0  0  0  0  0  0
  190.1660  177.2750  141.6660 C   0  0  0  0  0  2  0  0  0  0  0  0
  183.7980  178.0790  139.6880 C   0  0  0  0  0  0  0  0  0  0  0  0
  185.9330  178.2280  138.4160 C   0  0  0  0  0  0  0  0  0  0  0  0
  188.9690  178.1810  141.3960 C   0  0  0  0  0  2  0  0  0  0  0  0
  189.3870  174.6240  138.3440 C   0  0  0  0  0  2  0  0  0  0  0  0
  187.9580  176.0830  135.7600 C   0  0  1  0  0  3  0  0  0  0  0  0
  189.1480  174.3520  136.8470 C   0  0  2  0  0  3  0  0  0  0  0  0
  191.5920  176.7820  138.1670 C   0  0  0  0  0  3  0  0  0  0  0  0
  193.8690  176.7880  137.3470 O   0  0  0  0  0  0  0  0  0  0  0  0
  193.3950  177.3650  139.6660 C   0  0  0  0  0  0  0  0  0  0  0  0
  187.8490  177.9460  142.4050 C   0  0  1  0  0  3  0  0  0  0  0  0
  182.3180  177.9690  139.7440 C   0  0  0  0  0  1  0  0  0  0  0  0
  192.9540  177.0070  138.3870 C   0  0  0  0  0  0  0  0  0  0  0  0
  192.2500  173.8870  135.6050 C   0  0  2  0  0  3  0  0  0  0  0  0
  191.0940  177.2130  140.4910 C   0  0  0  0  0  0  0  0  0  0  0  0
  186.5940  178.4280  139.6730 N   0  0  0  0  0  0  0  0  0  0  0  0
  190.1100  175.0940  136.0140 N   0  0  1  0  0  0  0  0  0  0  0  0
  193.6580  175.8000  136.3760 C   0  0  0  0  0  0  0  0  0  0  0  0
  185.6770  177.0770  135.5480 C   0  0  1  0  0  3  0  0  0  0  0  0
  186.8760  176.5230  134.7830 C   0  0  0  0  0  2  0  0  0  0  0  0
  184.5080  177.7400  138.4000 C   0  0  0  0  0  2  0  0  0  0  0  0
  186.6400  178.6760  142.0320 N   0  0  0  0  0  2  0  0  0  0  0  0
  186.0190  178.3630  136.0600 O   0  0  0  0  0  0  0  0  0  0  0  0
  187.7370  174.7410  136.4260 C   0  0  2  0  0  3  0  0  0  0  0  0
  190.8060  174.1470  135.1410 C   0  0  0  0  0  2  0  0  0  0  0  0
  187.5470  176.5820  142.5130 O   0  0  0  0  0  1  0  0  0  0  0  0
  183.9110  178.6080  134.5960 C   0  0  0  0  0  1  0  0  0  0  0  0
  184.4730  177.1910  134.6080 C   0  0  2  0  0  3  0  0  0  0  0  0
  183.1490  172.7370  136.2670 N   0  0  0  0  0  1  0  0  0  0  0  0
  182.0390  176.5350  134.8620 C   0  0  0  0  0  3  0  0  0  0  0  0
  182.7760  174.0370  135.8190 C   0  0  0  0  0  0  0  0  0  0  0  0
  183.7670  174.9460  135.4390 C   0  0  0  0  0  3  0  0  0  0  0  0
  181.0790  175.5880  135.2190 C   0  0  0  0  0  3  0  0  0  0  0  0
  183.3980  176.2090  134.9710 C   0  0  0  0  0  0  0  0  0  0  0  0
  181.4610  174.3700  135.6890 N   0  0  0  0  0  0  0  0  0  0  0  0
  192.3160  172.4860  136.2130 C   0  0  0  0  0  2  0  0  0  0  0  0
  193.6750  171.8120  136.0220 C   0  0  1  0  0  0  0  0  0  0  0  0
  194.0460  170.8550  137.0690 C   0  0  2  0  0  3  0  0  0  0  0  0
  194.1770  171.5860  134.5970 C   0  0  0  0  0  1  0  0  0  0  0  0
  194.9630  172.4640  137.1660 P   0  0  1  0  0  0  0  0  0  0  0  0
  196.6190  172.3090  136.8280 O   0  0  0  0  0  0  0  0  0  0  0  0
  194.5760  173.2100  138.4260 O   0  0  0  0  0  1  0  0  0  0  0  0
  194.9970  169.7520  136.6190 C   0  0  0  0  0  2  0  0  0  0  0  0
  196.1740  169.6560  137.5710 C   0  0  0  0  0  1  0  0  0  0  0  0
  194.7650  177.5590  139.8910 O   0  0  0  0  0  0  0  0  0  0  0  0
  195.5370  176.7400  140.7600 C   0  0  0  0  0  2  0  0  0  0  0  0
  195.8110  175.3990  140.0970 C   0  0  0  0  0  2  0  0  0  0  0  0
  197.2760  175.0370  140.2450 C   0  0  0  0  0  2  0  0  0  0  0  0
  199.0550  174.3210  138.6860 C   0  0  0  0  0  1  0  0  0  0  0  0
  197.9990  175.3700  138.9570 C   0  0  0  0  0  2  0  0  0  0  0  0
  1 16  1  0  0  0  0
  1 27  1  0  0  0  0
  3  8  1  0  0  0  0
  7 13  2  0  0  0  0
  8 25  2  0  0  0  0
  9 28  2  0  0  0  0
 10  6  1  0  0  0  0
 10 32  1  0  0  0  0
 12 22  1  0  0  0  0
 12  6  2  0  0  0  0
 13 26  1  0  0  0  0
 14 11  1  0  0  0  0
 14 21  1  0  0  0  0
 15  3  1  0  0  0  0
 16 30  1  6  0  0  0
 16 34  1  0  0  0  0
 17 15  1  1  0  0  0
 18 23  2  0  0  0  0
 18  8  1  0  0  0  0
 19 23  1  0  0  0  0
 20 55  1  0  0  0  0
 20  5  2  0  0  0  0
 21 36  1  6  0  0  0
 23 20  1  0  0  0  0
 24 46  1  1  0  0  0
 24  2  1  0  0  0  0
 25  5  1  0  0  0  0
 25 11  1  0  0  0  0
 26 10  2  0  0  0  0
 27 35  1  6  0  0  0
 27 17  1  0  0  0  0
 28  2  1  0  0  0  0
 28 19  1  0  0  0  0
 29 38  1  6  0  0  0
 29 33  1  0  0  0  0
 30 29  1  0  0  0  0
 31 13  1  0  0  0  0
 31 12  1  0  0  0  0
 32 21  1  0  0  0  0
 33  7  1  0  0  0  0
 34  4  1  6  0  0  0
 34 17  1  0  0  0  0
 35 24  1  0  0  0  0
 38 37  1  1  0  0  0
 38 44  1  0  0  0  0
 40 44  2  0  0  0  0
 40 43  1  0  0  0  0
 41 39  1  0  0  0  0
 42 41  2  0  0  0  0
 43 45  2  0  0  0  0
 44 42  1  0  0  0  0
 45 41  1  0  0  0  0
 47 49  1  6  0  0  0
 47 46  1  0  0  0  0
 47 48  1  0  0  0  0
 47 50  1  0  0  0  0
 48 53  1  6  0  0  0
 48 50  1  0  0  0  0
 50 51  2  6  0  0  0
 50 52  1  0  0  0  0
 53 54  1  0  0  0  0
 55 56  1  0  0  0  0
 57 58  1  0  0  0  0
 57 56  1  0  0  0  0
 59 60  1  0  0  0  0
 60 58  1  0  0  0  0
M  END
>  <MODEL>
1

>  <REMARK>
 VINA RESULT:      -3.0      0.000      0.000
  Name = 
  10 active torsions:
  status: ('A' for Active; 'I' for Inactive)
    1  A    between atoms: C_4  and  C_51
    2  A    between atoms: C_6  and  C_24
    3  A    between atoms: C_9  and  C_34
    4  A    between atoms: C_9  and  C_39
    5  A    between atoms: C_30  and  C_45
    6  A    between atoms: C_30  and  C_48
    7  A    between atoms: C_32  and  O_59
    8  A    between atoms: C_34  and  C_52
    9  A    between atoms: C_40  and  C_51
   10  A    between atoms: C_52  and  O_59
                            x       y       z     vdW  Elec       q    Type
                         _______ _______ _______ _____ _____    ______ ____

>  <TORSDO>
F 10

$$$$
=
 OpenBabel11062417213D

 60 66  0  0  1  0  0  0  0  0999 V2000
  190.2900  177.4790  137.0460 C   0  0  0  0  0  2  0  0  0  0  0  0
  186.7100  177.8780  138.1800 O   0  0  0  0  0  0  0  0  0  0  0  0
  188.8080  174.0790  136.7950 S   0  0  0  0  0  0  0  0  0  0  0  0
  191.9980  176.2610  139.3630 C   0  0  0  0  0  1  0  0  0  0  0  0
  184.8430  174.0810  135.6990 C   0  0  0  0  0  3  0  0  0  0  0  0
  191.7720  170.0940  134.8690 C   0  0  0  0  0  3  0  0  0  0  0  0
  191.6340  174.1520  134.5940 N   0  0  0  0  0  0  0  0  0  0  0  0
  187.1450  174.5540  136.3090 C   0  0  0  0  0  0  0  0  0  0  0  0
  185.7480  179.7530  137.2260 O   0  0  0  0  0  0  0  0  0  0  0  0
  190.4880  170.8110  134.7640 C   0  0  0  0  0  0  0  0  0  0  0  0
  186.3850  172.1420  135.9510 C   0  0  0  0  0  2  0  0  0  0  0  0
  192.9060  170.7560  135.1380 C   0  0  0  0  0  0  0  0  0  0  0  0
  191.6550  172.8980  134.9280 C   0  0  0  0  0  0  0  0  0  0  0  0
  187.5540  171.7670  135.0470 C   0  0  0  0  0  2  0  0  0  0  0  0
  188.6990  174.7550  138.4990 C   0  0  0  0  0  2  0  0  0  0  0  0
  191.1890  176.2720  136.9670 C   0  0  1  0  0  3  0  0  0  0  0  0
  189.6370  175.9570  138.7220 C   0  0  2  0  0  3  0  0  0  0  0  0
  186.8380  175.9070  136.3160 C   0  0  0  0  0  3  0  0  0  0  0  0
  185.2450  177.7280  136.2640 O   0  0  0  0  0  0  0  0  0  0  0  0
  184.5300  175.4520  135.7670 C   0  0  0  0  0  0  0  0  0  0  0  0
  188.0470  170.3500  135.3260 C   0  0  1  0  0  3  0  0  0  0  0  0
  194.1740  169.9930  135.2620 C   0  0  0  0  0  1  0  0  0  0  0  0
  185.5390  176.3680  136.0870 C   0  0  0  0  0  0  0  0  0  0  0  0
  187.5300  178.5620  139.1190 C   0  0  2  0  0  3  0  0  0  0  0  0
  186.1440  173.6200  135.9670 C   0  0  0  0  0  0  0  0  0  0  0  0
  190.4660  172.1130  134.7640 N   0  0  0  0  0  0  0  0  0  0  0  0
  189.1930  177.1260  137.9460 N   0  0  1  0  0  0  0  0  0  0  0  0
  185.9080  178.5070  137.2210 C   0  0  0  0  0  0  0  0  0  0  0  0
  193.2790  175.3180  135.9860 C   0  0  1  0  0  3  0  0  0  0  0  0
  192.6060  176.5870  136.5050 C   0  0  0  0  0  2  0  0  0  0  0  0
  192.9130  172.2380  135.4280 C   0  0  0  0  0  2  0  0  0  0  0  0
  189.2790  170.0660  134.5940 N   0  0  0  0  0  2  0  0  0  0  0  0
  192.7210  174.9940  134.7150 O   0  0  0  0  0  0  0  0  0  0  0  0
  191.0710  175.6270  138.3320 C   0  0  2  0  0  3  0  0  0  0  0  0
  189.0150  178.2580  138.8570 C   0  0  0  0  0  2  0  0  0  0  0  0
  188.2710  170.1550  136.6950 O   0  0  0  0  0  1  0  0  0  0  0  0
  195.3410  174.8880  134.5960 C   0  0  0  0  0  1  0  0  0  0  0  0
  194.7870  175.5520  135.8510 C   0  0  2  0  0  3  0  0  0  0  0  0
  199.0040  174.1570  138.0010 N   0  0  0  0  0  1  0  0  0  0  0  0
  194.8750  174.8660  138.2890 C   0  0  0  0  0  3  0  0  0  0  0  0
  197.6090  174.4280  138.1040 C   0  0  0  0  0  0  0  0  0  0  0  0
  196.9000  174.8360  136.9700 C   0  0  0  0  0  3  0  0  0  0  0  0
  195.6100  174.4250  139.3890 C   0  0  0  0  0  3  0  0  0  0  0  0
  195.5270  175.0710  137.0640 C   0  0  0  0  0  0  0  0  0  0  0  0
  196.9500  174.2190  139.2780 N   0  0  0  0  0  0  0  0  0  0  0  0
  187.1890  178.1090  140.5390 C   0  0  0  0  0  2  0  0  0  0  0  0
  188.3980  178.1070  141.4750 C   0  0  1  0  0  0  0  0  0  0  0  0
  188.8960  176.7790  141.8440 C   0  0  2  0  0  3  0  0  0  0  0  0
  189.3840  179.2710  141.3850 C   0  0  0  0  0  1  0  0  0  0  0  0
  187.9650  177.6350  143.2010 P   0  0  1  0  0  0  0  0  0  0  0  0
  188.9490  178.0620  144.5170 O   0  0  0  0  0  1  0  0  0  0  0  0
  186.6820  176.8910  143.5040 O   0  0  0  0  0  0  0  0  0  0  0  0
  190.3780  176.7260  142.1960 C   0  0  0  0  0  2  0  0  0  0  0  0
  190.6120  175.7430  143.3270 C   0  0  0  0  0  1  0  0  0  0  0  0
  183.2210  175.9130  135.5700 O   0  0  0  0  0  0  0  0  0  0  0  0
  182.2290  175.9070  136.5880 C   0  0  0  0  0  2  0  0  0  0  0  0
  182.5930  176.9150  137.6690 C   0  0  0  0  0  2  0  0  0  0  0  0
  183.0880  176.1910  138.9060 C   0  0  0  0  0  2  0  0  0  0  0  0
  183.3680  178.4060  139.9650 C   0  0  0  0  0  1  0  0  0  0  0  0
  182.7680  177.0270  140.1270 C   0  0  0  0  0  2  0  0  0  0  0  0
  2 24  1  0  0  0  0
  3 15  1  0  0  0  0
  5 20  2  0  0  0  0
  5 25  1  0  0  0  0
  6 12  2  0  0  0  0
  7 33  1  0  0  0  0
  7 13  2  0  0  0  0
  8 18  1  0  0  0  0
  8  3  1  0  0  0  0
 10  6  1  0  0  0  0
 11 25  1  0  0  0  0
 12 22  1  0  0  0  0
 12 31  1  0  0  0  0
 13 31  1  0  0  0  0
 14 21  1  0  0  0  0
 14 11  1  0  0  0  0
 16 30  1  1  0  0  0
 16  1  1  0  0  0  0
 16 34  1  0  0  0  0
 17 15  1  6  0  0  0
 19 28  1  0  0  0  0
 20 23  1  0  0  0  0
 21 36  1  1  0  0  0
 23 19  1  0  0  0  0
 23 18  2  0  0  0  0
 24 46  1  1  0  0  0
 25  8  2  0  0  0  0
 26 10  2  0  0  0  0
 26 13  1  0  0  0  0
 27  1  1  6  0  0  0
 27 17  1  0  0  0  0
 27 35  1  0  0  0  0
 28  9  2  0  0  0  0
 28  2  1  0  0  0  0
 29 38  1  6  0  0  0
 29 30  1  0  0  0  0
 32 10  1  0  0  0  0
 32 21  1  0  0  0  0
 33 29  1  0  0  0  0
 34 17  1  0  0  0  0
 34  4  1  1  0  0  0
 35 24  1  0  0  0  0
 38 37  1  6  0  0  0
 38 44  1  0  0  0  0
 39 41  1  0  0  0  0
 40 43  1  0  0  0  0
 41 45  1  0  0  0  0
 42 44  1  0  0  0  0
 42 41  2  0  0  0  0
 44 40  2  0  0  0  0
 45 43  2  0  0  0  0
 46 47  1  0  0  0  0
 47 49  1  6  0  0  0
 47 48  1  0  0  0  0
 47 50  1  0  0  0  0
 48 53  1  1  0  0  0
 48 50  1  0  0  0  0
 50 52  2  1  0  0  0
 50 51  1  0  0  0  0
 53 54  1  0  0  0  0
 55 20  1  0  0  0  0
 55 56  1  0  0  0  0
 56 57  1  0  0  0  0
 57 58  1  0  0  0  0
 58 60  1  0  0  0  0
 59 60  1  0  0  0  0
M  END
>  <MODEL>
2

>  <REMARK>
 VINA RESULT:      -2.3      2.942     10.297
  Name = 
  10 active torsions:
  status: ('A' for Active; 'I' for Inactive)
    1  A    between atoms: C_4  and  C_51
    2  A    between atoms: C_6  and  C_24
    3  A    between atoms: C_9  and  C_34
    4  A    between atoms: C_9  and  C_39
    5  A    between atoms: C_30  and  C_45
    6  A    between atoms: C_30  and  C_48
    7  A    between atoms: C_32  and  O_59
    8  A    between atoms: C_34  and  C_52
    9  A    between atoms: C_40  and  C_51
   10  A    between atoms: C_52  and  O_59
                            x       y       z     vdW  Elec       q    Type
                         _______ _______ _______ _____ _____    ______ ____

>  <TORSDO>
F 10

$$$$
=
 OpenBabel11062417213D

 60 66  0  0  1  0  0  0  0  0999 V2000
  189.6180  177.8950  137.6130 C   0  0  0  0  0  2  0  0  0  0  0  0
  186.0920  177.9350  138.9650 O   0  0  0  0  0  0  0  0  0  0  0  0
  188.3640  174.4260  137.1530 S   0  0  0  0  0  0  0  0  0  0  0  0
  191.5410  176.6240  139.7250 C   0  0  0  0  0  1  0  0  0  0  0  0
  184.3510  174.2230  136.2730 C   0  0  0  0  0  3  0  0  0  0  0  0
  191.4790  170.8410  134.7420 C   0  0  0  0  0  3  0  0  0  0  0  0
  191.0430  174.8860  134.8190 N   0  0  0  0  0  0  0  0  0  0  0  0
  186.6460  174.8140  136.7980 C   0  0  0  0  0  0  0  0  0  0  0  0
  184.9480  179.8040  138.2260 O   0  0  0  0  0  0  0  0  0  0  0  0
  190.1440  171.4660  134.7660 C   0  0  0  0  0  0  0  0  0  0  0  0
  186.0360  172.3890  136.2770 C   0  0  0  0  0  2  0  0  0  0  0  0
  192.5780  171.5610  135.0050 C   0  0  0  0  0  0  0  0  0  0  0  0
  191.1700  173.6140  135.0450 C   0  0  0  0  0  0  0  0  0  0  0  0
  187.1730  172.1770  135.2840 C   0  0  0  0  0  2  0  0  0  0  0  0
  188.3090  174.9520  138.9110 C   0  0  0  0  0  2  0  0  0  0  0  0
  190.5930  176.7680  137.3840 C   0  0  1  0  0  3  0  0  0  0  0  0
  189.1720  176.1980  139.1860 C   0  0  2  0  0  3  0  0  0  0  0  0
  186.2470  176.1360  136.9360 C   0  0  0  0  0  3  0  0  0  0  0  0
  184.5310  177.8320  137.1230 O   0  0  0  0  0  0  0  0  0  0  0  0
  183.9480  175.5570  136.4740 C   0  0  0  0  0  0  0  0  0  0  0  0
  187.7790  170.7820  135.4150 C   0  0  1  0  0  3  0  0  0  0  0  0
  193.9010  170.8860  134.9970 C   0  0  0  0  0  1  0  0  0  0  0  0
  184.9080  176.5160  136.8160 C   0  0  0  0  0  0  0  0  0  0  0  0
  186.9160  178.5990  139.9140 C   0  0  2  0  0  3  0  0  0  0  0  0
  185.6940  173.8400  136.4310 C   0  0  0  0  0  0  0  0  0  0  0  0
  190.0310  172.7590  134.8780 N   0  0  0  0  0  0  0  0  0  0  0  0
  188.6030  177.3900  138.5360 N   0  0  1  0  0  0  0  0  0  0  0  0
  185.1930  178.5780  138.1060 C   0  0  0  0  0  0  0  0  0  0  0  0
  192.6820  176.0550  136.2160 C   0  0  1  0  0  3  0  0  0  0  0  0
  191.9550  177.2240  136.8760 C   0  0  0  0  0  2  0  0  0  0  0  0
  192.4990  173.0100  135.4200 C   0  0  0  0  0  2  0  0  0  0  0  0
  188.9820  170.6500  134.5970 N   0  0  0  0  0  2  0  0  0  0  0  0
  192.0740  175.7940  134.9540 O   0  0  0  0  0  0  0  0  0  0  0  0
  190.6000  176.0080  138.6940 C   0  0  2  0  0  3  0  0  0  0  0  0
  188.4010  178.4290  139.5480 C   0  0  0  0  0  2  0  0  0  0  0  0
  188.0950  170.4940  136.7490 O   0  0  0  0  0  1  0  0  0  0  0  0
  194.4120  176.9960  134.6380 C   0  0  0  0  0  1  0  0  0  0  0  0
  194.1600  176.4100  136.0230 C   0  0  2  0  0  3  0  0  0  0  0  0
  195.6560  172.7020  138.9150 N   0  0  0  0  0  1  0  0  0  0  0  0
  195.9570  174.7850  135.2820 C   0  0  0  0  0  3  0  0  0  0  0  0
  195.7340  173.3930  137.6710 C   0  0  0  0  0  0  0  0  0  0  0  0
  194.9450  174.5270  137.4610 C   0  0  0  0  0  3  0  0  0  0  0  0
  196.7520  173.6690  135.5420 C   0  0  0  0  0  3  0  0  0  0  0  0
  195.0450  175.2200  136.2540 C   0  0  0  0  0  0  0  0  0  0  0  0
  196.6260  172.9990  136.7190 N   0  0  0  0  0  0  0  0  0  0  0  0
  186.6920  178.0090  141.3060 C   0  0  0  0  0  2  0  0  0  0  0  0
  185.6260  178.7540  142.1100 C   0  0  1  0  0  0  0  0  0  0  0  0
  184.8650  177.9250  143.0490 C   0  0  2  0  0  3  0  0  0  0  0  0
  185.8690  180.2250  142.4450 C   0  0  0  0  0  1  0  0  0  0  0  0
  183.9150  178.3990  141.5290 P   0  0  1  0  0  0  0  0  0  0  0  0
  182.6260  179.4550  141.8500 O   0  0  0  0  0  1  0  0  0  0  0  0
  183.6170  177.1700  140.6950 O   0  0  0  0  0  0  0  0  0  0  0  0
  184.3060  178.6730  144.2540 C   0  0  0  0  0  2  0  0  0  0  0  0
  185.3160  178.6730  145.3850 C   0  0  0  0  0  1  0  0  0  0  0  0
  182.6010  175.9340  136.3850 O   0  0  0  0  0  0  0  0  0  0  0  0
  181.6120  175.5260  137.3220 C   0  0  0  0  0  2  0  0  0  0  0  0
  180.8080  176.7330  137.7820 C   0  0  0  0  0  2  0  0  0  0  0  0
  181.1300  177.9330  136.9130 C   0  0  0  0  0  2  0  0  0  0  0  0
  181.4780  179.9740  138.2620 C   0  0  0  0  0  1  0  0  0  0  0  0
  180.4590  179.1590  137.4960 C   0  0  0  0  0  2  0  0  0  0  0  0
  2 24  1  0  0  0  0
  3 15  1  0  0  0  0
  5 25  2  0  0  0  0
  5 20  1  0  0  0  0
  6 10  1  0  0  0  0
  6 12  2  0  0  0  0
  7 33  1  0  0  0  0
  7 13  2  0  0  0  0
  8 18  2  0  0  0  0
  8  3  1  0  0  0  0
 10 26  2  0  0  0  0
 11 25  1  0  0  0  0
 12 31  1  0  0  0  0
 13 31  1  0  0  0  0
 14 21  1  0  0  0  0
 14 11  1  0  0  0  0
 16 30  1  1  0  0  0
 16  1  1  0  0  0  0
 16 34  1  0  0  0  0
 17 15  1  6  0  0  0
 19 28  1  0  0  0  0
 20 23  2  0  0  0  0
 21 36  1  1  0  0  0
 22 12  1  0  0  0  0
 23 18  1  0  0  0  0
 23 19  1  0  0  0  0
 24 46  1  1  0  0  0
 25  8  1  0  0  0  0
 26 13  1  0  0  0  0
 27  1  1  6  0  0  0
 27 17  1  0  0  0  0
 27 35  1  0  0  0  0
 28  9  2  0  0  0  0
 28  2  1  0  0  0  0
 29 38  1  6  0  0  0
 29 30  1  0  0  0  0
 32 10  1  0  0  0  0
 32 21  1  0  0  0  0
 33 29  1  0  0  0  0
 34 17  1  0  0  0  0
 34  4  1  1  0  0  0
 35 24  1  0  0  0  0
 38 37  1  6  0  0  0
 38 44  1  0  0  0  0
 40 43  2  0  0  0  0
 40 44  1  0  0  0  0
 41 39  1  0  0  0  0
 42 41  1  0  0  0  0
 43 45  1  0  0  0  0
 44 42  2  0  0  0  0
 45 41  2  0  0  0  0
 46 47  1  0  0  0  0
 47 49  1  1  0  0  0
 47 48  1  0  0  0  0
 48 53  1  1  0  0  0
 50 52  2  6  0  0  0
 50 51  1  0  0  0  0
 50 47  1  0  0  0  0
 50 48  1  0  0  0  0
 53 54  1  0  0  0  0
 55 20  1  0  0  0  0
 55 56  1  0  0  0  0
 56 57  1  0  0  0  0
 58 60  1  0  0  0  0
 58 57  1  0  0  0  0
 60 59  1  0  0  0  0
M  END
>  <MODEL>
3

>  <REMARK>
 VINA RESULT:      -2.2      3.312     10.897
  Name = 
  10 active torsions:
  status: ('A' for Active; 'I' for Inactive)
    1  A    between atoms: C_4  and  C_51
    2  A    between atoms: C_6  and  C_24
    3  A    between atoms: C_9  and  C_34
    4  A    between atoms: C_9  and  C_39
    5  A    between atoms: C_30  and  C_45
    6  A    between atoms: C_30  and  C_48
    7  A    between atoms: C_32  and  O_59
    8  A    between atoms: C_34  and  C_52
    9  A    between atoms: C_40  and  C_51
   10  A    between atoms: C_52  and  O_59
                            x       y       z     vdW  Elec       q    Type
                         _______ _______ _______ _____ _____    ______ ____

>  <TORSDO>
F 10

$$$$
=
 OpenBabel11062417213D

 60 66  0  0  1  0  0  0  0  0999 V2000
  190.3300  177.5070  136.7380 C   0  0  0  0  0  2  0  0  0  0  0  0
  186.6500  177.9020  137.4840 O   0  0  0  0  0  0  0  0  0  0  0  0
  188.9240  174.0740  136.5200 S   0  0  0  0  0  0  0  0  0  0  0  0
  191.8110  176.4420  139.2760 C   0  0  0  0  0  1  0  0  0  0  0  0
  185.0900  173.9480  135.0330 C   0  0  0  0  0  3  0  0  0  0  0  0
  192.1170  170.0480  135.1160 C   0  0  0  0  0  3  0  0  0  0  0  0
  191.9570  174.0840  134.6130 N   0  0  0  0  0  0  0  0  0  0  0  0
  187.3130  174.4930  135.8450 C   0  0  0  0  0  0  0  0  0  0  0  0
  185.7650  179.7070  136.3400 O   0  0  0  0  0  0  0  0  0  0  0  0
  190.8410  170.7360  134.8440 C   0  0  0  0  0  0  0  0  0  0  0  0
  186.6230  172.0530  135.5420 C   0  0  0  0  0  2  0  0  0  0  0  0
  193.2100  170.7430  135.4610 C   0  0  0  0  0  0  0  0  0  0  0  0
  191.9590  172.8480  135.0140 C   0  0  0  0  0  0  0  0  0  0  0  0
  187.8820  171.6530  134.7810 C   0  0  0  0  0  2  0  0  0  0  0  0
  188.6350  174.8350  138.1660 C   0  0  0  0  0  2  0  0  0  0  0  0
  191.2480  176.3140  136.8130 C   0  0  1  0  0  3  0  0  0  0  0  0
  189.5300  176.0630  138.4180 C   0  0  2  0  0  3  0  0  0  0  0  0
  186.9900  175.8400  135.7490 C   0  0  0  0  0  3  0  0  0  0  0  0
  185.3880  177.6260  135.4410 O   0  0  0  0  0  0  0  0  0  0  0  0
  184.7550  175.3160  134.9970 C   0  0  0  0  0  0  0  0  0  0  0  0
  188.3620  170.2610  135.1820 C   0  0  1  0  0  3  0  0  0  0  0  0
  194.4680  170.0100  135.7530 C   0  0  0  0  0  1  0  0  0  0  0  0
  185.7150  176.2650  135.3670 C   0  0  0  0  0  0  0  0  0  0  0  0
  187.3610  178.6470  138.4630 C   0  0  2  0  0  3  0  0  0  0  0  0
  186.3630  173.5260  135.4540 C   0  0  0  0  0  0  0  0  0  0  0  0
  190.8030  172.0350  134.7730 N   0  0  0  0  0  0  0  0  0  0  0  0
  189.1520  177.1820  137.5400 N   0  0  1  0  0  0  0  0  0  0  0  0
  185.9410  178.4660  136.4170 C   0  0  0  0  0  0  0  0  0  0  0  0
  193.4380  175.3490  136.0990 C   0  0  1  0  0  3  0  0  0  0  0  0
  192.7000  176.6300  136.4790 C   0  0  0  0  0  2  0  0  0  0  0  0
  193.1680  172.2370  135.6720 C   0  0  0  0  0  2  0  0  0  0  0  0
  189.6650  169.9610  134.5940 N   0  0  0  0  0  2  0  0  0  0  0  0
  193.0150  174.9500  134.7970 O   0  0  0  0  0  0  0  0  0  0  0  0
  191.0000  175.7390  138.1920 C   0  0  2  0  0  3  0  0  0  0  0  0
  188.8690  178.3570  138.3670 C   0  0  0  0  0  2  0  0  0  0  0  0
  188.4480  170.1410  136.5750 O   0  0  0  0  0  1  0  0  0  0  0  0
  195.5060  175.6610  134.6860 C   0  0  0  0  0  1  0  0  0  0  0  0
  194.9490  175.6020  136.1040 C   0  0  2  0  0  3  0  0  0  0  0  0
  198.8790  172.6890  136.7480 N   0  0  0  0  0  1  0  0  0  0  0  0
  195.1440  174.0520  138.0980 C   0  0  0  0  0  3  0  0  0  0  0  0
  197.6260  173.1760  137.2190 C   0  0  0  0  0  0  0  0  0  0  0  0
  196.9190  174.1120  136.4590 C   0  0  0  0  0  3  0  0  0  0  0  0
  195.8630  173.0930  138.8110 C   0  0  0  0  0  3  0  0  0  0  0  0
  195.6760  174.5640  136.9060 C   0  0  0  0  0  0  0  0  0  0  0  0
  197.0800  172.6790  138.3640 N   0  0  0  0  0  0  0  0  0  0  0  0
  186.8850  178.2620  139.8630 C   0  0  0  0  0  2  0  0  0  0  0  0
  185.3620  178.1850  139.9790 C   0  0  1  0  0  0  0  0  0  0  0  0
  184.6670  179.4720  139.8880 C   0  0  2  0  0  3  0  0  0  0  0  0
  184.6610  176.9250  139.4750 C   0  0  0  0  0  1  0  0  0  0  0  0
  184.7390  178.7790  141.6070 P   0  0  1  0  0  0  0  0  0  0  0  0
  183.2180  178.3170  142.2030 O   0  0  0  0  0  0  0  0  0  0  0  0
  185.5940  179.6630  142.4910 O   0  0  0  0  0  1  0  0  0  0  0  0
  183.2370  179.3920  139.3640 C   0  0  0  0  0  2  0  0  0  0  0  0
  182.8610  180.6880  138.6730 C   0  0  0  0  0  1  0  0  0  0  0  0
  183.4670  175.7430  134.6450 O   0  0  0  0  0  0  0  0  0  0  0  0
  182.3000  175.3920  135.3770 C   0  0  0  0  0  2  0  0  0  0  0  0
  182.1630  176.2980  136.5920 C   0  0  0  0  0  2  0  0  0  0  0  0
  180.9030  177.1340  136.4770 C   0  0  0  0  0  2  0  0  0  0  0  0
  179.7590  176.8070  138.6420 C   0  0  0  0  0  1  0  0  0  0  0  0
  180.6010  177.7590  137.8220 C   0  0  0  0  0  2  0  0  0  0  0  0
  1 16  1  0  0  0  0
  2 24  1  0  0  0  0
  3 15  1  0  0  0  0
  5 25  1  0  0  0  0
  6 12  2  0  0  0  0
  7 33  1  0  0  0  0
  7 13  2  0  0  0  0
  8  3  1  0  0  0  0
  9 28  2  0  0  0  0
 10  6  1  0  0  0  0
 12 31  1  0  0  0  0
 12 22  1  0  0  0  0
 13 31  1  0  0  0  0
 14 21  1  0  0  0  0
 14 11  1  0  0  0  0
 16 30  1  1  0  0  0
 16 34  1  0  0  0  0
 17 15  1  6  0  0  0
 18  8  1  0  0  0  0
 19 28  1  0  0  0  0
 20  5  2  0  0  0  0
 20 23  1  0  0  0  0
 21 36  1  1  0  0  0
 23 19  1  0  0  0  0
 23 18  2  0  0  0  0
 24 46  1  1  0  0  0
 25 11  1  0  0  0  0
 25  8  2  0  0  0  0
 26 10  2  0  0  0  0
 26 13  1  0  0  0  0
 27  1  1  6  0  0  0
 27 35  1  0  0  0  0
 27 17  1  0  0  0  0
 28  2  1  0  0  0  0
 29 38  1  6  0  0  0
 29 30  1  0  0  0  0
 32 10  1  0  0  0  0
 32 21  1  0  0  0  0
 33 29  1  0  0  0  0
 34 17  1  0  0  0  0
 34  4  1  1  0  0  0
 35 24  1  0  0  0  0
 38 37  1  6  0  0  0
 38 44  1  0  0  0  0
 39 41  1  0  0  0  0
 40 43  1  0  0  0  0
 41 45  1  0  0  0  0
 42 44  1  0  0  0  0
 42 41  2  0  0  0  0
 44 40  2  0  0  0  0
 45 43  2  0  0  0  0
 46 47  1  0  0  0  0
 47 49  1  6  0  0  0
 47 50  1  0  0  0  0
 48 53  1  6  0  0  0
 48 47  1  0  0  0  0
 48 50  1  0  0  0  0
 50 51  2  1  0  0  0
 50 52  1  0  0  0  0
 54 53  1  0  0  0  0
 55 20  1  0  0  0  0
 55 56  1  0  0  0  0
 56 57  1  0  0  0  0
 58 57  1  0  0  0  0
 58 60  1  0  0  0  0
 60 59  1  0  0  0  0
M  END
>  <MODEL>
4

>  <REMARK>
 VINA RESULT:      -1.7      3.231     11.089
  Name = 
  10 active torsions:
  status: ('A' for Active; 'I' for Inactive)
    1  A    between atoms: C_4  and  C_51
    2  A    between atoms: C_6  and  C_24
    3  A    between atoms: C_9  and  C_34
    4  A    between atoms: C_9  and  C_39
    5  A    between atoms: C_30  and  C_45
    6  A    between atoms: C_30  and  C_48
    7  A    between atoms: C_32  and  O_59
    8  A    between atoms: C_34  and  C_52
    9  A    between atoms: C_40  and  C_51
   10  A    between atoms: C_52  and  O_59
                            x       y       z     vdW  Elec       q    Type
                         _______ _______ _______ _____ _____    ______ ____

>  <TORSDO>
F 10

$$$$
=
 OpenBabel11062417213D

 60 66  0  0  1  0  0  0  0  0999 V2000
  190.0030  177.7280  137.3950 C   0  0  0  0  0  2  0  0  0  0  0  0
  186.3990  177.9260  138.5040 O   0  0  0  0  0  0  0  0  0  0  0  0
  188.6700  174.2830  136.9800 S   0  0  0  0  0  0  0  0  0  0  0  0
  191.7400  176.4850  139.6770 C   0  0  0  0  0  1  0  0  0  0  0  0
  184.7200  174.1640  135.8410 C   0  0  0  0  0  3  0  0  0  0  0  0
  191.8210  170.5150  134.9190 C   0  0  0  0  0  3  0  0  0  0  0  0
  191.5120  174.5720  134.8170 N   0  0  0  0  0  0  0  0  0  0  0  0
  186.9930  174.7080  136.4970 C   0  0  0  0  0  0  0  0  0  0  0  0
  185.3660  179.7980  137.6210 O   0  0  0  0  0  0  0  0  0  0  0  0
  190.5080  171.1800  134.8300 C   0  0  0  0  0  0  0  0  0  0  0  0
  186.3410  172.2830  136.0270 C   0  0  0  0  0  2  0  0  0  0  0  0
  192.9230  171.2120  135.2290 C   0  0  0  0  0  0  0  0  0  0  0  0
  191.5820  173.3050  135.0980 C   0  0  0  0  0  0  0  0  0  0  0  0
  187.5330  171.9980  135.1210 C   0  0  0  0  0  2  0  0  0  0  0  0
  188.5170  174.8790  138.7110 C   0  0  0  0  0  2  0  0  0  0  0  0
  190.9540  176.5650  137.2740 C   0  0  1  0  0  3  0  0  0  0  0  0
  189.3990  176.1090  138.9960 C   0  0  2  0  0  3  0  0  0  0  0  0
  186.6290  176.0450  136.5590 C   0  0  0  0  0  3  0  0  0  0  0  0
  184.9600  177.7970  136.5670 O   0  0  0  0  0  0  0  0  0  0  0  0
  184.3480  175.5170  135.9650 C   0  0  0  0  0  0  0  0  0  0  0  0
  188.0840  170.5930  135.3440 C   0  0  1  0  0  3  0  0  0  0  0  0
  194.2210  170.4980  135.3350 C   0  0  0  0  0  1  0  0  0  0  0  0
  185.3140  176.4600  136.3350 C   0  0  0  0  0  0  0  0  0  0  0  0
  187.1790  178.6020  139.4810 C   0  0  2  0  0  3  0  0  0  0  0  0
  186.0360  173.7480  136.1030 C   0  0  0  0  0  0  0  0  0  0  0  0
  190.4300  172.4790  134.8860 N   0  0  0  0  0  0  0  0  0  0  0  0
  188.9140  177.2910  138.2660 N   0  0  1  0  0  0  0  0  0  0  0  0
  185.5800  178.5610  137.5640 C   0  0  0  0  0  0  0  0  0  0  0  0
  193.0920  175.7450  136.2770 C   0  0  1  0  0  3  0  0  0  0  0  0
  192.3600  176.9600  136.8420 C   0  0  0  0  0  2  0  0  0  0  0  0
  192.8630  172.6780  135.5830 C   0  0  0  0  0  2  0  0  0  0  0  0
  189.3340  170.3930  134.6140 N   0  0  0  0  0  2  0  0  0  0  0  0
  192.5600  175.4530  134.9870 O   0  0  0  0  0  0  0  0  0  0  0  0
  190.8500  175.8570  138.6090 C   0  0  2  0  0  3  0  0  0  0  0  0
  188.6790  178.3740  139.2230 C   0  0  0  0  0  2  0  0  0  0  0  0
  188.3020  170.3470  136.7060 O   0  0  0  0  0  1  0  0  0  0  0  0
  195.0000  176.3130  134.7260 C   0  0  0  0  0  1  0  0  0  0  0  0
  194.5900  176.0480  136.1700 C   0  0  2  0  0  3  0  0  0  0  0  0
  197.8580  172.4000  135.5690 N   0  0  0  0  0  1  0  0  0  0  0  0
  195.3940  174.6470  138.1210 C   0  0  0  0  0  3  0  0  0  0  0  0
  197.0440  173.1840  136.4370 C   0  0  0  0  0  0  0  0  0  0  0  0
  196.2370  174.1920  135.9030 C   0  0  0  0  0  3  0  0  0  0  0  0
  196.1870  173.6100  138.6120 C   0  0  0  0  0  3  0  0  0  0  0  0
  195.4170  174.9390  136.7500 C   0  0  0  0  0  0  0  0  0  0  0  0
  196.9910  172.9070  137.7700 N   0  0  0  0  0  0  0  0  0  0  0  0
  186.8450  178.0740  140.8760 C   0  0  0  0  0  2  0  0  0  0  0  0
  187.9780  178.2760  141.8820 C   0  0  1  0  0  0  0  0  0  0  0  0
  188.6670  177.0510  142.2970 C   0  0  2  0  0  3  0  0  0  0  0  0
  188.7600  179.5880  141.8370 C   0  0  0  0  0  1  0  0  0  0  0  0
  187.5260  177.7420  143.5850 P   0  0  1  0  0  0  0  0  0  0  0  0
  188.3430  178.3300  144.9520 O   0  0  0  0  0  1  0  0  0  0  0  0
  186.3680  176.7950  143.8200 O   0  0  0  0  0  0  0  0  0  0  0  0
  190.1130  177.2460  142.7370 C   0  0  0  0  0  2  0  0  0  0  0  0
  190.7610  175.9040  143.0160 C   0  0  0  0  0  1  0  0  0  0  0  0
  183.0220  175.9310  135.7720 O   0  0  0  0  0  0  0  0  0  0  0  0
  182.0420  175.1330  135.1200 C   0  0  0  0  0  2  0  0  0  0  0  0
  180.8670  174.8920  136.0560 C   0  0  0  0  0  2  0  0  0  0  0  0
  180.9110  173.4730  136.5880 C   0  0  0  0  0  2  0  0  0  0  0  0
  182.5700  171.7030  137.0550 C   0  0  0  0  0  1  0  0  0  0  0  0
  182.1720  172.7990  136.0910 C   0  0  0  0  0  2  0  0  0  0  0  0
  2 24  1  0  0  0  0
  3 15  1  0  0  0  0
  5 20  2  0  0  0  0
  5 25  1  0  0  0  0
  6 12  2  0  0  0  0
  7 33  1  0  0  0  0
  7 13  2  0  0  0  0
  8 18  1  0  0  0  0
  8  3  1  0  0  0  0
 10 26  2  0  0  0  0
 10  6  1  0  0  0  0
 11 25  1  0  0  0  0
 12 22  1  0  0  0  0
 12 31  1  0  0  0  0
 13 31  1  0  0  0  0
 14 21  1  0  0  0  0
 14 11  1  0  0  0  0
 16 30  1  1  0  0  0
 16  1  1  0  0  0  0
 16 34  1  0  0  0  0
 17 15  1  6  0  0  0
 19 28  1  0  0  0  0
 20 23  1  0  0  0  0
 21 36  1  1  0  0  0
 23 18  2  0  0  0  0
 23 19  1  0  0  0  0
 24 46  1  1  0  0  0
 25  8  2  0  0  0  0
 26 13  1  0  0  0  0
 27  1  1  6  0  0  0
 27 17  1  0  0  0  0
 27 35  1  0  0  0  0
 28  9  2  0  0  0  0
 28  2  1  0  0  0  0
 29 38  1  6  0  0  0
 29 30  1  0  0  0  0
 32 10  1  0  0  0  0
 32 21  1  0  0  0  0
 33 29  1  0  0  0  0
 34 17  1  0  0  0  0
 34  4  1  1  0  0  0
 35 24  1  0  0  0  0
 38 37  1  6  0  0  0
 38 44  1  0  0  0  0
 39 41  1  0  0  0  0
 40 43  1  0  0  0  0
 41 45  1  0  0  0  0
 42 41  2  0  0  0  0
 42 44  1  0  0  0  0
 44 40  2  0  0  0  0
 45 43  2  0  0  0  0
 46 47  1  0  0  0  0
 47 49  1  6  0  0  0
 47 48  1  0  0  0  0
 47 50  1  0  0  0  0
 48 53  1  1  0  0  0
 48 50  1  0  0  0  0
 50 52  2  1  0  0  0
 50 51  1  0  0  0  0
 53 54  1  0  0  0  0
 55 20  1  0  0  0  0
 56 55  1  0  0  0  0
 56 57  1  0  0  0  0
 57 58  1  0  0  0  0
 60 58  1  0  0  0  0
 60 59  1  0  0  0  0
M  END
>  <MODEL>
5

>  <REMARK>
 VINA RESULT:      -1.5      3.024     10.449
  Name = 
  10 active torsions:
  status: ('A' for Active; 'I' for Inactive)
    1  A    between atoms: C_4  and  C_51
    2  A    between atoms: C_6  and  C_24
    3  A    between atoms: C_9  and  C_34
    4  A    between atoms: C_9  and  C_39
    5  A    between atoms: C_30  and  C_45
    6  A    between atoms: C_30  and  C_48
    7  A    between atoms: C_32  and  O_59
    8  A    between atoms: C_34  and  C_52
    9  A    between atoms: C_40  and  C_51
   10  A    between atoms: C_52  and  O_59
                            x       y       z     vdW  Elec       q    Type
                         _______ _______ _______ _____ _____    ______ ____

>  <TORSDO>
F 10

$$$$
=
 OpenBabel11062417213D

 60 66  0  0  1  0  0  0  0  0999 V2000
  190.6790  175.6250  141.0250 C   0  0  0  0  0  2  0  0  0  0  0  0
  191.1260  175.2120  137.2980 O   0  0  0  0  0  0  0  0  0  0  0  0
  187.8350  177.4680  139.4970 S   0  0  0  0  0  0  0  0  0  0  0  0
  191.6820  178.4530  141.8990 C   0  0  0  0  0  1  0  0  0  0  0  0
  186.4140  175.7470  136.0420 C   0  0  0  0  0  3  0  0  0  0  0  0
  184.1920  179.7070  142.6720 C   0  0  0  0  0  3  0  0  0  0  0  0
  186.8690  176.6470  142.8480 N   0  0  0  0  0  0  0  0  0  0  0  0
  187.5590  176.3960  138.0820 C   0  0  0  0  0  0  0  0  0  0  0  0
  191.6460  173.0220  136.7670 O   0  0  0  0  0  0  0  0  0  0  0  0
  184.4120  178.8160  141.5190 C   0  0  0  0  0  0  0  0  0  0  0  0
  185.4690  177.6570  137.3290 C   0  0  0  0  0  2  0  0  0  0  0  0
  185.0390  179.7060  143.7110 C   0  0  0  0  0  0  0  0  0  0  0  0
  186.2070  177.7550  142.6990 C   0  0  0  0  0  0  0  0  0  0  0  0
  184.7850  177.6050  138.6910 C   0  0  0  0  0  2  0  0  0  0  0  0
  189.4590  178.1080  138.9260 C   0  0  0  0  0  2  0  0  0  0  0  0
  189.9190  176.6400  141.8380 C   0  0  1  0  0  3  0  0  0  0  0  0
  190.6260  177.6490  139.8200 C   0  0  2  0  0  3  0  0  0  0  0  0
  188.4750  175.3770  137.8630 C   0  0  0  0  0  3  0  0  0  0  0  0
  189.4630  173.6710  136.4600 O   0  0  0  0  0  0  0  0  0  0  0  0
  187.3840  174.7540  135.8000 C   0  0  0  0  0  0  0  0  0  0  0  0
  184.0510  178.9070  139.0000 C   0  0  1  0  0  3  0  0  0  0  0  0
  184.7970  180.6400  144.8400 C   0  0  0  0  0  1  0  0  0  0  0  0
  188.4250  174.5780  136.7180 C   0  0  0  0  0  0  0  0  0  0  0  0
  192.3920  175.5660  137.8390 C   0  0  2  0  0  3  0  0  0  0  0  0
  186.4910  176.5720  137.1770 C   0  0  0  0  0  0  0  0  0  0  0  0
  185.3340  177.8980  141.5700 N   0  0  0  0  0  0  0  0  0  0  0  0
  190.8540  176.2000  139.6920 N   0  0  1  0  0  0  0  0  0  0  0  0
  190.7830  173.9300  136.8520 C   0  0  0  0  0  0  0  0  0  0  0  0
  188.9280  177.1720  144.0690 C   0  0  1  0  0  3  0  0  0  0  0  0
  190.0690  176.4630  143.3440 C   0  0  0  0  0  2  0  0  0  0  0  0
  186.2930  178.8650  143.7130 C   0  0  0  0  0  2  0  0  0  0  0  0
  183.5590  178.9230  140.3750 N   0  0  0  0  0  2  0  0  0  0  0  0
  187.7360  176.4090  143.8950 O   0  0  0  0  0  0  0  0  0  0  0  0
  190.3700  177.9760  141.2850 C   0  0  2  0  0  3  0  0  0  0  0  0
  192.2500  175.9730  139.3160 C   0  0  0  0  0  2  0  0  0  0  0  0
  184.8830  180.0150  138.7960 O   0  0  0  0  0  1  0  0  0  0  0  0
  189.3710  178.7530  145.9850 C   0  0  0  0  0  1  0  0  0  0  0  0
  189.2600  177.2930  145.5590 C   0  0  2  0  0  3  0  0  0  0  0  0
  192.8000  176.1810  148.8110 N   0  0  0  0  0  1  0  0  0  0  0  0
  191.1440  175.7010  144.9830 C   0  0  0  0  0  3  0  0  0  0  0  0
  192.2190  175.9970  147.5230 C   0  0  0  0  0  0  0  0  0  0  0  0
  191.0690  176.7120  147.1760 C   0  0  0  0  0  3  0  0  0  0  0  0
  192.3090  175.0310  145.3540 C   0  0  0  0  0  3  0  0  0  0  0  0
  190.5190  176.5540  145.9030 C   0  0  0  0  0  0  0  0  0  0  0  0
  192.8180  175.1870  146.6060 N   0  0  0  0  0  0  0  0  0  0  0  0
  192.9790  176.7490  137.0680 C   0  0  0  0  0  2  0  0  0  0  0  0
  194.1480  176.3550  136.1640 C   0  0  1  0  0  0  0  0  0  0  0  0
  194.2860  174.9170  135.9180 C   0  0  2  0  0  3  0  0  0  0  0  0
  194.5870  177.3400  135.0810 C   0  0  0  0  0  1  0  0  0  0  0  0
  195.5480  175.6020  137.0920 P   0  0  1  0  0  0  0  0  0  0  0  0
  197.1250  175.5770  136.4640 O   0  0  0  0  0  0  0  0  0  0  0  0
  195.3400  175.0240  138.4760 O   0  0  0  0  0  1  0  0  0  0  0  0
  194.9600  174.5550  134.5990 C   0  0  0  0  0  2  0  0  0  0  0  0
  195.4570  173.1230  134.6420 C   0  0  0  0  0  1  0  0  0  0  0  0
  187.3540  173.9730  134.6360 O   0  0  0  0  0  0  0  0  0  0  0  0
  186.8330  172.6510  134.5960 C   0  0  0  0  0  2  0  0  0  0  0  0
  186.2560  172.2820  135.9550 C   0  0  0  0  0  2  0  0  0  0  0  0
  184.7920  171.9160  135.8140 C   0  0  0  0  0  2  0  0  0  0  0  0
  184.0600  173.4560  137.6030 C   0  0  0  0  0  1  0  0  0  0  0  0
  184.1280  172.0080  137.1720 C   0  0  0  0  0  2  0  0  0  0  0  0
  2 24  1  0  0  0  0
  5 25  1  0  0  0  0
  6 12  2  0  0  0  0
  7 33  1  0  0  0  0
  8  3  1  0  0  0  0
  9 28  2  0  0  0  0
 10 26  2  0  0  0  0
 10  6  1  0  0  0  0
 11 14  1  0  0  0  0
 12 31  1  0  0  0  0
 12 22  1  0  0  0  0
 13  7  2  0  0  0  0
 13 31  1  0  0  0  0
 14 21  1  0  0  0  0
 15  3  1  0  0  0  0
 16  1  1  6  0  0  0
 16 30  1  0  0  0  0
 17 15  1  6  0  0  0
 17 34  1  0  0  0  0
 18  8  1  0  0  0  0
 19 23  1  0  0  0  0
 19 28  1  0  0  0  0
 20  5  2  0  0  0  0
 20 23  1  0  0  0  0
 21 36  1  1  0  0  0
 21 32  1  0  0  0  0
 23 18  2  0  0  0  0
 24 46  1  6  0  0  0
 24 35  1  0  0  0  0
 25 11  1  0  0  0  0
 25  8  2  0  0  0  0
 26 13  1  0  0  0  0
 27 35  1  1  0  0  0
 27 17  1  0  0  0  0
 27  1  1  0  0  0  0
 28  2  1  0  0  0  0
 29 38  1  1  0  0  0
 30 29  1  0  0  0  0
 32 10  1  0  0  0  0
 33 29  1  0  0  0  0
 34 16  1  0  0  0  0
 34  4  1  1  0  0  0
 38 44  1  0  0  0  0
 38 37  1  6  0  0  0
 40 43  2  0  0  0  0
 40 44  1  0  0  0  0
 41 39  1  0  0  0  0
 42 41  1  0  0  0  0
 43 45  1  0  0  0  0
 44 42  2  0  0  0  0
 45 41  2  0  0  0  0
 47 49  1  6  0  0  0
 47 46  1  0  0  0  0
 47 50  1  0  0  0  0
 48 53  1  6  0  0  0
 48 47  1  0  0  0  0
 48 50  1  0  0  0  0
 50 51  2  6  0  0  0
 50 52  1  0  0  0  0
 53 54  1  0  0  0  0
 55 20  1  0  0  0  0
 56 55  1  0  0  0  0
 56 57  1  0  0  0  0
 58 57  1  0  0  0  0
 58 60  1  0  0  0  0
 60 59  1  0  0  0  0
M  END
>  <MODEL>
6

>  <REMARK>
 VINA RESULT:      -1.5      3.074      8.201
  Name = 
  10 active torsions:
  status: ('A' for Active; 'I' for Inactive)
    1  A    between atoms: C_4  and  C_51
    2  A    between atoms: C_6  and  C_24
    3  A    between atoms: C_9  and  C_34
    4  A    between atoms: C_9  and  C_39
    5  A    between atoms: C_30  and  C_45
    6  A    between atoms: C_30  and  C_48
    7  A    between atoms: C_32  and  O_59
    8  A    between atoms: C_34  and  C_52
    9  A    between atoms: C_40  and  C_51
   10  A    between atoms: C_52  and  O_59
                            x       y       z     vdW  Elec       q    Type
                         _______ _______ _______ _____ _____    ______ ____

>  <TORSDO>
F 10

$$$$
=
 OpenBabel11062417213D

 60 66  0  0  1  0  0  0  0  0999 V2000
  190.8800  175.6130  140.7260 C   0  0  0  0  0  2  0  0  0  0  0  0
  191.1350  175.0370  137.0030 O   0  0  0  0  0  0  0  0  0  0  0  0
  187.9650  177.4000  139.2670 S   0  0  0  0  0  0  0  0  0  0  0  0
  191.9320  178.4720  141.4240 C   0  0  0  0  0  1  0  0  0  0  0  0
  186.3660  175.5370  135.9670 C   0  0  0  0  0  3  0  0  0  0  0  0
  184.4940  179.7910  142.5240 C   0  0  0  0  0  3  0  0  0  0  0  0
  187.1700  176.7300  142.6960 N   0  0  0  0  0  0  0  0  0  0  0  0
  187.6150  176.2700  137.9160 C   0  0  0  0  0  0  0  0  0  0  0  0
  191.6230  172.8240  136.5430 O   0  0  0  0  0  0  0  0  0  0  0  0
  184.6530  178.8490  141.4010 C   0  0  0  0  0  0  0  0  0  0  0  0
  185.4920  177.5050  137.2170 C   0  0  0  0  0  2  0  0  0  0  0  0
  185.3940  179.8310  143.5170 C   0  0  0  0  0  0  0  0  0  0  0  0
  186.5040  177.8330  142.5320 C   0  0  0  0  0  0  0  0  0  0  0  0
  184.8790  177.5160  138.6130 C   0  0  0  0  0  2  0  0  0  0  0  0
  189.5590  178.0080  138.5870 C   0  0  0  0  0  2  0  0  0  0  0  0
  190.1650  176.6660  141.5330 C   0  0  1  0  0  3  0  0  0  0  0  0
  190.7700  177.5830  139.4390 C   0  0  2  0  0  3  0  0  0  0  0  0
  188.5160  175.2380  137.6950 C   0  0  0  0  0  3  0  0  0  0  0  0
  189.4280  173.4680  136.3200 O   0  0  0  0  0  0  0  0  0  0  0  0
  187.3200  174.5310  135.7190 C   0  0  0  0  0  0  0  0  0  0  0  0
  184.1630  178.8320  138.9010 C   0  0  1  0  0  3  0  0  0  0  0  0
  185.2110  180.8140  144.6150 C   0  0  0  0  0  1  0  0  0  0  0  0
  188.4070  174.3900  136.5900 C   0  0  0  0  0  0  0  0  0  0  0  0
  192.4280  175.4090  137.4630 C   0  0  2  0  0  3  0  0  0  0  0  0
  186.5020  176.4100  137.0600 C   0  0  0  0  0  0  0  0  0  0  0  0
  185.5750  177.9310  141.4440 N   0  0  0  0  0  0  0  0  0  0  0  0
  190.9870  176.1290  139.3630 N   0  0  1  0  0  0  0  0  0  0  0  0
  190.7670  173.7390  136.6320 C   0  0  0  0  0  0  0  0  0  0  0  0
  189.2900  177.2980  143.7850 C   0  0  1  0  0  3  0  0  0  0  0  0
  190.3920  176.5540  143.0350 C   0  0  0  0  0  2  0  0  0  0  0  0
  186.6440  178.9850  143.4920 C   0  0  0  0  0  2  0  0  0  0  0  0
  183.7430  178.9100  140.2980 N   0  0  0  0  0  2  0  0  0  0  0  0
  188.0890  176.5340  143.7070 O   0  0  0  0  0  0  0  0  0  0  0  0
  190.5900  177.9740  140.8990 C   0  0  2  0  0  3  0  0  0  0  0  0
  192.3630  175.8800  138.9260 C   0  0  0  0  0  2  0  0  0  0  0  0
  184.9860  179.9280  138.6070 O   0  0  0  0  0  1  0  0  0  0  0  0
  190.5120  176.2960  145.7530 C   0  0  0  0  0  1  0  0  0  0  0  0
  189.6980  177.4830  145.2500 C   0  0  2  0  0  3  0  0  0  0  0  0
  184.8030  177.4930  145.8710 N   0  0  0  0  0  1  0  0  0  0  0  0
  188.6390  178.0900  147.4700 C   0  0  0  0  0  3  0  0  0  0  0  0
  186.1060  177.6650  146.4190 C   0  0  0  0  0  0  0  0  0  0  0  0
  187.2270  177.5040  145.5990 C   0  0  0  0  0  3  0  0  0  0  0  0
  187.4960  178.2750  148.2480 C   0  0  0  0  0  3  0  0  0  0  0  0
  188.5020  177.7030  146.1300 C   0  0  0  0  0  0  0  0  0  0  0  0
  186.2630  178.0590  147.7140 N   0  0  0  0  0  0  0  0  0  0  0  0
  192.9770  176.5540  136.6120 C   0  0  0  0  0  2  0  0  0  0  0  0
  194.2380  176.1740  135.8360 C   0  0  1  0  0  0  0  0  0  0  0  0
  194.5440  174.7410  135.8100 C   0  0  2  0  0  3  0  0  0  0  0  0
  194.6430  177.0420  134.6450 C   0  0  0  0  0  1  0  0  0  0  0  0
  195.6450  175.7220  136.9350 P   0  0  1  0  0  0  0  0  0  0  0  0
  197.2540  175.7890  136.4000 O   0  0  0  0  0  0  0  0  0  0  0  0
  195.4070  175.3230  138.3760 O   0  0  0  0  0  1  0  0  0  0  0  0
  195.3390  174.2780  134.5940 C   0  0  0  0  0  2  0  0  0  0  0  0
  195.8340  172.8600  134.8030 C   0  0  0  0  0  1  0  0  0  0  0  0
  187.2290  173.7000  134.5940 O   0  0  0  0  0  0  0  0  0  0  0  0
  186.7860  172.3500  134.6530 C   0  0  0  0  0  2  0  0  0  0  0  0
  185.2680  172.3090  134.7390 C   0  0  0  0  0  2  0  0  0  0  0  0
  184.8380  171.4370  135.9030 C   0  0  0  0  0  2  0  0  0  0  0  0
  184.9850  172.9000  137.8890 C   0  0  0  0  0  1  0  0  0  0  0  0
  184.0450  172.2770  136.8820 C   0  0  0  0  0  2  0  0  0  0  0  0
  2 24  1  0  0  0  0
  5 25  1  0  0  0  0
  6 12  2  0  0  0  0
  7 33  1  0  0  0  0
  8  3  1  0  0  0  0
  9 28  2  0  0  0  0
 10 26  2  0  0  0  0
 10  6  1  0  0  0  0
 11 14  1  0  0  0  0
 12 22  1  0  0  0  0
 13  7  2  0  0  0  0
 13 31  1  0  0  0  0
 14 21  1  0  0  0  0
 15  3  1  0  0  0  0
 16  1  1  6  0  0  0
 16 30  1  0  0  0  0
 17 15  1  6  0  0  0
 17 34  1  0  0  0  0
 18  8  1  0  0  0  0
 19 23  1  0  0  0  0
 19 28  1  0  0  0  0
 20  5  2  0  0  0  0
 20 23  1  0  0  0  0
 21 36  1  1  0  0  0
 21 32  1  0  0  0  0
 23 18  2  0  0  0  0
 24 46  1  6  0  0  0
 24 35  1  0  0  0  0
 25 11  1  0  0  0  0
 25  8  2  0  0  0  0
 26 13  1  0  0  0  0
 27 35  1  1  0  0  0
 27 17  1  0  0  0  0
 27  1  1  0  0  0  0
 28  2  1  0  0  0  0
 29 38  1  1  0  0  0
 30 29  1  0  0  0  0
 31 12  1  0  0  0  0
 32 10  1  0  0  0  0
 33 29  1  0  0  0  0
 34  4  1  1  0  0  0
 34 16  1  0  0  0  0
 38 37  1  1  0  0  0
 38 44  1  0  0  0  0
 39 41  1  0  0  0  0
 40 43  1  0  0  0  0
 41 45  1  0  0  0  0
 42 44  1  0  0  0  0
 42 41  2  0  0  0  0
 44 40  2  0  0  0  0
 45 43  2  0  0  0  0
 47 49  1  6  0  0  0
 47 46  1  0  0  0  0
 47 50  1  0  0  0  0
 48 53  1  6  0  0  0
 48 47  1  0  0  0  0
 48 50  1  0  0  0  0
 50 51  2  6  0  0  0
 50 52  1  0  0  0  0
 53 54  1  0  0  0  0
 55 56  1  0  0  0  0
 55 20  1  0  0  0  0
 56 57  1  0  0  0  0
 57 58  1  0  0  0  0
 58 60  1  0  0  0  0
 60 59  1  0  0  0  0
M  END
>  <MODEL>
7

>  <REMARK>
 VINA RESULT:      -1.1      2.899      7.788
  Name = 
  10 active torsions:
  status: ('A' for Active; 'I' for Inactive)
    1  A    between atoms: C_4  and  C_51
    2  A    between atoms: C_6  and  C_24
    3  A    between atoms: C_9  and  C_34
    4  A    between atoms: C_9  and  C_39
    5  A    between atoms: C_30  and  C_45
    6  A    between atoms: C_30  and  C_48
    7  A    between atoms: C_32  and  O_59
    8  A    between atoms: C_34  and  C_52
    9  A    between atoms: C_40  and  C_51
   10  A    between atoms: C_52  and  O_59
                            x       y       z     vdW  Elec       q    Type
                         _______ _______ _______ _____ _____    ______ ____

>  <TORSDO>
F 10

$$$$
=
 OpenBabel11062417213D

 60 66  0  0  1  0  0  0  0  0999 V2000
  184.0550  178.3160  135.9890 C   0  0  0  0  0  2  0  0  0  0  0  0
  187.4250  176.6140  136.0300 O   0  0  0  0  0  0  0  0  0  0  0  0
  184.7860  177.7000  139.5810 S   0  0  0  0  0  0  0  0  0  0  0  0
  181.7970  176.1890  136.3680 C   0  0  0  0  0  1  0  0  0  0  0  0
  188.7750  178.0140  140.5340 C   0  0  0  0  0  3  0  0  0  0  0  0
  181.3500  179.4390  143.2620 C   0  0  0  0  0  3  0  0  0  0  0  0
  182.4040  180.3730  139.4430 N   0  0  0  0  0  0  0  0  0  0  0  0
  186.5650  177.9370  139.5300 C   0  0  0  0  0  0  0  0  0  0  0  0
  188.9020  177.6760  134.6020 O   0  0  0  0  0  0  0  0  0  0  0  0
  182.7600  179.4210  142.8310 C   0  0  0  0  0  0  0  0  0  0  0  0
  186.8290  177.7290  142.0620 C   0  0  0  0  0  2  0  0  0  0  0  0
  180.3590  179.5060  142.3610 C   0  0  0  0  0  0  0  0  0  0  0  0
  182.0620  179.8380  140.5770 C   0  0  0  0  0  0  0  0  0  0  0  0
  185.7550  178.7590  142.3930 C   0  0  0  0  0  2  0  0  0  0  0  0
  184.7820  176.1470  138.6010 C   0  0  0  0  0  2  0  0  0  0  0  0
  182.9380  178.3560  137.0000 C   0  0  1  0  0  3  0  0  0  0  0  0
  184.1050  176.3120  137.2270 C   0  0  2  0  0  3  0  0  0  0  0  0
  187.1530  178.1040  138.2850 C   0  0  0  0  0  3  0  0  0  0  0  0
  189.0930  178.1660  136.8390 O   0  0  0  0  0  0  0  0  0  0  0  0
  189.3630  178.1230  139.2600 C   0  0  0  0  0  0  0  0  0  0  0  0
  184.9310  178.3400  143.6070 C   0  0  1  0  0  3  0  0  0  0  0  0
  178.9520  179.4930  142.8360 C   0  0  0  0  0  1  0  0  0  0  0  0
  188.5410  178.1600  138.1280 C   0  0  0  0  0  0  0  0  0  0  0  0
  186.6430  175.9770  135.0300 C   0  0  2  0  0  3  0  0  0  0  0  0
  187.3800  177.9210  140.6820 C   0  0  0  0  0  0  0  0  0  0  0  0
  183.0640  179.6400  141.5830 N   0  0  0  0  0  0  0  0  0  0  0  0
  184.9020  177.1800  136.3450 N   0  0  1  0  0  0  0  0  0  0  0  0
  188.4790  177.4980  135.7710 C   0  0  0  0  0  0  0  0  0  0  0  0
  180.8620  179.5350  137.7330 C   0  0  1  0  0  3  0  0  0  0  0  0
  181.7080  179.1230  136.5310 C   0  0  0  0  0  2  0  0  0  0  0  0
  180.6310  179.4790  140.8770 C   0  0  0  0  0  2  0  0  0  0  0  0
  183.7900  179.2310  143.8040 N   0  0  0  0  0  2  0  0  0  0  0  0
  181.5190  180.6040  138.4090 O   0  0  0  0  0  0  0  0  0  0  0  0
  182.7080  176.9030  137.3610 C   0  0  2  0  0  3  0  0  0  0  0  0
  185.1830  176.4580  135.1020 C   0  0  0  0  0  2  0  0  0  0  0  0
  184.4690  177.0240  143.4720 O   0  0  0  0  0  1  0  0  0  0  0  0
  178.9320  179.0640  136.1760 C   0  0  0  0  0  1  0  0  0  0  0  0
  179.4770  179.9890  137.2590 C   0  0  2  0  0  3  0  0  0  0  0  0
  179.2660  184.8300  138.1890 N   0  0  0  0  0  1  0  0  0  0  0  0
  179.6700  181.7090  135.4090 C   0  0  0  0  0  3  0  0  0  0  0  0
  179.4340  183.7700  137.2520 C   0  0  0  0  0  0  0  0  0  0  0  0
  179.3700  182.4440  137.6910 C   0  0  0  0  0  3  0  0  0  0  0  0
  179.6940  183.0430  135.0040 C   0  0  0  0  0  3  0  0  0  0  0  0
  179.5030  181.4060  136.7680 C   0  0  0  0  0  0  0  0  0  0  0  0
  179.5790  184.0390  135.9240 N   0  0  0  0  0  0  0  0  0  0  0  0
  186.6610  174.4620  135.2360 C   0  0  0  0  0  2  0  0  0  0  0  0
  187.6460  174.0150  136.3150 C   0  0  1  0  0  0  0  0  0  0  0  0
  188.9060  173.4570  135.8140 C   0  0  2  0  0  3  0  0  0  0  0  0
  187.6430  174.7590  137.6500 C   0  0  0  0  0  1  0  0  0  0  0  0
  187.7360  172.1840  136.4870 P   0  0  1  0  0  0  0  0  0  0  0  0
  188.3000  171.4470  137.9090 O   0  0  0  0  0  1  0  0  0  0  0  0
  187.2570  171.2750  135.3750 O   0  0  0  0  0  0  0  0  0  0  0  0
  190.0940  173.6080  136.7580 C   0  0  0  0  0  2  0  0  0  0  0  0
  191.3840  173.6810  135.9650 C   0  0  0  0  0  1  0  0  0  0  0  0
  190.7560  178.1470  139.0980 O   0  0  0  0  0  0  0  0  0  0  0  0
  191.6200  177.1450  139.6190 C   0  0  0  0  0  2  0  0  0  0  0  0
  192.4640  177.7280  140.7440 C   0  0  0  0  0  2  0  0  0  0  0  0
  192.0460  177.1270  142.0710 C   0  0  0  0  0  2  0  0  0  0  0  0
  191.2450  177.8710  144.2860 C   0  0  0  0  0  1  0  0  0  0  0  0
  191.1490  178.1080  142.7960 C   0  0  0  0  0  2  0  0  0  0  0  0
  1 27  1  0  0  0  0
  5 25  1  0  0  0  0
  7 13  2  0  0  0  0
  8  3  1  0  0  0  0
  8 25  2  0  0  0  0
  9 28  2  0  0  0  0
 10  6  1  0  0  0  0
 10 32  1  0  0  0  0
 11 14  1  0  0  0  0
 12 22  1  0  0  0  0
 12  6  2  0  0  0  0
 13 31  1  0  0  0  0
 13 26  1  0  0  0  0
 14 21  1  0  0  0  0
 15  3  1  0  0  0  0
 16  1  1  6  0  0  0
 16 34  1  0  0  0  0
 17 34  1  0  0  0  0
 17 15  1  1  0  0  0
 18  8  1  0  0  0  0
 19 23  1  0  0  0  0
 20  5  2  0  0  0  0
 21 36  1  6  0  0  0
 21 32  1  0  0  0  0
 23 18  2  0  0  0  0
 23 20  1  0  0  0  0
 24 35  1  0  0  0  0
 24 46  1  1  0  0  0
 24  2  1  0  0  0  0
 25 11  1  0  0  0  0
 26 10  2  0  0  0  0
 27 35  1  6  0  0  0
 27 17  1  0  0  0  0
 28  2  1  0  0  0  0
 28 19  1  0  0  0  0
 29 38  1  6  0  0  0
 29 33  1  0  0  0  0
 30 16  1  0  0  0  0
 30 29  1  0  0  0  0
 31 12  1  0  0  0  0
 33  7  1  0  0  0  0
 34  4  1  6  0  0  0
 38 37  1  6  0  0  0
 40 44  1  0  0  0  0
 41 42  1  0  0  0  0
 41 39  1  0  0  0  0
 43 40  2  0  0  0  0
 43 45  1  0  0  0  0
 44 38  1  0  0  0  0
 44 42  2  0  0  0  0
 45 41  2  0  0  0  0
 46 47  1  0  0  0  0
 47 50  1  0  0  0  0
 47 49  1  1  0  0  0
 48 47  1  0  0  0  0
 48 50  1  0  0  0  0
 48 53  1  1  0  0  0
 50 52  2  6  0  0  0
 50 51  1  0  0  0  0
 54 53  1  0  0  0  0
 55 20  1  0  0  0  0
 55 56  1  0  0  0  0
 56 57  1  0  0  0  0
 57 58  1  0  0  0  0
 58 60  1  0  0  0  0
 60 59  1  0  0  0  0
M  END
>  <MODEL>
8

>  <REMARK>
 VINA RESULT:      -1.0      3.723      6.081
  Name = 
  10 active torsions:
  status: ('A' for Active; 'I' for Inactive)
    1  A    between atoms: C_4  and  C_51
    2  A    between atoms: C_6  and  C_24
    3  A    between atoms: C_9  and  C_34
    4  A    between atoms: C_9  and  C_39
    5  A    between atoms: C_30  and  C_45
    6  A    between atoms: C_30  and  C_48
    7  A    between atoms: C_32  and  O_59
    8  A    between atoms: C_34  and  C_52
    9  A    between atoms: C_40  and  C_51
   10  A    between atoms: C_52  and  O_59
                            x       y       z     vdW  Elec       q    Type
                         _______ _______ _______ _____ _____    ______ ____

>  <TORSDO>
F 10

$$$$
=
 OpenBabel11062417213D

 60 66  0  0  1  0  0  0  0  0999 V2000
  183.9580  178.4020  136.0250 C   0  0  0  0  0  2  0  0  0  0  0  0
  187.3120  176.6680  136.0540 O   0  0  0  0  0  0  0  0  0  0  0  0
  184.7170  177.8190  139.6170 S   0  0  0  0  0  0  0  0  0  0  0  0
  181.6830  176.3010  136.4500 C   0  0  0  0  0  1  0  0  0  0  0  0
  188.7180  178.1050  140.5280 C   0  0  0  0  0  3  0  0  0  0  0  0
  181.3350  179.6340  143.3100 C   0  0  0  0  0  3  0  0  0  0  0  0
  182.3600  180.5140  139.4710 N   0  0  0  0  0  0  0  0  0  0  0  0
  186.4980  178.0390  139.5470 C   0  0  0  0  0  0  0  0  0  0  0  0
  188.7850  177.6980  134.5990 O   0  0  0  0  0  0  0  0  0  0  0  0
  182.7400  179.5980  142.8660 C   0  0  0  0  0  0  0  0  0  0  0  0
  186.7850  177.8560  142.0780 C   0  0  0  0  0  2  0  0  0  0  0  0
  180.3360  179.7000  142.4180 C   0  0  0  0  0  0  0  0  0  0  0  0
  182.0250  179.9960  140.6140 C   0  0  0  0  0  0  0  0  0  0  0  0
  185.7240  178.9010  142.4070 C   0  0  0  0  0  2  0  0  0  0  0  0
  184.6890  176.2550  138.6550 C   0  0  0  0  0  2  0  0  0  0  0  0
  182.8510  178.4640  137.0460 C   0  0  1  0  0  3  0  0  0  0  0  0
  184.0000  176.4120  137.2860 C   0  0  2  0  0  3  0  0  0  0  0  0
  187.0760  178.1860  138.2930 C   0  0  0  0  0  3  0  0  0  0  0  0
  189.0020  178.2120  136.8280 O   0  0  0  0  0  0  0  0  0  0  0  0
  189.2960  178.1940  139.2470 C   0  0  0  0  0  0  0  0  0  0  0  0
  184.9080  178.5040  143.6340 C   0  0  1  0  0  3  0  0  0  0  0  0
  178.9330  179.7070  142.9070 C   0  0  0  0  0  1  0  0  0  0  0  0
  188.4620  178.2260  138.1230 C   0  0  0  0  0  0  0  0  0  0  0  0
  186.5130  176.0270  135.0680 C   0  0  2  0  0  3  0  0  0  0  0  0
  187.3240  178.0270  140.6910 C   0  0  0  0  0  0  0  0  0  0  0  0
  183.0340  179.7990  141.6130 N   0  0  0  0  0  0  0  0  0  0  0  0
  184.7980  177.2610  136.3860 N   0  0  1  0  0  0  0  0  0  0  0  0
  188.3710  177.5380  135.7740 C   0  0  0  0  0  0  0  0  0  0  0  0
  180.7940  179.6720  137.7860 C   0  0  1  0  0  3  0  0  0  0  0  0
  181.6240  179.2380  136.5810 C   0  0  0  0  0  2  0  0  0  0  0  0
  180.5930  179.6540  140.9320 C   0  0  0  0  0  2  0  0  0  0  0  0
  183.7780  179.4080  143.8320 N   0  0  0  0  0  2  0  0  0  0  0  0
  181.4680  180.7420  138.4430 O   0  0  0  0  0  0  0  0  0  0  0  0
  182.6110  177.0180  137.4260 C   0  0  2  0  0  3  0  0  0  0  0  0
  185.0590  176.5230  135.1480 C   0  0  0  0  0  2  0  0  0  0  0  0
  184.4310  177.1910  143.5190 O   0  0  0  0  0  1  0  0  0  0  0  0
  179.1320  179.6940  135.8860 C   0  0  0  0  0  1  0  0  0  0  0  0
  179.4090  180.1340  137.3190 C   0  0  2  0  0  3  0  0  0  0  0  0
  178.9940  184.5750  135.2090 N   0  0  0  0  0  1  0  0  0  0  0  0
  179.1510  182.2440  138.6980 C   0  0  0  0  0  3  0  0  0  0  0  0
  179.0170  183.7780  136.3900 C   0  0  0  0  0  0  0  0  0  0  0  0
  179.2020  182.3960  136.2860 C   0  0  0  0  0  3  0  0  0  0  0  0
  179.0020  183.6290  138.7610 C   0  0  0  0  0  3  0  0  0  0  0  0
  179.2550  181.6210  137.4460 C   0  0  0  0  0  0  0  0  0  0  0  0
  178.9360  184.3630  137.6180 N   0  0  0  0  0  0  0  0  0  0  0  0
  186.5190  174.5140  135.2910 C   0  0  0  0  0  2  0  0  0  0  0  0
  187.7120  174.0340  136.1170 C   0  0  1  0  0  0  0  0  0  0  0  0
  188.8330  173.5010  135.3380 C   0  0  2  0  0  3  0  0  0  0  0  0
  187.9970  174.7280  137.4480 C   0  0  0  0  0  1  0  0  0  0  0  0
  187.8330  172.1980  136.1980 P   0  0  1  0  0  0  0  0  0  0  0  0
  188.6860  171.4130  137.4380 O   0  0  0  0  0  1  0  0  0  0  0  0
  187.1240  171.3280  135.1820 O   0  0  0  0  0  0  0  0  0  0  0  0
  190.1960  173.6250  136.0090 C   0  0  0  0  0  2  0  0  0  0  0  0
  191.2390  172.8560  135.2210 C   0  0  0  0  0  1  0  0  0  0  0  0
  190.6870  178.2020  139.0720 O   0  0  0  0  0  0  0  0  0  0  0  0
  191.4970  177.0410  139.1990 C   0  0  0  0  0  2  0  0  0  0  0  0
  191.4180  176.2140  137.9240 C   0  0  0  0  0  2  0  0  0  0  0  0
  192.6470  176.4610  137.0700 C   0  0  0  0  0  2  0  0  0  0  0  0
  194.1300  174.6400  136.3050 C   0  0  0  0  0  1  0  0  0  0  0  0
  193.7380  175.4990  137.4860 C   0  0  0  0  0  2  0  0  0  0  0  0
  1 27  1  0  0  0  0
  5 25  1  0  0  0  0
  7 13  2  0  0  0  0
  8  3  1  0  0  0  0
  8 25  2  0  0  0  0
  9 28  2  0  0  0  0
 10  6  1  0  0  0  0
 10 32  1  0  0  0  0
 11 14  1  0  0  0  0
 12 22  1  0  0  0  0
 12  6  2  0  0  0  0
 13 31  1  0  0  0  0
 13 26  1  0  0  0  0
 14 21  1  0  0  0  0
 15  3  1  0  0  0  0
 16  1  1  6  0  0  0
 16 34  1  0  0  0  0
 17 34  1  0  0  0  0
 17 15  1  1  0  0  0
 18  8  1  0  0  0  0
 19 23  1  0  0  0  0
 20  5  2  0  0  0  0
 21 36  1  6  0  0  0
 21 32  1  0  0  0  0
 23 18  2  0  0  0  0
 23 20  1  0  0  0  0
 24 35  1  0  0  0  0
 24 46  1  1  0  0  0
 24  2  1  0  0  0  0
 25 11  1  0  0  0  0
 26 10  2  0  0  0  0
 27 35  1  6  0  0  0
 27 17  1  0  0  0  0
 28  2  1  0  0  0  0
 28 19  1  0  0  0  0
 29 38  1  6  0  0  0
 29 33  1  0  0  0  0
 30 16  1  0  0  0  0
 30 29  1  0  0  0  0
 31 12  1  0  0  0  0
 33  7  1  0  0  0  0
 34  4  1  6  0  0  0
 38 37  1  6  0  0  0
 38 44  1  0  0  0  0
 39 41  1  0  0  0  0
 40 43  1  0  0  0  0
 41 45  1  0  0  0  0
 42 41  2  0  0  0  0
 42 44  1  0  0  0  0
 44 40  2  0  0  0  0
 45 43  2  0  0  0  0
 46 47  1  0  0  0  0
 47 50  1  0  0  0  0
 47 49  1  1  0  0  0
 48 53  1  1  0  0  0
 48 47  1  0  0  0  0
 48 50  1  0  0  0  0
 50 52  2  6  0  0  0
 50 51  1  0  0  0  0
 54 53  1  0  0  0  0
 55 56  1  0  0  0  0
 55 20  1  0  0  0  0
 57 56  1  0  0  0  0
 58 60  1  0  0  0  0
 58 57  1  0  0  0  0
 59 60  1  0  0  0  0
M  END
>  <MODEL>
9

>  <REMARK>
 VINA RESULT:      -0.7      3.804      6.044
  Name = 
  10 active torsions:
  status: ('A' for Active; 'I' for Inactive)
    1  A    between atoms: C_4  and  C_51
    2  A    between atoms: C_6  and  C_24
    3  A    between atoms: C_9  and  C_34
    4  A    between atoms: C_9  and  C_39
    5  A    between atoms: C_30  and  C_45
    6  A    between atoms: C_30  and  C_48
    7  A    between atoms: C_32  and  O_59
    8  A    between atoms: C_34  and  C_52
    9  A    between atoms: C_40  and  C_51
   10  A    between atoms: C_52  and  O_59
                            x       y       z     vdW  Elec       q    Type
                         _______ _______ _______ _____ _____    ______ ____

>  <TORSDO>
F 10

$$$$
