=
 OpenBabel11062415353D

 35 37  0  0  1  0  0  0  0  0999 V2000
  186.5160  178.6560  142.9170 O   0  0  0  0  0  0  0  0  0  0  0  0
  188.0200  176.6870  143.0210 C   0  0  0  0  0  2  0  0  0  0  0  0
  186.9240  177.5300  145.1170 C   0  0  2  0  0  3  0  0  0  0  0  0
  187.0610  178.0270  146.5430 C   0  0  0  0  0  0  0  0  0  0  0  0
  188.2760  177.2110  144.4330 C   0  0  2  0  0  3  0  0  0  0  0  0
  184.6430  178.3630  146.9090 N   0  0  0  0  0  0  0  0  0  0  0  0
  187.2640  177.7050  142.1490 C   0  0  2  0  0  3  0  0  0  0  0  0
  184.1350  178.5710  145.7350 C   0  0  0  0  0  3  0  0  0  0  0  0
  186.0150  178.3190  147.3110 C   0  0  0  0  0  3  0  0  0  0  0  0
  186.0700  178.3930  144.2170 C   0  0  0  0  0  0  0  0  0  0  0  0
  184.8810  178.7990  144.5360 N   0  0  0  0  0  0  0  0  0  0  0  0
  189.3290  177.8990  147.8060 N   0  0  0  0  0  0  0  0  0  0  0  0
  188.3220  177.9530  147.2380 C   0  0  0  0  0  0  0  0  0  0  0  0
  189.2210  178.4190  144.3840 C   0  0  0  0  0  2  0  0  0  0  0  0
  190.6740  177.9650  144.4470 C   0  0  1  0  0  3  0  0  0  0  0  0
  191.7620  176.2460  145.8930 C   0  0  0  0  0  1  0  0  0  0  0  0
  190.7500  176.4810  144.7860 C   0  0  0  0  0  2  0  0  0  0  0  0
  191.4210  178.3000  143.1540 C   0  0  0  0  0  2  0  0  0  0  0  0
  191.3490  177.1710  142.1340 C   0  0  0  0  0  2  0  0  0  0  0  0
  192.6210  177.0590  141.4400 N   0  0  0  0  0  2  0  0  0  0  0  0
  192.8560  176.7630  138.0150 C   0  0  1  0  0  3  0  0  0  0  0  0
  191.4340  176.2940  138.2650 C   0  0  2  0  0  0  0  0  0  0  0  0
  193.4510  177.0300  139.2580 O   0  0  0  0  0  0  0  0  0  0  0  0
  191.0810  176.9660  139.5550 C   0  0  0  0  0  2  0  0  0  0  0  0
  192.4070  177.5020  140.0720 C   0  0  1  0  0  3  0  0  0  0  0  0
  191.3570  174.9070  138.4290 O   0  0  0  0  0  1  0  0  0  0  0  0
  190.5040  176.7410  137.1560 C   0  0  0  0  0  1  0  0  0  0  0  0
  193.6860  175.8010  137.2210 C   0  0  0  0  0  0  0  0  0  0  0  0
  194.6480  175.2040  137.7700 O   0  0  0  0  0  1  0  0  0  0  0  0
  193.4290  175.5960  135.8710 O   0  0  0  0  0  0  0  0  0  0  0  0
  188.2100  178.4390  141.2150 C   0  0  0  0  0  2  0  0  0  0  0  0
  187.9260  178.1090  139.8900 O   0  0  0  0  0  0  0  0  0  0  0  0
  186.5690  178.3910  139.7390 C   0  0  0  0  0  2  0  0  0  0  0  0
  186.1630  178.1660  138.2970 C   0  0  0  0  0  2  0  0  0  0  0  0
  187.0480  178.8350  137.4530 O   0  0  0  0  0  1  0  0  0  0  0  0
  1 10  1  0  0  0  0
  2  5  1  0  0  0  0
  3 10  1  6  0  0  0
  3  4  1  0  0  0  0
  4 13  1  0  0  0  0
  4  9  2  0  0  0  0
  5 14  1  6  0  0  0
  5  3  1  0  0  0  0
  6  9  1  0  0  0  0
  7 31  1  1  0  0  0
  7  1  1  0  0  0  0
  7  2  1  0  0  0  0
  8  6  2  0  0  0  0
 10 11  2  0  0  0  0
 11  8  1  0  0  0  0
 13 12  3  0  0  0  0
 14 15  1  0  0  0  0
 15 18  1  6  0  0  0
 15 17  1  0  0  0  0
 17 16  1  0  0  0  0
 19 18  1  0  0  0  0
 20 19  1  0  0  0  0
 21 28  1  1  0  0  0
 21 22  1  0  0  0  0
 21 23  1  0  0  0  0
 22 27  1  6  0  0  0
 22 26  1  0  0  0  0
 22 24  1  0  0  0  0
 23 25  1  0  0  0  0
 24 25  1  0  0  0  0
 25 20  1  1  0  0  0
 28 29  1  0  0  0  0
 30 28  2  0  0  0  0
 32 31  1  0  0  0  0
 33 32  1  0  0  0  0
 34 33  1  0  0  0  0
 35 34  1  0  0  0  0
M  END
>  <MODEL>
1

>  <REMARK>
 VINA RESULT:      -7.5      0.000      0.000
  Name = 
  13 active torsions:
  status: ('A' for Active; 'I' for Inactive)
    1  A    between atoms: O_3  and  C_15
    2  A    between atoms: O_3  and  C_29
    3  A    between atoms: C_4  and  C_10
    4  A    between atoms: C_6  and  C_9
    5  A    between atoms: C_11  and  C_29
    6  A    between atoms: C_13  and  C_14
    7  A    between atoms: C_14  and  C_32
    8  A    between atoms: C_15  and  C_21
    9  A    between atoms: C_20  and  C_22
   10  A    between atoms: C_20  and  C_32
   11  A    between atoms: C_22  and  N_31
   12  A    between atoms: C_25  and  C_32
   13  A    between atoms: C_27  and  N_31
                            x       y       z     vdW  Elec       q    Type
                         _______ _______ _______ _____ _____    ______ ____

>  <TORSDO>
F 13

$$$$
=
 OpenBabel11062415353D

 35 37  0  0  1  0  0  0  0  0999 V2000
  190.3960  176.3070  143.2530 O   0  0  0  0  0  0  0  0  0  0  0  0
  189.5270  178.6180  143.0160 C   0  0  0  0  0  2  0  0  0  0  0  0
  189.9440  177.6720  145.3040 C   0  0  2  0  0  3  0  0  0  0  0  0
  189.4190  177.3460  146.6890 C   0  0  0  0  0  0  0  0  0  0  0  0
  188.8850  178.2980  144.3650 C   0  0  2  0  0  3  0  0  0  0  0  0
  191.5330  176.3830  147.5220 N   0  0  0  0  0  0  0  0  0  0  0  0
  190.1010  177.3640  142.3320 C   0  0  2  0  0  3  0  0  0  0  0  0
  192.1610  175.9500  146.4740 C   0  0  0  0  0  3  0  0  0  0  0  0
  190.1830  176.8370  147.6510 C   0  0  0  0  0  3  0  0  0  0  0  0
  190.6590  176.5370  144.6070 C   0  0  0  0  0  0  0  0  0  0  0  0
  191.6060  175.8440  145.1590 N   0  0  0  0  0  0  0  0  0  0  0  0
  187.1020  178.2100  147.4870 N   0  0  0  0  0  0  0  0  0  0  0  0
  188.1300  177.8220  147.1260 C   0  0  0  0  0  0  0  0  0  0  0  0
  187.6570  177.4000  144.1650 C   0  0  0  0  0  2  0  0  0  0  0  0
  186.4350  178.2360  143.8030 C   0  0  1  0  0  3  0  0  0  0  0  0
  185.9920  179.1280  141.5160 C   0  0  0  0  0  1  0  0  0  0  0  0
  185.9580  177.8930  142.3970 C   0  0  0  0  0  2  0  0  0  0  0  0
  185.3240  178.0810  144.8430 C   0  0  0  0  0  2  0  0  0  0  0  0
  184.2100  179.1030  144.6590 C   0  0  0  0  0  2  0  0  0  0  0  0
  182.9670  178.4200  144.3440 N   0  0  0  0  0  2  0  0  0  0  0  0
  181.3190  178.8670  141.3510 C   0  0  1  0  0  3  0  0  0  0  0  0
  180.1610  178.8090  142.3310 C   0  0  2  0  0  0  0  0  0  0  0  0
  182.5060  178.6450  142.0660 O   0  0  0  0  0  0  0  0  0  0  0  0
  180.7900  179.2400  143.6190 C   0  0  0  0  0  2  0  0  0  0  0  0
  182.2840  179.2110  143.3330 C   0  0  1  0  0  3  0  0  0  0  0  0
  179.6540  177.5140  142.4730 O   0  0  0  0  0  1  0  0  0  0  0  0
  179.0540  179.7630  141.9310 C   0  0  0  0  0  1  0  0  0  0  0  0
  181.1980  177.9100  140.2050 C   0  0  0  0  0  0  0  0  0  0  0  0
  181.9760  176.9240  140.1300 O   0  0  0  0  0  1  0  0  0  0  0  0
  180.2620  178.1270  139.2010 O   0  0  0  0  0  0  0  0  0  0  0  0
  189.1660  176.8500  141.2510 C   0  0  0  0  0  2  0  0  0  0  0  0
  188.9690  177.8340  140.2810 O   0  0  0  0  0  0  0  0  0  0  0  0
  188.8220  177.1280  139.0880 C   0  0  0  0  0  2  0  0  0  0  0  0
  188.7200  178.1030  137.9330 C   0  0  0  0  0  2  0  0  0  0  0  0
  189.0020  179.3920  138.3840 O   0  0  0  0  0  1  0  0  0  0  0  0
  1 10  1  0  0  0  0
  2  5  1  0  0  0  0
  3 10  1  6  0  0  0
  3  4  1  0  0  0  0
  4 13  1  0  0  0  0
  4  9  2  0  0  0  0
  5 14  1  6  0  0  0
  5  3  1  0  0  0  0
  6  9  1  0  0  0  0
  7 31  1  6  0  0  0
  7  2  1  0  0  0  0
  7  1  1  0  0  0  0
  8  6  2  0  0  0  0
 10 11  2  0  0  0  0
 11  8  1  0  0  0  0
 13 12  3  0  0  0  0
 15 17  1  6  0  0  0
 15 14  1  0  0  0  0
 15 18  1  0  0  0  0
 16 17  1  0  0  0  0
 19 18  1  0  0  0  0
 20 19  1  0  0  0  0
 21 28  1  6  0  0  0
 21 23  1  0  0  0  0
 21 22  1  0  0  0  0
 22 27  1  6  0  0  0
 22 26  1  0  0  0  0
 22 24  1  0  0  0  0
 23 25  1  0  0  0  0
 25 24  1  0  0  0  0
 25 20  1  1  0  0  0
 29 28  1  0  0  0  0
 30 28  2  0  0  0  0
 32 31  1  0  0  0  0
 33 32  1  0  0  0  0
 34 35  1  0  0  0  0
 34 33  1  0  0  0  0
M  END
>  <MODEL>
2

>  <REMARK>
 VINA RESULT:      -7.1      3.349      7.830
  Name = 
  13 active torsions:
  status: ('A' for Active; 'I' for Inactive)
    1  A    between atoms: O_3  and  C_15
    2  A    between atoms: O_3  and  C_29
    3  A    between atoms: C_4  and  C_10
    4  A    between atoms: C_6  and  C_9
    5  A    between atoms: C_11  and  C_29
    6  A    between atoms: C_13  and  C_14
    7  A    between atoms: C_14  and  C_32
    8  A    between atoms: C_15  and  C_21
    9  A    between atoms: C_20  and  C_22
   10  A    between atoms: C_20  and  C_32
   11  A    between atoms: C_22  and  N_31
   12  A    between atoms: C_25  and  C_32
   13  A    between atoms: C_27  and  N_31
                            x       y       z     vdW  Elec       q    Type
                         _______ _______ _______ _____ _____    ______ ____

>  <TORSDO>
F 13

$$$$
=
 OpenBabel11062415353D

 35 37  0  0  1  0  0  0  0  0999 V2000
  187.4990  178.2140  145.7950 O   0  0  0  0  0  0  0  0  0  0  0  0
  186.8910  176.6320  143.9840 C   0  0  0  0  0  2  0  0  0  0  0  0
  189.2810  176.8080  144.7340 C   0  0  2  0  0  3  0  0  0  0  0  0
  190.7370  177.0460  144.3830 C   0  0  0  0  0  0  0  0  0  0  0  0
  188.3200  176.9230  143.5260 C   0  0  2  0  0  3  0  0  0  0  0  0
  191.5820  176.7780  146.6860 N   0  0  0  0  0  0  0  0  0  0  0  0
  186.4180  177.6090  145.0750 C   0  0  2  0  0  3  0  0  0  0  0  0
  190.5920  177.0880  147.4630 C   0  0  0  0  0  3  0  0  0  0  0  0
  191.7210  176.9550  145.2730 C   0  0  0  0  0  3  0  0  0  0  0  0
  188.7620  177.6210  145.8980 C   0  0  0  0  0  0  0  0  0  0  0  0
  189.3660  177.6930  147.0430 N   0  0  0  0  0  0  0  0  0  0  0  0
  191.5230  177.1790  141.9090 N   0  0  0  0  0  0  0  0  0  0  0  0
  191.1680  177.1150  143.0090 C   0  0  0  0  0  0  0  0  0  0  0  0
  188.3840  178.2930  142.8380 C   0  0  0  0  0  2  0  0  0  0  0  0
  187.6950  178.2440  141.4800 C   0  0  1  0  0  3  0  0  0  0  0  0
  185.4110  178.6740  140.5740 C   0  0  0  0  0  1  0  0  0  0  0  0
  186.5280  179.2220  141.4430 C   0  0  0  0  0  2  0  0  0  0  0  0
  188.6880  178.4870  140.3410 C   0  0  0  0  0  2  0  0  0  0  0  0
  188.8540  177.2650  139.4460 C   0  0  0  0  0  2  0  0  0  0  0  0
  188.0280  177.4130  138.2600 N   0  0  0  0  0  2  0  0  0  0  0  0
  190.9550  176.4200  136.7370 C   0  0  1  0  0  3  0  0  0  0  0  0
  190.1800  175.1160  136.7870 C   0  0  2  0  0  0  0  0  0  0  0  0
  190.1910  177.4060  137.3800 O   0  0  0  0  0  0  0  0  0  0  0  0
  188.7550  175.5740  136.8360 C   0  0  0  0  0  2  0  0  0  0  0  0
  188.8530  177.0670  137.1140 C   0  0  1  0  0  3  0  0  0  0  0  0
  190.4680  174.3740  137.9360 O   0  0  0  0  0  1  0  0  0  0  0  0
  190.4300  174.2790  135.5490 C   0  0  0  0  0  1  0  0  0  0  0  0
  192.3290  176.3370  137.3300 C   0  0  0  0  0  0  0  0  0  0  0  0
  193.2810  175.8900  136.6400 O   0  0  0  0  0  0  0  0  0  0  0  0
  192.5500  176.7090  138.6500 O   0  0  0  0  0  1  0  0  0  0  0  0
  185.5260  178.6920  144.4940 C   0  0  0  0  0  2  0  0  0  0  0  0
  184.2620  178.1720  144.2150 O   0  0  0  0  0  0  0  0  0  0  0  0
  183.4020  179.2650  144.3090 C   0  0  0  0  0  2  0  0  0  0  0  0
  182.0850  178.9320  143.6370 C   0  0  0  0  0  2  0  0  0  0  0  0
  182.2830  178.7980  142.2640 O   0  0  0  0  0  1  0  0  0  0  0  0
  1 10  1  0  0  0  0
  2  7  1  0  0  0  0
  3  4  1  6  0  0  0
  3 10  1  0  0  0  0
  4  9  2  0  0  0  0
  5 14  1  1  0  0  0
  5  2  1  0  0  0  0
  5  3  1  0  0  0  0
  6  8  2  0  0  0  0
  7 31  1  6  0  0  0
  7  1  1  0  0  0  0
  9  6  1  0  0  0  0
 10 11  2  0  0  0  0
 11  8  1  0  0  0  0
 12 13  3  0  0  0  0
 13  4  1  0  0  0  0
 15 18  1  6  0  0  0
 15 14  1  0  0  0  0
 16 17  1  0  0  0  0
 17 15  1  0  0  0  0
 19 18  1  0  0  0  0
 20 19  1  0  0  0  0
 21 22  1  0  0  0  0
 21 28  1  1  0  0  0
 21 23  1  0  0  0  0
 22 27  1  6  0  0  0
 22 24  1  0  0  0  0
 22 26  1  0  0  0  0
 24 25  1  0  0  0  0
 25 23  1  0  0  0  0
 25 20  1  1  0  0  0
 28 30  1  0  0  0  0
 29 28  2  0  0  0  0
 32 33  1  0  0  0  0
 32 31  1  0  0  0  0
 34 33  1  0  0  0  0
 35 34  1  0  0  0  0
M  END
>  <MODEL>
3

>  <REMARK>
 VINA RESULT:      -7.0      2.049      4.600
  Name = 
  13 active torsions:
  status: ('A' for Active; 'I' for Inactive)
    1  A    between atoms: O_3  and  C_15
    2  A    between atoms: O_3  and  C_29
    3  A    between atoms: C_4  and  C_10
    4  A    between atoms: C_6  and  C_9
    5  A    between atoms: C_11  and  C_29
    6  A    between atoms: C_13  and  C_14
    7  A    between atoms: C_14  and  C_32
    8  A    between atoms: C_15  and  C_21
    9  A    between atoms: C_20  and  C_22
   10  A    between atoms: C_20  and  C_32
   11  A    between atoms: C_22  and  N_31
   12  A    between atoms: C_25  and  C_32
   13  A    between atoms: C_27  and  N_31
                            x       y       z     vdW  Elec       q    Type
                         _______ _______ _______ _____ _____    ______ ____

>  <TORSDO>
F 13

$$$$
=
 OpenBabel11062415353D

 35 37  0  0  1  0  0  0  0  0999 V2000
  190.4550  176.5050  143.2740 O   0  0  0  0  0  0  0  0  0  0  0  0
  189.1970  178.6280  143.0220 C   0  0  0  0  0  2  0  0  0  0  0  0
  189.6410  177.7070  145.3150 C   0  0  2  0  0  3  0  0  0  0  0  0
  189.1010  177.2520  146.6580 C   0  0  0  0  0  0  0  0  0  0  0  0
  188.5440  178.1590  144.3210 C   0  0  2  0  0  3  0  0  0  0  0  0
  191.3010  176.6610  147.6090 N   0  0  0  0  0  0  0  0  0  0  0  0
  190.0300  177.5180  142.3550 C   0  0  2  0  0  3  0  0  0  0  0  0
  192.0590  176.3790  146.5950 C   0  0  0  0  0  3  0  0  0  0  0  0
  189.8860  176.8610  147.6580 C   0  0  0  0  0  3  0  0  0  0  0  0
  190.5910  176.7400  144.6460 C   0  0  0  0  0  0  0  0  0  0  0  0
  191.6130  176.2140  145.2460 N   0  0  0  0  0  0  0  0  0  0  0  0
  186.6180  177.6640  147.3020 N   0  0  0  0  0  0  0  0  0  0  0  0
  187.7240  177.4750  147.0190 C   0  0  0  0  0  0  0  0  0  0  0  0
  187.5130  177.0610  144.0270 C   0  0  0  0  0  2  0  0  0  0  0  0
  186.1620  177.6730  143.6790 C   0  0  1  0  0  3  0  0  0  0  0  0
  184.5580  178.9120  145.1340 C   0  0  0  0  0  1  0  0  0  0  0  0
  185.9320  178.9410  144.4910 C   0  0  0  0  0  2  0  0  0  0  0  0
  186.0290  177.9190  142.1750 C   0  0  0  0  0  2  0  0  0  0  0  0
  185.6040  179.3460  141.8560 C   0  0  0  0  0  2  0  0  0  0  0  0
  184.6620  179.3390  140.7500 N   0  0  0  0  0  2  0  0  0  0  0  0
  181.5510  178.1990  141.6980 C   0  0  1  0  0  3  0  0  0  0  0  0
  181.4590  178.1150  140.1850 C   0  0  2  0  0  0  0  0  0  0  0  0
  182.7960  178.7570  142.0280 O   0  0  0  0  0  0  0  0  0  0  0  0
  182.8910  177.9830  139.7690 C   0  0  0  0  0  2  0  0  0  0  0  0
  183.6770  178.3060  141.0300 C   0  0  1  0  0  3  0  0  0  0  0  0
  180.9170  179.2750  139.6240 O   0  0  0  0  0  1  0  0  0  0  0  0
  180.6610  176.9030  139.7500 C   0  0  0  0  0  1  0  0  0  0  0  0
  180.4350  178.9690  142.3360 C   0  0  0  0  0  0  0  0  0  0  0  0
  179.3230  178.4130  142.5290 O   0  0  0  0  0  0  0  0  0  0  0  0
  180.6050  180.3050  142.6760 O   0  0  0  0  0  1  0  0  0  0  0  0
  189.2700  176.8760  141.2070 C   0  0  0  0  0  2  0  0  0  0  0  0
  190.1640  176.3150  140.2950 O   0  0  0  0  0  0  0  0  0  0  0  0
  190.2900  177.2730  139.2900 C   0  0  0  0  0  2  0  0  0  0  0  0
  188.9120  177.6890  138.8140 C   0  0  0  0  0  2  0  0  0  0  0  0
  188.8970  179.0620  138.5740 O   0  0  0  0  0  1  0  0  0  0  0  0
  1 10  1  0  0  0  0
  2  5  1  0  0  0  0
  3 10  1  6  0  0  0
  3  4  1  0  0  0  0
  4 13  1  0  0  0  0
  4  9  2  0  0  0  0
  5 14  1  6  0  0  0
  5  3  1  0  0  0  0
  6  9  1  0  0  0  0
  7 31  1  6  0  0  0
  7  2  1  0  0  0  0
  7  1  1  0  0  0  0
  8  6  2  0  0  0  0
 10 11  2  0  0  0  0
 11  8  1  0  0  0  0
 13 12  3  0  0  0  0
 15 18  1  6  0  0  0
 15 14  1  0  0  0  0
 15 17  1  0  0  0  0
 17 16  1  0  0  0  0
 19 18  1  0  0  0  0
 20 19  1  0  0  0  0
 21 23  1  0  0  0  0
 21 28  1  6  0  0  0
 22 27  1  6  0  0  0
 22 21  1  0  0  0  0
 24 22  1  0  0  0  0
 24 25  1  0  0  0  0
 25 20  1  6  0  0  0
 25 23  1  0  0  0  0
 26 22  1  0  0  0  0
 28 29  2  0  0  0  0
 28 30  1  0  0  0  0
 32 31  1  0  0  0  0
 33 32  1  0  0  0  0
 34 33  1  0  0  0  0
 35 34  1  0  0  0  0
M  END
>  <MODEL>
4

>  <REMARK>
 VINA RESULT:      -6.9      3.296      7.600
  Name = 
  13 active torsions:
  status: ('A' for Active; 'I' for Inactive)
    1  A    between atoms: O_3  and  C_15
    2  A    between atoms: O_3  and  C_29
    3  A    between atoms: C_4  and  C_10
    4  A    between atoms: C_6  and  C_9
    5  A    between atoms: C_11  and  C_29
    6  A    between atoms: C_13  and  C_14
    7  A    between atoms: C_14  and  C_32
    8  A    between atoms: C_15  and  C_21
    9  A    between atoms: C_20  and  C_22
   10  A    between atoms: C_20  and  C_32
   11  A    between atoms: C_22  and  N_31
   12  A    between atoms: C_25  and  C_32
   13  A    between atoms: C_27  and  N_31
                            x       y       z     vdW  Elec       q    Type
                         _______ _______ _______ _____ _____    ______ ____

>  <TORSDO>
F 13

$$$$
=
 OpenBabel11062415353D

 35 37  0  0  1  0  0  0  0  0999 V2000
  190.5460  176.3750  143.2030 O   0  0  0  0  0  0  0  0  0  0  0  0
  189.4250  178.5690  142.9190 C   0  0  0  0  0  2  0  0  0  0  0  0
  189.7560  177.6280  145.2230 C   0  0  2  0  0  3  0  0  0  0  0  0
  189.1570  177.2100  146.5520 C   0  0  0  0  0  0  0  0  0  0  0  0
  188.7120  178.1430  144.2020 C   0  0  2  0  0  3  0  0  0  0  0  0
  191.2940  176.4900  147.5570 N   0  0  0  0  0  0  0  0  0  0  0  0
  190.2050  177.4100  142.2730 C   0  0  2  0  0  3  0  0  0  0  0  0
  192.0580  176.1610  146.5630 C   0  0  0  0  0  3  0  0  0  0  0  0
  189.8920  176.7750  147.5720 C   0  0  0  0  0  3  0  0  0  0  0  0
  190.6620  176.6050  144.5780 C   0  0  0  0  0  0  0  0  0  0  0  0
  191.6350  176.0190  145.2030 N   0  0  0  0  0  0  0  0  0  0  0  0
  186.6910  177.7750  147.1440 N   0  0  0  0  0  0  0  0  0  0  0  0
  187.7870  177.5160  146.8790 C   0  0  0  0  0  0  0  0  0  0  0  0
  187.6250  177.1080  143.8830 C   0  0  0  0  0  2  0  0  0  0  0  0
  186.3590  177.7960  143.3890 C   0  0  1  0  0  3  0  0  0  0  0  0
  184.4020  178.6330  144.6910 C   0  0  0  0  0  1  0  0  0  0  0  0
  185.8810  178.8210  144.4100 C   0  0  0  0  0  2  0  0  0  0  0  0
  186.5620  178.4130  142.0040 C   0  0  0  0  0  2  0  0  0  0  0  0
  185.3740  179.2610  141.5670 C   0  0  0  0  0  2  0  0  0  0  0  0
  185.2740  179.2510  140.1170 N   0  0  0  0  0  2  0  0  0  0  0  0
  182.4490  178.2090  138.4420 C   0  0  1  0  0  3  0  0  0  0  0  0
  182.2800  177.5200  139.7840 C   0  0  2  0  0  0  0  0  0  0  0  0
  183.6790  178.8840  138.4520 O   0  0  0  0  0  0  0  0  0  0  0  0
  183.0740  178.3870  140.7100 C   0  0  0  0  0  2  0  0  0  0  0  0
  183.8600  179.3010  139.7820 C   0  0  1  0  0  3  0  0  0  0  0  0
  182.8150  176.2290  139.7850 O   0  0  0  0  0  1  0  0  0  0  0  0
  180.8240  177.4820  140.2030 C   0  0  0  0  0  1  0  0  0  0  0  0
  182.3540  177.2870  137.2650 C   0  0  0  0  0  0  0  0  0  0  0  0
  181.2270  176.8870  136.8740 O   0  0  0  0  0  1  0  0  0  0  0  0
  183.5050  176.8360  136.6290 O   0  0  0  0  0  0  0  0  0  0  0  0
  189.4360  176.8110  141.1070 C   0  0  0  0  0  2  0  0  0  0  0  0
  190.3230  176.3430  140.1390 O   0  0  0  0  0  0  0  0  0  0  0  0
  190.2440  177.2760  139.1060 C   0  0  0  0  0  2  0  0  0  0  0  0
  188.9230  178.0140  139.1940 C   0  0  0  0  0  2  0  0  0  0  0  0
  188.9820  179.1690  138.4160 O   0  0  0  0  0  1  0  0  0  0  0  0
  1 10  1  0  0  0  0
  2  5  1  0  0  0  0
  3 10  1  6  0  0  0
  3  4  1  0  0  0  0
  4 13  1  0  0  0  0
  4  9  2  0  0  0  0
  5 14  1  6  0  0  0
  5  3  1  0  0  0  0
  6  9  1  0  0  0  0
  7 31  1  6  0  0  0
  7  2  1  0  0  0  0
  7  1  1  0  0  0  0
  8  6  2  0  0  0  0
 10 11  2  0  0  0  0
 11  8  1  0  0  0  0
 13 12  3  0  0  0  0
 15 18  1  6  0  0  0
 15 14  1  0  0  0  0
 15 17  1  0  0  0  0
 17 16  1  0  0  0  0
 19 18  1  0  0  0  0
 20 19  1  0  0  0  0
 21 28  1  6  0  0  0
 21 23  1  0  0  0  0
 21 22  1  0  0  0  0
 22 26  1  0  0  0  0
 22 27  1  1  0  0  0
 22 24  1  0  0  0  0
 23 25  1  0  0  0  0
 25 20  1  1  0  0  0
 25 24  1  0  0  0  0
 29 28  1  0  0  0  0
 30 28  2  0  0  0  0
 32 31  1  0  0  0  0
 33 34  1  0  0  0  0
 33 32  1  0  0  0  0
 35 34  1  0  0  0  0
M  END
>  <MODEL>
5

>  <REMARK>
 VINA RESULT:      -6.8      2.968      6.740
  Name = 
  13 active torsions:
  status: ('A' for Active; 'I' for Inactive)
    1  A    between atoms: O_3  and  C_15
    2  A    between atoms: O_3  and  C_29
    3  A    between atoms: C_4  and  C_10
    4  A    between atoms: C_6  and  C_9
    5  A    between atoms: C_11  and  C_29
    6  A    between atoms: C_13  and  C_14
    7  A    between atoms: C_14  and  C_32
    8  A    between atoms: C_15  and  C_21
    9  A    between atoms: C_20  and  C_22
   10  A    between atoms: C_20  and  C_32
   11  A    between atoms: C_22  and  N_31
   12  A    between atoms: C_25  and  C_32
   13  A    between atoms: C_27  and  N_31
                            x       y       z     vdW  Elec       q    Type
                         _______ _______ _______ _____ _____    ______ ____

>  <TORSDO>
F 13

$$$$
=
 OpenBabel11062415353D

 35 37  0  0  1  0  0  0  0  0999 V2000
  189.9010  177.7800  143.8120 O   0  0  0  0  0  0  0  0  0  0  0  0
  187.8840  176.3410  143.7050 C   0  0  0  0  0  2  0  0  0  0  0  0
  188.9520  177.1490  141.5810 C   0  0  2  0  0  3  0  0  0  0  0  0
  188.8180  177.8710  140.2540 C   0  0  0  0  0  0  0  0  0  0  0  0
  187.6460  177.1190  142.4110 C   0  0  2  0  0  3  0  0  0  0  0  0
  191.1750  177.5760  139.5850 N   0  0  0  0  0  0  0  0  0  0  0  0
  188.9920  176.9700  144.5680 C   0  0  2  0  0  3  0  0  0  0  0  0
  191.8430  177.4590  140.6910 C   0  0  0  0  0  3  0  0  0  0  0  0
  189.8160  177.9720  139.3810 C   0  0  0  0  0  3  0  0  0  0  0  0
  190.1110  177.6000  142.4410 C   0  0  0  0  0  0  0  0  0  0  0  0
  191.3260  177.7040  142.0020 N   0  0  0  0  0  0  0  0  0  0  0  0
  186.4830  178.5600  139.3430 N   0  0  0  0  0  0  0  0  0  0  0  0
  187.5250  178.2510  139.7420 C   0  0  0  0  0  0  0  0  0  0  0  0
  187.1060  178.5190  142.7300 C   0  0  0  0  0  2  0  0  0  0  0  0
  185.6540  178.4430  143.1850 C   0  0  1  0  0  3  0  0  0  0  0  0
  184.9960  178.6110  145.5860 C   0  0  0  0  0  1  0  0  0  0  0  0
  185.4170  179.3910  144.3550 C   0  0  0  0  0  2  0  0  0  0  0  0
  184.6890  178.7040  142.0270 C   0  0  0  0  0  2  0  0  0  0  0  0
  183.2300  178.6370  142.4600 C   0  0  0  0  0  2  0  0  0  0  0  0
  182.3700  178.8490  141.3090 N   0  0  0  0  0  2  0  0  0  0  0  0
  182.3110  176.4040  138.8800 C   0  0  1  0  0  3  0  0  0  0  0  0
  181.9640  177.6440  138.0750 C   0  0  2  0  0  0  0  0  0  0  0  0
  182.4250  176.7790  140.2280 O   0  0  0  0  0  0  0  0  0  0  0  0
  182.5690  178.7500  138.8820 C   0  0  0  0  0  2  0  0  0  0  0  0
  182.9330  178.0900  140.2040 C   0  0  1  0  0  3  0  0  0  0  0  0
  180.5840  177.8410  137.9790 O   0  0  0  0  0  1  0  0  0  0  0  0
  182.5810  177.5910  136.6920 C   0  0  0  0  0  1  0  0  0  0  0  0
  181.3360  175.2780  138.7200 C   0  0  0  0  0  0  0  0  0  0  0  0
  181.3800  174.5560  137.6900 O   0  0  0  0  0  0  0  0  0  0  0  0
  180.3560  175.0530  139.6780 O   0  0  0  0  0  1  0  0  0  0  0  0
  188.4060  177.7900  145.7040 C   0  0  0  0  0  2  0  0  0  0  0  0
  189.3800  178.0290  146.6740 O   0  0  0  0  0  0  0  0  0  0  0  0
  189.6870  176.7680  147.1830 C   0  0  0  0  0  2  0  0  0  0  0  0
  191.1680  176.6980  147.4990 C   0  0  0  0  0  2  0  0  0  0  0  0
  191.9020  177.1180  146.3910 O   0  0  0  0  0  1  0  0  0  0  0  0
  1  7  1  0  0  0  0
  2  7  1  0  0  0  0
  3  4  1  6  0  0  0
  3  5  1  0  0  0  0
  3 10  1  0  0  0  0
  5 14  1  1  0  0  0
  5  2  1  0  0  0  0
  6  8  2  0  0  0  0
  7 31  1  1  0  0  0
  8 11  1  0  0  0  0
  9  6  1  0  0  0  0
  9  4  2  0  0  0  0
 10  1  1  0  0  0  0
 11 10  2  0  0  0  0
 12 13  3  0  0  0  0
 13  4  1  0  0  0  0
 14 15  1  0  0  0  0
 15 18  1  6  0  0  0
 15 17  1  0  0  0  0
 17 16  1  0  0  0  0
 18 19  1  0  0  0  0
 20 19  1  0  0  0  0
 21 28  1  1  0  0  0
 21 23  1  0  0  0  0
 22 27  1  6  0  0  0
 22 21  1  0  0  0  0
 22 24  1  0  0  0  0
 24 25  1  0  0  0  0
 25 23  1  0  0  0  0
 25 20  1  1  0  0  0
 26 22  1  0  0  0  0
 28 30  1  0  0  0  0
 29 28  2  0  0  0  0
 31 32  1  0  0  0  0
 32 33  1  0  0  0  0
 33 34  1  0  0  0  0
 35 34  1  0  0  0  0
M  END
>  <MODEL>
6

>  <REMARK>
 VINA RESULT:      -6.6      3.663      8.371
  Name = 
  13 active torsions:
  status: ('A' for Active; 'I' for Inactive)
    1  A    between atoms: O_3  and  C_15
    2  A    between atoms: O_3  and  C_29
    3  A    between atoms: C_4  and  C_10
    4  A    between atoms: C_6  and  C_9
    5  A    between atoms: C_11  and  C_29
    6  A    between atoms: C_13  and  C_14
    7  A    between atoms: C_14  and  C_32
    8  A    between atoms: C_15  and  C_21
    9  A    between atoms: C_20  and  C_22
   10  A    between atoms: C_20  and  C_32
   11  A    between atoms: C_22  and  N_31
   12  A    between atoms: C_25  and  C_32
   13  A    between atoms: C_27  and  N_31
                            x       y       z     vdW  Elec       q    Type
                         _______ _______ _______ _____ _____    ______ ____

>  <TORSDO>
F 13

$$$$
=
 OpenBabel11062415353D

 35 37  0  0  1  0  0  0  0  0999 V2000
  186.3850  178.7050  145.2820 O   0  0  0  0  0  0  0  0  0  0  0  0
  186.6750  176.6500  143.9240 C   0  0  0  0  0  2  0  0  0  0  0  0
  188.2450  177.1190  145.8260 C   0  0  2  0  0  3  0  0  0  0  0  0
  189.6680  177.2980  146.3200 C   0  0  0  0  0  0  0  0  0  0  0  0
  188.1410  176.8490  144.3050 C   0  0  2  0  0  3  0  0  0  0  0  0
  189.0500  177.7300  148.6700 N   0  0  0  0  0  0  0  0  0  0  0  0
  185.8130  177.8810  144.2580 C   0  0  2  0  0  3  0  0  0  0  0  0
  187.8480  178.2150  148.6340 C   0  0  0  0  0  3  0  0  0  0  0  0
  189.9700  177.5010  147.5990 C   0  0  0  0  0  3  0  0  0  0  0  0
  187.2850  178.2120  146.2330 C   0  0  0  0  0  0  0  0  0  0  0  0
  187.1550  178.6300  147.4530 N   0  0  0  0  0  0  0  0  0  0  0  0
  191.6900  176.7260  144.7900 N   0  0  0  0  0  0  0  0  0  0  0  0
  190.7930  176.9860  145.4740 C   0  0  0  0  0  0  0  0  0  0  0  0
  188.7600  177.9660  143.4540 C   0  0  0  0  0  2  0  0  0  0  0  0
  188.9090  177.5170  142.0060 C   0  0  1  0  0  3  0  0  0  0  0  0
  187.5400  178.2530  140.0540 C   0  0  0  0  0  1  0  0  0  0  0  0
  188.5960  178.6700  141.0610 C   0  0  0  0  0  2  0  0  0  0  0  0
  190.2920  176.9170  141.7450 C   0  0  0  0  0  2  0  0  0  0  0  0
  190.9330  177.4670  140.4780 C   0  0  0  0  0  2  0  0  0  0  0  0
  192.3510  177.1480  140.4710 N   0  0  0  0  0  2  0  0  0  0  0  0
  193.8020  175.6840  137.7090 C   0  0  1  0  0  3  0  0  0  0  0  0
  192.3260  175.4530  137.4370 C   0  0  2  0  0  0  0  0  0  0  0  0
  193.9210  176.3060  138.9620 O   0  0  0  0  0  0  0  0  0  0  0  0
  191.6660  176.5530  138.2090 C   0  0  0  0  0  2  0  0  0  0  0  0
  192.7790  177.1160  139.0810 C   0  0  1  0  0  3  0  0  0  0  0  0
  191.8870  174.2180  137.9230 O   0  0  0  0  0  1  0  0  0  0  0  0
  192.0140  175.5740  135.9600 C   0  0  0  0  0  1  0  0  0  0  0  0
  194.6360  174.4410  137.6480 C   0  0  0  0  0  0  0  0  0  0  0  0
  195.0600  173.9200  138.7120 O   0  0  0  0  0  1  0  0  0  0  0  0
  194.9820  173.8840  136.4230 O   0  0  0  0  0  0  0  0  0  0  0  0
  185.5490  178.7200  143.0200 C   0  0  0  0  0  2  0  0  0  0  0  0
  184.5710  179.6770  143.2900 O   0  0  0  0  0  0  0  0  0  0  0  0
  183.3630  179.0150  143.0840 C   0  0  0  0  0  2  0  0  0  0  0  0
  183.2710  178.5690  141.6390 C   0  0  0  0  0  2  0  0  0  0  0  0
  181.9320  178.5050  141.2540 O   0  0  0  0  0  1  0  0  0  0  0  0
  1 10  1  0  0  0  0
  2  7  1  0  0  0  0
  2  5  1  0  0  0  0
  3 10  1  6  0  0  0
  3  4  1  0  0  0  0
  4  9  2  0  0  0  0
  5 14  1  6  0  0  0
  5  3  1  0  0  0  0
  7 31  1  6  0  0  0
  7  1  1  0  0  0  0
  8  6  2  0  0  0  0
  9  6  1  0  0  0  0
 10 11  2  0  0  0  0
 11  8  1  0  0  0  0
 12 13  3  0  0  0  0
 13  4  1  0  0  0  0
 15 17  1  6  0  0  0
 15 14  1  0  0  0  0
 16 17  1  0  0  0  0
 18 15  1  0  0  0  0
 19 18  1  0  0  0  0
 20 19  1  0  0  0  0
 21 28  1  1  0  0  0
 21 23  1  0  0  0  0
 22 27  1  6  0  0  0
 22 21  1  0  0  0  0
 22 26  1  0  0  0  0
 22 24  1  0  0  0  0
 23 25  1  0  0  0  0
 24 25  1  0  0  0  0
 25 20  1  1  0  0  0
 28 29  1  0  0  0  0
 30 28  2  0  0  0  0
 31 32  1  0  0  0  0
 33 32  1  0  0  0  0
 34 33  1  0  0  0  0
 35 34  1  0  0  0  0
M  END
>  <MODEL>
7

>  <REMARK>
 VINA RESULT:      -6.5      2.041      3.273
  Name = 
  13 active torsions:
  status: ('A' for Active; 'I' for Inactive)
    1  A    between atoms: O_3  and  C_15
    2  A    between atoms: O_3  and  C_29
    3  A    between atoms: C_4  and  C_10
    4  A    between atoms: C_6  and  C_9
    5  A    between atoms: C_11  and  C_29
    6  A    between atoms: C_13  and  C_14
    7  A    between atoms: C_14  and  C_32
    8  A    between atoms: C_15  and  C_21
    9  A    between atoms: C_20  and  C_22
   10  A    between atoms: C_20  and  C_32
   11  A    between atoms: C_22  and  N_31
   12  A    between atoms: C_25  and  C_32
   13  A    between atoms: C_27  and  N_31
                            x       y       z     vdW  Elec       q    Type
                         _______ _______ _______ _____ _____    ______ ____

>  <TORSDO>
F 13

$$$$
=
 OpenBabel11062415353D

 35 37  0  0  1  0  0  0  0  0999 V2000
  186.1290  178.6960  145.1340 O   0  0  0  0  0  0  0  0  0  0  0  0
  186.8070  176.7780  143.7160 C   0  0  0  0  0  2  0  0  0  0  0  0
  188.1070  177.3110  145.7960 C   0  0  2  0  0  3  0  0  0  0  0  0
  189.4400  177.6250  146.4480 C   0  0  0  0  0  0  0  0  0  0  0  0
  188.1910  177.1250  144.2620 C   0  0  2  0  0  3  0  0  0  0  0  0
  188.5390  177.8350  148.7370 N   0  0  0  0  0  0  0  0  0  0  0  0
  185.7700  177.8760  144.0150 C   0  0  2  0  0  3  0  0  0  0  0  0
  187.2960  178.1760  148.5960 C   0  0  0  0  0  3  0  0  0  0  0  0
  189.5840  177.7830  147.7610 C   0  0  0  0  0  3  0  0  0  0  0  0
  186.9820  178.2550  146.1510 C   0  0  0  0  0  0  0  0  0  0  0  0
  186.6790  178.5790  147.3690 N   0  0  0  0  0  0  0  0  0  0  0  0
  191.6700  177.4110  145.1320 N   0  0  0  0  0  0  0  0  0  0  0  0
  190.6740  177.5010  145.7140 C   0  0  0  0  0  0  0  0  0  0  0  0
  188.7500  178.3570  143.5380 C   0  0  0  0  0  2  0  0  0  0  0  0
  189.4250  177.9530  142.2340 C   0  0  1  0  0  3  0  0  0  0  0  0
  191.3440  176.3730  142.0240 C   0  0  0  0  0  1  0  0  0  0  0  0
  189.8550  176.4930  142.2910 C   0  0  0  0  0  2  0  0  0  0  0  0
  188.5300  178.2430  141.0270 C   0  0  0  0  0  2  0  0  0  0  0  0
  189.2560  178.0410  139.7040 C   0  0  0  0  0  2  0  0  0  0  0  0
  188.7760  179.0080  138.7310 N   0  0  0  0  0  2  0  0  0  0  0  0
  189.6100  176.4980  136.5230 C   0  0  1  0  0  3  0  0  0  0  0  0
  188.1030  176.5650  136.3540 C   0  0  2  0  0  0  0  0  0  0  0  0
  189.9770  177.4080  137.5260 O   0  0  0  0  0  0  0  0  0  0  0  0
  187.7810  177.9670  136.7660 C   0  0  0  0  0  2  0  0  0  0  0  0
  189.0630  178.4710  137.4110 C   0  0  1  0  0  3  0  0  0  0  0  0
  187.4380  175.6690  137.1970 O   0  0  0  0  0  1  0  0  0  0  0  0
  187.7000  176.3240  134.9140 C   0  0  0  0  0  1  0  0  0  0  0  0
  190.1310  175.1270  136.8280 C   0  0  0  0  0  0  0  0  0  0  0  0
  190.5790  174.8710  137.9760 O   0  0  0  0  0  1  0  0  0  0  0  0
  190.1640  174.1490  135.8420 O   0  0  0  0  0  0  0  0  0  0  0  0
  185.5300  178.7520  142.7980 C   0  0  0  0  0  2  0  0  0  0  0  0
  184.1950  178.6680  142.4040 O   0  0  0  0  0  0  0  0  0  0  0  0
  183.4690  178.7990  143.5860 C   0  0  0  0  0  2  0  0  0  0  0  0
  182.0060  179.0190  143.2590 C   0  0  0  0  0  2  0  0  0  0  0  0
  181.7750  178.7100  141.9190 O   0  0  0  0  0  1  0  0  0  0  0  0
  1 10  1  0  0  0  0
  2  7  1  0  0  0  0
  2  5  1  0  0  0  0
  3 10  1  6  0  0  0
  3  4  1  0  0  0  0
  4  9  2  0  0  0  0
  5 14  1  6  0  0  0
  5  3  1  0  0  0  0
  7 31  1  6  0  0  0
  7  1  1  0  0  0  0
  8  6  2  0  0  0  0
  9  6  1  0  0  0  0
 10 11  2  0  0  0  0
 11  8  1  0  0  0  0
 12 13  3  0  0  0  0
 13  4  1  0  0  0  0
 15 18  1  6  0  0  0
 15 17  1  0  0  0  0
 15 14  1  0  0  0  0
 16 17  1  0  0  0  0
 19 18  1  0  0  0  0
 20 19  1  0  0  0  0
 21 28  1  1  0  0  0
 21 23  1  0  0  0  0
 22 27  1  6  0  0  0
 22 21  1  0  0  0  0
 22 24  1  0  0  0  0
 22 26  1  0  0  0  0
 24 25  1  0  0  0  0
 25 23  1  0  0  0  0
 25 20  1  1  0  0  0
 28 29  1  0  0  0  0
 30 28  2  0  0  0  0
 32 31  1  0  0  0  0
 32 33  1  0  0  0  0
 34 33  1  0  0  0  0
 35 34  1  0  0  0  0
M  END
>  <MODEL>
8

>  <REMARK>
 VINA RESULT:      -6.5      2.295      3.732
  Name = 
  13 active torsions:
  status: ('A' for Active; 'I' for Inactive)
    1  A    between atoms: O_3  and  C_15
    2  A    between atoms: O_3  and  C_29
    3  A    between atoms: C_4  and  C_10
    4  A    between atoms: C_6  and  C_9
    5  A    between atoms: C_11  and  C_29
    6  A    between atoms: C_13  and  C_14
    7  A    between atoms: C_14  and  C_32
    8  A    between atoms: C_15  and  C_21
    9  A    between atoms: C_20  and  C_22
   10  A    between atoms: C_20  and  C_32
   11  A    between atoms: C_22  and  N_31
   12  A    between atoms: C_25  and  C_32
   13  A    between atoms: C_27  and  N_31
                            x       y       z     vdW  Elec       q    Type
                         _______ _______ _______ _____ _____    ______ ____

>  <TORSDO>
F 13

$$$$
=
 OpenBabel11062415353D

 35 37  0  0  1  0  0  0  0  0999 V2000
  190.4180  177.5080  143.5800 O   0  0  0  0  0  0  0  0  0  0  0  0
  188.4250  176.0320  143.6080 C   0  0  0  0  0  2  0  0  0  0  0  0
  189.1970  177.0430  141.4440 C   0  0  2  0  0  3  0  0  0  0  0  0
  188.8800  177.8690  140.2120 C   0  0  0  0  0  0  0  0  0  0  0  0
  188.0100  176.9090  142.4280 C   0  0  2  0  0  3  0  0  0  0  0  0
  191.1350  177.6930  139.2240 N   0  0  0  0  0  0  0  0  0  0  0  0
  189.6270  176.6150  144.3740 C   0  0  2  0  0  3  0  0  0  0  0  0
  191.9420  177.5010  140.2200 C   0  0  0  0  0  3  0  0  0  0  0  0
  189.7550  178.0700  139.2310 C   0  0  0  0  0  3  0  0  0  0  0  0
  190.4500  177.4500  142.1830 C   0  0  0  0  0  0  0  0  0  0  0  0
  191.5970  177.6210  141.6030 N   0  0  0  0  0  0  0  0  0  0  0  0
  186.4430  178.5810  139.6570 N   0  0  0  0  0  0  0  0  0  0  0  0
  187.5260  178.2580  139.9050 C   0  0  0  0  0  0  0  0  0  0  0  0
  187.4950  178.2640  142.9330 C   0  0  0  0  0  2  0  0  0  0  0  0
  186.0950  178.1220  143.5160 C   0  0  1  0  0  3  0  0  0  0  0  0
  184.8190  179.0160  145.4650 C   0  0  0  0  0  1  0  0  0  0  0  0
  186.1190  178.3740  145.0190 C   0  0  0  0  0  2  0  0  0  0  0  0
  185.0940  179.0280  142.7960 C   0  0  0  0  0  2  0  0  0  0  0  0
  184.1220  178.2410  141.9250 C   0  0  0  0  0  2  0  0  0  0  0  0
  182.7690  178.7190  142.1510 N   0  0  0  0  0  2  0  0  0  0  0  0
  180.8950  179.1780  139.2960 C   0  0  1  0  0  3  0  0  0  0  0  0
  182.2340  178.7550  138.7180 C   0  0  2  0  0  0  0  0  0  0  0  0
  181.0310  179.2650  140.6900 O   0  0  0  0  0  0  0  0  0  0  0  0
  182.8480  177.9700  139.8340 C   0  0  0  0  0  2  0  0  0  0  0  0
  181.9590  178.2660  141.0320 C   0  0  1  0  0  3  0  0  0  0  0  0
  183.0490  179.8510  138.4180 O   0  0  0  0  0  1  0  0  0  0  0  0
  182.0530  177.8880  137.4890 C   0  0  0  0  0  1  0  0  0  0  0  0
  180.3630  180.4600  138.7300 C   0  0  0  0  0  0  0  0  0  0  0  0
  179.9020  180.4820  137.5600 O   0  0  0  0  0  0  0  0  0  0  0  0
  180.4160  181.6330  139.4720 O   0  0  0  0  0  1  0  0  0  0  0  0
  189.1810  177.3210  145.6420 C   0  0  0  0  0  2  0  0  0  0  0  0
  189.5830  176.5920  146.7620 O   0  0  0  0  0  0  0  0  0  0  0  0
  190.9430  176.8690  146.8930 C   0  0  0  0  0  2  0  0  0  0  0  0
  191.6650  175.6320  147.3890 C   0  0  0  0  0  2  0  0  0  0  0  0
  192.8710  176.0020  147.9820 O   0  0  0  0  0  1  0  0  0  0  0  0
  1  7  1  0  0  0  0
  2  7  1  0  0  0  0
  3  4  1  6  0  0  0
  3 10  1  0  0  0  0
  3  5  1  0  0  0  0
  5 14  1  1  0  0  0
  5  2  1  0  0  0  0
  6  9  1  0  0  0  0
  6  8  2  0  0  0  0
  7 31  1  1  0  0  0
  8 11  1  0  0  0  0
  9  4  2  0  0  0  0
 10  1  1  0  0  0  0
 11 10  2  0  0  0  0
 12 13  3  0  0  0  0
 13  4  1  0  0  0  0
 14 15  1  0  0  0  0
 15 18  1  6  0  0  0
 15 17  1  0  0  0  0
 17 16  1  0  0  0  0
 19 20  1  0  0  0  0
 19 18  1  0  0  0  0
 21 28  1  6  0  0  0
 21 23  1  0  0  0  0
 22 27  1  6  0  0  0
 22 21  1  0  0  0  0
 22 24  1  0  0  0  0
 23 25  1  0  0  0  0
 24 25  1  0  0  0  0
 25 20  1  1  0  0  0
 26 22  1  0  0  0  0
 28 30  1  0  0  0  0
 29 28  2  0  0  0  0
 31 32  1  0  0  0  0
 32 33  1  0  0  0  0
 33 34  1  0  0  0  0
 34 35  1  0  0  0  0
M  END
>  <MODEL>
9

>  <REMARK>
 VINA RESULT:      -6.5      3.782      8.806
  Name = 
  13 active torsions:
  status: ('A' for Active; 'I' for Inactive)
    1  A    between atoms: O_3  and  C_15
    2  A    between atoms: O_3  and  C_29
    3  A    between atoms: C_4  and  C_10
    4  A    between atoms: C_6  and  C_9
    5  A    between atoms: C_11  and  C_29
    6  A    between atoms: C_13  and  C_14
    7  A    between atoms: C_14  and  C_32
    8  A    between atoms: C_15  and  C_21
    9  A    between atoms: C_20  and  C_22
   10  A    between atoms: C_20  and  C_32
   11  A    between atoms: C_22  and  N_31
   12  A    between atoms: C_25  and  C_32
   13  A    between atoms: C_27  and  N_31
                            x       y       z     vdW  Elec       q    Type
                         _______ _______ _______ _____ _____    ______ ____

>  <TORSDO>
F 13

$$$$
