=
 OpenBabel11062414163D

 60 66  0  0  1  0  0  0  0  0999 V2000
  190.6590  175.7930  139.5460 C   0  0  0  0  0  1  0  0  0  0  0  0
  191.0220  178.1240  139.3510 O   0  0  0  0  0  1  0  0  0  0  0  0
  190.0240  177.1500  139.2600 C   0  0  1  0  0  0  0  0  0  0  0  0
  189.4170  177.1810  137.8490 C   0  0  0  0  0  2  0  0  0  0  0  0
  188.0020  175.5640  135.5260 O   0  0  0  0  0  0  0  0  0  0  0  0
  189.2290  174.3110  137.1910 C   0  0  0  0  0  1  0  0  0  0  0  0
  188.0590  175.2400  136.8950 C   0  0  1  0  0  3  0  0  0  0  0  0
  185.6160  177.3000  137.6490 C   0  0  0  0  0  2  0  0  0  0  0  0
  185.7060  174.6530  135.4620 C   0  0  1  0  0  3  0  0  0  0  0  0
  187.0590  177.5410  137.2210 C   0  0  0  0  0  2  0  0  0  0  0  0
  188.0440  176.5090  137.7660 C   0  0  2  0  0  3  0  0  0  0  0  0
  187.1370  174.6410  134.9030 C   0  0  0  0  0  2  0  0  0  0  0  0
  185.2300  175.9540  135.6740 O   0  0  0  0  0  0  0  0  0  0  0  0
  185.0000  176.0330  137.0570 C   0  0  2  0  0  3  0  0  0  0  0  0
  184.7500  173.8420  134.5940 C   0  0  0  0  0  2  0  0  0  0  0  0
  183.6790  173.1250  135.4050 C   0  0  0  0  0  2  0  0  0  0  0  0
  184.6820  171.0330  135.9310 O   0  0  0  0  0  0  0  0  0  0  0  0
  183.5030  171.0570  136.7000 C   0  0  0  0  0  2  0  0  0  0  0  0
  184.3140  172.2730  136.4850 C   0  0  2  0  0  3  0  0  0  0  0  0
  183.5060  176.0600  137.3300 C   0  0  0  0  0  2  0  0  0  0  0  0
  182.9380  177.2330  136.8010 O   0  0  0  0  0  0  0  0  0  0  0  0
  182.6530  179.1560  139.3760 C   0  0  0  0  0  2  0  0  0  0  0  0
  182.1660  177.9580  140.0500 N   0  0  0  0  0  0  0  0  0  0  0  0
  181.9130  176.9760  138.9980 C   0  0  0  0  0  2  0  0  0  0  0  0
  182.1400  179.1410  137.9600 C   0  0  0  0  0  2  0  0  0  0  0  0
  180.5260  177.5750  136.9880 C   0  0  0  0  0  1  0  0  0  0  0  0
  181.8990  177.6870  137.6450 C   0  0  1  0  0  0  0  0  0  0  0  0
  180.8790  178.2550  140.6680 C   0  0  0  0  0  2  0  0  0  0  0  0
  179.7290  179.8100  142.2150 C   0  0  0  0  0  2  0  0  0  0  0  0
  179.4960  177.5330  142.8860 O   0  0  0  0  0  1  0  0  0  0  0  0
  180.2300  178.7010  143.1230 C   0  0  1  0  0  3  0  0  0  0  0  0
  181.0500  179.1380  141.9060 C   0  0  1  0  0  3  0  0  0  0  0  0
  188.9470  177.4480  140.3270 C   0  0  2  0  0  3  0  0  0  0  0  0
  186.7840  178.8030  140.1360 C   0  0  0  0  0  1  0  0  0  0  0  0
  188.2940  178.8450  140.2930 C   0  0  0  0  0  2  0  0  0  0  0  0
  189.2650  176.8940  141.7310 C   0  0  2  0  0  3  0  0  0  0  0  0
  187.3780  178.1050  142.9000 N   0  0  0  0  0  2  0  0  0  0  0  0
  188.0700  176.8760  142.6410 C   0  0  0  0  0  0  0  0  0  0  0  0
  187.6560  175.7840  143.1170 O   0  0  0  0  0  0  0  0  0  0  0  0
  184.0300  179.2760  145.2730 C   0  0  0  0  0  2  0  0  0  0  0  0
  186.4360  178.6090  145.0750 C   0  0  0  0  0  3  0  0  0  0  0  0
  186.2610  178.2910  143.7830 C   0  0  0  0  0  0  0  0  0  0  0  0
  185.2690  178.7560  146.0160 C   0  0  2  0  0  0  0  0  0  0  0  0
  184.6940  177.6090  142.0210 F   0  0  0  0  0  0  0  0  0  0  0  0
  184.9560  177.4090  146.6490 C   0  0  0  0  0  1  0  0  0  0  0  0
  185.6090  179.6560  147.0230 O   0  0  0  0  0  1  0  0  0  0  0  0
  184.8920  178.1720  143.2380 C   0  0  0  0  0  0  0  0  0  0  0  0
  183.8400  178.5880  143.9470 C   0  0  0  0  0  3  0  0  0  0  0  0
  190.5510  177.4390  142.3740 C   0  0  1  0  0  3  0  0  0  0  0  0
  190.3660  178.7730  143.0990 C   0  0  0  0  0  1  0  0  0  0  0  0
  190.6400  175.1270  143.0570 O   0  0  0  0  0  1  0  0  0  0  0  0
  191.2300  176.3810  143.2510 C   0  0  2  0  0  3  0  0  0  0  0  0
  192.0220  175.7700  145.5640 C   0  0  0  0  0  2  0  0  0  0  0  0
  190.1700  177.0830  147.6420 C   0  0  0  0  0  2  0  0  0  0  0  0
  189.3400  177.1010  146.3760 C   0  0  0  0  0  3  0  0  0  0  0  0
  191.1910  176.7700  144.7290 C   0  0  2  0  0  3  0  0  0  0  0  0
  190.9820  175.8250  147.5490 C   0  0  2  0  0  3  0  0  0  0  0  0
  192.2680  175.6980  148.0980 O   0  0  0  0  0  0  0  0  0  0  0  0
  192.1700  176.4250  146.9040 C   0  0  1  0  0  3  0  0  0  0  0  0
  189.7970  176.9240  145.1680 N   0  0  0  0  0  0  0  0  0  0  0  0
  3  2  1  0  0  0  0
  3  1  1  1  0  0  0
  3 33  1  0  0  0  0
  4  3  1  0  0  0  0
  5  7  1  0  0  0  0
  7  6  1  6  0  0  0
  7 11  1  0  0  0  0
  9 15  1  6  0  0  0
  9 13  1  0  0  0  0
 10  8  1  0  0  0  0
 10 11  1  0  0  0  0
 11  4  1  6  0  0  0
 12  9  1  0  0  0  0
 12  5  1  0  0  0  0
 13 14  1  0  0  0  0
 14 20  1  6  0  0  0
 14  8  1  0  0  0  0
 15 16  1  0  0  0  0
 17 19  1  0  0  0  0
 17 18  1  0  0  0  0
 19 16  1  6  0  0  0
 19 18  1  0  0  0  0
 21 20  1  0  0  0  0
 21 27  1  0  0  0  0
 22 23  1  0  0  0  0
 23 28  1  0  0  0  0
 24 23  1  0  0  0  0
 25 22  1  0  0  0  0
 27 26  1  6  0  0  0
 27 25  1  0  0  0  0
 27 24  1  0  0  0  0
 29 31  1  0  0  0  0
 31 30  1  6  0  0  0
 32 28  1  6  0  0  0
 32 29  1  0  0  0  0
 32 31  1  0  0  0  0
 33 35  1  1  0  0  0
 33 36  1  0  0  0  0
 34 35  1  0  0  0  0
 36 49  1  0  0  0  0
 36 38  1  1  0  0  0
 37 42  1  0  0  0  0
 38 37  1  0  0  0  0
 38 39  2  0  0  0  0
 40 43  1  0  0  0  0
 41 43  1  0  0  0  0
 42 41  2  0  0  0  0
 43 45  1  1  0  0  0
 43 46  1  0  0  0  0
 44 47  1  0  0  0  0
 47 42  1  0  0  0  0
 47 48  2  0  0  0  0
 48 40  1  0  0  0  0
 49 50  1  1  0  0  0
 49 52  1  0  0  0  0
 52 51  1  1  0  0  0
 55 54  1  0  0  0  0
 56 52  1  6  0  0  0
 56 60  1  0  0  0  0
 56 53  1  0  0  0  0
 57 54  1  1  0  0  0
 57 58  1  0  0  0  0
 59 53  1  6  0  0  0
 59 57  1  0  0  0  0
 59 58  1  0  0  0  0
 60 55  2  0  0  0  0
M  END
>  <MODEL>
1

>  <REMARK>
 VINA RESULT:      -6.9      0.000      0.000
  Name = 
  18 active torsions:
  status: ('A' for Active; 'I' for Inactive)
    1  A    between atoms: C_9  and  N_11
    2  A    between atoms: C_19  and  C_48
    3  A    between atoms: C_19  and  C_51
    4  A    between atoms: C_25  and  C_27
    5  A    between atoms: C_25  and  C_29
    6  A    between atoms: C_26  and  C_30
    7  A    between atoms: C_29  and  C_30
    8  A    between atoms: C_30  and  C_45
    9  A    between atoms: C_32  and  C_58
   10  A    between atoms: C_34  and  C_36
   11  A    between atoms: C_36  and  C_39
   12  A    between atoms: C_37  and  C_39
   13  A    between atoms: N_40  and  C_58
   14  A    between atoms: C_42  and  O_56
   15  A    between atoms: C_42  and  C_60
   16  A    between atoms: C_45  and  C_48
   17  A    between atoms: C_45  and  C_49
   18  A    between atoms: C_50  and  O_56
                            x       y       z     vdW  Elec       q    Type
                         _______ _______ _______ _____ _____    ______ ____

>  <TORSDO>
F 18

$$$$
=
 OpenBabel11062414163D

 60 66  0  0  1  0  0  0  0  0999 V2000
  184.3520  179.1180  140.5210 C   0  0  0  0  0  1  0  0  0  0  0  0
  183.6900  180.5500  138.7560 O   0  0  0  0  0  1  0  0  0  0  0  0
  183.6780  179.2110  139.1560 C   0  0  1  0  0  0  0  0  0  0  0  0
  184.4340  178.3690  138.1170 C   0  0  0  0  0  2  0  0  0  0  0  0
  186.6850  176.2680  137.3880 O   0  0  0  0  0  0  0  0  0  0  0  0
  186.2100  178.0160  135.7860 C   0  0  0  0  0  1  0  0  0  0  0  0
  186.7040  177.6600  137.1820 C   0  0  1  0  0  3  0  0  0  0  0  0
  187.5580  178.2690  140.2930 C   0  0  0  0  0  2  0  0  0  0  0  0
  189.1020  176.3650  137.8880 C   0  0  1  0  0  3  0  0  0  0  0  0
  186.2570  177.7760  139.6700 C   0  0  0  0  0  2  0  0  0  0  0  0
  185.9530  178.3960  138.3070 C   0  0  2  0  0  3  0  0  0  0  0  0
  187.9610  175.7680  137.0520 C   0  0  0  0  0  2  0  0  0  0  0  0
  188.7740  176.4560  139.2480 O   0  0  0  0  0  0  0  0  0  0  0  0
  188.8100  177.8290  139.5360 C   0  0  2  0  0  3  0  0  0  0  0  0
  190.4120  175.6120  137.6790 C   0  0  0  0  0  2  0  0  0  0  0  0
  191.5260  176.5030  137.1430 C   0  0  0  0  0  2  0  0  0  0  0  0
  193.8170  176.9290  137.6200 O   0  0  0  0  0  0  0  0  0  0  0  0
  193.8380  176.2670  136.3780 C   0  0  0  0  0  2  0  0  0  0  0  0
  192.8810  175.8940  137.4410 C   0  0  2  0  0  3  0  0  0  0  0  0
  190.0210  178.1420  140.4000 C   0  0  0  0  0  2  0  0  0  0  0  0
  190.5550  176.9550  140.9320 O   0  0  0  0  0  0  0  0  0  0  0  0
  188.5070  176.1470  143.2920 C   0  0  0  0  0  2  0  0  0  0  0  0
  188.5290  177.5690  143.6150 N   0  0  0  0  0  0  0  0  0  0  0  0
  189.6390  178.1400  142.8560 C   0  0  0  0  0  2  0  0  0  0  0  0
  189.8920  175.7420  142.8590 C   0  0  0  0  0  2  0  0  0  0  0  0
  191.9270  177.1020  142.9490 C   0  0  0  0  0  1  0  0  0  0  0  0
  190.5290  177.0080  142.3450 C   0  0  1  0  0  0  0  0  0  0  0  0
  188.8580  177.7270  145.0270 C   0  0  0  0  0  2  0  0  0  0  0  0
  186.6230  177.3160  146.0120 C   0  0  0  0  0  2  0  0  0  0  0  0
  188.3880  176.7780  147.5230 O   0  0  0  0  0  1  0  0  0  0  0  0
  187.4590  177.7730  147.1930 C   0  0  1  0  0  3  0  0  0  0  0  0
  187.6980  178.3600  145.7990 C   0  0  1  0  0  3  0  0  0  0  0  0
  182.2090  178.7460  139.2760 C   0  0  2  0  0  3  0  0  0  0  0  0
  180.4160  178.0070  140.9460 C   0  0  0  0  0  1  0  0  0  0  0  0
  181.8530  177.8510  140.4790 C   0  0  0  0  0  2  0  0  0  0  0  0
  181.5490  178.3580  137.9370 C   0  0  2  0  0  3  0  0  0  0  0  0
  182.1530  175.9030  137.9240 N   0  0  0  0  0  2  0  0  0  0  0  0
  182.2060  177.1820  137.2760 C   0  0  0  0  0  0  0  0  0  0  0  0
  182.7440  177.3130  136.1420 O   0  0  0  0  0  0  0  0  0  0  0  0
  183.7230  172.0140  137.1380 C   0  0  0  0  0  2  0  0  0  0  0  0
  184.0620  174.4240  137.7270 C   0  0  0  0  0  3  0  0  0  0  0  0
  182.7700  174.6870  137.4750 C   0  0  0  0  0  0  0  0  0  0  0  0
  184.7270  173.1730  137.2160 C   0  0  2  0  0  0  0  0  0  0  0  0
  180.7300  174.0370  136.2750 F   0  0  0  0  0  0  0  0  0  0  0  0
  185.3100  173.4370  135.8370 C   0  0  0  0  0  1  0  0  0  0  0  0
  185.7620  172.8230  138.0800 O   0  0  0  0  0  1  0  0  0  0  0  0
  181.9470  173.6890  136.7590 C   0  0  0  0  0  0  0  0  0  0  0  0
  182.4040  172.4510  136.5570 C   0  0  0  0  0  3  0  0  0  0  0  0
  181.2400  179.5340  136.9950 C   0  0  1  0  0  3  0  0  0  0  0  0
  180.6570  179.1110  135.6450 C   0  0  0  0  0  1  0  0  0  0  0  0
  179.0280  180.3610  137.4910 O   0  0  0  0  0  1  0  0  0  0  0  0
  180.3920  180.6030  137.6930 C   0  0  2  0  0  3  0  0  0  0  0  0
  179.9570  183.0650  138.0080 C   0  0  0  0  0  2  0  0  0  0  0  0
  180.8550  184.5780  135.4830 C   0  0  0  0  0  2  0  0  0  0  0  0
  180.7010  183.1520  134.9980 C   0  0  0  0  0  3  0  0  0  0  0  0
  180.7630  182.0090  137.2200 C   0  0  2  0  0  3  0  0  0  0  0  0
  179.7930  184.7420  136.5300 C   0  0  2  0  0  3  0  0  0  0  0  0
  179.9350  185.5850  137.6430 O   0  0  0  0  0  0  0  0  0  0  0  0
  180.6270  184.3680  137.6920 C   0  0  1  0  0  3  0  0  0  0  0  0
  180.6240  182.0970  135.7600 N   0  0  0  0  0  0  0  0  0  0  0  0
  2  3  1  0  0  0  0
  3 33  1  0  0  0  0
  3  1  1  1  0  0  0
  4  3  1  0  0  0  0
  7  6  1  6  0  0  0
  7  5  1  0  0  0  0
  7 11  1  0  0  0  0
  9 15  1  1  0  0  0
  9 13  1  0  0  0  0
 10  8  1  0  0  0  0
 11  4  1  6  0  0  0
 11 10  1  0  0  0  0
 12  5  1  0  0  0  0
 12  9  1  0  0  0  0
 13 14  1  0  0  0  0
 14  8  1  0  0  0  0
 14 20  1  1  0  0  0
 16 15  1  0  0  0  0
 18 19  1  0  0  0  0
 18 17  1  0  0  0  0
 19 16  1  6  0  0  0
 19 17  1  0  0  0  0
 20 21  1  0  0  0  0
 21 27  1  0  0  0  0
 22 23  1  0  0  0  0
 23 28  1  0  0  0  0
 24 23  1  0  0  0  0
 25 22  1  0  0  0  0
 27 24  1  0  0  0  0
 27 25  1  0  0  0  0
 27 26  1  1  0  0  0
 29 31  1  0  0  0  0
 31 30  1  6  0  0  0
 32 28  1  6  0  0  0
 32 29  1  0  0  0  0
 32 31  1  0  0  0  0
 33 35  1  1  0  0  0
 35 34  1  0  0  0  0
 36 38  1  6  0  0  0
 36 33  1  0  0  0  0
 38 37  1  0  0  0  0
 39 38  2  0  0  0  0
 40 43  1  0  0  0  0
 42 41  2  0  0  0  0
 42 37  1  0  0  0  0
 43 45  1  6  0  0  0
 43 41  1  0  0  0  0
 43 46  1  0  0  0  0
 44 47  1  0  0  0  0
 47 42  1  0  0  0  0
 48 47  2  0  0  0  0
 48 40  1  0  0  0  0
 49 50  1  6  0  0  0
 49 52  1  0  0  0  0
 49 36  1  0  0  0  0
 52 51  1  6  0  0  0
 55 54  1  0  0  0  0
 55 60  2  0  0  0  0
 56 52  1  1  0  0  0
 56 53  1  0  0  0  0
 57 54  1  6  0  0  0
 57 58  1  0  0  0  0
 57 59  1  0  0  0  0
 58 59  1  0  0  0  0
 59 53  1  1  0  0  0
 60 56  1  0  0  0  0
M  END
>  <MODEL>
2

>  <REMARK>
 VINA RESULT:      -6.9      3.047      9.901
  Name = 
  18 active torsions:
  status: ('A' for Active; 'I' for Inactive)
    1  A    between atoms: C_9  and  N_11
    2  A    between atoms: C_19  and  C_48
    3  A    between atoms: C_19  and  C_51
    4  A    between atoms: C_25  and  C_27
    5  A    between atoms: C_25  and  C_29
    6  A    between atoms: C_26  and  C_30
    7  A    between atoms: C_29  and  C_30
    8  A    between atoms: C_30  and  C_45
    9  A    between atoms: C_32  and  C_58
   10  A    between atoms: C_34  and  C_36
   11  A    between atoms: C_36  and  C_39
   12  A    between atoms: C_37  and  C_39
   13  A    between atoms: N_40  and  C_58
   14  A    between atoms: C_42  and  O_56
   15  A    between atoms: C_42  and  C_60
   16  A    between atoms: C_45  and  C_48
   17  A    between atoms: C_45  and  C_49
   18  A    between atoms: C_50  and  O_56
                            x       y       z     vdW  Elec       q    Type
                         _______ _______ _______ _____ _____    ______ ____

>  <TORSDO>
F 18

$$$$
=
 OpenBabel11062414163D

 60 66  0  0  1  0  0  0  0  0999 V2000
  188.0490  177.0590  142.0740 C   0  0  0  0  0  1  0  0  0  0  0  0
  187.9930  179.4250  142.1090 O   0  0  0  0  0  1  0  0  0  0  0  0
  187.6730  178.3240  141.3100 C   0  0  1  0  0  0  0  0  0  0  0  0
  188.4550  178.4160  139.9900 C   0  0  0  0  0  2  0  0  0  0  0  0
  190.5930  177.3410  137.9200 O   0  0  0  0  0  0  0  0  0  0  0  0
  190.9450  176.8550  140.2620 C   0  0  0  0  0  1  0  0  0  0  0  0
  190.0590  176.6710  139.0370 C   0  0  1  0  0  3  0  0  0  0  0  0
  187.3210  175.8360  137.4300 C   0  0  0  0  0  2  0  0  0  0  0  0
  190.6160  175.1870  136.7100 C   0  0  1  0  0  3  0  0  0  0  0  0
  187.8290  177.1740  137.9530 C   0  0  0  0  0  2  0  0  0  0  0  0
  188.5910  177.0710  139.2730 C   0  0  2  0  0  3  0  0  0  0  0  0
  191.3870  176.4190  137.2070 C   0  0  0  0  0  2  0  0  0  0  0  0
  189.3650  175.5250  136.1720 O   0  0  0  0  0  0  0  0  0  0  0  0
  188.4320  174.8800  136.9990 C   0  0  2  0  0  3  0  0  0  0  0  0
  191.4400  174.3590  135.7300 C   0  0  0  0  0  2  0  0  0  0  0  0
  192.9080  174.2620  136.1270 C   0  0  0  0  0  2  0  0  0  0  0  0
  194.0560  172.8150  134.6290 O   0  0  0  0  0  0  0  0  0  0  0  0
  195.0800  173.5530  135.2530 C   0  0  0  0  0  2  0  0  0  0  0  0
  193.7850  174.1700  134.8960 C   0  0  2  0  0  3  0  0  0  0  0  0
  187.7970  173.7200  136.2510 C   0  0  0  0  0  2  0  0  0  0  0  0
  186.8370  173.0880  137.0620 O   0  0  0  0  0  0  0  0  0  0  0  0
  184.0490  174.1590  135.8400 C   0  0  0  0  0  2  0  0  0  0  0  0
  183.4460  173.1010  136.6410 N   0  0  0  0  0  0  0  0  0  0  0  0
  184.5480  172.2500  137.0840 C   0  0  0  0  0  2  0  0  0  0  0  0
  185.3580  173.6500  135.2960 C   0  0  0  0  0  2  0  0  0  0  0  0
  186.2300  171.3660  135.4380 C   0  0  0  0  0  1  0  0  0  0  0  0
  185.7920  172.5760  136.2590 C   0  0  1  0  0  0  0  0  0  0  0  0
  182.6010  172.2820  135.7790 C   0  0  0  0  0  2  0  0  0  0  0  0
  180.7970  172.4280  137.4690 C   0  0  0  0  0  2  0  0  0  0  0  0
  179.9780  172.7120  135.2470 O   0  0  0  0  0  1  0  0  0  0  0  0
  180.1220  171.7740  136.2760 C   0  0  1  0  0  3  0  0  0  0  0  0
  181.5900  171.4770  136.5990 C   0  0  1  0  0  3  0  0  0  0  0  0
  186.1500  178.3320  141.0480 C   0  0  2  0  0  3  0  0  0  0  0  0
  185.1110  178.8650  138.7700 C   0  0  0  0  0  1  0  0  0  0  0  0
  185.6090  179.4160  140.0940 C   0  0  0  0  0  2  0  0  0  0  0  0
  185.2840  178.0430  142.2900 C   0  0  2  0  0  3  0  0  0  0  0  0
  183.3910  177.4120  140.7370 N   0  0  0  0  0  2  0  0  0  0  0  0
  183.8150  177.9840  141.9820 C   0  0  0  0  0  0  0  0  0  0  0  0
  182.9740  178.3800  142.8360 O   0  0  0  0  0  0  0  0  0  0  0  0
  179.2070  177.2360  139.9180 C   0  0  0  0  0  2  0  0  0  0  0  0
  181.4540  176.1370  140.0340 C   0  0  0  0  0  3  0  0  0  0  0  0
  182.0440  177.3230  140.2480 C   0  0  0  0  0  0  0  0  0  0  0  0
  180.0590  176.0390  139.4730 C   0  0  2  0  0  0  0  0  0  0  0  0
  181.9300  179.7610  139.9800 F   0  0  0  0  0  0  0  0  0  0  0  0
  180.1260  175.9960  137.9550 C   0  0  0  0  0  1  0  0  0  0  0  0
  179.4680  174.8630  139.9300 O   0  0  0  0  0  1  0  0  0  0  0  0
  181.2840  178.5700  140.0190 C   0  0  0  0  0  0  0  0  0  0  0  0
  179.9640  178.5340  139.8180 C   0  0  0  0  0  3  0  0  0  0  0  0
  185.6430  178.8590  143.5430 C   0  0  1  0  0  3  0  0  0  0  0  0
  184.7870  180.1120  143.7340 C   0  0  0  0  0  1  0  0  0  0  0  0
  184.5550  178.2030  145.5930 O   0  0  0  0  0  1  0  0  0  0  0  0
  185.6820  177.9750  144.7950 C   0  0  2  0  0  3  0  0  0  0  0  0
  188.0490  177.1910  145.1590 C   0  0  0  0  0  2  0  0  0  0  0  0
  188.9960  178.1070  147.9400 C   0  0  0  0  0  2  0  0  0  0  0  0
  187.4880  178.1870  148.0430 C   0  0  0  0  0  3  0  0  0  0  0  0
  186.9630  178.1990  145.5990 C   0  0  2  0  0  3  0  0  0  0  0  0
  189.2560  176.9420  147.0310 C   0  0  2  0  0  3  0  0  0  0  0  0
  190.3630  176.8700  146.1720 O   0  0  0  0  0  0  0  0  0  0  0  0
  189.3160  177.7100  145.7680 C   0  0  1  0  0  3  0  0  0  0  0  0
  186.6590  178.1820  147.0360 N   0  0  0  0  0  0  0  0  0  0  0  0
  3  1  1  1  0  0  0
  3  2  1  0  0  0  0
  4  3  1  0  0  0  0
  5  7  1  0  0  0  0
  7 11  1  0  0  0  0
  7  6  1  1  0  0  0
  8 10  1  0  0  0  0
  9 15  1  6  0  0  0
  9 12  1  0  0  0  0
 10 11  1  0  0  0  0
 11  4  1  6  0  0  0
 12  5  1  0  0  0  0
 13  9  1  0  0  0  0
 13 14  1  0  0  0  0
 14 20  1  6  0  0  0
 14  8  1  0  0  0  0
 15 16  1  0  0  0  0
 17 19  1  0  0  0  0
 17 18  1  0  0  0  0
 19 18  1  0  0  0  0
 19 16  1  1  0  0  0
 20 21  1  0  0  0  0
 22 23  1  0  0  0  0
 23 24  1  0  0  0  0
 25 22  1  0  0  0  0
 25 27  1  0  0  0  0
 27 26  1  6  0  0  0
 27 21  1  0  0  0  0
 27 24  1  0  0  0  0
 28 23  1  0  0  0  0
 31 30  1  6  0  0  0
 31 32  1  0  0  0  0
 31 29  1  0  0  0  0
 32 28  1  6  0  0  0
 32 29  1  0  0  0  0
 33 35  1  1  0  0  0
 33  3  1  0  0  0  0
 33 36  1  0  0  0  0
 34 35  1  0  0  0  0
 36 38  1  6  0  0  0
 36 49  1  0  0  0  0
 37 38  1  0  0  0  0
 38 39  2  0  0  0  0
 41 42  2  0  0  0  0
 42 37  1  0  0  0  0
 43 45  1  6  0  0  0
 43 40  1  0  0  0  0
 43 46  1  0  0  0  0
 43 41  1  0  0  0  0
 44 47  1  0  0  0  0
 47 42  1  0  0  0  0
 48 40  1  0  0  0  0
 48 47  2  0  0  0  0
 49 50  1  1  0  0  0
 49 52  1  0  0  0  0
 52 51  1  1  0  0  0
 53 56  1  0  0  0  0
 54 55  1  0  0  0  0
 56 52  1  6  0  0  0
 56 60  1  0  0  0  0
 57 54  1  1  0  0  0
 58 57  1  0  0  0  0
 59 53  1  6  0  0  0
 59 58  1  0  0  0  0
 59 57  1  0  0  0  0
 60 55  2  0  0  0  0
M  END
>  <MODEL>
3

>  <REMARK>
 VINA RESULT:      -6.7      2.600      6.109
  Name = 
  18 active torsions:
  status: ('A' for Active; 'I' for Inactive)
    1  A    between atoms: C_9  and  N_11
    2  A    between atoms: C_19  and  C_48
    3  A    between atoms: C_19  and  C_51
    4  A    between atoms: C_25  and  C_27
    5  A    between atoms: C_25  and  C_29
    6  A    between atoms: C_26  and  C_30
    7  A    between atoms: C_29  and  C_30
    8  A    between atoms: C_30  and  C_45
    9  A    between atoms: C_32  and  C_58
   10  A    between atoms: C_34  and  C_36
   11  A    between atoms: C_36  and  C_39
   12  A    between atoms: C_37  and  C_39
   13  A    between atoms: N_40  and  C_58
   14  A    between atoms: C_42  and  O_56
   15  A    between atoms: C_42  and  C_60
   16  A    between atoms: C_45  and  C_48
   17  A    between atoms: C_45  and  C_49
   18  A    between atoms: C_50  and  O_56
                            x       y       z     vdW  Elec       q    Type
                         _______ _______ _______ _____ _____    ______ ____

>  <TORSDO>
F 18

$$$$
=
 OpenBabel11062414163D

 60 66  0  0  1  0  0  0  0  0999 V2000
  187.5770  177.3040  138.3020 C   0  0  0  0  0  1  0  0  0  0  0  0
  189.1160  179.0880  138.5290 O   0  0  0  0  0  1  0  0  0  0  0  0
  189.0470  177.7000  138.3800 C   0  0  1  0  0  0  0  0  0  0  0  0
  189.7280  177.0300  139.5840 C   0  0  0  0  0  2  0  0  0  0  0  0
  190.4130  176.2080  142.5620 O   0  0  0  0  0  0  0  0  0  0  0  0
  191.7590  177.9300  141.5270 C   0  0  0  0  0  1  0  0  0  0  0  0
  190.3790  177.5020  142.0090 C   0  0  1  0  0  3  0  0  0  0  0  0
  187.1120  177.7000  142.2690 C   0  0  0  0  0  2  0  0  0  0  0  0
  189.5110  177.1420  144.6630 C   0  0  1  0  0  3  0  0  0  0  0  0
  188.0150  176.8830  141.3530 C   0  0  0  0  0  2  0  0  0  0  0  0
  189.2870  177.6150  140.9290 C   0  0  2  0  0  3  0  0  0  0  0  0
  190.6110  176.3410  143.9520 C   0  0  0  0  0  2  0  0  0  0  0  0
  188.2280  176.7940  144.2170 O   0  0  0  0  0  0  0  0  0  0  0  0
  187.7140  177.9700  143.6480 C   0  0  2  0  0  3  0  0  0  0  0  0
  189.6220  177.0360  146.1810 C   0  0  0  0  0  2  0  0  0  0  0  0
  191.0540  177.1810  146.6790 C   0  0  0  0  0  2  0  0  0  0  0  0
  192.6510  176.3310  148.2240 O   0  0  0  0  0  0  0  0  0  0  0  0
  192.6100  175.3660  147.2000 C   0  0  0  0  0  2  0  0  0  0  0  0
  191.3910  176.0700  147.6530 C   0  0  2  0  0  3  0  0  0  0  0  0
  186.6220  178.5380  144.5390 C   0  0  0  0  0  2  0  0  0  0  0  0
  185.3890  177.9300  144.2410 O   0  0  0  0  0  0  0  0  0  0  0  0
  182.1860  178.3100  144.3380 C   0  0  0  0  0  2  0  0  0  0  0  0
  182.2840  178.3690  142.8840 N   0  0  0  0  0  0  0  0  0  0  0  0
  183.7050  178.5180  142.5790 C   0  0  0  0  0  2  0  0  0  0  0  0
  183.3880  179.0070  144.9190 C   0  0  0  0  0  2  0  0  0  0  0  0
  185.0810  180.2950  143.7050 C   0  0  0  0  0  1  0  0  0  0  0  0
  184.4500  178.9130  143.8540 C   0  0  1  0  0  0  0  0  0  0  0  0
  181.6230  179.5830  142.4170 C   0  0  0  0  0  2  0  0  0  0  0  0
  179.3690  180.6050  142.4940 C   0  0  0  0  0  2  0  0  0  0  0  0
  180.4730  181.0120  140.4200 O   0  0  0  0  0  1  0  0  0  0  0  0
  179.5270  180.1890  141.0430 C   0  0  1  0  0  3  0  0  0  0  0  0
  180.1330  179.3410  142.1650 C   0  0  1  0  0  3  0  0  0  0  0  0
  189.7550  177.3110  137.0630 C   0  0  2  0  0  3  0  0  0  0  0  0
  187.9460  177.8330  135.3290 C   0  0  0  0  0  1  0  0  0  0  0  0
  189.3650  178.1010  135.7970 C   0  0  0  0  0  2  0  0  0  0  0  0
  189.9560  175.7950  136.8670 C   0  0  2  0  0  3  0  0  0  0  0  0
  191.9830  174.3720  137.3800 N   0  0  0  0  0  2  0  0  0  0  0  0
  191.3860  175.4200  136.6030 C   0  0  0  0  0  0  0  0  0  0  0  0
  192.0260  175.9840  135.6730 O   0  0  0  0  0  0  0  0  0  0  0  0
  196.0960  173.4740  136.6810 C   0  0  0  0  0  2  0  0  0  0  0  0
  193.6800  172.8140  136.6310 C   0  0  0  0  0  3  0  0  0  0  0  0
  193.3440  173.9210  137.3110 C   0  0  0  0  0  0  0  0  0  0  0  0
  195.0990  172.3080  136.5980 C   0  0  2  0  0  0  0  0  0  0  0  0
  194.0580  175.6850  138.8620 F   0  0  0  0  0  0  0  0  0  0  0  0
  195.3260  171.3590  137.7630 C   0  0  0  0  0  1  0  0  0  0  0  0
  195.3060  171.6140  135.4070 O   0  0  0  0  0  1  0  0  0  0  0  0
  194.3970  174.7230  137.9690 C   0  0  0  0  0  0  0  0  0  0  0  0
  195.6870  174.4900  137.7140 C   0  0  0  0  0  3  0  0  0  0  0  0
  188.9340  175.1130  135.9420 C   0  0  1  0  0  3  0  0  0  0  0  0
  189.5530  174.4730  134.6980 C   0  0  0  0  0  1  0  0  0  0  0  0
  188.7320  172.9680  137.0280 O   0  0  0  0  0  1  0  0  0  0  0  0
  188.0370  174.1430  136.7180 C   0  0  2  0  0  3  0  0  0  0  0  0
  185.7290  174.9600  136.1190 C   0  0  0  0  0  2  0  0  0  0  0  0
  184.0130  172.5660  135.2290 C   0  0  0  0  0  2  0  0  0  0  0  0
  185.1400  171.9160  136.0030 C   0  0  0  0  0  3  0  0  0  0  0  0
  186.7590  173.8210  135.9440 C   0  0  2  0  0  3  0  0  0  0  0  0
  183.7780  173.8760  135.9230 C   0  0  2  0  0  3  0  0  0  0  0  0
  183.3340  175.0290  135.2570 O   0  0  0  0  0  0  0  0  0  0  0  0
  184.6830  174.6890  135.0810 C   0  0  1  0  0  3  0  0  0  0  0  0
  186.2680  172.4890  136.3220 N   0  0  0  0  0  0  0  0  0  0  0  0
  3  1  1  6  0  0  0
  3  2  1  0  0  0  0
  3  4  1  0  0  0  0
  5 12  1  0  0  0  0
  7  6  1  6  0  0  0
  7  5  1  0  0  0  0
  8 14  1  0  0  0  0
  9 15  1  1  0  0  0
 10  8  1  0  0  0  0
 11  4  1  6  0  0  0
 11 10  1  0  0  0  0
 11  7  1  0  0  0  0
 12  9  1  0  0  0  0
 13  9  1  0  0  0  0
 14 13  1  0  0  0  0
 14 20  1  1  0  0  0
 15 16  1  0  0  0  0
 18 19  1  0  0  0  0
 18 17  1  0  0  0  0
 19 16  1  6  0  0  0
 19 17  1  0  0  0  0
 21 20  1  0  0  0  0
 22 25  1  0  0  0  0
 23 22  1  0  0  0  0
 24 23  1  0  0  0  0
 24 27  1  0  0  0  0
 27 26  1  6  0  0  0
 27 21  1  0  0  0  0
 27 25  1  0  0  0  0
 28 23  1  0  0  0  0
 31 30  1  6  0  0  0
 31 32  1  0  0  0  0
 31 29  1  0  0  0  0
 32 28  1  6  0  0  0
 32 29  1  0  0  0  0
 33 35  1  6  0  0  0
 33  3  1  0  0  0  0
 34 35  1  0  0  0  0
 36 38  1  6  0  0  0
 36 33  1  0  0  0  0
 38 37  1  0  0  0  0
 39 38  2  0  0  0  0
 40 48  1  0  0  0  0
 41 42  2  0  0  0  0
 42 37  1  0  0  0  0
 42 47  1  0  0  0  0
 43 41  1  0  0  0  0
 43 40  1  0  0  0  0
 43 45  1  1  0  0  0
 46 43  1  0  0  0  0
 47 44  1  0  0  0  0
 48 47  2  0  0  0  0
 49 50  1  6  0  0  0
 49 52  1  0  0  0  0
 49 36  1  0  0  0  0
 52 51  1  6  0  0  0
 54 55  1  0  0  0  0
 55 60  2  0  0  0  0
 56 53  1  0  0  0  0
 56 60  1  0  0  0  0
 56 52  1  1  0  0  0
 57 54  1  6  0  0  0
 58 57  1  0  0  0  0
 59 58  1  0  0  0  0
 59 57  1  0  0  0  0
 59 53  1  1  0  0  0
M  END
>  <MODEL>
4

>  <REMARK>
 VINA RESULT:      -6.6      3.301      9.571
  Name = 
  18 active torsions:
  status: ('A' for Active; 'I' for Inactive)
    1  A    between atoms: C_9  and  N_11
    2  A    between atoms: C_19  and  C_48
    3  A    between atoms: C_19  and  C_51
    4  A    between atoms: C_25  and  C_27
    5  A    between atoms: C_25  and  C_29
    6  A    between atoms: C_26  and  C_30
    7  A    between atoms: C_29  and  C_30
    8  A    between atoms: C_30  and  C_45
    9  A    between atoms: C_32  and  C_58
   10  A    between atoms: C_34  and  C_36
   11  A    between atoms: C_36  and  C_39
   12  A    between atoms: C_37  and  C_39
   13  A    between atoms: N_40  and  C_58
   14  A    between atoms: C_42  and  O_56
   15  A    between atoms: C_42  and  C_60
   16  A    between atoms: C_45  and  C_48
   17  A    between atoms: C_45  and  C_49
   18  A    between atoms: C_50  and  O_56
                            x       y       z     vdW  Elec       q    Type
                         _______ _______ _______ _____ _____    ______ ____

>  <TORSDO>
F 18

$$$$
=
 OpenBabel11062414163D

 60 66  0  0  1  0  0  0  0  0999 V2000
  188.0320  174.0940  137.7510 C   0  0  0  0  0  1  0  0  0  0  0  0
  189.3480  173.9730  135.7880 O   0  0  0  0  0  1  0  0  0  0  0  0
  188.5230  174.8370  136.5140 C   0  0  1  0  0  0  0  0  0  0  0  0
  187.3400  175.2630  135.6300 C   0  0  0  0  0  2  0  0  0  0  0  0
  184.3830  174.8220  134.5940 O   0  0  0  0  0  0  0  0  0  0  0  0
  185.5950  172.8940  135.4060 C   0  0  0  0  0  1  0  0  0  0  0  0
  184.9940  174.2560  135.7280 C   0  0  1  0  0  3  0  0  0  0  0  0
  184.5090  176.9540  137.5350 C   0  0  0  0  0  2  0  0  0  0  0  0
  182.2690  174.9540  135.8670 C   0  0  1  0  0  3  0  0  0  0  0  0
  185.4470  176.6610  136.3690 C   0  0  0  0  0  2  0  0  0  0  0  0
  185.9970  175.2360  136.3650 C   0  0  2  0  0  3  0  0  0  0  0  0
  183.0190  174.4640  134.6190 C   0  0  0  0  0  2  0  0  0  0  0  0
  182.6050  176.2730  136.2040 O   0  0  0  0  0  0  0  0  0  0  0  0
  183.1920  176.1810  137.4760 C   0  0  2  0  0  3  0  0  0  0  0  0
  180.7610  174.7790  135.7290 C   0  0  0  0  0  2  0  0  0  0  0  0
  180.1760  173.8440  136.7800 C   0  0  0  0  0  2  0  0  0  0  0  0
  180.0440  174.6160  139.0260 O   0  0  0  0  0  0  0  0  0  0  0  0
  178.9540  173.7340  138.8960 C   0  0  0  0  0  2  0  0  0  0  0  0
  179.3660  174.6270  137.7920 C   0  0  2  0  0  3  0  0  0  0  0  0
  182.2530  176.7630  138.5190 C   0  0  0  0  0  2  0  0  0  0  0  0
  182.0240  178.1260  138.2580 O   0  0  0  0  0  0  0  0  0  0  0  0
  184.5550  179.1450  139.9820 C   0  0  0  0  0  2  0  0  0  0  0  0
  183.9740  178.3470  141.0550 N   0  0  0  0  0  0  0  0  0  0  0  0
  182.6240  177.9990  140.6170 C   0  0  0  0  0  2  0  0  0  0  0  0
  183.4310  179.7820  139.2080 C   0  0  0  0  0  2  0  0  0  0  0  0
  181.0490  179.7700  139.7800 C   0  0  0  0  0  1  0  0  0  0  0  0
  182.2410  178.8840  139.4320 C   0  0  1  0  0  0  0  0  0  0  0  0
  183.8290  179.1860  142.2400 C   0  0  0  0  0  2  0  0  0  0  0  0
  184.8160  179.8140  144.4230 C   0  0  0  0  0  2  0  0  0  0  0  0
  182.7360  178.6710  144.6670 O   0  0  0  0  0  1  0  0  0  0  0  0
  184.1240  178.4920  144.7060 C   0  0  1  0  0  3  0  0  0  0  0  0
  184.7880  178.7470  143.3490 C   0  0  1  0  0  3  0  0  0  0  0  0
  189.3550  176.0640  136.9470 C   0  0  2  0  0  3  0  0  0  0  0  0
  188.8400  178.5260  136.4670 C   0  0  0  0  0  1  0  0  0  0  0  0
  189.4490  177.2350  135.9470 C   0  0  0  0  0  2  0  0  0  0  0  0
  190.6560  175.7240  137.7000 C   0  0  2  0  0  3  0  0  0  0  0  0
  189.7570  176.2310  140.0080 N   0  0  0  0  0  2  0  0  0  0  0  0
  190.7760  176.4320  139.0180 C   0  0  0  0  0  0  0  0  0  0  0  0
  191.7880  177.1450  139.2630 O   0  0  0  0  0  0  0  0  0  0  0  0
  190.0850  178.4010  143.6680 C   0  0  0  0  0  2  0  0  0  0  0  0
  190.0630  176.2350  142.4120 C   0  0  0  0  0  3  0  0  0  0  0  0
  189.6720  176.8660  141.2940 C   0  0  0  0  0  0  0  0  0  0  0  0
  189.9290  176.8770  143.7680 C   0  0  2  0  0  0  0  0  0  0  0  0
  188.5510  178.8160  140.3110 F   0  0  0  0  0  0  0  0  0  0  0  0
  188.5670  176.5400  144.3540 C   0  0  0  0  0  1  0  0  0  0  0  0
  190.9170  176.3710  144.6100 O   0  0  0  0  0  1  0  0  0  0  0  0
  189.1830  178.2580  141.3720 C   0  0  0  0  0  0  0  0  0  0  0  0
  189.3310  178.9680  142.4940 C   0  0  0  0  0  3  0  0  0  0  0  0
  191.9330  175.7440  136.8430 C   0  0  1  0  0  3  0  0  0  0  0  0
  192.9760  176.7620  137.3080 C   0  0  0  0  0  1  0  0  0  0  0  0
  191.9060  173.4400  137.5600 O   0  0  0  0  0  1  0  0  0  0  0  0
  192.5170  174.3370  136.6760 C   0  0  2  0  0  3  0  0  0  0  0  0
  194.7340  173.8310  135.5890 C   0  0  0  0  0  2  0  0  0  0  0  0
  196.8610  173.4330  137.7760 C   0  0  0  0  0  2  0  0  0  0  0  0
  195.5570  173.2320  138.5190 C   0  0  0  0  0  3  0  0  0  0  0  0
  194.0340  174.3330  136.8710 C   0  0  2  0  0  3  0  0  0  0  0  0
  196.6030  172.8960  136.3990 C   0  0  2  0  0  3  0  0  0  0  0  0
  197.2220  173.4070  135.2480 O   0  0  0  0  0  0  0  0  0  0  0  0
  196.1790  174.1740  135.7860 C   0  0  1  0  0  3  0  0  0  0  0  0
  194.3780  173.5870  138.0890 N   0  0  0  0  0  0  0  0  0  0  0  0
  2  3  1  0  0  0  0
  3 33  1  0  0  0  0
  3  1  1  1  0  0  0
  4  3  1  0  0  0  0
  5 12  1  0  0  0  0
  5  7  1  0  0  0  0
  7  6  1  6  0  0  0
  7 11  1  0  0  0  0
  9 15  1  6  0  0  0
  9 13  1  0  0  0  0
 10  8  1  0  0  0  0
 11  4  1  6  0  0  0
 11 10  1  0  0  0  0
 12  9  1  0  0  0  0
 13 14  1  0  0  0  0
 14  8  1  0  0  0  0
 14 20  1  1  0  0  0
 15 16  1  0  0  0  0
 18 17  1  0  0  0  0
 19 16  1  6  0  0  0
 19 18  1  0  0  0  0
 19 17  1  0  0  0  0
 21 20  1  0  0  0  0
 21 27  1  0  0  0  0
 22 23  1  0  0  0  0
 23 28  1  0  0  0  0
 24 23  1  0  0  0  0
 25 27  1  0  0  0  0
 25 22  1  0  0  0  0
 27 26  1  1  0  0  0
 27 24  1  0  0  0  0
 29 31  1  0  0  0  0
 31 30  1  6  0  0  0
 32 28  1  6  0  0  0
 32 29  1  0  0  0  0
 32 31  1  0  0  0  0
 33 35  1  6  0  0  0
 33 36  1  0  0  0  0
 35 34  1  0  0  0  0
 36 38  1  1  0  0  0
 37 42  1  0  0  0  0
 38 39  2  0  0  0  0
 38 37  1  0  0  0  0
 40 43  1  0  0  0  0
 41 43  1  0  0  0  0
 42 47  1  0  0  0  0
 42 41  2  0  0  0  0
 43 45  1  1  0  0  0
 43 46  1  0  0  0  0
 44 47  1  0  0  0  0
 47 48  2  0  0  0  0
 48 40  1  0  0  0  0
 49 50  1  1  0  0  0
 49 36  1  0  0  0  0
 52 49  1  0  0  0  0
 52 51  1  1  0  0  0
 53 56  1  0  0  0  0
 54 55  1  0  0  0  0
 56 52  1  6  0  0  0
 56 60  1  0  0  0  0
 57 54  1  1  0  0  0
 58 59  1  0  0  0  0
 58 57  1  0  0  0  0
 59 53  1  6  0  0  0
 59 57  1  0  0  0  0
 60 55  2  0  0  0  0
M  END
>  <MODEL>
5

>  <REMARK>
 VINA RESULT:      -6.5      3.308      5.847
  Name = 
  18 active torsions:
  status: ('A' for Active; 'I' for Inactive)
    1  A    between atoms: C_9  and  N_11
    2  A    between atoms: C_19  and  C_48
    3  A    between atoms: C_19  and  C_51
    4  A    between atoms: C_25  and  C_27
    5  A    between atoms: C_25  and  C_29
    6  A    between atoms: C_26  and  C_30
    7  A    between atoms: C_29  and  C_30
    8  A    between atoms: C_30  and  C_45
    9  A    between atoms: C_32  and  C_58
   10  A    between atoms: C_34  and  C_36
   11  A    between atoms: C_36  and  C_39
   12  A    between atoms: C_37  and  C_39
   13  A    between atoms: N_40  and  C_58
   14  A    between atoms: C_42  and  O_56
   15  A    between atoms: C_42  and  C_60
   16  A    between atoms: C_45  and  C_48
   17  A    between atoms: C_45  and  C_49
   18  A    between atoms: C_50  and  O_56
                            x       y       z     vdW  Elec       q    Type
                         _______ _______ _______ _____ _____    ______ ____

>  <TORSDO>
F 18

$$$$
=
 OpenBabel11062414163D

 60 66  0  0  1  0  0  0  0  0999 V2000
  187.9110  177.7280  137.0690 C   0  0  0  0  0  1  0  0  0  0  0  0
  190.1010  178.3610  136.4310 O   0  0  0  0  0  1  0  0  0  0  0  0
  189.3390  177.2550  136.8170 C   0  0  1  0  0  0  0  0  0  0  0  0
  189.9440  176.6490  138.0930 C   0  0  0  0  0  2  0  0  0  0  0  0
  190.6550  176.1630  141.1380 O   0  0  0  0  0  0  0  0  0  0  0  0
  192.1560  177.5380  139.8330 C   0  0  0  0  0  1  0  0  0  0  0  0
  190.7570  177.3620  140.4080 C   0  0  1  0  0  3  0  0  0  0  0  0
  187.5550  178.0150  140.7250 C   0  0  0  0  0  2  0  0  0  0  0  0
  189.9710  177.4860  143.1090 C   0  0  1  0  0  3  0  0  0  0  0  0
  188.3070  176.9690  139.9110 C   0  0  0  0  0  2  0  0  0  0  0  0
  189.6400  177.4650  139.3530 C   0  0  2  0  0  3  0  0  0  0  0  0
  190.9300  176.4600  142.4890 C   0  0  0  0  0  2  0  0  0  0  0  0
  188.6360  177.2490  142.7510 O   0  0  0  0  0  0  0  0  0  0  0  0
  188.2470  178.3920  142.0350 C   0  0  2  0  0  3  0  0  0  0  0  0
  190.1360  177.5760  144.6220 C   0  0  0  0  0  2  0  0  0  0  0  0
  188.8640  177.2150  145.3780 C   0  0  0  0  0  2  0  0  0  0  0  0
  188.5860  176.7170  147.6870 O   0  0  0  0  0  0  0  0  0  0  0  0
  187.5790  177.6620  147.4120 C   0  0  0  0  0  2  0  0  0  0  0  0
  188.9190  177.7520  146.7940 C   0  0  2  0  0  3  0  0  0  0  0  0
  187.2750  179.2130  142.8650 C   0  0  0  0  0  2  0  0  0  0  0  0
  186.0510  179.3480  142.1850 O   0  0  0  0  0  0  0  0  0  0  0  0
  182.8960  178.7690  141.8340 C   0  0  0  0  0  2  0  0  0  0  0  0
  182.7410  179.6650  142.9730 N   0  0  0  0  0  0  0  0  0  0  0  0
  184.0800  179.8480  143.5300 C   0  0  0  0  0  2  0  0  0  0  0  0
  184.1410  177.9490  142.0460 C   0  0  0  0  0  2  0  0  0  0  0  0
  185.5330  177.8670  144.0600 C   0  0  0  0  0  1  0  0  0  0  0  0
  185.0090  178.7810  142.9550 C   0  0  1  0  0  0  0  0  0  0  0  0
  181.9480  178.9930  143.9970 C   0  0  0  0  0  2  0  0  0  0  0  0
  179.5920  178.3100  144.3390 C   0  0  0  0  0  2  0  0  0  0  0  0
  179.7710  180.4800  143.3650 O   0  0  0  0  0  1  0  0  0  0  0  0
  179.5490  179.1310  143.0630 C   0  0  1  0  0  3  0  0  0  0  0  0
  180.7610  178.2510  143.3790 C   0  0  1  0  0  3  0  0  0  0  0  0
  189.3440  176.2270  135.6650 C   0  0  2  0  0  3  0  0  0  0  0  0
  187.2210  177.4440  134.9140 C   0  0  0  0  0  1  0  0  0  0  0  0
  188.2430  176.3680  134.5940 C   0  0  0  0  0  2  0  0  0  0  0  0
  189.6750  174.7830  136.0950 C   0  0  2  0  0  3  0  0  0  0  0  0
  191.9260  173.9990  136.9390 N   0  0  0  0  0  2  0  0  0  0  0  0
  191.1050  174.4050  135.8350 C   0  0  0  0  0  0  0  0  0  0  0  0
  191.5510  174.3920  134.6550 O   0  0  0  0  0  0  0  0  0  0  0  0
  195.9650  172.6980  137.3900 C   0  0  0  0  0  2  0  0  0  0  0  0
  194.2640  174.5330  137.2840 C   0  0  0  0  0  3  0  0  0  0  0  0
  193.3210  173.6620  136.8940 C   0  0  0  0  0  0  0  0  0  0  0  0
  195.7310  174.2020  137.1900 C   0  0  2  0  0  0  0  0  0  0  0  0
  192.8150  171.5150  135.8150 F   0  0  0  0  0  0  0  0  0  0  0  0
  196.2590  174.6250  135.8290 C   0  0  0  0  0  1  0  0  0  0  0  0
  196.4190  174.9070  138.1760 O   0  0  0  0  0  1  0  0  0  0  0  0
  193.7140  172.3090  136.4480 C   0  0  0  0  0  0  0  0  0  0  0  0
  194.9610  171.8670  136.6350 C   0  0  0  0  0  3  0  0  0  0  0  0
  188.6450  173.7220  135.6740 C   0  0  1  0  0  3  0  0  0  0  0  0
  189.2550  172.5090  134.9700 C   0  0  0  0  0  1  0  0  0  0  0  0
  187.9200  171.9810  137.1780 O   0  0  0  0  0  1  0  0  0  0  0  0
  187.7370  173.3280  136.8440 C   0  0  2  0  0  3  0  0  0  0  0  0
  185.8100  174.9030  137.2390 C   0  0  0  0  0  2  0  0  0  0  0  0
  183.1710  173.4350  136.6450 C   0  0  0  0  0  2  0  0  0  0  0  0
  184.1580  172.3060  136.8550 C   0  0  0  0  0  3  0  0  0  0  0  0
  186.2670  173.6070  136.5310 C   0  0  2  0  0  3  0  0  0  0  0  0
  183.6280  174.5200  137.5760 C   0  0  2  0  0  3  0  0  0  0  0  0
  183.4610  175.8860  137.3030 O   0  0  0  0  0  0  0  0  0  0  0  0
  184.4900  175.2340  136.6100 C   0  0  1  0  0  3  0  0  0  0  0  0
  185.4560  172.4220  136.8420 N   0  0  0  0  0  0  0  0  0  0  0  0
  2  3  1  0  0  0  0
  3  1  1  1  0  0  0
  3  4  1  0  0  0  0
  5 12  1  0  0  0  0
  7  6  1  6  0  0  0
  7  5  1  0  0  0  0
  8 14  1  0  0  0  0
  9 15  1  1  0  0  0
 10  8  1  0  0  0  0
 11  4  1  6  0  0  0
 11 10  1  0  0  0  0
 11  7  1  0  0  0  0
 12  9  1  0  0  0  0
 13  9  1  0  0  0  0
 14 13  1  0  0  0  0
 14 20  1  1  0  0  0
 15 16  1  0  0  0  0
 18 17  1  0  0  0  0
 19 16  1  6  0  0  0
 19 18  1  0  0  0  0
 19 17  1  0  0  0  0
 21 20  1  0  0  0  0
 21 27  1  0  0  0  0
 22 25  1  0  0  0  0
 22 23  1  0  0  0  0
 23 24  1  0  0  0  0
 23 28  1  0  0  0  0
 25 27  1  0  0  0  0
 27 24  1  0  0  0  0
 27 26  1  1  0  0  0
 31 30  1  1  0  0  0
 31 32  1  0  0  0  0
 31 29  1  0  0  0  0
 32 28  1  1  0  0  0
 32 29  1  0  0  0  0
 33 35  1  1  0  0  0
 33 36  1  0  0  0  0
 33  3  1  0  0  0  0
 35 34  1  0  0  0  0
 36 38  1  6  0  0  0
 38 37  1  0  0  0  0
 39 38  2  0  0  0  0
 42 37  1  0  0  0  0
 42 41  2  0  0  0  0
 43 45  1  6  0  0  0
 43 41  1  0  0  0  0
 43 40  1  0  0  0  0
 43 46  1  0  0  0  0
 44 47  1  0  0  0  0
 47 48  2  0  0  0  0
 47 42  1  0  0  0  0
 48 40  1  0  0  0  0
 49 50  1  1  0  0  0
 49 36  1  0  0  0  0
 49 52  1  0  0  0  0
 52 51  1  6  0  0  0
 54 55  1  0  0  0  0
 56 60  1  0  0  0  0
 56 52  1  1  0  0  0
 56 53  1  0  0  0  0
 57 54  1  6  0  0  0
 58 57  1  0  0  0  0
 59 53  1  1  0  0  0
 59 58  1  0  0  0  0
 59 57  1  0  0  0  0
 60 55  2  0  0  0  0
M  END
>  <MODEL>
6

>  <REMARK>
 VINA RESULT:      -6.0      3.459      9.162
  Name = 
  18 active torsions:
  status: ('A' for Active; 'I' for Inactive)
    1  A    between atoms: C_9  and  N_11
    2  A    between atoms: C_19  and  C_48
    3  A    between atoms: C_19  and  C_51
    4  A    between atoms: C_25  and  C_27
    5  A    between atoms: C_25  and  C_29
    6  A    between atoms: C_26  and  C_30
    7  A    between atoms: C_29  and  C_30
    8  A    between atoms: C_30  and  C_45
    9  A    between atoms: C_32  and  C_58
   10  A    between atoms: C_34  and  C_36
   11  A    between atoms: C_36  and  C_39
   12  A    between atoms: C_37  and  C_39
   13  A    between atoms: N_40  and  C_58
   14  A    between atoms: C_42  and  O_56
   15  A    between atoms: C_42  and  C_60
   16  A    between atoms: C_45  and  C_48
   17  A    between atoms: C_45  and  C_49
   18  A    between atoms: C_50  and  O_56
                            x       y       z     vdW  Elec       q    Type
                         _______ _______ _______ _____ _____    ______ ____

>  <TORSDO>
F 18

$$$$
=
 OpenBabel11062414163D

 60 66  0  0  1  0  0  0  0  0999 V2000
  187.6630  177.2280  137.3150 C   0  0  0  0  0  1  0  0  0  0  0  0
  189.1890  179.0090  136.9960 O   0  0  0  0  0  1  0  0  0  0  0  0
  189.1310  177.6340  137.2350 C   0  0  1  0  0  0  0  0  0  0  0  0
  189.8550  177.3210  138.5540 C   0  0  0  0  0  2  0  0  0  0  0  0
  189.6390  176.3580  141.5600 O   0  0  0  0  0  0  0  0  0  0  0  0
  191.4360  177.8710  140.9850 C   0  0  0  0  0  1  0  0  0  0  0  0
  189.9320  177.6510  141.0860 C   0  0  1  0  0  3  0  0  0  0  0  0
  186.7690  178.3410  140.5400 C   0  0  0  0  0  2  0  0  0  0  0  0
  188.3780  177.3870  143.4200 C   0  0  1  0  0  3  0  0  0  0  0  0
  187.7470  177.4100  139.8330 C   0  0  0  0  0  2  0  0  0  0  0  0
  189.1770  177.9450  139.7770 C   0  0  2  0  0  3  0  0  0  0  0  0
  189.4960  176.4390  142.9610 C   0  0  0  0  0  2  0  0  0  0  0  0
  187.2140  177.2460  142.6520 O   0  0  0  0  0  0  0  0  0  0  0  0
  187.0350  178.4950  142.0360 C   0  0  2  0  0  3  0  0  0  0  0  0
  188.0860  177.2410  144.9090 C   0  0  0  0  0  2  0  0  0  0  0  0
  186.5990  177.3180  145.2300 C   0  0  0  0  0  2  0  0  0  0  0  0
  185.6700  178.2130  147.2290 O   0  0  0  0  0  0  0  0  0  0  0  0
  184.8310  178.6980  146.2080 C   0  0  0  0  0  2  0  0  0  0  0  0
  186.2920  178.5750  146.0190 C   0  0  2  0  0  3  0  0  0  0  0  0
  185.8470  179.2090  142.6580 C   0  0  0  0  0  2  0  0  0  0  0  0
  184.9360  179.5940  141.6580 O   0  0  0  0  0  0  0  0  0  0  0  0
  183.1630  177.3560  140.1540 C   0  0  0  0  0  2  0  0  0  0  0  0
  182.1640  178.4130  140.0470 N   0  0  0  0  0  0  0  0  0  0  0  0
  182.6110  179.4850  140.9330 C   0  0  0  0  0  2  0  0  0  0  0  0
  183.8500  177.4930  141.4870 C   0  0  0  0  0  2  0  0  0  0  0  0
  183.2410  179.0030  143.3180 C   0  0  0  0  0  1  0  0  0  0  0  0
  183.6960  178.9450  141.8620 C   0  0  1  0  0  0  0  0  0  0  0  0
  180.8990  177.9220  140.5840 C   0  0  0  0  0  2  0  0  0  0  0  0
  180.5940  176.8760  138.3600 C   0  0  0  0  0  2  0  0  0  0  0  0
  180.2640  175.3240  140.1410 O   0  0  0  0  0  1  0  0  0  0  0  0
  179.5880  176.1550  139.2390 C   0  0  1  0  0  3  0  0  0  0  0  0
  179.8950  177.6390  139.4650 C   0  0  1  0  0  3  0  0  0  0  0  0
  189.8030  176.9000  136.0530 C   0  0  2  0  0  3  0  0  0  0  0  0
  187.7520  177.3690  134.5960 C   0  0  0  0  0  1  0  0  0  0  0  0
  189.2600  177.2000  134.6410 C   0  0  0  0  0  2  0  0  0  0  0  0
  190.1580  175.4250  136.3320 C   0  0  2  0  0  3  0  0  0  0  0  0
  192.1650  173.9640  136.8100 N   0  0  0  0  0  2  0  0  0  0  0  0
  191.6240  175.1350  136.1830 C   0  0  0  0  0  0  0  0  0  0  0  0
  192.3470  175.8830  135.4690 O   0  0  0  0  0  0  0  0  0  0  0  0
  196.3350  173.1820  136.3530 C   0  0  0  0  0  2  0  0  0  0  0  0
  193.9490  172.4360  136.2130 C   0  0  0  0  0  3  0  0  0  0  0  0
  193.5430  173.5580  136.8280 C   0  0  0  0  0  0  0  0  0  0  0  0
  195.3830  171.9800  136.2710 C   0  0  2  0  0  0  0  0  0  0  0  0
  194.1190  175.4080  138.3350 F   0  0  0  0  0  0  0  0  0  0  0  0
  195.5820  171.0880  137.4850 C   0  0  0  0  0  1  0  0  0  0  0  0
  195.6730  171.2460  135.1230 O   0  0  0  0  0  1  0  0  0  0  0  0
  194.5340  174.4230  137.5020 C   0  0  0  0  0  0  0  0  0  0  0  0
  195.8420  174.2250  137.3210 C   0  0  0  0  0  3  0  0  0  0  0  0
  189.2300  174.3930  135.6710 C   0  0  1  0  0  3  0  0  0  0  0  0
  189.9480  173.4270  134.7270 C   0  0  0  0  0  1  0  0  0  0  0  0
  189.0070  172.5010  137.1520 O   0  0  0  0  0  1  0  0  0  0  0  0
  188.3690  173.6670  136.7120 C   0  0  2  0  0  3  0  0  0  0  0  0
  185.9010  173.6700  137.2200 C   0  0  0  0  0  2  0  0  0  0  0  0
  184.4790  171.7160  135.3150 C   0  0  0  0  0  2  0  0  0  0  0  0
  185.9240  171.2670  135.2580 C   0  0  0  0  0  3  0  0  0  0  0  0
  186.9800  173.3440  136.1620 C   0  0  2  0  0  3  0  0  0  0  0  0
  184.2840  172.2000  136.7220 C   0  0  2  0  0  3  0  0  0  0  0  0
  183.3970  173.2330  137.0620 O   0  0  0  0  0  0  0  0  0  0  0  0
  184.6060  173.6220  136.4680 C   0  0  1  0  0  3  0  0  0  0  0  0
  186.9490  171.9630  135.6630 N   0  0  0  0  0  0  0  0  0  0  0  0
  2  3  1  0  0  0  0
  3  1  1  1  0  0  0
  3  4  1  0  0  0  0
  5 12  1  0  0  0  0
  7  6  1  6  0  0  0
  7  5  1  0  0  0  0
  8 14  1  0  0  0  0
  9 15  1  1  0  0  0
 10  8  1  0  0  0  0
 11  4  1  6  0  0  0
 11 10  1  0  0  0  0
 11  7  1  0  0  0  0
 12  9  1  0  0  0  0
 13  9  1  0  0  0  0
 14 13  1  0  0  0  0
 14 20  1  1  0  0  0
 15 16  1  0  0  0  0
 18 17  1  0  0  0  0
 19 16  1  6  0  0  0
 19 18  1  0  0  0  0
 19 17  1  0  0  0  0
 21 27  1  0  0  0  0
 21 20  1  0  0  0  0
 22 25  1  0  0  0  0
 23 22  1  0  0  0  0
 23 28  1  0  0  0  0
 23 24  1  0  0  0  0
 24 27  1  0  0  0  0
 25 27  1  0  0  0  0
 27 26  1  1  0  0  0
 29 31  1  0  0  0  0
 29 32  1  0  0  0  0
 31 32  1  0  0  0  0
 31 30  1  1  0  0  0
 32 28  1  1  0  0  0
 33 35  1  6  0  0  0
 33 36  1  0  0  0  0
 33  3  1  0  0  0  0
 34 35  1  0  0  0  0
 36 38  1  6  0  0  0
 37 42  1  0  0  0  0
 38 37  1  0  0  0  0
 39 38  2  0  0  0  0
 40 48  1  0  0  0  0
 41 43  1  0  0  0  0
 41 42  2  0  0  0  0
 42 47  1  0  0  0  0
 43 40  1  0  0  0  0
 43 45  1  1  0  0  0
 46 43  1  0  0  0  0
 47 44  1  0  0  0  0
 48 47  2  0  0  0  0
 49 50  1  1  0  0  0
 49 36  1  0  0  0  0
 49 52  1  0  0  0  0
 52 51  1  6  0  0  0
 55 54  1  0  0  0  0
 55 60  2  0  0  0  0
 56 52  1  1  0  0  0
 56 53  1  0  0  0  0
 57 54  1  6  0  0  0
 57 58  1  0  0  0  0
 59 57  1  0  0  0  0
 59 58  1  0  0  0  0
 59 53  1  1  0  0  0
 60 56  1  0  0  0  0
M  END
>  <MODEL>
7

>  <REMARK>
 VINA RESULT:      -5.8      3.630      9.171
  Name = 
  18 active torsions:
  status: ('A' for Active; 'I' for Inactive)
    1  A    between atoms: C_9  and  N_11
    2  A    between atoms: C_19  and  C_48
    3  A    between atoms: C_19  and  C_51
    4  A    between atoms: C_25  and  C_27
    5  A    between atoms: C_25  and  C_29
    6  A    between atoms: C_26  and  C_30
    7  A    between atoms: C_29  and  C_30
    8  A    between atoms: C_30  and  C_45
    9  A    between atoms: C_32  and  C_58
   10  A    between atoms: C_34  and  C_36
   11  A    between atoms: C_36  and  C_39
   12  A    between atoms: C_37  and  C_39
   13  A    between atoms: N_40  and  C_58
   14  A    between atoms: C_42  and  O_56
   15  A    between atoms: C_42  and  C_60
   16  A    between atoms: C_45  and  C_48
   17  A    between atoms: C_45  and  C_49
   18  A    between atoms: C_50  and  O_56
                            x       y       z     vdW  Elec       q    Type
                         _______ _______ _______ _____ _____    ______ ____

>  <TORSDO>
F 18

$$$$
=
 OpenBabel11062414163D

 60 66  0  0  1  0  0  0  0  0999 V2000
  188.8230  179.2840  141.4450 C   0  0  0  0  0  1  0  0  0  0  0  0
  186.5160  179.8080  141.3700 O   0  0  0  0  0  1  0  0  0  0  0  0
  187.4040  178.7290  141.3770 C   0  0  1  0  0  0  0  0  0  0  0  0
  187.2030  177.9030  140.0960 C   0  0  0  0  0  2  0  0  0  0  0  0
  187.8000  176.3500  137.4050 O   0  0  0  0  0  0  0  0  0  0  0  0
  187.1150  178.6630  137.2460 C   0  0  0  0  0  1  0  0  0  0  0  0
  188.1590  177.6700  137.7390 C   0  0  1  0  0  3  0  0  0  0  0  0
  190.7610  176.6920  139.4850 C   0  0  0  0  0  2  0  0  0  0  0  0
  189.9440  176.1320  136.1960 C   0  0  1  0  0  3  0  0  0  0  0  0
  189.2630  176.5920  139.7440 C   0  0  0  0  0  2  0  0  0  0  0  0
  188.4690  177.7960  139.2420 C   0  0  2  0  0  3  0  0  0  0  0  0
  188.4110  176.0390  136.1730 C   0  0  0  0  0  2  0  0  0  0  0  0
  190.4930  175.5690  137.3580 O   0  0  0  0  0  0  0  0  0  0  0  0
  191.1370  176.6350  138.0050 C   0  0  2  0  0  3  0  0  0  0  0  0
  190.5680  175.5380  134.9390 C   0  0  0  0  0  2  0  0  0  0  0  0
  191.2940  174.2240  135.2030 C   0  0  0  0  0  2  0  0  0  0  0  0
  189.1420  173.3010  134.7900 O   0  0  0  0  0  0  0  0  0  0  0  0
  189.7430  172.3950  135.6840 C   0  0  0  0  0  2  0  0  0  0  0  0
  190.5180  173.0630  134.6170 C   0  0  2  0  0  3  0  0  0  0  0  0
  192.6430  176.4640  137.9040 C   0  0  0  0  0  2  0  0  0  0  0  0
  193.0170  175.1890  138.3650 O   0  0  0  0  0  0  0  0  0  0  0  0
  194.7520  172.4780  138.1400 C   0  0  0  0  0  2  0  0  0  0  0  0
  195.8300  173.2790  138.7070 N   0  0  0  0  0  0  0  0  0  0  0  0
  195.3840  174.6690  138.6340 C   0  0  0  0  0  2  0  0  0  0  0  0
  193.9600  173.3510  137.2020 C   0  0  0  0  0  2  0  0  0  0  0  0
  194.5100  175.6260  136.4800 C   0  0  0  0  0  1  0  0  0  0  0  0
  194.1840  174.7580  137.6930 C   0  0  1  0  0  0  0  0  0  0  0  0
  197.0030  173.1680  137.8470 C   0  0  0  0  0  2  0  0  0  0  0  0
  199.1750  174.2250  137.3020 C   0  0  0  0  0  2  0  0  0  0  0  0
  197.7770  173.9940  135.3830 O   0  0  0  0  0  1  0  0  0  0  0  0
  198.1970  174.9040  136.3610 C   0  0  1  0  0  3  0  0  0  0  0  0
  197.7620  174.4950  137.7710 C   0  0  1  0  0  3  0  0  0  0  0  0
  187.1270  177.8720  142.6320 C   0  0  2  0  0  3  0  0  0  0  0  0
  189.1270  176.3380  143.0810 C   0  0  0  0  0  1  0  0  0  0  0  0
  187.6790  176.4320  142.6330 C   0  0  0  0  0  2  0  0  0  0  0  0
  185.7160  178.0460  143.2290 C   0  0  2  0  0  3  0  0  0  0  0  0
  184.1730  177.5030  141.3000 N   0  0  0  0  0  2  0  0  0  0  0  0
  184.6970  178.4770  142.2140 C   0  0  0  0  0  0  0  0  0  0  0  0
  184.2730  179.6660  142.2100 O   0  0  0  0  0  0  0  0  0  0  0  0
  181.1680  178.6930  138.5130 C   0  0  0  0  0  2  0  0  0  0  0  0
  182.1240  177.0110  140.1030 C   0  0  0  0  0  3  0  0  0  0  0  0
  183.2430  177.7410  140.2320 C   0  0  0  0  0  0  0  0  0  0  0  0
  181.1720  177.2230  138.9550 C   0  0  2  0  0  0  0  0  0  0  0  0
  184.7390  179.4150  139.2390 F   0  0  0  0  0  0  0  0  0  0  0  0
  181.5820  176.3400  137.7880 C   0  0  0  0  0  1  0  0  0  0  0  0
  179.8880  176.8640  139.3590 O   0  0  0  0  0  1  0  0  0  0  0  0
  183.5110  178.8430  139.2840 C   0  0  0  0  0  0  0  0  0  0  0  0
  182.5600  179.2640  138.4450 C   0  0  0  0  0  3  0  0  0  0  0  0
  185.6580  178.8120  144.5600 C   0  0  1  0  0  3  0  0  0  0  0  0
  184.4020  179.6680  144.7300 C   0  0  0  0  0  1  0  0  0  0  0  0
  184.8460  177.9670  146.6690 O   0  0  0  0  0  1  0  0  0  0  0  0
  185.9020  177.8810  145.7530 C   0  0  2  0  0  3  0  0  0  0  0  0
  188.3310  177.2320  145.9190 C   0  0  0  0  0  2  0  0  0  0  0  0
  189.4640  178.2450  148.5950 C   0  0  0  0  0  2  0  0  0  0  0  0
  187.9680  178.2460  148.8280 C   0  0  0  0  0  3  0  0  0  0  0  0
  187.2330  178.1860  146.4400 C   0  0  2  0  0  3  0  0  0  0  0  0
  189.7070  177.0790  147.6810 C   0  0  2  0  0  3  0  0  0  0  0  0
  190.7390  177.0520  146.7300 O   0  0  0  0  0  0  0  0  0  0  0  0
  189.6160  177.8280  146.4090 C   0  0  1  0  0  3  0  0  0  0  0  0
  187.0560  178.1780  147.8980 N   0  0  0  0  0  0  0  0  0  0  0  0
  2  3  1  0  0  0  0
  3  1  1  1  0  0  0
  3 33  1  0  0  0  0
  4  3  1  0  0  0  0
  5  7  1  0  0  0  0
  7  6  1  1  0  0  0
  7 11  1  0  0  0  0
  8 10  1  0  0  0  0
  9 15  1  6  0  0  0
  9 13  1  0  0  0  0
 11 10  1  0  0  0  0
 11  4  1  1  0  0  0
 12  9  1  0  0  0  0
 12  5  1  0  0  0  0
 13 14  1  0  0  0  0
 14 20  1  1  0  0  0
 14  8  1  0  0  0  0
 15 16  1  0  0  0  0
 17 18  1  0  0  0  0
 19 17  1  0  0  0  0
 19 16  1  1  0  0  0
 19 18  1  0  0  0  0
 20 21  1  0  0  0  0
 22 23  1  0  0  0  0
 24 23  1  0  0  0  0
 25 27  1  0  0  0  0
 25 22  1  0  0  0  0
 27 26  1  6  0  0  0
 27 21  1  0  0  0  0
 27 24  1  0  0  0  0
 28 23  1  0  0  0  0
 29 32  1  0  0  0  0
 31 30  1  6  0  0  0
 31 29  1  0  0  0  0
 31 32  1  0  0  0  0
 32 28  1  6  0  0  0
 33 35  1  6  0  0  0
 33 36  1  0  0  0  0
 35 34  1  0  0  0  0
 36 38  1  6  0  0  0
 36 49  1  0  0  0  0
 37 38  1  0  0  0  0
 39 38  2  0  0  0  0
 40 43  1  0  0  0  0
 41 42  2  0  0  0  0
 42 37  1  0  0  0  0
 43 45  1  6  0  0  0
 43 46  1  0  0  0  0
 43 41  1  0  0  0  0
 44 47  1  0  0  0  0
 47 42  1  0  0  0  0
 48 40  1  0  0  0  0
 48 47  2  0  0  0  0
 49 50  1  1  0  0  0
 49 52  1  0  0  0  0
 52 51  1  1  0  0  0
 53 56  1  0  0  0  0
 54 55  1  0  0  0  0
 56 52  1  6  0  0  0
 56 60  1  0  0  0  0
 57 54  1  1  0  0  0
 58 57  1  0  0  0  0
 59 53  1  6  0  0  0
 59 58  1  0  0  0  0
 59 57  1  0  0  0  0
 60 55  2  0  0  0  0
M  END
>  <MODEL>
8

>  <REMARK>
 VINA RESULT:      -5.8      3.579      8.562
  Name = 
  18 active torsions:
  status: ('A' for Active; 'I' for Inactive)
    1  A    between atoms: C_9  and  N_11
    2  A    between atoms: C_19  and  C_48
    3  A    between atoms: C_19  and  C_51
    4  A    between atoms: C_25  and  C_27
    5  A    between atoms: C_25  and  C_29
    6  A    between atoms: C_26  and  C_30
    7  A    between atoms: C_29  and  C_30
    8  A    between atoms: C_30  and  C_45
    9  A    between atoms: C_32  and  C_58
   10  A    between atoms: C_34  and  C_36
   11  A    between atoms: C_36  and  C_39
   12  A    between atoms: C_37  and  C_39
   13  A    between atoms: N_40  and  C_58
   14  A    between atoms: C_42  and  O_56
   15  A    between atoms: C_42  and  C_60
   16  A    between atoms: C_45  and  C_48
   17  A    between atoms: C_45  and  C_49
   18  A    between atoms: C_50  and  O_56
                            x       y       z     vdW  Elec       q    Type
                         _______ _______ _______ _____ _____    ______ ____

>  <TORSDO>
F 18

$$$$
=
 OpenBabel11062414163D

 60 66  0  0  1  0  0  0  0  0999 V2000
  188.8010  178.2840  138.5420 C   0  0  0  0  0  1  0  0  0  0  0  0
  188.7840  175.9410  138.8760 O   0  0  0  0  0  1  0  0  0  0  0  0
  188.9700  176.9160  137.8910 C   0  0  1  0  0  0  0  0  0  0  0  0
  187.9300  176.7100  136.7780 C   0  0  0  0  0  2  0  0  0  0  0  0
  185.3600  175.4150  135.4630 O   0  0  0  0  0  0  0  0  0  0  0  0
  186.7680  173.9980  136.8250 C   0  0  0  0  0  1  0  0  0  0  0  0
  185.8570  175.2160  136.7650 C   0  0  1  0  0  3  0  0  0  0  0  0
  184.5190  178.0020  137.8740 C   0  0  0  0  0  2  0  0  0  0  0  0
  183.0690  175.2720  136.3760 C   0  0  1  0  0  3  0  0  0  0  0  0
  185.6910  177.7350  136.9370 C   0  0  0  0  0  2  0  0  0  0  0  0
  186.5090  176.5000  137.3100 C   0  0  2  0  0  3  0  0  0  0  0  0
  184.1140  174.7590  135.3760 C   0  0  0  0  0  2  0  0  0  0  0  0
  183.0640  176.6710  136.4690 O   0  0  0  0  0  0  0  0  0  0  0  0
  183.4180  176.9450  137.8000 C   0  0  2  0  0  3  0  0  0  0  0  0
  181.6770  174.7280  136.0720 C   0  0  0  0  0  2  0  0  0  0  0  0
  181.4310  173.3560  136.6880 C   0  0  0  0  0  2  0  0  0  0  0  0
  179.6150  172.0730  137.5340 O   0  0  0  0  0  0  0  0  0  0  0  0
  179.9220  171.4710  136.2990 C   0  0  0  0  0  2  0  0  0  0  0  0
  179.9900  172.9360  136.4870 C   0  0  2  0  0  3  0  0  0  0  0  0
  182.2080  177.4660  138.5570 C   0  0  0  0  0  2  0  0  0  0  0  0
  181.1690  177.7680  137.6590 O   0  0  0  0  0  0  0  0  0  0  0  0
  179.2300  179.8850  136.1850 C   0  0  0  0  0  2  0  0  0  0  0  0
  180.4180  180.7300  136.1300 N   0  0  0  0  0  0  0  0  0  0  0  0
  181.3990  180.1080  137.0160 C   0  0  0  0  0  2  0  0  0  0  0  0
  179.2430  179.1420  137.4940 C   0  0  0  0  0  2  0  0  0  0  0  0
  180.7850  179.4720  139.3690 C   0  0  0  0  0  1  0  0  0  0  0  0
  180.6940  179.0790  137.8970 C   0  0  1  0  0  0  0  0  0  0  0  0
  180.0960  182.0320  136.7040 C   0  0  0  0  0  2  0  0  0  0  0  0
  179.6590  184.4150  136.1900 C   0  0  0  0  0  2  0  0  0  0  0  0
  181.5910  184.1270  137.5590 O   0  0  0  0  0  1  0  0  0  0  0  0
  181.1740  184.3270  136.2370 C   0  0  1  0  0  3  0  0  0  0  0  0
  180.3450  183.1580  135.6980 C   0  0  1  0  0  3  0  0  0  0  0  0
  190.4040  176.7850  137.3330 C   0  0  2  0  0  3  0  0  0  0  0  0
  190.3310  174.8640  135.6430 C   0  0  0  0  0  1  0  0  0  0  0  0
  190.5460  176.3520  135.8600 C   0  0  0  0  0  2  0  0  0  0  0  0
  191.4190  176.1620  138.3120 C   0  0  2  0  0  3  0  0  0  0  0  0
  190.7050  176.3500  140.7310 N   0  0  0  0  0  2  0  0  0  0  0  0
  191.4710  176.8710  139.6350 C   0  0  0  0  0  0  0  0  0  0  0  0
  192.2230  177.8730  139.7870 O   0  0  0  0  0  0  0  0  0  0  0  0
  190.2090  178.6190  144.3110 C   0  0  0  0  0  2  0  0  0  0  0  0
  191.6630  177.3330  142.7280 C   0  0  0  0  0  3  0  0  0  0  0  0
  190.5840  176.9220  142.0420 C   0  0  0  0  0  0  0  0  0  0  0  0
  191.5460  177.8860  144.1240 C   0  0  2  0  0  0  0  0  0  0  0  0
  188.1720  176.4660  142.0710 F   0  0  0  0  0  0  0  0  0  0  0  0
  191.6510  176.7510  145.1290 C   0  0  0  0  0  1  0  0  0  0  0  0
  192.5920  178.7800  144.3470 O   0  0  0  0  0  1  0  0  0  0  0  0
  189.2370  177.0980  142.6240 C   0  0  0  0  0  0  0  0  0  0  0  0
  189.0600  177.8530  143.7110 C   0  0  0  0  0  3  0  0  0  0  0  0
  192.7940  175.8320  137.7080 C   0  0  1  0  0  3  0  0  0  0  0  0
  193.5610  177.0560  137.2040 C   0  0  0  0  0  1  0  0  0  0  0  0
  194.6940  175.7010  139.1890 O   0  0  0  0  0  1  0  0  0  0  0  0
  193.6290  174.9650  138.6560 C   0  0  2  0  0  3  0  0  0  0  0  0
  195.6740  173.5890  138.1320 C   0  0  0  0  0  2  0  0  0  0  0  0
  195.0850  171.7940  135.7030 C   0  0  0  0  0  2  0  0  0  0  0  0
  194.0260  172.8720  135.6040 C   0  0  0  0  0  3  0  0  0  0  0  0
  194.1440  173.7060  137.9570 C   0  0  2  0  0  3  0  0  0  0  0  0
  196.2850  172.4890  136.2780 C   0  0  2  0  0  3  0  0  0  0  0  0
  197.2220  171.8470  137.1030 O   0  0  0  0  0  0  0  0  0  0  0  0
  196.0000  172.1920  137.6980 C   0  0  1  0  0  3  0  0  0  0  0  0
  193.6840  173.6870  136.5610 N   0  0  0  0  0  0  0  0  0  0  0  0
  3  1  1  1  0  0  0
  3  2  1  0  0  0  0
  4  3  1  0  0  0  0
  5  7  1  0  0  0  0
  7  6  1  6  0  0  0
  7 11  1  0  0  0  0
  9 15  1  6  0  0  0
  9 13  1  0  0  0  0
 10 11  1  0  0  0  0
 10  8  1  0  0  0  0
 11  4  1  6  0  0  0
 12  5  1  0  0  0  0
 12  9  1  0  0  0  0
 13 14  1  0  0  0  0
 14  8  1  0  0  0  0
 14 20  1  1  0  0  0
 15 16  1  0  0  0  0
 18 19  1  0  0  0  0
 18 17  1  0  0  0  0
 19 16  1  1  0  0  0
 19 17  1  0  0  0  0
 21 27  1  0  0  0  0
 21 20  1  0  0  0  0
 22 25  1  0  0  0  0
 23 22  1  0  0  0  0
 23 28  1  0  0  0  0
 23 24  1  0  0  0  0
 24 27  1  0  0  0  0
 25 27  1  0  0  0  0
 27 26  1  1  0  0  0
 29 31  1  0  0  0  0
 31 30  1  1  0  0  0
 32 29  1  0  0  0  0
 32 31  1  0  0  0  0
 32 28  1  1  0  0  0
 33 35  1  6  0  0  0
 33  3  1  0  0  0  0
 33 36  1  0  0  0  0
 34 35  1  0  0  0  0
 36 38  1  1  0  0  0
 37 42  1  0  0  0  0
 38 39  2  0  0  0  0
 38 37  1  0  0  0  0
 41 43  1  0  0  0  0
 42 47  1  0  0  0  0
 42 41  2  0  0  0  0
 43 40  1  0  0  0  0
 43 46  1  0  0  0  0
 43 45  1  1  0  0  0
 44 47  1  0  0  0  0
 47 48  2  0  0  0  0
 48 40  1  0  0  0  0
 49 50  1  1  0  0  0
 49 36  1  0  0  0  0
 49 52  1  0  0  0  0
 52 51  1  6  0  0  0
 55 54  1  0  0  0  0
 55 60  2  0  0  0  0
 56 53  1  0  0  0  0
 56 52  1  6  0  0  0
 57 54  1  6  0  0  0
 57 58  1  0  0  0  0
 57 59  1  0  0  0  0
 58 59  1  0  0  0  0
 59 53  1  1  0  0  0
 60 56  1  0  0  0  0
M  END
>  <MODEL>
9

>  <REMARK>
 VINA RESULT:      -5.7      3.736      6.072
  Name = 
  18 active torsions:
  status: ('A' for Active; 'I' for Inactive)
    1  A    between atoms: C_9  and  N_11
    2  A    between atoms: C_19  and  C_48
    3  A    between atoms: C_19  and  C_51
    4  A    between atoms: C_25  and  C_27
    5  A    between atoms: C_25  and  C_29
    6  A    between atoms: C_26  and  C_30
    7  A    between atoms: C_29  and  C_30
    8  A    between atoms: C_30  and  C_45
    9  A    between atoms: C_32  and  C_58
   10  A    between atoms: C_34  and  C_36
   11  A    between atoms: C_36  and  C_39
   12  A    between atoms: C_37  and  C_39
   13  A    between atoms: N_40  and  C_58
   14  A    between atoms: C_42  and  O_56
   15  A    between atoms: C_42  and  C_60
   16  A    between atoms: C_45  and  C_48
   17  A    between atoms: C_45  and  C_49
   18  A    between atoms: C_50  and  O_56
                            x       y       z     vdW  Elec       q    Type
                         _______ _______ _______ _____ _____    ______ ____

>  <TORSDO>
F 18

$$$$
