=
 OpenBabel11062414343D

 31 35  0  0  1  0  0  0  0  0999 V2000
  182.9950  178.7520  143.8330 C   0  0  0  0  0  0  0  0  0  0  0  0
  181.9020  178.9060  141.6820 C   0  0  0  0  0  0  0  0  0  0  0  0
  184.3590  178.6300  145.8570 N   0  0  0  0  0  0  0  0  0  0  0  0
  186.8280  178.5580  141.7010 C   0  0  0  0  0  2  0  0  0  0  0  0
  183.0220  178.7940  142.3490 C   0  0  0  0  0  0  0  0  0  0  0  0
  180.7830  179.0190  141.0180 C   0  0  0  0  0  3  0  0  0  0  0  0
  185.6330  178.3360  139.5870 N   0  0  0  0  0  2  0  0  0  0  0  0
  181.8030  178.8590  144.5430 O   0  0  0  0  0  1  0  0  0  0  0  0
  186.7660  178.9860  140.2370 C   0  0  0  0  0  2  0  0  0  0  0  0
  185.4770  178.6420  142.3630 C   0  0  0  0  0  0  0  0  0  0  0  0
  186.4160  178.4930  144.8060 C   0  0  2  0  0  3  0  0  0  0  0  0
  185.7410  178.5490  146.1270 N   0  0  0  0  0  0  0  0  0  0  0  0
  185.3720  178.5240  143.7900 N   0  0  0  0  0  0  0  0  0  0  0  0
  184.3370  178.7390  141.6380 C   0  0  0  0  0  0  0  0  0  0  0  0
  184.4080  178.9140  140.1380 C   0  0  0  0  0  2  0  0  0  0  0  0
  184.1570  178.6210  144.4700 C   0  0  0  0  0  0  0  0  0  0  0  0
  179.8270  180.0880  141.3130 C   0  0  0  0  0  0  0  0  0  0  0  0
  179.8980  180.8000  142.5060 O   0  0  0  0  0  1  0  0  0  0  0  0
  178.9310  180.3640  140.4760 O   0  0  0  0  0  0  0  0  0  0  0  0
  187.2090  177.2000  144.6940 C   0  0  0  0  0  2  0  0  0  0  0  0
  191.7570  175.8970  146.7560 C   0  0  0  0  0  3  0  0  0  0  0  0
  190.9690  176.8340  147.3180 C   0  0  0  0  0  3  0  0  0  0  0  0
  189.6320  176.8990  145.2490 C   0  0  1  0  0  3  0  0  0  0  0  0
  191.7020  175.6330  145.2980 C   0  0  0  0  0  0  0  0  0  0  0  0
  188.9360  176.6910  142.9800 C   0  0  0  0  0  2  0  0  0  0  0  0
  190.8550  176.5290  144.4420 C   0  0  1  0  0  0  0  0  0  0  0  0
  190.2370  175.9050  143.2090 C   0  0  0  0  0  2  0  0  0  0  0  0
  190.0100  177.6810  146.5060 C   0  0  0  0  0  2  0  0  0  0  0  0
  191.6760  177.7510  144.0250 C   0  0  0  0  0  1  0  0  0  0  0  0
  192.4100  174.7230  144.7900 O   0  0  0  0  0  0  0  0  0  0  0  0
  188.6420  177.4740  144.2620 C   0  0  1  0  0  3  0  0  0  0  0  0
  1 16  2  0  0  0  0
  1  8  1  0  0  0  0
  2  5  2  0  0  0  0
  3 12  2  0  0  0  0
  4 10  1  0  0  0  0
  5  1  1  0  0  0  0
  6 17  1  0  0  0  0
  6  2  2  0  0  0  0
  7 15  1  0  0  0  0
  7  9  1  0  0  0  0
  9  4  1  0  0  0  0
 10 13  1  0  0  0  0
 11 20  1  1  0  0  0
 11 12  1  0  0  0  0
 13 16  1  0  0  0  0
 13 11  1  0  0  0  0
 14  5  1  0  0  0  0
 14 10  2  0  0  0  0
 15 14  1  0  0  0  0
 16  3  1  0  0  0  0
 17 18  1  0  0  0  0
 19 17  2  0  0  0  0
 21 22  2  0  0  0  0
 23 28  1  1  0  0  0
 24 21  1  0  0  0  0
 25 27  1  0  0  0  0
 25 31  1  0  0  0  0
 26 29  1  6  0  0  0
 26 23  1  0  0  0  0
 26 24  1  0  0  0  0
 27 26  1  0  0  0  0
 28 22  1  0  0  0  0
 30 24  2  0  0  0  0
 31 20  1  1  0  0  0
 31 23  1  0  0  0  0
M  END
>  <MODEL>
1

>  <REMARK>
 VINA RESULT:      -9.7      0.000      0.000
  Name = 
  3 active torsions:
  status: ('A' for Active; 'I' for Inactive)
    1  A    between atoms: C_8  and  C_13
    2  A    between atoms: C_17  and  C_23
    3  A    between atoms: C_23  and  C_29
                            x       y       z     vdW  Elec       q    Type
                         _______ _______ _______ _____ _____    ______ ____

>  <TORSDO>
F 3

$$$$
=
 OpenBabel11062414343D

 31 35  0  0  1  0  0  0  0  0999 V2000
  189.8260  177.0540  144.0590 C   0  0  2  0  0  3  0  0  0  0  0  0
  188.1370  177.2460  145.7780 C   0  0  0  0  0  0  0  0  0  0  0  0
  191.3370  176.9970  142.1380 N   0  0  0  0  0  0  0  0  0  0  0  0
  186.8190  178.4190  141.1650 C   0  0  0  0  0  2  0  0  0  0  0  0
  188.4470  177.3650  144.5120 C   0  0  0  0  0  0  0  0  0  0  0  0
  187.8310  177.1290  147.0410 C   0  0  0  0  0  3  0  0  0  0  0  0
  185.0940  178.2210  142.8770 N   0  0  0  0  0  2  0  0  0  0  0  0
  190.8170  176.6660  144.9550 O   0  0  0  0  0  1  0  0  0  0  0  0
  185.5810  179.0600  141.7870 C   0  0  0  0  0  2  0  0  0  0  0  0
  187.8000  177.9680  142.2170 C   0  0  0  0  0  0  0  0  0  0  0  0
  189.8010  177.6820  140.5480 C   0  0  2  0  0  3  0  0  0  0  0  0
  191.2180  177.2940  140.7650 N   0  0  0  0  0  2  0  0  0  0  0  0
  189.1270  177.5720  141.8350 N   0  0  0  0  0  0  0  0  0  0  0  0
  187.4370  177.8400  143.5150 C   0  0  0  0  0  0  0  0  0  0  0  0
  186.0670  178.2910  143.9660 C   0  0  0  0  0  2  0  0  0  0  0  0
  190.0920  177.1730  142.7600 C   0  0  0  0  0  0  0  0  0  0  0  0
  188.6240  177.7850  148.0830 C   0  0  0  0  0  0  0  0  0  0  0  0
  190.0140  177.8090  148.0130 O   0  0  0  0  0  0  0  0  0  0  0  0
  188.0400  178.3350  149.0510 O   0  0  0  0  0  1  0  0  0  0  0  0
  189.1620  176.7330  139.5460 C   0  0  0  0  0  2  0  0  0  0  0  0
  186.8430  175.5770  135.0830 C   0  0  0  0  0  3  0  0  0  0  0  0
  187.6490  174.6970  135.7090 C   0  0  0  0  0  3  0  0  0  0  0  0
  188.4600  176.5230  137.1520 C   0  0  1  0  0  3  0  0  0  0  0  0
  187.0280  177.0370  135.2610 C   0  0  0  0  0  0  0  0  0  0  0  0
  189.0040  178.6790  138.0070 C   0  0  0  0  0  2  0  0  0  0  0  0
  188.2200  177.5160  136.0380 C   0  0  1  0  0  0  0  0  0  0  0  0
  188.0550  178.8100  136.8050 C   0  0  0  0  0  2  0  0  0  0  0  0
  188.7920  175.1380  136.6010 C   0  0  0  0  0  2  0  0  0  0  0  0
  189.4180  177.6430  135.0950 C   0  0  0  0  0  1  0  0  0  0  0  0
  186.2400  177.8490  134.7080 O   0  0  0  0  0  0  0  0  0  0  0  0
  189.4010  177.2040  138.1200 C   0  0  1  0  0  3  0  0  0  0  0  0
  1  5  1  0  0  0  0
  1  8  1  1  0  0  0
  2  6  2  0  0  0  0
  3 16  2  0  0  0  0
  4  9  1  0  0  0  0
  4 10  1  0  0  0  0
  5  2  2  0  0  0  0
  6 17  1  0  0  0  0
  7 15  1  0  0  0  0
  9  7  1  0  0  0  0
 10 14  2  0  0  0  0
 11 20  1  6  0  0  0
 11 12  1  0  0  0  0
 11 13  1  0  0  0  0
 12  3  1  0  0  0  0
 13 10  1  0  0  0  0
 13 16  1  0  0  0  0
 14 15  1  0  0  0  0
 14  5  1  0  0  0  0
 16  1  1  0  0  0  0
 17 19  1  0  0  0  0
 18 17  2  0  0  0  0
 21 24  1  0  0  0  0
 21 22  2  0  0  0  0
 22 28  1  0  0  0  0
 23 28  1  6  0  0  0
 23 31  1  0  0  0  0
 24 26  1  0  0  0  0
 25 31  1  0  0  0  0
 26 29  1  6  0  0  0
 26 27  1  0  0  0  0
 26 23  1  0  0  0  0
 27 25  1  0  0  0  0
 30 24  2  0  0  0  0
 31 20  1  1  0  0  0
M  END
>  <MODEL>
2

>  <REMARK>
 VINA RESULT:      -9.4      4.250      8.214
  Name = 
  3 active torsions:
  status: ('A' for Active; 'I' for Inactive)
    1  A    between atoms: C_8  and  C_13
    2  A    between atoms: C_17  and  C_23
    3  A    between atoms: C_23  and  C_29
                            x       y       z     vdW  Elec       q    Type
                         _______ _______ _______ _____ _____    ______ ____

>  <TORSDO>
F 3

$$$$
=
 OpenBabel11062414343D

 31 35  0  0  1  0  0  0  0  0999 V2000
  188.1420  177.7580  142.5310 C   0  0  2  0  0  3  0  0  0  0  0  0
  188.8950  177.1630  144.7500 C   0  0  0  0  0  0  0  0  0  0  0  0
  187.1340  178.4700  140.4210 N   0  0  0  0  0  0  0  0  0  0  0  0
  184.2530  178.7840  144.2910 C   0  0  0  0  0  2  0  0  0  0  0  0
  187.9210  177.5960  143.9900 C   0  0  0  0  0  0  0  0  0  0  0  0
  189.8680  176.7320  145.5060 C   0  0  0  0  0  3  0  0  0  0  0  0
  184.9650  177.8130  146.4110 N   0  0  0  0  0  2  0  0  0  0  0  0
  189.3760  177.4880  141.9460 O   0  0  0  0  0  1  0  0  0  0  0  0
  184.2620  178.9410  145.8090 C   0  0  0  0  0  2  0  0  0  0  0  0
  185.6170  178.4240  143.7610 C   0  0  0  0  0  0  0  0  0  0  0  0
  185.0490  179.0040  141.2680 C   0  0  2  0  0  3  0  0  0  0  0  0
  185.8760  178.9780  140.0360 N   0  0  0  0  0  2  0  0  0  0  0  0
  185.8720  178.4780  142.3490 N   0  0  0  0  0  0  0  0  0  0  0  0
  186.5940  177.9610  144.5760 C   0  0  0  0  0  0  0  0  0  0  0  0
  186.3810  177.9350  146.0720 C   0  0  0  0  0  2  0  0  0  0  0  0
  187.1190  178.1860  141.7940 C   0  0  0  0  0  0  0  0  0  0  0  0
  191.1860  177.3690  145.4900 C   0  0  0  0  0  0  0  0  0  0  0  0
  191.5370  178.2570  144.4770 O   0  0  0  0  0  0  0  0  0  0  0  0
  192.0100  177.1110  146.4030 O   0  0  0  0  0  1  0  0  0  0  0  0
  183.8220  178.1250  141.0770 C   0  0  0  0  0  2  0  0  0  0  0  0
  181.1290  176.9170  136.8440 C   0  0  0  0  0  3  0  0  0  0  0  0
  182.4310  177.2590  136.7800 C   0  0  0  0  0  3  0  0  0  0  0  0
  182.2910  178.0860  139.0970 C   0  0  1  0  0  3  0  0  0  0  0  0
  180.2640  177.4200  137.9380 C   0  0  0  0  0  0  0  0  0  0  0  0
  181.4670  178.9150  141.1730 C   0  0  0  0  0  2  0  0  0  0  0  0
  180.8340  178.4320  138.8900 C   0  0  1  0  0  0  0  0  0  0  0  0
  180.3040  178.4050  140.3070 C   0  0  0  0  0  2  0  0  0  0  0  0
  183.0770  178.1830  137.7910 C   0  0  0  0  0  2  0  0  0  0  0  0
  180.6400  179.8350  138.3110 C   0  0  0  0  0  1  0  0  0  0  0  0
  179.0600  177.0570  138.0150 O   0  0  0  0  0  0  0  0  0  0  0  0
  182.7340  178.8650  140.3140 C   0  0  1  0  0  3  0  0  0  0  0  0
  1  8  1  1  0  0  0
  1  5  1  0  0  0  0
  2  6  2  0  0  0  0
  3 16  2  0  0  0  0
  4  9  1  0  0  0  0
  5 14  1  0  0  0  0
  5  2  2  0  0  0  0
  9  7  1  0  0  0  0
 10  4  1  0  0  0  0
 10 14  2  0  0  0  0
 11 20  1  6  0  0  0
 11 13  1  0  0  0  0
 12  3  1  0  0  0  0
 12 11  1  0  0  0  0
 13 10  1  0  0  0  0
 14 15  1  0  0  0  0
 15  7  1  0  0  0  0
 16 13  1  0  0  0  0
 16  1  1  0  0  0  0
 17  6  1  0  0  0  0
 17 19  1  0  0  0  0
 18 17  2  0  0  0  0
 21 24  1  0  0  0  0
 22 21  2  0  0  0  0
 22 28  1  0  0  0  0
 23 28  1  6  0  0  0
 23 31  1  0  0  0  0
 24 30  2  0  0  0  0
 24 26  1  0  0  0  0
 26 29  1  6  0  0  0
 26 23  1  0  0  0  0
 26 27  1  0  0  0  0
 27 25  1  0  0  0  0
 31 20  1  1  0  0  0
 31 25  1  0  0  0  0
M  END
>  <MODEL>
3

>  <REMARK>
 VINA RESULT:      -9.3      2.322      9.248
  Name = 
  3 active torsions:
  status: ('A' for Active; 'I' for Inactive)
    1  A    between atoms: C_8  and  C_13
    2  A    between atoms: C_17  and  C_23
    3  A    between atoms: C_23  and  C_29
                            x       y       z     vdW  Elec       q    Type
                         _______ _______ _______ _____ _____    ______ ____

>  <TORSDO>
F 3

$$$$
=
 OpenBabel11062414343D

 31 35  0  0  1  0  0  0  0  0999 V2000
  182.8960  178.8350  143.7130 C   0  0  0  0  0  0  0  0  0  0  0  0
  181.9570  179.1560  141.5080 C   0  0  0  0  0  0  0  0  0  0  0  0
  184.1130  178.5140  145.8080 N   0  0  0  0  0  0  0  0  0  0  0  0
  186.7930  178.1970  141.7960 C   0  0  0  0  0  2  0  0  0  0  0  0
  183.0140  178.8950  142.2340 C   0  0  0  0  0  0  0  0  0  0  0  0
  180.9020  179.4170  140.7850 C   0  0  0  0  0  3  0  0  0  0  0  0
  185.7050  178.1570  139.6140 N   0  0  0  0  0  2  0  0  0  0  0  0
  181.6860  179.0800  144.3570 O   0  0  0  0  0  1  0  0  0  0  0  0
  186.8700  178.6510  140.3410 C   0  0  0  0  0  2  0  0  0  0  0  0
  185.4270  178.4380  142.3830 C   0  0  0  0  0  0  0  0  0  0  0  0
  186.1950  178.1370  144.8710 C   0  0  2  0  0  3  0  0  0  0  0  0
  185.4560  178.2570  146.1530 N   0  0  0  0  0  0  0  0  0  0  0  0
  185.2240  178.3130  143.7990 N   0  0  0  0  0  0  0  0  0  0  0  0
  184.3520  178.6870  141.5970 C   0  0  0  0  0  0  0  0  0  0  0  0
  184.5310  178.8750  140.1080 C   0  0  0  0  0  2  0  0  0  0  0  0
  183.9930  178.5510  144.4110 C   0  0  0  0  0  0  0  0  0  0  0  0
  180.0700  180.5930  141.0490 C   0  0  0  0  0  0  0  0  0  0  0  0
  179.7060  180.9330  142.3480 O   0  0  0  0  0  1  0  0  0  0  0  0
  179.6790  181.3030  140.0880 O   0  0  0  0  0  0  0  0  0  0  0  0
  186.8280  176.7570  144.7750 C   0  0  0  0  0  2  0  0  0  0  0  0
  191.3130  177.7560  142.4270 C   0  0  0  0  0  3  0  0  0  0  0  0
  190.6340  176.6160  142.1960 C   0  0  0  0  0  3  0  0  0  0  0  0
  189.2320  177.0960  144.1660 C   0  0  1  0  0  3  0  0  0  0  0  0
  191.1810  178.4720  143.7180 C   0  0  0  0  0  0  0  0  0  0  0  0
  188.4370  177.9590  146.2390 C   0  0  0  0  0  2  0  0  0  0  0  0
  190.3870  177.8240  144.8150 C   0  0  1  0  0  0  0  0  0  0  0  0
  189.6700  178.7510  145.7730 C   0  0  0  0  0  2  0  0  0  0  0  0
  189.7250  175.9900  143.2350 C   0  0  0  0  0  2  0  0  0  0  0  0
  191.2980  176.8890  145.6120 C   0  0  0  0  0  1  0  0  0  0  0  0
  191.7850  179.5620  143.9050 O   0  0  0  0  0  0  0  0  0  0  0  0
  188.2620  176.7780  145.2810 C   0  0  1  0  0  3  0  0  0  0  0  0
  1  8  1  0  0  0  0
  1 16  2  0  0  0  0
  2  5  2  0  0  0  0
  3 12  2  0  0  0  0
  4 10  1  0  0  0  0
  5  1  1  0  0  0  0
  6 17  1  0  0  0  0
  6  2  2  0  0  0  0
  7 15  1  0  0  0  0
  7  9  1  0  0  0  0
  9  4  1  0  0  0  0
 10 13  1  0  0  0  0
 11 20  1  6  0  0  0
 11 12  1  0  0  0  0
 13 16  1  0  0  0  0
 13 11  1  0  0  0  0
 14  5  1  0  0  0  0
 14 10  2  0  0  0  0
 15 14  1  0  0  0  0
 16  3  1  0  0  0  0
 17 18  1  0  0  0  0
 19 17  2  0  0  0  0
 21 24  1  0  0  0  0
 22 21  2  0  0  0  0
 22 28  1  0  0  0  0
 23 28  1  1  0  0  0
 23 26  1  0  0  0  0
 23 31  1  0  0  0  0
 24 30  2  0  0  0  0
 24 26  1  0  0  0  0
 26 29  1  1  0  0  0
 26 27  1  0  0  0  0
 27 25  1  0  0  0  0
 31 20  1  6  0  0  0
 31 25  1  0  0  0  0
M  END
>  <MODEL>
4

>  <REMARK>
 VINA RESULT:      -9.1      1.188      2.107
  Name = 
  3 active torsions:
  status: ('A' for Active; 'I' for Inactive)
    1  A    between atoms: C_8  and  C_13
    2  A    between atoms: C_17  and  C_23
    3  A    between atoms: C_23  and  C_29
                            x       y       z     vdW  Elec       q    Type
                         _______ _______ _______ _____ _____    ______ ____

>  <TORSDO>
F 3

$$$$
=
 OpenBabel11062414343D

 31 35  0  0  1  0  0  0  0  0999 V2000
  188.1810  177.7530  145.0820 C   0  0  2  0  0  3  0  0  0  0  0  0
  190.5560  177.3000  145.0960 C   0  0  0  0  0  0  0  0  0  0  0  0
  185.7890  178.1520  144.7730 N   0  0  0  0  0  0  0  0  0  0  0  0
  188.3270  177.5780  140.6980 C   0  0  0  0  0  2  0  0  0  0  0  0
  189.4690  177.4930  144.3920 C   0  0  0  0  0  0  0  0  0  0  0  0
  191.6380  177.1060  145.8000 C   0  0  0  0  0  3  0  0  0  0  0  0
  190.7620  177.5040  140.7890 N   0  0  0  0  0  2  0  0  0  0  0  0
  188.0880  177.7670  146.4710 O   0  0  0  0  0  1  0  0  0  0  0  0
  189.5910  176.9400  140.1270 C   0  0  0  0  0  2  0  0  0  0  0  0
  188.3520  177.6110  142.2040 C   0  0  0  0  0  0  0  0  0  0  0  0
  185.7900  178.1040  142.4600 C   0  0  2  0  0  3  0  0  0  0  0  0
  184.9290  178.2530  143.6600 N   0  0  0  0  0  2  0  0  0  0  0  0
  187.1580  177.9390  142.9320 N   0  0  0  0  0  0  0  0  0  0  0  0
  189.5000  177.4250  142.8980 C   0  0  0  0  0  0  0  0  0  0  0  0
  190.7660  177.0300  142.1730 C   0  0  0  0  0  2  0  0  0  0  0  0
  187.1040  177.9590  144.3270 C   0  0  0  0  0  0  0  0  0  0  0  0
  191.6840  176.1050  146.8680 C   0  0  0  0  0  0  0  0  0  0  0  0
  192.7760  175.2530  147.0010 O   0  0  0  0  0  0  0  0  0  0  0  0
  190.7240  176.0160  147.6750 O   0  0  0  0  0  1  0  0  0  0  0  0
  185.6860  179.3560  141.6010 C   0  0  0  0  0  2  0  0  0  0  0  0
  184.9700  176.4220  137.4170 C   0  0  0  0  0  3  0  0  0  0  0  0
  185.8390  177.4510  137.4180 C   0  0  0  0  0  3  0  0  0  0  0  0
  184.8370  178.2490  139.5230 C   0  0  1  0  0  3  0  0  0  0  0  0
  183.7890  176.4230  138.3130 C   0  0  0  0  0  0  0  0  0  0  0  0
  183.3260  178.6270  141.3260 C   0  0  0  0  0  2  0  0  0  0  0  0
  183.5050  177.6590  139.1180 C   0  0  1  0  0  0  0  0  0  0  0  0
  182.8330  177.4580  140.4580 C   0  0  0  0  0  2  0  0  0  0  0  0
  185.6550  178.6670  138.3030 C   0  0  0  0  0  2  0  0  0  0  0  0
  182.6660  178.6250  138.2780 C   0  0  0  0  0  1  0  0  0  0  0  0
  183.0090  175.4350  138.3380 O   0  0  0  0  0  0  0  0  0  0  0  0
  184.5330  179.2470  140.6160 C   0  0  1  0  0  3  0  0  0  0  0  0
  1  8  1  1  0  0  0
  2  6  2  0  0  0  0
  4 10  1  0  0  0  0
  5  1  1  0  0  0  0
  5  2  2  0  0  0  0
  6 17  1  0  0  0  0
  7 15  1  0  0  0  0
  9  4  1  0  0  0  0
  9  7  1  0  0  0  0
 10 14  2  0  0  0  0
 10 13  1  0  0  0  0
 11 20  1  6  0  0  0
 11 13  1  0  0  0  0
 11 12  1  0  0  0  0
 12  3  1  0  0  0  0
 13 16  1  0  0  0  0
 14  5  1  0  0  0  0
 15 14  1  0  0  0  0
 16  3  2  0  0  0  0
 16  1  1  0  0  0  0
 17 18  2  0  0  0  0
 17 19  1  0  0  0  0
 21 22  2  0  0  0  0
 21 24  1  0  0  0  0
 22 28  1  0  0  0  0
 23 28  1  6  0  0  0
 23 31  1  0  0  0  0
 24 30  2  0  0  0  0
 24 26  1  0  0  0  0
 26 29  1  6  0  0  0
 26 23  1  0  0  0  0
 26 27  1  0  0  0  0
 27 25  1  0  0  0  0
 31 25  1  0  0  0  0
 31 20  1  1  0  0  0
M  END
>  <MODEL>
5

>  <REMARK>
 VINA RESULT:      -9.1      2.736      8.284
  Name = 
  3 active torsions:
  status: ('A' for Active; 'I' for Inactive)
    1  A    between atoms: C_8  and  C_13
    2  A    between atoms: C_17  and  C_23
    3  A    between atoms: C_23  and  C_29
                            x       y       z     vdW  Elec       q    Type
                         _______ _______ _______ _____ _____    ______ ____

>  <TORSDO>
F 3

$$$$
=
 OpenBabel11062414343D

 31 35  0  0  1  0  0  0  0  0999 V2000
  183.7400  178.2620  140.9270 C   0  0  0  0  0  0  0  0  0  0  0  0
  183.3640  178.2300  138.5390 C   0  0  0  0  0  0  0  0  0  0  0  0
  184.4090  178.3430  143.2760 N   0  0  0  0  0  0  0  0  0  0  0  0
  188.0500  178.3000  140.0960 C   0  0  0  0  0  2  0  0  0  0  0  0
  184.2260  178.2420  139.5250 C   0  0  0  0  0  0  0  0  0  0  0  0
  182.5040  178.2200  137.5570 C   0  0  0  0  0  3  0  0  0  0  0  0
  187.5920  177.8870  137.7370 N   0  0  0  0  0  2  0  0  0  0  0  0
  182.3810  178.2990  141.2270 O   0  0  0  0  0  1  0  0  0  0  0  0
  188.4190  178.6580  138.6590 C   0  0  0  0  0  2  0  0  0  0  0  0
  186.5580  178.2980  140.3030 C   0  0  0  0  0  0  0  0  0  0  0  0
  186.6950  178.3350  142.9210 C   0  0  2  0  0  3  0  0  0  0  0  0
  185.6400  178.3900  143.9630 N   0  0  0  0  0  0  0  0  0  0  0  0
  186.0210  178.2330  141.6330 N   0  0  0  0  0  0  0  0  0  0  0  0
  185.6970  178.2670  139.2580 C   0  0  0  0  0  0  0  0  0  0  0  0
  186.2210  178.3830  137.8440 C   0  0  0  0  0  2  0  0  0  0  0  0
  184.6510  178.2580  141.8980 C   0  0  0  0  0  0  0  0  0  0  0  0
  181.4340  179.2160  137.4710 C   0  0  0  0  0  0  0  0  0  0  0  0
  180.9670  179.6560  136.2360 O   0  0  0  0  0  0  0  0  0  0  0  0
  180.9320  179.6790  138.5260 O   0  0  0  0  0  1  0  0  0  0  0  0
  187.5680  177.1090  143.1450 C   0  0  0  0  0  2  0  0  0  0  0  0
  190.5810  176.6980  147.3150 C   0  0  0  0  0  3  0  0  0  0  0  0
  189.5730  177.5900  147.2570 C   0  0  0  0  0  3  0  0  0  0  0  0
  189.4200  177.2040  144.8270 C   0  0  1  0  0  3  0  0  0  0  0  0
  191.2610  176.2370  146.0800 C   0  0  0  0  0  0  0  0  0  0  0  0
  189.9360  176.6070  142.5800 C   0  0  0  0  0  2  0  0  0  0  0  0
  190.8980  176.8930  144.7790 C   0  0  1  0  0  0  0  0  0  0  0  0
  190.9950  176.0350  143.5360 C   0  0  0  0  0  2  0  0  0  0  0  0
  189.0950  178.1880  145.9500 C   0  0  0  0  0  2  0  0  0  0  0  0
  191.7570  178.1460  144.5900 C   0  0  0  0  0  1  0  0  0  0  0  0
  192.1700  175.3680  146.1430 O   0  0  0  0  0  0  0  0  0  0  0  0
  189.0130  177.5090  143.4040 C   0  0  1  0  0  3  0  0  0  0  0  0
  1  8  1  0  0  0  0
  1 16  2  0  0  0  0
  2  5  2  0  0  0  0
  3 12  2  0  0  0  0
  4 10  1  0  0  0  0
  5  1  1  0  0  0  0
  6  2  2  0  0  0  0
  7 15  1  0  0  0  0
  7  9  1  0  0  0  0
  9  4  1  0  0  0  0
 10 13  1  0  0  0  0
 11 20  1  1  0  0  0
 11 12  1  0  0  0  0
 13 16  1  0  0  0  0
 13 11  1  0  0  0  0
 14  5  1  0  0  0  0
 14 10  2  0  0  0  0
 15 14  1  0  0  0  0
 16  3  1  0  0  0  0
 17  6  1  0  0  0  0
 17 19  1  0  0  0  0
 18 17  2  0  0  0  0
 22 21  2  0  0  0  0
 23 28  1  1  0  0  0
 24 30  2  0  0  0  0
 24 21  1  0  0  0  0
 25 31  1  0  0  0  0
 25 27  1  0  0  0  0
 26 29  1  6  0  0  0
 26 23  1  0  0  0  0
 26 24  1  0  0  0  0
 27 26  1  0  0  0  0
 28 22  1  0  0  0  0
 31 20  1  1  0  0  0
 31 23  1  0  0  0  0
M  END
>  <MODEL>
6

>  <REMARK>
 VINA RESULT:      -9.0      1.935      2.598
  Name = 
  3 active torsions:
  status: ('A' for Active; 'I' for Inactive)
    1  A    between atoms: C_8  and  C_13
    2  A    between atoms: C_17  and  C_23
    3  A    between atoms: C_23  and  C_29
                            x       y       z     vdW  Elec       q    Type
                         _______ _______ _______ _____ _____    ______ ____

>  <TORSDO>
F 3

$$$$
=
 OpenBabel11062414343D

 31 35  0  0  1  0  0  0  0  0999 V2000
  187.9280  177.9900  141.3570 C   0  0  2  0  0  3  0  0  0  0  0  0
  188.4560  177.7190  143.7010 C   0  0  0  0  0  0  0  0  0  0  0  0
  187.1280  178.3690  139.0790 N   0  0  0  0  0  0  0  0  0  0  0  0
  183.8030  178.9040  142.5480 C   0  0  0  0  0  2  0  0  0  0  0  0
  187.5510  177.9820  142.7920 C   0  0  0  0  0  0  0  0  0  0  0  0
  189.3610  177.4570  144.6050 C   0  0  0  0  0  3  0  0  0  0  0  0
  184.3250  178.2460  144.8370 N   0  0  0  0  0  2  0  0  0  0  0  0
  189.2360  177.7520  140.9460 O   0  0  0  0  0  1  0  0  0  0  0  0
  183.6250  179.2370  144.0270 C   0  0  0  0  0  2  0  0  0  0  0  0
  185.2390  178.5930  142.2160 C   0  0  0  0  0  0  0  0  0  0  0  0
  184.9270  178.8320  139.6240 C   0  0  2  0  0  3  0  0  0  0  0  0
  185.8920  178.7270  138.5010 N   0  0  0  0  0  2  0  0  0  0  0  0
  185.6530  178.5020  140.8440 N   0  0  0  0  0  0  0  0  0  0  0  0
  186.1440  178.3070  143.1830 C   0  0  0  0  0  0  0  0  0  0  0  0
  185.7610  178.4400  144.6390 C   0  0  0  0  0  2  0  0  0  0  0  0
  186.9720  178.2470  140.4670 C   0  0  0  0  0  0  0  0  0  0  0  0
  190.6270  178.1900  144.6500 C   0  0  0  0  0  0  0  0  0  0  0  0
  191.6830  177.7420  145.4380 O   0  0  0  0  0  1  0  0  0  0  0  0
  190.7610  179.2380  143.9680 O   0  0  0  0  0  0  0  0  0  0  0  0
  183.7910  177.8430  139.4140 C   0  0  0  0  0  2  0  0  0  0  0  0
  179.3180  178.9240  141.7480 C   0  0  0  0  0  3  0  0  0  0  0  0
  179.6380  177.6680  141.3820 C   0  0  0  0  0  3  0  0  0  0  0  0
  181.4720  178.5740  140.0080 C   0  0  1  0  0  3  0  0  0  0  0  0
  179.8720  180.0920  141.0220 C   0  0  0  0  0  0  0  0  0  0  0  0
  182.8450  180.0340  138.7200 C   0  0  0  0  0  2  0  0  0  0  0  0
  180.6820  179.8430  139.7830 C   0  0  1  0  0  0  0  0  0  0  0  0
  181.7770  180.8410  139.4760 C   0  0  0  0  0  2  0  0  0  0  0  0
  180.5500  177.3730  140.2090 C   0  0  0  0  0  2  0  0  0  0  0  0
  179.7430  179.7450  138.5790 C   0  0  0  0  0  1  0  0  0  0  0  0
  179.6030  181.2620  141.4020 O   0  0  0  0  0  0  0  0  0  0  0  0
  182.5340  178.5500  138.9320 C   0  0  1  0  0  3  0  0  0  0  0  0
  1  8  1  1  0  0  0
  1  5  1  0  0  0  0
  2  6  2  0  0  0  0
  3 16  2  0  0  0  0
  4  9  1  0  0  0  0
  5 14  1  0  0  0  0
  5  2  2  0  0  0  0
  6 17  1  0  0  0  0
  9  7  1  0  0  0  0
 10  4  1  0  0  0  0
 10 14  2  0  0  0  0
 11 20  1  6  0  0  0
 11 13  1  0  0  0  0
 12  3  1  0  0  0  0
 12 11  1  0  0  0  0
 13 10  1  0  0  0  0
 14 15  1  0  0  0  0
 15  7  1  0  0  0  0
 16 13  1  0  0  0  0
 16  1  1  0  0  0  0
 17 18  1  0  0  0  0
 19 17  2  0  0  0  0
 22 21  2  0  0  0  0
 23 28  1  6  0  0  0
 24 30  2  0  0  0  0
 24 21  1  0  0  0  0
 25 31  1  0  0  0  0
 25 27  1  0  0  0  0
 26 29  1  6  0  0  0
 26 23  1  0  0  0  0
 26 24  1  0  0  0  0
 27 26  1  0  0  0  0
 28 22  1  0  0  0  0
 31 20  1  1  0  0  0
 31 23  1  0  0  0  0
M  END
>  <MODEL>
7

>  <REMARK>
 VINA RESULT:      -8.9      2.019      9.048
  Name = 
  3 active torsions:
  status: ('A' for Active; 'I' for Inactive)
    1  A    between atoms: C_8  and  C_13
    2  A    between atoms: C_17  and  C_23
    3  A    between atoms: C_23  and  C_29
                            x       y       z     vdW  Elec       q    Type
                         _______ _______ _______ _____ _____    ______ ____

>  <TORSDO>
F 3

$$$$
=
 OpenBabel11062414343D

 31 35  0  0  1  0  0  0  0  0999 V2000
  187.9230  177.8760  145.0000 C   0  0  2  0  0  3  0  0  0  0  0  0
  190.3250  177.6280  144.8690 C   0  0  0  0  0  0  0  0  0  0  0  0
  185.4910  178.0580  144.8390 N   0  0  0  0  0  0  0  0  0  0  0  0
  187.8050  177.5630  140.6230 C   0  0  0  0  0  2  0  0  0  0  0  0
  189.1830  177.7040  144.2340 C   0  0  0  0  0  0  0  0  0  0  0  0
  191.4620  177.5520  145.5050 C   0  0  0  0  0  3  0  0  0  0  0  0
  190.2380  177.7000  140.5540 N   0  0  0  0  0  2  0  0  0  0  0  0
  187.9180  177.9300  146.3910 O   0  0  0  0  0  1  0  0  0  0  0  0
  189.0810  177.0160  139.9880 C   0  0  0  0  0  2  0  0  0  0  0  0
  187.9230  177.6500  142.1220 C   0  0  0  0  0  0  0  0  0  0  0  0
  185.3490  177.9310  142.5330 C   0  0  2  0  0  3  0  0  0  0  0  0
  184.5560  178.0470  143.7830 N   0  0  0  0  0  2  0  0  0  0  0  0
  186.7540  177.9000  142.9180 N   0  0  0  0  0  0  0  0  0  0  0  0
  189.1250  177.5870  142.7430 C   0  0  0  0  0  0  0  0  0  0  0  0
  190.3710  177.2770  141.9470 C   0  0  0  0  0  2  0  0  0  0  0  0
  186.7870  177.9630  144.3120 C   0  0  0  0  0  0  0  0  0  0  0  0
  191.6630  176.5960  146.5960 C   0  0  0  0  0  0  0  0  0  0  0  0
  192.3520  175.4060  146.3840 O   0  0  0  0  0  0  0  0  0  0  0  0
  191.2080  176.8560  147.7390 O   0  0  0  0  0  1  0  0  0  0  0  0
  185.0820  179.1390  141.6470 C   0  0  0  0  0  2  0  0  0  0  0  0
  180.0750  180.1000  140.8460 C   0  0  0  0  0  3  0  0  0  0  0  0
  180.4840  179.2050  141.7670 C   0  0  0  0  0  3  0  0  0  0  0  0
  182.7400  179.2700  140.7740 C   0  0  1  0  0  3  0  0  0  0  0  0
  180.9050  180.3980  139.6530 C   0  0  0  0  0  0  0  0  0  0  0  0
  184.5520  179.5700  139.2580 C   0  0  0  0  0  2  0  0  0  0  0  0
  182.1400  179.5760  139.4210 C   0  0  1  0  0  0  0  0  0  0  0  0
  183.2910  180.2640  138.7190 C   0  0  0  0  0  2  0  0  0  0  0  0
  181.7850  178.4400  141.6310 C   0  0  0  0  0  2  0  0  0  0  0  0
  181.7650  178.3120  138.6440 C   0  0  0  0  0  1  0  0  0  0  0  0
  180.5350  181.2700  138.8240 O   0  0  0  0  0  0  0  0  0  0  0  0
  184.1440  178.7810  140.5050 C   0  0  1  0  0  3  0  0  0  0  0  0
  1  8  1  1  0  0  0
  2  6  2  0  0  0  0
  4 10  1  0  0  0  0
  5  2  2  0  0  0  0
  5  1  1  0  0  0  0
  6 17  1  0  0  0  0
  7 15  1  0  0  0  0
  9  7  1  0  0  0  0
  9  4  1  0  0  0  0
 10 14  2  0  0  0  0
 10 13  1  0  0  0  0
 11 20  1  6  0  0  0
 11 13  1  0  0  0  0
 11 12  1  0  0  0  0
 12  3  1  0  0  0  0
 13 16  1  0  0  0  0
 14  5  1  0  0  0  0
 15 14  1  0  0  0  0
 16  3  2  0  0  0  0
 16  1  1  0  0  0  0
 17 19  1  0  0  0  0
 18 17  2  0  0  0  0
 21 22  2  0  0  0  0
 23 28  1  6  0  0  0
 24 21  1  0  0  0  0
 25 31  1  0  0  0  0
 26 29  1  6  0  0  0
 26 24  1  0  0  0  0
 26 23  1  0  0  0  0
 27 25  1  0  0  0  0
 27 26  1  0  0  0  0
 28 22  1  0  0  0  0
 30 24  2  0  0  0  0
 31 23  1  0  0  0  0
 31 20  1  1  0  0  0
M  END
>  <MODEL>
8

>  <REMARK>
 VINA RESULT:      -8.6      2.092      8.748
  Name = 
  3 active torsions:
  status: ('A' for Active; 'I' for Inactive)
    1  A    between atoms: C_8  and  C_13
    2  A    between atoms: C_17  and  C_23
    3  A    between atoms: C_23  and  C_29
                            x       y       z     vdW  Elec       q    Type
                         _______ _______ _______ _____ _____    ______ ____

>  <TORSDO>
F 3

$$$$
=
 OpenBabel11062414343D

 31 35  0  0  1  0  0  0  0  0999 V2000
  188.2820  177.5770  139.0090 C   0  0  0  0  0  0  0  0  0  0  0  0
  190.3750  176.3990  139.2850 C   0  0  0  0  0  0  0  0  0  0  0  0
  186.1810  178.8270  139.0240 N   0  0  0  0  0  0  0  0  0  0  0  0
  188.0710  177.9180  143.3800 C   0  0  0  0  0  2  0  0  0  0  0  0
  189.3570  176.9970  139.8510 C   0  0  0  0  0  0  0  0  0  0  0  0
  191.3900  175.8050  138.7180 C   0  0  0  0  0  3  0  0  0  0  0  0
  189.9740  176.4060  143.5820 N   0  0  0  0  0  2  0  0  0  0  0  0
  188.3400  177.5300  137.6190 O   0  0  0  0  0  1  0  0  0  0  0  0
  189.3830  177.6340  144.1060 C   0  0  0  0  0  2  0  0  0  0  0  0
  188.2180  177.7730  141.8880 C   0  0  0  0  0  0  0  0  0  0  0  0
  185.9840  179.0210  141.3210 C   0  0  2  0  0  3  0  0  0  0  0  0
  185.3540  179.3780  140.0240 N   0  0  0  0  0  0  0  0  0  0  0  0
  187.1740  178.2380  141.0180 N   0  0  0  0  0  0  0  0  0  0  0  0
  189.2770  177.1320  141.3390 C   0  0  0  0  0  0  0  0  0  0  0  0
  190.4190  176.6710  142.2150 C   0  0  0  0  0  2  0  0  0  0  0  0
  187.2580  178.1610  139.6270 C   0  0  0  0  0  0  0  0  0  0  0  0
  192.1760  176.4670  137.6750 C   0  0  0  0  0  0  0  0  0  0  0  0
  193.4830  176.8780  137.9190 O   0  0  0  0  0  1  0  0  0  0  0  0
  191.6620  176.6670  136.5450 O   0  0  0  0  0  0  0  0  0  0  0  0
  185.0130  178.1900  142.1460 C   0  0  0  0  0  2  0  0  0  0  0  0
  179.9110  177.5050  141.7890 C   0  0  0  0  0  3  0  0  0  0  0  0
  180.6580  177.8240  140.7130 C   0  0  0  0  0  3  0  0  0  0  0  0
  182.5200  178.3980  142.2230 C   0  0  1  0  0  3  0  0  0  0  0  0
  180.3320  177.9060  143.1530 C   0  0  0  0  0  0  0  0  0  0  0  0
  183.7860  179.0150  144.1440 C   0  0  0  0  0  2  0  0  0  0  0  0
  181.5320  178.7960  143.2960 C   0  0  1  0  0  0  0  0  0  0  0  0
  182.3560  178.6280  144.5540 C   0  0  0  0  0  2  0  0  0  0  0  0
  181.9420  178.6200  140.8260 C   0  0  0  0  0  2  0  0  0  0  0  0
  181.0930  180.2570  143.1780 C   0  0  0  0  0  1  0  0  0  0  0  0
  179.6500  177.5630  144.1540 O   0  0  0  0  0  0  0  0  0  0  0  0
  183.8350  179.0310  142.6140 C   0  0  1  0  0  3  0  0  0  0  0  0
  1 16  2  0  0  0  0
  1  5  1  0  0  0  0
  2  5  2  0  0  0  0
  3 16  1  0  0  0  0
  3 12  2  0  0  0  0
  4  9  1  0  0  0  0
  5 14  1  0  0  0  0
  6  2  2  0  0  0  0
  7  9  1  0  0  0  0
  8  1  1  0  0  0  0
 10  4  1  0  0  0  0
 11 20  1  1  0  0  0
 12 11  1  0  0  0  0
 13 11  1  0  0  0  0
 13 10  1  0  0  0  0
 14 10  2  0  0  0  0
 14 15  1  0  0  0  0
 15  7  1  0  0  0  0
 16 13  1  0  0  0  0
 17 18  1  0  0  0  0
 17  6  1  0  0  0  0
 19 17  2  0  0  0  0
 21 24  1  0  0  0  0
 22 28  1  0  0  0  0
 22 21  2  0  0  0  0
 23 28  1  6  0  0  0
 23 31  1  0  0  0  0
 23 26  1  0  0  0  0
 24 26  1  0  0  0  0
 24 30  2  0  0  0  0
 25 27  1  0  0  0  0
 26 29  1  6  0  0  0
 26 27  1  0  0  0  0
 31 20  1  1  0  0  0
 31 25  1  0  0  0  0
M  END
>  <MODEL>
9

>  <REMARK>
 VINA RESULT:      -8.4      3.413      8.867
  Name = 
  3 active torsions:
  status: ('A' for Active; 'I' for Inactive)
    1  A    between atoms: C_8  and  C_13
    2  A    between atoms: C_17  and  C_23
    3  A    between atoms: C_23  and  C_29
                            x       y       z     vdW  Elec       q    Type
                         _______ _______ _______ _____ _____    ______ ____

>  <TORSDO>
F 3

$$$$
