=
 OpenBabel11062412183D

 43 46  0  0  1  0  0  0  0  0999 V2000
  184.7130  178.8940  144.5340 C   0  0  0  0  0  0  0  0  0  0  0  0
  185.3580  178.2510  143.4610 C   0  0  0  0  0  0  0  0  0  0  0  0
  186.5480  178.2920  145.9970 C   0  0  0  0  0  3  0  0  0  0  0  0
  187.1970  177.6490  144.9380 C   0  0  0  0  0  0  0  0  0  0  0  0
  183.4500  179.5250  144.3520 N   0  0  0  0  0  1  0  0  0  0  0  0
  185.3120  178.9110  145.7970 C   0  0  0  0  0  3  0  0  0  0  0  0
  186.5990  177.6340  143.6680 C   0  0  0  0  0  3  0  0  0  0  0  0
  188.5280  177.0060  145.1840 C   0  0  2  0  0  3  0  0  0  0  0  0
  190.3520  176.8420  147.2570 S   0  0  0  0  0  1  0  0  0  0  0  0
  189.3890  177.8680  146.1100 C   0  0  0  0  0  2  0  0  0  0  0  0
  189.2140  176.6090  143.8850 C   0  0  0  0  0  0  0  0  0  0  0  0
  188.7980  175.5380  143.2070 C   0  0  0  0  0  2  0  0  0  0  0  0
  190.5600  177.8120  142.0240 C   0  0  2  0  0  3  0  0  0  0  0  0
  190.5280  177.2290  143.4500 C   0  0  1  0  0  3  0  0  0  0  0  0
  190.4370  178.7310  143.2300 C   0  0  0  0  0  2  0  0  0  0  0  0
  188.5540  178.9150  141.2900 F   0  0  0  0  0  0  0  0  0  0  0  0
  189.2380  177.7110  141.2520 C   0  0  1  0  0  3  0  0  0  0  0  0
  189.3930  178.4750  138.8350 C   0  0  0  0  0  1  0  0  0  0  0  0
  189.4410  177.2900  139.7890 C   0  0  1  0  0  3  0  0  0  0  0  0
  191.7390  175.2520  137.9730 C   0  0  0  0  0  2  0  0  0  0  0  0
  190.6840  176.4300  139.5300 C   0  0  1  0  0  3  0  0  0  0  0  0
  190.4680  175.4780  138.5280 O   0  0  0  0  0  0  0  0  0  0  0  0
  192.5990  176.4140  138.1810 N   0  0  0  0  0  2  0  0  0  0  0  0
  191.8720  177.2480  139.1140 C   0  0  0  0  0  2  0  0  0  0  0  0
  184.7600  178.2370  142.0950 C   0  0  0  0  0  2  0  0  0  0  0  0
  185.5060  179.2030  141.1900 C   0  0  0  0  0  2  0  0  0  0  0  0
  184.6430  179.6770  140.1650 O   0  0  0  0  0  0  0  0  0  0  0  0
  182.9090  178.8190  138.8360 N   0  0  0  0  0  0  0  0  0  0  0  0
  184.1860  178.9000  139.0850 C   0  0  0  0  0  0  0  0  0  0  0  0
  181.8510  179.4400  139.5790 C   0  0  0  0  0  0  0  0  0  0  0  0
  181.1820  180.4830  139.0980 C   0  0  0  0  0  3  0  0  0  0  0  0
  179.5990  180.0900  142.4750 C   0  0  0  0  0  1  0  0  0  0  0  0
  180.2650  179.9270  141.1950 N   0  0  0  0  0  0  0  0  0  0  0  0
  180.1930  180.8170  140.1010 C   0  0  0  0  0  0  0  0  0  0  0  0
  181.3540  179.0030  140.9370 C   0  0  0  0  0  2  0  0  0  0  0  0
  179.3800  181.7750  140.0250 O   0  0  0  0  0  0  0  0  0  0  0  0
  184.7810  176.8690  137.6970 N   0  0  0  0  0  2  0  0  0  0  0  0
  185.1130  178.1710  138.1900 C   0  0  0  0  0  0  0  0  0  0  0  0
  186.2230  178.6890  137.8940 O   0  0  0  0  0  0  0  0  0  0  0  0
  186.1290  176.9020  135.2300 O   0  0  0  0  0  0  0  0  0  0  0  0
  187.2910  175.6340  137.3880 O   0  0  0  0  0  1  0  0  0  0  0  0
  185.1540  174.6810  136.2100 O   0  0  0  0  0  1  0  0  0  0  0  0
  185.8280  175.9760  136.6110 P   0  0  0  0  0  0  0  0  0  0  0  0
  1  6  1  0  0  0  0
  2  7  1  0  0  0  0
  2  1  2  0  0  0  0
  4  8  1  0  0  0  0
  4  3  1  0  0  0  0
  5  1  1  0  0  0  0
  6  3  2  0  0  0  0
  7  4  2  0  0  0  0
  8 10  1  6  0  0  0
 10  9  1  0  0  0  0
 11  8  1  0  0  0  0
 12 11  2  0  0  0  0
 13 17  1  6  0  0  0
 13 15  1  0  0  0  0
 13 14  1  0  0  0  0
 14 11  1  6  0  0  0
 15 14  1  0  0  0  0
 17 16  1  6  0  0  0
 19 18  1  6  0  0  0
 19 17  1  0  0  0  0
 20 23  1  0  0  0  0
 20 22  1  0  0  0  0
 21 19  1  6  0  0  0
 22 21  1  0  0  0  0
 23 24  1  0  0  0  0
 24 21  1  0  0  0  0
 25  2  1  0  0  0  0
 26 25  1  0  0  0  0
 27 26  1  0  0  0  0
 28 29  2  0  0  0  0
 28 30  1  0  0  0  0
 29 27  1  0  0  0  0
 30 35  1  0  0  0  0
 31 30  2  0  0  0  0
 31 34  1  0  0  0  0
 33 32  1  0  0  0  0
 34 33  1  0  0  0  0
 35 33  1  0  0  0  0
 36 34  2  0  0  0  0
 37 38  1  0  0  0  0
 38 29  1  0  0  0  0
 39 38  2  0  0  0  0
 40 43  2  0  0  0  0
 42 43  1  0  0  0  0
 43 41  1  0  0  0  0
 43 37  1  0  0  0  0
M  END
>  <MODEL>
1

>  <REMARK>
 VINA RESULT:      -8.6      0.000      0.000
  Name = 
  14 active torsions:
  status: ('A' for Active; 'I' for Inactive)
    1  A    between atoms: O_1  and  C_24
    2  A    between atoms: O_1  and  C_35
    3  A    between atoms: C_2  and  N_14
    4  A    between atoms: C_4  and  C_43
    5  A    between atoms: C_6  and  C_29
    6  A    between atoms: C_9  and  C_29
    7  A    between atoms: C_13  and  C_30
    8  A    between atoms: C_17  and  C_22
    9  A    between atoms: C_19  and  C_25
   10  A    between atoms: C_22  and  C_30
   11  A    between atoms: C_24  and  C_36
   12  A    between atoms: C_25  and  C_29
   13  A    between atoms: N_33  and  P_38
   14  A    between atoms: C_35  and  C_43
                            x       y       z     vdW  Elec       q    Type
                         _______ _______ _______ _____ _____    ______ ____

>  <TORSDO>
F 14

$$$$
=
 OpenBabel11062412183D

 43 46  0  0  1  0  0  0  0  0999 V2000
  184.2560  178.6780  144.9450 C   0  0  0  0  0  0  0  0  0  0  0  0
  184.9690  178.3410  143.7790 C   0  0  0  0  0  0  0  0  0  0  0  0
  182.2680  179.0670  143.6150 C   0  0  0  0  0  3  0  0  0  0  0  0
  182.9690  178.7350  142.4510 C   0  0  0  0  0  0  0  0  0  0  0  0
  184.8920  178.6610  146.2190 N   0  0  0  0  0  1  0  0  0  0  0  0
  182.9080  179.0390  144.8560 C   0  0  0  0  0  3  0  0  0  0  0  0
  184.3210  178.3690  142.5380 C   0  0  0  0  0  3  0  0  0  0  0  0
  182.2480  178.7630  141.1370 C   0  0  2  0  0  3  0  0  0  0  0  0
  179.9430  180.1870  140.5790 S   0  0  0  0  0  1  0  0  0  0  0  0
  180.7330  178.7410  141.3440 C   0  0  0  0  0  2  0  0  0  0  0  0
  182.7630  177.6930  140.1860 C   0  0  0  0  0  0  0  0  0  0  0  0
  182.3770  176.4240  140.3320 C   0  0  0  0  0  2  0  0  0  0  0  0
  183.5200  178.5360  137.8540 C   0  0  2  0  0  3  0  0  0  0  0  0
  183.9090  177.9560  139.2270 C   0  0  1  0  0  3  0  0  0  0  0  0
  184.1130  179.4320  138.9310 C   0  0  0  0  0  2  0  0  0  0  0  0
  181.7690  180.1570  137.5610 F   0  0  0  0  0  0  0  0  0  0  0  0
  182.0210  178.7980  137.6610 C   0  0  1  0  0  3  0  0  0  0  0  0
  182.5460  177.4920  135.5470 C   0  0  0  0  0  1  0  0  0  0  0  0
  181.4530  178.0850  136.4260 C   0  0  1  0  0  3  0  0  0  0  0  0
  179.9640  175.1540  137.8120 C   0  0  0  0  0  2  0  0  0  0  0  0
  180.3660  177.0450  136.7220 C   0  0  1  0  0  3  0  0  0  0  0  0
  180.9020  175.7780  136.9710 O   0  0  0  0  0  0  0  0  0  0  0  0
  179.1920  176.1540  138.5430 N   0  0  0  0  0  2  0  0  0  0  0  0
  179.5290  177.4130  137.9130 C   0  0  0  0  0  2  0  0  0  0  0  0
  186.4000  177.9250  143.8420 C   0  0  0  0  0  2  0  0  0  0  0  0
  187.0150  177.9660  142.4520 C   0  0  0  0  0  2  0  0  0  0  0  0
  188.1360  177.0940  142.3890 O   0  0  0  0  0  0  0  0  0  0  0  0
  190.4500  177.4770  142.4690 N   0  0  0  0  0  0  0  0  0  0  0  0
  189.3560  177.4100  141.7640 C   0  0  0  0  0  0  0  0  0  0  0  0
  190.5700  177.2800  143.8850 C   0  0  0  0  0  0  0  0  0  0  0  0
  191.5050  176.4870  144.4010 C   0  0  0  0  0  3  0  0  0  0  0  0
  189.6700  177.5650  147.4900 C   0  0  0  0  0  1  0  0  0  0  0  0
  190.2780  177.4300  146.1780 N   0  0  0  0  0  0  0  0  0  0  0  0
  191.3320  176.5530  145.8370 C   0  0  0  0  0  0  0  0  0  0  0  0
  189.7070  177.9300  144.9410 C   0  0  0  0  0  2  0  0  0  0  0  0
  192.0150  175.9120  146.6780 O   0  0  0  0  0  0  0  0  0  0  0  0
  188.2790  177.7790  139.5050 N   0  0  0  0  0  2  0  0  0  0  0  0
  189.4560  177.6550  140.3080 C   0  0  0  0  0  0  0  0  0  0  0  0
  190.5940  177.7140  139.7670 O   0  0  0  0  0  0  0  0  0  0  0  0
  189.0070  179.6310  137.5180 O   0  0  0  0  0  1  0  0  0  0  0  0
  189.2990  176.9320  137.0210 O   0  0  0  0  0  0  0  0  0  0  0  0
  186.9410  178.0570  137.2090 O   0  0  0  0  0  1  0  0  0  0  0  0
  188.3410  178.1010  137.7820 P   0  0  0  0  0  0  0  0  0  0  0  0
  1  5  1  0  0  0  0
  2 25  1  0  0  0  0
  2  1  2  0  0  0  0
  3  6  2  0  0  0  0
  4  7  2  0  0  0  0
  4  3  1  0  0  0  0
  6  1  1  0  0  0  0
  7  2  1  0  0  0  0
  8 10  1  1  0  0  0
  8  4  1  0  0  0  0
  9 10  1  0  0  0  0
 11 12  2  0  0  0  0
 11  8  1  0  0  0  0
 13 17  1  1  0  0  0
 13 15  1  0  0  0  0
 13 14  1  0  0  0  0
 14 11  1  1  0  0  0
 15 14  1  0  0  0  0
 17 16  1  6  0  0  0
 19 18  1  1  0  0  0
 19 17  1  0  0  0  0
 20 23  1  0  0  0  0
 21 19  1  1  0  0  0
 21 22  1  0  0  0  0
 21 24  1  0  0  0  0
 22 20  1  0  0  0  0
 24 23  1  0  0  0  0
 26 25  1  0  0  0  0
 27 26  1  0  0  0  0
 28 30  1  0  0  0  0
 29 27  1  0  0  0  0
 29 28  2  0  0  0  0
 30 31  2  0  0  0  0
 30 35  1  0  0  0  0
 31 34  1  0  0  0  0
 33 32  1  0  0  0  0
 34 33  1  0  0  0  0
 34 36  2  0  0  0  0
 35 33  1  0  0  0  0
 37 38  1  0  0  0  0
 38 29  1  0  0  0  0
 39 38  2  0  0  0  0
 40 43  1  0  0  0  0
 41 43  2  0  0  0  0
 42 43  1  0  0  0  0
 43 37  1  0  0  0  0
M  END
>  <MODEL>
2

>  <REMARK>
 VINA RESULT:      -8.4      3.810      8.221
  Name = 
  14 active torsions:
  status: ('A' for Active; 'I' for Inactive)
    1  A    between atoms: O_1  and  C_24
    2  A    between atoms: O_1  and  C_35
    3  A    between atoms: C_2  and  N_14
    4  A    between atoms: C_4  and  C_43
    5  A    between atoms: C_6  and  C_29
    6  A    between atoms: C_9  and  C_29
    7  A    between atoms: C_13  and  C_30
    8  A    between atoms: C_17  and  C_22
    9  A    between atoms: C_19  and  C_25
   10  A    between atoms: C_22  and  C_30
   11  A    between atoms: C_24  and  C_36
   12  A    between atoms: C_25  and  C_29
   13  A    between atoms: N_33  and  P_38
   14  A    between atoms: C_35  and  C_43
                            x       y       z     vdW  Elec       q    Type
                         _______ _______ _______ _____ _____    ______ ____

>  <TORSDO>
F 14

$$$$
=
 OpenBabel11062412183D

 43 46  0  0  1  0  0  0  0  0999 V2000
  183.6840  178.8580  144.3600 C   0  0  0  0  0  0  0  0  0  0  0  0
  184.5870  178.3680  143.3970 C   0  0  0  0  0  0  0  0  0  0  0  0
  181.9280  178.8960  142.6900 C   0  0  0  0  0  3  0  0  0  0  0  0
  182.8180  178.4100  141.7270 C   0  0  0  0  0  0  0  0  0  0  0  0
  184.1050  179.0970  145.6990 N   0  0  0  0  0  1  0  0  0  0  0  0
  182.3590  179.1190  144.0000 C   0  0  0  0  0  3  0  0  0  0  0  0
  184.1490  178.1440  142.0860 C   0  0  0  0  0  3  0  0  0  0  0  0
  182.3210  178.1700  140.3340 C   0  0  2  0  0  3  0  0  0  0  0  0
  181.6290  175.6690  139.3740 S   0  0  0  0  0  1  0  0  0  0  0  0
  182.9210  176.8890  139.7520 C   0  0  0  0  0  2  0  0  0  0  0  0
  182.4950  179.3970  139.4510 C   0  0  0  0  0  0  0  0  0  0  0  0
  183.7050  179.7330  139.0000 C   0  0  0  0  0  2  0  0  0  0  0  0
  180.2930  180.0470  138.2450 C   0  0  2  0  0  3  0  0  0  0  0  0
  181.3870  180.4170  139.2660 C   0  0  1  0  0  3  0  0  0  0  0  0
  180.0310  179.9170  139.7380 C   0  0  0  0  0  2  0  0  0  0  0  0
  179.3770  177.8610  137.8480 F   0  0  0  0  0  0  0  0  0  0  0  0
  180.4650  178.6770  137.5780 C   0  0  1  0  0  3  0  0  0  0  0  0
  180.9100  180.2110  135.6050 C   0  0  0  0  0  1  0  0  0  0  0  0
  180.6550  178.7800  136.0580 C   0  0  1  0  0  3  0  0  0  0  0  0
  183.3620  176.4570  136.0140 C   0  0  0  0  0  2  0  0  0  0  0  0
  181.7020  177.8260  135.4710 C   0  0  1  0  0  3  0  0  0  0  0  0
  182.8430  177.7360  136.2750 O   0  0  0  0  0  0  0  0  0  0  0  0
  182.3040  175.5630  135.5510 N   0  0  0  0  0  2  0  0  0  0  0  0
  181.1740  176.4320  135.2960 C   0  0  0  0  0  2  0  0  0  0  0  0
  186.0010  178.0530  143.7540 C   0  0  0  0  0  2  0  0  0  0  0  0
  186.8070  177.7830  142.4940 C   0  0  0  0  0  2  0  0  0  0  0  0
  188.1310  178.2790  142.6460 O   0  0  0  0  0  0  0  0  0  0  0  0
  190.2740  177.3300  142.5390 N   0  0  0  0  0  0  0  0  0  0  0  0
  189.2420  177.8230  141.9140 C   0  0  0  0  0  0  0  0  0  0  0  0
  190.4390  177.2080  143.9580 C   0  0  0  0  0  0  0  0  0  0  0  0
  191.5720  176.7630  144.4920 C   0  0  0  0  0  3  0  0  0  0  0  0
  189.4660  177.2640  147.5550 C   0  0  0  0  0  1  0  0  0  0  0  0
  190.0960  177.3030  146.2470 N   0  0  0  0  0  0  0  0  0  0  0  0
  191.3760  176.7980  145.9260 C   0  0  0  0  0  0  0  0  0  0  0  0
  189.4060  177.5720  144.9990 C   0  0  0  0  0  2  0  0  0  0  0  0
  192.2200  176.4220  146.7810 O   0  0  0  0  0  0  0  0  0  0  0  0
  188.0830  178.0430  139.6760 N   0  0  0  0  0  2  0  0  0  0  0  0
  189.2820  177.8610  140.4350 C   0  0  0  0  0  0  0  0  0  0  0  0
  190.3810  177.6900  139.8410 O   0  0  0  0  0  0  0  0  0  0  0  0
  188.9580  179.4790  137.4230 O   0  0  0  0  0  1  0  0  0  0  0  0
  188.7880  176.7280  137.2880 O   0  0  0  0  0  0  0  0  0  0  0  0
  186.6540  178.2410  137.4270 O   0  0  0  0  0  1  0  0  0  0  0  0
  188.0780  178.1260  137.9240 P   0  0  0  0  0  0  0  0  0  0  0  0
  1  5  1  0  0  0  0
  2 25  1  0  0  0  0
  2  1  2  0  0  0  0
  3  6  2  0  0  0  0
  4  7  2  0  0  0  0
  4  3  1  0  0  0  0
  6  1  1  0  0  0  0
  7  2  1  0  0  0  0
  8 10  1  6  0  0  0
  8  4  1  0  0  0  0
  9 10  1  0  0  0  0
 11  8  1  0  0  0  0
 12 11  2  0  0  0  0
 13 17  1  6  0  0  0
 13 14  1  0  0  0  0
 13 15  1  0  0  0  0
 14 11  1  6  0  0  0
 14 15  1  0  0  0  0
 17 16  1  6  0  0  0
 19 18  1  1  0  0  0
 19 17  1  0  0  0  0
 20 22  1  0  0  0  0
 21 19  1  1  0  0  0
 21 22  1  0  0  0  0
 23 20  1  0  0  0  0
 24 21  1  0  0  0  0
 24 23  1  0  0  0  0
 26 27  1  0  0  0  0
 26 25  1  0  0  0  0
 28 30  1  0  0  0  0
 29 28  2  0  0  0  0
 29 27  1  0  0  0  0
 30 31  2  0  0  0  0
 30 35  1  0  0  0  0
 31 34  1  0  0  0  0
 33 32  1  0  0  0  0
 34 33  1  0  0  0  0
 34 36  2  0  0  0  0
 35 33  1  0  0  0  0
 37 38  1  0  0  0  0
 38 29  1  0  0  0  0
 39 38  2  0  0  0  0
 40 43  1  0  0  0  0
 41 43  2  0  0  0  0
 42 43  1  0  0  0  0
 43 37  1  0  0  0  0
M  END
>  <MODEL>
3

>  <REMARK>
 VINA RESULT:      -8.0      3.766      8.314
  Name = 
  14 active torsions:
  status: ('A' for Active; 'I' for Inactive)
    1  A    between atoms: O_1  and  C_24
    2  A    between atoms: O_1  and  C_35
    3  A    between atoms: C_2  and  N_14
    4  A    between atoms: C_4  and  C_43
    5  A    between atoms: C_6  and  C_29
    6  A    between atoms: C_9  and  C_29
    7  A    between atoms: C_13  and  C_30
    8  A    between atoms: C_17  and  C_22
    9  A    between atoms: C_19  and  C_25
   10  A    between atoms: C_22  and  C_30
   11  A    between atoms: C_24  and  C_36
   12  A    between atoms: C_25  and  C_29
   13  A    between atoms: N_33  and  P_38
   14  A    between atoms: C_35  and  C_43
                            x       y       z     vdW  Elec       q    Type
                         _______ _______ _______ _____ _____    ______ ____

>  <TORSDO>
F 14

$$$$
=
 OpenBabel11062412183D

 43 46  0  0  1  0  0  0  0  0999 V2000
  184.5020  178.6770  144.9950 C   0  0  0  0  0  0  0  0  0  0  0  0
  185.2020  178.2700  143.8430 C   0  0  0  0  0  0  0  0  0  0  0  0
  182.5280  179.0810  143.6500 C   0  0  0  0  0  3  0  0  0  0  0  0
  183.2150  178.6800  142.5000 C   0  0  0  0  0  0  0  0  0  0  0  0
  185.1390  178.6890  146.2680 N   0  0  0  0  0  1  0  0  0  0  0  0
  183.1680  179.0810  144.8910 C   0  0  0  0  0  3  0  0  0  0  0  0
  184.5540  178.2700  142.6020 C   0  0  0  0  0  3  0  0  0  0  0  0
  182.4950  178.6810  141.1860 C   0  0  2  0  0  3  0  0  0  0  0  0
  179.9850  179.8450  141.1760 S   0  0  0  0  0  1  0  0  0  0  0  0
  181.0110  178.3590  141.3760 C   0  0  0  0  0  2  0  0  0  0  0  0
  183.1950  177.8060  140.1560 C   0  0  0  0  0  0  0  0  0  0  0  0
  184.2470  178.2750  139.4820 C   0  0  0  0  0  2  0  0  0  0  0  0
  181.8720  176.5620  138.3060 C   0  0  2  0  0  3  0  0  0  0  0  0
  182.5920  176.5030  139.6670 C   0  0  1  0  0  3  0  0  0  0  0  0
  183.2660  175.9660  138.4150 C   0  0  0  0  0  2  0  0  0  0  0  0
  182.7370  177.9170  136.5200 F   0  0  0  0  0  0  0  0  0  0  0  0
  181.8930  177.9330  137.6190 C   0  0  1  0  0  3  0  0  0  0  0  0
  179.3970  177.8470  138.0780 C   0  0  0  0  0  1  0  0  0  0  0  0
  180.4970  178.3940  137.1780 C   0  0  1  0  0  3  0  0  0  0  0  0
  179.3120  181.7050  137.7840 C   0  0  0  0  0  2  0  0  0  0  0  0
  180.3450  179.9080  136.9890 C   0  0  1  0  0  3  0  0  0  0  0  0
  179.0920  180.3690  137.4060 O   0  0  0  0  0  0  0  0  0  0  0  0
  180.7080  181.9020  138.1640 N   0  0  0  0  0  2  0  0  0  0  0  0
  181.3780  180.6880  137.7500 C   0  0  0  0  0  2  0  0  0  0  0  0
  186.6180  177.8080  143.9220 C   0  0  0  0  0  2  0  0  0  0  0  0
  187.2650  177.8750  142.5490 C   0  0  0  0  0  2  0  0  0  0  0  0
  188.3720  176.9860  142.4870 O   0  0  0  0  0  0  0  0  0  0  0  0
  190.6990  177.2880  142.5200 N   0  0  0  0  0  0  0  0  0  0  0  0
  189.5880  177.2710  141.8390 C   0  0  0  0  0  0  0  0  0  0  0  0
  190.8440  177.0620  143.9290 C   0  0  0  0  0  0  0  0  0  0  0  0
  191.7190  176.1820  144.4060 C   0  0  0  0  0  3  0  0  0  0  0  0
  190.0850  177.3790  147.5630 C   0  0  0  0  0  1  0  0  0  0  0  0
  190.6380  177.2070  146.2320 N   0  0  0  0  0  0  0  0  0  0  0  0
  191.5970  176.2430  145.8480 C   0  0  0  0  0  0  0  0  0  0  0  0
  190.0770  177.7730  145.0190 C   0  0  0  0  0  2  0  0  0  0  0  0
  192.2440  175.5320  146.6600 O   0  0  0  0  0  0  0  0  0  0  0  0
  188.4730  177.6950  139.6080 N   0  0  0  0  0  2  0  0  0  0  0  0
  189.6640  177.5390  140.3850 C   0  0  0  0  0  0  0  0  0  0  0  0
  190.7910  177.5890  139.8230 O   0  0  0  0  0  0  0  0  0  0  0  0
  188.9760  179.6490  137.6500 O   0  0  0  0  0  1  0  0  0  0  0  0
  189.6110  177.0160  137.1240 O   0  0  0  0  0  0  0  0  0  0  0  0
  187.1280  177.8300  137.3030 O   0  0  0  0  0  1  0  0  0  0  0  0
  188.5070  178.0440  137.8890 P   0  0  0  0  0  0  0  0  0  0  0  0
  1  5  1  0  0  0  0
  2 25  1  0  0  0  0
  2  1  2  0  0  0  0
  3  6  2  0  0  0  0
  4  7  2  0  0  0  0
  4  3  1  0  0  0  0
  6  1  1  0  0  0  0
  7  2  1  0  0  0  0
  8 10  1  1  0  0  0
  8  4  1  0  0  0  0
  9 10  1  0  0  0  0
 11  8  1  0  0  0  0
 12 11  2  0  0  0  0
 13 17  1  6  0  0  0
 13 15  1  0  0  0  0
 13 14  1  0  0  0  0
 14 11  1  6  0  0  0
 15 14  1  0  0  0  0
 17 16  1  6  0  0  0
 19 17  1  0  0  0  0
 19 18  1  1  0  0  0
 20 23  1  0  0  0  0
 21 19  1  1  0  0  0
 21 22  1  0  0  0  0
 21 24  1  0  0  0  0
 22 20  1  0  0  0  0
 24 23  1  0  0  0  0
 26 25  1  0  0  0  0
 27 26  1  0  0  0  0
 28 30  1  0  0  0  0
 29 27  1  0  0  0  0
 29 28  2  0  0  0  0
 30 31  2  0  0  0  0
 30 35  1  0  0  0  0
 31 34  1  0  0  0  0
 33 32  1  0  0  0  0
 34 33  1  0  0  0  0
 34 36  2  0  0  0  0
 35 33  1  0  0  0  0
 37 38  1  0  0  0  0
 38 29  1  0  0  0  0
 39 38  2  0  0  0  0
 40 43  1  0  0  0  0
 41 43  2  0  0  0  0
 42 43  1  0  0  0  0
 43 37  1  0  0  0  0
M  END
>  <MODEL>
4

>  <REMARK>
 VINA RESULT:      -8.0      3.646      8.561
  Name = 
  14 active torsions:
  status: ('A' for Active; 'I' for Inactive)
    1  A    between atoms: O_1  and  C_24
    2  A    between atoms: O_1  and  C_35
    3  A    between atoms: C_2  and  N_14
    4  A    between atoms: C_4  and  C_43
    5  A    between atoms: C_6  and  C_29
    6  A    between atoms: C_9  and  C_29
    7  A    between atoms: C_13  and  C_30
    8  A    between atoms: C_17  and  C_22
    9  A    between atoms: C_19  and  C_25
   10  A    between atoms: C_22  and  C_30
   11  A    between atoms: C_24  and  C_36
   12  A    between atoms: C_25  and  C_29
   13  A    between atoms: N_33  and  P_38
   14  A    between atoms: C_35  and  C_43
                            x       y       z     vdW  Elec       q    Type
                         _______ _______ _______ _____ _____    ______ ____

>  <TORSDO>
F 14

$$$$
=
 OpenBabel11062412183D

 43 46  0  0  1  0  0  0  0  0999 V2000
  183.1160  179.1440  143.5670 C   0  0  0  0  0  0  0  0  0  0  0  0
  183.9370  178.6090  142.5560 C   0  0  0  0  0  0  0  0  0  0  0  0
  184.7700  178.5350  145.2310 C   0  0  0  0  0  3  0  0  0  0  0  0
  185.5920  178.0000  144.2340 C   0  0  0  0  0  0  0  0  0  0  0  0
  181.8550  179.7230  143.2500 N   0  0  0  0  0  1  0  0  0  0  0  0
  183.5380  179.1040  144.8990 C   0  0  0  0  0  3  0  0  0  0  0  0
  185.1730  178.0420  142.8950 C   0  0  0  0  0  3  0  0  0  0  0  0
  186.9130  177.4090  144.6230 C   0  0  2  0  0  3  0  0  0  0  0  0
  187.6070  177.4980  147.2990 S   0  0  0  0  0  1  0  0  0  0  0  0
  187.6190  178.2830  145.6610 C   0  0  0  0  0  2  0  0  0  0  0  0
  187.7630  177.0750  143.4060 C   0  0  0  0  0  0  0  0  0  0  0  0
  188.2190  175.8340  143.2250 C   0  0  0  0  0  2  0  0  0  0  0  0
  189.8620  178.0930  142.2730 C   0  0  2  0  0  3  0  0  0  0  0  0
  188.3410  178.1550  142.5110 C   0  0  1  0  0  3  0  0  0  0  0  0
  188.8940  177.6140  141.2020 C   0  0  0  0  0  2  0  0  0  0  0  0
  191.3440  176.2140  142.0410 F   0  0  0  0  0  0  0  0  0  0  0  0
  190.5780  176.9200  142.9550 C   0  0  1  0  0  3  0  0  0  0  0  0
  191.4500  178.8810  144.3120 C   0  0  0  0  0  1  0  0  0  0  0  0
  191.4690  177.3710  144.1210 C   0  0  1  0  0  3  0  0  0  0  0  0
  192.2130  175.5870  147.1200 C   0  0  0  0  0  2  0  0  0  0  0  0
  191.2100  176.6490  145.4490 C   0  0  1  0  0  3  0  0  0  0  0  0
  192.1800  175.6770  145.7180 O   0  0  0  0  0  0  0  0  0  0  0  0
  191.7500  176.8350  147.7210 N   0  0  0  0  0  2  0  0  0  0  0  0
  191.1900  177.5880  146.6190 C   0  0  0  0  0  2  0  0  0  0  0  0
  183.5310  178.6590  141.1230 C   0  0  0  0  0  2  0  0  0  0  0  0
  184.6840  179.1650  140.2710 C   0  0  0  0  0  2  0  0  0  0  0  0
  184.4210  178.9180  138.8970 O   0  0  0  0  0  0  0  0  0  0  0  0
  184.3090  176.8300  137.8310 N   0  0  0  0  0  0  0  0  0  0  0  0
  185.0080  177.8840  138.1460 C   0  0  0  0  0  0  0  0  0  0  0  0
  182.9470  176.5670  138.1930 C   0  0  0  0  0  0  0  0  0  0  0  0
  182.6370  175.7130  139.1640 C   0  0  0  0  0  3  0  0  0  0  0  0
  179.2310  176.7350  137.9700 C   0  0  0  0  0  1  0  0  0  0  0  0
  180.6350  176.6300  138.3260 N   0  0  0  0  0  0  0  0  0  0  0  0
  181.1920  175.7240  139.2550 C   0  0  0  0  0  0  0  0  0  0  0  0
  181.7300  177.2080  137.5680 C   0  0  0  0  0  2  0  0  0  0  0  0
  180.5120  175.0180  140.0440 O   0  0  0  0  0  0  0  0  0  0  0  0
  187.2330  176.7820  137.6570 N   0  0  0  0  0  2  0  0  0  0  0  0
  186.4090  177.9520  137.6720 C   0  0  0  0  0  0  0  0  0  0  0  0
  186.8890  179.0620  137.3160 O   0  0  0  0  0  0  0  0  0  0  0  0
  188.8950  177.0230  135.4030 O   0  0  0  0  0  0  0  0  0  0  0  0
  189.7340  178.0660  137.8170 O   0  0  0  0  0  1  0  0  0  0  0  0
  189.5560  175.4840  137.4120 O   0  0  0  0  0  1  0  0  0  0  0  0
  188.8880  176.8000  137.0780 P   0  0  0  0  0  0  0  0  0  0  0  0
  1  6  1  0  0  0  0
  2  7  1  0  0  0  0
  2  1  2  0  0  0  0
  4  8  1  0  0  0  0
  4  3  1  0  0  0  0
  5  1  1  0  0  0  0
  6  3  2  0  0  0  0
  7  4  2  0  0  0  0
  8 10  1  1  0  0  0
 10  9  1  0  0  0  0
 11  8  1  0  0  0  0
 12 11  2  0  0  0  0
 13 14  1  0  0  0  0
 13 17  1  1  0  0  0
 14 11  1  1  0  0  0
 15 13  1  0  0  0  0
 15 14  1  0  0  0  0
 17 16  1  6  0  0  0
 17 19  1  0  0  0  0
 19 18  1  1  0  0  0
 20 23  1  0  0  0  0
 21 19  1  6  0  0  0
 21 22  1  0  0  0  0
 21 24  1  0  0  0  0
 22 20  1  0  0  0  0
 24 23  1  0  0  0  0
 25  2  1  0  0  0  0
 26 25  1  0  0  0  0
 27 26  1  0  0  0  0
 28 29  2  0  0  0  0
 28 30  1  0  0  0  0
 29 27  1  0  0  0  0
 30 31  2  0  0  0  0
 31 34  1  0  0  0  0
 32 33  1  0  0  0  0
 33 34  1  0  0  0  0
 34 36  2  0  0  0  0
 35 30  1  0  0  0  0
 35 33  1  0  0  0  0
 37 38  1  0  0  0  0
 38 29  1  0  0  0  0
 39 38  2  0  0  0  0
 40 43  2  0  0  0  0
 43 42  1  0  0  0  0
 43 37  1  0  0  0  0
 43 41  1  0  0  0  0
M  END
>  <MODEL>
5

>  <REMARK>
 VINA RESULT:      -7.9      2.894      4.065
  Name = 
  14 active torsions:
  status: ('A' for Active; 'I' for Inactive)
    1  A    between atoms: O_1  and  C_24
    2  A    between atoms: O_1  and  C_35
    3  A    between atoms: C_2  and  N_14
    4  A    between atoms: C_4  and  C_43
    5  A    between atoms: C_6  and  C_29
    6  A    between atoms: C_9  and  C_29
    7  A    between atoms: C_13  and  C_30
    8  A    between atoms: C_17  and  C_22
    9  A    between atoms: C_19  and  C_25
   10  A    between atoms: C_22  and  C_30
   11  A    between atoms: C_24  and  C_36
   12  A    between atoms: C_25  and  C_29
   13  A    between atoms: N_33  and  P_38
   14  A    between atoms: C_35  and  C_43
                            x       y       z     vdW  Elec       q    Type
                         _______ _______ _______ _____ _____    ______ ____

>  <TORSDO>
F 14

$$$$
=
 OpenBabel11062412183D

 43 46  0  0  1  0  0  0  0  0999 V2000
  182.5060  178.9980  143.5500 C   0  0  0  0  0  0  0  0  0  0  0  0
  183.4940  178.6940  142.5950 C   0  0  0  0  0  0  0  0  0  0  0  0
  184.1500  178.7820  145.3170 C   0  0  0  0  0  3  0  0  0  0  0  0
  185.1390  178.4780  144.3760 C   0  0  0  0  0  0  0  0  0  0  0  0
  181.1640  179.2580  143.1520 N   0  0  0  0  0  1  0  0  0  0  0  0
  182.8400  179.0400  144.9070 C   0  0  0  0  0  3  0  0  0  0  0  0
  184.8070  178.4380  143.0120 C   0  0  0  0  0  3  0  0  0  0  0  0
  186.5370  178.2190  144.8490 C   0  0  2  0  0  3  0  0  0  0  0  0
  187.9530  177.5390  142.5720 S   0  0  0  0  0  1  0  0  0  0  0  0
  187.1490  177.0230  144.1170 C   0  0  0  0  0  2  0  0  0  0  0  0
  186.6130  178.1270  146.3660 C   0  0  0  0  0  0  0  0  0  0  0  0
  186.4960  179.2270  147.1120 C   0  0  0  0  0  2  0  0  0  0  0  0
  188.5750  176.8040  147.4250 C   0  0  2  0  0  3  0  0  0  0  0  0
  187.0760  176.8660  147.0710 C   0  0  1  0  0  3  0  0  0  0  0  0
  187.5410  177.1150  148.4960 C   0  0  0  0  0  2  0  0  0  0  0  0
  189.6340  178.8340  148.1540 F   0  0  0  0  0  0  0  0  0  0  0  0
  189.3850  178.0480  147.0400 C   0  0  1  0  0  3  0  0  0  0  0  0
  191.3700  176.4650  146.9700 C   0  0  0  0  0  1  0  0  0  0  0  0
  190.7160  177.6970  146.3600 C   0  0  1  0  0  3  0  0  0  0  0  0
  191.7840  177.9880  142.9680 C   0  0  0  0  0  2  0  0  0  0  0  0
  190.6510  177.5810  144.8320 C   0  0  1  0  0  3  0  0  0  0  0  0
  191.4150  178.5640  144.1960 O   0  0  0  0  0  0  0  0  0  0  0  0
  191.7790  176.5310  143.0680 N   0  0  0  0  0  2  0  0  0  0  0  0
  191.1390  176.2510  144.3360 C   0  0  0  0  0  2  0  0  0  0  0  0
  183.1780  178.6660  141.1380 C   0  0  0  0  0  2  0  0  0  0  0  0
  184.4130  179.0340  140.3300 C   0  0  0  0  0  2  0  0  0  0  0  0
  184.1600  178.8540  138.9430 O   0  0  0  0  0  0  0  0  0  0  0  0
  184.1980  176.8550  137.7130 N   0  0  0  0  0  0  0  0  0  0  0  0
  184.8240  177.9210  138.1260 C   0  0  0  0  0  0  0  0  0  0  0  0
  182.8480  176.4820  138.0220 C   0  0  0  0  0  0  0  0  0  0  0  0
  181.8440  176.7530  137.1940 C   0  0  0  0  0  3  0  0  0  0  0  0
  180.0230  175.1460  140.0520 C   0  0  0  0  0  1  0  0  0  0  0  0
  180.9730  175.5860  139.0450 N   0  0  0  0  0  0  0  0  0  0  0  0
  180.6550  176.2150  137.8210 C   0  0  0  0  0  0  0  0  0  0  0  0
  182.4000  175.7420  139.2610 C   0  0  0  0  0  2  0  0  0  0  0  0
  179.4900  176.3000  137.3550 O   0  0  0  0  0  0  0  0  0  0  0  0
  187.2960  178.0910  138.6420 N   0  0  0  0  0  2  0  0  0  0  0  0
  186.2270  178.1110  137.6910 C   0  0  0  0  0  0  0  0  0  0  0  0
  186.4720  178.3330  136.4750 O   0  0  0  0  0  0  0  0  0  0  0  0
  189.9550  178.1820  139.5500 O   0  0  0  0  0  1  0  0  0  0  0  0
  189.4050  177.0550  137.0910 O   0  0  0  0  0  0  0  0  0  0  0  0
  189.1690  179.6290  137.5180 O   0  0  0  0  0  1  0  0  0  0  0  0
  188.9760  178.2810  138.1760 P   0  0  0  0  0  0  0  0  0  0  0  0
  1  6  1  0  0  0  0
  2  7  1  0  0  0  0
  2  1  2  0  0  0  0
  4  8  1  0  0  0  0
  4  3  1  0  0  0  0
  5  1  1  0  0  0  0
  6  3  2  0  0  0  0
  7  4  2  0  0  0  0
  8 10  1  6  0  0  0
  8 11  1  0  0  0  0
  9 10  1  0  0  0  0
 11 12  2  0  0  0  0
 13 17  1  6  0  0  0
 13 15  1  0  0  0  0
 14 11  1  6  0  0  0
 14 13  1  0  0  0  0
 14 15  1  0  0  0  0
 17 16  1  1  0  0  0
 19 18  1  1  0  0  0
 19 17  1  0  0  0  0
 20 23  1  0  0  0  0
 20 22  1  0  0  0  0
 21 19  1  1  0  0  0
 22 21  1  0  0  0  0
 23 24  1  0  0  0  0
 24 21  1  0  0  0  0
 25  2  1  0  0  0  0
 26 25  1  0  0  0  0
 27 26  1  0  0  0  0
 28 30  1  0  0  0  0
 28 29  2  0  0  0  0
 29 27  1  0  0  0  0
 30 35  1  0  0  0  0
 31 34  1  0  0  0  0
 31 30  2  0  0  0  0
 33 35  1  0  0  0  0
 33 32  1  0  0  0  0
 34 33  1  0  0  0  0
 36 34  2  0  0  0  0
 38 29  1  0  0  0  0
 38 37  1  0  0  0  0
 39 38  2  0  0  0  0
 41 43  2  0  0  0  0
 42 43  1  0  0  0  0
 43 37  1  0  0  0  0
 43 40  1  0  0  0  0
M  END
>  <MODEL>
6

>  <REMARK>
 VINA RESULT:      -7.8      2.973      4.532
  Name = 
  14 active torsions:
  status: ('A' for Active; 'I' for Inactive)
    1  A    between atoms: O_1  and  C_24
    2  A    between atoms: O_1  and  C_35
    3  A    between atoms: C_2  and  N_14
    4  A    between atoms: C_4  and  C_43
    5  A    between atoms: C_6  and  C_29
    6  A    between atoms: C_9  and  C_29
    7  A    between atoms: C_13  and  C_30
    8  A    between atoms: C_17  and  C_22
    9  A    between atoms: C_19  and  C_25
   10  A    between atoms: C_22  and  C_30
   11  A    between atoms: C_24  and  C_36
   12  A    between atoms: C_25  and  C_29
   13  A    between atoms: N_33  and  P_38
   14  A    between atoms: C_35  and  C_43
                            x       y       z     vdW  Elec       q    Type
                         _______ _______ _______ _____ _____    ______ ____

>  <TORSDO>
F 14

$$$$
=
 OpenBabel11062412183D

 43 46  0  0  1  0  0  0  0  0999 V2000
  184.2940  178.7950  144.9010 C   0  0  0  0  0  0  0  0  0  0  0  0
  184.9930  178.5490  143.7040 C   0  0  0  0  0  0  0  0  0  0  0  0
  182.2230  178.9660  143.6560 C   0  0  0  0  0  3  0  0  0  0  0  0
  182.9080  178.7240  142.4610 C   0  0  0  0  0  0  0  0  0  0  0  0
  184.9800  178.8420  146.1480 N   0  0  0  0  0  1  0  0  0  0  0  0
  182.9120  179.0030  144.8700 C   0  0  0  0  0  3  0  0  0  0  0  0
  184.2960  178.5120  142.4900 C   0  0  0  0  0  3  0  0  0  0  0  0
  182.1360  178.6790  141.1770 C   0  0  2  0  0  3  0  0  0  0  0  0
  179.6780  179.9250  140.9360 S   0  0  0  0  0  1  0  0  0  0  0  0
  180.6440  178.4730  141.4440 C   0  0  0  0  0  2  0  0  0  0  0  0
  182.7360  177.6890  140.1910 C   0  0  0  0  0  0  0  0  0  0  0  0
  182.4050  176.3970  140.2510 C   0  0  0  0  0  2  0  0  0  0  0  0
  183.5360  178.6770  137.9310 C   0  0  2  0  0  3  0  0  0  0  0  0
  183.9020  178.0560  139.2930 C   0  0  1  0  0  3  0  0  0  0  0  0
  184.0350  179.5540  139.0700 C   0  0  0  0  0  2  0  0  0  0  0  0
  181.7280  180.2080  137.5270 F   0  0  0  0  0  0  0  0  0  0  0  0
  182.0340  178.8660  137.6870 C   0  0  1  0  0  3  0  0  0  0  0  0
  182.6660  177.4010  135.7110 C   0  0  0  0  0  1  0  0  0  0  0  0
  181.5330  178.0830  136.4640 C   0  0  1  0  0  3  0  0  0  0  0  0
  179.9010  175.2100  137.8100 C   0  0  0  0  0  2  0  0  0  0  0  0
  180.3940  177.0970  136.7500 C   0  0  1  0  0  3  0  0  0  0  0  0
  180.8650  175.7990  136.9740 O   0  0  0  0  0  0  0  0  0  0  0  0
  179.1860  176.2370  138.5630 N   0  0  0  0  0  2  0  0  0  0  0  0
  179.5850  177.4870  137.9520 C   0  0  0  0  0  2  0  0  0  0  0  0
  186.4630  178.2980  143.7050 C   0  0  0  0  0  2  0  0  0  0  0  0
  186.7360  176.8080  143.5790 C   0  0  0  0  0  2  0  0  0  0  0  0
  187.9540  176.5930  142.8780 O   0  0  0  0  0  0  0  0  0  0  0  0
  189.7250  177.8930  142.0530 N   0  0  0  0  0  0  0  0  0  0  0  0
  189.1280  177.3420  143.0720 C   0  0  0  0  0  0  0  0  0  0  0  0
  189.3260  177.8080  140.6780 C   0  0  0  0  0  0  0  0  0  0  0  0
  188.2960  178.5060  140.2090 C   0  0  0  0  0  3  0  0  0  0  0  0
  189.3220  176.5720  137.1630 C   0  0  0  0  0  1  0  0  0  0  0  0
  189.2340  177.2900  138.4230 N   0  0  0  0  0  0  0  0  0  0  0  0
  188.2090  178.1850  138.8000 C   0  0  0  0  0  0  0  0  0  0  0  0
  189.9990  176.9720  139.6150 C   0  0  0  0  0  2  0  0  0  0  0  0
  187.3360  178.6290  138.0090 O   0  0  0  0  0  0  0  0  0  0  0  0
  189.7220  176.4990  145.3830 N   0  0  0  0  0  2  0  0  0  0  0  0
  189.7170  177.5520  144.4150 C   0  0  0  0  0  0  0  0  0  0  0  0
  190.1810  178.6850  144.7170 O   0  0  0  0  0  0  0  0  0  0  0  0
  192.0580  177.1190  146.8190 O   0  0  0  0  0  0  0  0  0  0  0  0
  189.6080  177.8930  147.8270 O   0  0  0  0  0  1  0  0  0  0  0  0
  190.3330  175.3770  147.7300 O   0  0  0  0  0  1  0  0  0  0  0  0
  190.4330  176.6850  146.9760 P   0  0  0  0  0  0  0  0  0  0  0  0
  1  5  1  0  0  0  0
  2 25  1  0  0  0  0
  2  1  2  0  0  0  0
  3  6  2  0  0  0  0
  4  7  2  0  0  0  0
  4  3  1  0  0  0  0
  6  1  1  0  0  0  0
  7  2  1  0  0  0  0
  8 10  1  1  0  0  0
  8  4  1  0  0  0  0
  9 10  1  0  0  0  0
 11 12  2  0  0  0  0
 11  8  1  0  0  0  0
 13 17  1  1  0  0  0
 13 15  1  0  0  0  0
 13 14  1  0  0  0  0
 14 11  1  1  0  0  0
 15 14  1  0  0  0  0
 17 16  1  6  0  0  0
 19 18  1  1  0  0  0
 19 17  1  0  0  0  0
 20 23  1  0  0  0  0
 21 19  1  1  0  0  0
 21 22  1  0  0  0  0
 21 24  1  0  0  0  0
 22 20  1  0  0  0  0
 24 23  1  0  0  0  0
 26 25  1  0  0  0  0
 27 29  1  0  0  0  0
 27 26  1  0  0  0  0
 28 29  2  0  0  0  0
 29 38  1  0  0  0  0
 30 28  1  0  0  0  0
 31 30  2  0  0  0  0
 32 33  1  0  0  0  0
 33 34  1  0  0  0  0
 33 35  1  0  0  0  0
 34 31  1  0  0  0  0
 35 30  1  0  0  0  0
 36 34  2  0  0  0  0
 37 43  1  0  0  0  0
 38 39  2  0  0  0  0
 38 37  1  0  0  0  0
 40 43  2  0  0  0  0
 43 42  1  0  0  0  0
 43 41  1  0  0  0  0
M  END
>  <MODEL>
7

>  <REMARK>
 VINA RESULT:      -7.6      4.672      8.539
  Name = 
  14 active torsions:
  status: ('A' for Active; 'I' for Inactive)
    1  A    between atoms: O_1  and  C_24
    2  A    between atoms: O_1  and  C_35
    3  A    between atoms: C_2  and  N_14
    4  A    between atoms: C_4  and  C_43
    5  A    between atoms: C_6  and  C_29
    6  A    between atoms: C_9  and  C_29
    7  A    between atoms: C_13  and  C_30
    8  A    between atoms: C_17  and  C_22
    9  A    between atoms: C_19  and  C_25
   10  A    between atoms: C_22  and  C_30
   11  A    between atoms: C_24  and  C_36
   12  A    between atoms: C_25  and  C_29
   13  A    between atoms: N_33  and  P_38
   14  A    between atoms: C_35  and  C_43
                            x       y       z     vdW  Elec       q    Type
                         _______ _______ _______ _____ _____    ______ ____

>  <TORSDO>
F 14

$$$$
=
 OpenBabel11062412183D

 43 46  0  0  1  0  0  0  0  0999 V2000
  190.2180  177.6530  141.4570 C   0  0  0  0  0  0  0  0  0  0  0  0
  188.9200  177.8460  140.9470 C   0  0  0  0  0  0  0  0  0  0  0  0
  190.8970  176.6630  139.3520 C   0  0  0  0  0  3  0  0  0  0  0  0
  189.6110  176.8490  138.8370 C   0  0  0  0  0  0  0  0  0  0  0  0
  190.5440  178.0480  142.7860 N   0  0  0  0  0  1  0  0  0  0  0  0
  191.1990  177.0620  140.6570 C   0  0  0  0  0  3  0  0  0  0  0  0
  188.6230  177.4450  139.6370 C   0  0  0  0  0  3  0  0  0  0  0  0
  189.3240  176.4210  137.4300 C   0  0  2  0  0  3  0  0  0  0  0  0
  189.8210  174.0450  136.1030 S   0  0  0  0  0  1  0  0  0  0  0  0
  190.4610  175.5580  136.8780 C   0  0  0  0  0  2  0  0  0  0  0  0
  188.9510  177.6010  136.5440 C   0  0  0  0  0  0  0  0  0  0  0  0
  189.1340  178.8500  136.9780 C   0  0  0  0  0  2  0  0  0  0  0  0
  186.6300  177.1520  135.4780 C   0  0  2  0  0  3  0  0  0  0  0  0
  188.1330  177.4270  135.2780 C   0  0  1  0  0  3  0  0  0  0  0  0
  187.1130  178.5350  135.0690 C   0  0  0  0  0  2  0  0  0  0  0  0
  185.8910  178.4040  137.3920 F   0  0  0  0  0  0  0  0  0  0  0  0
  186.1650  177.1230  136.9400 C   0  0  1  0  0  3  0  0  0  0  0  0
  183.6970  176.7900  136.4400 C   0  0  0  0  0  1  0  0  0  0  0  0
  184.9270  176.2380  137.1470 C   0  0  1  0  0  3  0  0  0  0  0  0
  186.1970  172.9180  137.4560 C   0  0  0  0  0  2  0  0  0  0  0  0
  185.1300  174.7550  136.8140 C   0  0  1  0  0  3  0  0  0  0  0  0
  186.3860  174.2910  137.2190 O   0  0  0  0  0  0  0  0  0  0  0  0
  184.7990  172.6440  137.7740 N   0  0  0  0  0  2  0  0  0  0  0  0
  184.1030  173.8750  137.4630 C   0  0  0  0  0  2  0  0  0  0  0  0
  187.8560  178.4970  141.7640 C   0  0  0  0  0  2  0  0  0  0  0  0
  186.6060  178.7020  140.9250 C   0  0  0  0  0  2  0  0  0  0  0  0
  185.5690  179.2590  141.7210 O   0  0  0  0  0  0  0  0  0  0  0  0
  184.0880  178.2170  143.2140 N   0  0  0  0  0  0  0  0  0  0  0  0
  184.3490  178.6180  142.0020 C   0  0  0  0  0  0  0  0  0  0  0  0
  184.9470  178.3320  144.3580 C   0  0  0  0  0  0  0  0  0  0  0  0
  184.6660  179.1620  145.3580 C   0  0  0  0  0  3  0  0  0  0  0  0
  187.9540  177.7480  146.4790 C   0  0  0  0  0  1  0  0  0  0  0  0
  186.6530  178.0140  145.8920 N   0  0  0  0  0  0  0  0  0  0  0  0
  185.7300  178.9920  146.3250 C   0  0  0  0  0  0  0  0  0  0  0  0
  186.2190  177.5490  144.5870 C   0  0  0  0  0  2  0  0  0  0  0  0
  185.8360  179.6300  147.4040 O   0  0  0  0  0  0  0  0  0  0  0  0
  181.9840  178.8800  141.1390 N   0  0  0  0  0  2  0  0  0  0  0  0
  183.3180  178.3930  140.9630 C   0  0  0  0  0  0  0  0  0  0  0  0
  183.6130  177.7300  139.9330 O   0  0  0  0  0  0  0  0  0  0  0  0
  181.2680  179.2980  138.4520 O   0  0  0  0  0  0  0  0  0  0  0  0
  180.3960  177.0200  139.7450 O   0  0  0  0  0  1  0  0  0  0  0  0
  179.4810  179.3970  140.3600 O   0  0  0  0  0  1  0  0  0  0  0  0
  180.7350  178.6680  139.9270 P   0  0  0  0  0  0  0  0  0  0  0  0
  1  5  1  0  0  0  0
  2  1  1  0  0  0  0
  2 25  1  0  0  0  0
  3  6  1  0  0  0  0
  4  3  2  0  0  0  0
  4  7  1  0  0  0  0
  6  1  2  0  0  0  0
  7  2  2  0  0  0  0
  8 10  1  6  0  0  0
  8  4  1  0  0  0  0
  9 10  1  0  0  0  0
 11 12  2  0  0  0  0
 11  8  1  0  0  0  0
 13 17  1  1  0  0  0
 14 13  1  0  0  0  0
 14 11  1  1  0  0  0
 15 14  1  0  0  0  0
 15 13  1  0  0  0  0
 17 19  1  0  0  0  0
 17 16  1  6  0  0  0
 19 18  1  6  0  0  0
 20 23  1  0  0  0  0
 21 19  1  1  0  0  0
 21 22  1  0  0  0  0
 21 24  1  0  0  0  0
 22 20  1  0  0  0  0
 24 23  1  0  0  0  0
 26 27  1  0  0  0  0
 26 25  1  0  0  0  0
 27 29  1  0  0  0  0
 28 30  1  0  0  0  0
 29 28  2  0  0  0  0
 30 35  1  0  0  0  0
 30 31  2  0  0  0  0
 31 34  1  0  0  0  0
 33 34  1  0  0  0  0
 33 32  1  0  0  0  0
 34 36  2  0  0  0  0
 35 33  1  0  0  0  0
 38 37  1  0  0  0  0
 38 29  1  0  0  0  0
 39 38  2  0  0  0  0
 40 43  2  0  0  0  0
 41 43  1  0  0  0  0
 43 42  1  0  0  0  0
 43 37  1  0  0  0  0
M  END
>  <MODEL>
8

>  <REMARK>
 VINA RESULT:      -7.5      3.507      6.879
  Name = 
  14 active torsions:
  status: ('A' for Active; 'I' for Inactive)
    1  A    between atoms: O_1  and  C_24
    2  A    between atoms: O_1  and  C_35
    3  A    between atoms: C_2  and  N_14
    4  A    between atoms: C_4  and  C_43
    5  A    between atoms: C_6  and  C_29
    6  A    between atoms: C_9  and  C_29
    7  A    between atoms: C_13  and  C_30
    8  A    between atoms: C_17  and  C_22
    9  A    between atoms: C_19  and  C_25
   10  A    between atoms: C_22  and  C_30
   11  A    between atoms: C_24  and  C_36
   12  A    between atoms: C_25  and  C_29
   13  A    between atoms: N_33  and  P_38
   14  A    between atoms: C_35  and  C_43
                            x       y       z     vdW  Elec       q    Type
                         _______ _______ _______ _____ _____    ______ ____

>  <TORSDO>
F 14

$$$$
=
 OpenBabel11062412183D

 43 46  0  0  1  0  0  0  0  0999 V2000
  183.9810  178.9220  144.4430 C   0  0  0  0  0  0  0  0  0  0  0  0
  184.6000  178.3740  143.3030 C   0  0  0  0  0  0  0  0  0  0  0  0
  185.9630  178.4380  145.7500 C   0  0  0  0  0  3  0  0  0  0  0  0
  186.5860  177.8910  144.6240 C   0  0  0  0  0  0  0  0  0  0  0  0
  182.6580  179.4430  144.3730 N   0  0  0  0  0  1  0  0  0  0  0  0
  184.6670  178.9500  145.6610 C   0  0  0  0  0  3  0  0  0  0  0  0
  185.9020  177.8640  143.3990 C   0  0  0  0  0  3  0  0  0  0  0  0
  187.9820  177.3620  144.7520 C   0  0  2  0  0  3  0  0  0  0  0  0
  189.4440  177.1940  147.0950 S   0  0  0  0  0  1  0  0  0  0  0  0
  188.8000  178.2070  145.7320 C   0  0  0  0  0  2  0  0  0  0  0  0
  188.6420  177.1700  143.3950 C   0  0  0  0  0  0  0  0  0  0  0  0
  188.4470  178.0630  142.4220 C   0  0  0  0  0  2  0  0  0  0  0  0
  190.6700  175.9900  142.2920 C   0  0  2  0  0  3  0  0  0  0  0  0
  189.3100  175.8650  143.0050 C   0  0  1  0  0  3  0  0  0  0  0  0
  190.6020  175.6060  143.7620 C   0  0  0  0  0  2  0  0  0  0  0  0
  192.2220  177.6960  142.9720 F   0  0  0  0  0  0  0  0  0  0  0  0
  191.1750  177.4270  142.1050 C   0  0  1  0  0  3  0  0  0  0  0  0
  193.0340  177.2030  140.3890 C   0  0  0  0  0  1  0  0  0  0  0  0
  191.6250  177.7100  140.6640 C   0  0  1  0  0  3  0  0  0  0  0  0
  189.4560  177.9260  137.8400 C   0  0  0  0  0  2  0  0  0  0  0  0
  190.6520  177.2370  139.5780 C   0  0  1  0  0  3  0  0  0  0  0  0
  189.7870  178.2560  139.1650 O   0  0  0  0  0  0  0  0  0  0  0  0
  190.5050  177.1030  137.2440 N   0  0  0  0  0  2  0  0  0  0  0  0
  191.3590  176.7350  138.3530 C   0  0  0  0  0  2  0  0  0  0  0  0
  183.9080  178.3520  141.9830 C   0  0  0  0  0  2  0  0  0  0  0  0
  184.7670  179.0380  140.9330 C   0  0  0  0  0  2  0  0  0  0  0  0
  183.9760  179.3770  139.8010 O   0  0  0  0  0  0  0  0  0  0  0  0
  181.9930  178.4300  138.9790 N   0  0  0  0  0  0  0  0  0  0  0  0
  183.2960  178.4460  138.9970 C   0  0  0  0  0  0  0  0  0  0  0  0
  181.1160  179.2760  139.7360 C   0  0  0  0  0  0  0  0  0  0  0  0
  180.6060  180.3900  139.2200 C   0  0  0  0  0  3  0  0  0  0  0  0
  179.2310  180.5020  142.7080 C   0  0  0  0  0  1  0  0  0  0  0  0
  179.7620  180.1410  141.4050 N   0  0  0  0  0  0  0  0  0  0  0  0
  179.7670  180.9590  140.2530 C   0  0  0  0  0  0  0  0  0  0  0  0
  180.6520  179.0220  141.1520 C   0  0  0  0  0  2  0  0  0  0  0  0
  179.1300  182.0390  140.1550 O   0  0  0  0  0  0  0  0  0  0  0  0
  185.0460  177.9080  137.2500 N   0  0  0  0  0  2  0  0  0  0  0  0
  184.0100  177.4750  138.1370 C   0  0  0  0  0  0  0  0  0  0  0  0
  183.6710  176.2610  138.1600 O   0  0  0  0  0  0  0  0  0  0  0  0
  186.5940  175.5620  137.1870 O   0  0  0  0  0  1  0  0  0  0  0  0
  184.9100  176.1270  135.0740 O   0  0  0  0  0  0  0  0  0  0  0  0
  187.0670  177.5400  135.5420 O   0  0  0  0  0  1  0  0  0  0  0  0
  185.9450  176.7970  136.2340 P   0  0  0  0  0  0  0  0  0  0  0  0
  1  6  1  0  0  0  0
  2  7  1  0  0  0  0
  2  1  2  0  0  0  0
  4  8  1  0  0  0  0
  4  3  1  0  0  0  0
  5  1  1  0  0  0  0
  6  3  2  0  0  0  0
  7  4  2  0  0  0  0
  8 10  1  1  0  0  0
 10  9  1  0  0  0  0
 11  8  1  0  0  0  0
 12 11  2  0  0  0  0
 13 17  1  1  0  0  0
 13 14  1  0  0  0  0
 13 15  1  0  0  0  0
 14 11  1  1  0  0  0
 14 15  1  0  0  0  0
 17 16  1  1  0  0  0
 19 18  1  6  0  0  0
 19 17  1  0  0  0  0
 20 22  1  0  0  0  0
 21 19  1  1  0  0  0
 22 21  1  0  0  0  0
 23 20  1  0  0  0  0
 23 24  1  0  0  0  0
 24 21  1  0  0  0  0
 25  2  1  0  0  0  0
 26 25  1  0  0  0  0
 27 26  1  0  0  0  0
 28 29  2  0  0  0  0
 28 30  1  0  0  0  0
 29 27  1  0  0  0  0
 30 35  1  0  0  0  0
 31 30  2  0  0  0  0
 31 34  1  0  0  0  0
 33 32  1  0  0  0  0
 34 33  1  0  0  0  0
 35 33  1  0  0  0  0
 36 34  2  0  0  0  0
 37 38  1  0  0  0  0
 38 39  2  0  0  0  0
 38 29  1  0  0  0  0
 41 43  2  0  0  0  0
 42 43  1  0  0  0  0
 43 40  1  0  0  0  0
 43 37  1  0  0  0  0
M  END
>  <MODEL>
9

>  <REMARK>
 VINA RESULT:      -7.4      1.358      1.912
  Name = 
  14 active torsions:
  status: ('A' for Active; 'I' for Inactive)
    1  A    between atoms: O_1  and  C_24
    2  A    between atoms: O_1  and  C_35
    3  A    between atoms: C_2  and  N_14
    4  A    between atoms: C_4  and  C_43
    5  A    between atoms: C_6  and  C_29
    6  A    between atoms: C_9  and  C_29
    7  A    between atoms: C_13  and  C_30
    8  A    between atoms: C_17  and  C_22
    9  A    between atoms: C_19  and  C_25
   10  A    between atoms: C_22  and  C_30
   11  A    between atoms: C_24  and  C_36
   12  A    between atoms: C_25  and  C_29
   13  A    between atoms: N_33  and  P_38
   14  A    between atoms: C_35  and  C_43
                            x       y       z     vdW  Elec       q    Type
                         _______ _______ _______ _____ _____    ______ ____

>  <TORSDO>
F 14

$$$$
