=
 OpenBabel11062415423D

 34 39  0  0  1  0  0  0  0  0999 V2000
  188.7300  179.1170  137.0090 N   0  0  0  0  0  2  0  0  0  0  0  0
  185.5490  178.2970  139.5760 C   0  0  0  0  0  0  0  0  0  0  0  0
  187.7710  178.7670  137.8010 C   0  0  0  0  0  0  0  0  0  0  0  0
  188.0720  178.4760  139.2440 C   0  0  1  0  0  3  0  0  0  0  0  0
  186.8390  178.4860  140.1130 C   0  0  0  0  0  0  0  0  0  0  0  0
  186.9970  178.5990  141.4990 C   0  0  0  0  0  3  0  0  0  0  0  0
  184.4410  178.2300  140.4330 C   0  0  0  0  0  3  0  0  0  0  0  0
  184.6110  178.3480  141.8140 C   0  0  0  0  0  3  0  0  0  0  0  0
  184.2470  177.9480  137.6160 O   0  0  0  0  0  0  0  0  0  0  0  0
  185.3710  178.2210  138.1170 C   0  0  0  0  0  0  0  0  0  0  0  0
  185.8860  178.5360  142.3510 C   0  0  0  0  0  0  0  0  0  0  0  0
  186.4770  178.4950  137.2590 N   0  0  0  0  0  2  0  0  0  0  0  0
  186.1170  177.9520  146.5970 C   0  0  1  0  0  3  0  0  0  0  0  0
  184.6900  178.6520  144.5490 C   0  0  1  0  0  3  0  0  0  0  0  0
  183.9670  179.9710  144.3350 C   0  0  0  0  0  1  0  0  0  0  0  0
  186.8350  177.5950  144.3100 O   0  0  0  0  0  0  0  0  0  0  0  0
  186.0490  178.6500  143.8340 C   0  0  1  0  0  3  0  0  0  0  0  0
  187.2640  178.0050  145.5800 C   0  0  2  0  0  3  0  0  0  0  0  0
  185.5800  179.2480  146.7350 O   0  0  0  0  0  0  0  0  0  0  0  0
  184.7670  178.3220  146.0550 C   0  0  2  0  0  3  0  0  0  0  0  0
  189.4450  176.9130  144.9470 C   0  0  0  0  0  3  0  0  0  0  0  0
  189.1010  177.8020  147.2790 C   0  0  0  0  0  2  0  0  0  0  0  0
  190.3330  176.9930  147.6580 C   0  0  0  0  0  2  0  0  0  0  0  0
  188.4480  177.1670  146.0530 C   0  0  1  0  0  3  0  0  0  0  0  0
  191.6030  176.5320  144.1030 O   0  0  0  0  0  1  0  0  0  0  0  0
  191.3620  177.0550  146.5280 C   0  0  0  0  0  2  0  0  0  0  0  0
  190.7590  176.8080  145.1690 C   0  0  0  0  0  0  0  0  0  0  0  0
  188.7330  177.1840  139.3490 N   0  0  0  0  0  2  0  0  0  0  0  0
  191.1710  176.7670  139.2940 C   0  0  1  0  0  3  0  0  0  0  0  0
  190.0180  177.4130  139.9990 C   0  0  2  0  0  3  0  0  0  0  0  0
  190.5520  176.1780  140.4140 O   0  0  0  0  0  0  0  0  0  0  0  0
  190.5730  174.7680  138.1160 O   0  0  0  0  0  1  0  0  0  0  0  0
  190.8210  176.0000  138.0530 C   0  0  0  0  0  0  0  0  0  0  0  0
  190.8080  176.6430  136.8220 O   0  0  0  0  0  0  0  0  0  0  0  0
  1  3  2  0  0  0  0
  2  5  2  0  0  0  0
  2  7  1  0  0  0  0
  3  4  1  0  0  0  0
  4 28  1  6  0  0  0
  4  5  1  0  0  0  0
  5  6  1  0  0  0  0
  6 11  2  0  0  0  0
  7  8  2  0  0  0  0
  8 11  1  0  0  0  0
  9 10  2  0  0  0  0
 10  2  1  0  0  0  0
 12  3  1  0  0  0  0
 12 10  1  0  0  0  0
 13 19  1  1  0  0  0
 14 15  1  1  0  0  0
 14 20  1  0  0  0  0
 17 11  1  6  0  0  0
 17 16  1  0  0  0  0
 17 14  1  0  0  0  0
 18 16  1  6  0  0  0
 18 24  1  0  0  0  0
 18 13  1  0  0  0  0
 20 13  1  0  0  0  0
 20 19  1  1  0  0  0
 21 27  2  0  0  0  0
 22 23  1  0  0  0  0
 24 21  1  6  0  0  0
 24 22  1  0  0  0  0
 25 27  1  0  0  0  0
 26 23  1  0  0  0  0
 27 26  1  0  0  0  0
 29 33  1  6  0  0  0
 29 30  1  0  0  0  0
 29 31  1  0  0  0  0
 30 28  1  6  0  0  0
 30 31  1  0  0  0  0
 33 32  1  0  0  0  0
 34 33  2  0  0  0  0
M  END
>  <MODEL>
1

>  <REMARK>
 VINA RESULT:      -9.6      0.000      0.000
  Name = 
  5 active torsions:
  status: ('A' for Active; 'I' for Inactive)
    1  A    between atoms: C_3  and  C_19
    2  A    between atoms: C_11  and  N_17
    3  A    between atoms: N_17  and  C_23
    4  A    between atoms: C_20  and  C_32
    5  A    between atoms: C_21  and  C_24
                            x       y       z     vdW  Elec       q    Type
                         _______ _______ _______ _____ _____    ______ ____

>  <TORSDO>
F 5

$$$$
=
 OpenBabel11062415423D

 34 39  0  0  1  0  0  0  0  0999 V2000
  190.3590  175.6860  137.3770 N   0  0  0  0  0  2  0  0  0  0  0  0
  191.7620  177.2470  140.9790 C   0  0  0  0  0  0  0  0  0  0  0  0
  190.7630  176.2590  138.4620 C   0  0  0  0  0  0  0  0  0  0  0  0
  189.7620  176.6260  139.5220 C   0  0  1  0  0  3  0  0  0  0  0  0
  190.4010  176.8980  140.8610 C   0  0  0  0  0  0  0  0  0  0  0  0
  189.5920  176.8860  142.0030 C   0  0  0  0  0  3  0  0  0  0  0  0
  192.2910  177.5730  142.2370 C   0  0  0  0  0  3  0  0  0  0  0  0
  191.4750  177.5550  143.3690 C   0  0  0  0  0  3  0  0  0  0  0  0
  193.8190  177.6270  139.8460 O   0  0  0  0  0  0  0  0  0  0  0  0
  192.6270  177.2190  139.7890 C   0  0  0  0  0  0  0  0  0  0  0  0
  190.1260  177.2080  143.2580 C   0  0  0  0  0  0  0  0  0  0  0  0
  192.1210  176.6900  138.5640 N   0  0  0  0  0  2  0  0  0  0  0  0
  187.8370  178.1200  146.7720 C   0  0  1  0  0  3  0  0  0  0  0  0
  190.1040  177.3790  145.7570 C   0  0  1  0  0  3  0  0  0  0  0  0
  190.8850  176.1140  146.0700 C   0  0  0  0  0  1  0  0  0  0  0  0
  188.3110  178.2230  144.3980 O   0  0  0  0  0  0  0  0  0  0  0  0
  189.2660  177.2040  144.4830 C   0  0  1  0  0  3  0  0  0  0  0  0
  187.3330  177.8840  145.3430 C   0  0  2  0  0  3  0  0  0  0  0  0
  188.2830  176.8910  147.2980 O   0  0  0  0  0  0  0  0  0  0  0  0
  189.2910  177.8240  146.9920 C   0  0  2  0  0  3  0  0  0  0  0  0
  185.5730  178.5280  143.6580 C   0  0  0  0  0  3  0  0  0  0  0  0
  184.9600  178.2320  146.0830 C   0  0  0  0  0  2  0  0  0  0  0  0
  183.6610  178.9460  145.7350 C   0  0  0  0  0  2  0  0  0  0  0  0
  186.0390  178.6530  145.0890 C   0  0  1  0  0  3  0  0  0  0  0  0
  183.9360  178.4400  141.9760 O   0  0  0  0  0  1  0  0  0  0  0  0
  183.1820  178.5060  144.3510 C   0  0  0  0  0  2  0  0  0  0  0  0
  184.2800  178.5160  143.3180 C   0  0  0  0  0  0  0  0  0  0  0  0
  189.0110  177.7960  139.0930 N   0  0  0  0  0  2  0  0  0  0  0  0
  186.8560  177.7690  137.8770 C   0  0  1  0  0  3  0  0  0  0  0  0
  187.5980  177.4360  139.1350 C   0  0  2  0  0  3  0  0  0  0  0  0
  186.8210  178.6030  139.0120 O   0  0  0  0  0  0  0  0  0  0  0  0
  188.2060  177.7050  135.8980 O   0  0  0  0  0  0  0  0  0  0  0  0
  187.6740  178.4100  136.7950 C   0  0  0  0  0  0  0  0  0  0  0  0
  187.8790  179.7840  136.8030 O   0  0  0  0  0  1  0  0  0  0  0  0
  1  3  2  0  0  0  0
  2  7  1  0  0  0  0
  3 12  1  0  0  0  0
  3  4  1  0  0  0  0
  4 28  1  6  0  0  0
  4  5  1  0  0  0  0
  5  2  2  0  0  0  0
  5  6  1  0  0  0  0
  6 11  2  0  0  0  0
  7  8  2  0  0  0  0
 10  9  2  0  0  0  0
 10  2  1  0  0  0  0
 11  8  1  0  0  0  0
 12 10  1  0  0  0  0
 13 20  1  0  0  0  0
 13 19  1  1  0  0  0
 14 15  1  1  0  0  0
 14 20  1  0  0  0  0
 16 17  1  0  0  0  0
 17 11  1  6  0  0  0
 17 14  1  0  0  0  0
 18 16  1  6  0  0  0
 18 13  1  0  0  0  0
 20 19  1  1  0  0  0
 23 22  1  0  0  0  0
 24 21  1  6  0  0  0
 24 18  1  0  0  0  0
 24 22  1  0  0  0  0
 25 27  1  0  0  0  0
 26 23  1  0  0  0  0
 27 21  2  0  0  0  0
 27 26  1  0  0  0  0
 29 33  1  6  0  0  0
 29 31  1  0  0  0  0
 29 30  1  0  0  0  0
 30 28  1  6  0  0  0
 31 30  1  0  0  0  0
 32 33  2  0  0  0  0
 33 34  1  0  0  0  0
M  END
>  <MODEL>
2

>  <REMARK>
 VINA RESULT:      -9.1      2.070      5.355
  Name = 
  5 active torsions:
  status: ('A' for Active; 'I' for Inactive)
    1  A    between atoms: C_3  and  C_19
    2  A    between atoms: C_11  and  N_17
    3  A    between atoms: N_17  and  C_23
    4  A    between atoms: C_20  and  C_32
    5  A    between atoms: C_21  and  C_24
                            x       y       z     vdW  Elec       q    Type
                         _______ _______ _______ _____ _____    ______ ____

>  <TORSDO>
F 5

$$$$
=
 OpenBabel11062415423D

 34 39  0  0  1  0  0  0  0  0999 V2000
  188.8330  176.4040  146.9790 N   0  0  0  0  0  2  0  0  0  0  0  0
  185.7700  178.7840  145.4520 C   0  0  0  0  0  0  0  0  0  0  0  0
  187.9540  177.2090  146.4820 C   0  0  0  0  0  0  0  0  0  0  0  0
  187.7960  177.3040  144.9900 C   0  0  1  0  0  3  0  0  0  0  0  0
  186.4950  177.9480  144.5780 C   0  0  0  0  0  0  0  0  0  0  0  0
  186.0490  177.7740  143.2640 C   0  0  0  0  0  3  0  0  0  0  0  0
  184.6100  179.4270  144.9960 C   0  0  0  0  0  3  0  0  0  0  0  0
  184.1730  179.2440  143.6830 C   0  0  0  0  0  3  0  0  0  0  0  0
  185.6440  179.7580  147.6180 O   0  0  0  0  0  0  0  0  0  0  0  0
  186.2100  178.9370  146.8480 C   0  0  0  0  0  0  0  0  0  0  0  0
  184.8870  178.4140  142.8140 C   0  0  0  0  0  0  0  0  0  0  0  0
  187.2680  178.1190  147.3450 N   0  0  0  0  0  2  0  0  0  0  0  0
  183.7850  178.8040  138.6850 C   0  0  1  0  0  3  0  0  0  0  0  0
  183.0770  178.9680  141.1730 C   0  0  1  0  0  3  0  0  0  0  0  0
  181.9320  178.2400  141.8560 C   0  0  0  0  0  1  0  0  0  0  0  0
  185.3740  178.7100  140.5120 O   0  0  0  0  0  0  0  0  0  0  0  0
  184.4080  178.2370  141.4080 C   0  0  1  0  0  3  0  0  0  0  0  0
  185.0340  178.1390  139.2770 C   0  0  2  0  0  3  0  0  0  0  0  0
  182.6670  177.9970  138.9780 O   0  0  0  0  0  0  0  0  0  0  0  0
  182.7440  179.2120  139.6850 C   0  0  2  0  0  3  0  0  0  0  0  0
  187.5390  178.2070  139.0090 C   0  0  0  0  0  3  0  0  0  0  0  0
  186.1030  177.1080  137.2550 C   0  0  0  0  0  2  0  0  0  0  0  0
  187.3370  177.1550  136.3630 C   0  0  0  0  0  2  0  0  0  0  0  0
  186.2050  178.2150  138.3010 C   0  0  1  0  0  3  0  0  0  0  0  0
  189.8290  177.7160  139.1810 O   0  0  0  0  0  1  0  0  0  0  0  0
  188.5880  176.8640  137.1940 C   0  0  0  0  0  2  0  0  0  0  0  0
  188.6310  177.6430  138.4840 C   0  0  0  0  0  0  0  0  0  0  0  0
  188.9110  178.0560  144.4330 N   0  0  0  0  0  2  0  0  0  0  0  0
  190.9850  177.1910  143.3990 C   0  0  1  0  0  3  0  0  0  0  0  0
  189.4880  177.2420  143.3710 C   0  0  2  0  0  3  0  0  0  0  0  0
  190.2790  178.0580  142.5410 O   0  0  0  0  0  0  0  0  0  0  0  0
  192.0130  179.1620  144.2950 O   0  0  0  0  0  0  0  0  0  0  0  0
  191.6370  177.9780  144.4980 C   0  0  0  0  0  0  0  0  0  0  0  0
  191.8630  177.3860  145.7330 O   0  0  0  0  0  1  0  0  0  0  0  0
  2 10  1  0  0  0  0
  3  1  2  0  0  0  0
  3 12  1  0  0  0  0
  4 28  1  1  0  0  0
  4  3  1  0  0  0  0
  5  4  1  0  0  0  0
  5  2  2  0  0  0  0
  6  5  1  0  0  0  0
  7  2  1  0  0  0  0
  8  7  2  0  0  0  0
 10 12  1  0  0  0  0
 10  9  2  0  0  0  0
 11  6  2  0  0  0  0
 11  8  1  0  0  0  0
 13 19  1  6  0  0  0
 13 18  1  0  0  0  0
 13 20  1  0  0  0  0
 14 17  1  0  0  0  0
 14 15  1  6  0  0  0
 16 17  1  0  0  0  0
 17 11  1  1  0  0  0
 18 16  1  1  0  0  0
 20 19  1  6  0  0  0
 20 14  1  0  0  0  0
 23 26  1  0  0  0  0
 23 22  1  0  0  0  0
 24 22  1  6  0  0  0
 24 21  1  0  0  0  0
 24 18  1  0  0  0  0
 26 27  1  0  0  0  0
 27 21  2  0  0  0  0
 27 25  1  0  0  0  0
 29 33  1  1  0  0  0
 30 29  1  0  0  0  0
 30 28  1  1  0  0  0
 31 30  1  0  0  0  0
 31 29  1  0  0  0  0
 32 33  2  0  0  0  0
 33 34  1  0  0  0  0
M  END
>  <MODEL>
3

>  <REMARK>
 VINA RESULT:      -9.1      2.682      6.971
  Name = 
  5 active torsions:
  status: ('A' for Active; 'I' for Inactive)
    1  A    between atoms: C_3  and  C_19
    2  A    between atoms: C_11  and  N_17
    3  A    between atoms: N_17  and  C_23
    4  A    between atoms: C_20  and  C_32
    5  A    between atoms: C_21  and  C_24
                            x       y       z     vdW  Elec       q    Type
                         _______ _______ _______ _____ _____    ______ ____

>  <TORSDO>
F 5

$$$$
=
 OpenBabel11062415423D

 34 39  0  0  1  0  0  0  0  0999 V2000
  181.1560  176.0480  138.4990 N   0  0  0  0  0  2  0  0  0  0  0  0
  184.6270  178.0980  139.5650 C   0  0  0  0  0  0  0  0  0  0  0  0
  182.1790  176.7670  138.8240 C   0  0  0  0  0  0  0  0  0  0  0  0
  182.2950  177.3000  140.2240 C   0  0  1  0  0  3  0  0  0  0  0  0
  183.6920  177.7550  140.5650 C   0  0  0  0  0  0  0  0  0  0  0  0
  184.0320  177.9220  141.9110 C   0  0  0  0  0  3  0  0  0  0  0  0
  185.8850  178.5960  139.9320 C   0  0  0  0  0  3  0  0  0  0  0  0
  186.2150  178.7550  141.2780 C   0  0  0  0  0  3  0  0  0  0  0  0
  185.0630  178.2780  137.2340 O   0  0  0  0  0  0  0  0  0  0  0  0
  184.2900  177.8830  138.1490 C   0  0  0  0  0  0  0  0  0  0  0  0
  185.2930  178.4160  142.2720 C   0  0  0  0  0  0  0  0  0  0  0  0
  183.0910  177.1890  137.8080 N   0  0  0  0  0  2  0  0  0  0  0  0
  186.0840  178.0520  146.4750 C   0  0  1  0  0  3  0  0  0  0  0  0
  184.4140  178.6990  144.6010 C   0  0  1  0  0  3  0  0  0  0  0  0
  183.7130  180.0330  144.4100 C   0  0  0  0  0  1  0  0  0  0  0  0
  186.4700  177.5430  144.1370 O   0  0  0  0  0  0  0  0  0  0  0  0
  185.6620  178.6030  143.7100 C   0  0  1  0  0  3  0  0  0  0  0  0
  187.0820  178.0030  145.3110 C   0  0  2  0  0  3  0  0  0  0  0  0
  185.6160  179.3750  146.6070 O   0  0  0  0  0  0  0  0  0  0  0  0
  184.6860  178.4480  146.0990 C   0  0  2  0  0  3  0  0  0  0  0  0
  189.3340  177.1440  144.5760 C   0  0  0  0  0  3  0  0  0  0  0  0
  188.8720  177.5660  147.0160 C   0  0  0  0  0  2  0  0  0  0  0  0
  190.1310  176.7550  147.2890 C   0  0  0  0  0  2  0  0  0  0  0  0
  188.2920  177.1430  145.6680 C   0  0  1  0  0  3  0  0  0  0  0  0
  191.5340  177.0200  143.7640 O   0  0  0  0  0  1  0  0  0  0  0  0
  191.1910  177.0710  146.2320 C   0  0  0  0  0  2  0  0  0  0  0  0
  190.6440  177.0560  144.8280 C   0  0  0  0  0  0  0  0  0  0  0  0
  181.3640  178.4050  140.4000 N   0  0  0  0  0  2  0  0  0  0  0  0
  179.2460  178.8050  141.6130 C   0  0  1  0  0  3  0  0  0  0  0  0
  180.1040  177.8350  140.8600 C   0  0  2  0  0  3  0  0  0  0  0  0
  180.0690  177.8670  142.2670 O   0  0  0  0  0  0  0  0  0  0  0  0
  180.4090  180.5090  142.8330 O   0  0  0  0  0  1  0  0  0  0  0  0
  179.8160  180.1840  141.7710 C   0  0  0  0  0  0  0  0  0  0  0  0
  179.6560  181.1200  140.7570 O   0  0  0  0  0  0  0  0  0  0  0  0
  1  3  2  0  0  0  0
  2  7  2  0  0  0  0
  2  5  1  0  0  0  0
  3  4  1  0  0  0  0
  4 28  1  6  0  0  0
  4  5  1  0  0  0  0
  5  6  2  0  0  0  0
  6 11  1  0  0  0  0
  7  8  1  0  0  0  0
  8 11  2  0  0  0  0
  9 10  2  0  0  0  0
 10  2  1  0  0  0  0
 12 10  1  0  0  0  0
 12  3  1  0  0  0  0
 13 19  1  1  0  0  0
 14 15  1  1  0  0  0
 14 20  1  0  0  0  0
 17 11  1  6  0  0  0
 17 16  1  0  0  0  0
 17 14  1  0  0  0  0
 18 16  1  6  0  0  0
 18 24  1  0  0  0  0
 18 13  1  0  0  0  0
 20 13  1  0  0  0  0
 20 19  1  1  0  0  0
 21 27  2  0  0  0  0
 22 23  1  0  0  0  0
 24 21  1  6  0  0  0
 24 22  1  0  0  0  0
 25 27  1  0  0  0  0
 26 23  1  0  0  0  0
 27 26  1  0  0  0  0
 29 33  1  1  0  0  0
 29 31  1  0  0  0  0
 30 28  1  1  0  0  0
 30 29  1  0  0  0  0
 30 31  1  0  0  0  0
 33 32  1  0  0  0  0
 34 33  2  0  0  0  0
M  END
>  <MODEL>
4

>  <REMARK>
 VINA RESULT:      -8.9      2.990      5.638
  Name = 
  5 active torsions:
  status: ('A' for Active; 'I' for Inactive)
    1  A    between atoms: C_3  and  C_19
    2  A    between atoms: C_11  and  N_17
    3  A    between atoms: N_17  and  C_23
    4  A    between atoms: C_20  and  C_32
    5  A    between atoms: C_21  and  C_24
                            x       y       z     vdW  Elec       q    Type
                         _______ _______ _______ _____ _____    ______ ____

>  <TORSDO>
F 5

$$$$
=
 OpenBabel11062415423D

 34 39  0  0  1  0  0  0  0  0999 V2000
  180.2100  179.4300  139.5920 N   0  0  0  0  0  2  0  0  0  0  0  0
  182.2850  178.8080  143.1540 C   0  0  0  0  0  0  0  0  0  0  0  0
  180.8310  179.1400  140.6860 C   0  0  0  0  0  0  0  0  0  0  0  0
  182.2030  178.5300  140.6190 C   0  0  1  0  0  3  0  0  0  0  0  0
  182.9530  178.6270  141.9250 C   0  0  0  0  0  0  0  0  0  0  0  0
  184.3390  178.4450  141.9160 C   0  0  0  0  0  3  0  0  0  0  0  0
  183.0160  178.8080  144.3500 C   0  0  0  0  0  3  0  0  0  0  0  0
  184.4010  178.6280  144.3290 C   0  0  0  0  0  3  0  0  0  0  0  0
  180.1960  179.1010  144.2530 O   0  0  0  0  0  0  0  0  0  0  0  0
  180.8310  179.0430  143.1660 C   0  0  0  0  0  0  0  0  0  0  0  0
  185.0670  178.4510  143.1140 C   0  0  0  0  0  0  0  0  0  0  0  0
  180.1410  179.2420  141.9340 N   0  0  0  0  0  2  0  0  0  0  0  0
  189.1090  177.0850  142.6450 C   0  0  1  0  0  3  0  0  0  0  0  0
  186.9690  177.1590  144.1070 C   0  0  1  0  0  3  0  0  0  0  0  0
  186.8470  177.6540  145.5380 C   0  0  0  0  0  1  0  0  0  0  0  0
  186.9840  177.9130  141.8250 O   0  0  0  0  0  0  0  0  0  0  0  0
  186.5500  178.2510  143.1120 C   0  0  1  0  0  3  0  0  0  0  0  0
  188.3650  178.1530  141.8330 C   0  0  2  0  0  3  0  0  0  0  0  0
  189.3580  177.5960  143.9350 O   0  0  0  0  0  0  0  0  0  0  0  0
  188.3810  176.5860  143.8590 C   0  0  2  0  0  3  0  0  0  0  0  0
  189.9100  177.1370  140.1210 C   0  0  0  0  0  3  0  0  0  0  0  0
  187.7710  178.2530  139.3970 C   0  0  0  0  0  2  0  0  0  0  0  0
  188.3560  178.2320  137.9910 C   0  0  0  0  0  2  0  0  0  0  0  0
  188.9130  178.2330  140.4110 C   0  0  1  0  0  3  0  0  0  0  0  0
  191.0140  175.6110  138.7180 O   0  0  0  0  0  1  0  0  0  0  0  0
  189.1230  176.9280  137.7680 C   0  0  0  0  0  2  0  0  0  0  0  0
  190.0430  176.5830  138.9110 C   0  0  0  0  0  0  0  0  0  0  0  0
  182.0930  177.1340  140.2220 N   0  0  0  0  0  2  0  0  0  0  0  0
  182.0320  176.1810  137.9400 C   0  0  1  0  0  3  0  0  0  0  0  0
  182.7850  176.9960  138.9470 C   0  0  2  0  0  3  0  0  0  0  0  0
  183.0700  175.6360  138.7210 O   0  0  0  0  0  0  0  0  0  0  0  0
  180.6270  174.4890  138.8930 O   0  0  0  0  0  1  0  0  0  0  0  0
  180.7080  175.6460  138.4020 C   0  0  0  0  0  0  0  0  0  0  0  0
  179.5610  176.4140  138.2540 O   0  0  0  0  0  0  0  0  0  0  0  0
  1  3  2  0  0  0  0
  2 10  1  0  0  0  0
  2  7  1  0  0  0  0
  3 12  1  0  0  0  0
  4 28  1  1  0  0  0
  4  3  1  0  0  0  0
  4  5  1  0  0  0  0
  5  2  2  0  0  0  0
  6  5  1  0  0  0  0
  6 11  2  0  0  0  0
  8  7  2  0  0  0  0
 10  9  2  0  0  0  0
 11  8  1  0  0  0  0
 12 10  1  0  0  0  0
 13 20  1  0  0  0  0
 13 19  1  1  0  0  0
 14 15  1  1  0  0  0
 16 17  1  0  0  0  0
 17 11  1  6  0  0  0
 17 14  1  0  0  0  0
 18 16  1  6  0  0  0
 18 13  1  0  0  0  0
 20 19  1  1  0  0  0
 20 14  1  0  0  0  0
 21 24  1  0  0  0  0
 23 22  1  0  0  0  0
 24 22  1  6  0  0  0
 24 18  1  0  0  0  0
 25 27  1  0  0  0  0
 26 23  1  0  0  0  0
 26 27  1  0  0  0  0
 27 21  2  0  0  0  0
 29 33  1  1  0  0  0
 29 31  1  0  0  0  0
 29 30  1  0  0  0  0
 30 28  1  1  0  0  0
 31 30  1  0  0  0  0
 33 32  1  0  0  0  0
 34 33  2  0  0  0  0
M  END
>  <MODEL>
5

>  <REMARK>
 VINA RESULT:      -8.7      3.248      6.598
  Name = 
  5 active torsions:
  status: ('A' for Active; 'I' for Inactive)
    1  A    between atoms: C_3  and  C_19
    2  A    between atoms: C_11  and  N_17
    3  A    between atoms: N_17  and  C_23
    4  A    between atoms: C_20  and  C_32
    5  A    between atoms: C_21  and  C_24
                            x       y       z     vdW  Elec       q    Type
                         _______ _______ _______ _____ _____    ______ ____

>  <TORSDO>
F 5

$$$$
=
 OpenBabel11062415423D

 34 39  0  0  1  0  0  0  0  0999 V2000
  180.6280  179.5980  138.8830 N   0  0  0  0  0  2  0  0  0  0  0  0
  182.2840  179.0040  142.6630 C   0  0  0  0  0  0  0  0  0  0  0  0
  181.1060  179.3210  140.0510 C   0  0  0  0  0  0  0  0  0  0  0  0
  182.3710  178.5160  140.1610 C   0  0  1  0  0  3  0  0  0  0  0  0
  183.0160  178.6200  141.5200 C   0  0  0  0  0  0  0  0  0  0  0  0
  184.3550  178.2400  141.6570 C   0  0  0  0  0  3  0  0  0  0  0  0
  182.9060  179.0050  143.9200 C   0  0  0  0  0  3  0  0  0  0  0  0
  184.2440  178.6280  144.0440 C   0  0  0  0  0  3  0  0  0  0  0  0
  180.1800  179.6920  143.5340 O   0  0  0  0  0  0  0  0  0  0  0  0
  180.8870  179.4460  142.5200 C   0  0  0  0  0  0  0  0  0  0  0  0
  184.9740  178.2480  142.9140 C   0  0  0  0  0  0  0  0  0  0  0  0
  180.3390  179.6310  141.2160 N   0  0  0  0  0  2  0  0  0  0  0  0
  189.1530  177.8850  143.8220 C   0  0  1  0  0  3  0  0  0  0  0  0
  187.3250  178.6590  142.1540 C   0  0  1  0  0  3  0  0  0  0  0  0
  187.1630  178.2400  140.7030 C   0  0  0  0  0  1  0  0  0  0  0  0
  186.8020  177.9860  144.4020 O   0  0  0  0  0  0  0  0  0  0  0  0
  186.4050  177.8370  143.0680 C   0  0  1  0  0  3  0  0  0  0  0  0
  187.9660  177.2130  144.5220 C   0  0  2  0  0  3  0  0  0  0  0  0
  189.3090  177.3030  142.5480 O   0  0  0  0  0  0  0  0  0  0  0  0
  188.8150  178.6210  142.5580 C   0  0  2  0  0  3  0  0  0  0  0  0
  189.7700  176.8150  146.2350 C   0  0  0  0  0  3  0  0  0  0  0  0
  187.6370  177.9860  146.8880 C   0  0  0  0  0  2  0  0  0  0  0  0
  188.0600  177.7330  148.3280 C   0  0  0  0  0  2  0  0  0  0  0  0
  188.2860  176.9350  145.9890 C   0  0  1  0  0  3  0  0  0  0  0  0
  191.7120  177.0220  147.5400 O   0  0  0  0  0  1  0  0  0  0  0  0
  189.5730  177.9100  148.4630 C   0  0  0  0  0  2  0  0  0  0  0  0
  190.3460  177.2060  147.3770 C   0  0  0  0  0  0  0  0  0  0  0  0
  182.0830  177.1210  139.8630 N   0  0  0  0  0  2  0  0  0  0  0  0
  182.1500  175.9110  137.7050 C   0  0  1  0  0  3  0  0  0  0  0  0
  182.8840  176.7580  138.7000 C   0  0  2  0  0  3  0  0  0  0  0  0
  183.0300  175.3580  138.6570 O   0  0  0  0  0  0  0  0  0  0  0  0
  179.7950  176.3550  137.7450 O   0  0  0  0  0  0  0  0  0  0  0  0
  180.7320  175.5770  138.0640 C   0  0  0  0  0  0  0  0  0  0  0  0
  180.4530  174.4230  138.7850 O   0  0  0  0  0  1  0  0  0  0  0  0
  1  3  2  0  0  0  0
  2  7  1  0  0  0  0
  3  4  1  0  0  0  0
  3 12  1  0  0  0  0
  4 28  1  1  0  0  0
  4  5  1  0  0  0  0
  5  6  1  0  0  0  0
  5  2  2  0  0  0  0
  6 11  2  0  0  0  0
  7  8  2  0  0  0  0
 10  2  1  0  0  0  0
 10  9  2  0  0  0  0
 11  8  1  0  0  0  0
 12 10  1  0  0  0  0
 13 19  1  6  0  0  0
 13 18  1  0  0  0  0
 14 15  1  6  0  0  0
 14 20  1  0  0  0  0
 14 17  1  0  0  0  0
 17 11  1  1  0  0  0
 17 16  1  0  0  0  0
 18 16  1  1  0  0  0
 18 24  1  0  0  0  0
 20 19  1  6  0  0  0
 20 13  1  0  0  0  0
 21 27  2  0  0  0  0
 22 23  1  0  0  0  0
 23 26  1  0  0  0  0
 24 21  1  6  0  0  0
 24 22  1  0  0  0  0
 27 25  1  0  0  0  0
 27 26  1  0  0  0  0
 29 33  1  1  0  0  0
 29 31  1  0  0  0  0
 29 30  1  0  0  0  0
 30 28  1  1  0  0  0
 31 30  1  0  0  0  0
 32 33  2  0  0  0  0
 33 34  1  0  0  0  0
M  END
>  <MODEL>
6

>  <REMARK>
 VINA RESULT:      -8.6      3.217      5.706
  Name = 
  5 active torsions:
  status: ('A' for Active; 'I' for Inactive)
    1  A    between atoms: C_3  and  C_19
    2  A    between atoms: C_11  and  N_17
    3  A    between atoms: N_17  and  C_23
    4  A    between atoms: C_20  and  C_32
    5  A    between atoms: C_21  and  C_24
                            x       y       z     vdW  Elec       q    Type
                         _______ _______ _______ _____ _____    ______ ____

>  <TORSDO>
F 5

$$$$
=
 OpenBabel11062415423D

 34 39  0  0  1  0  0  0  0  0999 V2000
  187.4340  177.8480  134.5940 N   0  0  0  0  0  2  0  0  0  0  0  0
  184.3520  176.4410  137.0240 C   0  0  0  0  0  0  0  0  0  0  0  0
  186.5460  177.3520  135.3890 C   0  0  0  0  0  0  0  0  0  0  0  0
  186.4980  177.8050  136.8220 C   0  0  1  0  0  3  0  0  0  0  0  0
  185.1950  177.4660  137.5010 C   0  0  0  0  0  0  0  0  0  0  0  0
  184.8650  178.1330  138.6860 C   0  0  0  0  0  3  0  0  0  0  0  0
  183.1920  176.1060  137.7370 C   0  0  0  0  0  3  0  0  0  0  0  0
  182.8710  176.7800  138.9160 C   0  0  0  0  0  3  0  0  0  0  0  0
  183.9950  174.7780  135.3610 O   0  0  0  0  0  0  0  0  0  0  0  0
  184.6720  175.7660  135.7560 C   0  0  0  0  0  0  0  0  0  0  0  0
  183.7020  177.7970  139.3930 C   0  0  0  0  0  0  0  0  0  0  0  0
  185.7380  176.2590  134.9460 N   0  0  0  0  0  2  0  0  0  0  0  0
  182.7240  178.9540  143.4080 C   0  0  1  0  0  3  0  0  0  0  0  0
  181.8870  178.2350  141.0620 C   0  0  1  0  0  3  0  0  0  0  0  0
  180.9300  178.9880  140.1540 C   0  0  0  0  0  1  0  0  0  0  0  0
  184.2020  178.0920  141.6920 O   0  0  0  0  0  0  0  0  0  0  0  0
  183.3450  178.5020  140.6640 C   0  0  1  0  0  3  0  0  0  0  0  0
  184.0710  179.0730  142.6850 C   0  0  2  0  0  3  0  0  0  0  0  0
  181.8310  179.8890  142.8480 O   0  0  0  0  0  0  0  0  0  0  0  0
  181.5700  178.5410  142.5420 C   0  0  2  0  0  3  0  0  0  0  0  0
  184.7550  179.0520  145.1110 C   0  0  0  0  0  3  0  0  0  0  0  0
  186.0950  177.7740  143.4030 C   0  0  0  0  0  2  0  0  0  0  0  0
  187.1770  177.6830  144.4710 C   0  0  0  0  0  2  0  0  0  0  0  0
  185.2280  179.0010  143.6780 C   0  0  1  0  0  3  0  0  0  0  0  0
  184.9030  178.5370  147.3980 O   0  0  0  0  0  1  0  0  0  0  0  0
  186.5340  177.4710  145.8420 C   0  0  0  0  0  2  0  0  0  0  0  0
  185.3780  178.4030  146.1000 C   0  0  0  0  0  0  0  0  0  0  0  0
  187.6030  177.2040  137.5550 N   0  0  0  0  0  2  0  0  0  0  0  0
  189.3270  178.6030  138.6470 C   0  0  1  0  0  3  0  0  0  0  0  0
  188.7620  178.0690  137.3670 C   0  0  2  0  0  3  0  0  0  0  0  0
  188.4570  179.3600  137.8370 O   0  0  0  0  0  0  0  0  0  0  0  0
  187.6720  178.8620  140.3620 O   0  0  0  0  0  0  0  0  0  0  0  0
  188.6160  178.1710  139.8970 C   0  0  0  0  0  0  0  0  0  0  0  0
  189.0260  177.0250  140.5640 O   0  0  0  0  0  1  0  0  0  0  0  0
  1  3  2  0  0  0  0
  2  5  2  0  0  0  0
  2  7  1  0  0  0  0
  3  4  1  0  0  0  0
  4  5  1  0  0  0  0
  4 28  1  1  0  0  0
  5  6  1  0  0  0  0
  6 11  2  0  0  0  0
  7  8  2  0  0  0  0
  8 11  1  0  0  0  0
  9 10  2  0  0  0  0
 10  2  1  0  0  0  0
 12  3  1  0  0  0  0
 12 10  1  0  0  0  0
 13 19  1  6  0  0  0
 14 15  1  6  0  0  0
 14 20  1  0  0  0  0
 17 11  1  6  0  0  0
 17 14  1  0  0  0  0
 17 16  1  0  0  0  0
 18 16  1  6  0  0  0
 18 13  1  0  0  0  0
 18 24  1  0  0  0  0
 20 19  1  6  0  0  0
 20 13  1  0  0  0  0
 21 27  2  0  0  0  0
 22 23  1  0  0  0  0
 23 26  1  0  0  0  0
 24 22  1  1  0  0  0
 24 21  1  0  0  0  0
 26 27  1  0  0  0  0
 27 25  1  0  0  0  0
 29 33  1  1  0  0  0
 30 28  1  1  0  0  0
 30 31  1  0  0  0  0
 30 29  1  0  0  0  0
 31 29  1  0  0  0  0
 33 32  2  0  0  0  0
 33 34  1  0  0  0  0
M  END
>  <MODEL>
7

>  <REMARK>
 VINA RESULT:      -8.4      2.485      4.285
  Name = 
  5 active torsions:
  status: ('A' for Active; 'I' for Inactive)
    1  A    between atoms: C_3  and  C_19
    2  A    between atoms: C_11  and  N_17
    3  A    between atoms: N_17  and  C_23
    4  A    between atoms: C_20  and  C_32
    5  A    between atoms: C_21  and  C_24
                            x       y       z     vdW  Elec       q    Type
                         _______ _______ _______ _____ _____    ______ ____

>  <TORSDO>
F 5

$$$$
=
 OpenBabel11062415423D

 34 39  0  0  1  0  0  0  0  0999 V2000
  189.6270  177.2930  135.0160 N   0  0  0  0  0  2  0  0  0  0  0  0
  187.6920  178.0580  138.6290 C   0  0  0  0  0  0  0  0  0  0  0  0
  188.9860  177.4390  136.1280 C   0  0  0  0  0  0  0  0  0  0  0  0
  189.4960  176.7650  137.3710 C   0  0  1  0  0  3  0  0  0  0  0  0
  188.9070  177.3420  138.6340 C   0  0  0  0  0  0  0  0  0  0  0  0
  189.5450  177.0800  139.8510 C   0  0  0  0  0  3  0  0  0  0  0  0
  187.1400  178.5020  139.8390 C   0  0  0  0  0  3  0  0  0  0  0  0
  187.7880  178.2370  141.0470 C   0  0  0  0  0  3  0  0  0  0  0  0
  185.9010  178.9180  137.3200 O   0  0  0  0  0  0  0  0  0  0  0  0
  187.0380  178.3740  137.3480 C   0  0  0  0  0  0  0  0  0  0  0  0
  188.9930  177.5300  141.0580 C   0  0  0  0  0  0  0  0  0  0  0  0
  187.7150  178.0920  136.1250 N   0  0  0  0  0  2  0  0  0  0  0  0
  190.6810  177.6080  145.0030 C   0  0  1  0  0  3  0  0  0  0  0  0
  191.0260  177.9590  142.4580 C   0  0  1  0  0  3  0  0  0  0  0  0
  192.0530  177.2850  141.5640 C   0  0  0  0  0  1  0  0  0  0  0  0
  188.8460  177.6520  143.4220 O   0  0  0  0  0  0  0  0  0  0  0  0
  189.6680  177.2480  142.3630 C   0  0  1  0  0  3  0  0  0  0  0  0
  189.3530  176.9900  144.5480 C   0  0  2  0  0  3  0  0  0  0  0  0
  191.7370  176.8260  144.4920 O   0  0  0  0  0  0  0  0  0  0  0  0
  191.5720  178.0900  143.8960 C   0  0  2  0  0  3  0  0  0  0  0  0
  188.9580  177.3730  147.0080 C   0  0  0  0  0  3  0  0  0  0  0  0
  187.1420  177.8780  145.3360 C   0  0  0  0  0  2  0  0  0  0  0  0
  186.1990  177.9330  146.5310 C   0  0  0  0  0  2  0  0  0  0  0  0
  188.3350  176.9920  145.6860 C   0  0  1  0  0  3  0  0  0  0  0  0
  188.9250  178.3240  149.1550 O   0  0  0  0  0  1  0  0  0  0  0  0
  186.9050  178.5910  147.7180 C   0  0  0  0  0  2  0  0  0  0  0  0
  188.2930  178.0500  147.9500 C   0  0  0  0  0  0  0  0  0  0  0  0
  189.2050  175.3410  137.3020 N   0  0  0  0  0  2  0  0  0  0  0  0
  190.4630  173.5210  136.1940 C   0  0  1  0  0  3  0  0  0  0  0  0
  190.4830  174.6490  137.1800 C   0  0  2  0  0  3  0  0  0  0  0  0
  190.3220  173.3090  137.5790 O   0  0  0  0  0  0  0  0  0  0  0  0
  188.7500  174.0880  134.6160 O   0  0  0  0  0  0  0  0  0  0  0  0
  189.1510  173.2900  135.5040 C   0  0  0  0  0  0  0  0  0  0  0  0
  188.3560  172.2120  135.8720 O   0  0  0  0  0  1  0  0  0  0  0  0
  1  3  2  0  0  0  0
  2  5  2  0  0  0  0
  2  7  1  0  0  0  0
  3  4  1  0  0  0  0
  4 28  1  6  0  0  0
  4  5  1  0  0  0  0
  5  6  1  0  0  0  0
  6 11  2  0  0  0  0
  7  8  2  0  0  0  0
  8 11  1  0  0  0  0
  9 10  2  0  0  0  0
 10  2  1  0  0  0  0
 12  3  1  0  0  0  0
 12 10  1  0  0  0  0
 13 19  1  6  0  0  0
 14 15  1  6  0  0  0
 14 20  1  0  0  0  0
 17 11  1  6  0  0  0
 17 14  1  0  0  0  0
 17 16  1  0  0  0  0
 18 16  1  6  0  0  0
 18 13  1  0  0  0  0
 18 24  1  0  0  0  0
 20 19  1  6  0  0  0
 20 13  1  0  0  0  0
 21 27  2  0  0  0  0
 22 23  1  0  0  0  0
 23 26  1  0  0  0  0
 24 22  1  6  0  0  0
 24 21  1  0  0  0  0
 26 27  1  0  0  0  0
 27 25  1  0  0  0  0
 29 33  1  6  0  0  0
 29 30  1  0  0  0  0
 29 31  1  0  0  0  0
 30 28  1  6  0  0  0
 30 31  1  0  0  0  0
 32 33  2  0  0  0  0
 33 34  1  0  0  0  0
M  END
>  <MODEL>
8

>  <REMARK>
 VINA RESULT:      -8.3      2.126      4.172
  Name = 
  5 active torsions:
  status: ('A' for Active; 'I' for Inactive)
    1  A    between atoms: C_3  and  C_19
    2  A    between atoms: C_11  and  N_17
    3  A    between atoms: N_17  and  C_23
    4  A    between atoms: C_20  and  C_32
    5  A    between atoms: C_21  and  C_24
                            x       y       z     vdW  Elec       q    Type
                         _______ _______ _______ _____ _____    ______ ____

>  <TORSDO>
F 5

$$$$
=
 OpenBabel11062415423D

 34 39  0  0  1  0  0  0  0  0999 V2000
  188.9230  176.6930  145.2350 N   0  0  0  0  0  2  0  0  0  0  0  0
  185.2630  178.6690  144.9490 C   0  0  0  0  0  0  0  0  0  0  0  0
  187.8390  177.3840  145.1120 C   0  0  0  0  0  0  0  0  0  0  0  0
  187.2270  177.5660  143.7510 C   0  0  1  0  0  3  0  0  0  0  0  0
  185.7920  178.0260  143.8100 C   0  0  0  0  0  0  0  0  0  0  0  0
  184.9960  177.8840  142.6690 C   0  0  0  0  0  3  0  0  0  0  0  0
  183.9480  179.1540  144.9260 C   0  0  0  0  0  3  0  0  0  0  0  0
  183.1620  179.0040  143.7820 C   0  0  0  0  0  3  0  0  0  0  0  0
  185.6740  179.4450  147.1600 O   0  0  0  0  0  0  0  0  0  0  0  0
  186.0820  178.7840  146.1670 C   0  0  0  0  0  0  0  0  0  0  0  0
  183.6800  178.3650  142.6530 C   0  0  0  0  0  0  0  0  0  0  0  0
  187.3360  178.1080  146.2380 N   0  0  0  0  0  2  0  0  0  0  0  0
  181.5980  178.7880  138.9230 C   0  0  1  0  0  3  0  0  0  0  0  0
  181.6070  179.1550  141.4890 C   0  0  1  0  0  3  0  0  0  0  0  0
  180.5860  178.6540  142.4960 C   0  0  0  0  0  1  0  0  0  0  0  0
  183.5800  178.4950  140.2870 O   0  0  0  0  0  0  0  0  0  0  0  0
  182.8250  178.2220  141.4330 C   0  0  1  0  0  3  0  0  0  0  0  0
  182.8430  177.9460  139.2270 C   0  0  2  0  0  3  0  0  0  0  0  0
  180.4880  178.1910  139.5540 O   0  0  0  0  0  0  0  0  0  0  0  0
  180.9330  179.3990  140.1220 C   0  0  2  0  0  3  0  0  0  0  0  0
  185.0720  178.4250  138.1530 C   0  0  0  0  0  3  0  0  0  0  0  0
  183.8110  176.3220  137.5770 C   0  0  0  0  0  2  0  0  0  0  0  0
  184.7620  176.1980  136.3950 C   0  0  0  0  0  2  0  0  0  0  0  0
  183.7120  177.7910  137.9820 C   0  0  1  0  0  3  0  0  0  0  0  0
  187.3800  178.6010  137.7520 O   0  0  0  0  0  1  0  0  0  0  0  0
  186.1670  176.6350  136.8120 C   0  0  0  0  0  2  0  0  0  0  0  0
  186.1750  177.9330  137.5800 C   0  0  0  0  0  0  0  0  0  0  0  0
  188.0160  178.5240  142.9910 N   0  0  0  0  0  2  0  0  0  0  0  0
  188.9000  177.5200  140.9090 C   0  0  1  0  0  3  0  0  0  0  0  0
  187.7760  178.2510  141.5790 C   0  0  2  0  0  3  0  0  0  0  0  0
  188.7470  178.9170  140.8080 O   0  0  0  0  0  0  0  0  0  0  0  0
  190.2510  176.0200  142.2000 O   0  0  0  0  0  1  0  0  0  0  0  0
  190.0730  177.1960  141.7870 C   0  0  0  0  0  0  0  0  0  0  0  0
  190.9450  178.2030  142.1770 O   0  0  0  0  0  0  0  0  0  0  0  0
  2 10  1  0  0  0  0
  3  1  2  0  0  0  0
  3 12  1  0  0  0  0
  4 28  1  6  0  0  0
  4  5  1  0  0  0  0
  4  3  1  0  0  0  0
  5  2  2  0  0  0  0
  6  5  1  0  0  0  0
  7  2  1  0  0  0  0
  8  7  2  0  0  0  0
 10 12  1  0  0  0  0
 10  9  2  0  0  0  0
 11  6  2  0  0  0  0
 11  8  1  0  0  0  0
 13 18  1  0  0  0  0
 13 19  1  1  0  0  0
 13 20  1  0  0  0  0
 14 15  1  1  0  0  0
 16 17  1  0  0  0  0
 17 14  1  0  0  0  0
 17 11  1  1  0  0  0
 18 16  1  1  0  0  0
 20 19  1  1  0  0  0
 20 14  1  0  0  0  0
 23 26  1  0  0  0  0
 23 22  1  0  0  0  0
 24 22  1  1  0  0  0
 24 21  1  0  0  0  0
 24 18  1  0  0  0  0
 26 27  1  0  0  0  0
 27 25  1  0  0  0  0
 27 21  2  0  0  0  0
 29 30  1  0  0  0  0
 29 33  1  1  0  0  0
 30 28  1  1  0  0  0
 31 29  1  0  0  0  0
 31 30  1  0  0  0  0
 33 34  2  0  0  0  0
 33 32  1  0  0  0  0
M  END
>  <MODEL>
9

>  <REMARK>
 VINA RESULT:      -8.1      2.744      6.936
  Name = 
  5 active torsions:
  status: ('A' for Active; 'I' for Inactive)
    1  A    between atoms: C_3  and  C_19
    2  A    between atoms: C_11  and  N_17
    3  A    between atoms: N_17  and  C_23
    4  A    between atoms: C_20  and  C_32
    5  A    between atoms: C_21  and  C_24
                            x       y       z     vdW  Elec       q    Type
                         _______ _______ _______ _____ _____    ______ ____

>  <TORSDO>
F 5

$$$$
