=
 OpenBabel11062413063D

 40 43  0  0  1  0  0  0  0  0999 V2000
  190.5580  177.0370  139.0570 C   0  0  0  0  0  0  0  0  0  0  0  0
  188.6890  178.5820  139.3670 N   0  0  0  0  0  0  0  0  0  0  0  0
  190.4010  176.6750  140.4290 N   0  0  0  0  0  2  0  0  0  0  0  0
  191.6250  176.7040  138.4130 N   0  0  0  0  0  2  0  0  0  0  0  0
  188.5070  178.1990  140.6020 C   0  0  0  0  0  0  0  0  0  0  0  0
  189.4780  177.8320  138.3840 C   0  0  2  0  0  3  0  0  0  0  0  0
  189.1370  176.9320  141.1120 C   0  0  0  0  0  2  0  0  0  0  0  0
  187.9950  174.7230  136.8290 C   0  0  0  0  0  2  0  0  0  0  0  0
  188.6150  176.9680  137.5840 N   0  0  0  0  0  0  0  0  0  0  0  0
  187.2900  177.4240  137.2820 C   0  0  0  0  0  3  0  0  0  0  0  0
  186.8770  175.3540  136.0010 C   0  0  0  0  0  2  0  0  0  0  0  0
  189.1270  175.7290  136.9930 C   0  0  0  0  0  2  0  0  0  0  0  0
  186.4390  176.6760  136.5670 C   0  0  0  0  0  0  0  0  0  0  0  0
  185.1200  177.1480  136.2520 N   0  0  0  0  0  2  0  0  0  0  0  0
  182.5910  176.6490  139.6670 C   0  0  0  0  0  2  0  0  0  0  0  0
  182.5390  177.9820  138.9230 C   0  0  2  0  0  3  0  0  0  0  0  0
  183.7920  178.1550  138.0670 C   0  0  0  0  0  2  0  0  0  0  0  0
  182.6940  175.4960  138.6720 C   0  0  0  0  0  2  0  0  0  0  0  0
  183.9290  176.9910  137.0850 C   0  0  2  0  0  3  0  0  0  0  0  0
  183.9470  175.6480  137.8160 C   0  0  0  0  0  2  0  0  0  0  0  0
  181.3550  179.7820  139.4270 C   0  0  0  0  0  1  0  0  0  0  0  0
  182.4530  179.0280  139.8430 O   0  0  0  0  0  0  0  0  0  0  0  0
  187.7030  178.9430  141.4690 O   0  0  0  0  0  0  0  0  0  0  0  0
  186.2800  178.9430  141.3970 C   0  0  0  0  0  2  0  0  0  0  0  0
  185.6800  178.0930  142.5130 C   0  0  0  0  0  2  0  0  0  0  0  0
  184.2150  178.4380  142.7490 C   0  0  0  0  0  2  0  0  0  0  0  0
  182.7530  178.7830  144.6780 C   0  0  0  0  0  2  0  0  0  0  0  0
  183.9770  178.8740  144.1600 C   0  0  0  0  0  0  0  0  0  0  0  0
  185.1360  179.2500  145.0310 C   0  0  0  0  0  2  0  0  0  0  0  0
  184.9460  178.7420  146.4520 C   0  0  0  0  0  2  0  0  0  0  0  0
  186.2920  178.5520  147.1260 C   0  0  0  0  0  2  0  0  0  0  0  0
  187.0520  177.4170  146.4410 C   0  0  0  0  0  2  0  0  0  0  0  0
  188.3050  177.6350  148.4410 C   0  0  0  0  0  1  0  0  0  0  0  0
  188.3430  177.1130  147.0770 N   0  0  0  0  0  0  0  0  0  0  0  0
  191.5660  176.7840  145.3060 N   0  0  0  0  0  2  0  0  0  0  0  0
  190.2990  178.5070  144.0900 C   0  0  0  0  0  2  0  0  0  0  0  0
  191.6600  178.0880  144.6560 C   0  0  0  0  0  2  0  0  0  0  0  0
  189.4630  177.7210  146.3370 C   0  0  2  0  0  3  0  0  0  0  0  0
  189.1370  177.8530  144.8430 C   0  0  0  0  0  2  0  0  0  0  0  0
  190.7680  176.9060  146.5310 C   0  0  0  0  0  2  0  0  0  0  0  0
  1  3  1  0  0  0  0
  2  5  2  0  0  0  0
  3  7  1  0  0  0  0
  4  1  2  0  0  0  0
  5  7  1  0  0  0  0
  5 23  1  0  0  0  0
  6  9  1  1  0  0  0
  6  1  1  0  0  0  0
  6  2  1  0  0  0  0
  8 12  1  0  0  0  0
 10  9  1  0  0  0  0
 11 13  1  0  0  0  0
 11  8  1  0  0  0  0
 12  9  1  0  0  0  0
 13 10  2  0  0  0  0
 14 13  1  0  0  0  0
 16 15  1  0  0  0  0
 16 22  1  1  0  0  0
 17 16  1  0  0  0  0
 18 15  1  0  0  0  0
 19 14  1  1  0  0  0
 19 20  1  0  0  0  0
 19 17  1  0  0  0  0
 20 18  1  0  0  0  0
 21 22  1  0  0  0  0
 24 23  1  0  0  0  0
 24 25  1  0  0  0  0
 25 26  1  0  0  0  0
 26 28  1  0  0  0  0
 28 27  2  0  0  0  0
 28 29  1  0  0  0  0
 29 30  1  0  0  0  0
 30 31  1  0  0  0  0
 32 34  1  0  0  0  0
 32 31  1  0  0  0  0
 34 33  1  0  0  0  0
 35 40  1  0  0  0  0
 36 37  1  0  0  0  0
 36 39  1  0  0  0  0
 37 35  1  0  0  0  0
 38 40  1  0  0  0  0
 38 34  1  1  0  0  0
 39 38  1  0  0  0  0
M  END
>  <MODEL>
1

>  <REMARK>
 VINA RESULT:      -8.0      0.000      0.000
  Name = 
  15 active torsions:
  status: ('A' for Active; 'I' for Inactive)
    1  A    between atoms: C_2  and  C_12
    2  A    between atoms: C_2  and  C_39
    3  A    between atoms: O_4  and  C_11
    4  A    between atoms: O_4  and  C_24
    5  A    between atoms: N_9  and  C_29
    6  A    between atoms: N_10  and  C_19
    7  A    between atoms: N_10  and  C_25
    8  A    between atoms: C_11  and  C_30
    9  A    between atoms: C_12  and  C_37
   10  A    between atoms: C_15  and  O_33
   11  A    between atoms: C_19  and  C_37
   12  A    between atoms: C_27  and  C_30
   13  A    between atoms: C_27  and  C_39
   14  A    between atoms: C_32  and  N_40
   15  A    between atoms: C_35  and  N_40
                            x       y       z     vdW  Elec       q    Type
                         _______ _______ _______ _____ _____    ______ ____

>  <TORSDO>
F 15

$$$$
=
 OpenBabel11062413063D

 40 43  0  0  1  0  0  0  0  0999 V2000
  190.7120  177.0520  138.3550 C   0  0  0  0  0  0  0  0  0  0  0  0
  189.0490  178.7220  139.0040 N   0  0  0  0  0  0  0  0  0  0  0  0
  190.4490  176.4020  139.5980 N   0  0  0  0  0  2  0  0  0  0  0  0
  191.7530  176.7360  137.6620 N   0  0  0  0  0  2  0  0  0  0  0  0
  188.7650  178.0870  140.1100 C   0  0  0  0  0  0  0  0  0  0  0  0
  189.7760  178.1240  137.8790 C   0  0  2  0  0  3  0  0  0  0  0  0
  189.2000  176.6620  140.3090 C   0  0  0  0  0  2  0  0  0  0  0  0
  188.3680  176.0510  135.0500 C   0  0  0  0  0  2  0  0  0  0  0  0
  188.8440  177.6000  136.8850 N   0  0  0  0  0  0  0  0  0  0  0  0
  187.4400  177.6920  137.1580 C   0  0  0  0  0  3  0  0  0  0  0  0
  186.9560  176.6270  134.9830 C   0  0  0  0  0  2  0  0  0  0  0  0
  189.3190  177.1130  135.5880 C   0  0  0  0  0  2  0  0  0  0  0  0
  186.5280  177.2170  136.2990 C   0  0  0  0  0  0  0  0  0  0  0  0
  185.1220  177.3290  136.5700 N   0  0  0  0  0  2  0  0  0  0  0  0
  183.1230  173.5650  136.1970 C   0  0  0  0  0  2  0  0  0  0  0  0
  183.9840  173.8020  137.4370 C   0  0  2  0  0  3  0  0  0  0  0  0
  184.9610  174.9500  137.1870 C   0  0  0  0  0  2  0  0  0  0  0  0
  182.3460  174.8310  135.8470 C   0  0  0  0  0  2  0  0  0  0  0  0
  184.2000  176.2200  136.8030 C   0  0  2  0  0  3  0  0  0  0  0  0
  183.3080  175.9850  135.5840 C   0  0  0  0  0  2  0  0  0  0  0  0
  186.0330  172.9740  137.5260 C   0  0  0  0  0  1  0  0  0  0  0  0
  184.6950  172.6410  137.7420 O   0  0  0  0  0  0  0  0  0  0  0  0
  188.0270  178.7090  141.1200 O   0  0  0  0  0  0  0  0  0  0  0  0
  186.6030  178.7320  141.1370 C   0  0  0  0  0  2  0  0  0  0  0  0
  186.0710  178.4260  142.5330 C   0  0  0  0  0  2  0  0  0  0  0  0
  184.5740  178.6910  142.6300 C   0  0  0  0  0  2  0  0  0  0  0  0
  182.8900  178.7910  144.4000 C   0  0  0  0  0  2  0  0  0  0  0  0
  184.1590  178.9770  144.0380 C   0  0  0  0  0  0  0  0  0  0  0  0
  185.1940  179.3050  145.0690 C   0  0  0  0  0  2  0  0  0  0  0  0
  184.9470  178.5420  146.3620 C   0  0  0  0  0  2  0  0  0  0  0  0
  186.2410  178.3890  147.1380 C   0  0  0  0  0  2  0  0  0  0  0  0
  187.1570  177.4020  146.4160 C   0  0  0  0  0  2  0  0  0  0  0  0
  188.4330  177.9650  148.3330 C   0  0  0  0  0  1  0  0  0  0  0  0
  188.4690  177.2450  147.0620 N   0  0  0  0  0  0  0  0  0  0  0  0
  191.5360  176.7100  145.0750 N   0  0  0  0  0  2  0  0  0  0  0  0
  190.2460  178.4310  143.8800 C   0  0  0  0  0  2  0  0  0  0  0  0
  191.6300  177.9810  144.3620 C   0  0  0  0  0  2  0  0  0  0  0  0
  189.5530  177.7750  146.2150 C   0  0  2  0  0  3  0  0  0  0  0  0
  189.1210  177.8570  144.7450 C   0  0  0  0  0  2  0  0  0  0  0  0
  190.8370  176.9170  146.3490 C   0  0  0  0  0  2  0  0  0  0  0  0
  1  3  1  0  0  0  0
  2  5  2  0  0  0  0
  3  7  1  0  0  0  0
  4  1  2  0  0  0  0
  5  7  1  0  0  0  0
  5 23  1  0  0  0  0
  6  9  1  6  0  0  0
  6  1  1  0  0  0  0
  6  2  1  0  0  0  0
  8 12  1  0  0  0  0
  9 10  1  0  0  0  0
 11  8  1  0  0  0  0
 11 13  1  0  0  0  0
 12  9  1  0  0  0  0
 13 14  1  0  0  0  0
 13 10  2  0  0  0  0
 15 16  1  0  0  0  0
 16 22  1  6  0  0  0
 17 16  1  0  0  0  0
 18 15  1  0  0  0  0
 19 14  1  6  0  0  0
 19 17  1  0  0  0  0
 20 18  1  0  0  0  0
 20 19  1  0  0  0  0
 21 22  1  0  0  0  0
 23 24  1  0  0  0  0
 24 25  1  0  0  0  0
 25 26  1  0  0  0  0
 26 28  1  0  0  0  0
 28 27  2  0  0  0  0
 28 29  1  0  0  0  0
 29 30  1  0  0  0  0
 30 31  1  0  0  0  0
 32 34  1  0  0  0  0
 32 31  1  0  0  0  0
 34 33  1  0  0  0  0
 35 40  1  0  0  0  0
 36 37  1  0  0  0  0
 36 39  1  0  0  0  0
 37 35  1  0  0  0  0
 38 40  1  0  0  0  0
 38 34  1  1  0  0  0
 39 38  1  0  0  0  0
M  END
>  <MODEL>
2

>  <REMARK>
 VINA RESULT:      -7.5      1.645      2.299
  Name = 
  15 active torsions:
  status: ('A' for Active; 'I' for Inactive)
    1  A    between atoms: C_2  and  C_12
    2  A    between atoms: C_2  and  C_39
    3  A    between atoms: O_4  and  C_11
    4  A    between atoms: O_4  and  C_24
    5  A    between atoms: N_9  and  C_29
    6  A    between atoms: N_10  and  C_19
    7  A    between atoms: N_10  and  C_25
    8  A    between atoms: C_11  and  C_30
    9  A    between atoms: C_12  and  C_37
   10  A    between atoms: C_15  and  O_33
   11  A    between atoms: C_19  and  C_37
   12  A    between atoms: C_27  and  C_30
   13  A    between atoms: C_27  and  C_39
   14  A    between atoms: C_32  and  N_40
   15  A    between atoms: C_35  and  N_40
                            x       y       z     vdW  Elec       q    Type
                         _______ _______ _______ _____ _____    ______ ____

>  <TORSDO>
F 15

$$$$
=
 OpenBabel11062413063D

 40 43  0  0  1  0  0  0  0  0999 V2000
  191.2710  177.1630  145.5530 C   0  0  0  0  0  0  0  0  0  0  0  0
  189.5410  176.7830  143.8690 N   0  0  0  0  0  0  0  0  0  0  0  0
  191.7680  178.2050  144.7130 N   0  0  0  0  0  2  0  0  0  0  0  0
  191.9890  176.7130  146.5260 N   0  0  0  0  0  2  0  0  0  0  0  0
  189.9600  177.7800  143.1360 C   0  0  0  0  0  0  0  0  0  0  0  0
  189.9160  176.5830  145.2730 C   0  0  2  0  0  3  0  0  0  0  0  0
  190.9010  178.8060  143.7040 C   0  0  0  0  0  2  0  0  0  0  0  0
  188.2950  178.0520  148.3540 C   0  0  0  0  0  2  0  0  0  0  0  0
  188.9090  177.1570  146.1610 N   0  0  0  0  0  0  0  0  0  0  0  0
  187.8190  177.8790  145.5730 C   0  0  0  0  0  3  0  0  0  0  0  0
  186.8830  178.2810  147.8220 C   0  0  0  0  0  2  0  0  0  0  0  0
  188.9350  176.8930  147.6010 C   0  0  0  0  0  2  0  0  0  0  0  0
  186.8680  178.4450  146.3270 C   0  0  0  0  0  0  0  0  0  0  0  0
  185.7690  179.1510  145.7310 N   0  0  0  0  0  2  0  0  0  0  0  0
  182.9100  178.8980  142.5570 C   0  0  0  0  0  2  0  0  0  0  0  0
  184.3110  178.3380  142.3090 C   0  0  2  0  0  3  0  0  0  0  0  0
  185.2950  178.9180  143.3240 C   0  0  0  0  0  2  0  0  0  0  0  0
  182.4490  178.5530  143.9700 C   0  0  0  0  0  2  0  0  0  0  0  0
  184.8310  178.6100  144.7490 C   0  0  2  0  0  3  0  0  0  0  0  0
  183.4170  179.1350  144.9970 C   0  0  0  0  0  2  0  0  0  0  0  0
  186.1100  178.8060  141.1100 C   0  0  0  0  0  1  0  0  0  0  0  0
  184.7240  178.6670  141.0180 O   0  0  0  0  0  0  0  0  0  0  0  0
  189.5210  177.9300  141.8180 O   0  0  0  0  0  0  0  0  0  0  0  0
  190.1280  177.2560  140.7180 C   0  0  0  0  0  2  0  0  0  0  0  0
  189.7310  177.9070  139.3970 C   0  0  0  0  0  2  0  0  0  0  0  0
  188.8910  176.9670  138.5440 C   0  0  0  0  0  2  0  0  0  0  0  0
  188.8590  178.7880  136.9130 C   0  0  0  0  0  2  0  0  0  0  0  0
  188.2820  177.6820  137.3790 C   0  0  0  0  0  0  0  0  0  0  0  0
  187.1350  177.0630  136.6410 C   0  0  0  0  0  2  0  0  0  0  0  0
  185.8010  177.5480  137.1880 C   0  0  0  0  0  2  0  0  0  0  0  0
  184.6670  177.0900  136.2900 C   0  0  0  0  0  2  0  0  0  0  0  0
  183.3550  177.1120  137.0730 C   0  0  0  0  0  2  0  0  0  0  0  0
  183.1570  174.9320  137.9840 C   0  0  0  0  0  1  0  0  0  0  0  0
  183.4070  176.3330  138.3200 N   0  0  0  0  0  0  0  0  0  0  0  0
  180.4430  178.3820  139.1270 N   0  0  0  0  0  2  0  0  0  0  0  0
  180.2070  176.3080  140.4290 C   0  0  0  0  0  2  0  0  0  0  0  0
  180.0740  177.8350  140.4290 C   0  0  0  0  0  2  0  0  0  0  0  0
  182.4040  176.8030  139.2910 C   0  0  2  0  0  3  0  0  0  0  0  0
  181.2300  175.8200  139.4000 C   0  0  0  0  0  2  0  0  0  0  0  0
  181.8870  178.2160  138.9200 C   0  0  0  0  0  2  0  0  0  0  0  0
  1  4  2  0  0  0  0
  2  6  1  0  0  0  0
  3  1  1  0  0  0  0
  5  7  1  0  0  0  0
  5  2  2  0  0  0  0
  6  1  1  0  0  0  0
  6  9  1  1  0  0  0
  7  3  1  0  0  0  0
  9 12  1  0  0  0  0
 10  9  1  0  0  0  0
 10 13  2  0  0  0  0
 11  8  1  0  0  0  0
 12  8  1  0  0  0  0
 13 11  1  0  0  0  0
 14 13  1  0  0  0  0
 15 18  1  0  0  0  0
 16 22  1  6  0  0  0
 16 15  1  0  0  0  0
 16 17  1  0  0  0  0
 17 19  1  0  0  0  0
 18 20  1  0  0  0  0
 19 20  1  0  0  0  0
 19 14  1  1  0  0  0
 22 21  1  0  0  0  0
 23  5  1  0  0  0  0
 24 23  1  0  0  0  0
 25 24  1  0  0  0  0
 26 25  1  0  0  0  0
 27 28  2  0  0  0  0
 28 26  1  0  0  0  0
 29 30  1  0  0  0  0
 29 28  1  0  0  0  0
 31 32  1  0  0  0  0
 31 30  1  0  0  0  0
 32 34  1  0  0  0  0
 33 34  1  0  0  0  0
 35 37  1  0  0  0  0
 36 37  1  0  0  0  0
 38 34  1  6  0  0  0
 38 39  1  0  0  0  0
 39 36  1  0  0  0  0
 40 35  1  0  0  0  0
 40 38  1  0  0  0  0
M  END
>  <MODEL>
3

>  <REMARK>
 VINA RESULT:      -7.4      2.055      8.494
  Name = 
  15 active torsions:
  status: ('A' for Active; 'I' for Inactive)
    1  A    between atoms: C_2  and  C_12
    2  A    between atoms: C_2  and  C_39
    3  A    between atoms: O_4  and  C_11
    4  A    between atoms: O_4  and  C_24
    5  A    between atoms: N_9  and  C_29
    6  A    between atoms: N_10  and  C_19
    7  A    between atoms: N_10  and  C_25
    8  A    between atoms: C_11  and  C_30
    9  A    between atoms: C_12  and  C_37
   10  A    between atoms: C_15  and  O_33
   11  A    between atoms: C_19  and  C_37
   12  A    between atoms: C_27  and  C_30
   13  A    between atoms: C_27  and  C_39
   14  A    between atoms: C_32  and  N_40
   15  A    between atoms: C_35  and  N_40
                            x       y       z     vdW  Elec       q    Type
                         _______ _______ _______ _____ _____    ______ ____

>  <TORSDO>
F 15

$$$$
=
 OpenBabel11062413063D

 40 43  0  0  1  0  0  0  0  0999 V2000
  191.2370  177.1360  145.2690 C   0  0  0  0  0  0  0  0  0  0  0  0
  189.3580  176.9700  143.7150 N   0  0  0  0  0  0  0  0  0  0  0  0
  191.7250  178.2070  144.4620 N   0  0  0  0  0  2  0  0  0  0  0  0
  192.0020  176.5790  146.1460 N   0  0  0  0  0  2  0  0  0  0  0  0
  189.7740  177.9930  143.0180 C   0  0  0  0  0  0  0  0  0  0  0  0
  189.8320  176.6510  145.0660 C   0  0  2  0  0  3  0  0  0  0  0  0
  190.8170  178.9240  143.5720 C   0  0  0  0  0  2  0  0  0  0  0  0
  188.6050  178.2060  148.2840 C   0  0  0  0  0  2  0  0  0  0  0  0
  188.9350  177.2120  146.0720 N   0  0  0  0  0  0  0  0  0  0  0  0
  187.7140  177.8180  145.6280 C   0  0  0  0  0  3  0  0  0  0  0  0
  187.1130  178.3030  147.9740 C   0  0  0  0  0  2  0  0  0  0  0  0
  189.2060  177.0450  147.5020 C   0  0  0  0  0  2  0  0  0  0  0  0
  186.8510  178.3670  146.4950 C   0  0  0  0  0  0  0  0  0  0  0  0
  185.6210  178.9550  146.0460 N   0  0  0  0  0  2  0  0  0  0  0  0
  183.2080  178.9630  142.5120 C   0  0  0  0  0  2  0  0  0  0  0  0
  184.6140  178.3710  142.4210 C   0  0  2  0  0  3  0  0  0  0  0  0
  185.4670  178.8640  143.5880 C   0  0  0  0  0  2  0  0  0  0  0  0
  182.5530  178.5600  143.8310 C   0  0  0  0  0  2  0  0  0  0  0  0
  184.8100  178.4970  144.9200 C   0  0  2  0  0  3  0  0  0  0  0  0
  183.3890  179.0550  145.0070 C   0  0  0  0  0  2  0  0  0  0  0  0
  184.1840  178.6490  140.2690 C   0  0  0  0  0  1  0  0  0  0  0  0
  185.2040  178.7520  141.2160 O   0  0  0  0  0  0  0  0  0  0  0  0
  189.2410  178.2610  141.7550 O   0  0  0  0  0  0  0  0  0  0  0  0
  189.4210  177.3940  140.6380 C   0  0  0  0  0  2  0  0  0  0  0  0
  189.3340  178.1690  139.3280 C   0  0  0  0  0  2  0  0  0  0  0  0
  187.9850  177.9700  138.6520 C   0  0  0  0  0  2  0  0  0  0  0  0
  187.1900  178.4060  136.3810 C   0  0  0  0  0  2  0  0  0  0  0  0
  188.1260  177.8750  137.1650 C   0  0  0  0  0  0  0  0  0  0  0  0
  189.3920  177.3390  136.5690 C   0  0  0  0  0  2  0  0  0  0  0  0
  189.3100  175.8350  136.3610 C   0  0  0  0  0  2  0  0  0  0  0  0
  190.1180  175.1120  137.4220 C   0  0  0  0  0  2  0  0  0  0  0  0
  191.4670  174.6920  136.8410 C   0  0  0  0  0  2  0  0  0  0  0  0
  192.5620  176.2780  138.2200 C   0  0  0  0  0  1  0  0  0  0  0  0
  192.5890  174.8880  137.7710 N   0  0  0  0  0  0  0  0  0  0  0  0
  195.6580  176.0380  136.0700 N   0  0  0  0  0  2  0  0  0  0  0  0
  196.3380  174.1430  137.4850 C   0  0  0  0  0  2  0  0  0  0  0  0
  196.4730  174.8280  136.1200 C   0  0  0  0  0  2  0  0  0  0  0  0
  193.8810  174.5930  137.1270 C   0  0  2  0  0  3  0  0  0  0  0  0
  195.0060  174.4740  138.1640 C   0  0  0  0  0  2  0  0  0  0  0  0
  194.2370  175.6690  136.0710 C   0  0  0  0  0  2  0  0  0  0  0  0
  1  4  2  0  0  0  0
  2  6  1  0  0  0  0
  3  1  1  0  0  0  0
  5  7  1  0  0  0  0
  5  2  2  0  0  0  0
  6  1  1  0  0  0  0
  6  9  1  1  0  0  0
  7  3  1  0  0  0  0
  9 12  1  0  0  0  0
 10  9  1  0  0  0  0
 10 13  2  0  0  0  0
 11  8  1  0  0  0  0
 12  8  1  0  0  0  0
 13 11  1  0  0  0  0
 14 13  1  0  0  0  0
 15 18  1  0  0  0  0
 16 22  1  6  0  0  0
 16 15  1  0  0  0  0
 16 17  1  0  0  0  0
 17 19  1  0  0  0  0
 18 20  1  0  0  0  0
 19 20  1  0  0  0  0
 19 14  1  1  0  0  0
 21 22  1  0  0  0  0
 23  5  1  0  0  0  0
 24 23  1  0  0  0  0
 25 24  1  0  0  0  0
 26 25  1  0  0  0  0
 27 28  2  0  0  0  0
 28 26  1  0  0  0  0
 29 28  1  0  0  0  0
 30 29  1  0  0  0  0
 30 31  1  0  0  0  0
 32 31  1  0  0  0  0
 32 34  1  0  0  0  0
 34 33  1  0  0  0  0
 35 40  1  0  0  0  0
 35 37  1  0  0  0  0
 36 39  1  0  0  0  0
 37 36  1  0  0  0  0
 38 34  1  1  0  0  0
 38 39  1  0  0  0  0
 40 38  1  0  0  0  0
M  END
>  <MODEL>
4

>  <REMARK>
 VINA RESULT:      -7.3      2.602      8.315
  Name = 
  15 active torsions:
  status: ('A' for Active; 'I' for Inactive)
    1  A    between atoms: C_2  and  C_12
    2  A    between atoms: C_2  and  C_39
    3  A    between atoms: O_4  and  C_11
    4  A    between atoms: O_4  and  C_24
    5  A    between atoms: N_9  and  C_29
    6  A    between atoms: N_10  and  C_19
    7  A    between atoms: N_10  and  C_25
    8  A    between atoms: C_11  and  C_30
    9  A    between atoms: C_12  and  C_37
   10  A    between atoms: C_15  and  O_33
   11  A    between atoms: C_19  and  C_37
   12  A    between atoms: C_27  and  C_30
   13  A    between atoms: C_27  and  C_39
   14  A    between atoms: C_32  and  N_40
   15  A    between atoms: C_35  and  N_40
                            x       y       z     vdW  Elec       q    Type
                         _______ _______ _______ _____ _____    ______ ____

>  <TORSDO>
F 15

$$$$
=
 OpenBabel11062413063D

 40 43  0  0  1  0  0  0  0  0999 V2000
  191.2000  177.1220  145.3260 C   0  0  0  0  0  0  0  0  0  0  0  0
  189.2220  176.8300  143.9200 N   0  0  0  0  0  0  0  0  0  0  0  0
  191.5980  178.1650  144.4370 N   0  0  0  0  0  2  0  0  0  0  0  0
  192.0430  176.6300  146.1700 N   0  0  0  0  0  2  0  0  0  0  0  0
  189.5570  177.8280  143.1490 C   0  0  0  0  0  0  0  0  0  0  0  0
  189.8000  176.5890  145.2470 C   0  0  2  0  0  3  0  0  0  0  0  0
  190.6080  178.8130  143.5820 C   0  0  0  0  0  2  0  0  0  0  0  0
  188.7610  178.3660  148.4160 C   0  0  0  0  0  2  0  0  0  0  0  0
  188.9590  177.1740  146.2880 N   0  0  0  0  0  0  0  0  0  0  0  0
  187.6460  177.6190  145.9270 C   0  0  0  0  0  3  0  0  0  0  0  0
  187.2430  178.2990  148.2670 C   0  0  0  0  0  2  0  0  0  0  0  0
  189.3910  177.1860  147.6880 C   0  0  0  0  0  2  0  0  0  0  0  0
  186.8270  178.1800  146.8270 C   0  0  0  0  0  0  0  0  0  0  0  0
  185.5050  178.6070  146.4630 N   0  0  0  0  0  2  0  0  0  0  0  0
  183.7620  178.5440  142.5550 C   0  0  0  0  0  2  0  0  0  0  0  0
  183.1100  179.4260  143.6190 C   0  0  2  0  0  3  0  0  0  0  0  0
  183.5480  178.9780  145.0130 C   0  0  0  0  0  2  0  0  0  0  0  0
  185.2820  178.6270  142.6650 C   0  0  0  0  0  2  0  0  0  0  0  0
  185.0720  179.0240  145.1300 C   0  0  2  0  0  3  0  0  0  0  0  0
  185.7370  178.1720  144.0480 C   0  0  0  0  0  2  0  0  0  0  0  0
  181.4950  178.7130  142.2860 C   0  0  0  0  0  1  0  0  0  0  0  0
  181.7210  179.3350  143.5140 O   0  0  0  0  0  0  0  0  0  0  0  0
  188.9280  178.0200  141.9160 O   0  0  0  0  0  0  0  0  0  0  0  0
  189.4760  177.5520  140.6860 C   0  0  0  0  0  2  0  0  0  0  0  0
  189.0210  178.4260  139.5220 C   0  0  0  0  0  2  0  0  0  0  0  0
  187.5960  178.0950  139.1000 C   0  0  0  0  0  2  0  0  0  0  0  0
  188.1880  178.7670  136.8250 C   0  0  0  0  0  2  0  0  0  0  0  0
  187.4830  177.9600  137.6140 C   0  0  0  0  0  0  0  0  0  0  0  0
  186.7140  176.8160  137.0260 C   0  0  0  0  0  2  0  0  0  0  0  0
  186.0150  177.2260  135.7380 C   0  0  0  0  0  2  0  0  0  0  0  0
  184.6930  176.4950  135.6020 C   0  0  0  0  0  2  0  0  0  0  0  0
  184.3440  175.8180  136.9270 C   0  0  0  0  0  2  0  0  0  0  0  0
  182.0020  175.8330  136.5610 C   0  0  0  0  0  1  0  0  0  0  0  0
  183.0540  176.2550  137.4830 N   0  0  0  0  0  0  0  0  0  0  0  0
  181.3520  179.2820  138.7360 N   0  0  0  0  0  2  0  0  0  0  0  0
  183.7580  179.6730  139.0670 C   0  0  0  0  0  2  0  0  0  0  0  0
  182.4210  180.2700  138.6180 C   0  0  0  0  0  2  0  0  0  0  0  0
  183.0110  177.7170  137.6590 C   0  0  2  0  0  3  0  0  0  0  0  0
  183.7900  178.1500  138.9090 C   0  0  0  0  0  2  0  0  0  0  0  0
  181.5500  178.2280  137.7340 C   0  0  0  0  0  2  0  0  0  0  0  0
  1  4  2  0  0  0  0
  2  6  1  0  0  0  0
  3  1  1  0  0  0  0
  5  7  1  0  0  0  0
  5  2  2  0  0  0  0
  6  1  1  0  0  0  0
  6  9  1  1  0  0  0
  7  3  1  0  0  0  0
  9 12  1  0  0  0  0
 10  9  1  0  0  0  0
 10 13  2  0  0  0  0
 11  8  1  0  0  0  0
 12  8  1  0  0  0  0
 13 11  1  0  0  0  0
 14 13  1  0  0  0  0
 15 18  1  0  0  0  0
 15 16  1  0  0  0  0
 16 22  1  1  0  0  0
 16 17  1  0  0  0  0
 17 19  1  0  0  0  0
 18 20  1  0  0  0  0
 19 14  1  1  0  0  0
 20 19  1  0  0  0  0
 21 22  1  0  0  0  0
 23  5  1  0  0  0  0
 24 23  1  0  0  0  0
 25 24  1  0  0  0  0
 26 25  1  0  0  0  0
 27 28  2  0  0  0  0
 28 26  1  0  0  0  0
 29 28  1  0  0  0  0
 30 29  1  0  0  0  0
 31 30  1  0  0  0  0
 31 32  1  0  0  0  0
 32 34  1  0  0  0  0
 33 34  1  0  0  0  0
 37 35  1  0  0  0  0
 37 36  1  0  0  0  0
 38 34  1  1  0  0  0
 38 40  1  0  0  0  0
 38 39  1  0  0  0  0
 39 36  1  0  0  0  0
 40 35  1  0  0  0  0
M  END
>  <MODEL>
5

>  <REMARK>
 VINA RESULT:      -7.3      2.172      8.515
  Name = 
  15 active torsions:
  status: ('A' for Active; 'I' for Inactive)
    1  A    between atoms: C_2  and  C_12
    2  A    between atoms: C_2  and  C_39
    3  A    between atoms: O_4  and  C_11
    4  A    between atoms: O_4  and  C_24
    5  A    between atoms: N_9  and  C_29
    6  A    between atoms: N_10  and  C_19
    7  A    between atoms: N_10  and  C_25
    8  A    between atoms: C_11  and  C_30
    9  A    between atoms: C_12  and  C_37
   10  A    between atoms: C_15  and  O_33
   11  A    between atoms: C_19  and  C_37
   12  A    between atoms: C_27  and  C_30
   13  A    between atoms: C_27  and  C_39
   14  A    between atoms: C_32  and  N_40
   15  A    between atoms: C_35  and  N_40
                            x       y       z     vdW  Elec       q    Type
                         _______ _______ _______ _____ _____    ______ ____

>  <TORSDO>
F 15

$$$$
=
 OpenBabel11062413063D

 40 43  0  0  1  0  0  0  0  0999 V2000
  191.1810  177.1690  145.2080 C   0  0  0  0  0  0  0  0  0  0  0  0
  189.1450  176.9580  143.8720 N   0  0  0  0  0  0  0  0  0  0  0  0
  191.5540  178.2470  144.3500 N   0  0  0  0  0  2  0  0  0  0  0  0
  192.0510  176.6320  145.9950 N   0  0  0  0  0  2  0  0  0  0  0  0
  189.4600  177.9860  143.1320 C   0  0  0  0  0  0  0  0  0  0  0  0
  189.7730  176.6530  145.1630 C   0  0  2  0  0  3  0  0  0  0  0  0
  190.5380  178.9410  143.5660 C   0  0  0  0  0  2  0  0  0  0  0  0
  188.8800  178.2520  148.4680 C   0  0  0  0  0  2  0  0  0  0  0  0
  188.9810  177.1990  146.2610 N   0  0  0  0  0  0  0  0  0  0  0  0
  187.6790  177.7200  145.9640 C   0  0  0  0  0  3  0  0  0  0  0  0
  187.3580  178.2560  148.3540 C   0  0  0  0  0  2  0  0  0  0  0  0
  189.4440  177.1000  147.6470 C   0  0  0  0  0  2  0  0  0  0  0  0
  186.9040  178.2510  146.9200 C   0  0  0  0  0  0  0  0  0  0  0  0
  185.5940  178.7540  146.6190 N   0  0  0  0  0  2  0  0  0  0  0  0
  183.7080  178.2610  142.8100 C   0  0  0  0  0  2  0  0  0  0  0  0
  183.0130  179.1410  143.8480 C   0  0  2  0  0  3  0  0  0  0  0  0
  183.5510  178.8320  145.2440 C   0  0  0  0  0  2  0  0  0  0  0  0
  185.2150  178.5020  142.8420 C   0  0  0  0  0  2  0  0  0  0  0  0
  185.0660  179.0370  145.2860 C   0  0  2  0  0  3  0  0  0  0  0  0
  185.7700  178.1870  144.2280 C   0  0  0  0  0  2  0  0  0  0  0  0
  181.2430  179.2750  142.5270 C   0  0  0  0  0  1  0  0  0  0  0  0
  181.6380  178.9060  143.8140 O   0  0  0  0  0  0  0  0  0  0  0  0
  188.7840  178.2380  141.9350 O   0  0  0  0  0  0  0  0  0  0  0  0
  189.1300  177.6100  140.7040 C   0  0  0  0  0  2  0  0  0  0  0  0
  188.4200  178.2810  139.5330 C   0  0  0  0  0  2  0  0  0  0  0  0
  186.9500  178.5280  139.8410 C   0  0  0  0  0  2  0  0  0  0  0  0
  186.6480  177.8550  137.5100 C   0  0  0  0  0  2  0  0  0  0  0  0
  186.0850  178.2330  138.6560 C   0  0  0  0  0  0  0  0  0  0  0  0
  184.5960  178.1990  138.8100 C   0  0  0  0  0  2  0  0  0  0  0  0
  184.0570  179.5440  139.2730 C   0  0  0  0  0  2  0  0  0  0  0  0
  182.6270  179.7280  138.8040 C   0  0  0  0  0  2  0  0  0  0  0  0
  182.3260  181.2180  138.6490 C   0  0  0  0  0  2  0  0  0  0  0  0
  180.1870  180.3080  139.1100 C   0  0  0  0  0  1  0  0  0  0  0  0
  180.9130  181.5550  138.8800 N   0  0  0  0  0  0  0  0  0  0  0  0
  181.2100  184.0610  136.1850 N   0  0  0  0  0  2  0  0  0  0  0  0
  179.8900  182.2100  135.2450 C   0  0  0  0  0  2  0  0  0  0  0  0
  180.0460  183.7300  135.3680 C   0  0  0  0  0  2  0  0  0  0  0  0
  180.3340  182.2690  137.7280 C   0  0  2  0  0  3  0  0  0  0  0  0
  180.5160  181.4700  136.4300 C   0  0  0  0  0  2  0  0  0  0  0  0
  180.9510  183.6820  137.5790 C   0  0  0  0  0  2  0  0  0  0  0  0
  1  4  2  0  0  0  0
  2  6  1  0  0  0  0
  3  1  1  0  0  0  0
  5  7  1  0  0  0  0
  5  2  2  0  0  0  0
  6  1  1  0  0  0  0
  6  9  1  1  0  0  0
  7  3  1  0  0  0  0
  9 12  1  0  0  0  0
 10  9  1  0  0  0  0
 10 13  2  0  0  0  0
 11  8  1  0  0  0  0
 12  8  1  0  0  0  0
 13 11  1  0  0  0  0
 14 13  1  0  0  0  0
 15 18  1  0  0  0  0
 15 16  1  0  0  0  0
 16 22  1  1  0  0  0
 16 17  1  0  0  0  0
 17 19  1  0  0  0  0
 18 20  1  0  0  0  0
 19 14  1  1  0  0  0
 20 19  1  0  0  0  0
 21 22  1  0  0  0  0
 23  5  1  0  0  0  0
 24 23  1  0  0  0  0
 25 26  1  0  0  0  0
 25 24  1  0  0  0  0
 27 28  2  0  0  0  0
 28 29  1  0  0  0  0
 28 26  1  0  0  0  0
 29 30  1  0  0  0  0
 31 30  1  0  0  0  0
 32 31  1  0  0  0  0
 32 34  1  0  0  0  0
 34 33  1  0  0  0  0
 35 40  1  0  0  0  0
 36 37  1  0  0  0  0
 36 39  1  0  0  0  0
 37 35  1  0  0  0  0
 38 34  1  1  0  0  0
 39 38  1  0  0  0  0
 40 38  1  0  0  0  0
M  END
>  <MODEL>
6

>  <REMARK>
 VINA RESULT:      -7.3      2.711      9.022
  Name = 
  15 active torsions:
  status: ('A' for Active; 'I' for Inactive)
    1  A    between atoms: C_2  and  C_12
    2  A    between atoms: C_2  and  C_39
    3  A    between atoms: O_4  and  C_11
    4  A    between atoms: O_4  and  C_24
    5  A    between atoms: N_9  and  C_29
    6  A    between atoms: N_10  and  C_19
    7  A    between atoms: N_10  and  C_25
    8  A    between atoms: C_11  and  C_30
    9  A    between atoms: C_12  and  C_37
   10  A    between atoms: C_15  and  O_33
   11  A    between atoms: C_19  and  C_37
   12  A    between atoms: C_27  and  C_30
   13  A    between atoms: C_27  and  C_39
   14  A    between atoms: C_32  and  N_40
   15  A    between atoms: C_35  and  N_40
                            x       y       z     vdW  Elec       q    Type
                         _______ _______ _______ _____ _____    ______ ____

>  <TORSDO>
F 15

$$$$
=
 OpenBabel11062413063D

 40 43  0  0  1  0  0  0  0  0999 V2000
  190.6600  177.5240  140.1850 C   0  0  0  0  0  0  0  0  0  0  0  0
  188.8440  178.5370  138.9010 N   0  0  0  0  0  0  0  0  0  0  0  0
  189.7280  177.3640  141.2540 N   0  0  0  0  0  2  0  0  0  0  0  0
  191.9250  177.3890  140.3990 N   0  0  0  0  0  2  0  0  0  0  0  0
  187.9800  178.3280  139.8570 C   0  0  0  0  0  0  0  0  0  0  0  0
  190.1510  177.8760  138.8180 C   0  0  2  0  0  3  0  0  0  0  0  0
  188.2940  177.3800  140.9800 C   0  0  0  0  0  2  0  0  0  0  0  0
  190.7150  174.3710  137.5220 C   0  0  0  0  0  2  0  0  0  0  0  0
  190.0760  176.6920  137.9680 N   0  0  0  0  0  0  0  0  0  0  0  0
  188.9110  176.5170  137.1500 C   0  0  0  0  0  3  0  0  0  0  0  0
  189.8640  174.4220  136.2560 C   0  0  0  0  0  2  0  0  0  0  0  0
  191.2110  175.7730  137.8510 C   0  0  0  0  0  2  0  0  0  0  0  0
  188.7680  175.4470  136.3580 C   0  0  0  0  0  0  0  0  0  0  0  0
  187.6080  175.2880  135.5270 N   0  0  0  0  0  2  0  0  0  0  0  0
  184.1740  174.1410  137.8080 C   0  0  0  0  0  2  0  0  0  0  0  0
  183.9580  175.0170  136.5740 C   0  0  2  0  0  3  0  0  0  0  0  0
  185.2670  175.6970  136.1780 C   0  0  0  0  0  2  0  0  0  0  0  0
  185.2340  173.0820  137.5210 C   0  0  0  0  0  2  0  0  0  0  0  0
  186.3510  174.6510  135.9170 C   0  0  2  0  0  3  0  0  0  0  0  0
  186.5520  173.7460  137.1330 C   0  0  0  0  0  2  0  0  0  0  0  0
  183.7160  177.1600  137.0670 C   0  0  0  0  0  1  0  0  0  0  0  0
  182.9930  175.9860  136.8520 O   0  0  0  0  0  0  0  0  0  0  0  0
  186.7330  178.9600  139.8430 O   0  0  0  0  0  0  0  0  0  0  0  0
  185.5310  178.3100  140.2450 C   0  0  0  0  0  2  0  0  0  0  0  0
  184.8830  179.0420  141.4160 C   0  0  0  0  0  2  0  0  0  0  0  0
  184.4420  178.0720  142.5030 C   0  0  0  0  0  2  0  0  0  0  0  0
  182.7670  179.0270  144.0080 C   0  0  0  0  0  2  0  0  0  0  0  0
  184.0540  178.7920  143.7560 C   0  0  0  0  0  0  0  0  0  0  0  0
  185.0910  179.0950  144.7930 C   0  0  0  0  0  2  0  0  0  0  0  0
  184.6240  178.6770  146.1790 C   0  0  0  0  0  2  0  0  0  0  0  0
  185.7990  178.6250  147.1370 C   0  0  0  0  0  2  0  0  0  0  0  0
  187.0400  178.1260  146.3980 C   0  0  0  0  0  2  0  0  0  0  0  0
  188.3350  178.1180  148.3830 C   0  0  0  0  0  1  0  0  0  0  0  0
  187.9280  177.3070  147.2370 N   0  0  0  0  0  0  0  0  0  0  0  0
  190.6170  177.9840  144.7990 N   0  0  0  0  0  2  0  0  0  0  0  0
  191.6210  176.5600  146.5360 C   0  0  0  0  0  2  0  0  0  0  0  0
  191.5000  176.8440  145.0350 C   0  0  0  0  0  2  0  0  0  0  0  0
  189.1170  176.8630  146.4880 C   0  0  2  0  0  3  0  0  0  0  0  0
  190.3960  177.0480  147.3150 C   0  0  0  0  0  2  0  0  0  0  0  0
  189.2390  177.6110  145.1370 C   0  0  0  0  0  2  0  0  0  0  0  0
  1  4  2  0  0  0  0
  1  3  1  0  0  0  0
  2  5  2  0  0  0  0
  5  7  1  0  0  0  0
  6  9  1  6  0  0  0
  6  2  1  0  0  0  0
  6  1  1  0  0  0  0
  7  3  1  0  0  0  0
  8 12  1  0  0  0  0
 10  9  1  0  0  0  0
 11 13  1  0  0  0  0
 11  8  1  0  0  0  0
 12  9  1  0  0  0  0
 13 10  2  0  0  0  0
 14 13  1  0  0  0  0
 16 22  1  1  0  0  0
 16 15  1  0  0  0  0
 17 16  1  0  0  0  0
 18 15  1  0  0  0  0
 19 14  1  1  0  0  0
 19 17  1  0  0  0  0
 19 20  1  0  0  0  0
 20 18  1  0  0  0  0
 22 21  1  0  0  0  0
 23  5  1  0  0  0  0
 23 24  1  0  0  0  0
 24 25  1  0  0  0  0
 25 26  1  0  0  0  0
 26 28  1  0  0  0  0
 28 27  2  0  0  0  0
 28 29  1  0  0  0  0
 29 30  1  0  0  0  0
 30 31  1  0  0  0  0
 32 31  1  0  0  0  0
 32 34  1  0  0  0  0
 34 33  1  0  0  0  0
 35 37  1  0  0  0  0
 35 40  1  0  0  0  0
 36 39  1  0  0  0  0
 37 36  1  0  0  0  0
 38 34  1  1  0  0  0
 38 39  1  0  0  0  0
 40 38  1  0  0  0  0
M  END
>  <MODEL>
7

>  <REMARK>
 VINA RESULT:      -7.3      1.624      2.297
  Name = 
  15 active torsions:
  status: ('A' for Active; 'I' for Inactive)
    1  A    between atoms: C_2  and  C_12
    2  A    between atoms: C_2  and  C_39
    3  A    between atoms: O_4  and  C_11
    4  A    between atoms: O_4  and  C_24
    5  A    between atoms: N_9  and  C_29
    6  A    between atoms: N_10  and  C_19
    7  A    between atoms: N_10  and  C_25
    8  A    between atoms: C_11  and  C_30
    9  A    between atoms: C_12  and  C_37
   10  A    between atoms: C_15  and  O_33
   11  A    between atoms: C_19  and  C_37
   12  A    between atoms: C_27  and  C_30
   13  A    between atoms: C_27  and  C_39
   14  A    between atoms: C_32  and  N_40
   15  A    between atoms: C_35  and  N_40
                            x       y       z     vdW  Elec       q    Type
                         _______ _______ _______ _____ _____    ______ ____

>  <TORSDO>
F 15

$$$$
=
 OpenBabel11062413063D

 40 43  0  0  1  0  0  0  0  0999 V2000
  183.0180  179.2740  139.0410 C   0  0  0  0  0  0  0  0  0  0  0  0
  183.1250  177.8550  141.0280 N   0  0  0  0  0  0  0  0  0  0  0  0
  184.2880  179.7990  139.4270 N   0  0  0  0  0  2  0  0  0  0  0  0
  182.3100  179.8750  138.1450 N   0  0  0  0  0  2  0  0  0  0  0  0
  184.3160  178.2900  141.3400 C   0  0  0  0  0  0  0  0  0  0  0  0
  182.5070  178.0320  139.7090 C   0  0  2  0  0  3  0  0  0  0  0  0
  185.1440  179.0440  140.3360 C   0  0  0  0  0  2  0  0  0  0  0  0
  181.8420  174.9390  137.6430 C   0  0  0  0  0  2  0  0  0  0  0  0
  182.7350  176.8580  138.8720 N   0  0  0  0  0  0  0  0  0  0  0  0
  183.9030  176.8340  138.0420 C   0  0  0  0  0  3  0  0  0  0  0  0
  183.2700  174.5880  137.2310 C   0  0  0  0  0  2  0  0  0  0  0  0
  181.8700  175.6800  138.9730 C   0  0  0  0  0  2  0  0  0  0  0  0
  184.1670  175.7950  137.2370 C   0  0  0  0  0  0  0  0  0  0  0  0
  185.3480  175.7690  136.4210 N   0  0  0  0  0  2  0  0  0  0  0  0
  189.5480  176.4330  136.9060 C   0  0  0  0  0  2  0  0  0  0  0  0
  188.6200  176.8310  138.0540 C   0  0  2  0  0  3  0  0  0  0  0  0
  187.1850  176.9660  137.5460 C   0  0  0  0  0  2  0  0  0  0  0  0
  189.0930  175.1080  136.2990 C   0  0  0  0  0  2  0  0  0  0  0  0
  186.7240  175.6570  136.9040 C   0  0  2  0  0  3  0  0  0  0  0  0
  187.6650  175.2300  135.7770 C   0  0  0  0  0  2  0  0  0  0  0  0
  189.0020  178.9450  137.5280 C   0  0  0  0  0  1  0  0  0  0  0  0
  189.0410  178.0460  138.5950 O   0  0  0  0  0  0  0  0  0  0  0  0
  184.8590  178.0420  142.6030 O   0  0  0  0  0  0  0  0  0  0  0  0
  185.9450  178.7920  143.1410 C   0  0  0  0  0  2  0  0  0  0  0  0
  186.9860  177.8690  143.7630 C   0  0  0  0  0  2  0  0  0  0  0  0
  186.4240  177.1270  144.9690 C   0  0  0  0  0  2  0  0  0  0  0  0
  184.9770  178.2460  146.5910 C   0  0  0  0  0  2  0  0  0  0  0  0
  186.2100  178.0480  146.1280 C   0  0  0  0  0  0  0  0  0  0  0  0
  187.3890  178.6080  146.8630 C   0  0  0  0  0  2  0  0  0  0  0  0
  187.7000  177.7920  148.1090 C   0  0  0  0  0  2  0  0  0  0  0  0
  188.6810  176.6830  147.7800 C   0  0  0  0  0  2  0  0  0  0  0  0
  190.0360  177.2900  147.4170 C   0  0  0  0  0  2  0  0  0  0  0  0
  192.0540  176.0450  147.4160 C   0  0  0  0  0  1  0  0  0  0  0  0
  190.8810  176.3910  146.6160 N   0  0  0  0  0  0  0  0  0  0  0  0
  190.9100  176.4880  142.9250 N   0  0  0  0  0  2  0  0  0  0  0  0
  190.8090  178.8330  143.6620 C   0  0  0  0  0  2  0  0  0  0  0  0
  191.4340  177.8310  142.6860 C   0  0  0  0  0  2  0  0  0  0  0  0
  191.3030  177.0300  145.3570 C   0  0  2  0  0  3  0  0  0  0  0  0
  190.3460  178.1620  144.9590 C   0  0  0  0  0  2  0  0  0  0  0  0
  191.4110  175.9910  144.2120 C   0  0  0  0  0  2  0  0  0  0  0  0
  1  3  1  0  0  0  0
  1  6  1  0  0  0  0
  2  5  2  0  0  0  0
  3  7  1  0  0  0  0
  4  1  2  0  0  0  0
  5 23  1  0  0  0  0
  6  9  1  6  0  0  0
  6  2  1  0  0  0  0
  7  5  1  0  0  0  0
  8 12  1  0  0  0  0
  9 12  1  0  0  0  0
 10  9  1  0  0  0  0
 11 13  1  0  0  0  0
 11  8  1  0  0  0  0
 13 10  2  0  0  0  0
 14 13  1  0  0  0  0
 15 16  1  0  0  0  0
 16 22  1  6  0  0  0
 17 16  1  0  0  0  0
 18 15  1  0  0  0  0
 19 14  1  6  0  0  0
 19 17  1  0  0  0  0
 20 18  1  0  0  0  0
 20 19  1  0  0  0  0
 21 22  1  0  0  0  0
 23 24  1  0  0  0  0
 24 25  1  0  0  0  0
 25 26  1  0  0  0  0
 26 28  1  0  0  0  0
 28 27  2  0  0  0  0
 28 29  1  0  0  0  0
 29 30  1  0  0  0  0
 31 30  1  0  0  0  0
 32 31  1  0  0  0  0
 34 33  1  0  0  0  0
 34 32  1  0  0  0  0
 35 40  1  0  0  0  0
 36 39  1  0  0  0  0
 37 35  1  0  0  0  0
 37 36  1  0  0  0  0
 38 34  1  1  0  0  0
 39 38  1  0  0  0  0
 40 38  1  0  0  0  0
M  END
>  <MODEL>
8

>  <REMARK>
 VINA RESULT:      -7.2      2.051      4.807
  Name = 
  15 active torsions:
  status: ('A' for Active; 'I' for Inactive)
    1  A    between atoms: C_2  and  C_12
    2  A    between atoms: C_2  and  C_39
    3  A    between atoms: O_4  and  C_11
    4  A    between atoms: O_4  and  C_24
    5  A    between atoms: N_9  and  C_29
    6  A    between atoms: N_10  and  C_19
    7  A    between atoms: N_10  and  C_25
    8  A    between atoms: C_11  and  C_30
    9  A    between atoms: C_12  and  C_37
   10  A    between atoms: C_15  and  O_33
   11  A    between atoms: C_19  and  C_37
   12  A    between atoms: C_27  and  C_30
   13  A    between atoms: C_27  and  C_39
   14  A    between atoms: C_32  and  N_40
   15  A    between atoms: C_35  and  N_40
                            x       y       z     vdW  Elec       q    Type
                         _______ _______ _______ _____ _____    ______ ____

>  <TORSDO>
F 15

$$$$
=
 OpenBabel11062413063D

 40 43  0  0  1  0  0  0  0  0999 V2000
  189.0600  178.3960  137.7590 C   0  0  0  0  0  0  0  0  0  0  0  0
  187.9160  178.3090  139.9170 N   0  0  0  0  0  0  0  0  0  0  0  0
  190.1000  177.6210  138.3530 N   0  0  0  0  0  2  0  0  0  0  0  0
  189.2540  178.9900  136.6310 N   0  0  0  0  0  2  0  0  0  0  0  0
  188.8380  177.5450  140.4360 C   0  0  0  0  0  0  0  0  0  0  0  0
  187.7500  178.5310  138.4760 C   0  0  2  0  0  3  0  0  0  0  0  0
  189.8320  176.8380  139.5560 C   0  0  0  0  0  2  0  0  0  0  0  0
  186.1490  175.3640  137.1780 C   0  0  0  0  0  2  0  0  0  0  0  0
  186.7560  177.6140  137.9260 N   0  0  0  0  0  0  0  0  0  0  0  0
  185.3700  177.9020  138.1500 C   0  0  0  0  0  3  0  0  0  0  0  0
  184.7520  175.8890  136.8590 C   0  0  0  0  0  2  0  0  0  0  0  0
  187.1540  176.5020  137.0580 C   0  0  0  0  0  2  0  0  0  0  0  0
  184.4050  177.0950  137.6880 C   0  0  0  0  0  0  0  0  0  0  0  0
  183.0180  177.4000  137.8990 N   0  0  0  0  0  2  0  0  0  0  0  0
  179.6050  176.3020  140.2340 C   0  0  0  0  0  2  0  0  0  0  0  0
  180.5310  175.1880  139.7470 C   0  0  2  0  0  3  0  0  0  0  0  0
  181.3840  175.6870  138.5820 C   0  0  0  0  0  2  0  0  0  0  0  0
  180.4250  177.5090  140.6820 C   0  0  0  0  0  2  0  0  0  0  0  0
  182.1890  176.9180  139.0020 C   0  0  2  0  0  3  0  0  0  0  0  0
  181.2750  178.0260  139.5250 C   0  0  0  0  0  2  0  0  0  0  0  0
  180.2690  173.7660  138.0730 C   0  0  0  0  0  1  0  0  0  0  0  0
  179.7690  174.0950  139.3340 O   0  0  0  0  0  0  0  0  0  0  0  0
  188.9050  177.3440  141.8170 O   0  0  0  0  0  0  0  0  0  0  0  0
  189.8110  176.4260  142.4230 C   0  0  0  0  0  2  0  0  0  0  0  0
  190.6920  177.1300  143.4490 C   0  0  0  0  0  2  0  0  0  0  0  0
  191.1600  176.1700  144.5350 C   0  0  0  0  0  2  0  0  0  0  0  0
  191.7510  176.3690  146.8990 C   0  0  0  0  0  2  0  0  0  0  0  0
  190.9550  176.7460  145.9000 C   0  0  0  0  0  0  0  0  0  0  0  0
  189.9730  177.8600  146.1000 C   0  0  0  0  0  2  0  0  0  0  0  0
  189.2260  177.7070  147.4160 C   0  0  0  0  0  2  0  0  0  0  0  0
  187.8060  177.2380  147.1630 C   0  0  0  0  0  2  0  0  0  0  0  0
  187.3980  177.5900  145.7330 C   0  0  0  0  0  2  0  0  0  0  0  0
  185.6740  178.6460  146.9700 C   0  0  0  0  0  1  0  0  0  0  0  0
  186.3260  178.5950  145.6630 N   0  0  0  0  0  0  0  0  0  0  0  0
  183.3360  179.4690  143.6820 N   0  0  0  0  0  2  0  0  0  0  0  0
  184.8320  178.2570  142.1500 C   0  0  0  0  0  2  0  0  0  0  0  0
  183.3910  178.4540  142.6330 C   0  0  0  0  0  2  0  0  0  0  0  0
  185.3400  178.2590  144.6220 C   0  0  2  0  0  3  0  0  0  0  0  0
  185.8560  178.6330  143.2260 C   0  0  0  0  0  2  0  0  0  0  0  0
  183.9810  178.9520  144.8950 C   0  0  0  0  0  2  0  0  0  0  0  0
  1  3  1  0  0  0  0
  1  6  1  0  0  0  0
  2  5  2  0  0  0  0
  3  7  1  0  0  0  0
  4  1  2  0  0  0  0
  5 23  1  0  0  0  0
  6  9  1  6  0  0  0
  6  2  1  0  0  0  0
  7  5  1  0  0  0  0
  9 10  1  0  0  0  0
 11  8  1  0  0  0  0
 11 13  1  0  0  0  0
 12  8  1  0  0  0  0
 12  9  1  0  0  0  0
 13 14  1  0  0  0  0
 13 10  2  0  0  0  0
 15 18  1  0  0  0  0
 16 22  1  6  0  0  0
 16 15  1  0  0  0  0
 17 19  1  0  0  0  0
 17 16  1  0  0  0  0
 19 14  1  6  0  0  0
 19 20  1  0  0  0  0
 20 18  1  0  0  0  0
 21 22  1  0  0  0  0
 23 24  1  0  0  0  0
 24 25  1  0  0  0  0
 25 26  1  0  0  0  0
 26 28  1  0  0  0  0
 28 29  1  0  0  0  0
 28 27  2  0  0  0  0
 29 30  1  0  0  0  0
 31 30  1  0  0  0  0
 32 31  1  0  0  0  0
 34 32  1  0  0  0  0
 34 33  1  0  0  0  0
 35 40  1  0  0  0  0
 36 37  1  0  0  0  0
 36 39  1  0  0  0  0
 37 35  1  0  0  0  0
 38 40  1  0  0  0  0
 38 34  1  1  0  0  0
 39 38  1  0  0  0  0
M  END
>  <MODEL>
9

>  <REMARK>
 VINA RESULT:      -7.0      2.083      4.487
  Name = 
  15 active torsions:
  status: ('A' for Active; 'I' for Inactive)
    1  A    between atoms: C_2  and  C_12
    2  A    between atoms: C_2  and  C_39
    3  A    between atoms: O_4  and  C_11
    4  A    between atoms: O_4  and  C_24
    5  A    between atoms: N_9  and  C_29
    6  A    between atoms: N_10  and  C_19
    7  A    between atoms: N_10  and  C_25
    8  A    between atoms: C_11  and  C_30
    9  A    between atoms: C_12  and  C_37
   10  A    between atoms: C_15  and  O_33
   11  A    between atoms: C_19  and  C_37
   12  A    between atoms: C_27  and  C_30
   13  A    between atoms: C_27  and  C_39
   14  A    between atoms: C_32  and  N_40
   15  A    between atoms: C_35  and  N_40
                            x       y       z     vdW  Elec       q    Type
                         _______ _______ _______ _____ _____    ______ ____

>  <TORSDO>
F 15

$$$$
