=
 OpenBabel11062414113D

 32 35  0  0  1  0  0  0  0  0999 V2000
  183.0570  178.6920  142.0580 N   0  0  0  0  0  2  0  0  0  0  0  0
  181.6480  179.2610  138.2770 S   0  0  0  0  0  0  0  0  0  0  0  0
  181.7810  177.4840  138.1050 C   0  0  0  0  0  0  0  0  0  0  0  0
  187.8650  178.3360  140.4480 C   0  0  0  0  0  0  0  0  0  0  0  0
  181.7290  179.2030  140.1000 C   0  0  0  0  0  2  0  0  0  0  0  0
  184.2820  178.5740  142.7870 C   0  0  0  0  0  0  0  0  0  0  0  0
  184.2510  178.5820  144.0460 O   0  0  0  0  0  0  0  0  0  0  0  0
  182.7390  176.7560  138.8700 N   0  0  0  0  0  2  0  0  0  0  0  0
  182.9710  177.0330  140.2840 C   0  0  0  0  0  2  0  0  0  0  0  0
  183.0110  178.5330  140.6070 C   0  0  2  0  0  0  0  0  0  0  0  0
  187.9600  178.0420  141.8190 C   0  0  0  0  0  0  0  0  0  0  0  0
  185.5630  178.4830  142.0380 C   0  0  0  0  0  0  0  0  0  0  0  0
  186.7970  178.1170  142.6260 C   0  0  0  0  0  0  0  0  0  0  0  0
  181.0480  176.8800  137.2800 O   0  0  0  0  0  0  0  0  0  0  0  0
  184.2560  179.1920  139.9860 C   0  0  0  0  0  2  0  0  0  0  0  0
  189.2650  177.3740  143.7560 C   0  0  0  0  0  3  0  0  0  0  0  0
  186.9010  177.8110  143.9930 C   0  0  0  0  0  3  0  0  0  0  0  0
  189.1850  177.6710  142.3950 C   0  0  0  0  0  3  0  0  0  0  0  0
  185.5290  178.7500  140.6550 C   0  0  0  0  0  0  0  0  0  0  0  0
  188.1210  177.4400  144.5630 C   0  0  0  0  0  0  0  0  0  0  0  0
  186.6640  178.6790  139.9140 N   0  0  0  0  0  0  0  0  0  0  0  0
  189.0540  178.2540  139.5390 C   0  0  0  0  0  2  0  0  0  0  0  0
  188.7130  177.5020  138.2580 C   0  0  0  0  0  2  0  0  0  0  0  0
  188.8770  178.3880  137.0320 C   0  0  0  0  0  2  0  0  0  0  0  0
  188.9530  179.7270  137.4170 O   0  0  0  0  0  1  0  0  0  0  0  0
  188.1680  177.1450  145.9280 O   0  0  0  0  0  0  0  0  0  0  0  0
  189.2710  177.4840  146.7580 C   0  0  0  0  0  2  0  0  0  0  0  0
  189.9110  176.3150  147.1970 O   0  0  0  0  0  0  0  0  0  0  0  0
  191.9890  175.3340  147.1930 F   0  0  0  0  0  0  0  0  0  0  0  0
  191.6550  177.2430  146.0170 F   0  0  0  0  0  0  0  0  0  0  0  0
  191.3000  176.5350  147.1540 C   0  0  0  0  0  0  0  0  0  0  0  0
  191.6630  177.2800  148.2580 F   0  0  0  0  0  0  0  0  0  0  0  0
  1  6  1  0  0  0  0
  2  5  1  0  0  0  0
  3  2  1  0  0  0  0
  3  8  1  0  0  0  0
  4 11  1  0  0  0  0
  5 10  1  0  0  0  0
  6  7  2  0  0  0  0
  8  9  1  0  0  0  0
  9 10  1  0  0  0  0
 10 15  1  6  0  0  0
 10  1  1  0  0  0  0
 11 18  2  0  0  0  0
 11 13  1  0  0  0  0
 12 13  1  0  0  0  0
 12  6  1  0  0  0  0
 13 17  2  0  0  0  0
 14  3  2  0  0  0  0
 15 19  1  0  0  0  0
 16 20  2  0  0  0  0
 17 20  1  0  0  0  0
 18 16  1  0  0  0  0
 19 12  2  0  0  0  0
 20 26  1  0  0  0  0
 21  4  2  0  0  0  0
 21 19  1  0  0  0  0
 22  4  1  0  0  0  0
 23 22  1  0  0  0  0
 24 25  1  0  0  0  0
 24 23  1  0  0  0  0
 26 27  1  0  0  0  0
 27 28  1  0  0  0  0
 30 31  1  0  0  0  0
 31 29  1  0  0  0  0
 31 28  1  0  0  0  0
 31 32  1  0  0  0  0
M  END
>  <MODEL>
1

>  <REMARK>
 VINA RESULT:      -8.7      0.000      0.000
  Name = 
  7 active torsions:
  status: ('A' for Active; 'I' for Inactive)
    1  A    between atoms: C_6  and  C_8
    2  A    between atoms: C_7  and  O_11
    3  A    between atoms: C_8  and  C_24
    4  A    between atoms: O_11  and  C_16
    5  A    between atoms: C_16  and  O_19
    6  A    between atoms: O_19  and  C_29
    7  A    between atoms: C_20  and  C_24
                            x       y       z     vdW  Elec       q    Type
                         _______ _______ _______ _____ _____    ______ ____

>  <TORSDO>
F 7

$$$$
=
 OpenBabel11062414113D

 32 35  0  0  1  0  0  0  0  0999 V2000
  182.9120  178.6300  141.8410 N   0  0  0  0  0  2  0  0  0  0  0  0
  181.6430  179.4310  138.0530 S   0  0  0  0  0  0  0  0  0  0  0  0
  181.7860  177.6680  137.7760 C   0  0  0  0  0  0  0  0  0  0  0  0
  187.7780  178.3750  140.3900 C   0  0  0  0  0  0  0  0  0  0  0  0
  181.6570  179.2610  139.8710 C   0  0  0  0  0  2  0  0  0  0  0  0
  184.1110  178.4670  142.6060 C   0  0  0  0  0  0  0  0  0  0  0  0
  184.0320  178.3980  143.8610 O   0  0  0  0  0  0  0  0  0  0  0  0
  182.7170  176.8940  138.5310 N   0  0  0  0  0  2  0  0  0  0  0  0
  182.8960  177.0840  139.9660 C   0  0  0  0  0  2  0  0  0  0  0  0
  182.9210  178.5610  140.3830 C   0  0  2  0  0  0  0  0  0  0  0  0
  187.8230  177.9960  141.7430 C   0  0  0  0  0  0  0  0  0  0  0  0
  185.4180  178.4220  141.9010 C   0  0  0  0  0  0  0  0  0  0  0  0
  186.6310  178.0210  142.5100 C   0  0  0  0  0  0  0  0  0  0  0  0
  181.0850  177.1160  136.8900 O   0  0  0  0  0  0  0  0  0  0  0  0
  184.1860  179.2570  139.8500 C   0  0  0  0  0  2  0  0  0  0  0  0
  189.0560  177.2100  143.6820 C   0  0  0  0  0  3  0  0  0  0  0  0
  186.6840  177.6320  143.8580 C   0  0  0  0  0  3  0  0  0  0  0  0
  189.0260  177.5910  142.3410 C   0  0  0  0  0  3  0  0  0  0  0  0
  185.4340  178.7750  140.5360 C   0  0  0  0  0  0  0  0  0  0  0  0
  187.8840  177.2260  144.4490 C   0  0  0  0  0  0  0  0  0  0  0  0
  186.5960  178.7500  139.8350 N   0  0  0  0  0  0  0  0  0  0  0  0
  188.9990  178.3480  139.5230 C   0  0  0  0  0  2  0  0  0  0  0  0
  188.7040  177.6890  138.1810 C   0  0  0  0  0  2  0  0  0  0  0  0
  189.1200  178.5790  137.0200 C   0  0  0  0  0  2  0  0  0  0  0  0
  188.8920  179.9190  137.3390 O   0  0  0  0  0  1  0  0  0  0  0  0
  187.8810  176.8480  145.7950 O   0  0  0  0  0  0  0  0  0  0  0  0
  186.9190  177.3170  146.7310 C   0  0  0  0  0  2  0  0  0  0  0  0
  187.1870  178.6550  147.0560 O   0  0  0  0  0  0  0  0  0  0  0  0
  185.9930  180.3510  148.0460 F   0  0  0  0  0  0  0  0  0  0  0  0
  185.6730  179.8980  145.8480 F   0  0  0  0  0  0  0  0  0  0  0  0
  185.9650  179.3510  147.0880 C   0  0  0  0  0  0  0  0  0  0  0  0
  184.9600  178.4620  147.4160 F   0  0  0  0  0  0  0  0  0  0  0  0
  1  6  1  0  0  0  0
  2  5  1  0  0  0  0
  3  2  1  0  0  0  0
  3  8  1  0  0  0  0
  4 11  1  0  0  0  0
  5 10  1  0  0  0  0
  6  7  2  0  0  0  0
  8  9  1  0  0  0  0
  9 10  1  0  0  0  0
 10 15  1  6  0  0  0
 10  1  1  0  0  0  0
 11 18  2  0  0  0  0
 11 13  1  0  0  0  0
 12 13  1  0  0  0  0
 12  6  1  0  0  0  0
 13 17  2  0  0  0  0
 14  3  2  0  0  0  0
 15 19  1  0  0  0  0
 16 20  2  0  0  0  0
 17 20  1  0  0  0  0
 18 16  1  0  0  0  0
 19 12  2  0  0  0  0
 20 26  1  0  0  0  0
 21  4  2  0  0  0  0
 21 19  1  0  0  0  0
 22  4  1  0  0  0  0
 23 22  1  0  0  0  0
 24 25  1  0  0  0  0
 24 23  1  0  0  0  0
 26 27  1  0  0  0  0
 27 28  1  0  0  0  0
 28 31  1  0  0  0  0
 30 31  1  0  0  0  0
 31 32  1  0  0  0  0
 31 29  1  0  0  0  0
M  END
>  <MODEL>
2

>  <REMARK>
 VINA RESULT:      -8.2      2.340      2.553
  Name = 
  7 active torsions:
  status: ('A' for Active; 'I' for Inactive)
    1  A    between atoms: C_6  and  C_8
    2  A    between atoms: C_7  and  O_11
    3  A    between atoms: C_8  and  C_24
    4  A    between atoms: O_11  and  C_16
    5  A    between atoms: C_16  and  O_19
    6  A    between atoms: O_19  and  C_29
    7  A    between atoms: C_20  and  C_24
                            x       y       z     vdW  Elec       q    Type
                         _______ _______ _______ _____ _____    ______ ____

>  <TORSDO>
F 7

$$$$
=
 OpenBabel11062414113D

 32 35  0  0  1  0  0  0  0  0999 V2000
  186.2950  178.7650  138.4920 N   0  0  0  0  0  2  0  0  0  0  0  0
  189.0670  177.6580  135.7180 S   0  0  0  0  0  0  0  0  0  0  0  0
  188.3870  176.0100  135.8950 C   0  0  0  0  0  0  0  0  0  0  0  0
  189.1470  177.0640  142.3410 C   0  0  0  0  0  0  0  0  0  0  0  0
  187.6180  178.4590  136.4890 C   0  0  0  0  0  2  0  0  0  0  0  0
  186.1030  178.8470  139.9080 C   0  0  0  0  0  0  0  0  0  0  0  0
  185.0950  179.4530  140.3560 O   0  0  0  0  0  0  0  0  0  0  0  0
  187.7730  175.6130  137.1190 N   0  0  0  0  0  2  0  0  0  0  0  0
  186.8680  176.4930  137.8510 C   0  0  0  0  0  2  0  0  0  0  0  0
  187.3550  177.9470  137.9100 C   0  0  2  0  0  0  0  0  0  0  0  0
  187.9480  177.4430  142.9690 C   0  0  0  0  0  0  0  0  0  0  0  0
  187.1190  178.2450  140.8110 C   0  0  0  0  0  0  0  0  0  0  0  0
  186.9210  178.0430  142.1980 C   0  0  0  0  0  0  0  0  0  0  0  0
  188.4830  175.1900  134.9470 O   0  0  0  0  0  0  0  0  0  0  0  0
  188.6210  178.0640  138.7780 C   0  0  0  0  0  2  0  0  0  0  0  0
  186.5570  177.6060  144.9530 C   0  0  0  0  0  3  0  0  0  0  0  0
  185.7240  178.4090  142.8330 C   0  0  0  0  0  3  0  0  0  0  0  0
  187.7540  177.2330  144.3430 C   0  0  0  0  0  3  0  0  0  0  0  0
  188.3360  177.8290  140.2360 C   0  0  0  0  0  0  0  0  0  0  0  0
  185.5330  178.1960  144.2010 C   0  0  0  0  0  0  0  0  0  0  0  0
  189.3020  177.2680  141.0070 N   0  0  0  0  0  0  0  0  0  0  0  0
  190.2610  176.4060  143.0980 C   0  0  0  0  0  2  0  0  0  0  0  0
  191.5050  177.2860  143.1160 C   0  0  0  0  0  2  0  0  0  0  0  0
  191.5100  178.2180  144.3180 C   0  0  0  0  0  2  0  0  0  0  0  0
  191.0530  179.4830  143.9440 O   0  0  0  0  0  1  0  0  0  0  0  0
  184.3210  178.5790  144.7820 O   0  0  0  0  0  0  0  0  0  0  0  0
  183.3240  179.3140  144.0850 C   0  0  0  0  0  2  0  0  0  0  0  0
  182.0720  178.7070  144.2650 O   0  0  0  0  0  0  0  0  0  0  0  0
  180.3070  177.9690  142.9920 F   0  0  0  0  0  0  0  0  0  0  0  0
  180.7640  180.1880  143.0850 F   0  0  0  0  0  0  0  0  0  0  0  0
  181.3130  178.9150  143.0990 C   0  0  0  0  0  0  0  0  0  0  0  0
  182.1450  178.7910  142.0040 F   0  0  0  0  0  0  0  0  0  0  0  0
  1  6  1  0  0  0  0
  2  3  1  0  0  0  0
  2  5  1  0  0  0  0
  3  8  1  0  0  0  0
  4 11  1  0  0  0  0
  4 22  1  0  0  0  0
  6  7  2  0  0  0  0
  6 12  1  0  0  0  0
  8  9  1  0  0  0  0
  9 10  1  0  0  0  0
 10  5  1  6  0  0  0
 10  1  1  0  0  0  0
 10 15  1  0  0  0  0
 11 18  1  0  0  0  0
 12 13  1  0  0  0  0
 13 17  1  0  0  0  0
 13 11  2  0  0  0  0
 14  3  2  0  0  0  0
 15 19  1  0  0  0  0
 17 20  2  0  0  0  0
 18 16  2  0  0  0  0
 19 12  2  0  0  0  0
 19 21  1  0  0  0  0
 20 26  1  0  0  0  0
 20 16  1  0  0  0  0
 21  4  2  0  0  0  0
 22 23  1  0  0  0  0
 23 24  1  0  0  0  0
 25 24  1  0  0  0  0
 27 28  1  0  0  0  0
 27 26  1  0  0  0  0
 29 31  1  0  0  0  0
 30 31  1  0  0  0  0
 31 28  1  0  0  0  0
 32 31  1  0  0  0  0
M  END
>  <MODEL>
3

>  <REMARK>
 VINA RESULT:      -8.2      4.576      6.324
  Name = 
  7 active torsions:
  status: ('A' for Active; 'I' for Inactive)
    1  A    between atoms: C_6  and  C_8
    2  A    between atoms: C_7  and  O_11
    3  A    between atoms: C_8  and  C_24
    4  A    between atoms: O_11  and  C_16
    5  A    between atoms: C_16  and  O_19
    6  A    between atoms: O_19  and  C_29
    7  A    between atoms: C_20  and  C_24
                            x       y       z     vdW  Elec       q    Type
                         _______ _______ _______ _____ _____    ______ ____

>  <TORSDO>
F 7

$$$$
=
 OpenBabel11062414113D

 32 35  0  0  1  0  0  0  0  0999 V2000
  189.6440  177.4910  137.3220 N   0  0  0  0  0  2  0  0  0  0  0  0
  192.8660  175.1620  136.4270 S   0  0  0  0  0  0  0  0  0  0  0  0
  191.7280  173.7830  136.5350 C   0  0  0  0  0  0  0  0  0  0  0  0
  190.0060  176.4630  142.2870 C   0  0  0  0  0  0  0  0  0  0  0  0
  191.5290  176.3960  136.2710 C   0  0  0  0  0  2  0  0  0  0  0  0
  188.9130  178.0040  138.4400 C   0  0  0  0  0  0  0  0  0  0  0  0
  188.0340  178.8840  138.2470 O   0  0  0  0  0  0  0  0  0  0  0  0
  190.5740  173.8660  137.3680 N   0  0  0  0  0  2  0  0  0  0  0  0
  189.7450  175.0660  137.4230 C   0  0  0  0  0  2  0  0  0  0  0  0
  190.5620  176.3640  137.4600 C   0  0  2  0  0  0  0  0  0  0  0  0
  188.8220  177.2150  142.1970 C   0  0  0  0  0  0  0  0  0  0  0  0
  189.2380  177.5090  139.8040 C   0  0  0  0  0  0  0  0  0  0  0  0
  188.4320  177.7480  140.9430 C   0  0  0  0  0  0  0  0  0  0  0  0
  191.9670  172.7240  135.9000 O   0  0  0  0  0  0  0  0  0  0  0  0
  191.3260  176.4920  138.7900 C   0  0  0  0  0  2  0  0  0  0  0  0
  186.8440  178.1820  143.2250 C   0  0  0  0  0  3  0  0  0  0  0  0
  187.2420  178.4890  140.8620 C   0  0  0  0  0  3  0  0  0  0  0  0
  188.0220  177.4410  143.3280 C   0  0  0  0  0  3  0  0  0  0  0  0
  190.4050  176.7340  139.9550 C   0  0  0  0  0  0  0  0  0  0  0  0
  186.4460  178.7090  141.9890 C   0  0  0  0  0  0  0  0  0  0  0  0
  190.7540  176.2500  141.1740 N   0  0  0  0  0  0  0  0  0  0  0  0
  190.4600  175.8570  143.5800 C   0  0  0  0  0  2  0  0  0  0  0  0
  191.6730  176.5930  144.1340 C   0  0  0  0  0  2  0  0  0  0  0  0
  191.2910  177.5080  145.2880 C   0  0  0  0  0  2  0  0  0  0  0  0
  191.8830  177.0590  146.4700 O   0  0  0  0  0  1  0  0  0  0  0  0
  185.2710  179.4530  141.8520 O   0  0  0  0  0  0  0  0  0  0  0  0
  183.9880  178.9470  142.1950 C   0  0  0  0  0  2  0  0  0  0  0  0
  184.0620  178.2470  143.4080 O   0  0  0  0  0  0  0  0  0  0  0  0
  183.4930  180.3300  144.1930 F   0  0  0  0  0  0  0  0  0  0  0  0
  181.9870  178.6400  144.3240 F   0  0  0  0  0  0  0  0  0  0  0  0
  183.3340  178.9660  144.3730 C   0  0  0  0  0  0  0  0  0  0  0  0
  183.8130  178.6340  145.6250 F   0  0  0  0  0  0  0  0  0  0  0  0
  1 10  1  0  0  0  0
  1  6  1  0  0  0  0
  2  3  1  0  0  0  0
  3  8  1  0  0  0  0
  4 22  1  0  0  0  0
  5  2  1  0  0  0  0
  6 12  1  0  0  0  0
  7  6  2  0  0  0  0
  8  9  1  0  0  0  0
  9 10  1  0  0  0  0
 10  5  1  6  0  0  0
 10 15  1  0  0  0  0
 11  4  1  0  0  0  0
 11 18  1  0  0  0  0
 12 19  2  0  0  0  0
 12 13  1  0  0  0  0
 13 11  2  0  0  0  0
 14  3  2  0  0  0  0
 15 19  1  0  0  0  0
 16 18  2  0  0  0  0
 17 13  1  0  0  0  0
 17 20  2  0  0  0  0
 19 21  1  0  0  0  0
 20 16  1  0  0  0  0
 21  4  2  0  0  0  0
 22 23  1  0  0  0  0
 23 24  1  0  0  0  0
 24 25  1  0  0  0  0
 26 20  1  0  0  0  0
 26 27  1  0  0  0  0
 27 28  1  0  0  0  0
 28 31  1  0  0  0  0
 29 31  1  0  0  0  0
 30 31  1  0  0  0  0
 31 32  1  0  0  0  0
M  END
>  <MODEL>
4

>  <REMARK>
 VINA RESULT:      -8.1      4.465      7.462
  Name = 
  7 active torsions:
  status: ('A' for Active; 'I' for Inactive)
    1  A    between atoms: C_6  and  C_8
    2  A    between atoms: C_7  and  O_11
    3  A    between atoms: C_8  and  C_24
    4  A    between atoms: O_11  and  C_16
    5  A    between atoms: C_16  and  O_19
    6  A    between atoms: O_19  and  C_29
    7  A    between atoms: C_20  and  C_24
                            x       y       z     vdW  Elec       q    Type
                         _______ _______ _______ _____ _____    ______ ____

>  <TORSDO>
F 7

$$$$
=
 OpenBabel11062414113D

 32 35  0  0  1  0  0  0  0  0999 V2000
  189.9710  177.4490  137.2440 N   0  0  0  0  0  2  0  0  0  0  0  0
  193.2280  175.0660  136.6820 S   0  0  0  0  0  0  0  0  0  0  0  0
  192.0670  173.7040  136.7010 C   0  0  0  0  0  0  0  0  0  0  0  0
  189.8560  176.4870  142.2330 C   0  0  0  0  0  0  0  0  0  0  0  0
  191.9300  176.3160  136.3860 C   0  0  0  0  0  2  0  0  0  0  0  0
  189.1470  177.9870  138.2820 C   0  0  0  0  0  0  0  0  0  0  0  0
  188.3020  178.8760  137.9970 O   0  0  0  0  0  0  0  0  0  0  0  0
  190.8410  173.8130  137.4220 N   0  0  0  0  0  2  0  0  0  0  0  0
  190.0280  175.0250  137.3850 C   0  0  0  0  0  2  0  0  0  0  0  0
  190.8560  176.3130  137.4800 C   0  0  2  0  0  0  0  0  0  0  0  0
  188.6960  177.2520  142.0240 C   0  0  0  0  0  0  0  0  0  0  0  0
  189.3360  177.5070  139.6760 C   0  0  0  0  0  0  0  0  0  0  0  0
  188.4310  177.7720  140.7320 C   0  0  0  0  0  0  0  0  0  0  0  0
  192.3490  172.6340  136.1050 O   0  0  0  0  0  0  0  0  0  0  0  0
  191.4940  176.4490  138.8750 C   0  0  0  0  0  2  0  0  0  0  0  0
  186.6450  178.2590  142.8510 C   0  0  0  0  0  3  0  0  0  0  0  0
  187.2650  178.5270  140.5310 C   0  0  0  0  0  3  0  0  0  0  0  0
  187.7970  177.5040  143.0730 C   0  0  0  0  0  3  0  0  0  0  0  0
  190.4730  176.7200  139.9450 C   0  0  0  0  0  0  0  0  0  0  0  0
  186.3710  178.7740  141.5770 C   0  0  0  0  0  0  0  0  0  0  0  0
  190.7010  176.2480  141.1970 N   0  0  0  0  0  0  0  0  0  0  0  0
  190.1790  175.8930  143.5710 C   0  0  0  0  0  2  0  0  0  0  0  0
  191.4020  176.5620  144.1860 C   0  0  0  0  0  2  0  0  0  0  0  0
  191.1080  177.0800  145.5860 C   0  0  0  0  0  2  0  0  0  0  0  0
  192.0750  176.6180  146.4800 O   0  0  0  0  0  1  0  0  0  0  0  0
  185.2240  179.5310  141.3220 O   0  0  0  0  0  0  0  0  0  0  0  0
  184.2080  179.1190  140.4180 C   0  0  0  0  0  2  0  0  0  0  0  0
  184.1470  180.0080  139.3340 O   0  0  0  0  0  0  0  0  0  0  0  0
  182.6010  179.2880  137.7930 F   0  0  0  0  0  0  0  0  0  0  0  0
  181.9410  179.7110  139.9210 F   0  0  0  0  0  0  0  0  0  0  0  0
  182.8090  180.0860  138.9070 C   0  0  0  0  0  0  0  0  0  0  0  0
  182.5320  181.3940  138.5620 F   0  0  0  0  0  0  0  0  0  0  0  0
  1 10  1  0  0  0  0
  1  6  1  0  0  0  0
  2  3  1  0  0  0  0
  3  8  1  0  0  0  0
  4 22  1  0  0  0  0
  5  2  1  0  0  0  0
  6 12  1  0  0  0  0
  7  6  2  0  0  0  0
  9  8  1  0  0  0  0
  9 10  1  0  0  0  0
 10  5  1  6  0  0  0
 10 15  1  0  0  0  0
 11  4  1  0  0  0  0
 11 18  1  0  0  0  0
 12 19  2  0  0  0  0
 12 13  1  0  0  0  0
 13 11  2  0  0  0  0
 14  3  2  0  0  0  0
 15 19  1  0  0  0  0
 16 18  2  0  0  0  0
 17 13  1  0  0  0  0
 17 20  2  0  0  0  0
 19 21  1  0  0  0  0
 20 16  1  0  0  0  0
 21  4  2  0  0  0  0
 22 23  1  0  0  0  0
 23 24  1  0  0  0  0
 24 25  1  0  0  0  0
 26 20  1  0  0  0  0
 27 26  1  0  0  0  0
 28 27  1  0  0  0  0
 29 31  1  0  0  0  0
 31 28  1  0  0  0  0
 31 30  1  0  0  0  0
 32 31  1  0  0  0  0
M  END
>  <MODEL>
5

>  <REMARK>
 VINA RESULT:      -8.1      5.270      8.408
  Name = 
  7 active torsions:
  status: ('A' for Active; 'I' for Inactive)
    1  A    between atoms: C_6  and  C_8
    2  A    between atoms: C_7  and  O_11
    3  A    between atoms: C_8  and  C_24
    4  A    between atoms: O_11  and  C_16
    5  A    between atoms: C_16  and  O_19
    6  A    between atoms: O_19  and  C_29
    7  A    between atoms: C_20  and  C_24
                            x       y       z     vdW  Elec       q    Type
                         _______ _______ _______ _____ _____    ______ ____

>  <TORSDO>
F 7

$$$$
=
 OpenBabel11062414113D

 32 35  0  0  1  0  0  0  0  0999 V2000
  183.2780  178.6800  141.9580 N   0  0  0  0  0  2  0  0  0  0  0  0
  181.7540  179.3190  138.2340 S   0  0  0  0  0  0  0  0  0  0  0  0
  181.8540  177.5420  138.0350 C   0  0  0  0  0  0  0  0  0  0  0  0
  188.0250  178.2740  140.1840 C   0  0  0  0  0  0  0  0  0  0  0  0
  181.8940  179.2360  140.0520 C   0  0  0  0  0  2  0  0  0  0  0  0
  184.5260  178.5350  142.6450 C   0  0  0  0  0  0  0  0  0  0  0  0
  184.5360  178.5270  143.9030 O   0  0  0  0  0  0  0  0  0  0  0  0
  182.8260  176.7900  138.7590 N   0  0  0  0  0  2  0  0  0  0  0  0
  183.1080  177.0460  140.1680 C   0  0  0  0  0  2  0  0  0  0  0  0
  183.1820  178.5410  140.5080 C   0  0  2  0  0  0  0  0  0  0  0  0
  188.1600  177.9600  141.5470 C   0  0  0  0  0  0  0  0  0  0  0  0
  185.7790  178.4340  141.8520 C   0  0  0  0  0  0  0  0  0  0  0  0
  187.0270  178.0430  142.3940 C   0  0  0  0  0  0  0  0  0  0  0  0
  181.0850  176.9590  137.2280 O   0  0  0  0  0  0  0  0  0  0  0  0
  184.4160  179.1890  139.8540 C   0  0  0  0  0  2  0  0  0  0  0  0
  189.5180  177.2480  143.4320 C   0  0  0  0  0  3  0  0  0  0  0  0
  187.1710  177.7180  143.7530 C   0  0  0  0  0  3  0  0  0  0  0  0
  189.3980  177.5650  142.0780 C   0  0  0  0  0  3  0  0  0  0  0  0
  185.7030  178.7200  140.4740 C   0  0  0  0  0  0  0  0  0  0  0  0
  188.4040  177.3210  144.2770 C   0  0  0  0  0  0  0  0  0  0  0  0
  186.8120  178.6420  139.6950 N   0  0  0  0  0  0  0  0  0  0  0  0
  189.1810  178.1860  139.2350 C   0  0  0  0  0  2  0  0  0  0  0  0
  188.8660  177.2520  138.0730 C   0  0  0  0  0  2  0  0  0  0  0  0
  189.8600  176.1020  137.9980 C   0  0  0  0  0  2  0  0  0  0  0  0
  190.5870  176.0210  139.1880 O   0  0  0  0  0  1  0  0  0  0  0  0
  188.4910  177.0080  145.6370 O   0  0  0  0  0  0  0  0  0  0  0  0
  187.4480  177.2800  146.5640 C   0  0  0  0  0  2  0  0  0  0  0  0
  187.8960  177.0270  147.8690 O   0  0  0  0  0  0  0  0  0  0  0  0
  187.1950  179.2060  148.0730 F   0  0  0  0  0  0  0  0  0  0  0  0
  188.0430  178.1340  149.8820 F   0  0  0  0  0  0  0  0  0  0  0  0
  188.1150  178.2630  148.5030 C   0  0  0  0  0  0  0  0  0  0  0  0
  189.3800  178.7090  148.1760 F   0  0  0  0  0  0  0  0  0  0  0  0
  1  6  1  0  0  0  0
  2  5  1  0  0  0  0
  3  2  1  0  0  0  0
  3  8  1  0  0  0  0
  4 11  1  0  0  0  0
  5 10  1  0  0  0  0
  6  7  2  0  0  0  0
  8  9  1  0  0  0  0
  9 10  1  0  0  0  0
 10 15  1  6  0  0  0
 10  1  1  0  0  0  0
 11 18  2  0  0  0  0
 11 13  1  0  0  0  0
 12 13  1  0  0  0  0
 12  6  1  0  0  0  0
 13 17  2  0  0  0  0
 14  3  2  0  0  0  0
 15 19  1  0  0  0  0
 16 20  2  0  0  0  0
 17 20  1  0  0  0  0
 18 16  1  0  0  0  0
 19 12  2  0  0  0  0
 20 26  1  0  0  0  0
 21  4  2  0  0  0  0
 21 19  1  0  0  0  0
 22  4  1  0  0  0  0
 23 22  1  0  0  0  0
 24 23  1  0  0  0  0
 24 25  1  0  0  0  0
 26 27  1  0  0  0  0
 27 28  1  0  0  0  0
 28 31  1  0  0  0  0
 29 31  1  0  0  0  0
 31 30  1  0  0  0  0
 32 31  1  0  0  0  0
M  END
>  <MODEL>
6

>  <REMARK>
 VINA RESULT:      -8.0      1.637      1.992
  Name = 
  7 active torsions:
  status: ('A' for Active; 'I' for Inactive)
    1  A    between atoms: C_6  and  C_8
    2  A    between atoms: C_7  and  O_11
    3  A    between atoms: C_8  and  C_24
    4  A    between atoms: O_11  and  C_16
    5  A    between atoms: C_16  and  O_19
    6  A    between atoms: O_19  and  C_29
    7  A    between atoms: C_20  and  C_24
                            x       y       z     vdW  Elec       q    Type
                         _______ _______ _______ _____ _____    ______ ____

>  <TORSDO>
F 7

$$$$
=
 OpenBabel11062414113D

 32 35  0  0  1  0  0  0  0  0999 V2000
  189.9810  176.5470  141.7380 N   0  0  0  0  0  2  0  0  0  0  0  0
  188.3600  177.0720  138.0360 S   0  0  0  0  0  0  0  0  0  0  0  0
  188.7910  178.7980  138.2400 C   0  0  0  0  0  0  0  0  0  0  0  0
  185.7770  178.2190  144.0550 C   0  0  0  0  0  0  0  0  0  0  0  0
  189.4770  176.5190  139.3710 C   0  0  0  0  0  2  0  0  0  0  0  0
  189.6390  176.6110  143.1260 C   0  0  0  0  0  0  0  0  0  0  0  0
  190.4530  176.1710  143.9790 O   0  0  0  0  0  0  0  0  0  0  0  0
  188.8730  179.3700  139.5440 N   0  0  0  0  0  2  0  0  0  0  0  0
  189.5080  178.6710  140.6570 C   0  0  0  0  0  2  0  0  0  0  0  0
  189.1520  177.1790  140.7160 C   0  0  2  0  0  0  0  0  0  0  0  0
  186.6820  178.0420  145.1150 C   0  0  0  0  0  0  0  0  0  0  0  0
  188.3160  177.1620  143.5190 C   0  0  0  0  0  0  0  0  0  0  0  0
  187.9660  177.5050  144.8480 C   0  0  0  0  0  0  0  0  0  0  0  0
  188.9900  179.5160  137.2270 O   0  0  0  0  0  0  0  0  0  0  0  0
  187.6680  176.9860  141.0770 C   0  0  0  0  0  2  0  0  0  0  0  0
  187.2440  178.2180  147.4720 C   0  0  0  0  0  3  0  0  0  0  0  0
  188.8670  177.3410  145.9120 C   0  0  0  0  0  3  0  0  0  0  0  0
  186.3340  178.3910  146.4290 C   0  0  0  0  0  3  0  0  0  0  0  0
  187.3700  177.3790  142.4980 C   0  0  0  0  0  0  0  0  0  0  0  0
  188.5180  177.6930  147.2190 C   0  0  0  0  0  0  0  0  0  0  0  0
  186.1450  177.8840  142.7910 N   0  0  0  0  0  0  0  0  0  0  0  0
  184.4130  178.8010  144.2710 C   0  0  0  0  0  2  0  0  0  0  0  0
  183.6390  178.8850  142.9620 C   0  0  0  0  0  2  0  0  0  0  0  0
  182.1440  179.0300  143.2070 C   0  0  0  0  0  2  0  0  0  0  0  0
  181.4330  178.6240  142.0760 O   0  0  0  0  0  1  0  0  0  0  0  0
  189.4540  177.5090  148.2410 O   0  0  0  0  0  0  0  0  0  0  0  0
  190.8230  177.2140  147.9970 C   0  0  0  0  0  2  0  0  0  0  0  0
  190.9690  175.8500  147.7020 O   0  0  0  0  0  0  0  0  0  0  0  0
  193.2380  175.6240  147.9890 F   0  0  0  0  0  0  0  0  0  0  0  0
  192.2120  174.5140  146.2990 F   0  0  0  0  0  0  0  0  0  0  0  0
  192.2090  175.6710  147.0630 C   0  0  0  0  0  0  0  0  0  0  0  0
  192.4300  176.7440  146.2220 F   0  0  0  0  0  0  0  0  0  0  0  0
  1  6  1  0  0  0  0
  2  3  1  0  0  0  0
  2  5  1  0  0  0  0
  3  8  1  0  0  0  0
  4 22  1  0  0  0  0
  4 11  1  0  0  0  0
  6 12  1  0  0  0  0
  6  7  2  0  0  0  0
  8  9  1  0  0  0  0
  9 10  1  0  0  0  0
 10  5  1  6  0  0  0
 10 15  1  0  0  0  0
 10  1  1  0  0  0  0
 11 18  1  0  0  0  0
 12 13  1  0  0  0  0
 13 11  2  0  0  0  0
 13 17  1  0  0  0  0
 14  3  2  0  0  0  0
 15 19  1  0  0  0  0
 17 20  2  0  0  0  0
 18 16  2  0  0  0  0
 19 21  1  0  0  0  0
 19 12  2  0  0  0  0
 20 16  1  0  0  0  0
 20 26  1  0  0  0  0
 21  4  2  0  0  0  0
 23 24  1  0  0  0  0
 23 22  1  0  0  0  0
 25 24  1  0  0  0  0
 27 26  1  0  0  0  0
 28 27  1  0  0  0  0
 30 31  1  0  0  0  0
 31 28  1  0  0  0  0
 31 29  1  0  0  0  0
 32 31  1  0  0  0  0
M  END
>  <MODEL>
7

>  <REMARK>
 VINA RESULT:      -7.2      2.750      5.383
  Name = 
  7 active torsions:
  status: ('A' for Active; 'I' for Inactive)
    1  A    between atoms: C_6  and  C_8
    2  A    between atoms: C_7  and  O_11
    3  A    between atoms: C_8  and  C_24
    4  A    between atoms: O_11  and  C_16
    5  A    between atoms: C_16  and  O_19
    6  A    between atoms: O_19  and  C_29
    7  A    between atoms: C_20  and  C_24
                            x       y       z     vdW  Elec       q    Type
                         _______ _______ _______ _____ _____    ______ ____

>  <TORSDO>
F 7

$$$$
=
 OpenBabel11062414113D

 32 35  0  0  1  0  0  0  0  0999 V2000
  188.7200  178.1130  140.5830 N   0  0  0  0  0  2  0  0  0  0  0  0
  191.6390  177.7460  143.4020 S   0  0  0  0  0  0  0  0  0  0  0  0
  191.0880  176.0490  143.5570 C   0  0  0  0  0  0  0  0  0  0  0  0
  185.0960  178.7020  144.0970 C   0  0  0  0  0  0  0  0  0  0  0  0
  190.8130  177.9850  141.7910 C   0  0  0  0  0  2  0  0  0  0  0  0
  187.3270  178.4090  140.4500 C   0  0  0  0  0  0  0  0  0  0  0  0
  186.8460  178.5990  139.3020 O   0  0  0  0  0  0  0  0  0  0  0  0
  189.7380  175.7010  143.2570 N   0  0  0  0  0  2  0  0  0  0  0  0
  189.0420  176.2360  142.0920 C   0  0  0  0  0  2  0  0  0  0  0  0
  189.3030  177.7320  141.8660 C   0  0  2  0  0  0  0  0  0  0  0  0
  184.3730  178.6490  142.8930 C   0  0  0  0  0  0  0  0  0  0  0  0
  186.4920  178.5210  141.6750 C   0  0  0  0  0  0  0  0  0  0  0  0
  185.0770  178.5600  141.6660 C   0  0  0  0  0  0  0  0  0  0  0  0
  191.8860  175.1670  143.9650 O   0  0  0  0  0  0  0  0  0  0  0  0
  188.6610  178.5730  142.9840 C   0  0  0  0  0  2  0  0  0  0  0  0
  182.2640  178.6190  141.6880 C   0  0  0  0  0  3  0  0  0  0  0  0
  184.3460  178.4980  140.4680 C   0  0  0  0  0  3  0  0  0  0  0  0
  182.9700  178.6800  142.8890 C   0  0  0  0  0  3  0  0  0  0  0  0
  187.1590  178.5600  142.9160 C   0  0  0  0  0  0  0  0  0  0  0  0
  182.9490  178.5260  140.4690 C   0  0  0  0  0  0  0  0  0  0  0  0
  186.4530  178.6580  144.0710 N   0  0  0  0  0  0  0  0  0  0  0  0
  184.4080  178.7760  145.4270 C   0  0  0  0  0  2  0  0  0  0  0  0
  185.1830  178.0030  146.4870 C   0  0  0  0  0  2  0  0  0  0  0  0
  186.0190  178.9320  147.3540 C   0  0  0  0  0  2  0  0  0  0  0  0
  187.2450  178.3350  147.6510 O   0  0  0  0  0  1  0  0  0  0  0  0
  182.2710  178.4610  139.2480 O   0  0  0  0  0  0  0  0  0  0  0  0
  181.1790  179.3100  138.9210 C   0  0  0  0  0  2  0  0  0  0  0  0
  181.5400  180.1620  137.8670 O   0  0  0  0  0  0  0  0  0  0  0  0
  182.8210  181.8610  138.7350 F   0  0  0  0  0  0  0  0  0  0  0  0
  181.0570  182.3640  137.4020 F   0  0  0  0  0  0  0  0  0  0  0  0
  181.5440  181.4820  138.3540 C   0  0  0  0  0  0  0  0  0  0  0  0
  180.7230  181.5450  139.4620 F   0  0  0  0  0  0  0  0  0  0  0  0
  1 10  1  0  0  0  0
  2  3  1  0  0  0  0
  3 14  2  0  0  0  0
  4 22  1  0  0  0  0
  5  2  1  0  0  0  0
  6  1  1  0  0  0  0
  6 12  1  0  0  0  0
  7  6  2  0  0  0  0
  8  3  1  0  0  0  0
  9  8  1  0  0  0  0
 10  5  1  6  0  0  0
 10  9  1  0  0  0  0
 10 15  1  0  0  0  0
 11  4  2  0  0  0  0
 12 19  1  0  0  0  0
 13 12  2  0  0  0  0
 13 11  1  0  0  0  0
 16 18  2  0  0  0  0
 17 20  2  0  0  0  0
 17 13  1  0  0  0  0
 18 11  1  0  0  0  0
 19 15  1  0  0  0  0
 19 21  2  0  0  0  0
 20 16  1  0  0  0  0
 21  4  1  0  0  0  0
 22 23  1  0  0  0  0
 23 24  1  0  0  0  0
 24 25  1  0  0  0  0
 26 20  1  0  0  0  0
 27 26  1  0  0  0  0
 28 31  1  0  0  0  0
 28 27  1  0  0  0  0
 30 31  1  0  0  0  0
 31 29  1  0  0  0  0
 31 32  1  0  0  0  0
M  END
>  <MODEL>
8

>  <REMARK>
 VINA RESULT:      -6.9      5.182      8.928
  Name = 
  7 active torsions:
  status: ('A' for Active; 'I' for Inactive)
    1  A    between atoms: C_6  and  C_8
    2  A    between atoms: C_7  and  O_11
    3  A    between atoms: C_8  and  C_24
    4  A    between atoms: O_11  and  C_16
    5  A    between atoms: C_16  and  O_19
    6  A    between atoms: O_19  and  C_29
    7  A    between atoms: C_20  and  C_24
                            x       y       z     vdW  Elec       q    Type
                         _______ _______ _______ _____ _____    ______ ____

>  <TORSDO>
F 7

$$$$
=
 OpenBabel11062414113D

 32 35  0  0  1  0  0  0  0  0999 V2000
  190.6740  176.4640  140.7200 N   0  0  0  0  0  2  0  0  0  0  0  0
  187.9750  176.9590  137.7080 S   0  0  0  0  0  0  0  0  0  0  0  0
  188.2930  178.7110  137.8930 C   0  0  0  0  0  0  0  0  0  0  0  0
  187.2320  177.5930  144.2850 C   0  0  0  0  0  0  0  0  0  0  0  0
  189.4860  176.4750  138.6120 C   0  0  0  0  0  2  0  0  0  0  0  0
  190.7620  176.4370  142.1480 C   0  0  0  0  0  0  0  0  0  0  0  0
  191.8310  176.0520  142.6900 O   0  0  0  0  0  0  0  0  0  0  0  0
  188.7120  179.2380  139.1510 N   0  0  0  0  0  2  0  0  0  0  0  0
  189.7120  178.5670  139.9750 C   0  0  0  0  0  2  0  0  0  0  0  0
  189.5240  177.0450  140.0350 C   0  0  2  0  0  0  0  0  0  0  0  0
  188.4260  177.4710  145.0160 C   0  0  0  0  0  0  0  0  0  0  0  0
  189.5750  176.8310  142.9520 C   0  0  0  0  0  0  0  0  0  0  0  0
  189.6130  177.0830  144.3450 C   0  0  0  0  0  0  0  0  0  0  0  0
  188.1130  179.4850  136.9190 O   0  0  0  0  0  0  0  0  0  0  0  0
  188.2400  176.6830  140.8040 C   0  0  0  0  0  2  0  0  0  0  0  0
  189.6540  177.6130  147.1070 C   0  0  0  0  0  3  0  0  0  0  0  0
  190.8030  176.9730  145.0810 C   0  0  0  0  0  3  0  0  0  0  0  0
  188.4600  177.7310  146.3950 C   0  0  0  0  0  3  0  0  0  0  0  0
  188.3510  176.9870  142.2730 C   0  0  0  0  0  0  0  0  0  0  0  0
  190.8340  177.2350  146.4530 C   0  0  0  0  0  0  0  0  0  0  0  0
  187.2310  177.3480  142.9490 N   0  0  0  0  0  0  0  0  0  0  0  0
  185.9500  178.0200  144.9350 C   0  0  0  0  0  2  0  0  0  0  0  0
  184.9450  178.5040  143.8970 C   0  0  0  0  0  2  0  0  0  0  0  0
  183.6080  178.8490  144.5360 C   0  0  0  0  0  2  0  0  0  0  0  0
  183.7820  179.1080  145.8970 O   0  0  0  0  0  1  0  0  0  0  0  0
  192.0460  177.1110  147.1380 O   0  0  0  0  0  0  0  0  0  0  0  0
  192.2170  176.2630  148.2660 C   0  0  0  0  0  2  0  0  0  0  0  0
  193.5730  176.2180  148.6250 O   0  0  0  0  0  0  0  0  0  0  0  0
  195.0180  177.0000  150.2320 F   0  0  0  0  0  0  0  0  0  0  0  0
  192.9210  177.8530  150.1080 F   0  0  0  0  0  0  0  0  0  0  0  0
  193.6950  176.7160  149.9350 C   0  0  0  0  0  0  0  0  0  0  0  0
  193.2480  175.7510  150.8170 F   0  0  0  0  0  0  0  0  0  0  0  0
  1  6  1  0  0  0  0
  2  3  1  0  0  0  0
  2  5  1  0  0  0  0
  3  8  1  0  0  0  0
  4 22  1  0  0  0  0
  4 11  1  0  0  0  0
  6  7  2  0  0  0  0
  6 12  1  0  0  0  0
  8  9  1  0  0  0  0
  9 10  1  0  0  0  0
 10  5  1  6  0  0  0
 10  1  1  0  0  0  0
 10 15  1  0  0  0  0
 11 18  1  0  0  0  0
 12 13  1  0  0  0  0
 13 11  2  0  0  0  0
 13 17  1  0  0  0  0
 14  3  2  0  0  0  0
 15 19  1  0  0  0  0
 17 20  2  0  0  0  0
 18 16  2  0  0  0  0
 19 21  1  0  0  0  0
 19 12  2  0  0  0  0
 20 16  1  0  0  0  0
 20 26  1  0  0  0  0
 21  4  2  0  0  0  0
 23 24  1  0  0  0  0
 23 22  1  0  0  0  0
 24 25  1  0  0  0  0
 26 27  1  0  0  0  0
 27 28  1  0  0  0  0
 28 31  1  0  0  0  0
 31 30  1  0  0  0  0
 31 29  1  0  0  0  0
 31 32  1  0  0  0  0
M  END
>  <MODEL>
9

>  <REMARK>
 VINA RESULT:      -6.8      3.442      5.779
  Name = 
  7 active torsions:
  status: ('A' for Active; 'I' for Inactive)
    1  A    between atoms: C_6  and  C_8
    2  A    between atoms: C_7  and  O_11
    3  A    between atoms: C_8  and  C_24
    4  A    between atoms: O_11  and  C_16
    5  A    between atoms: C_16  and  O_19
    6  A    between atoms: O_19  and  C_29
    7  A    between atoms: C_20  and  C_24
                            x       y       z     vdW  Elec       q    Type
                         _______ _______ _______ _____ _____    ______ ____

>  <TORSDO>
F 7

$$$$
