=
 OpenBabel11062414523D

 56 62  0  0  1  0  0  0  0  0999 V2000
  188.9000  175.2760  136.9890 C   0  0  1  0  0  3  0  0  0  0  0  0
  187.8500  178.3180  140.6870 C   0  0  2  0  0  3  0  0  0  0  0  0
  185.4970  178.4000  138.9180 C   0  0  0  0  0  2  0  0  0  0  0  0
  181.6820  181.2430  139.2470 O   0  0  0  0  0  0  0  0  0  0  0  0
  184.0610  177.5680  140.8240 C   0  0  0  0  0  2  0  0  0  0  0  0
  182.7100  176.6990  138.0720 C   0  0  0  0  0  0  0  0  0  0  0  0
  183.0850  175.6440  138.6530 O   0  0  0  0  0  0  0  0  0  0  0  0
  186.4970  177.7450  141.1270 C   0  0  0  0  0  2  0  0  0  0  0  0
  190.1970  177.6920  140.0820 C   0  0  0  0  0  2  0  0  0  0  0  0
  187.7290  179.2470  139.5550 N   0  0  0  0  0  2  0  0  0  0  0  0
  188.4610  173.1220  138.1530 C   0  0  0  0  0  2  0  0  0  0  0  0
  188.8000  177.1720  140.3660 C   0  0  0  0  0  2  0  0  0  0  0  0
  191.0130  176.6220  139.3750 C   0  0  1  0  0  3  0  0  0  0  0  0
  190.8810  176.7350  137.8420 C   0  0  1  0  0  3  0  0  0  0  0  0
  185.1630  179.7010  140.8970 O   0  0  0  0  0  1  0  0  0  0  0  0
  186.9450  178.6380  138.4800 C   0  0  0  0  0  2  0  0  0  0  0  0
  187.3740  175.2950  136.8740 C   0  0  0  0  0  2  0  0  0  0  0  0
  182.0350  180.0820  139.3520 C   0  0  0  0  0  0  0  0  0  0  0  0
  183.5070  176.9020  134.5940 O   0  0  0  0  0  0  0  0  0  0  0  0
  184.3490  175.2710  136.0170 N   0  0  0  0  0  2  0  0  0  0  0  0
  186.0570  173.7160  135.3250 C   0  0  0  0  0  0  0  0  0  0  0  0
  186.9620  173.9220  136.4640 C   0  0  0  0  0  0  0  0  0  0  0  0
  192.3470  176.7660  139.7520 O   0  0  0  0  0  1  0  0  0  0  0  0
  191.8360  174.3870  137.6130 C   0  0  0  0  0  2  0  0  0  0  0  0
  190.5710  173.6290  137.2400 C   0  0  0  0  0  2  0  0  0  0  0  0
  182.6930  178.0040  140.2650 C   0  0  1  0  0  3  0  0  0  0  0  0
  182.2180  179.1830  138.1930 C   0  0  0  0  0  2  0  0  0  0  0  0
  191.8220  175.8060  137.0410 C   0  0  2  0  0  3  0  0  0  0  0  0
  185.2970  178.3910  140.4370 C   0  0  1  0  0  0  0  0  0  0  0  0
  182.3140  179.4290  140.6590 C   0  0  0  0  0  2  0  0  0  0  0  0
  185.0610  174.6410  135.0200 O   0  0  0  0  0  0  0  0  0  0  0  0
  189.4190  176.6630  137.3630 C   0  0  0  0  0  2  0  0  0  0  0  0
  183.4280  176.3130  135.7040 C   0  0  0  0  0  0  0  0  0  0  0  0
  187.5380  172.9100  137.0360 N   0  0  0  0  0  0  0  0  0  0  0  0
  189.4110  174.2220  137.8930 N   0  0  1  0  0  0  0  0  0  0  0  0
  182.6230  177.9290  138.8040 N   0  0  0  0  0  0  0  0  0  0  0  0
  182.2960  176.6480  136.6310 C   0  0  1  0  0  3  0  0  0  0  0  0
  186.1950  172.7020  134.5940 O   0  0  0  0  0  0  0  0  0  0  0  0
  194.5890  175.4140  138.6340 O   0  0  0  0  0  0  0  0  0  0  0  0
  194.6950  174.5850  135.1520 C   0  0  0  0  0  3  0  0  0  0  0  0
  193.7080  175.5710  134.5940 C   0  0  0  0  0  2  0  0  0  0  0  0
  193.5810  176.8000  135.4920 C   0  0  0  0  0  2  0  0  0  0  0  0
  194.2790  175.4020  137.4140 C   0  0  0  0  0  0  0  0  0  0  0  0
  193.2440  176.3800  136.9290 C   0  0  2  0  0  3  0  0  0  0  0  0
  194.9410  174.4570  136.4660 C   0  0  0  0  0  0  0  0  0  0  0  0
  197.4140  170.6680  137.0550 C   0  0  0  0  0  3  0  0  0  0  0  0
  198.3450  172.8940  137.5150 C   0  0  0  0  0  2  0  0  0  0  0  0
  196.2360  171.0230  137.8990 C   0  0  0  0  0  2  0  0  0  0  0  0
  198.3900  171.5540  136.8580 C   0  0  0  0  0  3  0  0  0  0  0  0
  197.2070  173.7450  137.0340 C   0  0  0  0  0  3  0  0  0  0  0  0
  195.3540  172.0140  137.1570 C   0  0  0  0  0  2  0  0  0  0  0  0
  195.9010  173.4170  136.9410 C   0  0  0  0  0  0  0  0  0  0  0  0
  181.2310  175.7180  136.4670 O   0  0  0  0  0  0  0  0  0  0  0  0
  180.0080  175.8660  137.1220 C   0  0  0  0  0  0  0  0  0  0  0  0
  179.6050  175.0010  137.9450 O   0  0  0  0  0  0  0  0  0  0  0  0
  179.1990  177.0000  136.8440 N   0  0  0  0  0  1  0  0  0  0  0  0
  1 17  1  1  0  0  0
  1 32  1  0  0  0  0
  1 35  1  0  0  0  0
  2 12  1  6  0  0  0
  2  8  1  0  0  0  0
  3 29  1  0  0  0  0
  4 18  2  0  0  0  0
  6  7  2  0  0  0  0
  6 36  1  0  0  0  0
  9 12  1  0  0  0  0
 10  2  1  0  0  0  0
 13 23  1  6  0  0  0
 13  9  1  0  0  0  0
 14 32  1  1  0  0  0
 14 13  1  0  0  0  0
 16  3  1  0  0  0  0
 16 10  1  0  0  0  0
 18 30  1  0  0  0  0
 19 33  2  0  0  0  0
 21 22  1  0  0  0  0
 22 17  1  0  0  0  0
 22 34  2  0  0  0  0
 25 24  1  0  0  0  0
 26 30  1  6  0  0  0
 26  5  1  0  0  0  0
 27 36  1  0  0  0  0
 27 18  1  0  0  0  0
 28 24  1  1  0  0  0
 28 14  1  0  0  0  0
 29  5  1  0  0  0  0
 29 15  1  1  0  0  0
 29  8  1  0  0  0  0
 31 21  1  0  0  0  0
 31 20  1  0  0  0  0
 33 20  1  0  0  0  0
 33 37  1  0  0  0  0
 34 11  1  0  0  0  0
 35 25  1  6  0  0  0
 35 11  1  0  0  0  0
 36 26  1  0  0  0  0
 37 53  1  1  0  0  0
 37  6  1  0  0  0  0
 38 21  2  0  0  0  0
 40 45  2  0  0  0  0
 41 40  1  0  0  0  0
 41 42  1  0  0  0  0
 43 39  2  0  0  0  0
 44 42  1  6  0  0  0
 44 28  1  0  0  0  0
 44 43  1  0  0  0  0
 45 52  1  0  0  0  0
 45 43  1  0  0  0  0
 46 48  1  0  0  0  0
 49 46  2  0  0  0  0
 49 47  1  0  0  0  0
 50 47  1  0  0  0  0
 51 48  1  0  0  0  0
 52 50  2  0  0  0  0
 52 51  1  0  0  0  0
 53 54  1  0  0  0  0
 54 55  2  0  0  0  0
 56 54  1  0  0  0  0
M  END
>  <MODEL>
1

>  <REMARK>
 VINA RESULT:      -2.9      0.000      0.000
  Name = 
  4 active torsions:
  status: ('A' for Active; 'I' for Inactive)
    1  A    between atoms: C_6  and  O_14
    2  A    between atoms: O_14  and  C_55
    3  A    between atoms: C_41  and  C_48
    4  A    between atoms: C_52  and  C_53
                            x       y       z     vdW  Elec       q    Type
                         _______ _______ _______ _____ _____    ______ ____

>  <TORSDO>
F 4

$$$$
=
 OpenBabel11062414523D

 56 62  0  0  1  0  0  0  0  0999 V2000
  190.7320  176.0860  139.2180 C   0  0  1  0  0  3  0  0  0  0  0  0
  187.0860  177.5920  136.3060 C   0  0  2  0  0  3  0  0  0  0  0  0
  185.8790  177.2920  138.9760 C   0  0  0  0  0  2  0  0  0  0  0  0
  181.2770  177.6680  140.1680 O   0  0  0  0  0  0  0  0  0  0  0  0
  185.2600  179.7420  138.9490 C   0  0  0  0  0  2  0  0  0  0  0  0
  185.5810  178.8020  141.9770 C   0  0  0  0  0  0  0  0  0  0  0  0
  186.5090  179.6240  141.7410 O   0  0  0  0  0  0  0  0  0  0  0  0
  186.5930  178.8060  137.1040 C   0  0  0  0  0  2  0  0  0  0  0  0
  189.1410  176.4670  135.4220 C   0  0  0  0  0  2  0  0  0  0  0  0
  186.5150  176.3280  136.7920 N   0  0  0  0  0  2  0  0  0  0  0  0
  191.8750  178.2720  139.5310 C   0  0  0  0  0  2  0  0  0  0  0  0
  188.6080  177.5590  136.3320 C   0  0  0  0  0  2  0  0  0  0  0  0
  190.5930  176.1730  135.7620 C   0  0  1  0  0  3  0  0  0  0  0  0
  190.7080  175.0610  136.8250 C   0  0  1  0  0  3  0  0  0  0  0  0
  184.3190  178.1740  137.3920 O   0  0  0  0  0  1  0  0  0  0  0  0
  186.6850  176.2160  138.2400 C   0  0  0  0  0  2  0  0  0  0  0  0
  189.7840  176.6560  140.2750 C   0  0  0  0  0  2  0  0  0  0  0  0
  182.3580  178.2120  140.3030 C   0  0  0  0  0  0  0  0  0  0  0  0
  186.5670  175.8280  143.6970 O   0  0  0  0  0  0  0  0  0  0  0  0
  188.0690  177.3650  142.8130 N   0  0  0  0  0  2  0  0  0  0  0  0
  190.4430  176.9530  142.7460 C   0  0  0  0  0  0  0  0  0  0  0  0
  190.6440  177.2740  141.3260 C   0  0  0  0  0  0  0  0  0  0  0  0
  191.2490  175.7880  134.5940 O   0  0  0  0  0  1  0  0  0  0  0  0
  193.1270  175.7360  137.2330 C   0  0  0  0  0  2  0  0  0  0  0  0
  192.9800  176.4210  138.5830 C   0  0  0  0  0  2  0  0  0  0  0  0
  184.1770  179.6990  140.0440 C   0  0  1  0  0  3  0  0  0  0  0  0
  183.3680  177.7750  141.2890 C   0  0  0  0  0  2  0  0  0  0  0  0
  192.1480  174.5680  137.0940 C   0  0  2  0  0  3  0  0  0  0  0  0
  185.4800  178.4830  138.0990 C   0  0  1  0  0  0  0  0  0  0  0  0
  182.7870  179.3860  139.4960 C   0  0  0  0  0  2  0  0  0  0  0  0
  189.1750  176.6710  143.2490 O   0  0  0  0  0  0  0  0  0  0  0  0
  189.9360  175.3890  138.1160 C   0  0  0  0  0  2  0  0  0  0  0  0
  186.7600  176.9820  143.2290 C   0  0  0  0  0  0  0  0  0  0  0  0
  191.6650  177.9790  140.9510 N   0  0  0  0  0  0  0  0  0  0  0  0
  191.6840  177.0820  138.6790 N   0  0  1  0  0  0  0  0  0  0  0  0
  184.4600  178.7120  141.0880 N   0  0  0  0  0  0  0  0  0  0  0  0
  185.6270  177.9660  143.2210 C   0  0  1  0  0  3  0  0  0  0  0  0
  191.4340  176.9060  143.5210 O   0  0  0  0  0  0  0  0  0  0  0  0
  194.3680  174.5590  134.7650 O   0  0  0  0  0  0  0  0  0  0  0  0
  194.7730  172.0410  137.2780 C   0  0  0  0  0  3  0  0  0  0  0  0
  193.3400  171.7600  137.6350 C   0  0  0  0  0  2  0  0  0  0  0  0
  192.4020  172.1100  136.4810 C   0  0  0  0  0  2  0  0  0  0  0  0
  194.0750  173.7570  135.6890 C   0  0  0  0  0  0  0  0  0  0  0  0
  192.6230  173.5610  136.0330 C   0  0  2  0  0  3  0  0  0  0  0  0
  195.1390  172.9980  136.4110 C   0  0  0  0  0  0  0  0  0  0  0  0
  199.1710  174.1230  134.5950 C   0  0  0  0  0  3  0  0  0  0  0  0
  198.7340  174.3660  136.9990 C   0  0  0  0  0  2  0  0  0  0  0  0
  198.6670  172.7210  134.6780 C   0  0  0  0  0  2  0  0  0  0  0  0
  199.1800  174.8990  135.6780 C   0  0  0  0  0  3  0  0  0  0  0  0
  197.2760  174.0090  137.0240 C   0  0  0  0  0  3  0  0  0  0  0  0
  197.1560  172.7290  134.8360 C   0  0  0  0  0  2  0  0  0  0  0  0
  196.5880  173.2460  136.1500 C   0  0  0  0  0  0  0  0  0  0  0  0
  185.6960  178.8090  144.3670 O   0  0  0  0  0  0  0  0  0  0  0  0
  184.6960  178.8260  145.3390 C   0  0  0  0  0  0  0  0  0  0  0  0
  183.4800  178.8870  145.0150 O   0  0  0  0  0  0  0  0  0  0  0  0
  185.0560  178.7900  146.7130 N   0  0  0  0  0  1  0  0  0  0  0  0
  1 32  1  6  0  0  0
  1 17  1  0  0  0  0
  2 12  1  1  0  0  0
  2 10  1  0  0  0  0
  2  8  1  0  0  0  0
  4 18  2  0  0  0  0
  6 37  1  0  0  0  0
  7  6  2  0  0  0  0
  8 29  1  0  0  0  0
  9 13  1  0  0  0  0
  9 12  1  0  0  0  0
 10 16  1  0  0  0  0
 11 34  1  0  0  0  0
 13 23  1  6  0  0  0
 13 14  1  0  0  0  0
 14 28  1  0  0  0  0
 14 32  1  1  0  0  0
 16  3  1  0  0  0  0
 17 22  1  0  0  0  0
 18 27  1  0  0  0  0
 20 33  1  0  0  0  0
 20 31  1  0  0  0  0
 21 31  1  0  0  0  0
 21 38  2  0  0  0  0
 22 21  1  0  0  0  0
 24 25  1  0  0  0  0
 26  5  1  6  0  0  0
 26 36  1  0  0  0  0
 28 24  1  6  0  0  0
 29 15  1  6  0  0  0
 29  5  1  0  0  0  0
 29  3  1  0  0  0  0
 30 26  1  0  0  0  0
 30 18  1  0  0  0  0
 33 19  2  0  0  0  0
 34 22  2  0  0  0  0
 35 25  1  1  0  0  0
 35  1  1  0  0  0  0
 35 11  1  0  0  0  0
 36 27  1  0  0  0  0
 36  6  1  0  0  0  0
 37 33  1  0  0  0  0
 37 53  1  1  0  0  0
 39 43  2  0  0  0  0
 40 41  1  0  0  0  0
 42 41  1  0  0  0  0
 43 44  1  0  0  0  0
 43 45  1  0  0  0  0
 44 42  1  1  0  0  0
 44 28  1  0  0  0  0
 45 40  2  0  0  0  0
 46 48  1  0  0  0  0
 46 49  2  0  0  0  0
 47 50  1  0  0  0  0
 48 51  1  0  0  0  0
 49 47  1  0  0  0  0
 51 52  1  0  0  0  0
 52 45  1  0  0  0  0
 52 50  2  0  0  0  0
 53 54  1  0  0  0  0
 54 56  1  0  0  0  0
 55 54  2  0  0  0  0
M  END
>  <MODEL>
2

>  <REMARK>
 VINA RESULT:      -0.8      2.738      5.425
  Name = 
  4 active torsions:
  status: ('A' for Active; 'I' for Inactive)
    1  A    between atoms: C_6  and  O_14
    2  A    between atoms: O_14  and  C_55
    3  A    between atoms: C_41  and  C_48
    4  A    between atoms: C_52  and  C_53
                            x       y       z     vdW  Elec       q    Type
                         _______ _______ _______ _____ _____    ______ ____

>  <TORSDO>
F 4

$$$$
=
 OpenBabel11062414523D

 56 62  0  0  1  0  0  0  0  0999 V2000
  187.9660  177.3140  139.0620 C   0  0  1  0  0  3  0  0  0  0  0  0
  183.2800  178.1240  137.8690 C   0  0  2  0  0  3  0  0  0  0  0  0
  183.2850  177.7290  140.7880 C   0  0  0  0  0  2  0  0  0  0  0  0
  179.5270  177.4150  143.7070 O   0  0  0  0  0  0  0  0  0  0  0  0
  182.3250  180.0480  141.0820 C   0  0  0  0  0  2  0  0  0  0  0  0
  183.9560  179.2760  143.7080 C   0  0  0  0  0  0  0  0  0  0  0  0
  184.5730  180.2260  143.1510 O   0  0  0  0  0  0  0  0  0  0  0  0
  182.9540  179.2710  138.8330 C   0  0  0  0  0  2  0  0  0  0  0  0
  184.9700  177.3070  136.2130 C   0  0  0  0  0  2  0  0  0  0  0  0
  183.1550  176.8020  138.5010 N   0  0  0  0  0  2  0  0  0  0  0  0
  188.7770  179.6630  138.9670 C   0  0  0  0  0  2  0  0  0  0  0  0
  184.6730  178.3320  137.2920 C   0  0  0  0  0  2  0  0  0  0  0  0
  186.4660  177.2580  135.9440 C   0  0  1  0  0  3  0  0  0  0  0  0
  187.1650  176.2150  136.8410 C   0  0  1  0  0  3  0  0  0  0  0  0
  181.1090  178.2980  139.9740 O   0  0  0  0  0  1  0  0  0  0  0  0
  183.8960  176.7690  139.7610 C   0  0  0  0  0  2  0  0  0  0  0  0
  187.4340  177.7630  140.4240 C   0  0  0  0  0  2  0  0  0  0  0  0
  180.4730  178.1270  143.4220 C   0  0  0  0  0  0  0  0  0  0  0  0
  185.9980  176.5570  144.8090 O   0  0  0  0  0  0  0  0  0  0  0  0
  186.7660  178.2800  143.4520 N   0  0  0  0  0  2  0  0  0  0  0  0
  188.9550  178.2460  142.4440 C   0  0  0  0  0  0  0  0  0  0  0  0
  188.5270  178.5450  141.0700 C   0  0  0  0  0  0  0  0  0  0  0  0
  186.6610  176.9410  134.6010 O   0  0  0  0  0  1  0  0  0  0  0  0
  189.4090  177.2780  136.2840 C   0  0  0  0  0  2  0  0  0  0  0  0
  189.6980  177.9780  137.6030 C   0  0  0  0  0  2  0  0  0  0  0  0
  181.7820  179.8730  142.5130 C   0  0  1  0  0  3  0  0  0  0  0  0
  181.8450  177.8890  143.9170 C   0  0  0  0  0  2  0  0  0  0  0  0
  188.6530  175.9660  136.5060 C   0  0  2  0  0  3  0  0  0  0  0  0
  182.3900  178.8110  140.1760 C   0  0  1  0  0  0  0  0  0  0  0  0
  180.3570  179.3250  142.5480 C   0  0  0  0  0  2  0  0  0  0  0  0
  188.0500  177.7850  143.3960 O   0  0  0  0  0  0  0  0  0  0  0  0
  186.9220  176.4620  138.3410 C   0  0  0  0  0  2  0  0  0  0  0  0
  185.8050  177.7090  144.3390 C   0  0  0  0  0  0  0  0  0  0  0  0
  189.1920  179.3890  140.3440 N   0  0  0  0  0  0  0  0  0  0  0  0
  188.4580  178.4290  138.2220 N   0  0  1  0  0  0  0  0  0  0  0  0
  182.6050  178.9790  143.3310 N   0  0  0  0  0  0  0  0  0  0  0  0
  184.6200  178.5020  144.8080 C   0  0  1  0  0  3  0  0  0  0  0  0
  190.1640  178.3830  142.7630 O   0  0  0  0  0  0  0  0  0  0  0  0
  191.0890  175.0940  134.5940 O   0  0  0  0  0  0  0  0  0  0  0  0
  189.5740  172.4360  136.4530 C   0  0  0  0  0  3  0  0  0  0  0  0
  188.1490  172.9090  136.5180 C   0  0  0  0  0  2  0  0  0  0  0  0
  187.8230  173.8490  135.3600 C   0  0  0  0  0  2  0  0  0  0  0  0
  190.2220  174.4540  135.2430 C   0  0  0  0  0  0  0  0  0  0  0  0
  188.8260  175.0100  135.3130 C   0  0  2  0  0  3  0  0  0  0  0  0
  190.5640  173.1610  135.9070 C   0  0  0  0  0  0  0  0  0  0  0  0
  194.7800  171.8730  137.0820 C   0  0  0  0  0  3  0  0  0  0  0  0
  193.4910  170.6530  135.3850 C   0  0  0  0  0  2  0  0  0  0  0  0
  194.4780  173.1400  136.3530 C   0  0  0  0  0  2  0  0  0  0  0  0
  194.2980  170.7120  136.6390 C   0  0  0  0  0  3  0  0  0  0  0  0
  192.1830  171.3810  135.4940 C   0  0  0  0  0  3  0  0  0  0  0  0
  193.0230  173.5210  136.5700 C   0  0  0  0  0  2  0  0  0  0  0  0
  191.9620  172.6390  135.9280 C   0  0  0  0  0  0  0  0  0  0  0  0
  185.0000  179.3840  145.8590 O   0  0  0  0  0  0  0  0  0  0  0  0
  185.6710  178.9390  146.9980 C   0  0  0  0  0  0  0  0  0  0  0  0
  185.0440  178.4080  147.9530 O   0  0  0  0  0  0  0  0  0  0  0  0
  187.0800  179.1010  147.0860 N   0  0  0  0  0  1  0  0  0  0  0  0
  1 32  1  6  0  0  0
  1 17  1  0  0  0  0
  2 12  1  1  0  0  0
  2 10  1  0  0  0  0
  2  8  1  0  0  0  0
  6 37  1  0  0  0  0
  7  6  2  0  0  0  0
  8 29  1  0  0  0  0
  9 12  1  0  0  0  0
 10 16  1  0  0  0  0
 11 34  1  0  0  0  0
 13 23  1  6  0  0  0
 13  9  1  0  0  0  0
 13 14  1  0  0  0  0
 14 32  1  1  0  0  0
 16  3  1  0  0  0  0
 17 22  1  0  0  0  0
 18  4  2  0  0  0  0
 18 27  1  0  0  0  0
 20 33  1  0  0  0  0
 21 38  2  0  0  0  0
 21 31  1  0  0  0  0
 22 21  1  0  0  0  0
 24 25  1  0  0  0  0
 26  5  1  6  0  0  0
 26 30  1  0  0  0  0
 26 36  1  0  0  0  0
 28 24  1  6  0  0  0
 28 14  1  0  0  0  0
 29 15  1  6  0  0  0
 29  3  1  0  0  0  0
 29  5  1  0  0  0  0
 30 18  1  0  0  0  0
 31 20  1  0  0  0  0
 33 37  1  0  0  0  0
 33 19  2  0  0  0  0
 34 22  2  0  0  0  0
 35 25  1  1  0  0  0
 35 11  1  0  0  0  0
 35  1  1  0  0  0  0
 36  6  1  0  0  0  0
 36 27  1  0  0  0  0
 37 53  1  1  0  0  0
 39 43  2  0  0  0  0
 40 41  1  0  0  0  0
 42 41  1  0  0  0  0
 43 44  1  0  0  0  0
 43 45  1  0  0  0  0
 44 42  1  1  0  0  0
 44 28  1  0  0  0  0
 45 52  1  0  0  0  0
 45 40  2  0  0  0  0
 47 50  1  0  0  0  0
 47 49  1  0  0  0  0
 48 51  1  0  0  0  0
 48 46  1  0  0  0  0
 49 46  2  0  0  0  0
 50 52  2  0  0  0  0
 52 51  1  0  0  0  0
 53 54  1  0  0  0  0
 54 56  1  0  0  0  0
 54 55  2  0  0  0  0
M  END
>  <MODEL>
3

>  <REMARK>
 VINA RESULT:      -0.3      3.089      6.418
  Name = 
  4 active torsions:
  status: ('A' for Active; 'I' for Inactive)
    1  A    between atoms: C_6  and  O_14
    2  A    between atoms: O_14  and  C_55
    3  A    between atoms: C_41  and  C_48
    4  A    between atoms: C_52  and  C_53
                            x       y       z     vdW  Elec       q    Type
                         _______ _______ _______ _____ _____    ______ ____

>  <TORSDO>
F 4

$$$$
