=
 OpenBabel11062418083D

 25 27  0  0  1  0  0  0  0  0999 V2000
  190.7020  177.1870  143.8140 N   0  0  0  0  0  2  0  0  0  0  0  0
  189.4990  176.9840  145.9870 N   0  0  0  0  0  0  0  0  0  0  0  0
  189.6050  176.8420  142.9590 C   0  0  0  0  0  0  0  0  0  0  0  0
  188.6940  176.0810  143.3830 O   0  0  0  0  0  0  0  0  0  0  0  0
  188.0070  176.9720  146.1160 C   0  0  1  0  0  3  0  0  0  0  0  0
  188.7580  176.9050  147.2860 C   0  0  2  0  0  3  0  0  0  0  0  0
  191.8080  177.1280  145.8540 O   0  0  0  0  0  0  0  0  0  0  0  0
  190.7110  177.0800  145.2420 C   0  0  0  0  0  0  0  0  0  0  0  0
  190.6600  177.3000  140.6890 C   0  0  0  0  0  0  0  0  0  0  0  0
  191.8890  176.7940  141.0950 O   0  0  0  0  0  1  0  0  0  0  0  0
  189.2120  178.7590  137.6180 O   0  0  0  0  0  1  0  0  0  0  0  0
  189.3220  178.2910  138.9210 C   0  0  0  0  0  0  0  0  0  0  0  0
  188.2210  178.3410  139.7780 C   0  0  0  0  0  3  0  0  0  0  0  0
  188.3340  177.8690  141.0890 C   0  0  0  0  0  3  0  0  0  0  0  0
  189.5470  177.3370  141.5630 C   0  0  0  0  0  0  0  0  0  0  0  0
  190.5370  177.7780  139.3790 C   0  0  0  0  0  3  0  0  0  0  0  0
  188.9210  178.1970  148.0330 C   0  0  0  0  0  3  0  0  0  0  0  0
  188.3760  178.3480  149.1150 O   0  0  0  0  0  0  0  0  0  0  0  0
  187.5080  178.2490  145.8150 O   0  0  0  0  0  0  0  0  0  0  0  0
  183.9330  179.2320  144.0990 O   0  0  0  0  0  0  0  0  0  0  0  0
  184.6650  178.2390  143.4200 C   0  0  0  0  0  2  0  0  0  0  0  0
  186.2050  178.0280  145.3600 C   0  0  0  0  0  3  0  0  0  0  0  0
  186.1300  178.2840  143.8550 C   0  0  0  0  0  2  0  0  0  0  0  0
  183.8540  178.8310  145.4460 C   0  0  0  0  0  2  0  0  0  0  0  0
  185.2310  178.9390  146.1040 C   0  0  0  0  0  2  0  0  0  0  0  0
  1  8  1  0  0  0  0
  2  5  1  0  0  0  0
  2  6  1  0  0  0  0
  3  4  2  0  0  0  0
  3  1  1  0  0  0  0
  5 19  1  1  0  0  0
  5  6  1  0  0  0  0
  6 17  1  1  0  0  0
  8  7  2  0  0  0  0
  8  2  1  0  0  0  0
  9 10  1  0  0  0  0
  9 15  1  0  0  0  0
 11 12  1  0  0  0  0
 12 16  1  0  0  0  0
 12 13  2  0  0  0  0
 13 14  1  0  0  0  0
 14 15  2  0  0  0  0
 15  3  1  0  0  0  0
 16  9  2  0  0  0  0
 17 18  2  0  0  0  0
 20 24  1  0  0  0  0
 21 23  1  0  0  0  0
 21 20  1  0  0  0  0
 22 19  1  0  0  0  0
 22 25  1  0  0  0  0
 23 22  1  0  0  0  0
 24 25  1  0  0  0  0
M  END
>  <MODEL>
1

>  <REMARK>
 VINA RESULT:      -8.0      0.000      0.000
  Name = 
  4 active torsions:
  status: ('A' for Active; 'I' for Inactive)
    1  A    between atoms: C_4  and  O_13
    2  A    between atoms: C_7  and  C_24
    3  A    between atoms: C_9  and  C_14
    4  A    between atoms: C_12  and  O_13
                            x       y       z     vdW  Elec       q    Type
                         _______ _______ _______ _____ _____    ______ ____

>  <TORSDO>
F 4

$$$$
=
 OpenBabel11062418083D

 25 27  0  0  1  0  0  0  0  0999 V2000
  189.5350  177.5320  143.7930 N   0  0  0  0  0  2  0  0  0  0  0  0
  187.7420  177.5990  145.5220 N   0  0  0  0  0  0  0  0  0  0  0  0
  188.7580  176.9530  142.7370 C   0  0  0  0  0  0  0  0  0  0  0  0
  187.7870  176.1990  143.0150 O   0  0  0  0  0  0  0  0  0  0  0  0
  186.2820  177.4810  145.2120 C   0  0  1  0  0  3  0  0  0  0  0  0
  186.6480  177.6800  146.5400 C   0  0  2  0  0  3  0  0  0  0  0  0
  189.9790  177.9170  146.0390 O   0  0  0  0  0  0  0  0  0  0  0  0
  189.1180  177.6710  145.1550 C   0  0  0  0  0  0  0  0  0  0  0  0
  188.3470  178.0450  140.4760 C   0  0  0  0  0  0  0  0  0  0  0  0
  187.2140  178.7050  140.9380 O   0  0  0  0  0  1  0  0  0  0  0  0
  190.2400  177.8040  137.3120 O   0  0  0  0  0  1  0  0  0  0  0  0
  189.8660  177.6020  138.6350 C   0  0  0  0  0  0  0  0  0  0  0  0
  190.6160  176.7560  139.4530 C   0  0  0  0  0  3  0  0  0  0  0  0
  190.2370  176.5540  140.7830 C   0  0  0  0  0  3  0  0  0  0  0  0
  189.1060  177.1960  141.3170 C   0  0  0  0  0  0  0  0  0  0  0  0
  188.7330  178.2380  139.1450 C   0  0  0  0  0  3  0  0  0  0  0  0
  186.5380  179.0890  147.0460 C   0  0  0  0  0  3  0  0  0  0  0  0
  185.4820  179.4900  147.5070 O   0  0  0  0  0  0  0  0  0  0  0  0
  185.8560  178.6410  144.5450 O   0  0  0  0  0  0  0  0  0  0  0  0
  182.2130  179.3500  142.8370 O   0  0  0  0  0  0  0  0  0  0  0  0
  183.1020  178.5950  142.0480 C   0  0  0  0  0  2  0  0  0  0  0  0
  184.6130  178.3070  144.0020 C   0  0  0  0  0  3  0  0  0  0  0  0
  184.5340  178.7850  142.5520 C   0  0  0  0  0  2  0  0  0  0  0  0
  182.1650  178.7320  144.1020 C   0  0  0  0  0  2  0  0  0  0  0  0
  183.4940  178.9340  144.8320 C   0  0  0  0  0  2  0  0  0  0  0  0
  1  8  1  0  0  0  0
  2  6  1  0  0  0  0
  3  4  2  0  0  0  0
  3  1  1  0  0  0  0
  5 19  1  6  0  0  0
  5  2  1  0  0  0  0
  5  6  1  0  0  0  0
  6 17  1  6  0  0  0
  8  2  1  0  0  0  0
  8  7  2  0  0  0  0
  9 10  1  0  0  0  0
  9 15  1  0  0  0  0
 11 12  1  0  0  0  0
 12 16  1  0  0  0  0
 12 13  2  0  0  0  0
 13 14  1  0  0  0  0
 14 15  2  0  0  0  0
 15  3  1  0  0  0  0
 16  9  2  0  0  0  0
 17 18  2  0  0  0  0
 20 24  1  0  0  0  0
 21 23  1  0  0  0  0
 21 20  1  0  0  0  0
 22 19  1  0  0  0  0
 22 25  1  0  0  0  0
 23 22  1  0  0  0  0
 24 25  1  0  0  0  0
M  END
>  <MODEL>
2

>  <REMARK>
 VINA RESULT:      -7.6      1.785      2.253
  Name = 
  4 active torsions:
  status: ('A' for Active; 'I' for Inactive)
    1  A    between atoms: C_4  and  O_13
    2  A    between atoms: C_7  and  C_24
    3  A    between atoms: C_9  and  C_14
    4  A    between atoms: C_12  and  O_13
                            x       y       z     vdW  Elec       q    Type
                         _______ _______ _______ _____ _____    ______ ____

>  <TORSDO>
F 4

$$$$
=
 OpenBabel11062418083D

 25 27  0  0  1  0  0  0  0  0999 V2000
  187.7860  178.0930  141.7270 N   0  0  0  0  0  2  0  0  0  0  0  0
  189.9120  177.1460  140.8360 N   0  0  0  0  0  0  0  0  0  0  0  0
  187.6700  177.2460  142.8770 C   0  0  0  0  0  0  0  0  0  0  0  0
  188.1670  176.0880  142.8560 O   0  0  0  0  0  0  0  0  0  0  0  0
  190.8540  176.3070  141.6430 C   0  0  1  0  0  3  0  0  0  0  0  0
  191.2130  176.6040  140.3310 C   0  0  2  0  0  3  0  0  0  0  0  0
  188.5540  178.5460  139.5830 O   0  0  0  0  0  0  0  0  0  0  0  0
  188.7350  177.9330  140.6670 C   0  0  0  0  0  0  0  0  0  0  0  0
  185.5920  178.1410  144.0410 C   0  0  0  0  0  0  0  0  0  0  0  0
  184.8740  178.1790  142.8520 O   0  0  0  0  0  1  0  0  0  0  0  0
  184.9850  178.9320  147.5990 O   0  0  0  0  0  1  0  0  0  0  0  0
  185.6300  178.5260  146.4380 C   0  0  0  0  0  0  0  0  0  0  0  0
  186.9590  178.1020  146.4890 C   0  0  0  0  0  3  0  0  0  0  0  0
  187.6070  177.6930  145.3190 C   0  0  0  0  0  3  0  0  0  0  0  0
  186.9370  177.7000  144.0830 C   0  0  0  0  0  0  0  0  0  0  0  0
  184.9540  178.5500  145.2170 C   0  0  0  0  0  3  0  0  0  0  0  0
  192.1910  177.7300  140.1600 C   0  0  0  0  0  3  0  0  0  0  0  0
  193.3380  177.4930  139.8170 O   0  0  0  0  0  0  0  0  0  0  0  0
  191.4720  177.1110  142.6130 O   0  0  0  0  0  0  0  0  0  0  0  0
  192.2220  175.8290  146.4190 O   0  0  0  0  0  0  0  0  0  0  0  0
  191.1730  176.7620  146.3020 C   0  0  0  0  0  2  0  0  0  0  0  0
  191.1870  176.4880  143.8310 C   0  0  0  0  0  3  0  0  0  0  0  0
  191.2830  177.5040  144.9700 C   0  0  0  0  0  2  0  0  0  0  0  0
  191.9620  174.8050  145.4890 C   0  0  0  0  0  2  0  0  0  0  0  0
  192.1570  175.3320  144.0650 C   0  0  0  0  0  2  0  0  0  0  0  0
  1  3  1  0  0  0  0
  2  5  1  0  0  0  0
  3 15  1  0  0  0  0
  4  3  2  0  0  0  0
  5 19  1  1  0  0  0
  6 17  1  1  0  0  0
  6  2  1  0  0  0  0
  6  5  1  0  0  0  0
  7  8  2  0  0  0  0
  8  2  1  0  0  0  0
  8  1  1  0  0  0  0
  9 15  2  0  0  0  0
  9 16  1  0  0  0  0
 10  9  1  0  0  0  0
 12 13  1  0  0  0  0
 12 11  1  0  0  0  0
 14 13  2  0  0  0  0
 15 14  1  0  0  0  0
 16 12  2  0  0  0  0
 18 17  2  0  0  0  0
 19 22  1  0  0  0  0
 21 20  1  0  0  0  0
 22 25  1  0  0  0  0
 22 23  1  0  0  0  0
 23 21  1  0  0  0  0
 24 20  1  0  0  0  0
 25 24  1  0  0  0  0
M  END
>  <MODEL>
3

>  <REMARK>
 VINA RESULT:      -7.5      2.017      6.884
  Name = 
  4 active torsions:
  status: ('A' for Active; 'I' for Inactive)
    1  A    between atoms: C_4  and  O_13
    2  A    between atoms: C_7  and  C_24
    3  A    between atoms: C_9  and  C_14
    4  A    between atoms: C_12  and  O_13
                            x       y       z     vdW  Elec       q    Type
                         _______ _______ _______ _____ _____    ______ ____

>  <TORSDO>
F 4

$$$$
=
 OpenBabel11062418083D

 25 27  0  0  1  0  0  0  0  0999 V2000
  186.4130  178.5970  142.7340 N   0  0  0  0  0  2  0  0  0  0  0  0
  187.6040  178.0610  140.6120 N   0  0  0  0  0  0  0  0  0  0  0  0
  187.0410  177.6070  143.5580 C   0  0  0  0  0  0  0  0  0  0  0  0
  187.4630  176.5370  143.0420 O   0  0  0  0  0  0  0  0  0  0  0  0
  188.8690  177.2620  140.5450 C   0  0  1  0  0  3  0  0  0  0  0  0
  188.3570  177.7640  139.3520 C   0  0  2  0  0  3  0  0  0  0  0  0
  185.7210  179.4110  140.6730 O   0  0  0  0  0  0  0  0  0  0  0  0
  186.5380  178.6980  141.3120 C   0  0  0  0  0  0  0  0  0  0  0  0
  186.1210  178.3370  145.8150 C   0  0  0  0  0  0  0  0  0  0  0  0
  184.9040  178.7120  145.2600 O   0  0  0  0  0  1  0  0  0  0  0  0
  187.6690  178.2850  149.1700 O   0  0  0  0  0  1  0  0  0  0  0  0
  187.5040  178.1270  147.8000 C   0  0  0  0  0  0  0  0  0  0  0  0
  188.5440  177.6110  147.0250 C   0  0  0  0  0  3  0  0  0  0  0  0
  188.3760  177.4530  145.6460 C   0  0  0  0  0  3  0  0  0  0  0  0
  187.1670  177.8060  145.0220 C   0  0  0  0  0  0  0  0  0  0  0  0
  186.3010  178.4940  147.1940 C   0  0  0  0  0  3  0  0  0  0  0  0
  188.9970  179.0230  138.8440 C   0  0  0  0  0  3  0  0  0  0  0  0
  188.8000  179.3860  137.6960 O   0  0  0  0  0  0  0  0  0  0  0  0
  189.9200  178.0150  141.0920 O   0  0  0  0  0  0  0  0  0  0  0  0
  192.0360  176.2580  144.1130 O   0  0  0  0  0  0  0  0  0  0  0  0
  191.5510  177.5490  144.3990 C   0  0  0  0  0  2  0  0  0  0  0  0
  190.1220  177.4790  142.3660 C   0  0  0  0  0  3  0  0  0  0  0  0
  191.2030  178.2750  143.0990 C   0  0  0  0  0  2  0  0  0  0  0  0
  190.9420  175.5080  143.6400 C   0  0  0  0  0  2  0  0  0  0  0  0
  190.5240  176.0090  142.2560 C   0  0  0  0  0  2  0  0  0  0  0  0
  1  3  1  0  0  0  0
  2  8  1  0  0  0  0
  3 15  1  0  0  0  0
  4  3  2  0  0  0  0
  5  2  1  0  0  0  0
  5 19  1  1  0  0  0
  6 17  1  1  0  0  0
  6  5  1  0  0  0  0
  6  2  1  0  0  0  0
  7  8  2  0  0  0  0
  8  1  1  0  0  0  0
  9 16  1  0  0  0  0
 10  9  1  0  0  0  0
 12 11  1  0  0  0  0
 13 12  1  0  0  0  0
 14 13  2  0  0  0  0
 15 14  1  0  0  0  0
 15  9  2  0  0  0  0
 16 12  2  0  0  0  0
 18 17  2  0  0  0  0
 19 22  1  0  0  0  0
 20 21  1  0  0  0  0
 22 23  1  0  0  0  0
 23 21  1  0  0  0  0
 24 20  1  0  0  0  0
 25 22  1  0  0  0  0
 25 24  1  0  0  0  0
M  END
>  <MODEL>
4

>  <REMARK>
 VINA RESULT:      -7.5      1.998      7.232
  Name = 
  4 active torsions:
  status: ('A' for Active; 'I' for Inactive)
    1  A    between atoms: C_4  and  O_13
    2  A    between atoms: C_7  and  C_24
    3  A    between atoms: C_9  and  C_14
    4  A    between atoms: C_12  and  O_13
                            x       y       z     vdW  Elec       q    Type
                         _______ _______ _______ _____ _____    ______ ____

>  <TORSDO>
F 4

$$$$
=
 OpenBabel11062418083D

 25 27  0  0  1  0  0  0  0  0999 V2000
  188.1780  178.1680  142.4680 N   0  0  0  0  0  2  0  0  0  0  0  0
  188.2600  177.7970  140.0060 N   0  0  0  0  0  0  0  0  0  0  0  0
  188.9100  177.0000  142.8600 C   0  0  0  0  0  0  0  0  0  0  0  0
  188.8840  175.9710  142.1320 O   0  0  0  0  0  0  0  0  0  0  0  0
  189.2210  176.8650  139.3350 C   0  0  1  0  0  3  0  0  0  0  0  0
  188.3530  177.5920  138.5260 C   0  0  2  0  0  3  0  0  0  0  0  0
  186.8410  179.3480  140.9820 O   0  0  0  0  0  0  0  0  0  0  0  0
  187.7120  178.4550  141.1460 C   0  0  0  0  0  0  0  0  0  0  0  0
  191.0750  176.8240  144.1840 C   0  0  0  0  0  0  0  0  0  0  0  0
  191.8370  176.6940  143.0290 O   0  0  0  0  0  1  0  0  0  0  0  0
  191.6770  176.9300  147.8280 O   0  0  0  0  0  1  0  0  0  0  0  0
  191.0130  176.9420  146.6090 C   0  0  0  0  0  0  0  0  0  0  0  0
  189.6240  177.0780  146.5700 C   0  0  0  0  0  3  0  0  0  0  0  0
  188.9580  177.0900  145.3400 C   0  0  0  0  0  3  0  0  0  0  0  0
  189.6680  176.9700  144.1330 C   0  0  0  0  0  0  0  0  0  0  0  0
  191.7320  176.8100  145.4200 C   0  0  0  0  0  3  0  0  0  0  0  0
  188.9310  178.8210  137.8860 C   0  0  0  0  0  3  0  0  0  0  0  0
  188.2190  179.5510  137.2150 O   0  0  0  0  0  0  0  0  0  0  0  0
  190.5180  177.3950  139.4250 O   0  0  0  0  0  0  0  0  0  0  0  0
  192.8900  175.1640  136.9580 O   0  0  0  0  0  0  0  0  0  0  0  0
  193.5510  175.7320  138.0640 C   0  0  0  0  0  2  0  0  0  0  0  0
  191.3630  176.3390  139.0780 C   0  0  0  0  0  3  0  0  0  0  0  0
  192.7200  176.8840  138.6320 C   0  0  0  0  0  2  0  0  0  0  0  0
  191.7590  174.4920  137.4600 C   0  0  0  0  0  2  0  0  0  0  0  0
  190.7300  175.5070  137.9640 C   0  0  0  0  0  2  0  0  0  0  0  0
  1  3  1  0  0  0  0
  2  8  1  0  0  0  0
  3 15  1  0  0  0  0
  4  3  2  0  0  0  0
  5 19  1  6  0  0  0
  5  2  1  0  0  0  0
  6 17  1  6  0  0  0
  6  5  1  0  0  0  0
  6  2  1  0  0  0  0
  7  8  2  0  0  0  0
  8  1  1  0  0  0  0
  9 16  1  0  0  0  0
 10  9  1  0  0  0  0
 12 11  1  0  0  0  0
 13 12  1  0  0  0  0
 14 13  2  0  0  0  0
 15  9  2  0  0  0  0
 15 14  1  0  0  0  0
 16 12  2  0  0  0  0
 18 17  2  0  0  0  0
 20 24  1  0  0  0  0
 20 21  1  0  0  0  0
 21 23  1  0  0  0  0
 22 19  1  0  0  0  0
 23 22  1  0  0  0  0
 24 25  1  0  0  0  0
 25 22  1  0  0  0  0
M  END
>  <MODEL>
5

>  <REMARK>
 VINA RESULT:      -7.3      2.761      7.790
  Name = 
  4 active torsions:
  status: ('A' for Active; 'I' for Inactive)
    1  A    between atoms: C_4  and  O_13
    2  A    between atoms: C_7  and  C_24
    3  A    between atoms: C_9  and  C_14
    4  A    between atoms: C_12  and  O_13
                            x       y       z     vdW  Elec       q    Type
                         _______ _______ _______ _____ _____    ______ ____

>  <TORSDO>
F 4

$$$$
=
 OpenBabel11062418083D

 25 27  0  0  1  0  0  0  0  0999 V2000
  186.8900  178.4210  142.6100 N   0  0  0  0  0  2  0  0  0  0  0  0
  187.6700  177.9790  140.2840 N   0  0  0  0  0  0  0  0  0  0  0  0
  187.6320  177.3800  143.2580 C   0  0  0  0  0  0  0  0  0  0  0  0
  187.9290  176.3330  142.6220 O   0  0  0  0  0  0  0  0  0  0  0  0
  188.8830  177.1680  139.9520 C   0  0  1  0  0  3  0  0  0  0  0  0
  188.1780  177.7380  138.8970 C   0  0  2  0  0  3  0  0  0  0  0  0
  185.8600  179.3510  140.7490 O   0  0  0  0  0  0  0  0  0  0  0  0
  186.7600  178.5940  141.1950 C   0  0  0  0  0  0  0  0  0  0  0  0
  189.3620  177.3760  145.1240 C   0  0  0  0  0  0  0  0  0  0  0  0
  190.4010  177.1270  144.2360 O   0  0  0  0  0  1  0  0  0  0  0  0
  188.9710  177.8930  148.7620 O   0  0  0  0  0  1  0  0  0  0  0  0
  188.6570  177.7630  147.4150 C   0  0  0  0  0  0  0  0  0  0  0  0
  187.3310  177.8780  146.9920 C   0  0  0  0  0  3  0  0  0  0  0  0
  187.0180  177.7450  145.6360 C   0  0  0  0  0  3  0  0  0  0  0  0
  188.0220  177.5000  144.6830 C   0  0  0  0  0  0  0  0  0  0  0  0
  189.6640  177.5070  146.4840 C   0  0  0  0  0  3  0  0  0  0  0  0
  188.7460  179.0130  138.3440 C   0  0  0  0  0  3  0  0  0  0  0  0
  188.4400  179.3800  137.2210 O   0  0  0  0  0  0  0  0  0  0  0  0
  190.0320  177.8760  140.3370 O   0  0  0  0  0  0  0  0  0  0  0  0
  193.5940  176.7370  138.6920 O   0  0  0  0  0  0  0  0  0  0  0  0
  193.5680  176.7540  140.1000 C   0  0  0  0  0  2  0  0  0  0  0  0
  191.0960  177.0120  140.0650 C   0  0  0  0  0  3  0  0  0  0  0  0
  192.4010  177.6130  140.5880 C   0  0  0  0  0  2  0  0  0  0  0  0
  192.4800  175.9850  138.2730 C   0  0  0  0  0  2  0  0  0  0  0  0
  191.1910  176.7570  138.5620 C   0  0  0  0  0  2  0  0  0  0  0  0
  1  3  1  0  0  0  0
  2  8  1  0  0  0  0
  3 15  1  0  0  0  0
  4  3  2  0  0  0  0
  5  2  1  0  0  0  0
  5 19  1  1  0  0  0
  6 17  1  1  0  0  0
  6  5  1  0  0  0  0
  6  2  1  0  0  0  0
  7  8  2  0  0  0  0
  8  1  1  0  0  0  0
  9 16  1  0  0  0  0
 10  9  1  0  0  0  0
 12 11  1  0  0  0  0
 13 12  1  0  0  0  0
 14 13  2  0  0  0  0
 15  9  2  0  0  0  0
 15 14  1  0  0  0  0
 16 12  2  0  0  0  0
 18 17  2  0  0  0  0
 20 21  1  0  0  0  0
 21 23  1  0  0  0  0
 22 19  1  0  0  0  0
 22 23  1  0  0  0  0
 24 25  1  0  0  0  0
 24 20  1  0  0  0  0
 25 22  1  0  0  0  0
M  END
>  <MODEL>
6

>  <REMARK>
 VINA RESULT:      -7.2      2.238      7.670
  Name = 
  4 active torsions:
  status: ('A' for Active; 'I' for Inactive)
    1  A    between atoms: C_4  and  O_13
    2  A    between atoms: C_7  and  C_24
    3  A    between atoms: C_9  and  C_14
    4  A    between atoms: C_12  and  O_13
                            x       y       z     vdW  Elec       q    Type
                         _______ _______ _______ _____ _____    ______ ____

>  <TORSDO>
F 4

$$$$
=
 OpenBabel11062418083D

 25 27  0  0  1  0  0  0  0  0999 V2000
  184.3010  178.9720  145.5970 N   0  0  0  0  0  2  0  0  0  0  0  0
  186.7170  178.4550  145.9210 N   0  0  0  0  0  0  0  0  0  0  0  0
  184.3370  179.1600  144.1770 C   0  0  0  0  0  0  0  0  0  0  0  0
  185.3960  179.5620  143.6250 O   0  0  0  0  0  0  0  0  0  0  0  0
  187.6370  178.0450  144.8140 C   0  0  1  0  0  3  0  0  0  0  0  0
  188.1600  178.1000  146.1020 C   0  0  2  0  0  3  0  0  0  0  0  0
  185.3060  178.9570  147.6900 O   0  0  0  0  0  0  0  0  0  0  0  0
  185.4430  178.8200  146.4470 C   0  0  0  0  0  0  0  0  0  0  0  0
  183.1950  178.6270  141.9670 C   0  0  0  0  0  0  0  0  0  0  0  0
  184.4090  178.5420  141.2960 O   0  0  0  0  0  1  0  0  0  0  0  0
  179.6120  178.2580  141.1430 O   0  0  0  0  0  1  0  0  0  0  0  0
  180.7730  178.4790  141.8720 C   0  0  0  0  0  0  0  0  0  0  0  0
  180.6980  178.7800  143.2330 C   0  0  0  0  0  3  0  0  0  0  0  0
  181.8680  179.0030  143.9640 C   0  0  0  0  0  3  0  0  0  0  0  0
  183.1300  178.9250  143.3490 C   0  0  0  0  0  0  0  0  0  0  0  0
  182.0170  178.4090  141.2430 C   0  0  0  0  0  3  0  0  0  0  0  0
  188.2650  176.7860  146.8210 C   0  0  0  0  0  3  0  0  0  0  0  0
  188.3050  176.7590  148.0410 O   0  0  0  0  0  0  0  0  0  0  0  0
  187.2910  176.7570  144.3780 O   0  0  0  0  0  0  0  0  0  0  0  0
  190.0270  177.6390  141.4740 O   0  0  0  0  0  0  0  0  0  0  0  0
  190.1880  176.3780  142.0800 C   0  0  0  0  0  2  0  0  0  0  0  0
  187.9600  176.5960  143.1620 C   0  0  0  0  0  3  0  0  0  0  0  0
  189.4470  176.3430  143.4170 C   0  0  0  0  0  2  0  0  0  0  0  0
  188.6810  177.7270  141.0680 C   0  0  0  0  0  2  0  0  0  0  0  0
  187.7720  177.8390  142.2940 C   0  0  0  0  0  2  0  0  0  0  0  0
  1  8  1  0  0  0  0
  2  6  1  0  0  0  0
  2  8  1  0  0  0  0
  3  1  1  0  0  0  0
  4  3  2  0  0  0  0
  5 19  1  1  0  0  0
  5  2  1  0  0  0  0
  5  6  1  0  0  0  0
  6 17  1  1  0  0  0
  8  7  2  0  0  0  0
  9 15  1  0  0  0  0
 10  9  1  0  0  0  0
 11 12  1  0  0  0  0
 12 13  2  0  0  0  0
 13 14  1  0  0  0  0
 15 14  2  0  0  0  0
 15  3  1  0  0  0  0
 16 12  1  0  0  0  0
 16  9  2  0  0  0  0
 17 18  2  0  0  0  0
 20 21  1  0  0  0  0
 21 23  1  0  0  0  0
 22 23  1  0  0  0  0
 22 19  1  0  0  0  0
 24 20  1  0  0  0  0
 24 25  1  0  0  0  0
 25 22  1  0  0  0  0
M  END
>  <MODEL>
7

>  <REMARK>
 VINA RESULT:      -7.2      2.613      6.117
  Name = 
  4 active torsions:
  status: ('A' for Active; 'I' for Inactive)
    1  A    between atoms: C_4  and  O_13
    2  A    between atoms: C_7  and  C_24
    3  A    between atoms: C_9  and  C_14
    4  A    between atoms: C_12  and  O_13
                            x       y       z     vdW  Elec       q    Type
                         _______ _______ _______ _____ _____    ______ ____

>  <TORSDO>
F 4

$$$$
=
 OpenBabel11062418083D

 25 27  0  0  1  0  0  0  0  0999 V2000
  188.5070  177.5850  140.3740 N   0  0  0  0  0  2  0  0  0  0  0  0
  186.2460  178.4660  139.8060 N   0  0  0  0  0  0  0  0  0  0  0  0
  188.6790  178.2910  141.6090 C   0  0  0  0  0  0  0  0  0  0  0  0
  188.1080  179.4010  141.7820 O   0  0  0  0  0  0  0  0  0  0  0  0
  185.3350  179.1240  140.7950 C   0  0  1  0  0  3  0  0  0  0  0  0
  184.8690  178.9630  139.4940 C   0  0  2  0  0  3  0  0  0  0  0  0
  187.5640  177.3390  138.2670 O   0  0  0  0  0  0  0  0  0  0  0  0
  187.4500  177.7990  139.4320 C   0  0  0  0  0  0  0  0  0  0  0  0
  190.9030  177.3830  142.4480 C   0  0  0  0  0  0  0  0  0  0  0  0
  191.4890  177.5030  141.1930 O   0  0  0  0  0  1  0  0  0  0  0  0
  191.9210  176.2570  145.8170 O   0  0  0  0  0  1  0  0  0  0  0  0
  191.1390  176.7500  144.7800 C   0  0  0  0  0  0  0  0  0  0  0  0
  189.8090  177.1020  145.0140 C   0  0  0  0  0  3  0  0  0  0  0  0
  189.0230  177.5970  143.9690 C   0  0  0  0  0  3  0  0  0  0  0  0
  189.5550  177.7510  142.6760 C   0  0  0  0  0  0  0  0  0  0  0  0
  191.6800  176.8850  143.5000 C   0  0  0  0  0  3  0  0  0  0  0  0
  183.9550  177.7950  139.2650 C   0  0  0  0  0  3  0  0  0  0  0  0
  184.1080  177.0830  138.2860 O   0  0  0  0  0  0  0  0  0  0  0  0
  184.8690  178.1620  141.7050 O   0  0  0  0  0  0  0  0  0  0  0  0
  183.8390  178.6360  145.6300 O   0  0  0  0  0  0  0  0  0  0  0  0
  185.1880  178.9110  145.3320 C   0  0  0  0  0  2  0  0  0  0  0  0
  184.6760  178.8600  142.8990 C   0  0  0  0  0  3  0  0  0  0  0  0
  185.5660  178.2720  143.9950 C   0  0  0  0  0  2  0  0  0  0  0  0
  183.0620  179.3770  144.7180 C   0  0  0  0  0  2  0  0  0  0  0  0
  183.2070  178.7910  143.3120 C   0  0  0  0  0  2  0  0  0  0  0  0
  1  3  1  0  0  0  0
  2  5  1  0  0  0  0
  3  4  2  0  0  0  0
  3 15  1  0  0  0  0
  5 19  1  1  0  0  0
  6 17  1  1  0  0  0
  6  2  1  0  0  0  0
  6  5  1  0  0  0  0
  7  8  2  0  0  0  0
  8  2  1  0  0  0  0
  8  1  1  0  0  0  0
  9 15  2  0  0  0  0
  9 16  1  0  0  0  0
 10  9  1  0  0  0  0
 12 13  1  0  0  0  0
 12 11  1  0  0  0  0
 14 13  2  0  0  0  0
 15 14  1  0  0  0  0
 16 12  2  0  0  0  0
 18 17  2  0  0  0  0
 19 22  1  0  0  0  0
 21 20  1  0  0  0  0
 22 25  1  0  0  0  0
 22 23  1  0  0  0  0
 23 21  1  0  0  0  0
 24 20  1  0  0  0  0
 25 24  1  0  0  0  0
M  END
>  <MODEL>
8

>  <REMARK>
 VINA RESULT:      -7.2      2.608      5.675
  Name = 
  4 active torsions:
  status: ('A' for Active; 'I' for Inactive)
    1  A    between atoms: C_4  and  O_13
    2  A    between atoms: C_7  and  C_24
    3  A    between atoms: C_9  and  C_14
    4  A    between atoms: C_12  and  O_13
                            x       y       z     vdW  Elec       q    Type
                         _______ _______ _______ _____ _____    ______ ____

>  <TORSDO>
F 4

$$$$
=
 OpenBabel11062418083D

 25 27  0  0  1  0  0  0  0  0999 V2000
  185.9680  177.8320  143.5680 N   0  0  0  0  0  2  0  0  0  0  0  0
  188.2770  177.8760  142.6320 N   0  0  0  0  0  0  0  0  0  0  0  0
  185.3750  178.7570  142.6490 C   0  0  0  0  0  0  0  0  0  0  0  0
  186.0820  179.6550  142.1180 O   0  0  0  0  0  0  0  0  0  0  0  0
  188.6120  178.3870  141.2650 C   0  0  1  0  0  3  0  0  0  0  0  0
  189.6500  177.8720  142.0360 C   0  0  2  0  0  3  0  0  0  0  0  0
  187.7940  176.9550  144.7030 O   0  0  0  0  0  0  0  0  0  0  0  0
  187.3670  177.5510  143.6810 C   0  0  0  0  0  0  0  0  0  0  0  0
  182.9270  179.0060  143.3000 C   0  0  0  0  0  0  0  0  0  0  0  0
  183.2530  179.3780  144.5990 O   0  0  0  0  0  1  0  0  0  0  0  0
  179.8510  178.5140  141.3130 O   0  0  0  0  0  1  0  0  0  0  0  0
  181.1970  178.5740  141.6530 C   0  0  0  0  0  0  0  0  0  0  0  0
  182.1720  178.2620  140.7050 C   0  0  0  0  0  3  0  0  0  0  0  0
  183.5260  178.3230  141.0500 C   0  0  0  0  0  3  0  0  0  0  0  0
  183.9250  178.7000  142.3440 C   0  0  0  0  0  0  0  0  0  0  0  0
  181.5750  178.9380  142.9460 C   0  0  0  0  0  3  0  0  0  0  0  0
  190.0570  176.4610  141.7260 C   0  0  0  0  0  3  0  0  0  0  0  0
  190.1770  175.6490  142.6290 O   0  0  0  0  0  0  0  0  0  0  0  0
  188.1040  177.5000  140.3030 O   0  0  0  0  0  0  0  0  0  0  0  0
  187.9560  178.1280  136.2690 O   0  0  0  0  0  0  0  0  0  0  0  0
  186.8060  178.5300  136.9750 C   0  0  0  0  0  2  0  0  0  0  0  0
  188.0160  178.2530  139.1300 C   0  0  0  0  0  3  0  0  0  0  0  0
  186.7700  177.8460  138.3430 C   0  0  0  0  0  2  0  0  0  0  0  0
  189.0600  178.7130  136.9200 C   0  0  0  0  0  2  0  0  0  0  0  0
  189.2710  178.0510  138.2830 C   0  0  0  0  0  2  0  0  0  0  0  0
  1  8  1  0  0  0  0
  2  8  1  0  0  0  0
  3  1  1  0  0  0  0
  4  3  2  0  0  0  0
  5 19  1  6  0  0  0
  5  6  1  0  0  0  0
  5  2  1  0  0  0  0
  6 17  1  6  0  0  0
  6  2  1  0  0  0  0
  8  7  2  0  0  0  0
  9 10  1  0  0  0  0
 11 12  1  0  0  0  0
 12 16  2  0  0  0  0
 13 14  2  0  0  0  0
 13 12  1  0  0  0  0
 14 15  1  0  0  0  0
 15  3  1  0  0  0  0
 15  9  2  0  0  0  0
 16  9  1  0  0  0  0
 17 18  2  0  0  0  0
 20 24  1  0  0  0  0
 20 21  1  0  0  0  0
 21 23  1  0  0  0  0
 22 19  1  0  0  0  0
 23 22  1  0  0  0  0
 24 25  1  0  0  0  0
 25 22  1  0  0  0  0
M  END
>  <MODEL>
9

>  <REMARK>
 VINA RESULT:      -7.1      2.571      6.920
  Name = 
  4 active torsions:
  status: ('A' for Active; 'I' for Inactive)
    1  A    between atoms: C_4  and  O_13
    2  A    between atoms: C_7  and  C_24
    3  A    between atoms: C_9  and  C_14
    4  A    between atoms: C_12  and  O_13
                            x       y       z     vdW  Elec       q    Type
                         _______ _______ _______ _____ _____    ______ ____

>  <TORSDO>
F 4

$$$$
