=
 OpenBabel11062415003D

 31 34  0  0  1  0  0  0  0  0999 V2000
  184.3010  178.2130  142.0130 C   0  0  0  0  0  3  0  0  0  0  0  0
  183.3360  178.7340  142.7540 C   0  0  0  0  0  2  0  0  0  0  0  0
  181.7070  177.3290  140.4390 C   0  0  0  0  0  0  0  0  0  0  0  0
  181.9640  179.0060  142.3160 C   0  0  0  0  0  3  0  0  0  0  0  0
  184.6250  178.8140  139.5240 C   0  0  0  0  0  0  0  0  0  0  0  0
  183.8110  177.1790  137.7390 C   0  0  2  0  0  3  0  0  0  0  0  0
  178.9310  178.1780  140.2620 C   0  0  0  0  0  2  0  0  0  0  0  0
  182.9940  177.0760  140.1070 C   0  0  0  0  0  0  0  0  0  0  0  0
  184.8200  179.9920  139.7720 O   0  0  0  0  0  0  0  0  0  0  0  0
  180.6450  176.4890  139.7660 C   0  0  0  0  0  2  0  0  0  0  0  0
  183.3340  176.2610  138.8900 C   0  0  0  0  0  2  0  0  0  0  0  0
  179.2610  176.7030  140.3540 C   0  0  0  0  0  2  0  0  0  0  0  0
  181.2610  178.4770  141.3060 C   0  0  0  0  0  0  0  0  0  0  0  0
  179.8300  178.9900  141.1910 C   0  0  1  0  0  3  0  0  0  0  0  0
  184.8460  178.2640  138.1350 C   0  0  2  0  0  3  0  0  0  0  0  0
  184.1660  177.8580  140.5740 C   0  0  0  0  0  0  0  0  0  0  0  0
  186.2380  177.7390  137.9960 C   0  0  0  0  0  0  0  0  0  0  0  0
  187.8780  176.5260  137.3560 N   0  0  0  0  0  0  0  0  0  0  0  0
  187.2850  178.2340  138.6820 N   0  0  0  0  0  0  0  0  0  0  0  0
  189.6950  177.5780  138.7090 C   0  0  0  0  0  1  0  0  0  0  0  0
  188.2870  177.4470  138.2460 C   0  0  0  0  0  0  0  0  0  0  0  0
  186.5790  176.7080  137.1990 N   0  0  0  0  0  2  0  0  0  0  0  0
  182.6660  177.7570  136.9690 C   0  0  0  0  0  0  0  0  0  0  0  0
  182.2040  177.1370  135.7750 N   0  0  0  0  0  1  0  0  0  0  0  0
  182.1050  178.8030  137.3880 O   0  0  0  0  0  0  0  0  0  0  0  0
  179.7100  180.4830  140.8430 C   0  0  2  0  0  3  0  0  0  0  0  0
  178.9340  181.2590  141.8940 C   0  0  0  0  0  1  0  0  0  0  0  0
  179.0900  181.4800  137.1480 C   0  0  0  0  0  1  0  0  0  0  0  0
  179.1000  180.6770  139.5350 N   0  0  0  0  0  2  0  0  0  0  0  0
  179.7670  181.3480  138.4640 C   0  0  0  0  0  0  0  0  0  0  0  0
  180.9220  181.8250  138.6190 O   0  0  0  0  0  0  0  0  0  0  0  0
  1  2  1  0  0  0  0
  3 13  1  0  0  0  0
  4  2  1  0  0  0  0
  5  9  2  0  0  0  0
  5 16  1  0  0  0  0
  6 23  1  1  0  0  0
  6 15  1  0  0  0  0
  6 11  1  0  0  0  0
  7 12  1  0  0  0  0
  7 14  1  0  0  0  0
  8  3  2  0  0  0  0
  8 16  1  0  0  0  0
 10 12  1  0  0  0  0
 10  3  1  0  0  0  0
 11  8  1  0  0  0  0
 13  4  2  0  0  0  0
 14 26  1  6  0  0  0
 14 13  1  0  0  0  0
 15 17  1  1  0  0  0
 15  5  1  0  0  0  0
 16  1  2  0  0  0  0
 17 19  2  0  0  0  0
 18 21  2  0  0  0  0
 21 19  1  0  0  0  0
 21 20  1  0  0  0  0
 22 18  1  0  0  0  0
 22 17  1  0  0  0  0
 23 25  2  0  0  0  0
 24 23  1  0  0  0  0
 26 27  1  1  0  0  0
 28 30  1  0  0  0  0
 29 26  1  0  0  0  0
 30 31  2  0  0  0  0
 30 29  1  0  0  0  0
M  END
>  <MODEL>
1

>  <REMARK>
 VINA RESULT:      -6.4      0.000      0.000
  Name = 
  4 active torsions:
  status: ('A' for Active; 'I' for Inactive)
    1  A    between atoms: C_3  and  C_28
    2  A    between atoms: C_4  and  C_10
    3  A    between atoms: N_7  and  C_12
    4  A    between atoms: C_12  and  C_23
                            x       y       z     vdW  Elec       q    Type
                         _______ _______ _______ _____ _____    ______ ____

>  <TORSDO>
F 4

$$$$
=
 OpenBabel11062415003D

 31 34  0  0  1  0  0  0  0  0999 V2000
  184.5510  177.9790  138.7570 C   0  0  0  0  0  3  0  0  0  0  0  0
  184.3730  179.2830  138.8980 C   0  0  0  0  0  2  0  0  0  0  0  0
  181.6570  178.1190  140.0170 C   0  0  0  0  0  0  0  0  0  0  0  0
  183.0850  179.9670  139.0430 C   0  0  0  0  0  3  0  0  0  0  0  0
  182.9800  176.5040  137.3350 C   0  0  0  0  0  0  0  0  0  0  0  0
  181.2240  175.0720  138.5110 C   0  0  2  0  0  3  0  0  0  0  0  0
  179.5370  180.0960  140.2700 C   0  0  0  0  0  2  0  0  0  0  0  0
  182.3370  177.0100  139.6480 C   0  0  0  0  0  0  0  0  0  0  0  0
  183.2340  177.1180  136.3110 O   0  0  0  0  0  0  0  0  0  0  0  0
  180.4740  177.9260  140.9410 C   0  0  0  0  0  2  0  0  0  0  0  0
  181.7530  175.6400  139.8500 C   0  0  0  0  0  2  0  0  0  0  0  0
  179.9100  179.2360  141.4600 C   0  0  0  0  0  2  0  0  0  0  0  0
  181.9010  179.4950  139.4550 C   0  0  0  0  0  0  0  0  0  0  0  0
  180.7880  180.5350  139.5120 C   0  0  1  0  0  3  0  0  0  0  0  0
  182.1780  175.2260  137.2970 C   0  0  2  0  0  3  0  0  0  0  0  0
  183.4520  176.9780  138.6690 C   0  0  0  0  0  0  0  0  0  0  0  0
  183.0830  174.0420  137.1860 C   0  0  0  0  0  0  0  0  0  0  0  0
  184.8280  172.8190  137.3520 N   0  0  0  0  0  0  0  0  0  0  0  0
  182.7240  172.8940  136.5830 N   0  0  0  0  0  0  0  0  0  0  0  0
  183.9820  170.7710  136.2000 C   0  0  0  0  0  1  0  0  0  0  0  0
  183.8450  172.1600  136.7150 C   0  0  0  0  0  0  0  0  0  0  0  0
  184.3470  174.0130  137.6490 N   0  0  0  0  0  2  0  0  0  0  0  0
  179.8440  175.5580  138.2000 C   0  0  0  0  0  0  0  0  0  0  0  0
  179.5540  176.1780  136.9530 N   0  0  0  0  0  1  0  0  0  0  0  0
  178.9310  175.4100  139.0520 O   0  0  0  0  0  0  0  0  0  0  0  0
  180.3800  181.1160  138.1470 C   0  0  2  0  0  3  0  0  0  0  0  0
  180.4430  180.0790  137.0380 C   0  0  0  0  0  1  0  0  0  0  0  0
  181.5360  184.6370  137.0120 C   0  0  0  0  0  1  0  0  0  0  0  0
  181.1970  182.2680  137.7940 N   0  0  0  0  0  2  0  0  0  0  0  0
  180.6380  183.4960  137.3240 C   0  0  0  0  0  0  0  0  0  0  0  0
  179.3950  183.6250  137.1750 O   0  0  0  0  0  0  0  0  0  0  0  0
  1  2  1  0  0  0  0
  2  4  1  0  0  0  0
  3 10  1  0  0  0  0
  4 13  2  0  0  0  0
  5 16  1  0  0  0  0
  6 23  1  6  0  0  0
  6 11  1  0  0  0  0
  7 12  1  0  0  0  0
  8 11  1  0  0  0  0
  8  3  2  0  0  0  0
  9  5  2  0  0  0  0
 10 12  1  0  0  0  0
 13 14  1  0  0  0  0
 13  3  1  0  0  0  0
 14 26  1  6  0  0  0
 14  7  1  0  0  0  0
 15 17  1  1  0  0  0
 15  5  1  0  0  0  0
 15  6  1  0  0  0  0
 16  1  2  0  0  0  0
 16  8  1  0  0  0  0
 17 22  1  0  0  0  0
 18 22  1  0  0  0  0
 19 21  1  0  0  0  0
 19 17  2  0  0  0  0
 20 21  1  0  0  0  0
 21 18  2  0  0  0  0
 23 25  2  0  0  0  0
 24 23  1  0  0  0  0
 26 27  1  6  0  0  0
 28 30  1  0  0  0  0
 29 26  1  0  0  0  0
 30 29  1  0  0  0  0
 31 30  2  0  0  0  0
M  END
>  <MODEL>
2

>  <REMARK>
 VINA RESULT:      -5.2      2.742      4.070
  Name = 
  4 active torsions:
  status: ('A' for Active; 'I' for Inactive)
    1  A    between atoms: C_3  and  C_28
    2  A    between atoms: C_4  and  C_10
    3  A    between atoms: N_7  and  C_12
    4  A    between atoms: C_12  and  C_23
                            x       y       z     vdW  Elec       q    Type
                         _______ _______ _______ _____ _____    ______ ____

>  <TORSDO>
F 4

$$$$
=
 OpenBabel11062415003D

 31 34  0  0  1  0  0  0  0  0999 V2000
  184.5230  177.6860  137.9220 C   0  0  0  0  0  3  0  0  0  0  0  0
  184.3150  177.1550  136.7280 C   0  0  0  0  0  3  0  0  0  0  0  0
  181.7830  179.0130  137.0750 C   0  0  0  0  0  0  0  0  0  0  0  0
  183.0270  177.0720  136.0330 C   0  0  0  0  0  3  0  0  0  0  0  0
  182.8590  177.4160  139.8760 C   0  0  0  0  0  0  0  0  0  0  0  0
  181.2970  179.3520  140.4500 C   0  0  2  0  0  3  0  0  0  0  0  0
  179.6350  178.4510  135.1960 C   0  0  0  0  0  2  0  0  0  0  0  0
  182.4580  179.1940  138.2330 C   0  0  0  0  0  0  0  0  0  0  0  0
  182.9750  176.2010  139.8860 O   0  0  0  0  0  0  0  0  0  0  0  0
  180.7190  180.0320  136.7330 C   0  0  0  0  0  2  0  0  0  0  0  0
  181.9500  180.1380  139.2870 C   0  0  0  0  0  2  0  0  0  0  0  0
  180.1680  179.8630  135.3280 C   0  0  0  0  0  2  0  0  0  0  0  0
  181.9130  177.7990  136.1930 C   0  0  0  0  0  0  0  0  0  0  0  0
  180.7770  177.4390  135.2430 C   0  0  1  0  0  3  0  0  0  0  0  0
  182.1030  178.1340  140.9690 C   0  0  2  0  0  3  0  0  0  0  0  0
  183.4580  178.2510  138.7950 C   0  0  2  0  0  3  0  0  0  0  0  0
  183.0330  178.5460  142.0640 C   0  0  0  0  0  0  0  0  0  0  0  0
  184.7920  179.2490  143.0550 N   0  0  0  0  0  0  0  0  0  0  0  0
  182.7160  178.4630  143.3700 N   0  0  0  0  0  0  0  0  0  0  0  0
  184.0250  179.0260  145.4210 C   0  0  0  0  0  1  0  0  0  0  0  0
  183.8440  178.9160  143.9480 C   0  0  0  0  0  0  0  0  0  0  0  0
  184.2800  179.0120  141.8600 N   0  0  0  0  0  2  0  0  0  0  0  0
  179.8740  178.9950  140.1580 C   0  0  0  0  0  0  0  0  0  0  0  0
  179.3940  177.6740  140.3790 N   0  0  0  0  0  1  0  0  0  0  0  0
  179.0940  179.8770  139.7160 O   0  0  0  0  0  0  0  0  0  0  0  0
  180.2000  176.0270  135.4390 C   0  0  2  0  0  3  0  0  0  0  0  0
  178.9600  175.7880  134.5950 C   0  0  0  0  0  1  0  0  0  0  0  0
  180.0920  174.4450  138.9770 C   0  0  0  0  0  1  0  0  0  0  0  0
  179.9020  175.7640  136.8390 N   0  0  0  0  0  2  0  0  0  0  0  0
  180.4180  174.6290  137.5390 C   0  0  0  0  0  0  0  0  0  0  0  0
  181.1470  173.7860  136.9540 O   0  0  0  0  0  0  0  0  0  0  0  0
  2  1  2  0  0  0  0
  3  8  2  0  0  0  0
  4 13  2  0  0  0  0
  4  2  1  0  0  0  0
  5  9  2  0  0  0  0
  5 15  1  0  0  0  0
  6 23  1  6  0  0  0
  6 15  1  0  0  0  0
  7 14  1  0  0  0  0
  7 12  1  0  0  0  0
  8 16  1  0  0  0  0
  8 11  1  0  0  0  0
 10  3  1  0  0  0  0
 11  6  1  0  0  0  0
 12 10  1  0  0  0  0
 13  3  1  0  0  0  0
 14 26  1  1  0  0  0
 14 13  1  0  0  0  0
 15 17  1  1  0  0  0
 16  1  1  6  0  0  0
 16  5  1  0  0  0  0
 17 19  2  0  0  0  0
 18 21  2  0  0  0  0
 19 21  1  0  0  0  0
 21 20  1  0  0  0  0
 22 17  1  0  0  0  0
 22 18  1  0  0  0  0
 23 24  1  0  0  0  0
 25 23  2  0  0  0  0
 26 27  1  6  0  0  0
 26 29  1  0  0  0  0
 29 30  1  0  0  0  0
 30 28  1  0  0  0  0
 31 30  2  0  0  0  0
M  END
>  <MODEL>
3

>  <REMARK>
 VINA RESULT:      -5.1      2.887      5.775
  Name = 
  4 active torsions:
  status: ('A' for Active; 'I' for Inactive)
    1  A    between atoms: C_3  and  C_28
    2  A    between atoms: C_4  and  C_10
    3  A    between atoms: N_7  and  C_12
    4  A    between atoms: C_12  and  C_23
                            x       y       z     vdW  Elec       q    Type
                         _______ _______ _______ _____ _____    ______ ____

>  <TORSDO>
F 4

$$$$
=
 OpenBabel11062415003D

 31 34  0  0  1  0  0  0  0  0999 V2000
  183.0640  178.2000  137.9480 C   0  0  0  0  0  3  0  0  0  0  0  0
  183.6790  179.0330  138.7720 C   0  0  0  0  0  2  0  0  0  0  0  0
  186.1060  177.5640  137.3800 C   0  0  0  0  0  0  0  0  0  0  0  0
  185.0600  178.9110  139.2500 C   0  0  0  0  0  3  0  0  0  0  0  0
  183.3860  175.6410  138.0550 C   0  0  0  0  0  0  0  0  0  0  0  0
  184.9260  174.5150  136.3580 C   0  0  2  0  0  3  0  0  0  0  0  0
  188.6480  177.9220  138.7490 C   0  0  0  0  0  2  0  0  0  0  0  0
  185.0270  176.9780  136.8140 C   0  0  0  0  0  0  0  0  0  0  0  0
  182.9470  175.5730  139.1920 O   0  0  0  0  0  0  0  0  0  0  0  0
  187.4350  177.3790  136.6820 C   0  0  0  0  0  2  0  0  0  0  0  0
  185.1850  175.9180  135.7590 C   0  0  0  0  0  2  0  0  0  0  0  0
  188.5380  178.2400  137.2720 C   0  0  0  0  0  2  0  0  0  0  0  0
  186.0980  178.2500  138.7210 C   0  0  0  0  0  0  0  0  0  0  0  0
  187.4030  178.3950  139.4950 C   0  0  1  0  0  3  0  0  0  0  0  0
  183.6650  174.3930  137.2530 C   0  0  2  0  0  3  0  0  0  0  0  0
  183.6630  176.9530  137.4000 C   0  0  0  0  0  0  0  0  0  0  0  0
  182.4720  174.0200  136.4340 C   0  0  0  0  0  0  0  0  0  0  0  0
  181.2770  173.4880  134.7430 N   0  0  0  0  0  0  0  0  0  0  0  0
  181.2270  173.9370  136.9390 N   0  0  0  0  0  0  0  0  0  0  0  0
  179.0450  173.3830  135.8580 C   0  0  0  0  0  1  0  0  0  0  0  0
  180.5170  173.5990  135.8460 C   0  0  0  0  0  0  0  0  0  0  0  0
  182.5160  173.7570  135.1140 N   0  0  0  0  0  2  0  0  0  0  0  0
  186.1400  173.9560  137.0290 C   0  0  0  0  0  0  0  0  0  0  0  0
  187.4420  174.2390  136.5320 N   0  0  0  0  0  1  0  0  0  0  0  0
  186.0040  173.2290  138.0470 O   0  0  0  0  0  0  0  0  0  0  0  0
  187.3860  177.7780  140.9040 C   0  0  2  0  0  3  0  0  0  0  0  0
  186.7850  178.7160  141.9380 C   0  0  0  0  0  1  0  0  0  0  0  0
  190.3380  176.0760  142.7540 C   0  0  0  0  0  1  0  0  0  0  0  0
  188.7200  177.3710  141.3220 N   0  0  0  0  0  2  0  0  0  0  0  0
  188.9480  176.4670  142.4060 C   0  0  0  0  0  0  0  0  0  0  0  0
  187.9850  175.9950  143.0660 O   0  0  0  0  0  0  0  0  0  0  0  0
  1  2  1  0  0  0  0
  2  4  1  0  0  0  0
  3 13  1  0  0  0  0
  5  9  2  0  0  0  0
  6 23  1  1  0  0  0
  6 15  1  0  0  0  0
  7 14  1  0  0  0  0
  8  3  2  0  0  0  0
  8 16  1  0  0  0  0
 10 12  1  0  0  0  0
 10  3  1  0  0  0  0
 11  6  1  0  0  0  0
 11  8  1  0  0  0  0
 12  7  1  0  0  0  0
 13  4  2  0  0  0  0
 13 14  1  0  0  0  0
 14 26  1  1  0  0  0
 15 17  1  6  0  0  0
 15  5  1  0  0  0  0
 16  1  2  0  0  0  0
 16  5  1  0  0  0  0
 17 19  2  0  0  0  0
 18 22  1  0  0  0  0
 18 21  2  0  0  0  0
 21 20  1  0  0  0  0
 21 19  1  0  0  0  0
 22 17  1  0  0  0  0
 23 25  2  0  0  0  0
 24 23  1  0  0  0  0
 26 29  1  0  0  0  0
 26 27  1  1  0  0  0
 29 30  1  0  0  0  0
 30 28  1  0  0  0  0
 30 31  2  0  0  0  0
M  END
>  <MODEL>
4

>  <REMARK>
 VINA RESULT:      -4.9      3.722      7.385
  Name = 
  4 active torsions:
  status: ('A' for Active; 'I' for Inactive)
    1  A    between atoms: C_3  and  C_28
    2  A    between atoms: C_4  and  C_10
    3  A    between atoms: N_7  and  C_12
    4  A    between atoms: C_12  and  C_23
                            x       y       z     vdW  Elec       q    Type
                         _______ _______ _______ _____ _____    ______ ____

>  <TORSDO>
F 4

$$$$
=
 OpenBabel11062415003D

 31 34  0  0  1  0  0  0  0  0999 V2000
  184.4210  179.4110  139.5500 C   0  0  0  0  0  3  0  0  0  0  0  0
  185.4840  178.9980  138.8800 C   0  0  0  0  0  3  0  0  0  0  0  0
  183.1140  177.9770  137.0570 C   0  0  0  0  0  0  0  0  0  0  0  0
  185.5090  177.9340  137.8730 C   0  0  0  0  0  3  0  0  0  0  0  0
  182.6030  177.7950  140.4120 C   0  0  0  0  0  0  0  0  0  0  0  0
  180.4080  177.6000  139.1230 C   0  0  2  0  0  3  0  0  0  0  0  0
  183.9100  175.9960  135.0810 C   0  0  0  0  0  2  0  0  0  0  0  0
  182.4740  178.5720  138.0880 C   0  0  0  0  0  0  0  0  0  0  0  0
  183.3900  177.1930  141.1230 O   0  0  0  0  0  0  0  0  0  0  0  0
  182.3050  177.7090  135.8070 C   0  0  0  0  0  2  0  0  0  0  0  0
  180.9730  178.6450  138.1310 C   0  0  0  0  0  2  0  0  0  0  0  0
  183.1560  177.2340  134.6420 C   0  0  0  0  0  2  0  0  0  0  0  0
  184.5170  177.4330  137.1240 C   0  0  0  0  0  0  0  0  0  0  0  0
  184.9460  176.3460  136.1460 C   0  0  1  0  0  3  0  0  0  0  0  0
  181.1180  177.5330  140.5000 C   0  0  2  0  0  3  0  0  0  0  0  0
  183.0600  178.8200  139.4290 C   0  0  2  0  0  3  0  0  0  0  0  0
  180.4770  178.4730  141.4690 C   0  0  0  0  0  0  0  0  0  0  0  0
  179.7420  180.2860  142.3300 N   0  0  0  0  0  0  0  0  0  0  0  0
  180.0100  178.0870  142.6710 N   0  0  0  0  0  0  0  0  0  0  0  0
  178.9310  179.3830  144.5120 C   0  0  0  0  0  1  0  0  0  0  0  0
  179.5570  179.2530  143.1700 C   0  0  0  0  0  0  0  0  0  0  0  0
  180.3280  179.7930  141.2530 N   0  0  0  0  0  2  0  0  0  0  0  0
  180.2730  176.2460  138.5000 C   0  0  0  0  0  0  0  0  0  0  0  0
  179.8910  176.1060  137.1380 N   0  0  0  0  0  1  0  0  0  0  0  0
  180.5070  175.2220  139.1920 O   0  0  0  0  0  0  0  0  0  0  0  0
  185.4580  175.0540  136.8050 C   0  0  2  0  0  3  0  0  0  0  0  0
  186.9020  174.7530  136.4390 C   0  0  0  0  0  1  0  0  0  0  0  0
  183.6450  171.6290  136.8800 C   0  0  0  0  0  1  0  0  0  0  0  0
  184.6160  173.9160  136.4690 N   0  0  0  0  0  2  0  0  0  0  0  0
  184.5520  172.7370  137.2750 C   0  0  0  0  0  0  0  0  0  0  0  0
  185.2510  172.6280  138.3160 O   0  0  0  0  0  0  0  0  0  0  0  0
  2  1  2  0  0  0  0
  3 13  1  0  0  0  0
  3  8  2  0  0  0  0
  4  2  1  0  0  0  0
  5 15  1  0  0  0  0
  5  9  2  0  0  0  0
  6 23  1  6  0  0  0
  6 15  1  0  0  0  0
  7 14  1  0  0  0  0
  8 11  1  0  0  0  0
  8 16  1  0  0  0  0
 10  3  1  0  0  0  0
 11  6  1  0  0  0  0
 12  7  1  0  0  0  0
 12 10  1  0  0  0  0
 13  4  2  0  0  0  0
 14 26  1  1  0  0  0
 14 13  1  0  0  0  0
 15 17  1  1  0  0  0
 16  1  1  6  0  0  0
 16  5  1  0  0  0  0
 17 19  2  0  0  0  0
 18 21  2  0  0  0  0
 19 21  1  0  0  0  0
 21 20  1  0  0  0  0
 22 17  1  0  0  0  0
 22 18  1  0  0  0  0
 23 25  2  0  0  0  0
 24 23  1  0  0  0  0
 26 27  1  6  0  0  0
 28 30  1  0  0  0  0
 29 26  1  0  0  0  0
 29 30  1  0  0  0  0
 30 31  2  0  0  0  0
M  END
>  <MODEL>
5

>  <REMARK>
 VINA RESULT:      -4.9      2.813      7.090
  Name = 
  4 active torsions:
  status: ('A' for Active; 'I' for Inactive)
    1  A    between atoms: C_3  and  C_28
    2  A    between atoms: C_4  and  C_10
    3  A    between atoms: N_7  and  C_12
    4  A    between atoms: C_12  and  C_23
                            x       y       z     vdW  Elec       q    Type
                         _______ _______ _______ _____ _____    ______ ____

>  <TORSDO>
F 4

$$$$
=
 OpenBabel11062415003D

 31 34  0  0  1  0  0  0  0  0999 V2000
  189.1920  173.5070  134.7530 C   0  0  0  0  0  3  0  0  0  0  0  0
  187.9590  173.0530  134.5980 C   0  0  0  0  0  3  0  0  0  0  0  0
  187.4630  176.0990  135.2760 C   0  0  0  0  0  0  0  0  0  0  0  0
  186.7380  173.6800  135.1120 C   0  0  0  0  0  3  0  0  0  0  0  0
  190.0130  174.5930  136.9460 C   0  0  0  0  0  0  0  0  0  0  0  0
  190.1850  177.1370  137.0780 C   0  0  2  0  0  3  0  0  0  0  0  0
  184.7190  176.7140  136.0220 C   0  0  0  0  0  2  0  0  0  0  0  0
  188.8100  175.9880  135.3250 C   0  0  0  0  0  0  0  0  0  0  0  0
  189.8100  173.5790  137.5940 O   0  0  0  0  0  0  0  0  0  0  0  0
  186.8900  177.4950  135.1760 C   0  0  0  0  0  2  0  0  0  0  0  0
  189.6750  177.1830  135.6180 C   0  0  0  0  0  2  0  0  0  0  0  0
  185.3930  177.5030  134.9190 C   0  0  0  0  0  2  0  0  0  0  0  0
  186.5060  174.9510  135.4670 C   0  0  0  0  0  0  0  0  0  0  0  0
  185.0790  175.2330  135.9210 C   0  0  1  0  0  3  0  0  0  0  0  0
  190.7440  175.7680  137.5480 C   0  0  2  0  0  3  0  0  0  0  0  0
  189.5570  174.7220  135.5310 C   0  0  2  0  0  3  0  0  0  0  0  0
  192.2090  175.6740  137.2670 C   0  0  0  0  0  0  0  0  0  0  0  0
  194.2820  176.1880  137.1920 N   0  0  0  0  0  0  0  0  0  0  0  0
  192.7660  174.6460  136.6000 N   0  0  0  0  0  0  0  0  0  0  0  0
  195.1340  174.2010  135.9420 C   0  0  0  0  0  1  0  0  0  0  0  0
  194.0620  175.0110  136.5810 C   0  0  0  0  0  0  0  0  0  0  0  0
  193.1080  176.6100  137.6250 N   0  0  0  0  0  2  0  0  0  0  0  0
  189.1840  177.6900  138.0420 C   0  0  0  0  0  0  0  0  0  0  0  0
  188.7720  179.0490  137.9650 N   0  0  0  0  0  1  0  0  0  0  0  0
  188.7010  176.9400  138.9290 O   0  0  0  0  0  0  0  0  0  0  0  0
  184.6640  174.5170  137.2180 C   0  0  2  0  0  3  0  0  0  0  0  0
  185.2770  173.1320  137.3330 C   0  0  0  0  0  1  0  0  0  0  0  0
  180.9930  175.0560  138.3390 C   0  0  0  0  0  1  0  0  0  0  0  0
  183.2160  174.4290  137.3360 N   0  0  0  0  0  2  0  0  0  0  0  0
  182.4730  175.1780  138.3000 C   0  0  0  0  0  0  0  0  0  0  0  0
  183.0550  175.9440  139.1120 O   0  0  0  0  0  0  0  0  0  0  0  0
  2  1  2  0  0  0  0
  2  4  1  0  0  0  0
  3  8  2  0  0  0  0
  3 13  1  0  0  0  0
  4 13  2  0  0  0  0
  5 15  1  0  0  0  0
  5  9  2  0  0  0  0
  6 15  1  0  0  0  0
  6 23  1  1  0  0  0
  8 16  1  0  0  0  0
  8 11  1  0  0  0  0
 10  3  1  0  0  0  0
 11  6  1  0  0  0  0
 12 10  1  0  0  0  0
 12  7  1  0  0  0  0
 13 14  1  0  0  0  0
 14  7  1  0  0  0  0
 14 26  1  1  0  0  0
 15 17  1  6  0  0  0
 16  1  1  1  0  0  0
 16  5  1  0  0  0  0
 17 22  1  0  0  0  0
 18 22  1  0  0  0  0
 19 17  2  0  0  0  0
 20 21  1  0  0  0  0
 21 19  1  0  0  0  0
 21 18  2  0  0  0  0
 23 25  2  0  0  0  0
 24 23  1  0  0  0  0
 26 27  1  6  0  0  0
 26 29  1  0  0  0  0
 29 30  1  0  0  0  0
 30 28  1  0  0  0  0
 30 31  2  0  0  0  0
M  END
>  <MODEL>
6

>  <REMARK>
 VINA RESULT:      -4.7      4.362      7.806
  Name = 
  4 active torsions:
  status: ('A' for Active; 'I' for Inactive)
    1  A    between atoms: C_3  and  C_28
    2  A    between atoms: C_4  and  C_10
    3  A    between atoms: N_7  and  C_12
    4  A    between atoms: C_12  and  C_23
                            x       y       z     vdW  Elec       q    Type
                         _______ _______ _______ _____ _____    ______ ____

>  <TORSDO>
F 4

$$$$
=
 OpenBabel11062415003D

 31 34  0  0  1  0  0  0  0  0999 V2000
  190.4180  177.0730  142.5740 C   0  0  0  0  0  3  0  0  0  0  0  0
  191.0820  176.5030  141.5810 C   0  0  0  0  0  3  0  0  0  0  0  0
  189.0210  178.3310  140.0340 C   0  0  0  0  0  0  0  0  0  0  0  0
  190.6220  176.3790  140.1950 C   0  0  0  0  0  3  0  0  0  0  0  0
  187.8630  176.8360  142.8590 C   0  0  0  0  0  0  0  0  0  0  0  0
  186.3530  178.7640  142.1380 C   0  0  2  0  0  3  0  0  0  0  0  0
  188.7460  177.6780  137.2120 C   0  0  0  0  0  2  0  0  0  0  0  0
  188.7180  178.5570  141.3320 C   0  0  0  0  0  0  0  0  0  0  0  0
  187.9300  175.6240  142.9850 O   0  0  0  0  0  0  0  0  0  0  0  0
  188.4920  179.3220  139.0210 C   0  0  0  0  0  2  0  0  0  0  0  0
  187.6330  179.5240  141.7170 C   0  0  0  0  0  2  0  0  0  0  0  0
  189.0550  179.1020  137.6280 C   0  0  0  0  0  2  0  0  0  0  0  0
  189.7100  177.0930  139.5230 C   0  0  0  0  0  0  0  0  0  0  0  0
  189.5340  176.6860  138.0640 C   0  0  1  0  0  3  0  0  0  0  0  0
  186.5710  177.5740  143.1090 C   0  0  2  0  0  3  0  0  0  0  0  0
  189.0490  177.6480  142.4580 C   0  0  2  0  0  3  0  0  0  0  0  0
  186.4970  178.0350  144.5300 C   0  0  0  0  0  0  0  0  0  0  0  0
  185.8390  179.0720  146.2790 N   0  0  0  0  0  0  0  0  0  0  0  0
  187.3760  177.6510  145.4750 N   0  0  0  0  0  0  0  0  0  0  0  0
  187.5580  178.2480  147.8930 C   0  0  0  0  0  1  0  0  0  0  0  0
  186.9220  178.3220  146.5500 C   0  0  0  0  0  0  0  0  0  0  0  0
  185.5720  178.8920  144.9980 N   0  0  0  0  0  2  0  0  0  0  0  0
  185.5160  178.3750  140.9610 C   0  0  0  0  0  0  0  0  0  0  0  0
  184.2610  177.7300  141.1400 N   0  0  0  0  0  1  0  0  0  0  0  0
  185.9290  178.6280  139.8000 O   0  0  0  0  0  0  0  0  0  0  0  0
  188.9670  175.2710  137.8570 C   0  0  2  0  0  3  0  0  0  0  0  0
  189.9770  174.3330  137.2180 C   0  0  0  0  0  1  0  0  0  0  0  0
  185.5400  174.3660  136.2860 C   0  0  0  0  0  1  0  0  0  0  0  0
  187.7470  175.2990  137.0630 N   0  0  0  0  0  2  0  0  0  0  0  0
  186.7750  174.2520  137.1040 C   0  0  0  0  0  0  0  0  0  0  0  0
  186.9490  173.2360  137.8270 O   0  0  0  0  0  0  0  0  0  0  0  0
  2  1  2  0  0  0  0
  3  8  2  0  0  0  0
  4  2  1  0  0  0  0
  5  9  2  0  0  0  0
  5 15  1  0  0  0  0
  6 23  1  6  0  0  0
  6 15  1  0  0  0  0
  7 12  1  0  0  0  0
  7 14  1  0  0  0  0
  8 11  1  0  0  0  0
  8 16  1  0  0  0  0
 10  3  1  0  0  0  0
 11  6  1  0  0  0  0
 12 10  1  0  0  0  0
 13  3  1  0  0  0  0
 13  4  2  0  0  0  0
 14 26  1  1  0  0  0
 14 13  1  0  0  0  0
 15 17  1  1  0  0  0
 16  1  1  6  0  0  0
 16  5  1  0  0  0  0
 17 22  1  0  0  0  0
 17 19  2  0  0  0  0
 18 21  2  0  0  0  0
 19 21  1  0  0  0  0
 21 20  1  0  0  0  0
 22 18  1  0  0  0  0
 23 24  1  0  0  0  0
 25 23  2  0  0  0  0
 26 27  1  6  0  0  0
 28 30  1  0  0  0  0
 29 30  1  0  0  0  0
 29 26  1  0  0  0  0
 30 31  2  0  0  0  0
M  END
>  <MODEL>
7

>  <REMARK>
 VINA RESULT:      -4.7      4.536      8.334
  Name = 
  4 active torsions:
  status: ('A' for Active; 'I' for Inactive)
    1  A    between atoms: C_3  and  C_28
    2  A    between atoms: C_4  and  C_10
    3  A    between atoms: N_7  and  C_12
    4  A    between atoms: C_12  and  C_23
                            x       y       z     vdW  Elec       q    Type
                         _______ _______ _______ _____ _____    ______ ____

>  <TORSDO>
F 4

$$$$
=
 OpenBabel11062415003D

 31 34  0  0  1  0  0  0  0  0999 V2000
  184.6100  175.5880  136.5850 C   0  0  0  0  0  3  0  0  0  0  0  0
  184.8010  176.7420  137.2030 C   0  0  0  0  0  2  0  0  0  0  0  0
  187.6200  176.2290  135.8690 C   0  0  0  0  0  0  0  0  0  0  0  0
  186.0980  177.3180  137.5720 C   0  0  0  0  0  3  0  0  0  0  0  0
  186.0230  173.4870  137.0890 C   0  0  0  0  0  0  0  0  0  0  0  0
  187.8920  172.8370  135.4760 C   0  0  2  0  0  3  0  0  0  0  0  0
  189.7540  177.8950  136.9350 C   0  0  0  0  0  2  0  0  0  0  0  0
  186.9040  175.1410  135.5050 C   0  0  0  0  0  0  0  0  0  0  0  0
  185.6640  173.4520  138.2540 O   0  0  0  0  0  0  0  0  0  0  0  0
  188.8920  176.5070  135.1000 C   0  0  0  0  0  2  0  0  0  0  0  0
  187.5060  174.0750  134.6320 C   0  0  0  0  0  2  0  0  0  0  0  0
  189.5080  177.8520  135.4410 C   0  0  0  0  0  2  0  0  0  0  0  0
  187.3180  177.0830  137.0740 C   0  0  0  0  0  0  0  0  0  0  0  0
  188.4310  177.9180  137.6970 C   0  0  1  0  0  3  0  0  0  0  0  0
  186.8170  172.3540  136.4850 C   0  0  2  0  0  3  0  0  0  0  0  0
  185.6930  174.6410  136.2020 C   0  0  0  0  0  0  0  0  0  0  0  0
  185.9050  171.3580  135.8450 C   0  0  0  0  0  0  0  0  0  0  0  0
  185.2390  169.7050  134.6640 N   0  0  0  0  0  0  0  0  0  0  0  0
  184.5670  171.3890  135.9820 N   0  0  0  0  0  0  0  0  0  0  0  0
  182.7800  169.9220  135.0380 C   0  0  0  0  0  1  0  0  0  0  0  0
  184.1960  170.3360  135.2300 C   0  0  0  0  0  0  0  0  0  0  0  0
  186.3230  170.3540  135.0510 N   0  0  0  0  0  2  0  0  0  0  0  0
  189.2320  172.9910  136.1220 C   0  0  0  0  0  0  0  0  0  0  0  0
  190.4140  172.5530  135.4630 N   0  0  0  0  0  1  0  0  0  0  0  0
  189.3110  173.5200  137.2610 O   0  0  0  0  0  0  0  0  0  0  0  0
  188.6930  177.6290  139.1850 C   0  0  2  0  0  3  0  0  0  0  0  0
  187.9550  178.5930  140.0980 C   0  0  0  0  0  1  0  0  0  0  0  0
  192.1180  177.2220  140.9540 C   0  0  0  0  0  1  0  0  0  0  0  0
  190.1170  177.6540  139.4880 N   0  0  0  0  0  2  0  0  0  0  0  0
  190.6500  177.1920  140.7310 C   0  0  0  0  0  0  0  0  0  0  0  0
  189.8920  176.7560  141.6370 O   0  0  0  0  0  0  0  0  0  0  0  0
  1  2  1  0  0  0  0
  2  4  1  0  0  0  0
  3 13  1  0  0  0  0
  5  9  2  0  0  0  0
  6 23  1  1  0  0  0
  6 15  1  0  0  0  0
  7 14  1  0  0  0  0
  8  3  2  0  0  0  0
  8 16  1  0  0  0  0
 10 12  1  0  0  0  0
 10  3  1  0  0  0  0
 11  6  1  0  0  0  0
 11  8  1  0  0  0  0
 12  7  1  0  0  0  0
 13  4  2  0  0  0  0
 13 14  1  0  0  0  0
 14 26  1  1  0  0  0
 15 17  1  6  0  0  0
 15  5  1  0  0  0  0
 16  1  2  0  0  0  0
 16  5  1  0  0  0  0
 17 19  2  0  0  0  0
 18 22  1  0  0  0  0
 18 21  2  0  0  0  0
 20 21  1  0  0  0  0
 21 19  1  0  0  0  0
 22 17  1  0  0  0  0
 23 25  2  0  0  0  0
 24 23  1  0  0  0  0
 26 29  1  0  0  0  0
 26 27  1  1  0  0  0
 29 30  1  0  0  0  0
 30 28  1  0  0  0  0
 30 31  2  0  0  0  0
M  END
>  <MODEL>
8

>  <REMARK>
 VINA RESULT:      -4.4      5.558      8.722
  Name = 
  4 active torsions:
  status: ('A' for Active; 'I' for Inactive)
    1  A    between atoms: C_3  and  C_28
    2  A    between atoms: C_4  and  C_10
    3  A    between atoms: N_7  and  C_12
    4  A    between atoms: C_12  and  C_23
                            x       y       z     vdW  Elec       q    Type
                         _______ _______ _______ _____ _____    ______ ____

>  <TORSDO>
F 4

$$$$
=
 OpenBabel11062415003D

 31 34  0  0  1  0  0  0  0  0999 V2000
  188.8170  174.8890  134.8570 C   0  0  0  0  0  3  0  0  0  0  0  0
  187.6070  174.4220  134.5940 C   0  0  0  0  0  3  0  0  0  0  0  0
  186.9670  176.9460  136.3840 C   0  0  0  0  0  0  0  0  0  0  0  0
  186.3880  174.7080  135.3540 C   0  0  0  0  0  3  0  0  0  0  0  0
  189.7160  175.1490  137.2630 C   0  0  0  0  0  0  0  0  0  0  0  0
  189.7360  177.4670  138.3330 C   0  0  2  0  0  3  0  0  0  0  0  0
  184.2480  177.0060  137.4160 C   0  0  0  0  0  2  0  0  0  0  0  0
  188.3190  176.9390  136.3330 C   0  0  0  0  0  0  0  0  0  0  0  0
  189.6240  173.9540  137.4910 O   0  0  0  0  0  0  0  0  0  0  0  0
  186.3010  178.2260  136.8380 C   0  0  0  0  0  2  0  0  0  0  0  0
  189.1250  178.0080  137.0180 C   0  0  0  0  0  2  0  0  0  0  0  0
  184.7930  178.2020  136.6630 C   0  0  0  0  0  2  0  0  0  0  0  0
  186.1010  175.7320  136.1690 C   0  0  0  0  0  0  0  0  0  0  0  0
  184.6930  175.7040  136.7530 C   0  0  1  0  0  3  0  0  0  0  0  0
  190.4110  176.0750  138.2320 C   0  0  2  0  0  3  0  0  0  0  0  0
  189.1570  175.7550  136.0190 C   0  0  2  0  0  3  0  0  0  0  0  0
  191.8570  176.2150  137.8780 C   0  0  0  0  0  0  0  0  0  0  0  0
  193.9380  176.6700  138.0520 N   0  0  0  0  0  0  0  0  0  0  0  0
  192.3480  175.9220  136.6590 N   0  0  0  0  0  0  0  0  0  0  0  0
  194.6650  176.0730  135.7390 C   0  0  0  0  0  1  0  0  0  0  0  0
  193.6520  176.2190  136.8180 C   0  0  0  0  0  0  0  0  0  0  0  0
  192.8000  176.6710  138.7230 N   0  0  0  0  0  2  0  0  0  0  0  0
  188.7710  177.5370  139.4730 C   0  0  0  0  0  0  0  0  0  0  0  0
  187.7700  178.5460  139.5210 N   0  0  0  0  0  1  0  0  0  0  0  0
  188.8460  176.6880  140.3990 O   0  0  0  0  0  0  0  0  0  0  0  0
  184.4150  174.5260  137.7020 C   0  0  2  0  0  3  0  0  0  0  0  0
  185.5410  173.5060  137.7010 C   0  0  0  0  0  1  0  0  0  0  0  0
  180.6530  173.6110  137.5050 C   0  0  0  0  0  1  0  0  0  0  0  0
  183.1550  173.8720  137.3810 N   0  0  0  0  0  2  0  0  0  0  0  0
  181.9000  174.3140  137.9020 C   0  0  0  0  0  0  0  0  0  0  0  0
  181.8370  175.2940  138.6900 O   0  0  0  0  0  0  0  0  0  0  0  0
  2  1  2  0  0  0  0
  2  4  1  0  0  0  0
  3 10  1  0  0  0  0
  4 13  2  0  0  0  0
  5  9  2  0  0  0  0
  5 15  1  0  0  0  0
  6 23  1  1  0  0  0
  8  3  2  0  0  0  0
  8 11  1  0  0  0  0
 11  6  1  0  0  0  0
 12 10  1  0  0  0  0
 12  7  1  0  0  0  0
 13  3  1  0  0  0  0
 13 14  1  0  0  0  0
 14  7  1  0  0  0  0
 14 26  1  1  0  0  0
 15 17  1  6  0  0  0
 15  6  1  0  0  0  0
 16  1  1  1  0  0  0
 16  8  1  0  0  0  0
 16  5  1  0  0  0  0
 17 22  1  0  0  0  0
 18 22  1  0  0  0  0
 19 21  1  0  0  0  0
 19 17  2  0  0  0  0
 20 21  1  0  0  0  0
 21 18  2  0  0  0  0
 23 24  1  0  0  0  0
 23 25  2  0  0  0  0
 26 27  1  6  0  0  0
 28 30  1  0  0  0  0
 29 26  1  0  0  0  0
 29 30  1  0  0  0  0
 30 31  2  0  0  0  0
M  END
>  <MODEL>
9

>  <REMARK>
 VINA RESULT:      -3.9      4.559      7.302
  Name = 
  4 active torsions:
  status: ('A' for Active; 'I' for Inactive)
    1  A    between atoms: C_3  and  C_28
    2  A    between atoms: C_4  and  C_10
    3  A    between atoms: N_7  and  C_12
    4  A    between atoms: C_12  and  C_23
                            x       y       z     vdW  Elec       q    Type
                         _______ _______ _______ _____ _____    ______ ____

>  <TORSDO>
F 4

$$$$
