=
 OpenBabel11062414053D

 53 59  0  0  1  0  0  0  0  0999 V2000
  183.5260  179.1590  141.2640 C   0  0  1  0  0  3  0  0  0  0  0  0
  184.5930  179.8260  139.2140 O   0  0  0  0  0  1  0  0  0  0  0  0
  183.6170  178.9640  139.7300 C   0  0  2  0  0  0  0  0  0  0  0  0
  182.2730  179.2950  139.0740 C   0  0  0  0  0  1  0  0  0  0  0  0
  183.9970  177.6100  139.4430 O   0  0  0  0  0  0  0  0  0  0  0  0
  184.5330  177.5720  137.1070 C   0  0  0  0  0  3  0  0  0  0  0  0
  184.6580  175.4580  135.8830 N   0  0  1  0  0  0  0  0  0  0  0  0
  180.9650  174.2330  135.6000 C   0  0  0  0  0  2  0  0  0  0  0  0
  181.9040  175.9560  137.2970 C   0  0  1  0  0  3  0  0  0  0  0  0
  181.6350  172.0900  135.4970 C   0  0  1  0  0  3  0  0  0  0  0  0
  185.1830  172.4720  136.5740 C   0  0  0  0  0  2  0  0  0  0  0  0
  182.8580  171.3460  136.0500 C   0  0  2  0  0  3  0  0  0  0  0  0
  184.3930  176.9010  135.7770 C   0  0  2  0  0  3  0  0  0  0  0  0
  182.8100  171.1900  137.4380 O   0  0  0  0  0  1  0  0  0  0  0  0
  183.9500  177.0110  138.1730 C   0  0  0  0  0  0  0  0  0  0  0  0
  183.2230  175.7020  138.0010 C   0  0  2  0  0  3  0  0  0  0  0  0
  184.1770  171.9440  135.5370 C   0  0  0  0  0  2  0  0  0  0  0  0
  182.0090  175.3250  135.8960 C   0  0  1  0  0  3  0  0  0  0  0  0
  180.6030  171.1830  135.2620 O   0  0  0  0  0  1  0  0  0  0  0  0
  184.6420  173.4990  137.5840 C   0  0  0  0  0  2  0  0  0  0  0  0
  184.0060  174.7900  137.0450 C   0  0  2  0  0  0  0  0  0  0  0  0
  185.3130  177.4930  134.8290 N   0  0  0  0  0  1  0  0  0  0  0  0
  181.1870  173.0830  136.3820 O   0  0  0  0  0  0  0  0  0  0  0  0
  183.3890  174.6770  135.7300 C   0  0  2  0  0  3  0  0  0  0  0  0
  180.6710  175.5980  138.1420 C   0  0  2  0  0  3  0  0  0  0  0  0
  179.7450  176.7910  138.2700 C   0  0  0  0  0  1  0  0  0  0  0  0
  181.0360  175.1470  139.4140 O   0  0  0  0  0  1  0  0  0  0  0  0
  181.3660  179.2450  142.3760 O   0  0  0  0  0  1  0  0  0  0  0  0
  181.7580  177.5460  140.8990 F   0  0  0  0  0  0  0  0  0  0  0  0
  182.3260  178.3840  141.8410 C   0  0  1  0  0  3  0  0  0  0  0  0
  185.6700  180.0210  142.0240 O   0  0  0  0  0  1  0  0  0  0  0  0
  184.8630  178.8810  142.0110 C   0  0  1  0  0  3  0  0  0  0  0  0
  184.2330  179.4500  144.3870 C   0  0  0  0  0  1  0  0  0  0  0  0
  184.7280  178.3670  143.4500 C   0  0  2  0  0  3  0  0  0  0  0  0
  185.9650  177.7840  143.9530 N   0  0  0  0  0  2  0  0  0  0  0  0
  186.5890  177.1810  142.9110 O   0  0  0  0  0  0  0  0  0  0  0  0
  190.1440  175.9350  142.9510 C   0  0  0  0  0  2  0  0  0  0  0  0
  187.8010  176.7270  143.4380 C   0  0  2  0  0  3  0  0  0  0  0  0
  190.5030  176.5030  144.3050 C   0  0  0  0  0  3  0  0  0  0  0  0
  188.2930  177.6450  144.5530 C   0  0  0  0  0  2  0  0  0  0  0  0
  189.6560  177.2370  145.0440 C   0  0  0  0  0  3  0  0  0  0  0  0
  188.8700  176.5420  142.3470 C   0  0  1  0  0  3  0  0  0  0  0  0
  188.9190  179.1160  142.0830 C   0  0  0  0  0  1  0  0  0  0  0  0
  189.1860  177.7570  141.4480 C   0  0  2  0  0  3  0  0  0  0  0  0
  188.6070  177.6260  140.0320 C   0  0  1  0  0  3  0  0  0  0  0  0
  187.4780  178.4290  139.8530 O   0  0  0  0  0  1  0  0  0  0  0  0
  190.2820  176.6220  138.4650 C   0  0  0  0  0  0  0  0  0  0  0  0
  189.6770  177.8740  138.9550 C   0  0  1  0  0  3  0  0  0  0  0  0
  188.1530  177.7730  136.8730 C   0  0  0  0  0  2  0  0  0  0  0  0
  189.1740  178.5750  137.6660 C   0  0  2  0  0  3  0  0  0  0  0  0
  190.2050  176.5160  137.0940 O   0  0  0  0  0  0  0  0  0  0  0  0
  189.6200  177.6720  136.5030 C   0  0  1  0  0  3  0  0  0  0  0  0
  190.8210  175.7460  139.1950 O   0  0  0  0  0  0  0  0  0  0  0  0
  1 30  1  1  0  0  0
  1 32  1  0  0  0  0
  2  3  1  0  0  0  0
  3  4  1  6  0  0  0
  3  1  1  0  0  0  0
  5  3  1  0  0  0  0
  6 15  2  0  0  0  0
  7 21  1  0  0  0  0
  8 18  1  0  0  0  0
  8 23  1  0  0  0  0
  9 16  1  0  0  0  0
  9 25  1  0  0  0  0
 10 12  1  0  0  0  0
 10 23  1  0  0  0  0
 11 20  1  0  0  0  0
 12 14  1  0  0  0  0
 13  7  1  0  0  0  0
 13  6  1  0  0  0  0
 15  5  1  0  0  0  0
 16 15  1  0  0  0  0
 17 12  1  0  0  0  0
 17 11  1  0  0  0  0
 18  9  1  0  0  0  0
 19 10  1  0  0  0  0
 21 20  1  0  0  0  0
 21 16  1  0  0  0  0
 22 13  1  0  0  0  0
 24  7  1  0  0  0  0
 24 18  1  0  0  0  0
 24 21  1  0  0  0  0
 25 26  1  0  0  0  0
 25 27  1  0  0  0  0
 29 30  1  0  0  0  0
 30 28  1  0  0  0  0
 32 31  1  0  0  0  0
 32 34  1  0  0  0  0
 34 35  1  0  0  0  0
 34 33  1  0  0  0  0
 36 38  1  0  0  0  0
 36 35  1  0  0  0  0
 37 39  1  0  0  0  0
 38 40  1  0  0  0  0
 39 41  2  0  0  0  0
 40 41  1  0  0  0  0
 42 37  1  0  0  0  0
 42 38  1  0  0  0  0
 44 43  1  0  0  0  0
 44 42  1  0  0  0  0
 45 44  1  0  0  0  0
 46 45  1  0  0  0  0
 47 48  1  0  0  0  0
 47 53  2  0  0  0  0
 48 45  1  0  0  0  0
 49 50  1  0  0  0  0
 50 48  1  0  0  0  0
 51 47  1  0  0  0  0
 52 49  1  0  0  0  0
 52 51  1  0  0  0  0
 52 50  1  0  0  0  0
M  END
>  <MODEL>
1

>  <REMARK>
 VINA RESULT:      -7.9      0.000      0.000
  Name = 
  13 active torsions:
  status: ('A' for Active; 'I' for Inactive)
    1  A    between atoms: C_3  and  C_5
    2  A    between atoms: C_8  and  C_12
    3  A    between atoms: C_8  and  C_46
    4  A    between atoms: N_11  and  O_18
    5  A    between atoms: N_11  and  C_37
    6  A    between atoms: O_17  and  C_19
    7  A    between atoms: O_17  and  C_28
    8  A    between atoms: O_18  and  C_23
    9  A    between atoms: C_19  and  C_39
   10  A    between atoms: C_31  and  C_39
   11  A    between atoms: C_37  and  C_45
   12  A    between atoms: C_39  and  C_45
   13  A    between atoms: C_44  and  C_46
                            x       y       z     vdW  Elec       q    Type
                         _______ _______ _______ _____ _____    ______ ____

>  <TORSDO>
F 13

$$$$
=
 OpenBabel11062414053D

 53 59  0  0  1  0  0  0  0  0999 V2000
  182.8730  177.7550  138.1770 C   0  0  1  0  0  3  0  0  0  0  0  0
  183.9510  177.1940  136.1010 O   0  0  0  0  0  1  0  0  0  0  0  0
  183.7690  176.7460  137.4160 C   0  0  2  0  0  0  0  0  0  0  0  0
  183.1020  175.3680  137.3770 C   0  0  0  0  0  1  0  0  0  0  0  0
  185.0500  176.6670  138.0590 O   0  0  0  0  0  0  0  0  0  0  0  0
  186.4240  178.4660  137.2700 C   0  0  0  0  0  3  0  0  0  0  0  0
  188.8630  178.3040  137.3380 N   0  0  1  0  0  0  0  0  0  0  0  0
  189.7830  175.6890  134.5940 C   0  0  0  0  0  2  0  0  0  0  0  0
  187.4740  175.9940  135.7370 C   0  0  1  0  0  3  0  0  0  0  0  0
  191.6570  175.1210  135.6970 C   0  0  1  0  0  3  0  0  0  0  0  0
  190.9800  176.7340  138.9880 C   0  0  0  0  0  2  0  0  0  0  0  0
  192.0450  175.1380  137.1820 C   0  0  2  0  0  3  0  0  0  0  0  0
  187.7120  178.9100  136.6530 C   0  0  2  0  0  3  0  0  0  0  0  0
  191.3950  174.1450  137.9190 O   0  0  0  0  0  1  0  0  0  0  0  0
  186.2510  177.1630  137.5270 C   0  0  0  0  0  0  0  0  0  0  0  0
  187.3790  176.2080  137.2350 C   0  0  2  0  0  3  0  0  0  0  0  0
  191.9270  176.5430  137.7920 C   0  0  0  0  0  2  0  0  0  0  0  0
  188.7860  176.6500  135.2670 C   0  0  1  0  0  3  0  0  0  0  0  0
  192.4670  174.2170  135.0120 O   0  0  0  0  0  1  0  0  0  0  0  0
  189.5300  176.2590  138.7900 C   0  0  0  0  0  2  0  0  0  0  0  0
  188.7210  176.8470  137.6230 C   0  0  2  0  0  0  0  0  0  0  0  0
  187.8150  180.3530  136.7170 N   0  0  0  0  0  1  0  0  0  0  0  0
  190.3110  174.7660  135.5170 O   0  0  0  0  0  0  0  0  0  0  0  0
  189.5080  177.2680  136.4710 C   0  0  2  0  0  3  0  0  0  0  0  0
  187.2140  174.5430  135.3000 C   0  0  2  0  0  3  0  0  0  0  0  0
  185.8300  174.4060  134.6970 C   0  0  0  0  0  1  0  0  0  0  0  0
  187.3510  173.6540  136.3710 O   0  0  0  0  0  1  0  0  0  0  0  0
  181.6530  176.2960  139.6910 O   0  0  0  0  0  1  0  0  0  0  0  0
  180.5390  178.0540  138.7480 F   0  0  0  0  0  0  0  0  0  0  0  0
  181.5290  177.1060  138.5610 C   0  0  1  0  0  3  0  0  0  0  0  0
  183.5030  179.8430  139.2520 O   0  0  0  0  0  1  0  0  0  0  0  0
  183.5880  178.4540  139.3690 C   0  0  1  0  0  3  0  0  0  0  0  0
  182.3280  179.1760  141.4310 C   0  0  0  0  0  1  0  0  0  0  0  0
  183.1000  178.0540  140.7660 C   0  0  2  0  0  3  0  0  0  0  0  0
  184.1840  177.6010  141.6290 N   0  0  0  0  0  2  0  0  0  0  0  0
  184.7900  178.7000  142.1400 O   0  0  0  0  0  0  0  0  0  0  0  0
  186.1230  177.0980  145.2780 C   0  0  0  0  0  2  0  0  0  0  0  0
  184.9240  178.4290  143.5040 C   0  0  2  0  0  3  0  0  0  0  0  0
  185.8490  178.2690  146.1920 C   0  0  0  0  0  3  0  0  0  0  0  0
  185.0650  179.7160  144.3100 C   0  0  0  0  0  2  0  0  0  0  0  0
  185.3340  179.4330  145.7630 C   0  0  0  0  0  3  0  0  0  0  0  0
  186.0850  177.4580  143.7860 C   0  0  1  0  0  3  0  0  0  0  0  0
  187.6160  177.8470  141.7370 C   0  0  0  0  0  1  0  0  0  0  0  0
  187.4820  177.8460  143.2550 C   0  0  2  0  0  3  0  0  0  0  0  0
  188.6240  177.1050  143.9640 C   0  0  1  0  0  3  0  0  0  0  0  0
  189.2580  176.1910  143.1190 O   0  0  0  0  0  1  0  0  0  0  0  0
  190.4970  177.4180  145.5960 C   0  0  0  0  0  0  0  0  0  0  0  0
  189.6160  178.0820  144.6180 C   0  0  1  0  0  3  0  0  0  0  0  0
  191.5580  177.8380  142.9330 C   0  0  0  0  0  2  0  0  0  0  0  0
  190.6000  178.7820  143.6450 C   0  0  2  0  0  3  0  0  0  0  0  0
  191.8280  177.6460  145.3270 O   0  0  0  0  0  0  0  0  0  0  0  0
  192.0040  178.5160  144.2140 C   0  0  1  0  0  3  0  0  0  0  0  0
  190.0990  176.7290  146.5750 O   0  0  0  0  0  0  0  0  0  0  0  0
  1 30  1  1  0  0  0
  1 32  1  0  0  0  0
  2  3  1  0  0  0  0
  3  4  1  6  0  0  0
  3  5  1  0  0  0  0
  3  1  1  0  0  0  0
  6 15  2  0  0  0  0
  7 21  1  0  0  0  0
  8 18  1  0  0  0  0
  8 23  1  0  0  0  0
  9 16  1  0  0  0  0
 10 12  1  0  0  0  0
 12 17  1  0  0  0  0
 12 14  1  0  0  0  0
 13 22  1  0  0  0  0
 13  6  1  0  0  0  0
 13  7  1  0  0  0  0
 15  5  1  0  0  0  0
 16 15  1  0  0  0  0
 16 21  1  0  0  0  0
 17 11  1  0  0  0  0
 18  9  1  0  0  0  0
 18 24  1  0  0  0  0
 19 10  1  0  0  0  0
 20 11  1  0  0  0  0
 21 20  1  0  0  0  0
 23 10  1  0  0  0  0
 24  7  1  0  0  0  0
 24 21  1  0  0  0  0
 25  9  1  0  0  0  0
 25 27  1  0  0  0  0
 26 25  1  0  0  0  0
 30 29  1  0  0  0  0
 30 28  1  0  0  0  0
 31 32  1  0  0  0  0
 32 34  1  0  0  0  0
 34 33  1  0  0  0  0
 34 35  1  0  0  0  0
 35 36  1  0  0  0  0
 36 38  1  0  0  0  0
 37 39  1  0  0  0  0
 38 42  1  0  0  0  0
 38 40  1  0  0  0  0
 40 41  1  0  0  0  0
 41 39  2  0  0  0  0
 42 37  1  0  0  0  0
 43 44  1  0  0  0  0
 44 42  1  0  0  0  0
 44 45  1  0  0  0  0
 45 48  1  0  0  0  0
 46 45  1  0  0  0  0
 47 53  2  0  0  0  0
 48 47  1  0  0  0  0
 49 50  1  0  0  0  0
 49 52  1  0  0  0  0
 50 52  1  0  0  0  0
 50 48  1  0  0  0  0
 51 47  1  0  0  0  0
 52 51  1  0  0  0  0
M  END
>  <MODEL>
2

>  <REMARK>
 VINA RESULT:      -7.2      2.514      5.931
  Name = 
  13 active torsions:
  status: ('A' for Active; 'I' for Inactive)
    1  A    between atoms: C_3  and  C_5
    2  A    between atoms: C_8  and  C_12
    3  A    between atoms: C_8  and  C_46
    4  A    between atoms: N_11  and  O_18
    5  A    between atoms: N_11  and  C_37
    6  A    between atoms: O_17  and  C_19
    7  A    between atoms: O_17  and  C_28
    8  A    between atoms: O_18  and  C_23
    9  A    between atoms: C_19  and  C_39
   10  A    between atoms: C_31  and  C_39
   11  A    between atoms: C_37  and  C_45
   12  A    between atoms: C_39  and  C_45
   13  A    between atoms: C_44  and  C_46
                            x       y       z     vdW  Elec       q    Type
                         _______ _______ _______ _____ _____    ______ ____

>  <TORSDO>
F 13

$$$$
=
 OpenBabel11062414053D

 53 59  0  0  1  0  0  0  0  0999 V2000
  189.6800  174.7370  137.3460 C   0  0  1  0  0  3  0  0  0  0  0  0
  188.5010  172.7480  136.6830 O   0  0  0  0  0  1  0  0  0  0  0  0
  188.4050  174.1460  136.6940 C   0  0  2  0  0  0  0  0  0  0  0  0
  188.2690  174.6410  135.2510 C   0  0  0  0  0  1  0  0  0  0  0  0
  187.2550  174.5250  137.4660 O   0  0  0  0  0  0  0  0  0  0  0  0
  185.4240  173.2450  136.5970 C   0  0  0  0  0  3  0  0  0  0  0  0
  183.1110  173.9020  137.0450 N   0  0  1  0  0  0  0  0  0  0  0  0
  182.5500  177.1340  134.9340 C   0  0  0  0  0  2  0  0  0  0  0  0
  184.8280  176.1320  135.6640 C   0  0  1  0  0  3  0  0  0  0  0  0
  180.9860  177.8600  136.3760 C   0  0  1  0  0  3  0  0  0  0  0  0
  181.6040  175.5320  139.2210 C   0  0  0  0  0  2  0  0  0  0  0  0
  180.7600  177.6370  137.8790 C   0  0  2  0  0  3  0  0  0  0  0  0
  184.0110  173.2110  136.1080 C   0  0  2  0  0  3  0  0  0  0  0  0
  181.6980  178.3080  138.6680 O   0  0  0  0  0  1  0  0  0  0  0  0
  185.9230  174.4060  137.0390 C   0  0  0  0  0  0  0  0  0  0  0  0
  185.0260  175.6160  137.0770 C   0  0  2  0  0  3  0  0  0  0  0  0
  180.6090  176.1470  138.2230 C   0  0  0  0  0  2  0  0  0  0  0  0
  183.3580  175.8720  135.2870 C   0  0  1  0  0  3  0  0  0  0  0  0
  180.3430  179.0300  135.9760 O   0  0  0  0  0  1  0  0  0  0  0  0
  183.0960  175.7190  138.8960 C   0  0  0  0  0  2  0  0  0  0  0  0
  183.6190  175.2110  137.5430 C   0  0  2  0  0  0  0  0  0  0  0  0
  183.5800  171.8380  135.9470 N   0  0  0  0  0  1  0  0  0  0  0  0
  182.3510  177.9510  136.0650 O   0  0  0  0  0  0  0  0  0  0  0  0
  182.6410  175.1990  136.4640 C   0  0  2  0  0  3  0  0  0  0  0  0
  185.3740  177.5520  135.4410 C   0  0  2  0  0  3  0  0  0  0  0  0
  186.6330  177.5150  134.5970 C   0  0  0  0  0  1  0  0  0  0  0  0
  185.6410  178.1940  136.6550 O   0  0  0  0  0  1  0  0  0  0  0  0
  191.3710  175.1800  135.6560 O   0  0  0  0  0  1  0  0  0  0  0  0
  191.9650  173.9520  137.4890 F   0  0  0  0  0  0  0  0  0  0  0  0
  190.9420  174.2520  136.6080 C   0  0  1  0  0  3  0  0  0  0  0  0
  188.3060  176.7250  137.6200 O   0  0  0  0  0  1  0  0  0  0  0  0
  189.6270  176.2810  137.5390 C   0  0  1  0  0  3  0  0  0  0  0  0
  191.8700  177.0070  138.4360 C   0  0  0  0  0  1  0  0  0  0  0  0
  190.3980  176.8280  138.7470 C   0  0  2  0  0  3  0  0  0  0  0  0
  190.2240  176.0060  139.9380 N   0  0  0  0  0  2  0  0  0  0  0  0
  189.3940  176.6720  140.7790 O   0  0  0  0  0  0  0  0  0  0  0  0
  190.5140  178.6600  143.7760 C   0  0  0  0  0  2  0  0  0  0  0  0
  190.2130  177.0810  141.8340 C   0  0  2  0  0  3  0  0  0  0  0  0
  191.3440  177.5630  144.4020 C   0  0  0  0  0  3  0  0  0  0  0  0
  190.6650  175.8900  142.6730 C   0  0  0  0  0  2  0  0  0  0  0  0
  191.4450  176.3290  143.8830 C   0  0  0  0  0  3  0  0  0  0  0  0
  189.5390  178.1580  142.7020 C   0  0  1  0  0  3  0  0  0  0  0  0
  187.8630  176.3410  143.4660 C   0  0  0  0  0  1  0  0  0  0  0  0
  188.1530  177.8270  143.2970 C   0  0  2  0  0  3  0  0  0  0  0  0
  187.0080  178.5960  142.6230 C   0  0  1  0  0  3  0  0  0  0  0  0
  187.1870  178.6940  141.2410 O   0  0  0  0  0  1  0  0  0  0  0  0
  184.9220  178.8350  143.9870 C   0  0  0  0  0  0  0  0  0  0  0  0
  185.6340  178.0110  142.9940 C   0  0  1  0  0  3  0  0  0  0  0  0
  184.2130  179.2110  141.2030 C   0  0  0  0  0  2  0  0  0  0  0  0
  184.6270  177.8840  141.8230 C   0  0  2  0  0  3  0  0  0  0  0  0
  183.6610  179.1840  143.5560 O   0  0  0  0  0  0  0  0  0  0  0  0
  183.3510  178.6040  142.2940 C   0  0  1  0  0  3  0  0  0  0  0  0
  185.3890  179.1810  145.1070 O   0  0  0  0  0  0  0  0  0  0  0  0
  1 30  1  6  0  0  0
  1 32  1  0  0  0  0
  2  3  1  0  0  0  0
  3  4  1  6  0  0  0
  3  1  1  0  0  0  0
  3  5  1  0  0  0  0
  6 15  2  0  0  0  0
  7 21  1  0  0  0  0
  8 18  1  0  0  0  0
  8 23  1  0  0  0  0
  9 16  1  0  0  0  0
 10 12  1  0  0  0  0
 12 17  1  0  0  0  0
 12 14  1  0  0  0  0
 13  6  1  0  0  0  0
 13  7  1  0  0  0  0
 15 16  1  0  0  0  0
 15  5  1  0  0  0  0
 16 21  1  0  0  0  0
 17 11  1  0  0  0  0
 18  9  1  0  0  0  0
 18 24  1  0  0  0  0
 19 10  1  0  0  0  0
 20 11  1  0  0  0  0
 21 20  1  0  0  0  0
 22 13  1  0  0  0  0
 23 10  1  0  0  0  0
 24  7  1  0  0  0  0
 24 21  1  0  0  0  0
 25  9  1  0  0  0  0
 25 27  1  0  0  0  0
 26 25  1  0  0  0  0
 28 30  1  0  0  0  0
 30 29  1  0  0  0  0
 32 31  1  0  0  0  0
 32 34  1  0  0  0  0
 33 34  1  0  0  0  0
 34 35  1  0  0  0  0
 35 36  1  0  0  0  0
 36 38  1  0  0  0  0
 37 39  1  0  0  0  0
 38 40  1  0  0  0  0
 38 42  1  0  0  0  0
 40 41  1  0  0  0  0
 41 39  2  0  0  0  0
 42 44  1  0  0  0  0
 42 37  1  0  0  0  0
 44 43  1  0  0  0  0
 45 48  1  0  0  0  0
 45 44  1  0  0  0  0
 46 45  1  0  0  0  0
 47 53  2  0  0  0  0
 48 47  1  0  0  0  0
 49 50  1  0  0  0  0
 49 52  1  0  0  0  0
 50 52  1  0  0  0  0
 50 48  1  0  0  0  0
 51 47  1  0  0  0  0
 52 51  1  0  0  0  0
M  END
>  <MODEL>
3

>  <REMARK>
 VINA RESULT:      -6.6      2.872      6.187
  Name = 
  13 active torsions:
  status: ('A' for Active; 'I' for Inactive)
    1  A    between atoms: C_3  and  C_5
    2  A    between atoms: C_8  and  C_12
    3  A    between atoms: C_8  and  C_46
    4  A    between atoms: N_11  and  O_18
    5  A    between atoms: N_11  and  C_37
    6  A    between atoms: O_17  and  C_19
    7  A    between atoms: O_17  and  C_28
    8  A    between atoms: O_18  and  C_23
    9  A    between atoms: C_19  and  C_39
   10  A    between atoms: C_31  and  C_39
   11  A    between atoms: C_37  and  C_45
   12  A    between atoms: C_39  and  C_45
   13  A    between atoms: C_44  and  C_46
                            x       y       z     vdW  Elec       q    Type
                         _______ _______ _______ _____ _____    ______ ____

>  <TORSDO>
F 13

$$$$
=
 OpenBabel11062414053D

 53 59  0  0  1  0  0  0  0  0999 V2000
  188.6230  177.0180  137.2750 C   0  0  1  0  0  3  0  0  0  0  0  0
  188.5920  177.3870  134.8980 O   0  0  0  0  0  1  0  0  0  0  0  0
  187.8970  177.6820  136.0780 C   0  0  2  0  0  0  0  0  0  0  0  0
  187.8610  179.2030  136.2590 C   0  0  0  0  0  1  0  0  0  0  0  0
  186.5660  177.1560  135.9750 O   0  0  0  0  0  0  0  0  0  0  0  0
  185.7080  178.1570  137.9770 C   0  0  0  0  0  3  0  0  0  0  0  0
  183.3020  178.4490  138.3010 N   0  0  1  0  0  0  0  0  0  0  0  0
  181.9110  174.8480  138.8690 C   0  0  0  0  0  2  0  0  0  0  0  0
  184.1670  175.4850  137.7570 C   0  0  1  0  0  3  0  0  0  0  0  0
  179.9040  175.4440  138.0520 C   0  0  1  0  0  3  0  0  0  0  0  0
  180.7900  178.7090  136.4870 C   0  0  0  0  0  2  0  0  0  0  0  0
  179.4600  176.5010  137.0300 C   0  0  2  0  0  3  0  0  0  0  0  0
  184.5970  178.2660  138.9730 C   0  0  2  0  0  3  0  0  0  0  0  0
  179.8140  176.1640  135.7210 O   0  0  0  0  0  1  0  0  0  0  0  0
  185.5480  177.3470  136.9230 C   0  0  0  0  0  0  0  0  0  0  0  0
  184.2380  176.6220  136.7550 C   0  0  2  0  0  3  0  0  0  0  0  0
  179.8850  177.9170  137.4440 C   0  0  0  0  0  2  0  0  0  0  0  0
  183.0770  175.8510  138.7820 C   0  0  1  0  0  3  0  0  0  0  0  0
  178.9340  174.4490  138.1480 O   0  0  0  0  0  1  0  0  0  0  0  0
  182.0900  178.0130  136.0490 C   0  0  0  0  0  2  0  0  0  0  0  0
  183.0730  177.5490  137.1350 C   0  0  2  0  0  0  0  0  0  0  0  0
  184.8430  179.3820  139.8620 N   0  0  0  0  0  1  0  0  0  0  0  0
  181.1310  174.8630  137.6970 O   0  0  0  0  0  0  0  0  0  0  0  0
  182.4680  177.2100  138.4170 C   0  0  2  0  0  3  0  0  0  0  0  0
  184.0890  174.0930  137.1100 C   0  0  2  0  0  3  0  0  0  0  0  0
  185.1140  173.1590  137.7250 C   0  0  0  0  0  1  0  0  0  0  0  0
  184.2840  174.1600  135.7270 O   0  0  0  0  0  1  0  0  0  0  0  0
  188.2050  174.7320  136.5620 O   0  0  0  0  0  1  0  0  0  0  0  0
  190.0950  175.7730  135.8120 F   0  0  0  0  0  0  0  0  0  0  0  0
  189.2090  175.6540  136.8670 C   0  0  1  0  0  3  0  0  0  0  0  0
  189.0710  179.1820  138.2910 O   0  0  0  0  0  1  0  0  0  0  0  0
  189.6500  177.9500  137.9810 C   0  0  1  0  0  3  0  0  0  0  0  0
  191.3640  176.3590  138.9270 C   0  0  0  0  0  1  0  0  0  0  0  0
  190.2990  177.3860  139.2510 C   0  0  2  0  0  3  0  0  0  0  0  0
  189.3200  176.8300  140.1770 N   0  0  0  0  0  2  0  0  0  0  0  0
  189.9960  176.3420  141.2460 O   0  0  0  0  0  0  0  0  0  0  0  0
  189.7960  179.3840  143.4590 C   0  0  0  0  0  2  0  0  0  0  0  0
  190.4290  177.4750  141.9390 C   0  0  2  0  0  3  0  0  0  0  0  0
  191.2220  179.3210  143.9560 C   0  0  0  0  0  3  0  0  0  0  0  0
  191.6760  177.1710  142.7630 C   0  0  0  0  0  2  0  0  0  0  0  0
  192.0800  178.3480  143.6100 C   0  0  0  0  0  3  0  0  0  0  0  0
  189.3130  178.0800  142.8080 C   0  0  1  0  0  3  0  0  0  0  0  0
  187.6520  176.1430  143.2330 C   0  0  0  0  0  1  0  0  0  0  0  0
  188.6250  177.1510  143.8310 C   0  0  2  0  0  3  0  0  0  0  0  0
  188.0500  177.9040  145.0390 C   0  0  1  0  0  3  0  0  0  0  0  0
  186.7170  178.2720  144.8410 O   0  0  0  0  0  1  0  0  0  0  0  0
  189.6100  177.2810  146.8960 C   0  0  0  0  0  0  0  0  0  0  0  0
  188.2520  177.1200  146.3470 C   0  0  1  0  0  3  0  0  0  0  0  0
  187.5270  178.9580  148.0100 C   0  0  0  0  0  2  0  0  0  0  0  0
  187.3240  177.5320  147.5200 C   0  0  2  0  0  3  0  0  0  0  0  0
  189.5880  177.7120  148.2040 O   0  0  0  0  0  0  0  0  0  0  0  0
  188.2610  177.8270  148.7040 C   0  0  1  0  0  3  0  0  0  0  0  0
  190.6770  177.0470  146.2640 O   0  0  0  0  0  0  0  0  0  0  0  0
  1 30  1  6  0  0  0
  1 32  1  0  0  0  0
  2  3  1  0  0  0  0
  3  4  1  1  0  0  0
  3  1  1  0  0  0  0
  5  3  1  0  0  0  0
  5 15  1  0  0  0  0
  6 13  1  0  0  0  0
  7 24  1  0  0  0  0
  7 13  1  0  0  0  0
  9 18  1  0  0  0  0
 10 19  1  0  0  0  0
 11 17  1  0  0  0  0
 12 17  1  0  0  0  0
 12 10  1  0  0  0  0
 13 22  1  0  0  0  0
 14 12  1  0  0  0  0
 15  6  2  0  0  0  0
 16 15  1  0  0  0  0
 16 21  1  0  0  0  0
 16  9  1  0  0  0  0
 18  8  1  0  0  0  0
 20 11  1  0  0  0  0
 20 21  1  0  0  0  0
 21  7  1  0  0  0  0
 21 24  1  0  0  0  0
 23 10  1  0  0  0  0
 23  8  1  0  0  0  0
 24 18  1  0  0  0  0
 25 26  1  0  0  0  0
 25  9  1  0  0  0  0
 27 25  1  0  0  0  0
 28 30  1  0  0  0  0
 29 30  1  0  0  0  0
 32 31  1  0  0  0  0
 32 34  1  0  0  0  0
 33 34  1  0  0  0  0
 34 35  1  0  0  0  0
 35 36  1  0  0  0  0
 36 38  1  0  0  0  0
 37 39  1  0  0  0  0
 38 40  1  0  0  0  0
 38 42  1  0  0  0  0
 40 41  1  0  0  0  0
 41 39  2  0  0  0  0
 42 37  1  0  0  0  0
 42 44  1  0  0  0  0
 43 44  1  0  0  0  0
 44 45  1  0  0  0  0
 45 48  1  0  0  0  0
 46 45  1  0  0  0  0
 47 51  1  0  0  0  0
 48 47  1  0  0  0  0
 48 50  1  0  0  0  0
 49 52  1  0  0  0  0
 50 49  1  0  0  0  0
 50 52  1  0  0  0  0
 51 52  1  0  0  0  0
 53 47  2  0  0  0  0
M  END
>  <MODEL>
4

>  <REMARK>
 VINA RESULT:      -6.3      2.948      6.120
  Name = 
  13 active torsions:
  status: ('A' for Active; 'I' for Inactive)
    1  A    between atoms: C_3  and  C_5
    2  A    between atoms: C_8  and  C_12
    3  A    between atoms: C_8  and  C_46
    4  A    between atoms: N_11  and  O_18
    5  A    between atoms: N_11  and  C_37
    6  A    between atoms: O_17  and  C_19
    7  A    between atoms: O_17  and  C_28
    8  A    between atoms: O_18  and  C_23
    9  A    between atoms: C_19  and  C_39
   10  A    between atoms: C_31  and  C_39
   11  A    between atoms: C_37  and  C_45
   12  A    between atoms: C_39  and  C_45
   13  A    between atoms: C_44  and  C_46
                            x       y       z     vdW  Elec       q    Type
                         _______ _______ _______ _____ _____    ______ ____

>  <TORSDO>
F 13

$$$$
=
 OpenBabel11062414053D

 53 59  0  0  1  0  0  0  0  0999 V2000
  189.0360  177.0500  137.4690 C   0  0  1  0  0  3  0  0  0  0  0  0
  188.8600  177.1930  135.0750 O   0  0  0  0  0  1  0  0  0  0  0  0
  188.1550  177.4470  136.2580 C   0  0  2  0  0  0  0  0  0  0  0  0
  187.8170  178.9400  136.3170 C   0  0  0  0  0  1  0  0  0  0  0  0
  186.9560  176.6590  136.2610 O   0  0  0  0  0  0  0  0  0  0  0  0
  185.7330  177.9650  137.8570 C   0  0  0  0  0  3  0  0  0  0  0  0
  183.3250  178.3110  137.6120 N   0  0  1  0  0  0  0  0  0  0  0  0
  181.7170  174.8490  138.4160 C   0  0  0  0  0  2  0  0  0  0  0  0
  184.1770  175.2960  137.7250 C   0  0  1  0  0  3  0  0  0  0  0  0
  179.9490  175.3140  137.1080 C   0  0  1  0  0  3  0  0  0  0  0  0
  181.2610  178.2890  135.2850 C   0  0  0  0  0  2  0  0  0  0  0  0
  179.7680  176.1970  135.8650 C   0  0  2  0  0  3  0  0  0  0  0  0
  184.4430  178.2330  138.5640 C   0  0  2  0  0  3  0  0  0  0  0  0
  180.3760  175.6570  134.7290 O   0  0  0  0  0  1  0  0  0  0  0  0
  185.7690  177.0000  136.9300 C   0  0  0  0  0  0  0  0  0  0  0  0
  184.4980  176.2600  136.5990 C   0  0  2  0  0  3  0  0  0  0  0  0
  180.1470  177.6600  136.1380 C   0  0  0  0  0  2  0  0  0  0  0  0
  182.9100  175.8210  138.4260 C   0  0  1  0  0  3  0  0  0  0  0  0
  178.9450  174.3480  137.1460 O   0  0  0  0  0  1  0  0  0  0  0  0
  182.5980  177.5290  135.2470 C   0  0  0  0  0  2  0  0  0  0  0  0
  183.3140  177.2390  136.5760 C   0  0  2  0  0  0  0  0  0  0  0  0
  184.5360  179.4740  139.3030 N   0  0  0  0  0  1  0  0  0  0  0  0
  181.2020  174.6800  137.1160 O   0  0  0  0  0  0  0  0  0  0  0  0
  182.4410  177.1080  137.7360 C   0  0  2  0  0  3  0  0  0  0  0  0
  184.1870  173.8190  137.2980 C   0  0  2  0  0  3  0  0  0  0  0  0
  185.3500  173.0850  137.9360 C   0  0  0  0  0  1  0  0  0  0  0  0
  184.2550  173.6900  135.9070 O   0  0  0  0  0  1  0  0  0  0  0  0
  191.3400  176.4780  136.9440 O   0  0  0  0  0  1  0  0  0  0  0  0
  190.0350  174.9000  137.9590 F   0  0  0  0  0  0  0  0  0  0  0  0
  190.0490  175.9600  137.0710 C   0  0  1  0  0  3  0  0  0  0  0  0
  188.9650  179.4330  137.9470 O   0  0  0  0  0  1  0  0  0  0  0  0
  189.6830  178.2630  138.1990 C   0  0  1  0  0  3  0  0  0  0  0  0
  191.1490  177.4150  140.0690 C   0  0  0  0  0  1  0  0  0  0  0  0
  189.8520  178.1150  139.7160 C   0  0  2  0  0  3  0  0  0  0  0  0
  188.7220  177.4380  140.3400 N   0  0  0  0  0  2  0  0  0  0  0  0
  189.1170  177.0250  141.5690 O   0  0  0  0  0  0  0  0  0  0  0  0
  187.0330  177.2220  144.7000 C   0  0  0  0  0  2  0  0  0  0  0  0
  187.9730  177.1290  142.3630 C   0  0  2  0  0  3  0  0  0  0  0  0
  185.9150  178.0450  144.1040 C   0  0  0  0  0  3  0  0  0  0  0  0
  187.0960  178.2940  141.9150 C   0  0  0  0  0  2  0  0  0  0  0  0
  185.9240  178.4920  142.8380 C   0  0  0  0  0  3  0  0  0  0  0  0
  188.3170  177.2260  143.8600 C   0  0  1  0  0  3  0  0  0  0  0  0
  190.3270  178.7410  143.2580 C   0  0  0  0  0  1  0  0  0  0  0  0
  189.2820  178.3500  144.2960 C   0  0  2  0  0  3  0  0  0  0  0  0
  189.8720  178.1290  145.6960 C   0  0  1  0  0  3  0  0  0  0  0  0
  189.0390  178.6300  146.6990 O   0  0  0  0  0  1  0  0  0  0  0  0
  191.5360  176.2990  145.3080 C   0  0  0  0  0  0  0  0  0  0  0  0
  190.2470  176.6550  145.9290 C   0  0  1  0  0  3  0  0  0  0  0  0
  191.5620  176.9410  148.1330 C   0  0  0  0  0  2  0  0  0  0  0  0
  190.4200  176.2390  147.4130 C   0  0  2  0  0  3  0  0  0  0  0  0
  192.4040  175.7350  146.2160 O   0  0  0  0  0  0  0  0  0  0  0  0
  191.8090  175.5850  147.5000 C   0  0  1  0  0  3  0  0  0  0  0  0
  191.8240  176.4690  144.0920 O   0  0  0  0  0  0  0  0  0  0  0  0
  1 30  1  6  0  0  0
  1 32  1  0  0  0  0
  2  3  1  0  0  0  0
  3  5  1  0  0  0  0
  3  4  1  1  0  0  0
  3  1  1  0  0  0  0
  5 15  1  0  0  0  0
  6 13  1  0  0  0  0
  7 24  1  0  0  0  0
  7 13  1  0  0  0  0
  8 18  1  0  0  0  0
  9 18  1  0  0  0  0
 10 23  1  0  0  0  0
 10 19  1  0  0  0  0
 11 17  1  0  0  0  0
 12 17  1  0  0  0  0
 12 10  1  0  0  0  0
 13 22  1  0  0  0  0
 14 12  1  0  0  0  0
 15  6  2  0  0  0  0
 16 15  1  0  0  0  0
 16  9  1  0  0  0  0
 20 11  1  0  0  0  0
 20 21  1  0  0  0  0
 21 16  1  0  0  0  0
 21  7  1  0  0  0  0
 21 24  1  0  0  0  0
 23  8  1  0  0  0  0
 24 18  1  0  0  0  0
 25  9  1  0  0  0  0
 25 26  1  0  0  0  0
 27 25  1  0  0  0  0
 28 30  1  0  0  0  0
 30 29  1  0  0  0  0
 31 32  1  0  0  0  0
 32 34  1  0  0  0  0
 34 33  1  0  0  0  0
 34 35  1  0  0  0  0
 35 36  1  0  0  0  0
 36 38  1  0  0  0  0
 38 42  1  0  0  0  0
 39 37  1  0  0  0  0
 40 38  1  0  0  0  0
 40 41  1  0  0  0  0
 41 39  2  0  0  0  0
 42 44  1  0  0  0  0
 42 37  1  0  0  0  0
 43 44  1  0  0  0  0
 44 45  1  0  0  0  0
 45 48  1  0  0  0  0
 45 46  1  0  0  0  0
 47 48  1  0  0  0  0
 47 51  1  0  0  0  0
 48 50  1  0  0  0  0
 50 52  1  0  0  0  0
 50 49  1  0  0  0  0
 51 52  1  0  0  0  0
 52 49  1  0  0  0  0
 53 47  2  0  0  0  0
M  END
>  <MODEL>
5

>  <REMARK>
 VINA RESULT:      -6.3      2.822      5.927
  Name = 
  13 active torsions:
  status: ('A' for Active; 'I' for Inactive)
    1  A    between atoms: C_3  and  C_5
    2  A    between atoms: C_8  and  C_12
    3  A    between atoms: C_8  and  C_46
    4  A    between atoms: N_11  and  O_18
    5  A    between atoms: N_11  and  C_37
    6  A    between atoms: O_17  and  C_19
    7  A    between atoms: O_17  and  C_28
    8  A    between atoms: O_18  and  C_23
    9  A    between atoms: C_19  and  C_39
   10  A    between atoms: C_31  and  C_39
   11  A    between atoms: C_37  and  C_45
   12  A    between atoms: C_39  and  C_45
   13  A    between atoms: C_44  and  C_46
                            x       y       z     vdW  Elec       q    Type
                         _______ _______ _______ _____ _____    ______ ____

>  <TORSDO>
F 13

$$$$
=
 OpenBabel11062414053D

 53 59  0  0  1  0  0  0  0  0999 V2000
  187.4870  176.7240  136.2640 C   0  0  1  0  0  3  0  0  0  0  0  0
  186.2450  174.7360  135.7250 O   0  0  0  0  0  1  0  0  0  0  0  0
  186.0930  176.1000  136.0040 C   0  0  2  0  0  0  0  0  0  0  0  0
  185.4270  176.7760  134.8020 C   0  0  0  0  0  1  0  0  0  0  0  0
  185.2790  176.2450  137.1770 O   0  0  0  0  0  0  0  0  0  0  0  0
  183.1180  176.3230  136.1430 C   0  0  0  0  0  3  0  0  0  0  0  0
  181.0860  176.4700  137.4960 N   0  0  1  0  0  0  0  0  0  0  0  0
  181.1040  180.0860  138.9620 C   0  0  0  0  0  2  0  0  0  0  0  0
  183.1390  178.7810  138.0200 C   0  0  1  0  0  3  0  0  0  0  0  0
  179.9110  179.4180  140.7460 C   0  0  1  0  0  3  0  0  0  0  0  0
  180.2370  175.7220  140.3920 C   0  0  0  0  0  2  0  0  0  0  0  0
  179.7910  178.0780  141.4850 C   0  0  2  0  0  3  0  0  0  0  0  0
  181.6960  176.7840  136.1950 C   0  0  2  0  0  3  0  0  0  0  0  0
  180.9360  177.7660  142.2230 O   0  0  0  0  0  1  0  0  0  0  0  0
  183.9210  176.6020  137.1770 C   0  0  0  0  0  0  0  0  0  0  0  0
  183.3480  177.3210  138.3720 C   0  0  2  0  0  3  0  0  0  0  0  0
  179.3230  176.9480  140.5560 C   0  0  0  0  0  2  0  0  0  0  0  0
  181.6190  179.0240  137.9720 C   0  0  1  0  0  3  0  0  0  0  0  0
  179.5300  180.4560  141.5950 O   0  0  0  0  0  1  0  0  0  0  0  0
  181.6900  176.0080  139.9760 C   0  0  0  0  0  2  0  0  0  0  0  0
  181.9390  176.7890  138.6760 C   0  0  2  0  0  0  0  0  0  0  0  0
  180.9360  176.1500  135.1390 N   0  0  0  0  0  1  0  0  0  0  0  0
  181.2210  179.6460  140.2950 O   0  0  0  0  0  0  0  0  0  0  0  0
  180.8830  177.7190  138.2980 C   0  0  2  0  0  3  0  0  0  0  0  0
  183.9830  179.7490  138.8650 C   0  0  2  0  0  3  0  0  0  0  0  0
  184.3010  179.1420  140.2170 C   0  0  0  0  0  1  0  0  0  0  0  0
  183.3330  180.9750  139.0400 O   0  0  0  0  0  1  0  0  0  0  0  0
  186.8070  178.9490  136.9700 O   0  0  0  0  0  1  0  0  0  0  0  0
  188.7460  178.7340  135.7800 F   0  0  0  0  0  0  0  0  0  0  0  0
  187.4700  178.2360  135.9680 C   0  0  1  0  0  3  0  0  0  0  0  0
  188.4160  175.0160  137.7240 O   0  0  0  0  0  1  0  0  0  0  0  0
  188.0820  176.3700  137.6580 C   0  0  1  0  0  3  0  0  0  0  0  0
  190.4650  176.3040  138.4840 C   0  0  0  0  0  1  0  0  0  0  0  0
  189.3030  177.1920  138.0890 C   0  0  2  0  0  3  0  0  0  0  0  0
  188.9930  178.1320  139.1600 N   0  0  0  0  0  2  0  0  0  0  0  0
  189.7000  177.7570  140.2540 O   0  0  0  0  0  0  0  0  0  0  0  0
  188.2150  176.0150  143.2460 C   0  0  0  0  0  2  0  0  0  0  0  0
  188.7330  177.3730  141.1860 C   0  0  2  0  0  3  0  0  0  0  0  0
  187.1640  177.0590  143.5410 C   0  0  0  0  0  3  0  0  0  0  0  0
  187.9960  178.5860  141.7450 C   0  0  0  0  0  2  0  0  0  0  0  0
  187.0390  178.1960  142.8390 C   0  0  0  0  0  3  0  0  0  0  0  0
  189.3290  176.5080  142.3110 C   0  0  1  0  0  3  0  0  0  0  0  0
  191.7150  177.5060  142.2480 C   0  0  0  0  0  1  0  0  0  0  0  0
  190.5210  177.0900  143.1000 C   0  0  2  0  0  3  0  0  0  0  0  0
  190.9120  176.2410  144.3170 C   0  0  1  0  0  3  0  0  0  0  0  0
  191.9030  175.3060  144.0060 O   0  0  0  0  0  1  0  0  0  0  0  0
  190.1110  177.6000  146.2610 C   0  0  0  0  0  0  0  0  0  0  0  0
  191.2920  177.1160  145.5240 C   0  0  1  0  0  3  0  0  0  0  0  0
  191.4550  175.2570  147.3080 C   0  0  0  0  0  2  0  0  0  0  0  0
  192.1500  176.4160  146.6100 C   0  0  2  0  0  3  0  0  0  0  0  0
  190.1790  177.2870  147.6010 O   0  0  0  0  0  0  0  0  0  0  0  0
  191.4000  176.6360  147.9340 C   0  0  1  0  0  3  0  0  0  0  0  0
  189.1500  178.2360  145.7490 O   0  0  0  0  0  0  0  0  0  0  0  0
  1 30  1  1  0  0  0
  1 32  1  0  0  0  0
  2  3  1  0  0  0  0
  3  4  1  6  0  0  0
  3  1  1  0  0  0  0
  3  5  1  0  0  0  0
  6 13  1  0  0  0  0
  6 15  2  0  0  0  0
  7 24  1  0  0  0  0
  7 21  1  0  0  0  0
  8 23  1  0  0  0  0
  9 16  1  0  0  0  0
  9 25  1  0  0  0  0
 10 12  1  0  0  0  0
 10 19  1  0  0  0  0
 11 17  1  0  0  0  0
 12 14  1  0  0  0  0
 13  7  1  0  0  0  0
 15  5  1  0  0  0  0
 15 16  1  0  0  0  0
 16 21  1  0  0  0  0
 17 12  1  0  0  0  0
 18  9  1  0  0  0  0
 18 24  1  0  0  0  0
 18  8  1  0  0  0  0
 20 11  1  0  0  0  0
 21 20  1  0  0  0  0
 22 13  1  0  0  0  0
 23 10  1  0  0  0  0
 24 21  1  0  0  0  0
 25 27  1  0  0  0  0
 25 26  1  0  0  0  0
 29 30  1  0  0  0  0
 30 28  1  0  0  0  0
 32 31  1  0  0  0  0
 32 34  1  0  0  0  0
 34 33  1  0  0  0  0
 34 35  1  0  0  0  0
 35 36  1  0  0  0  0
 36 38  1  0  0  0  0
 37 39  1  0  0  0  0
 38 40  1  0  0  0  0
 38 42  1  0  0  0  0
 40 41  1  0  0  0  0
 41 39  2  0  0  0  0
 42 44  1  0  0  0  0
 42 37  1  0  0  0  0
 43 44  1  0  0  0  0
 44 45  1  0  0  0  0
 45 48  1  0  0  0  0
 46 45  1  0  0  0  0
 47 51  1  0  0  0  0
 48 47  1  0  0  0  0
 48 50  1  0  0  0  0
 49 52  1  0  0  0  0
 50 49  1  0  0  0  0
 50 52  1  0  0  0  0
 51 52  1  0  0  0  0
 53 47  2  0  0  0  0
M  END
>  <MODEL>
6

>  <REMARK>
 VINA RESULT:      -6.2      3.045      6.456
  Name = 
  13 active torsions:
  status: ('A' for Active; 'I' for Inactive)
    1  A    between atoms: C_3  and  C_5
    2  A    between atoms: C_8  and  C_12
    3  A    between atoms: C_8  and  C_46
    4  A    between atoms: N_11  and  O_18
    5  A    between atoms: N_11  and  C_37
    6  A    between atoms: O_17  and  C_19
    7  A    between atoms: O_17  and  C_28
    8  A    between atoms: O_18  and  C_23
    9  A    between atoms: C_19  and  C_39
   10  A    between atoms: C_31  and  C_39
   11  A    between atoms: C_37  and  C_45
   12  A    between atoms: C_39  and  C_45
   13  A    between atoms: C_44  and  C_46
                            x       y       z     vdW  Elec       q    Type
                         _______ _______ _______ _____ _____    ______ ____

>  <TORSDO>
F 13

$$$$
=
 OpenBabel11062414053D

 53 59  0  0  1  0  0  0  0  0999 V2000
  184.1520  179.3020  142.7280 C   0  0  1  0  0  3  0  0  0  0  0  0
  184.0240  177.3540  141.3220 O   0  0  0  0  0  1  0  0  0  0  0  0
  183.8470  178.7440  141.3150 C   0  0  2  0  0  0  0  0  0  0  0  0
  184.8030  179.3560  140.2870 C   0  0  0  0  0  1  0  0  0  0  0  0
  182.4850  179.0360  140.9710 O   0  0  0  0  0  0  0  0  0  0  0  0
  181.5810  180.1300  139.0390 C   0  0  0  0  0  3  0  0  0  0  0  0
  181.7730  179.1190  136.8210 N   0  0  1  0  0  0  0  0  0  0  0  0
  179.3460  176.0650  136.8860 C   0  0  0  0  0  2  0  0  0  0  0  0
  180.3500  177.2950  138.9370 C   0  0  1  0  0  3  0  0  0  0  0  0
  180.5820  174.9910  135.3460 C   0  0  1  0  0  3  0  0  0  0  0  0
  183.6630  177.0880  135.4170 C   0  0  0  0  0  2  0  0  0  0  0  0
  182.0730  175.0300  134.9860 C   0  0  2  0  0  3  0  0  0  0  0  0
  180.9800  180.0170  137.6740 C   0  0  2  0  0  3  0  0  0  0  0  0
  182.8760  174.4200  135.9530 O   0  0  0  0  0  1  0  0  0  0  0  0
  181.9590  179.0110  139.6690 C   0  0  0  0  0  0  0  0  0  0  0  0
  181.8140  177.6910  138.9570 C   0  0  2  0  0  3  0  0  0  0  0  0
  182.5340  176.4430  134.5950 C   0  0  0  0  0  2  0  0  0  0  0  0
  179.8750  177.3860  137.4750 C   0  0  1  0  0  3  0  0  0  0  0  0
  180.0270  173.7890  134.9110 O   0  0  0  0  0  1  0  0  0  0  0  0
  183.4490  177.1420  136.9390 C   0  0  0  0  0  2  0  0  0  0  0  0
  182.1950  177.8490  137.4770 C   0  0  2  0  0  0  0  0  0  0  0  0
  180.9050  181.3260  137.0600 N   0  0  0  0  0  1  0  0  0  0  0  0
  180.3790  175.1210  136.7290 O   0  0  0  0  0  0  0  0  0  0  0  0
  181.0420  177.8330  136.5860 C   0  0  2  0  0  3  0  0  0  0  0  0
  180.0490  175.9940  139.6980 C   0  0  2  0  0  3  0  0  0  0  0  0
  179.4780  176.2960  141.0700 C   0  0  0  0  0  1  0  0  0  0  0  0
  181.1950  175.2020  139.8300 O   0  0  0  0  0  1  0  0  0  0  0  0
  183.0750  179.5330  144.8950 O   0  0  0  0  0  1  0  0  0  0  0  0
  181.9280  178.4840  143.2200 F   0  0  0  0  0  0  0  0  0  0  0  0
  183.1770  178.7170  143.7660 C   0  0  1  0  0  3  0  0  0  0  0  0
  185.7720  179.0630  144.5260 O   0  0  0  0  0  1  0  0  0  0  0  0
  185.6480  179.1790  143.1410 C   0  0  1  0  0  3  0  0  0  0  0  0
  186.8180  176.9720  143.4990 C   0  0  0  0  0  1  0  0  0  0  0  0
  186.4260  178.0300  142.4870 C   0  0  2  0  0  3  0  0  0  0  0  0
  187.5990  178.4950  141.7560 N   0  0  0  0  0  2  0  0  0  0  0  0
  188.6960  178.1250  142.4610 O   0  0  0  0  0  0  0  0  0  0  0  0
  192.1900  177.8500  141.0800 C   0  0  0  0  0  2  0  0  0  0  0  0
  189.7120  178.0210  141.5070 C   0  0  2  0  0  3  0  0  0  0  0  0
  191.8140  177.0920  139.8280 C   0  0  0  0  0  3  0  0  0  0  0  0
  189.4160  176.9080  140.5080 C   0  0  0  0  0  2  0  0  0  0  0  0
  190.5590  176.7050  139.5500 C   0  0  0  0  0  3  0  0  0  0  0  0
  191.0960  177.8430  142.1560 C   0  0  1  0  0  3  0  0  0  0  0  0
  190.1810  175.6080  143.0840 C   0  0  0  0  0  1  0  0  0  0  0  0
  191.2720  176.6700  143.1440 C   0  0  2  0  0  3  0  0  0  0  0  0
  191.5950  177.1280  144.5730 C   0  0  1  0  0  3  0  0  0  0  0  0
  191.5100  178.5160  144.7080 O   0  0  0  0  0  1  0  0  0  0  0  0
  191.2390  176.5760  146.9890 C   0  0  0  0  0  0  0  0  0  0  0  0
  190.7400  176.3850  145.6150 C   0  0  1  0  0  3  0  0  0  0  0  0
  189.0490  178.2670  146.1310 C   0  0  0  0  0  2  0  0  0  0  0  0
  189.2550  176.8250  145.6930 C   0  0  2  0  0  3  0  0  0  0  0  0
  190.2570  177.0460  147.8320 O   0  0  0  0  0  0  0  0  0  0  0  0
  189.0010  177.1640  147.1710 C   0  0  1  0  0  3  0  0  0  0  0  0
  192.4170  176.3320  147.3700 O   0  0  0  0  0  0  0  0  0  0  0  0
  1 32  1  1  0  0  0
  1 30  1  0  0  0  0
  3  4  1  6  0  0  0
  3  2  1  0  0  0  0
  3  1  1  0  0  0  0
  5  3  1  0  0  0  0
  6 15  2  0  0  0  0
  7 21  1  0  0  0  0
  7 13  1  0  0  0  0
  8 18  1  0  0  0  0
  9 16  1  0  0  0  0
  9 25  1  0  0  0  0
 10 23  1  0  0  0  0
 11 20  1  0  0  0  0
 12 10  1  0  0  0  0
 12 14  1  0  0  0  0
 13  6  1  0  0  0  0
 15  5  1  0  0  0  0
 16 15  1  0  0  0  0
 17 12  1  0  0  0  0
 17 11  1  0  0  0  0
 18  9  1  0  0  0  0
 19 10  1  0  0  0  0
 20 21  1  0  0  0  0
 21 16  1  0  0  0  0
 22 13  1  0  0  0  0
 23  8  1  0  0  0  0
 24  7  1  0  0  0  0
 24 18  1  0  0  0  0
 24 21  1  0  0  0  0
 25 27  1  0  0  0  0
 25 26  1  0  0  0  0
 29 30  1  0  0  0  0
 30 28  1  0  0  0  0
 32 31  1  0  0  0  0
 34 32  1  0  0  0  0
 34 33  1  0  0  0  0
 35 36  1  0  0  0  0
 35 34  1  0  0  0  0
 37 42  1  0  0  0  0
 38 42  1  0  0  0  0
 38 36  1  0  0  0  0
 39 37  1  0  0  0  0
 40 38  1  0  0  0  0
 41 39  2  0  0  0  0
 41 40  1  0  0  0  0
 42 44  1  0  0  0  0
 43 44  1  0  0  0  0
 44 45  1  0  0  0  0
 45 46  1  0  0  0  0
 45 48  1  0  0  0  0
 47 53  2  0  0  0  0
 47 51  1  0  0  0  0
 48 50  1  0  0  0  0
 48 47  1  0  0  0  0
 49 52  1  0  0  0  0
 50 49  1  0  0  0  0
 50 52  1  0  0  0  0
 52 51  1  0  0  0  0
M  END
>  <MODEL>
7

>  <REMARK>
 VINA RESULT:      -6.0      2.494      4.679
  Name = 
  13 active torsions:
  status: ('A' for Active; 'I' for Inactive)
    1  A    between atoms: C_3  and  C_5
    2  A    between atoms: C_8  and  C_12
    3  A    between atoms: C_8  and  C_46
    4  A    between atoms: N_11  and  O_18
    5  A    between atoms: N_11  and  C_37
    6  A    between atoms: O_17  and  C_19
    7  A    between atoms: O_17  and  C_28
    8  A    between atoms: O_18  and  C_23
    9  A    between atoms: C_19  and  C_39
   10  A    between atoms: C_31  and  C_39
   11  A    between atoms: C_37  and  C_45
   12  A    between atoms: C_39  and  C_45
   13  A    between atoms: C_44  and  C_46
                            x       y       z     vdW  Elec       q    Type
                         _______ _______ _______ _____ _____    ______ ____

>  <TORSDO>
F 13

$$$$
=
 OpenBabel11062414053D

 53 59  0  0  1  0  0  0  0  0999 V2000
  191.5590  175.6790  138.6470 C   0  0  1  0  0  3  0  0  0  0  0  0
  191.2900  173.6670  137.3570 O   0  0  0  0  0  1  0  0  0  0  0  0
  190.8180  174.9800  137.4800 C   0  0  2  0  0  0  0  0  0  0  0  0
  191.0820  175.7220  136.1660 C   0  0  0  0  0  1  0  0  0  0  0  0
  189.4120  174.9420  137.7620 O   0  0  0  0  0  0  0  0  0  0  0  0
  188.7290  173.3620  136.0940 C   0  0  0  0  0  3  0  0  0  0  0  0
  186.4040  172.6160  135.9510 N   0  0  1  0  0  0  0  0  0  0  0  0
  184.4310  175.7000  134.6020 C   0  0  0  0  0  2  0  0  0  0  0  0
  186.7640  175.7230  135.7370 C   0  0  1  0  0  3  0  0  0  0  0  0
  182.5540  175.0030  135.6220 C   0  0  1  0  0  3  0  0  0  0  0  0
  183.9750  172.4000  137.8800 C   0  0  0  0  0  2  0  0  0  0  0  0
  182.2940  174.1680  136.8830 C   0  0  2  0  0  3  0  0  0  0  0  0
  187.6490  172.8370  135.2010 C   0  0  2  0  0  3  0  0  0  0  0  0
  182.5890  174.8640  138.0580 O   0  0  0  0  0  1  0  0  0  0  0  0
  188.4380  174.3660  136.9310 C   0  0  0  0  0  0  0  0  0  0  0  0
  187.0250  174.8890  136.9770 C   0  0  2  0  0  3  0  0  0  0  0  0
  182.9480  172.7810  136.8010 C   0  0  0  0  0  2  0  0  0  0  0  0
  185.7480  174.9500  134.8760 C   0  0  1  0  0  3  0  0  0  0  0  0
  181.4300  175.7760  135.3330 O   0  0  0  0  0  1  0  0  0  0  0  0
  185.1410  173.3820  138.0840 C   0  0  0  0  0  2  0  0  0  0  0  0
  186.0310  173.7220  136.8780 C   0  0  2  0  0  0  0  0  0  0  0  0
  188.0760  171.5940  134.5940 N   0  0  0  0  0  1  0  0  0  0  0  0
  183.6670  175.8430  135.7760 O   0  0  0  0  0  0  0  0  0  0  0  0
  185.3760  173.6390  135.5790 C   0  0  2  0  0  3  0  0  0  0  0  0
  186.4570  177.1990  136.0370 C   0  0  2  0  0  3  0  0  0  0  0  0
  187.2910  178.1090  135.1570 C   0  0  0  0  0  1  0  0  0  0  0  0
  186.6860  177.5070  137.3820 O   0  0  0  0  0  1  0  0  0  0  0  0
  193.6750  174.7210  137.9280 O   0  0  0  0  0  1  0  0  0  0  0  0
  193.1830  176.8610  137.2960 F   0  0  0  0  0  0  0  0  0  0  0  0
  193.0400  175.9110  138.2910 C   0  0  1  0  0  3  0  0  0  0  0  0
  189.5090  176.6770  139.4930 O   0  0  0  0  0  1  0  0  0  0  0  0
  190.8390  176.9550  139.1720 C   0  0  1  0  0  3  0  0  0  0  0  0
  193.0040  177.6840  140.2440 C   0  0  0  0  0  1  0  0  0  0  0  0
  191.4950  177.6420  140.3770 C   0  0  2  0  0  3  0  0  0  0  0  0
  191.1110  177.0310  141.6440 N   0  0  0  0  0  2  0  0  0  0  0  0
  190.4170  177.9550  142.3520 O   0  0  0  0  0  0  0  0  0  0  0  0
  189.9770  177.7420  146.0870 C   0  0  0  0  0  2  0  0  0  0  0  0
  190.7430  177.6980  143.6860 C   0  0  2  0  0  3  0  0  0  0  0  0
  190.9270  176.5860  146.3000 C   0  0  0  0  0  3  0  0  0  0  0  0
  191.3260  176.2980  143.8490 C   0  0  0  0  0  2  0  0  0  0  0  0
  191.5660  175.9640  145.2970 C   0  0  0  0  0  3  0  0  0  0  0  0
  189.5450  177.9230  144.6260 C   0  0  1  0  0  3  0  0  0  0  0  0
  188.4320  175.8550  143.5400 C   0  0  0  0  0  1  0  0  0  0  0  0
  188.2430  177.1530  144.3140 C   0  0  2  0  0  3  0  0  0  0  0  0
  187.1370  178.0480  143.7370 C   0  0  1  0  0  3  0  0  0  0  0  0
  187.0750  177.9690  142.3440 O   0  0  0  0  0  1  0  0  0  0  0  0
  185.6970  178.3130  145.7680 C   0  0  0  0  0  0  0  0  0  0  0  0
  185.7770  177.7700  144.4000 C   0  0  1  0  0  3  0  0  0  0  0  0
  184.5400  179.9070  143.6430 C   0  0  0  0  0  2  0  0  0  0  0  0
  184.5480  178.3860  143.6810 C   0  0  2  0  0  3  0  0  0  0  0  0
  184.6030  179.1330  145.9320 O   0  0  0  0  0  0  0  0  0  0  0  0
  183.8010  179.1920  144.7570 C   0  0  1  0  0  3  0  0  0  0  0  0
  186.5140  178.0590  146.6950 O   0  0  0  0  0  0  0  0  0  0  0  0
  1 30  1  6  0  0  0
  1 32  1  0  0  0  0
  2  3  1  0  0  0  0
  3  4  1  6  0  0  0
  3  5  1  0  0  0  0
  3  1  1  0  0  0  0
  6 15  2  0  0  0  0
  7 21  1  0  0  0  0
  8 18  1  0  0  0  0
  8 23  1  0  0  0  0
  9 25  1  0  0  0  0
  9 16  1  0  0  0  0
 10 23  1  0  0  0  0
 10 12  1  0  0  0  0
 11 20  1  0  0  0  0
 12 14  1  0  0  0  0
 13  7  1  0  0  0  0
 13  6  1  0  0  0  0
 15 16  1  0  0  0  0
 15  5  1  0  0  0  0
 17 12  1  0  0  0  0
 17 11  1  0  0  0  0
 18 24  1  0  0  0  0
 18  9  1  0  0  0  0
 19 10  1  0  0  0  0
 21 16  1  0  0  0  0
 21 20  1  0  0  0  0
 22 13  1  0  0  0  0
 24  7  1  0  0  0  0
 24 21  1  0  0  0  0
 25 27  1  0  0  0  0
 26 25  1  0  0  0  0
 28 30  1  0  0  0  0
 29 30  1  0  0  0  0
 32 31  1  0  0  0  0
 32 34  1  0  0  0  0
 33 34  1  0  0  0  0
 34 35  1  0  0  0  0
 35 36  1  0  0  0  0
 36 38  1  0  0  0  0
 37 39  1  0  0  0  0
 38 40  1  0  0  0  0
 38 42  1  0  0  0  0
 40 41  1  0  0  0  0
 41 39  2  0  0  0  0
 42 37  1  0  0  0  0
 43 44  1  0  0  0  0
 44 42  1  0  0  0  0
 45 44  1  0  0  0  0
 45 48  1  0  0  0  0
 46 45  1  0  0  0  0
 47 51  1  0  0  0  0
 47 53  2  0  0  0  0
 48 47  1  0  0  0  0
 49 50  1  0  0  0  0
 49 52  1  0  0  0  0
 50 48  1  0  0  0  0
 50 52  1  0  0  0  0
 52 51  1  0  0  0  0
M  END
>  <MODEL>
8

>  <REMARK>
 VINA RESULT:      -5.9      3.099      6.481
  Name = 
  13 active torsions:
  status: ('A' for Active; 'I' for Inactive)
    1  A    between atoms: C_3  and  C_5
    2  A    between atoms: C_8  and  C_12
    3  A    between atoms: C_8  and  C_46
    4  A    between atoms: N_11  and  O_18
    5  A    between atoms: N_11  and  C_37
    6  A    between atoms: O_17  and  C_19
    7  A    between atoms: O_17  and  C_28
    8  A    between atoms: O_18  and  C_23
    9  A    between atoms: C_19  and  C_39
   10  A    between atoms: C_31  and  C_39
   11  A    between atoms: C_37  and  C_45
   12  A    between atoms: C_39  and  C_45
   13  A    between atoms: C_44  and  C_46
                            x       y       z     vdW  Elec       q    Type
                         _______ _______ _______ _____ _____    ______ ____

>  <TORSDO>
F 13

$$$$
=
 OpenBabel11062414053D

 53 59  0  0  1  0  0  0  0  0999 V2000
  188.1170  177.0220  137.2970 C   0  0  1  0  0  3  0  0  0  0  0  0
  186.6040  176.2420  135.5970 O   0  0  0  0  0  1  0  0  0  0  0  0
  187.2500  177.3930  136.0670 C   0  0  2  0  0  0  0  0  0  0  0  0
  188.1330  177.9540  134.9480 C   0  0  0  0  0  1  0  0  0  0  0  0
  186.2580  178.3550  136.4550 O   0  0  0  0  0  0  0  0  0  0  0  0
  185.8360  178.6880  138.7910 C   0  0  0  0  0  3  0  0  0  0  0  0
  183.5500  178.8980  139.6350 N   0  0  1  0  0  0  0  0  0  0  0  0
  182.0230  175.3220  139.3240 C   0  0  0  0  0  2  0  0  0  0  0  0
  184.0900  176.2430  138.0570 C   0  0  1  0  0  3  0  0  0  0  0  0
  179.9530  176.1730  139.1200 C   0  0  1  0  0  3  0  0  0  0  0  0
  180.7870  179.7520  138.4920 C   0  0  0  0  0  2  0  0  0  0  0  0
  179.4150  177.5030  138.5730 C   0  0  2  0  0  3  0  0  0  0  0  0
  184.9260  178.4950  139.9620 C   0  0  2  0  0  3  0  0  0  0  0  0
  179.5110  177.5900  137.1810 O   0  0  0  0  0  1  0  0  0  0  0  0
  185.4370  178.2530  137.5900 C   0  0  0  0  0  0  0  0  0  0  0  0
  184.0680  177.6360  137.4570 C   0  0  2  0  0  3  0  0  0  0  0  0
  180.0060  178.7120  139.3130 C   0  0  0  0  0  2  0  0  0  0  0  0
  183.2250  176.2840  139.3300 C   0  0  1  0  0  3  0  0  0  0  0  0
  178.9440  175.2120  139.0870 O   0  0  0  0  0  1  0  0  0  0  0  0
  181.9370  179.2090  137.6260 C   0  0  0  0  0  2  0  0  0  0  0  0
  183.0580  178.4130  138.3140 C   0  0  2  0  0  0  0  0  0  0  0  0
  185.4030  179.2710  141.0880 N   0  0  0  0  0  1  0  0  0  0  0  0
  181.0540  175.7150  138.3800 O   0  0  0  0  0  0  0  0  0  0  0  0
  182.6620  177.6980  139.5200 C   0  0  2  0  0  3  0  0  0  0  0  0
  183.8010  175.1260  137.0410 C   0  0  2  0  0  3  0  0  0  0  0  0
  185.0360  174.2770  136.8140 C   0  0  0  0  0  1  0  0  0  0  0  0
  183.3570  175.6460  135.8220 O   0  0  0  0  0  1  0  0  0  0  0  0
  189.9200  175.5680  136.5580 O   0  0  0  0  0  1  0  0  0  0  0  0
  188.7020  174.9420  138.3880 F   0  0  0  0  0  0  0  0  0  0  0  0
  188.6620  175.5870  137.1650 C   0  0  1  0  0  3  0  0  0  0  0  0
  188.7410  179.3700  137.4060 O   0  0  0  0  0  1  0  0  0  0  0  0
  189.2120  178.0750  137.6330 C   0  0  1  0  0  3  0  0  0  0  0  0
  191.0580  177.1880  139.1070 C   0  0  0  0  0  1  0  0  0  0  0  0
  189.7860  178.0100  139.0540 C   0  0  2  0  0  3  0  0  0  0  0  0
  188.8170  177.5140  140.0240 N   0  0  0  0  0  2  0  0  0  0  0  0
  189.1450  178.0300  141.2340 O   0  0  0  0  0  0  0  0  0  0  0  0
  192.0420  176.7110  143.2490 C   0  0  0  0  0  2  0  0  0  0  0  0
  190.0200  177.0950  141.7930 C   0  0  2  0  0  3  0  0  0  0  0  0
  191.4210  175.3720  143.5730 C   0  0  0  0  0  3  0  0  0  0  0  0
  189.2540  175.9680  142.4780 C   0  0  0  0  0  2  0  0  0  0  0  0
  190.1830  175.0220  143.1900 C   0  0  0  0  0  3  0  0  0  0  0  0
  191.0310  177.7530  142.7490 C   0  0  1  0  0  3  0  0  0  0  0  0
  191.3460  179.7700  144.3380 C   0  0  0  0  0  1  0  0  0  0  0  0
  190.4660  178.6030  143.9070 C   0  0  2  0  0  3  0  0  0  0  0  0
  189.9590  177.7590  145.0840 C   0  0  1  0  0  3  0  0  0  0  0  0
  190.9770  177.4720  145.9980 O   0  0  0  0  0  1  0  0  0  0  0  0
  187.4730  177.7350  145.3750 C   0  0  0  0  0  0  0  0  0  0  0  0
  188.7320  178.3980  145.7570 C   0  0  1  0  0  3  0  0  0  0  0  0
  188.6700  176.9490  147.8930 C   0  0  0  0  0  2  0  0  0  0  0  0
  188.7240  178.3520  147.3070 C   0  0  2  0  0  3  0  0  0  0  0  0
  186.7510  177.3310  146.4760 O   0  0  0  0  0  0  0  0  0  0  0  0
  187.3770  177.7160  147.6940 C   0  0  1  0  0  3  0  0  0  0  0  0
  187.0790  177.5590  144.1890 O   0  0  0  0  0  0  0  0  0  0  0  0
  1 30  1  6  0  0  0
  1 32  1  0  0  0  0
  2  3  1  0  0  0  0
  3  4  1  6  0  0  0
  3  5  1  0  0  0  0
  3  1  1  0  0  0  0
  5 15  1  0  0  0  0
  6 13  1  0  0  0  0
  7 13  1  0  0  0  0
  8 18  1  0  0  0  0
  9 18  1  0  0  0  0
 11 17  1  0  0  0  0
 12 10  1  0  0  0  0
 12 17  1  0  0  0  0
 13 22  1  0  0  0  0
 14 12  1  0  0  0  0
 15  6  2  0  0  0  0
 16 15  1  0  0  0  0
 16  9  1  0  0  0  0
 16 21  1  0  0  0  0
 18 24  1  0  0  0  0
 19 10  1  0  0  0  0
 20 21  1  0  0  0  0
 20 11  1  0  0  0  0
 21 24  1  0  0  0  0
 21  7  1  0  0  0  0
 23 10  1  0  0  0  0
 23  8  1  0  0  0  0
 24  7  1  0  0  0  0
 25  9  1  0  0  0  0
 26 25  1  0  0  0  0
 27 25  1  0  0  0  0
 28 30  1  0  0  0  0
 30 29  1  0  0  0  0
 31 32  1  0  0  0  0
 32 34  1  0  0  0  0
 34 33  1  0  0  0  0
 34 35  1  0  0  0  0
 35 36  1  0  0  0  0
 36 38  1  0  0  0  0
 37 39  1  0  0  0  0
 38 40  1  0  0  0  0
 38 42  1  0  0  0  0
 40 41  1  0  0  0  0
 41 39  2  0  0  0  0
 42 37  1  0  0  0  0
 42 44  1  0  0  0  0
 44 43  1  0  0  0  0
 44 45  1  0  0  0  0
 45 48  1  0  0  0  0
 45 46  1  0  0  0  0
 47 48  1  0  0  0  0
 47 51  1  0  0  0  0
 48 50  1  0  0  0  0
 50 52  1  0  0  0  0
 50 49  1  0  0  0  0
 51 52  1  0  0  0  0
 52 49  1  0  0  0  0
 53 47  2  0  0  0  0
M  END
>  <MODEL>
9

>  <REMARK>
 VINA RESULT:      -5.7      2.791      6.145
  Name = 
  13 active torsions:
  status: ('A' for Active; 'I' for Inactive)
    1  A    between atoms: C_3  and  C_5
    2  A    between atoms: C_8  and  C_12
    3  A    between atoms: C_8  and  C_46
    4  A    between atoms: N_11  and  O_18
    5  A    between atoms: N_11  and  C_37
    6  A    between atoms: O_17  and  C_19
    7  A    between atoms: O_17  and  C_28
    8  A    between atoms: O_18  and  C_23
    9  A    between atoms: C_19  and  C_39
   10  A    between atoms: C_31  and  C_39
   11  A    between atoms: C_37  and  C_45
   12  A    between atoms: C_39  and  C_45
   13  A    between atoms: C_44  and  C_46
                            x       y       z     vdW  Elec       q    Type
                         _______ _______ _______ _____ _____    ______ ____

>  <TORSDO>
F 13

$$$$
