=
 OpenBabel11062414173D

 45 48  0  0  1  0  0  0  0  0999 V2000
  189.3490  177.2660  139.4120 C   0  0  0  0  0  2  0  0  0  0  0  0
  189.7720  176.8030  140.8010 C   0  0  1  0  0  3  0  0  0  0  0  0
  190.2670  177.0760  143.6330 C   0  0  2  0  0  3  0  0  0  0  0  0
  190.9740  177.6070  141.3010 C   0  0  0  0  0  2  0  0  0  0  0  0
  192.4760  177.8320  143.1130 F   0  0  0  0  0  0  0  0  0  0  0  0
  188.6440  176.8270  141.7540 N   0  0  0  0  0  0  0  0  0  0  0  0
  189.0790  176.2950  143.0530 C   0  0  0  0  0  2  0  0  0  0  0  0
  191.4310  177.0560  142.6440 C   0  0  1  0  0  3  0  0  0  0  0  0
  189.7680  176.2160  147.2500 O   0  0  0  0  0  1  0  0  0  0  0  0
  191.2770  177.5370  145.8820 C   0  0  0  0  0  2  0  0  0  0  0  0
  189.8710  177.0540  146.1410 C   0  0  1  0  0  0  0  0  0  0  0  0
  190.6610  176.4680  144.9760 C   0  0  1  0  0  3  0  0  0  0  0  0
  188.7480  178.0580  145.8930 C   0  0  0  0  0  2  0  0  0  0  0  0
  187.5400  177.7480  146.7600 C   0  0  0  0  0  2  0  0  0  0  0  0
  186.2930  177.7740  145.9000 C   0  0  0  0  0  2  0  0  0  0  0  0
  184.0210  178.7940  145.9780 O   0  0  0  0  0  0  0  0  0  0  0  0
  185.3320  178.7780  146.4310 C   0  0  0  0  0  0  0  0  0  0  0  0
  185.7110  179.6230  147.2800 O   0  0  0  0  0  1  0  0  0  0  0  0
  188.1290  178.1840  141.9430 C   0  0  0  0  0  2  0  0  0  0  0  0
  186.7080  178.1260  142.4790 C   0  0  0  0  0  2  0  0  0  0  0  0
  184.3140  178.5190  141.8280 C   0  0  0  0  0  1  0  0  0  0  0  0
  185.7500  178.9700  141.6450 C   0  0  2  0  0  3  0  0  0  0  0  0
  186.1020  178.9180  140.2960 O   0  0  0  0  0  1  0  0  0  0  0  0
  190.4380  176.9880  138.3900 C   0  0  0  0  0  2  0  0  0  0  0  0
  189.9650  176.1360  137.3870 O   0  0  0  0  0  0  0  0  0  0  0  0
  192.1070  174.8650  134.9520 N   0  0  0  0  0  2  0  0  0  0  0  0
  193.9560  176.8690  137.1140 O   0  0  0  0  0  1  0  0  0  0  0  0
  191.5680  175.9610  135.6430 N   0  0  0  0  0  0  0  0  0  0  0  0
  192.1810  175.5090  138.0220 C   0  0  0  0  0  2  0  0  0  0  0  0
  190.5010  176.3760  134.9160 O   0  0  0  0  0  1  0  0  0  0  0  0
  193.6370  175.5770  137.5460 C   0  0  1  0  0  3  0  0  0  0  0  0
  193.5550  174.9200  135.0800 C   0  0  0  0  0  2  0  0  0  0  0  0
  191.0940  175.4420  136.9340 C   0  0  1  0  0  3  0  0  0  0  0  0
  193.9880  174.5200  136.4930 C   0  0  1  0  0  3  0  0  0  0  0  0
  196.1070  176.0130  135.0450 O   0  0  0  0  0  1  0  0  0  0  0  0
  198.9390  175.0160  135.3900 C   0  0  0  0  0  1  0  0  0  0  0  0
  196.4160  174.9120  135.8330 C   0  0  0  0  0  0  0  0  0  0  0  0
  195.4510  174.1820  136.5410 C   0  0  0  0  0  0  0  0  0  0  0  0
  197.7100  174.4320  135.9920 C   0  0  0  0  0  0  0  0  0  0  0  0
  196.0050  173.1150  137.2510 C   0  0  0  0  0  0  0  0  0  0  0  0
  197.6750  173.0910  137.0070 S   0  0  0  0  0  0  0  0  0  0  0  0
  195.2830  172.2310  138.0500 O   0  0  0  0  0  0  0  0  0  0  0  0
  195.3870  170.8220  137.8990 C   0  0  0  0  0  2  0  0  0  0  0  0
  193.5810  170.7580  136.1860 C   0  0  0  0  0  1  0  0  0  0  0  0
  195.0320  170.4250  136.4790 C   0  0  0  0  0  2  0  0  0  0  0  0
  2  1  1  6  0  0  0
  2  4  1  0  0  0  0
  2  6  1  0  0  0  0
  3  7  1  6  0  0  0
  3 12  1  0  0  0  0
  4  8  1  0  0  0  0
  6 19  1  0  0  0  0
  6  7  1  0  0  0  0
  8  5  1  1  0  0  0
  8  3  1  0  0  0  0
 10 11  1  0  0  0  0
 11  9  1  1  0  0  0
 12 10  1  1  0  0  0
 12 11  1  0  0  0  0
 13 11  1  0  0  0  0
 13 14  1  0  0  0  0
 15 17  1  0  0  0  0
 15 14  1  0  0  0  0
 16 17  2  0  0  0  0
 17 18  1  0  0  0  0
 19 20  1  0  0  0  0
 22 21  1  6  0  0  0
 22 20  1  0  0  0  0
 23 22  1  0  0  0  0
 24  1  1  0  0  0  0
 25 24  1  0  0  0  0
 26 32  1  0  0  0  0
 26 28  1  0  0  0  0
 28 33  1  0  0  0  0
 30 28  1  0  0  0  0
 31 27  1  6  0  0  0
 31 29  1  0  0  0  0
 32 34  1  0  0  0  0
 33 25  1  1  0  0  0
 33 29  1  0  0  0  0
 34 38  1  6  0  0  0
 34 31  1  0  0  0  0
 35 37  1  0  0  0  0
 36 39  1  0  0  0  0
 37 39  2  0  0  0  0
 37 38  1  0  0  0  0
 38 40  2  0  0  0  0
 39 41  1  0  0  0  0
 40 42  1  0  0  0  0
 41 40  1  0  0  0  0
 43 42  1  0  0  0  0
 44 45  1  0  0  0  0
 45 43  1  0  0  0  0
M  END
>  <MODEL>
1

>  <REMARK>
 VINA RESULT:      -7.6      0.000      0.000
  Name = 
  16 active torsions:
  status: ('A' for Active; 'I' for Inactive)
    1  A    between atoms: C_5  and  O_22
    2  A    between atoms: C_5  and  C_36
    3  A    between atoms: C_6  and  C_16
    4  A    between atoms: C_6  and  N_32
    5  A    between atoms: C_8  and  C_12
    6  A    between atoms: C_8  and  C_35
    7  A    between atoms: C_10  and  C_41
    8  A    between atoms: C_12  and  C_17
    9  A    between atoms: C_13  and  C_16
   10  A    between atoms: C_14  and  C_18
   11  A    between atoms: C_21  and  C_45
   12  A    between atoms: O_22  and  C_29
   13  A    between atoms: C_25  and  C_35
   14  A    between atoms: O_38  and  C_43
   15  A    between atoms: O_38  and  C_44
   16  A    between atoms: C_41  and  C_43
                            x       y       z     vdW  Elec       q    Type
                         _______ _______ _______ _____ _____    ______ ____

>  <TORSDO>
F 16

$$$$
=
 OpenBabel11062414173D

 45 48  0  0  1  0  0  0  0  0999 V2000
  189.0550  177.2750  139.6530 C   0  0  0  0  0  2  0  0  0  0  0  0
  189.4870  176.7620  141.0210 C   0  0  1  0  0  3  0  0  0  0  0  0
  190.1700  176.9740  143.8200 C   0  0  2  0  0  3  0  0  0  0  0  0
  190.8130  177.3970  141.4470 C   0  0  0  0  0  2  0  0  0  0  0  0
  192.4290  177.4210  143.1720 F   0  0  0  0  0  0  0  0  0  0  0  0
  188.4270  176.9410  142.0350 N   0  0  0  0  0  0  0  0  0  0  0  0
  188.8580  176.3580  143.3130 C   0  0  0  0  0  2  0  0  0  0  0  0
  191.2650  176.7930  142.7690 C   0  0  1  0  0  3  0  0  0  0  0  0
  189.7490  176.1820  147.4620 O   0  0  0  0  0  1  0  0  0  0  0  0
  191.3390  177.3060  146.0130 C   0  0  0  0  0  2  0  0  0  0  0  0
  189.9000  177.0010  146.3450 C   0  0  1  0  0  0  0  0  0  0  0  0
  190.5520  176.3210  145.1460 C   0  0  1  0  0  3  0  0  0  0  0  0
  188.8980  178.1360  146.1450 C   0  0  0  0  0  2  0  0  0  0  0  0
  187.6830  177.9530  147.0390 C   0  0  0  0  0  2  0  0  0  0  0  0
  186.4540  177.7680  146.1730 C   0  0  0  0  0  2  0  0  0  0  0  0
  184.1570  178.7070  145.9660 O   0  0  0  0  0  0  0  0  0  0  0  0
  185.4090  178.7520  146.5600 C   0  0  0  0  0  0  0  0  0  0  0  0
  185.6640  179.6360  147.4150 O   0  0  0  0  0  1  0  0  0  0  0  0
  188.1120  178.3560  142.2370 C   0  0  0  0  0  2  0  0  0  0  0  0
  187.1920  178.8440  141.1290 C   0  0  0  0  0  2  0  0  0  0  0  0
  185.2180  178.1540  142.5190 C   0  0  0  0  0  1  0  0  0  0  0  0
  185.8220  179.2490  141.6620 C   0  0  2  0  0  3  0  0  0  0  0  0
  184.9630  179.5640  140.6090 O   0  0  0  0  0  1  0  0  0  0  0  0
  190.2430  177.8030  138.8690 C   0  0  0  0  0  2  0  0  0  0  0  0
  190.2300  177.3060  137.5610 O   0  0  0  0  0  0  0  0  0  0  0  0
  190.6450  173.8710  137.1710 N   0  0  0  0  0  2  0  0  0  0  0  0
  193.1210  175.4970  135.3460 O   0  0  0  0  0  1  0  0  0  0  0  0
  190.4810  175.1460  136.6090 N   0  0  0  0  0  0  0  0  0  0  0  0
  192.4470  176.4220  137.4710 C   0  0  0  0  0  2  0  0  0  0  0  0
  189.1470  175.3080  136.4290 O   0  0  0  0  0  1  0  0  0  0  0  0
  193.3050  175.3890  136.7290 C   0  0  1  0  0  3  0  0  0  0  0  0
  191.8580  173.2880  136.6190 C   0  0  0  0  0  2  0  0  0  0  0  0
  190.9480  176.1050  137.6190 C   0  0  1  0  0  3  0  0  0  0  0  0
  193.0990  173.9520  137.2230 C   0  0  1  0  0  3  0  0  0  0  0  0
  193.7190  172.5400  134.6860 O   0  0  0  0  0  1  0  0  0  0  0  0
  196.2970  170.9670  134.6090 C   0  0  0  0  0  1  0  0  0  0  0  0
  194.5770  172.4690  135.7750 C   0  0  0  0  0  0  0  0  0  0  0  0
  194.3300  173.1250  136.9890 C   0  0  0  0  0  0  0  0  0  0  0  0
  195.7590  171.7400  135.7620 C   0  0  0  0  0  0  0  0  0  0  0  0
  195.3320  172.8920  137.9330 C   0  0  0  0  0  0  0  0  0  0  0  0
  196.5130  171.8920  137.2580 S   0  0  0  0  0  0  0  0  0  0  0  0
  195.3520  173.4270  139.2190 O   0  0  0  0  0  0  0  0  0  0  0  0
  195.7530  174.7670  139.4720 C   0  0  0  0  0  2  0  0  0  0  0  0
  197.6160  175.3340  141.0230 C   0  0  0  0  0  1  0  0  0  0  0  0
  197.2590  174.8340  139.6360 C   0  0  0  0  0  2  0  0  0  0  0  0
  2  1  1  6  0  0  0
  2  4  1  0  0  0  0
  2  6  1  0  0  0  0
  3  7  1  6  0  0  0
  3 12  1  0  0  0  0
  4  8  1  0  0  0  0
  6 19  1  0  0  0  0
  6  7  1  0  0  0  0
  8  5  1  1  0  0  0
  8  3  1  0  0  0  0
 10 11  1  0  0  0  0
 11  9  1  1  0  0  0
 12 10  1  1  0  0  0
 12 11  1  0  0  0  0
 13 11  1  0  0  0  0
 13 14  1  0  0  0  0
 15 17  1  0  0  0  0
 15 14  1  0  0  0  0
 16 17  2  0  0  0  0
 17 18  1  0  0  0  0
 20 22  1  0  0  0  0
 20 19  1  0  0  0  0
 22 21  1  6  0  0  0
 23 22  1  0  0  0  0
 24  1  1  0  0  0  0
 25 24  1  0  0  0  0
 28 26  1  0  0  0  0
 28 33  1  0  0  0  0
 29 33  1  0  0  0  0
 30 28  1  0  0  0  0
 31 27  1  6  0  0  0
 31 34  1  0  0  0  0
 31 29  1  0  0  0  0
 32 26  1  0  0  0  0
 32 34  1  0  0  0  0
 33 25  1  6  0  0  0
 34 38  1  6  0  0  0
 35 37  1  0  0  0  0
 36 39  1  0  0  0  0
 37 38  1  0  0  0  0
 38 40  2  0  0  0  0
 39 37  2  0  0  0  0
 39 41  1  0  0  0  0
 40 42  1  0  0  0  0
 41 40  1  0  0  0  0
 42 43  1  0  0  0  0
 43 45  1  0  0  0  0
 45 44  1  0  0  0  0
M  END
>  <MODEL>
2

>  <REMARK>
 VINA RESULT:      -7.5      1.580      2.256
  Name = 
  16 active torsions:
  status: ('A' for Active; 'I' for Inactive)
    1  A    between atoms: C_5  and  O_22
    2  A    between atoms: C_5  and  C_36
    3  A    between atoms: C_6  and  C_16
    4  A    between atoms: C_6  and  N_32
    5  A    between atoms: C_8  and  C_12
    6  A    between atoms: C_8  and  C_35
    7  A    between atoms: C_10  and  C_41
    8  A    between atoms: C_12  and  C_17
    9  A    between atoms: C_13  and  C_16
   10  A    between atoms: C_14  and  C_18
   11  A    between atoms: C_21  and  C_45
   12  A    between atoms: O_22  and  C_29
   13  A    between atoms: C_25  and  C_35
   14  A    between atoms: O_38  and  C_43
   15  A    between atoms: O_38  and  C_44
   16  A    between atoms: C_41  and  C_43
                            x       y       z     vdW  Elec       q    Type
                         _______ _______ _______ _____ _____    ______ ____

>  <TORSDO>
F 16

$$$$
=
 OpenBabel11062414173D

 45 48  0  0  1  0  0  0  0  0999 V2000
  189.0960  177.5490  139.6230 C   0  0  0  0  0  2  0  0  0  0  0  0
  189.5850  177.0240  140.9670 C   0  0  1  0  0  3  0  0  0  0  0  0
  190.1520  177.1480  143.7970 C   0  0  2  0  0  3  0  0  0  0  0  0
  190.7590  177.8600  141.4840 C   0  0  0  0  0  2  0  0  0  0  0  0
  192.3020  178.0530  143.2640 F   0  0  0  0  0  0  0  0  0  0  0  0
  188.4880  176.9280  141.9510 N   0  0  0  0  0  0  0  0  0  0  0  0
  188.9900  176.3410  143.2010 C   0  0  0  0  0  2  0  0  0  0  0  0
  191.2850  177.2530  142.7770 C   0  0  1  0  0  3  0  0  0  0  0  0
  189.8510  176.1200  147.3920 O   0  0  0  0  0  1  0  0  0  0  0  0
  191.2810  177.5090  146.0070 C   0  0  0  0  0  2  0  0  0  0  0  0
  189.8930  177.0090  146.3190 C   0  0  1  0  0  0  0  0  0  0  0  0
  190.6190  176.4800  145.0870 C   0  0  1  0  0  3  0  0  0  0  0  0
  188.7560  178.0180  146.1780 C   0  0  0  0  0  2  0  0  0  0  0  0
  187.6570  177.7460  147.1910 C   0  0  0  0  0  2  0  0  0  0  0  0
  186.3510  177.5230  146.4580 C   0  0  0  0  0  2  0  0  0  0  0  0
  185.8340  179.7260  147.4980 O   0  0  0  0  0  1  0  0  0  0  0  0
  185.4240  178.6560  146.7170 C   0  0  0  0  0  0  0  0  0  0  0  0
  184.2610  178.6380  146.2420 O   0  0  0  0  0  0  0  0  0  0  0  0
  187.9080  178.2410  142.2400 C   0  0  0  0  0  2  0  0  0  0  0  0
  186.5040  178.0730  142.7980 C   0  0  0  0  0  2  0  0  0  0  0  0
  184.0710  178.6080  142.4780 C   0  0  0  0  0  1  0  0  0  0  0  0
  185.4890  178.9340  142.0530 C   0  0  2  0  0  3  0  0  0  0  0  0
  185.6280  178.7680  140.6740 O   0  0  0  0  0  1  0  0  0  0  0  0
  190.0730  177.2010  138.5140 C   0  0  0  0  0  2  0  0  0  0  0  0
  189.5110  177.4680  137.2610 O   0  0  0  0  0  0  0  0  0  0  0  0
  186.0600  177.9030  137.4280 N   0  0  0  0  0  2  0  0  0  0  0  0
  186.7810  175.8040  134.7480 O   0  0  0  0  0  1  0  0  0  0  0  0
  187.2570  177.9620  136.6990 N   0  0  0  0  0  0  0  0  0  0  0  0
  188.0960  175.6100  136.7620 C   0  0  0  0  0  2  0  0  0  0  0  0
  187.7250  179.2260  136.8470 O   0  0  0  0  0  1  0  0  0  0  0  0
  186.7990  175.2430  136.0290 C   0  0  1  0  0  3  0  0  0  0  0  0
  185.1290  177.0550  136.6970 C   0  0  0  0  0  2  0  0  0  0  0  0
  188.1850  177.0280  137.3530 C   0  0  1  0  0  3  0  0  0  0  0  0
  185.5300  175.5830  136.8200 C   0  0  1  0  0  3  0  0  0  0  0  0
  185.0070  172.9300  138.0470 O   0  0  0  0  0  1  0  0  0  0  0  0
  182.6320  171.3940  136.9860 C   0  0  0  0  0  1  0  0  0  0  0  0
  184.1960  173.4250  137.0350 C   0  0  0  0  0  0  0  0  0  0  0  0
  184.3990  174.6740  136.4320 C   0  0  0  0  0  0  0  0  0  0  0  0
  183.1090  172.7270  136.5250 C   0  0  0  0  0  0  0  0  0  0  0  0
  183.4600  174.9420  135.4340 C   0  0  0  0  0  0  0  0  0  0  0  0
  182.3870  173.6450  135.3150 S   0  0  0  0  0  0  0  0  0  0  0  0
  183.4150  176.1130  134.6790 O   0  0  0  0  0  0  0  0  0  0  0  0
  182.2430  176.9120  134.5960 C   0  0  0  0  0  2  0  0  0  0  0  0
  181.7110  177.7040  136.8960 C   0  0  0  0  0  1  0  0  0  0  0  0
  181.3770  176.6880  135.8200 C   0  0  0  0  0  2  0  0  0  0  0  0
  2  1  1  6  0  0  0
  2  4  1  0  0  0  0
  2  6  1  0  0  0  0
  3  7  1  6  0  0  0
  3 12  1  0  0  0  0
  4  8  1  0  0  0  0
  6 19  1  0  0  0  0
  6  7  1  0  0  0  0
  8  5  1  1  0  0  0
  8  3  1  0  0  0  0
 10 11  1  0  0  0  0
 11  9  1  1  0  0  0
 12 10  1  1  0  0  0
 12 11  1  0  0  0  0
 13 11  1  0  0  0  0
 13 14  1  0  0  0  0
 15 17  1  0  0  0  0
 15 14  1  0  0  0  0
 17 16  1  0  0  0  0
 18 17  2  0  0  0  0
 19 20  1  0  0  0  0
 22 21  1  1  0  0  0
 22 20  1  0  0  0  0
 23 22  1  0  0  0  0
 24  1  1  0  0  0  0
 25 24  1  0  0  0  0
 28 30  1  0  0  0  0
 28 33  1  0  0  0  0
 28 26  1  0  0  0  0
 29 33  1  0  0  0  0
 31 27  1  6  0  0  0
 31 29  1  0  0  0  0
 31 34  1  0  0  0  0
 32 34  1  0  0  0  0
 32 26  1  0  0  0  0
 33 25  1  6  0  0  0
 34 38  1  6  0  0  0
 37 35  1  0  0  0  0
 38 37  1  0  0  0  0
 39 36  1  0  0  0  0
 39 37  2  0  0  0  0
 40 38  2  0  0  0  0
 41 40  1  0  0  0  0
 41 39  1  0  0  0  0
 42 40  1  0  0  0  0
 43 42  1  0  0  0  0
 43 45  1  0  0  0  0
 45 44  1  0  0  0  0
M  END
>  <MODEL>
3

>  <REMARK>
 VINA RESULT:      -7.4      4.806      7.481
  Name = 
  16 active torsions:
  status: ('A' for Active; 'I' for Inactive)
    1  A    between atoms: C_5  and  O_22
    2  A    between atoms: C_5  and  C_36
    3  A    between atoms: C_6  and  C_16
    4  A    between atoms: C_6  and  N_32
    5  A    between atoms: C_8  and  C_12
    6  A    between atoms: C_8  and  C_35
    7  A    between atoms: C_10  and  C_41
    8  A    between atoms: C_12  and  C_17
    9  A    between atoms: C_13  and  C_16
   10  A    between atoms: C_14  and  C_18
   11  A    between atoms: C_21  and  C_45
   12  A    between atoms: O_22  and  C_29
   13  A    between atoms: C_25  and  C_35
   14  A    between atoms: O_38  and  C_43
   15  A    between atoms: O_38  and  C_44
   16  A    between atoms: C_41  and  C_43
                            x       y       z     vdW  Elec       q    Type
                         _______ _______ _______ _____ _____    ______ ____

>  <TORSDO>
F 16

$$$$
=
 OpenBabel11062414173D

 45 48  0  0  1  0  0  0  0  0999 V2000
  187.0430  178.2200  139.7280 C   0  0  0  0  0  2  0  0  0  0  0  0
  185.7750  178.6260  138.9880 C   0  0  1  0  0  3  0  0  0  0  0  0
  182.9370  178.6680  138.4480 C   0  0  2  0  0  3  0  0  0  0  0  0
  185.0870  177.4040  138.3760 C   0  0  0  0  0  2  0  0  0  0  0  0
  183.2330  176.7340  137.0700 F   0  0  0  0  0  0  0  0  0  0  0  0
  184.8650  179.4110  139.8470 N   0  0  0  0  0  0  0  0  0  0  0  0
  183.6980  179.8480  139.0680 C   0  0  0  0  0  2  0  0  0  0  0  0
  183.8800  177.8520  137.5640 C   0  0  1  0  0  3  0  0  0  0  0  0
  179.6970  180.5070  138.0130 O   0  0  0  0  0  1  0  0  0  0  0  0
  180.5540  178.2460  137.7930 C   0  0  0  0  0  2  0  0  0  0  0  0
  180.5590  179.5520  138.5490 C   0  0  1  0  0  0  0  0  0  0  0  0
  181.7450  179.1980  137.6580 C   0  0  1  0  0  3  0  0  0  0  0  0
  180.6740  179.4600  140.0690 C   0  0  0  0  0  2  0  0  0  0  0  0
  179.3590  179.8240  140.7370 C   0  0  0  0  0  2  0  0  0  0  0  0
  178.9320  178.6870  141.6420 C   0  0  0  0  0  2  0  0  0  0  0  0
  179.3480  178.1340  144.0350 O   0  0  0  0  0  1  0  0  0  0  0  0
  179.0820  179.0900  143.0660 C   0  0  0  0  0  0  0  0  0  0  0  0
  178.9500  180.2950  143.3950 O   0  0  0  0  0  0  0  0  0  0  0  0
  184.4060  178.6300  140.9970 C   0  0  0  0  0  2  0  0  0  0  0  0
  184.9930  179.2030  142.2770 C   0  0  0  0  0  2  0  0  0  0  0  0
  182.6120  178.8570  142.9980 C   0  0  0  0  0  1  0  0  0  0  0  0
  184.0440  179.0430  143.4600 C   0  0  2  0  0  3  0  0  0  0  0  0
  184.1350  180.1450  144.3110 O   0  0  0  0  0  1  0  0  0  0  0  0
  188.1940  178.0060  138.7600 C   0  0  0  0  0  2  0  0  0  0  0  0
  189.4150  178.3040  139.3730 O   0  0  0  0  0  0  0  0  0  0  0  0
  189.8690  175.6820  141.6180 N   0  0  0  0  0  2  0  0  0  0  0  0
  191.5310  178.4830  142.8410 O   0  0  0  0  0  1  0  0  0  0  0  0
  190.4070  176.6820  140.7960 N   0  0  0  0  0  0  0  0  0  0  0  0
  189.4190  178.7850  141.7120 C   0  0  0  0  0  2  0  0  0  0  0  0
  190.6480  176.0950  139.5970 O   0  0  0  0  0  1  0  0  0  0  0  0
  190.1440  178.4290  143.0160 C   0  0  1  0  0  3  0  0  0  0  0  0
  190.3760  175.8860  142.9670 C   0  0  0  0  0  2  0  0  0  0  0  0
  189.3530  177.6920  140.6310 C   0  0  1  0  0  3  0  0  0  0  0  0
  189.6970  177.0920  143.6210 C   0  0  1  0  0  3  0  0  0  0  0  0
  192.0880  175.9990  145.0010 O   0  0  0  0  0  1  0  0  0  0  0  0
  192.1020  176.1670  148.0190 C   0  0  0  0  0  1  0  0  0  0  0  0
  191.0350  176.5530  145.7180 C   0  0  0  0  0  0  0  0  0  0  0  0
  189.8910  177.0880  145.1110 C   0  0  0  0  0  0  0  0  0  0  0  0
  191.0190  176.6260  147.1060 C   0  0  0  0  0  0  0  0  0  0  0  0
  188.9710  177.5740  146.0410 C   0  0  0  0  0  0  0  0  0  0  0  0
  189.5820  177.3490  147.5990 S   0  0  0  0  0  0  0  0  0  0  0  0
  187.7540  178.1700  145.7190 O   0  0  0  0  0  0  0  0  0  0  0  0
  186.5710  177.4080  145.5190 C   0  0  0  0  0  2  0  0  0  0  0  0
  185.8760  179.1740  147.1310 C   0  0  0  0  0  1  0  0  0  0  0  0
  185.5010  177.8470  146.5000 C   0  0  0  0  0  2  0  0  0  0  0  0
  2  1  1  1  0  0  0
  2  6  1  0  0  0  0
  3  7  1  6  0  0  0
  4  2  1  0  0  0  0
  6 19  1  0  0  0  0
  7  6  1  0  0  0  0
  8  5  1  1  0  0  0
  8  4  1  0  0  0  0
  8  3  1  0  0  0  0
 10 11  1  0  0  0  0
 11  9  1  6  0  0  0
 11 13  1  0  0  0  0
 12 10  1  6  0  0  0
 12  3  1  0  0  0  0
 12 11  1  0  0  0  0
 13 14  1  0  0  0  0
 14 15  1  0  0  0  0
 15 17  1  0  0  0  0
 17 18  2  0  0  0  0
 17 16  1  0  0  0  0
 19 20  1  0  0  0  0
 20 22  1  0  0  0  0
 22 21  1  6  0  0  0
 22 23  1  0  0  0  0
 24 25  1  0  0  0  0
 24  1  1  0  0  0  0
 26 32  1  0  0  0  0
 28 26  1  0  0  0  0
 29 31  1  0  0  0  0
 30 28  1  0  0  0  0
 31 27  1  6  0  0  0
 31 34  1  0  0  0  0
 32 34  1  0  0  0  0
 33 25  1  6  0  0  0
 33 28  1  0  0  0  0
 33 29  1  0  0  0  0
 34 38  1  1  0  0  0
 35 37  1  0  0  0  0
 37 39  2  0  0  0  0
 38 37  1  0  0  0  0
 38 40  2  0  0  0  0
 39 41  1  0  0  0  0
 39 36  1  0  0  0  0
 40 41  1  0  0  0  0
 42 40  1  0  0  0  0
 43 42  1  0  0  0  0
 43 45  1  0  0  0  0
 45 44  1  0  0  0  0
M  END
>  <MODEL>
4

>  <REMARK>
 VINA RESULT:      -6.9      5.701      9.320
  Name = 
  16 active torsions:
  status: ('A' for Active; 'I' for Inactive)
    1  A    between atoms: C_5  and  O_22
    2  A    between atoms: C_5  and  C_36
    3  A    between atoms: C_6  and  C_16
    4  A    between atoms: C_6  and  N_32
    5  A    between atoms: C_8  and  C_12
    6  A    between atoms: C_8  and  C_35
    7  A    between atoms: C_10  and  C_41
    8  A    between atoms: C_12  and  C_17
    9  A    between atoms: C_13  and  C_16
   10  A    between atoms: C_14  and  C_18
   11  A    between atoms: C_21  and  C_45
   12  A    between atoms: O_22  and  C_29
   13  A    between atoms: C_25  and  C_35
   14  A    between atoms: O_38  and  C_43
   15  A    between atoms: O_38  and  C_44
   16  A    between atoms: C_41  and  C_43
                            x       y       z     vdW  Elec       q    Type
                         _______ _______ _______ _____ _____    ______ ____

>  <TORSDO>
F 16

$$$$
=
 OpenBabel11062414173D

 45 48  0  0  1  0  0  0  0  0999 V2000
  187.7850  177.8030  137.3970 C   0  0  0  0  0  2  0  0  0  0  0  0
  186.8150  176.7980  136.7880 C   0  0  1  0  0  3  0  0  0  0  0  0
  184.6090  174.9330  136.7840 C   0  0  2  0  0  3  0  0  0  0  0  0
  186.9600  175.4280  137.4550 C   0  0  0  0  0  2  0  0  0  0  0  0
  186.1440  173.2090  137.4130 F   0  0  0  0  0  0  0  0  0  0  0  0
  185.4240  177.2920  136.8160 N   0  0  0  0  0  0  0  0  0  0  0  0
  184.5400  176.3280  136.1450 C   0  0  0  0  0  2  0  0  0  0  0  0
  186.0500  174.4250  136.7610 C   0  0  1  0  0  3  0  0  0  0  0  0
  181.2630  173.6140  135.7160 O   0  0  0  0  0  1  0  0  0  0  0  0
  183.2070  172.8620  136.9610 C   0  0  0  0  0  2  0  0  0  0  0  0
  182.2590  173.9840  136.6190 C   0  0  1  0  0  0  0  0  0  0  0  0
  183.6690  173.9910  136.0370 C   0  0  1  0  0  3  0  0  0  0  0  0
  181.8830  174.9300  137.7560 C   0  0  0  0  0  2  0  0  0  0  0  0
  180.7170  175.8210  137.3600 C   0  0  0  0  0  2  0  0  0  0  0  0
  179.5630  175.5800  138.3110 C   0  0  0  0  0  2  0  0  0  0  0  0
  180.4670  177.1090  140.0570 O   0  0  0  0  0  0  0  0  0  0  0  0
  179.9920  175.8540  139.7080 C   0  0  0  0  0  0  0  0  0  0  0  0
  179.9390  174.9430  140.5720 O   0  0  0  0  0  1  0  0  0  0  0  0
  184.9530  177.4960  138.1870 C   0  0  0  0  0  2  0  0  0  0  0  0
  183.5950  178.1780  138.1710 C   0  0  0  0  0  2  0  0  0  0  0  0
  182.5630  180.3890  138.7670 C   0  0  0  0  0  1  0  0  0  0  0  0
  183.5010  179.2850  139.2150 C   0  0  2  0  0  3  0  0  0  0  0  0
  184.7660  179.8090  139.4850 O   0  0  0  0  0  1  0  0  0  0  0  0
  188.9790  177.1000  138.0200 C   0  0  0  0  0  2  0  0  0  0  0  0
  189.6310  177.9450  138.9240 O   0  0  0  0  0  0  0  0  0  0  0  0
  190.0290  175.9420  141.7440 N   0  0  0  0  0  2  0  0  0  0  0  0
  189.9240  179.2690  142.7570 O   0  0  0  0  0  1  0  0  0  0  0  0
  190.4600  177.0090  140.9430 N   0  0  0  0  0  0  0  0  0  0  0  0
  188.5050  178.5630  140.9370 C   0  0  0  0  0  2  0  0  0  0  0  0
  191.3620  176.4870  140.0750 O   0  0  0  0  0  1  0  0  0  0  0  0
  188.7070  178.6480  142.4550 C   0  0  1  0  0  3  0  0  0  0  0  0
  189.8290  176.4460  143.0950 C   0  0  0  0  0  2  0  0  0  0  0  0
  189.2820  177.4630  140.1920 C   0  0  1  0  0  3  0  0  0  0  0  0
  188.5610  177.3000  143.1710 C   0  0  1  0  0  3  0  0  0  0  0  0
  190.3940  177.4320  145.5030 O   0  0  0  0  0  1  0  0  0  0  0  0
  189.1100  177.8250  148.2100 C   0  0  0  0  0  1  0  0  0  0  0  0
  189.0190  177.5420  145.6630 C   0  0  0  0  0  0  0  0  0  0  0  0
  188.1160  177.4940  144.5920 C   0  0  0  0  0  0  0  0  0  0  0  0
  188.4110  177.7090  146.9010 C   0  0  0  0  0  0  0  0  0  0  0  0
  186.7890  177.6150  145.0080 C   0  0  0  0  0  0  0  0  0  0  0  0
  186.7440  177.7920  146.6860 S   0  0  0  0  0  0  0  0  0  0  0  0
  185.6860  177.6130  144.1570 O   0  0  0  0  0  0  0  0  0  0  0  0
  185.3090  178.7610  143.4080 C   0  0  0  0  0  2  0  0  0  0  0  0
  183.0890  178.8500  144.5320 C   0  0  0  0  0  1  0  0  0  0  0  0
  183.8070  178.7720  143.1990 C   0  0  0  0  0  2  0  0  0  0  0  0
  1 24  1  0  0  0  0
  2  6  1  0  0  0  0
  2  1  1  1  0  0  0
  2  4  1  0  0  0  0
  3  7  1  6  0  0  0
  6 19  1  0  0  0  0
  7  6  1  0  0  0  0
  8  3  1  0  0  0  0
  8  5  1  1  0  0  0
  8  4  1  0  0  0  0
 11  9  1  6  0  0  0
 11 10  1  0  0  0  0
 11 13  1  0  0  0  0
 12 11  1  0  0  0  0
 12  3  1  0  0  0  0
 12 10  1  1  0  0  0
 14 13  1  0  0  0  0
 14 15  1  0  0  0  0
 15 17  1  0  0  0  0
 17 16  2  0  0  0  0
 17 18  1  0  0  0  0
 20 19  1  0  0  0  0
 20 22  1  0  0  0  0
 22 21  1  6  0  0  0
 22 23  1  0  0  0  0
 24 25  1  0  0  0  0
 26 32  1  0  0  0  0
 28 26  1  0  0  0  0
 29 31  1  0  0  0  0
 30 28  1  0  0  0  0
 31 27  1  6  0  0  0
 31 34  1  0  0  0  0
 32 34  1  0  0  0  0
 33 25  1  6  0  0  0
 33 29  1  0  0  0  0
 33 28  1  0  0  0  0
 34 38  1  1  0  0  0
 35 37  1  0  0  0  0
 37 39  2  0  0  0  0
 38 40  2  0  0  0  0
 38 37  1  0  0  0  0
 39 36  1  0  0  0  0
 40 41  1  0  0  0  0
 41 39  1  0  0  0  0
 42 40  1  0  0  0  0
 43 42  1  0  0  0  0
 45 43  1  0  0  0  0
 45 44  1  0  0  0  0
M  END
>  <MODEL>
5

>  <REMARK>
 VINA RESULT:      -6.7      5.428      9.858
  Name = 
  16 active torsions:
  status: ('A' for Active; 'I' for Inactive)
    1  A    between atoms: C_5  and  O_22
    2  A    between atoms: C_5  and  C_36
    3  A    between atoms: C_6  and  C_16
    4  A    between atoms: C_6  and  N_32
    5  A    between atoms: C_8  and  C_12
    6  A    between atoms: C_8  and  C_35
    7  A    between atoms: C_10  and  C_41
    8  A    between atoms: C_12  and  C_17
    9  A    between atoms: C_13  and  C_16
   10  A    between atoms: C_14  and  C_18
   11  A    between atoms: C_21  and  C_45
   12  A    between atoms: O_22  and  C_29
   13  A    between atoms: C_25  and  C_35
   14  A    between atoms: O_38  and  C_43
   15  A    between atoms: O_38  and  C_44
   16  A    between atoms: C_41  and  C_43
                            x       y       z     vdW  Elec       q    Type
                         _______ _______ _______ _____ _____    ______ ____

>  <TORSDO>
F 16

$$$$
=
 OpenBabel11062414173D

 45 48  0  0  1  0  0  0  0  0999 V2000
  189.0950  176.9960  139.1250 C   0  0  0  0  0  2  0  0  0  0  0  0
  189.6640  176.7260  140.5130 C   0  0  1  0  0  3  0  0  0  0  0  0
  190.3070  177.3370  143.2620 C   0  0  2  0  0  3  0  0  0  0  0  0
  190.7860  177.7140  140.8420 C   0  0  0  0  0  2  0  0  0  0  0  0
  192.3640  178.2940  142.5040 F   0  0  0  0  0  0  0  0  0  0  0  0
  188.6080  176.7110  141.5450 N   0  0  0  0  0  0  0  0  0  0  0  0
  189.1910  176.3660  142.8490 C   0  0  0  0  0  2  0  0  0  0  0  0
  191.3960  177.3570  142.1900 C   0  0  1  0  0  3  0  0  0  0  0  0
  190.0840  176.4950  146.9100 O   0  0  0  0  0  1  0  0  0  0  0  0
  191.1410  178.1490  145.4820 C   0  0  0  0  0  2  0  0  0  0  0  0
  189.9370  177.2880  145.7730 C   0  0  1  0  0  0  0  0  0  0  0  0
  190.8620  176.9160  144.6190 C   0  0  1  0  0  3  0  0  0  0  0  0
  188.5700  177.9120  145.5040 C   0  0  0  0  0  2  0  0  0  0  0  0
  187.6580  177.7660  146.7100 C   0  0  0  0  0  2  0  0  0  0  0  0
  186.2450  177.5010  146.2340 C   0  0  0  0  0  2  0  0  0  0  0  0
  185.6870  179.6340  147.3920 O   0  0  0  0  0  1  0  0  0  0  0  0
  185.4240  178.7330  146.3710 C   0  0  0  0  0  0  0  0  0  0  0  0
  184.4800  178.9510  145.5710 O   0  0  0  0  0  0  0  0  0  0  0  0
  187.9390  178.0090  141.6490 C   0  0  0  0  0  2  0  0  0  0  0  0
  186.6840  177.8760  142.4960 C   0  0  0  0  0  2  0  0  0  0  0  0
  184.2290  178.2970  142.1760 C   0  0  0  0  0  1  0  0  0  0  0  0
  185.6200  178.8950  142.1010 C   0  0  2  0  0  3  0  0  0  0  0  0
  185.8660  179.3830  140.8170 O   0  0  0  0  0  1  0  0  0  0  0  0
  189.0460  178.4860  138.8360 C   0  0  0  0  0  2  0  0  0  0  0  0
  189.2040  178.7290  137.4680 O   0  0  0  0  0  0  0  0  0  0  0  0
  186.9670  178.1110  134.8710 N   0  0  0  0  0  2  0  0  0  0  0  0
  186.4570  175.7320  137.3580 O   0  0  0  0  0  1  0  0  0  0  0  0
  187.9790  177.6640  135.7340 N   0  0  0  0  0  0  0  0  0  0  0  0
  186.9960  177.9940  138.0070 C   0  0  0  0  0  2  0  0  0  0  0  0
  189.1480  177.8690  135.0790 O   0  0  0  0  0  1  0  0  0  0  0  0
  185.9110  177.0050  137.5620 C   0  0  1  0  0  3  0  0  0  0  0  0
  185.8240  177.2230  135.0190 C   0  0  0  0  0  2  0  0  0  0  0  0
  187.9320  178.5400  136.9130 C   0  0  1  0  0  3  0  0  0  0  0  0
  185.1070  177.4820  136.3460 C   0  0  1  0  0  3  0  0  0  0  0  0
  182.7370  178.7270  137.6300 O   0  0  0  0  0  1  0  0  0  0  0  0
  180.1340  177.2070  137.4250 C   0  0  0  0  0  1  0  0  0  0  0  0
  182.6410  177.5060  136.9760 C   0  0  0  0  0  0  0  0  0  0  0  0
  183.7290  176.8840  136.3490 C   0  0  0  0  0  0  0  0  0  0  0  0
  181.4550  176.7870  136.8840 C   0  0  0  0  0  0  0  0  0  0  0  0
  183.3830  175.6620  135.7710 C   0  0  0  0  0  0  0  0  0  0  0  0
  181.7410  175.3670  136.0290 S   0  0  0  0  0  0  0  0  0  0  0  0
  184.2620  174.8360  135.0730 O   0  0  0  0  0  0  0  0  0  0  0  0
  184.2250  173.4210  135.1970 C   0  0  0  0  0  2  0  0  0  0  0  0
  183.7880  171.6030  136.8410 C   0  0  0  0  0  1  0  0  0  0  0  0
  184.2780  173.0270  136.6600 C   0  0  0  0  0  2  0  0  0  0  0  0
  2  1  1  6  0  0  0
  2  4  1  0  0  0  0
  2  6  1  0  0  0  0
  3  7  1  6  0  0  0
  3 12  1  0  0  0  0
  4  8  1  0  0  0  0
  6 19  1  0  0  0  0
  6  7  1  0  0  0  0
  8  5  1  1  0  0  0
  8  3  1  0  0  0  0
 10 11  1  0  0  0  0
 11  9  1  1  0  0  0
 12 10  1  1  0  0  0
 12 11  1  0  0  0  0
 13 11  1  0  0  0  0
 13 14  1  0  0  0  0
 15 17  1  0  0  0  0
 15 14  1  0  0  0  0
 17 16  1  0  0  0  0
 18 17  2  0  0  0  0
 19 20  1  0  0  0  0
 22 21  1  6  0  0  0
 22 20  1  0  0  0  0
 23 22  1  0  0  0  0
 24  1  1  0  0  0  0
 25 24  1  0  0  0  0
 26 32  1  0  0  0  0
 26 28  1  0  0  0  0
 28 33  1  0  0  0  0
 30 28  1  0  0  0  0
 31 27  1  6  0  0  0
 31 29  1  0  0  0  0
 32 34  1  0  0  0  0
 33 25  1  1  0  0  0
 33 29  1  0  0  0  0
 34 38  1  6  0  0  0
 34 31  1  0  0  0  0
 37 35  1  0  0  0  0
 38 37  1  0  0  0  0
 39 37  2  0  0  0  0
 39 36  1  0  0  0  0
 40 41  1  0  0  0  0
 40 38  2  0  0  0  0
 41 39  1  0  0  0  0
 42 43  1  0  0  0  0
 42 40  1  0  0  0  0
 43 45  1  0  0  0  0
 45 44  1  0  0  0  0
M  END
>  <MODEL>
6

>  <REMARK>
 VINA RESULT:      -6.4      5.149      7.454
  Name = 
  16 active torsions:
  status: ('A' for Active; 'I' for Inactive)
    1  A    between atoms: C_5  and  O_22
    2  A    between atoms: C_5  and  C_36
    3  A    between atoms: C_6  and  C_16
    4  A    between atoms: C_6  and  N_32
    5  A    between atoms: C_8  and  C_12
    6  A    between atoms: C_8  and  C_35
    7  A    between atoms: C_10  and  C_41
    8  A    between atoms: C_12  and  C_17
    9  A    between atoms: C_13  and  C_16
   10  A    between atoms: C_14  and  C_18
   11  A    between atoms: C_21  and  C_45
   12  A    between atoms: O_22  and  C_29
   13  A    between atoms: C_25  and  C_35
   14  A    between atoms: O_38  and  C_43
   15  A    between atoms: O_38  and  C_44
   16  A    between atoms: C_41  and  C_43
                            x       y       z     vdW  Elec       q    Type
                         _______ _______ _______ _____ _____    ______ ____

>  <TORSDO>
F 16

$$$$
=
 OpenBabel11062414173D

 45 48  0  0  1  0  0  0  0  0999 V2000
  182.9080  178.9380  141.1690 C   0  0  0  0  0  2  0  0  0  0  0  0
  182.1850  177.7040  140.6430 C   0  0  1  0  0  3  0  0  0  0  0  0
  181.0730  175.9600  138.6260 C   0  0  2  0  0  3  0  0  0  0  0  0
  180.9050  178.0970  139.9020 C   0  0  0  0  0  2  0  0  0  0  0  0
  179.0380  177.2110  138.7530 F   0  0  0  0  0  0  0  0  0  0  0  0
  183.0720  176.8570  139.8210 N   0  0  0  0  0  0  0  0  0  0  0  0
  182.3570  175.6420  139.4060 C   0  0  0  0  0  2  0  0  0  0  0  0
  180.1580  176.8410  139.4750 C   0  0  1  0  0  3  0  0  0  0  0  0
  180.8960  172.5510  137.0720 O   0  0  0  0  0  1  0  0  0  0  0  0
  179.8800  174.7370  136.7910 C   0  0  0  0  0  2  0  0  0  0  0  0
  181.1130  173.9270  137.1050 C   0  0  1  0  0  0  0  0  0  0  0  0
  180.3880  174.6540  138.2320 C   0  0  1  0  0  3  0  0  0  0  0  0
  182.4360  174.4590  136.5610 C   0  0  0  0  0  2  0  0  0  0  0  0
  183.1770  173.3840  135.7830 C   0  0  0  0  0  2  0  0  0  0  0  0
  184.6460  173.7460  135.7130 C   0  0  0  0  0  2  0  0  0  0  0  0
  185.3970  173.0030  137.9680 O   0  0  0  0  0  1  0  0  0  0  0  0
  185.4340  172.8420  136.5920 C   0  0  0  0  0  0  0  0  0  0  0  0
  186.1480  171.9400  136.0860 O   0  0  0  0  0  0  0  0  0  0  0  0
  183.5380  177.5660  138.6270 C   0  0  0  0  0  2  0  0  0  0  0  0
  185.0300  177.8350  138.7370 C   0  0  0  0  0  2  0  0  0  0  0  0
  185.9100  177.0400  136.5230 C   0  0  0  0  0  1  0  0  0  0  0  0
  185.6350  178.2470  137.3990 C   0  0  2  0  0  3  0  0  0  0  0  0
  186.8080  178.9740  137.5970 O   0  0  0  0  0  1  0  0  0  0  0  0
  184.0040  178.5510  142.1470 C   0  0  0  0  0  2  0  0  0  0  0  0
  183.8070  179.1810  143.3800 O   0  0  0  0  0  0  0  0  0  0  0  0
  185.9200  179.1310  146.1470 N   0  0  0  0  0  2  0  0  0  0  0  0
  186.5850  176.3260  144.1980 O   0  0  0  0  0  1  0  0  0  0  0  0
  184.9590  178.5020  145.3430 N   0  0  0  0  0  0  0  0  0  0  0  0
  186.0480  178.4060  143.0970 C   0  0  0  0  0  2  0  0  0  0  0  0
  183.7560  178.8030  145.8910 O   0  0  0  0  0  1  0  0  0  0  0  0
  187.1230  177.5470  143.7760 C   0  0  1  0  0  3  0  0  0  0  0  0
  187.0810  178.2560  146.2290 C   0  0  0  0  0  2  0  0  0  0  0  0
  185.0530  179.1330  144.0190 C   0  0  1  0  0  3  0  0  0  0  0  0
  187.8600  178.2690  144.9100 C   0  0  1  0  0  3  0  0  0  0  0  0
  188.8530  176.9940  147.4000 O   0  0  0  0  0  1  0  0  0  0  0  0
  191.7090  176.0060  147.3670 C   0  0  0  0  0  1  0  0  0  0  0  0
  189.6710  177.1270  146.2860 C   0  0  0  0  0  0  0  0  0  0  0  0
  189.2440  177.7140  145.0880 C   0  0  0  0  0  0  0  0  0  0  0  0
  190.9900  176.6910  146.2580 C   0  0  0  0  0  0  0  0  0  0  0  0
  190.2500  177.7410  144.1200 C   0  0  0  0  0  0  0  0  0  0  0  0
  191.6480  177.0330  144.7480 S   0  0  0  0  0  0  0  0  0  0  0  0
  190.1010  178.2550  142.8330 O   0  0  0  0  0  0  0  0  0  0  0  0
  190.1570  177.4270  141.6800 C   0  0  0  0  0  2  0  0  0  0  0  0
  189.3490  177.1990  139.3360 C   0  0  0  0  0  1  0  0  0  0  0  0
  189.1050  177.8620  140.6790 C   0  0  0  0  0  2  0  0  0  0  0  0
  1 24  1  0  0  0  0
  2  1  1  6  0  0  0
  3  7  1  1  0  0  0
  3  8  1  0  0  0  0
  4  2  1  0  0  0  0
  6  2  1  0  0  0  0
  7  6  1  0  0  0  0
  8  5  1  6  0  0  0
  8  4  1  0  0  0  0
 10 11  1  0  0  0  0
 11  9  1  6  0  0  0
 11 12  1  0  0  0  0
 12 10  1  6  0  0  0
 12  3  1  0  0  0  0
 13 11  1  0  0  0  0
 14 13  1  0  0  0  0
 15 14  1  0  0  0  0
 15 17  1  0  0  0  0
 17 16  1  0  0  0  0
 18 17  2  0  0  0  0
 19 20  1  0  0  0  0
 19  6  1  0  0  0  0
 22 21  1  6  0  0  0
 22 23  1  0  0  0  0
 22 20  1  0  0  0  0
 24 25  1  0  0  0  0
 26 32  1  0  0  0  0
 28 30  1  0  0  0  0
 28 26  1  0  0  0  0
 29 31  1  0  0  0  0
 29 33  1  0  0  0  0
 31 27  1  1  0  0  0
 31 34  1  0  0  0  0
 33 25  1  6  0  0  0
 33 28  1  0  0  0  0
 34 38  1  1  0  0  0
 34 32  1  0  0  0  0
 37 35  1  0  0  0  0
 38 37  1  0  0  0  0
 39 37  2  0  0  0  0
 39 36  1  0  0  0  0
 40 41  1  0  0  0  0
 40 38  2  0  0  0  0
 41 39  1  0  0  0  0
 42 40  1  0  0  0  0
 43 42  1  0  0  0  0
 44 45  1  0  0  0  0
 45 43  1  0  0  0  0
M  END
>  <MODEL>
7

>  <REMARK>
 VINA RESULT:      -6.3      5.993     10.688
  Name = 
  16 active torsions:
  status: ('A' for Active; 'I' for Inactive)
    1  A    between atoms: C_5  and  O_22
    2  A    between atoms: C_5  and  C_36
    3  A    between atoms: C_6  and  C_16
    4  A    between atoms: C_6  and  N_32
    5  A    between atoms: C_8  and  C_12
    6  A    between atoms: C_8  and  C_35
    7  A    between atoms: C_10  and  C_41
    8  A    between atoms: C_12  and  C_17
    9  A    between atoms: C_13  and  C_16
   10  A    between atoms: C_14  and  C_18
   11  A    between atoms: C_21  and  C_45
   12  A    between atoms: O_22  and  C_29
   13  A    between atoms: C_25  and  C_35
   14  A    between atoms: O_38  and  C_43
   15  A    between atoms: O_38  and  C_44
   16  A    between atoms: C_41  and  C_43
                            x       y       z     vdW  Elec       q    Type
                         _______ _______ _______ _____ _____    ______ ____

>  <TORSDO>
F 16

$$$$
=
 OpenBabel11062414173D

 45 48  0  0  1  0  0  0  0  0999 V2000
  187.6800  177.6660  138.5150 C   0  0  0  0  0  2  0  0  0  0  0  0
  189.1230  177.5460  138.0410 C   0  0  1  0  0  3  0  0  0  0  0  0
  191.6180  176.1910  137.5100 C   0  0  2  0  0  3  0  0  0  0  0  0
  190.0440  177.1430  139.1950 C   0  0  0  0  0  2  0  0  0  0  0  0
  192.3000  176.7010  139.7460 F   0  0  0  0  0  0  0  0  0  0  0  0
  189.2450  176.6380  136.8820 N   0  0  0  0  0  0  0  0  0  0  0  0
  190.6370  176.6180  136.4100 C   0  0  0  0  0  2  0  0  0  0  0  0
  191.4870  177.1270  138.7110 C   0  0  1  0  0  3  0  0  0  0  0  0
  194.3080  175.2510  135.0710 O   0  0  0  0  0  1  0  0  0  0  0  0
  193.8000  174.9580  137.4260 C   0  0  0  0  0  2  0  0  0  0  0  0
  193.2990  175.0250  136.0050 C   0  0  1  0  0  0  0  0  0  0  0  0
  193.0370  176.1950  136.9470 C   0  0  1  0  0  3  0  0  0  0  0  0
  192.1760  174.0620  135.6310 C   0  0  0  0  0  2  0  0  0  0  0  0
  192.4230  172.6830  136.2190 C   0  0  0  0  0  2  0  0  0  0  0  0
  193.3410  171.9080  135.2960 C   0  0  0  0  0  2  0  0  0  0  0  0
  195.6390  172.1830  136.2160 O   0  0  0  0  0  0  0  0  0  0  0  0
  194.5100  171.3940  136.0580 C   0  0  0  0  0  0  0  0  0  0  0  0
  194.4810  170.2370  136.5470 O   0  0  0  0  0  1  0  0  0  0  0  0
  188.8380  175.2730  137.2230 C   0  0  0  0  0  2  0  0  0  0  0  0
  188.4020  174.5360  135.9670 C   0  0  0  0  0  2  0  0  0  0  0  0
  186.0990  173.9310  136.7660 C   0  0  0  0  0  1  0  0  0  0  0  0
  187.4330  173.4000  136.2810 C   0  0  2  0  0  3  0  0  0  0  0  0
  187.9830  172.5400  137.2310 O   0  0  0  0  0  1  0  0  0  0  0  0
  187.5820  178.5580  139.7410 C   0  0  0  0  0  2  0  0  0  0  0  0
  186.2620  178.6240  140.1980 O   0  0  0  0  0  0  0  0  0  0  0  0
  185.0060  178.5680  143.4450 N   0  0  0  0  0  2  0  0  0  0  0  0
  187.5190  176.1750  143.1920 O   0  0  0  0  0  1  0  0  0  0  0  0
  185.3200  177.8980  142.2540 N   0  0  0  0  0  0  0  0  0  0  0  0
  187.7780  178.2620  142.0080 C   0  0  0  0  0  2  0  0  0  0  0  0
  184.1940  177.9300  141.4980 O   0  0  0  0  0  1  0  0  0  0  0  0
  187.9120  177.5100  143.3380 C   0  0  1  0  0  3  0  0  0  0  0  0
  185.6900  177.8890  144.5360 C   0  0  0  0  0  2  0  0  0  0  0  0
  186.3610  178.6970  141.5930 C   0  0  1  0  0  3  0  0  0  0  0  0
  187.1900  178.1930  144.5050 C   0  0  1  0  0  3  0  0  0  0  0  0
  185.9920  178.7120  147.1710 O   0  0  0  0  0  1  0  0  0  0  0  0
  187.6280  177.8850  149.5730 C   0  0  0  0  0  1  0  0  0  0  0  0
  187.2430  178.1230  147.0490 C   0  0  0  0  0  0  0  0  0  0  0  0
  187.8450  177.8510  145.8130 C   0  0  0  0  0  0  0  0  0  0  0  0
  188.0150  177.7490  148.1420 C   0  0  0  0  0  0  0  0  0  0  0  0
  189.1050  177.2670  145.9510 C   0  0  0  0  0  0  0  0  0  0  0  0
  189.4580  177.0820  147.5910 S   0  0  0  0  0  0  0  0  0  0  0  0
  189.9230  176.8810  144.8910 O   0  0  0  0  0  0  0  0  0  0  0  0
  191.3300  177.0760  144.9140 C   0  0  0  0  0  2  0  0  0  0  0  0
  191.2160  179.3800  143.9760 C   0  0  0  0  0  1  0  0  0  0  0  0
  191.7470  177.9750  143.7660 C   0  0  0  0  0  2  0  0  0  0  0  0
  1 24  1  0  0  0  0
  2  1  1  1  0  0  0
  2  4  1  0  0  0  0
  3  7  1  6  0  0  0
  3  8  1  0  0  0  0
  6 19  1  0  0  0  0
  6  2  1  0  0  0  0
  7  6  1  0  0  0  0
  8  4  1  0  0  0  0
  8  5  1  1  0  0  0
 11  9  1  6  0  0  0
 11 12  1  0  0  0  0
 11 10  1  0  0  0  0
 12 10  1  1  0  0  0
 12  3  1  0  0  0  0
 13 11  1  0  0  0  0
 13 14  1  0  0  0  0
 15 17  1  0  0  0  0
 15 14  1  0  0  0  0
 17 16  2  0  0  0  0
 17 18  1  0  0  0  0
 20 22  1  0  0  0  0
 20 19  1  0  0  0  0
 22 21  1  1  0  0  0
 22 23  1  0  0  0  0
 24 25  1  0  0  0  0
 26 32  1  0  0  0  0
 28 26  1  0  0  0  0
 29 31  1  0  0  0  0
 30 28  1  0  0  0  0
 31 27  1  6  0  0  0
 31 34  1  0  0  0  0
 33 25  1  6  0  0  0
 33 29  1  0  0  0  0
 33 28  1  0  0  0  0
 34 32  1  0  0  0  0
 34 38  1  1  0  0  0
 37 35  1  0  0  0  0
 37 39  2  0  0  0  0
 38 40  2  0  0  0  0
 38 37  1  0  0  0  0
 39 36  1  0  0  0  0
 40 41  1  0  0  0  0
 41 39  1  0  0  0  0
 42 43  1  0  0  0  0
 42 40  1  0  0  0  0
 45 44  1  0  0  0  0
 45 43  1  0  0  0  0
M  END
>  <MODEL>
8

>  <REMARK>
 VINA RESULT:      -6.2      3.082     10.592
  Name = 
  16 active torsions:
  status: ('A' for Active; 'I' for Inactive)
    1  A    between atoms: C_5  and  O_22
    2  A    between atoms: C_5  and  C_36
    3  A    between atoms: C_6  and  C_16
    4  A    between atoms: C_6  and  N_32
    5  A    between atoms: C_8  and  C_12
    6  A    between atoms: C_8  and  C_35
    7  A    between atoms: C_10  and  C_41
    8  A    between atoms: C_12  and  C_17
    9  A    between atoms: C_13  and  C_16
   10  A    between atoms: C_14  and  C_18
   11  A    between atoms: C_21  and  C_45
   12  A    between atoms: O_22  and  C_29
   13  A    between atoms: C_25  and  C_35
   14  A    between atoms: O_38  and  C_43
   15  A    between atoms: O_38  and  C_44
   16  A    between atoms: C_41  and  C_43
                            x       y       z     vdW  Elec       q    Type
                         _______ _______ _______ _____ _____    ______ ____

>  <TORSDO>
F 16

$$$$
=
 OpenBabel11062414173D

 45 48  0  0  1  0  0  0  0  0999 V2000
  188.6870  177.2770  139.5410 C   0  0  0  0  0  2  0  0  0  0  0  0
  189.2640  176.8310  140.8790 C   0  0  1  0  0  3  0  0  0  0  0  0
  189.9580  177.0980  143.6700 C   0  0  2  0  0  3  0  0  0  0  0  0
  190.4200  177.7390  141.3040 C   0  0  0  0  0  2  0  0  0  0  0  0
  192.0360  178.0740  142.9970 F   0  0  0  0  0  0  0  0  0  0  0  0
  188.2200  176.7270  141.9190 N   0  0  0  0  0  0  0  0  0  0  0  0
  188.8080  176.2150  143.1650 C   0  0  0  0  0  2  0  0  0  0  0  0
  191.0350  177.2100  142.5920 C   0  0  1  0  0  3  0  0  0  0  0  0
  189.9720  176.3850  147.3530 O   0  0  0  0  0  1  0  0  0  0  0  0
  191.3310  177.5570  145.7180 C   0  0  0  0  0  2  0  0  0  0  0  0
  189.9550  177.1800  146.2080 C   0  0  1  0  0  0  0  0  0  0  0  0
  190.5160  176.5050  144.9610 C   0  0  1  0  0  3  0  0  0  0  0  0
  188.8720  178.2500  146.0930 C   0  0  0  0  0  2  0  0  0  0  0  0
  187.8020  178.0580  147.1540 C   0  0  0  0  0  2  0  0  0  0  0  0
  186.4780  177.7730  146.4760 C   0  0  0  0  0  2  0  0  0  0  0  0
  184.2850  178.8970  146.1120 O   0  0  0  0  0  0  0  0  0  0  0  0
  185.5380  178.9030  146.7060 C   0  0  0  0  0  0  0  0  0  0  0  0
  185.8850  179.8720  147.4260 O   0  0  0  0  0  1  0  0  0  0  0  0
  187.5940  178.0240  142.1840 C   0  0  0  0  0  2  0  0  0  0  0  0
  186.5010  177.8650  143.2290 C   0  0  0  0  0  2  0  0  0  0  0  0
  184.7650  178.2140  141.4480 C   0  0  0  0  0  1  0  0  0  0  0  0
  185.2270  178.6070  142.8370 C   0  0  2  0  0  3  0  0  0  0  0  0
  185.4260  179.9860  142.9060 O   0  0  0  0  0  1  0  0  0  0  0  0
  188.6010  176.1130  138.5690 C   0  0  0  0  0  2  0  0  0  0  0  0
  188.3980  176.5750  137.2650 O   0  0  0  0  0  0  0  0  0  0  0  0
  190.7600  176.2790  134.7230 N   0  0  0  0  0  2  0  0  0  0  0  0
  192.2290  175.2890  137.7170 O   0  0  0  0  0  1  0  0  0  0  0  0
  190.3810  176.7850  135.9750 N   0  0  0  0  0  0  0  0  0  0  0  0
  189.9150  174.7310  137.3180 C   0  0  0  0  0  2  0  0  0  0  0  0
  189.8390  178.0050  135.7390 O   0  0  0  0  0  1  0  0  0  0  0  0
  191.3870  174.3720  137.0780 C   0  0  1  0  0  3  0  0  0  0  0  0
  192.0030  175.5400  134.8930 C   0  0  0  0  0  2  0  0  0  0  0  0
  189.3350  175.8870  136.4840 C   0  0  1  0  0  3  0  0  0  0  0  0
  191.7450  174.2050  135.5960 C   0  0  1  0  0  3  0  0  0  0  0  0
  191.4950  171.3440  134.8440 O   0  0  0  0  0  1  0  0  0  0  0  0
  194.0680  169.7770  134.6130 C   0  0  0  0  0  1  0  0  0  0  0  0
  192.7370  171.9190  135.0790 C   0  0  0  0  0  0  0  0  0  0  0  0
  192.9040  173.2660  135.4280 C   0  0  0  0  0  0  0  0  0  0  0  0
  193.9290  171.2110  134.9910 C   0  0  0  0  0  0  0  0  0  0  0  0
  194.2450  173.6030  135.6230 C   0  0  0  0  0  0  0  0  0  0  0  0
  195.2070  172.2430  135.3510 S   0  0  0  0  0  0  0  0  0  0  0  0
  194.7040  174.8740  135.9640 O   0  0  0  0  0  0  0  0  0  0  0  0
  196.0830  175.2140  135.9200 C   0  0  0  0  0  2  0  0  0  0  0  0
  195.5120  177.4310  134.9400 C   0  0  0  0  0  1  0  0  0  0  0  0
  196.3430  176.1730  134.7740 C   0  0  0  0  0  2  0  0  0  0  0  0
  2  1  1  6  0  0  0
  2  4  1  0  0  0  0
  2  6  1  0  0  0  0
  3  7  1  6  0  0  0
  3 12  1  0  0  0  0
  4  8  1  0  0  0  0
  6 19  1  0  0  0  0
  6  7  1  0  0  0  0
  8  5  1  1  0  0  0
  8  3  1  0  0  0  0
 10 11  1  0  0  0  0
 11  9  1  1  0  0  0
 12 10  1  6  0  0  0
 12 11  1  0  0  0  0
 13 11  1  0  0  0  0
 13 14  1  0  0  0  0
 15 17  1  0  0  0  0
 15 14  1  0  0  0  0
 16 17  2  0  0  0  0
 17 18  1  0  0  0  0
 19 20  1  0  0  0  0
 22 21  1  6  0  0  0
 22 23  1  0  0  0  0
 22 20  1  0  0  0  0
 24  1  1  0  0  0  0
 25 24  1  0  0  0  0
 26 32  1  0  0  0  0
 26 28  1  0  0  0  0
 28 33  1  0  0  0  0
 30 28  1  0  0  0  0
 31 29  1  0  0  0  0
 31 27  1  6  0  0  0
 32 34  1  0  0  0  0
 33 25  1  1  0  0  0
 33 29  1  0  0  0  0
 34 38  1  1  0  0  0
 34 31  1  0  0  0  0
 35 37  1  0  0  0  0
 36 39  1  0  0  0  0
 37 38  1  0  0  0  0
 38 40  2  0  0  0  0
 39 37  2  0  0  0  0
 39 41  1  0  0  0  0
 40 42  1  0  0  0  0
 41 40  1  0  0  0  0
 43 42  1  0  0  0  0
 45 44  1  0  0  0  0
 45 43  1  0  0  0  0
M  END
>  <MODEL>
9

>  <REMARK>
 VINA RESULT:      -6.2      1.586      2.802
  Name = 
  16 active torsions:
  status: ('A' for Active; 'I' for Inactive)
    1  A    between atoms: C_5  and  O_22
    2  A    between atoms: C_5  and  C_36
    3  A    between atoms: C_6  and  C_16
    4  A    between atoms: C_6  and  N_32
    5  A    between atoms: C_8  and  C_12
    6  A    between atoms: C_8  and  C_35
    7  A    between atoms: C_10  and  C_41
    8  A    between atoms: C_12  and  C_17
    9  A    between atoms: C_13  and  C_16
   10  A    between atoms: C_14  and  C_18
   11  A    between atoms: C_21  and  C_45
   12  A    between atoms: O_22  and  C_29
   13  A    between atoms: C_25  and  C_35
   14  A    between atoms: O_38  and  C_43
   15  A    between atoms: O_38  and  C_44
   16  A    between atoms: C_41  and  C_43
                            x       y       z     vdW  Elec       q    Type
                         _______ _______ _______ _____ _____    ______ ____

>  <TORSDO>
F 16

$$$$
