=
 OpenBabel11062412323D

 33 38  0  0  1  0  0  0  0  0999 V2000
  181.6060  176.1390  136.7150 C   0  0  0  0  0  3  0  0  0  0  0  0
  183.0270  174.9420  138.2970 C   0  0  0  0  0  3  0  0  0  0  0  0
  182.4310  177.2310  138.7230 C   0  0  0  0  0  0  0  0  0  0  0  0
  181.7040  177.2630  137.5350 C   0  0  0  0  0  0  0  0  0  0  0  0
  182.3330  178.7710  139.6390 P   0  0  1  0  0  4  0  0  0  0  0  0
  180.2640  180.2590  138.4480 N   0  0  0  0  0  0  0  0  0  0  0  0
  182.2800  174.9720  137.1040 C   0  0  0  0  0  3  0  0  0  0  0  0
  181.0770  178.5640  137.3390 C   0  0  0  0  0  0  0  0  0  0  0  0
  183.1020  176.0760  139.1180 C   0  0  0  0  0  3  0  0  0  0  0  0
  181.3230  179.4420  138.3370 C   0  0  2  0  0  3  0  0  0  0  0  0
  179.8780  178.8410  136.8050 N   0  0  0  0  0  0  0  0  0  0  0  0
  179.4330  179.9030  137.4700 N   0  0  0  0  0  0  0  0  0  0  0  0
  180.8430  178.8250  143.3920 C   0  0  0  0  0  3  0  0  0  0  0  0
  179.7320  178.1060  142.9550 C   0  0  0  0  0  3  0  0  0  0  0  0
  181.7810  179.1090  142.3900 C   0  0  0  0  0  3  0  0  0  0  0  0
  179.9310  177.8260  141.3070 S   0  0  0  0  0  0  0  0  0  0  0  0
  181.3990  178.6150  141.1560 C   0  0  0  0  0  0  0  0  0  0  0  0
  183.9320  179.5920  139.7380 C   0  0  0  0  0  0  0  0  0  0  0  0
  184.1870  180.5100  138.9170 O   0  0  0  0  0  0  0  0  0  0  0  0
  184.9270  179.2340  140.7040 N   0  0  0  0  0  2  0  0  0  0  0  0
  184.7690  178.2080  141.7210 C   0  0  0  0  0  2  0  0  0  0  0  0
  186.0720  177.9950  142.4710 C   0  0  0  0  0  2  0  0  0  0  0  0
  188.2700  177.7900  146.9400 C   0  0  0  0  0  3  0  0  0  0  0  0
  185.9840  178.6990  147.0040 C   0  0  0  0  0  2  0  0  0  0  0  0
  184.0240  178.9710  145.4570 C   0  0  0  0  0  2  0  0  0  0  0  0
  184.6160  178.1630  146.6100 C   0  0  0  0  0  2  0  0  0  0  0  0
  189.3890  177.2450  146.3120 C   0  0  0  0  0  3  0  0  0  0  0  0
  185.0370  179.2630  144.3510 C   0  0  0  0  0  2  0  0  0  0  0  0
  189.3540  176.9720  144.9480 C   0  0  0  0  0  3  0  0  0  0  0  0
  185.8090  178.0030  143.9750 C   0  0  2  0  0  3  0  0  0  0  0  0
  188.2020  177.2500  144.2120 C   0  0  0  0  0  3  0  0  0  0  0  0
  187.0670  177.8190  144.8160 C   0  0  0  0  0  0  0  0  0  0  0  0
  187.1020  178.0650  146.2210 C   0  0  0  0  0  0  0  0  0  0  0  0
  1  7  2  0  0  0  0
  1  4  1  0  0  0  0
  2  9  2  0  0  0  0
  3  9  1  0  0  0  0
  3  5  1  0  0  0  0
  4  3  2  0  0  0  0
  5 18  1  1  0  0  0
  5 17  1  0  0  0  0
  7  2  1  0  0  0  0
  8  4  1  0  0  0  0
 10  8  1  1  0  0  0
 10  6  1  0  0  0  0
 10  5  1  0  0  0  0
 11  8  2  0  0  0  0
 11 12  1  0  0  0  0
 12  6  2  0  0  0  0
 14 13  2  0  0  0  0
 15 13  1  0  0  0  0
 16 14  1  0  0  0  0
 17 16  1  0  0  0  0
 17 15  2  0  0  0  0
 18 20  1  0  0  0  0
 19 18  2  0  0  0  0
 20 21  1  0  0  0  0
 21 22  1  0  0  0  0
 25 26  1  0  0  0  0
 26 24  1  0  0  0  0
 27 23  1  0  0  0  0
 28 25  1  0  0  0  0
 29 27  2  0  0  0  0
 30 22  1  6  0  0  0
 30 28  1  0  0  0  0
 30 32  1  0  0  0  0
 31 32  2  0  0  0  0
 31 29  1  0  0  0  0
 32 33  1  0  0  0  0
 33 23  2  0  0  0  0
 33 24  1  0  0  0  0
M  END
>  <MODEL>
1

>  <REMARK>
 VINA RESULT:      -9.4      0.000      0.000
  Name = 
  5 active torsions:
  status: ('A' for Active; 'I' for Inactive)
    1  A    between atoms: C_8  and  C_21
    2  A    between atoms: C_8  and  C_32
    3  A    between atoms: C_15  and  P_16
    4  A    between atoms: P_16  and  C_29
    5  A    between atoms: N_19  and  C_32
                            x       y       z     vdW  Elec       q    Type
                         _______ _______ _______ _____ _____    ______ ____

>  <TORSDO>
F 5

$$$$
=
 OpenBabel11062412323D

 33 38  0  0  1  0  0  0  0  0999 V2000
  179.1030  181.4320  138.7870 C   0  0  0  0  0  3  0  0  0  0  0  0
  180.2240  181.1890  136.6330 C   0  0  0  0  0  3  0  0  0  0  0  0
  181.1290  180.1080  138.5780 C   0  0  0  0  0  0  0  0  0  0  0  0
  180.0980  180.6360  139.3530 C   0  0  0  0  0  0  0  0  0  0  0  0
  182.2310  179.0480  139.5190 P   0  0  1  0  0  4  0  0  0  0  0  0
  180.9400  178.5550  141.9690 N   0  0  0  0  0  0  0  0  0  0  0  0
  179.1750  181.7110  137.4140 C   0  0  0  0  0  3  0  0  0  0  0  0
  180.2120  180.2050  140.7400 C   0  0  0  0  0  0  0  0  0  0  0  0
  181.2080  180.3770  137.2150 C   0  0  0  0  0  3  0  0  0  0  0  0
  181.2670  179.3940  140.9750 C   0  0  0  0  0  0  0  0  0  0  0  0
  179.2300  179.8970  141.6010 N   0  0  0  0  0  0  0  0  0  0  0  0
  179.7230  178.9240  142.3630 N   0  0  0  0  0  2  0  0  0  0  0  0
  182.7280  175.2060  138.3770 C   0  0  0  0  0  3  0  0  0  0  0  0
  181.3540  175.0000  138.4930 C   0  0  0  0  0  3  0  0  0  0  0  0
  183.1470  176.5070  138.6880 C   0  0  0  0  0  3  0  0  0  0  0  0
  180.6680  176.4560  138.9870 S   0  0  0  0  0  0  0  0  0  0  0  0
  182.0960  177.3250  139.0580 C   0  0  0  0  0  0  0  0  0  0  0  0
  183.8880  179.7420  139.6330 C   0  0  0  0  0  0  0  0  0  0  0  0
  184.2460  180.5850  138.7710 O   0  0  0  0  0  0  0  0  0  0  0  0
  184.8170  179.3640  140.6560 N   0  0  0  0  0  2  0  0  0  0  0  0
  184.5390  178.4180  141.7230 C   0  0  0  0  0  2  0  0  0  0  0  0
  185.8290  177.9790  142.3950 C   0  0  0  0  0  2  0  0  0  0  0  0
  188.2700  177.7680  146.7360 C   0  0  0  0  0  3  0  0  0  0  0  0
  185.9940  178.6850  146.9260 C   0  0  0  0  0  2  0  0  0  0  0  0
  183.9530  178.9650  145.4900 C   0  0  0  0  0  2  0  0  0  0  0  0
  184.6050  178.1540  146.6090 C   0  0  0  0  0  2  0  0  0  0  0  0
  189.3500  177.2180  146.0480 C   0  0  0  0  0  3  0  0  0  0  0  0
  184.9040  179.2510  144.3290 C   0  0  0  0  0  2  0  0  0  0  0  0
  189.2390  176.9450  144.6870 C   0  0  0  0  0  3  0  0  0  0  0  0
  185.6490  177.9890  143.9120 C   0  0  2  0  0  3  0  0  0  0  0  0
  188.0490  177.2270  144.0170 C   0  0  0  0  0  3  0  0  0  0  0  0
  186.9510  177.8000  144.6820 C   0  0  0  0  0  0  0  0  0  0  0  0
  187.0650  178.0470  146.0830 C   0  0  0  0  0  0  0  0  0  0  0  0
  1  4  1  0  0  0  0
  2  9  2  0  0  0  0
  2  7  1  0  0  0  0
  3  4  2  0  0  0  0
  3  5  1  0  0  0  0
  4  8  1  0  0  0  0
  5 18  1  1  0  0  0
  5 10  1  0  0  0  0
  6 12  1  0  0  0  0
  7  1  2  0  0  0  0
  8 10  1  0  0  0  0
  8 11  2  0  0  0  0
  9  3  1  0  0  0  0
 10  6  2  0  0  0  0
 11 12  1  0  0  0  0
 13 14  2  0  0  0  0
 13 15  1  0  0  0  0
 14 16  1  0  0  0  0
 15 17  2  0  0  0  0
 16 17  1  0  0  0  0
 17  5  1  0  0  0  0
 18 20  1  0  0  0  0
 19 18  2  0  0  0  0
 20 21  1  0  0  0  0
 21 22  1  0  0  0  0
 25 26  1  0  0  0  0
 26 24  1  0  0  0  0
 27 23  2  0  0  0  0
 28 25  1  0  0  0  0
 29 27  1  0  0  0  0
 30 22  1  6  0  0  0
 30 28  1  0  0  0  0
 30 32  1  0  0  0  0
 31 32  1  0  0  0  0
 31 29  2  0  0  0  0
 32 33  2  0  0  0  0
 33 23  1  0  0  0  0
 33 24  1  0  0  0  0
M  END
>  <MODEL>
2

>  <REMARK>
 VINA RESULT:      -9.3      1.694      3.460
  Name = 
  5 active torsions:
  status: ('A' for Active; 'I' for Inactive)
    1  A    between atoms: C_8  and  C_21
    2  A    between atoms: C_8  and  C_32
    3  A    between atoms: C_15  and  P_16
    4  A    between atoms: P_16  and  C_29
    5  A    between atoms: N_19  and  C_32
                            x       y       z     vdW  Elec       q    Type
                         _______ _______ _______ _____ _____    ______ ____

>  <TORSDO>
F 5

$$$$
=
 OpenBabel11062412323D

 33 38  0  0  1  0  0  0  0  0999 V2000
  182.6500  175.6120  138.6900 C   0  0  0  0  0  3  0  0  0  0  0  0
  180.2350  175.5460  139.0320 C   0  0  0  0  0  3  0  0  0  0  0  0
  181.5090  177.4050  139.8660 C   0  0  0  0  0  0  0  0  0  0  0  0
  182.6770  176.8260  139.3740 C   0  0  0  0  0  0  0  0  0  0  0  0
  181.7940  179.0040  140.6300 P   0  0  1  0  0  4  0  0  0  0  0  0
  184.4070  179.7600  139.9080 N   0  0  0  0  0  0  0  0  0  0  0  0
  181.4140  174.9690  138.5250 C   0  0  0  0  0  3  0  0  0  0  0  0
  183.8340  177.6710  139.6440 C   0  0  0  0  0  0  0  0  0  0  0  0
  180.2770  176.7760  139.7050 C   0  0  0  0  0  3  0  0  0  0  0  0
  183.5320  178.8180  140.2920 C   0  0  2  0  0  3  0  0  0  0  0  0
  184.9110  177.8810  138.8730 N   0  0  0  0  0  0  0  0  0  0  0  0
  185.2600  179.1450  139.0930 N   0  0  0  0  0  0  0  0  0  0  0  0
  180.8950  181.9700  138.0400 C   0  0  0  0  0  3  0  0  0  0  0  0
  179.7280  182.2330  138.7560 C   0  0  0  0  0  3  0  0  0  0  0  0
  181.6690  180.9230  138.5580 C   0  0  0  0  0  3  0  0  0  0  0  0
  179.6720  181.1480  140.0420 S   0  0  0  0  0  0  0  0  0  0  0  0
  181.1020  180.3560  139.6850 C   0  0  0  0  0  0  0  0  0  0  0  0
  181.4480  178.9720  142.3950 C   0  0  0  0  0  0  0  0  0  0  0  0
  180.2480  178.9960  142.7720 O   0  0  0  0  0  0  0  0  0  0  0  0
  182.4820  178.9330  143.3870 N   0  0  0  0  0  2  0  0  0  0  0  0
  183.9060  178.8860  143.1020 C   0  0  0  0  0  2  0  0  0  0  0  0
  184.7010  178.7290  144.3860 C   0  0  0  0  0  2  0  0  0  0  0  0
  189.0460  177.1720  146.2690 C   0  0  0  0  0  3  0  0  0  0  0  0
  188.9680  177.1420  143.8090 C   0  0  0  0  0  2  0  0  0  0  0  0
  187.4510  177.9220  141.9660 C   0  0  0  0  0  2  0  0  0  0  0  0
  188.7380  178.1990  142.7410 C   0  0  0  0  0  2  0  0  0  0  0  0
  188.5250  177.4060  147.5400 C   0  0  0  0  0  3  0  0  0  0  0  0
  186.2810  177.5370  142.8710 C   0  0  0  0  0  2  0  0  0  0  0  0
  187.2560  177.9620  147.6780 C   0  0  0  0  0  3  0  0  0  0  0  0
  186.1730  178.4900  144.0550 C   0  0  2  0  0  3  0  0  0  0  0  0
  186.5080  178.2760  146.5440 C   0  0  0  0  0  3  0  0  0  0  0  0
  187.0000  178.0310  145.2490 C   0  0  0  0  0  0  0  0  0  0  0  0
  188.3150  177.4910  145.1190 C   0  0  0  0  0  0  0  0  0  0  0  0
  1  4  1  0  0  0  0
  2  9  2  0  0  0  0
  3  5  1  0  0  0  0
  4  8  1  0  0  0  0
  4  3  2  0  0  0  0
  5 18  1  1  0  0  0
  6 10  1  0  0  0  0
  7  1  2  0  0  0  0
  7  2  1  0  0  0  0
  9  3  1  0  0  0  0
 10  8  1  6  0  0  0
 10  5  1  0  0  0  0
 11 12  1  0  0  0  0
 11  8  2  0  0  0  0
 12  6  2  0  0  0  0
 13 15  1  0  0  0  0
 13 14  2  0  0  0  0
 14 16  1  0  0  0  0
 15 17  2  0  0  0  0
 17 16  1  0  0  0  0
 17  5  1  0  0  0  0
 18 19  2  0  0  0  0
 18 20  1  0  0  0  0
 21 20  1  0  0  0  0
 21 22  1  0  0  0  0
 23 27  1  0  0  0  0
 24 33  1  0  0  0  0
 25 26  1  0  0  0  0
 25 28  1  0  0  0  0
 26 24  1  0  0  0  0
 27 29  2  0  0  0  0
 28 30  1  0  0  0  0
 30 22  1  1  0  0  0
 30 32  1  0  0  0  0
 31 29  1  0  0  0  0
 32 31  2  0  0  0  0
 33 32  1  0  0  0  0
 33 23  2  0  0  0  0
M  END
>  <MODEL>
3

>  <REMARK>
 VINA RESULT:      -8.6      2.299      3.636
  Name = 
  5 active torsions:
  status: ('A' for Active; 'I' for Inactive)
    1  A    between atoms: C_8  and  C_21
    2  A    between atoms: C_8  and  C_32
    3  A    between atoms: C_15  and  P_16
    4  A    between atoms: P_16  and  C_29
    5  A    between atoms: N_19  and  C_32
                            x       y       z     vdW  Elec       q    Type
                         _______ _______ _______ _____ _____    ______ ____

>  <TORSDO>
F 5

$$$$
=
 OpenBabel11062412323D

 33 38  0  0  1  0  0  0  0  0999 V2000
  184.8280  175.4190  135.6440 C   0  0  0  0  0  3  0  0  0  0  0  0
  182.4610  174.8280  135.6170 C   0  0  0  0  0  3  0  0  0  0  0  0
  183.2710  176.4390  137.2050 C   0  0  0  0  0  0  0  0  0  0  0  0
  184.5620  176.2850  136.7040 C   0  0  0  0  0  0  0  0  0  0  0  0
  183.1740  177.6720  138.5070 P   0  0  1  0  0  4  0  0  0  0  0  0
  185.6170  179.0660  138.4470 N   0  0  0  0  0  0  0  0  0  0  0  0
  183.7630  174.6830  135.1030 C   0  0  0  0  0  3  0  0  0  0  0  0
  185.5020  177.1540  137.4010 C   0  0  0  0  0  0  0  0  0  0  0  0
  182.2070  175.7150  136.6740 C   0  0  0  0  0  3  0  0  0  0  0  0
  184.9310  177.9160  138.3600 C   0  0  2  0  0  3  0  0  0  0  0  0
  186.5600  177.8100  136.9010 N   0  0  0  0  0  0  0  0  0  0  0  0
  186.6290  178.9450  137.5900 N   0  0  0  0  0  0  0  0  0  0  0  0
  181.5350  181.3290  138.0040 C   0  0  0  0  0  3  0  0  0  0  0  0
  180.8130  180.8480  136.9130 C   0  0  0  0  0  3  0  0  0  0  0  0
  182.3560  180.3740  138.6210 C   0  0  0  0  0  3  0  0  0  0  0  0
  181.2060  179.2220  136.7270 S   0  0  0  0  0  0  0  0  0  0  0  0
  182.2820  179.1380  138.0060 C   0  0  0  0  0  0  0  0  0  0  0  0
  182.7300  176.9380  140.0890 C   0  0  0  0  0  0  0  0  0  0  0  0
  182.0100  175.9070  140.0910 O   0  0  0  0  0  0  0  0  0  0  0  0
  183.1520  177.4880  141.3430 N   0  0  0  0  0  2  0  0  0  0  0  0
  183.9950  178.6620  141.4950 C   0  0  0  0  0  2  0  0  0  0  0  0
  185.3670  178.2690  142.0130 C   0  0  0  0  0  2  0  0  0  0  0  0
  188.1920  177.6380  146.0720 C   0  0  0  0  0  3  0  0  0  0  0  0
  185.9670  178.5740  146.5520 C   0  0  0  0  0  2  0  0  0  0  0  0
  183.8100  179.0130  145.3430 C   0  0  0  0  0  2  0  0  0  0  0  0
  184.5420  178.0980  146.3230 C   0  0  0  0  0  2  0  0  0  0  0  0
  189.1900  177.1320  145.2410 C   0  0  0  0  0  3  0  0  0  0  0  0
  184.6570  179.3840  144.1270 C   0  0  0  0  0  2  0  0  0  0  0  0
  188.9460  176.9800  143.8780 C   0  0  0  0  0  3  0  0  0  0  0  0
  185.3280  178.1500  143.5360 C   0  0  2  0  0  3  0  0  0  0  0  0
  187.7080  177.3390  143.3490 C   0  0  0  0  0  3  0  0  0  0  0  0
  186.6900  177.8720  144.1610 C   0  0  0  0  0  0  0  0  0  0  0  0
  186.9390  177.9940  145.5610 C   0  0  0  0  0  0  0  0  0  0  0  0
  1  4  1  0  0  0  0
  2  9  2  0  0  0  0
  3  5  1  0  0  0  0
  4  3  2  0  0  0  0
  4  8  1  0  0  0  0
  5 18  1  1  0  0  0
  7  2  1  0  0  0  0
  7  1  2  0  0  0  0
  9  3  1  0  0  0  0
 10  8  1  6  0  0  0
 10  6  1  0  0  0  0
 10  5  1  0  0  0  0
 11  8  2  0  0  0  0
 11 12  1  0  0  0  0
 12  6  2  0  0  0  0
 13 15  1  0  0  0  0
 14 13  2  0  0  0  0
 16 14  1  0  0  0  0
 16 17  1  0  0  0  0
 17  5  1  0  0  0  0
 17 15  2  0  0  0  0
 18 19  2  0  0  0  0
 18 20  1  0  0  0  0
 20 21  1  0  0  0  0
 21 22  1  0  0  0  0
 25 26  1  0  0  0  0
 26 24  1  0  0  0  0
 27 23  2  0  0  0  0
 28 25  1  0  0  0  0
 29 27  1  0  0  0  0
 30 22  1  6  0  0  0
 30 28  1  0  0  0  0
 30 32  1  0  0  0  0
 31 29  2  0  0  0  0
 31 32  1  0  0  0  0
 32 33  2  0  0  0  0
 33 23  1  0  0  0  0
 33 24  1  0  0  0  0
M  END
>  <MODEL>
4

>  <REMARK>
 VINA RESULT:      -8.6      2.588      3.473
  Name = 
  5 active torsions:
  status: ('A' for Active; 'I' for Inactive)
    1  A    between atoms: C_8  and  C_21
    2  A    between atoms: C_8  and  C_32
    3  A    between atoms: C_15  and  P_16
    4  A    between atoms: P_16  and  C_29
    5  A    between atoms: N_19  and  C_32
                            x       y       z     vdW  Elec       q    Type
                         _______ _______ _______ _____ _____    ______ ____

>  <TORSDO>
F 5

$$$$
=
 OpenBabel11062412323D

 33 38  0  0  1  0  0  0  0  0999 V2000
  179.1920  181.5240  139.6380 C   0  0  0  0  0  3  0  0  0  0  0  0
  180.1290  181.4140  137.3880 C   0  0  0  0  0  3  0  0  0  0  0  0
  181.0940  180.0940  139.1480 C   0  0  0  0  0  0  0  0  0  0  0  0
  180.1650  180.6130  140.0480 C   0  0  0  0  0  0  0  0  0  0  0  0
  182.1820  178.8790  139.8970 P   0  0  1  0  0  4  0  0  0  0  0  0
  181.0430  178.2410  142.3900 N   0  0  0  0  0  0  0  0  0  0  0  0
  179.1830  181.9270  138.2940 C   0  0  0  0  0  3  0  0  0  0  0  0
  180.3490  180.0450  141.3770 C   0  0  0  0  0  0  0  0  0  0  0  0
  181.0920  180.4860  137.8120 C   0  0  0  0  0  3  0  0  0  0  0  0
  181.3570  179.1470  141.4510 C   0  0  0  0  0  0  0  0  0  0  0  0
  179.4150  179.7220  142.2830 N   0  0  0  0  0  0  0  0  0  0  0  0
  179.8890  178.6500  142.9120 N   0  0  0  0  0  2  0  0  0  0  0  0
  182.3220  175.0990  138.4810 C   0  0  0  0  0  3  0  0  0  0  0  0
  180.9290  175.0420  138.5120 C   0  0  0  0  0  3  0  0  0  0  0  0
  182.8620  176.3170  138.9150 C   0  0  0  0  0  3  0  0  0  0  0  0
  180.3790  176.5270  139.0840 S   0  0  0  0  0  0  0  0  0  0  0  0
  181.8860  177.2200  139.2950 C   0  0  0  0  0  0  0  0  0  0  0  0
  183.8890  179.4470  139.9390 C   0  0  0  0  0  0  0  0  0  0  0  0
  184.2580  180.3010  139.0930 O   0  0  0  0  0  0  0  0  0  0  0  0
  184.8450  178.9560  140.8870 N   0  0  0  0  0  2  0  0  0  0  0  0
  184.5610  177.9830  141.9280 C   0  0  0  0  0  2  0  0  0  0  0  0
  184.8870  178.5570  143.2960 C   0  0  0  0  0  2  0  0  0  0  0  0
  188.1330  177.7510  146.9920 C   0  0  0  0  0  3  0  0  0  0  0  0
  188.9890  177.1250  144.7710 C   0  0  0  0  0  2  0  0  0  0  0  0
  188.3130  177.3500  142.3630 C   0  0  0  0  0  2  0  0  0  0  0  0
  189.2220  177.8790  143.4710 C   0  0  0  0  0  2  0  0  0  0  0  0
  187.1800  178.2540  147.8750 C   0  0  0  0  0  3  0  0  0  0  0  0
  186.8750  177.1280  142.8260 C   0  0  0  0  0  2  0  0  0  0  0  0
  185.9760  178.7530  147.3860 C   0  0  0  0  0  3  0  0  0  0  0  0
  186.3640  178.3300  143.6110 C   0  0  2  0  0  3  0  0  0  0  0  0
  185.7250  178.7410  146.0150 C   0  0  0  0  0  3  0  0  0  0  0  0
  186.6600  178.2210  145.1020 C   0  0  0  0  0  0  0  0  0  0  0  0
  187.9040  177.7410  145.6120 C   0  0  0  0  0  0  0  0  0  0  0  0
  1  4  1  0  0  0  0
  2  9  2  0  0  0  0
  2  7  1  0  0  0  0
  3  5  1  0  0  0  0
  3  4  2  0  0  0  0
  4  8  1  0  0  0  0
  5 18  1  1  0  0  0
  5 10  1  0  0  0  0
  6 12  1  0  0  0  0
  7  1  2  0  0  0  0
  8 10  1  0  0  0  0
  8 11  2  0  0  0  0
  9  3  1  0  0  0  0
 10  6  2  0  0  0  0
 11 12  1  0  0  0  0
 13 14  2  0  0  0  0
 13 15  1  0  0  0  0
 14 16  1  0  0  0  0
 15 17  2  0  0  0  0
 16 17  1  0  0  0  0
 17  5  1  0  0  0  0
 18 20  1  0  0  0  0
 19 18  2  0  0  0  0
 20 21  1  0  0  0  0
 21 22  1  0  0  0  0
 23 27  1  0  0  0  0
 24 33  1  0  0  0  0
 25 28  1  0  0  0  0
 25 26  1  0  0  0  0
 26 24  1  0  0  0  0
 28 30  1  0  0  0  0
 29 27  2  0  0  0  0
 30 22  1  1  0  0  0
 30 32  1  0  0  0  0
 31 29  1  0  0  0  0
 32 33  1  0  0  0  0
 32 31  2  0  0  0  0
 33 23  2  0  0  0  0
M  END
>  <MODEL>
5

>  <REMARK>
 VINA RESULT:      -8.5      1.934      4.115
  Name = 
  5 active torsions:
  status: ('A' for Active; 'I' for Inactive)
    1  A    between atoms: C_8  and  C_21
    2  A    between atoms: C_8  and  C_32
    3  A    between atoms: C_15  and  P_16
    4  A    between atoms: P_16  and  C_29
    5  A    between atoms: N_19  and  C_32
                            x       y       z     vdW  Elec       q    Type
                         _______ _______ _______ _____ _____    ______ ____

>  <TORSDO>
F 5

$$$$
=
 OpenBabel11062412323D

 33 38  0  0  1  0  0  0  0  0999 V2000
  182.7080  175.5880  138.4700 C   0  0  0  0  0  3  0  0  0  0  0  0
  180.3550  175.4350  139.0990 C   0  0  0  0  0  3  0  0  0  0  0  0
  181.6690  177.3070  139.8360 C   0  0  0  0  0  0  0  0  0  0  0  0
  182.7840  176.7810  139.1880 C   0  0  0  0  0  0  0  0  0  0  0  0
  182.0010  178.8900  140.6150 P   0  0  1  0  0  4  0  0  0  0  0  0
  184.4830  179.7500  139.6100 N   0  0  0  0  0  0  0  0  0  0  0  0
  181.4790  174.9120  138.4330 C   0  0  0  0  0  3  0  0  0  0  0  0
  183.9410  177.6530  139.3440 C   0  0  0  0  0  0  0  0  0  0  0  0
  180.4440  176.6450  139.8040 C   0  0  0  0  0  3  0  0  0  0  0  0
  183.6890  178.7700  140.0630 C   0  0  2  0  0  3  0  0  0  0  0  0
  184.9100  177.9220  138.4560 N   0  0  0  0  0  0  0  0  0  0  0  0
  185.2480  179.1890  138.6770 N   0  0  0  0  0  0  0  0  0  0  0  0
  180.7540  181.9630  138.3090 C   0  0  0  0  0  3  0  0  0  0  0  0
  179.6000  182.0670  139.0820 C   0  0  0  0  0  3  0  0  0  0  0  0
  181.6330  180.9480  138.7130 C   0  0  0  0  0  3  0  0  0  0  0  0
  179.6860  180.8840  140.2770 S   0  0  0  0  0  0  0  0  0  0  0  0
  181.1610  180.2480  139.8080 C   0  0  0  0  0  0  0  0  0  0  0  0
  181.8730  178.7920  142.4070 C   0  0  0  0  0  0  0  0  0  0  0  0
  180.7420  178.5840  142.9180 O   0  0  0  0  0  0  0  0  0  0  0  0
  183.0020  178.9540  143.2740 N   0  0  0  0  0  2  0  0  0  0  0  0
  184.3660  179.1830  142.8290 C   0  0  0  0  0  2  0  0  0  0  0  0
  185.1850  177.9090  142.9390 C   0  0  0  0  0  2  0  0  0  0  0  0
  189.4830  177.1900  145.3590 C   0  0  0  0  0  3  0  0  0  0  0  0
  187.7460  178.2670  146.7290 C   0  0  0  0  0  2  0  0  0  0  0  0
  185.2990  178.8110  146.5780 C   0  0  0  0  0  2  0  0  0  0  0  0
  186.3470  177.8720  147.1740 C   0  0  0  0  0  2  0  0  0  0  0  0
  189.9860  176.6090  144.1960 C   0  0  0  0  0  3  0  0  0  0  0  0
  185.5350  179.1050  145.0980 C   0  0  0  0  0  2  0  0  0  0  0  0
  189.1580  176.4450  143.0890 C   0  0  0  0  0  3  0  0  0  0  0  0
  185.8190  177.8220  144.3260 C   0  0  2  0  0  3  0  0  0  0  0  0
  187.8300  176.8680  143.1450 C   0  0  0  0  0  3  0  0  0  0  0  0
  187.3020  177.4760  144.2980 C   0  0  0  0  0  0  0  0  0  0  0  0
  188.1510  177.6100  145.4380 C   0  0  0  0  0  0  0  0  0  0  0  0
  1  4  1  0  0  0  0
  2  9  2  0  0  0  0
  3  5  1  0  0  0  0
  4  8  1  0  0  0  0
  4  3  2  0  0  0  0
  5 18  1  1  0  0  0
  6 10  1  0  0  0  0
  7  1  2  0  0  0  0
  7  2  1  0  0  0  0
  9  3  1  0  0  0  0
 10  8  1  6  0  0  0
 10  5  1  0  0  0  0
 11 12  1  0  0  0  0
 11  8  2  0  0  0  0
 12  6  2  0  0  0  0
 13 15  1  0  0  0  0
 13 14  2  0  0  0  0
 14 16  1  0  0  0  0
 15 17  2  0  0  0  0
 17 16  1  0  0  0  0
 17  5  1  0  0  0  0
 18 19  2  0  0  0  0
 18 20  1  0  0  0  0
 21 22  1  0  0  0  0
 21 20  1  0  0  0  0
 23 33  1  0  0  0  0
 24 26  1  0  0  0  0
 25 26  1  0  0  0  0
 27 23  2  0  0  0  0
 28 25  1  0  0  0  0
 29 31  2  0  0  0  0
 29 27  1  0  0  0  0
 30 22  1  6  0  0  0
 30 28  1  0  0  0  0
 31 32  1  0  0  0  0
 32 30  1  0  0  0  0
 32 33  2  0  0  0  0
 33 24  1  0  0  0  0
M  END
>  <MODEL>
6

>  <REMARK>
 VINA RESULT:      -8.4      2.256      3.112
  Name = 
  5 active torsions:
  status: ('A' for Active; 'I' for Inactive)
    1  A    between atoms: C_8  and  C_21
    2  A    between atoms: C_8  and  C_32
    3  A    between atoms: C_15  and  P_16
    4  A    between atoms: P_16  and  C_29
    5  A    between atoms: N_19  and  C_32
                            x       y       z     vdW  Elec       q    Type
                         _______ _______ _______ _____ _____    ______ ____

>  <TORSDO>
F 5

$$$$
=
 OpenBabel11062412323D

 33 38  0  0  1  0  0  0  0  0999 V2000
  179.8720  177.5680  141.7850 C   0  0  0  0  0  3  0  0  0  0  0  0
  179.4710  179.9750  141.7960 C   0  0  0  0  0  3  0  0  0  0  0  0
  181.0860  179.0400  140.2810 C   0  0  0  0  0  0  0  0  0  0  0  0
  180.8220  177.7680  140.7850 C   0  0  0  0  0  0  0  0  0  0  0  0
  182.2840  179.0230  138.9450 P   0  0  1  0  0  4  0  0  0  0  0  0
  182.5690  176.3290  138.1840 N   0  0  0  0  0  0  0  0  0  0  0  0
  179.1960  178.6880  142.2940 C   0  0  0  0  0  3  0  0  0  0  0  0
  181.6220  176.7580  140.1030 C   0  0  0  0  0  0  0  0  0  0  0  0
  180.4200  180.1570  140.7780 C   0  0  0  0  0  3  0  0  0  0  0  0
  182.4270  177.2600  139.1400 C   0  0  2  0  0  3  0  0  0  0  0  0
  181.2770  175.5060  139.7690 N   0  0  0  0  0  0  0  0  0  0  0  0
  181.9060  175.2610  138.6220 N   0  0  0  0  0  0  0  0  0  0  0  0
  180.9110  179.2140  135.1510 C   0  0  0  0  0  3  0  0  0  0  0  0
  180.4280  180.4980  135.3960 C   0  0  0  0  0  3  0  0  0  0  0  0
  181.5490  178.6150  136.2460 C   0  0  0  0  0  3  0  0  0  0  0  0
  180.8050  180.8800  136.9920 S   0  0  0  0  0  0  0  0  0  0  0  0
  181.5590  179.4330  137.3610 C   0  0  0  0  0  0  0  0  0  0  0  0
  183.8030  179.8740  139.3990 C   0  0  0  0  0  0  0  0  0  0  0  0
  184.1600  180.8690  138.7190 O   0  0  0  0  0  0  0  0  0  0  0  0
  184.6260  179.4550  140.4940 N   0  0  0  0  0  2  0  0  0  0  0  0
  184.3350  178.3370  141.3750 C   0  0  0  0  0  2  0  0  0  0  0  0
  185.5940  177.8760  142.0870 C   0  0  0  0  0  2  0  0  0  0  0  0
  187.9670  177.8760  146.4710 C   0  0  0  0  0  3  0  0  0  0  0  0
  185.6880  178.7970  146.5810 C   0  0  0  0  0  2  0  0  0  0  0  0
  183.6690  179.0050  145.1020 C   0  0  0  0  0  2  0  0  0  0  0  0
  184.3040  178.2500  146.2680 C   0  0  0  0  0  2  0  0  0  0  0  0
  189.0590  177.2970  145.8260 C   0  0  0  0  0  3  0  0  0  0  0  0
  184.6380  179.2380  143.9440 C   0  0  0  0  0  2  0  0  0  0  0  0
  188.9690  176.9580  144.4790 C   0  0  0  0  0  3  0  0  0  0  0  0
  185.3910  177.9580  143.5990 C   0  0  2  0  0  3  0  0  0  0  0  0
  187.7900  177.2060  143.7770 C   0  0  0  0  0  3  0  0  0  0  0  0
  186.6800  177.8080  144.3970 C   0  0  0  0  0  0  0  0  0  0  0  0
  186.7720  178.1220  145.7860 C   0  0  0  0  0  0  0  0  0  0  0  0
  1  7  1  0  0  0  0
  2  7  2  0  0  0  0
  3  9  2  0  0  0  0
  3  4  1  0  0  0  0
  4  1  2  0  0  0  0
  5 10  1  0  0  0  0
  5 18  1  1  0  0  0
  5  3  1  0  0  0  0
  6 12  2  0  0  0  0
  8  4  1  0  0  0  0
  9  2  1  0  0  0  0
 10  6  1  6  0  0  0
 10  8  1  0  0  0  0
 11  8  2  0  0  0  0
 12 11  1  0  0  0  0
 13 14  2  0  0  0  0
 13 15  1  0  0  0  0
 14 16  1  0  0  0  0
 15 17  2  0  0  0  0
 16 17  1  0  0  0  0
 17  5  1  0  0  0  0
 18 20  1  0  0  0  0
 19 18  2  0  0  0  0
 20 21  1  0  0  0  0
 21 22  1  0  0  0  0
 25 26  1  0  0  0  0
 26 24  1  0  0  0  0
 27 23  1  0  0  0  0
 28 25  1  0  0  0  0
 29 27  2  0  0  0  0
 30 22  1  6  0  0  0
 30 28  1  0  0  0  0
 30 32  1  0  0  0  0
 31 32  2  0  0  0  0
 31 29  1  0  0  0  0
 32 33  1  0  0  0  0
 33 23  2  0  0  0  0
 33 24  1  0  0  0  0
M  END
>  <MODEL>
7

>  <REMARK>
 VINA RESULT:      -8.4      2.012      3.833
  Name = 
  5 active torsions:
  status: ('A' for Active; 'I' for Inactive)
    1  A    between atoms: C_8  and  C_21
    2  A    between atoms: C_8  and  C_32
    3  A    between atoms: C_15  and  P_16
    4  A    between atoms: P_16  and  C_29
    5  A    between atoms: N_19  and  C_32
                            x       y       z     vdW  Elec       q    Type
                         _______ _______ _______ _____ _____    ______ ____

>  <TORSDO>
F 5

$$$$
=
 OpenBabel11062412323D

 33 38  0  0  1  0  0  0  0  0999 V2000
  179.0750  178.1220  137.1120 C   0  0  0  0  0  3  0  0  0  0  0  0
  180.2290  179.6410  135.5890 C   0  0  0  0  0  3  0  0  0  0  0  0
  181.4390  178.6070  137.3900 C   0  0  0  0  0  0  0  0  0  0  0  0
  180.2760  177.9610  137.8010 C   0  0  0  0  0  0  0  0  0  0  0  0
  182.8670  178.1700  138.3860 P   0  0  1  0  0  4  0  0  0  0  0  0
  182.0980  175.9380  139.9160 N   0  0  0  0  0  0  0  0  0  0  0  0
  179.0580  178.9760  135.9980 C   0  0  0  0  0  3  0  0  0  0  0  0
  180.5280  177.1170  138.9630 C   0  0  0  0  0  0  0  0  0  0  0  0
  181.4330  179.4550  136.2850 C   0  0  0  0  0  3  0  0  0  0  0  0
  181.8140  177.1340  139.3800 C   0  0  0  0  0  0  0  0  0  0  0  0
  179.9950  175.9220  139.2580 N   0  0  0  0  0  0  0  0  0  0  0  0
  180.9600  175.2490  139.8780 N   0  0  0  0  0  2  0  0  0  0  0  0
  186.1060  176.4820  136.6630 C   0  0  0  0  0  3  0  0  0  0  0  0
  185.2830  175.5310  136.0620 C   0  0  0  0  0  3  0  0  0  0  0  0
  185.4270  177.4150  137.4590 C   0  0  0  0  0  3  0  0  0  0  0  0
  183.7010  175.8660  136.5320 S   0  0  0  0  0  0  0  0  0  0  0  0
  184.0630  177.1900  137.4880 C   0  0  0  0  0  0  0  0  0  0  0  0
  183.4890  179.5800  139.3160 C   0  0  0  0  0  0  0  0  0  0  0  0
  183.3250  180.7330  138.8400 O   0  0  0  0  0  0  0  0  0  0  0  0
  184.1740  179.4410  140.5670 N   0  0  0  0  0  2  0  0  0  0  0  0
  184.4230  178.1790  141.2430 C   0  0  0  0  0  2  0  0  0  0  0  0
  185.7420  178.2290  141.9930 C   0  0  0  0  0  2  0  0  0  0  0  0
  187.9350  177.7250  146.4420 C   0  0  0  0  0  3  0  0  0  0  0  0
  185.6940  178.7360  146.5530 C   0  0  0  0  0  2  0  0  0  0  0  0
  183.7470  179.1690  145.0270 C   0  0  0  0  0  2  0  0  0  0  0  0
  184.3020  178.2840  146.1420 C   0  0  0  0  0  2  0  0  0  0  0  0
  189.0260  177.1560  145.7870 C   0  0  0  0  0  3  0  0  0  0  0  0
  184.7710  179.4600  143.9310 C   0  0  0  0  0  2  0  0  0  0  0  0
  188.9760  176.9450  144.4110 C   0  0  0  0  0  3  0  0  0  0  0  0
  185.4820  178.1830  143.4980 C   0  0  2  0  0  3  0  0  0  0  0  0
  187.8380  177.3090  143.6930 C   0  0  0  0  0  3  0  0  0  0  0  0
  186.7310  177.9030  144.3250 C   0  0  0  0  0  0  0  0  0  0  0  0
  186.7800  178.0860  145.7400 C   0  0  0  0  0  0  0  0  0  0  0  0
  1  4  1  0  0  0  0
  2  7  1  0  0  0  0
  2  9  2  0  0  0  0
  3  4  2  0  0  0  0
  3  5  1  0  0  0  0
  4  8  1  0  0  0  0
  5 18  1  1  0  0  0
  5 10  1  0  0  0  0
  7  1  2  0  0  0  0
  8 11  2  0  0  0  0
  8 10  1  0  0  0  0
  9  3  1  0  0  0  0
 10  6  2  0  0  0  0
 11 12  1  0  0  0  0
 12  6  1  0  0  0  0
 13 15  1  0  0  0  0
 14 16  1  0  0  0  0
 14 13  2  0  0  0  0
 15 17  2  0  0  0  0
 16 17  1  0  0  0  0
 17  5  1  0  0  0  0
 18 20  1  0  0  0  0
 19 18  2  0  0  0  0
 20 21  1  0  0  0  0
 21 22  1  0  0  0  0
 25 26  1  0  0  0  0
 26 24  1  0  0  0  0
 27 23  1  0  0  0  0
 28 25  1  0  0  0  0
 29 27  2  0  0  0  0
 30 22  1  6  0  0  0
 30 28  1  0  0  0  0
 30 32  1  0  0  0  0
 31 32  2  0  0  0  0
 31 29  1  0  0  0  0
 32 33  1  0  0  0  0
 33 23  2  0  0  0  0
 33 24  1  0  0  0  0
M  END
>  <MODEL>
8

>  <REMARK>
 VINA RESULT:      -8.3      2.303      3.738
  Name = 
  5 active torsions:
  status: ('A' for Active; 'I' for Inactive)
    1  A    between atoms: C_8  and  C_21
    2  A    between atoms: C_8  and  C_32
    3  A    between atoms: C_15  and  P_16
    4  A    between atoms: P_16  and  C_29
    5  A    between atoms: N_19  and  C_32
                            x       y       z     vdW  Elec       q    Type
                         _______ _______ _______ _____ _____    ______ ____

>  <TORSDO>
F 5

$$$$
=
 OpenBabel11062412323D

 33 38  0  0  1  0  0  0  0  0999 V2000
  191.1560  177.0910  139.9590 C   0  0  0  0  0  3  0  0  0  0  0  0
  189.2020  177.1790  141.4180 C   0  0  0  0  0  3  0  0  0  0  0  0
  188.9130  177.1920  139.0330 C   0  0  0  0  0  0  0  0  0  0  0  0
  190.2950  177.1420  138.8640 C   0  0  0  0  0  0  0  0  0  0  0  0
  188.0210  177.1640  137.4750 P   0  0  1  0  0  4  0  0  0  0  0  0
  189.9030  176.4450  135.5110 N   0  0  0  0  0  0  0  0  0  0  0  0
  190.5980  177.1140  141.2460 C   0  0  0  0  0  3  0  0  0  0  0  0
  190.6490  177.1100  137.4510 C   0  0  0  0  0  0  0  0  0  0  0  0
  188.3490  177.2140  140.3060 C   0  0  0  0  0  3  0  0  0  0  0  0
  189.5830  177.1260  136.6210 C   0  0  2  0  0  3  0  0  0  0  0  0
  191.6490  176.4410  136.8560 N   0  0  0  0  0  0  0  0  0  0  0  0
  191.1780  176.0920  135.6620 N   0  0  0  0  0  0  0  0  0  0  0  0
  186.6700  173.3720  137.1510 C   0  0  0  0  0  3  0  0  0  0  0  0
  185.4450  173.8530  136.6920 C   0  0  0  0  0  3  0  0  0  0  0  0
  187.6120  174.3680  137.4450 C   0  0  0  0  0  3  0  0  0  0  0  0
  185.5480  175.5330  136.6550 S   0  0  0  0  0  0  0  0  0  0  0  0
  187.1190  175.6400  137.2220 C   0  0  0  0  0  0  0  0  0  0  0  0
  187.1350  178.7030  137.1840 C   0  0  0  0  0  0  0  0  0  0  0  0
  187.6410  179.5490  136.4030 O   0  0  0  0  0  0  0  0  0  0  0  0
  185.8860  179.0080  137.8160 N   0  0  0  0  0  2  0  0  0  0  0  0
  185.1770  178.1250  138.7270 C   0  0  0  0  0  2  0  0  0  0  0  0
  185.2600  178.6500  140.1490 C   0  0  0  0  0  2  0  0  0  0  0  0
  182.9200  178.9370  144.5420 C   0  0  0  0  0  3  0  0  0  0  0  0
  181.4050  179.0460  142.6060 C   0  0  0  0  0  2  0  0  0  0  0  0
  181.5110  178.7460  140.1150 C   0  0  0  0  0  2  0  0  0  0  0  0
  181.0970  178.1160  141.4430 C   0  0  0  0  0  2  0  0  0  0  0  0
  184.1650  178.8210  145.1590 C   0  0  0  0  0  3  0  0  0  0  0  0
  182.8860  179.4100  140.1710 C   0  0  0  0  0  2  0  0  0  0  0  0
  185.3060  178.6230  144.3860 C   0  0  0  0  0  3  0  0  0  0  0  0
  183.9050  178.4920  140.8370 C   0  0  2  0  0  3  0  0  0  0  0  0
  185.2010  178.5490  142.9980 C   0  0  0  0  0  3  0  0  0  0  0  0
  183.9610  178.6840  142.3470 C   0  0  0  0  0  0  0  0  0  0  0  0
  182.7940  178.8540  143.1510 C   0  0  0  0  0  0  0  0  0  0  0  0
  1  7  1  0  0  0  0
  3  9  2  0  0  0  0
  4  3  1  0  0  0  0
  4  1  2  0  0  0  0
  5 18  1  6  0  0  0
  5  3  1  0  0  0  0
  6 12  2  0  0  0  0
  7  2  2  0  0  0  0
  8  4  1  0  0  0  0
  9  2  1  0  0  0  0
 10  6  1  1  0  0  0
 10  8  1  0  0  0  0
 10  5  1  0  0  0  0
 11  8  2  0  0  0  0
 12 11  1  0  0  0  0
 13 15  1  0  0  0  0
 14 13  2  0  0  0  0
 16 14  1  0  0  0  0
 16 17  1  0  0  0  0
 17 15  2  0  0  0  0
 17  5  1  0  0  0  0
 18 20  1  0  0  0  0
 19 18  2  0  0  0  0
 20 21  1  0  0  0  0
 21 22  1  0  0  0  0
 23 27  1  0  0  0  0
 24 33  1  0  0  0  0
 25 28  1  0  0  0  0
 25 26  1  0  0  0  0
 26 24  1  0  0  0  0
 28 30  1  0  0  0  0
 29 27  2  0  0  0  0
 30 22  1  6  0  0  0
 30 32  1  0  0  0  0
 31 29  1  0  0  0  0
 32 31  2  0  0  0  0
 32 33  1  0  0  0  0
 33 23  2  0  0  0  0
M  END
>  <MODEL>
9

>  <REMARK>
 VINA RESULT:      -7.4      4.401      7.313
  Name = 
  5 active torsions:
  status: ('A' for Active; 'I' for Inactive)
    1  A    between atoms: C_8  and  C_21
    2  A    between atoms: C_8  and  C_32
    3  A    between atoms: C_15  and  P_16
    4  A    between atoms: P_16  and  C_29
    5  A    between atoms: N_19  and  C_32
                            x       y       z     vdW  Elec       q    Type
                         _______ _______ _______ _____ _____    ______ ____

>  <TORSDO>
F 5

$$$$
