=
 OpenBabel11062413133D

 42 46  0  0  1  0  0  0  0  0999 V2000
  188.3650  176.7540  136.8850 C   0  0  0  0  0  0  0  0  0  0  0  0
  190.9550  175.9290  136.2150 N   0  0  0  0  0  0  0  0  0  0  0  0
  190.6980  176.1850  137.4590 C   0  0  0  0  0  0  0  0  0  0  0  0
  188.6310  176.4000  135.6190 C   0  0  0  0  0  3  0  0  0  0  0  0
  189.8690  175.6030  135.2940 C   0  0  0  0  0  2  0  0  0  0  0  0
  191.0190  177.3120  139.4550 N   0  0  0  0  0  2  0  0  0  0  0  0
  189.5890  177.4070  139.0920 C   0  0  2  0  0  0  0  0  0  0  0  0
  189.3330  176.3630  137.9810 C   0  0  1  0  0  3  0  0  0  0  0  0
  191.6470  176.7300  138.3380 N   0  0  0  0  0  2  0  0  0  0  0  0
  189.3240  178.7010  138.6280 O   0  0  0  0  0  1  0  0  0  0  0  0
  187.1420  177.4190  137.2280 N   0  0  0  0  0  2  0  0  0  0  0  0
  185.8620  177.1880  136.5640 C   0  0  0  0  0  2  0  0  0  0  0  0
  185.6020  174.8180  136.8430 O   0  0  0  0  0  1  0  0  0  0  0  0
  185.0950  176.0590  137.2410 C   0  0  2  0  0  3  0  0  0  0  0  0
  182.7060  175.1960  137.7620 C   0  0  0  0  0  2  0  0  0  0  0  0
  182.8360  177.8560  138.7710 C   0  0  2  0  0  3  0  0  0  0  0  0
  182.7020  175.4820  139.1400 O   0  0  0  0  0  0  0  0  0  0  0  0
  183.5900  176.1980  136.9950 C   0  0  1  0  0  3  0  0  0  0  0  0
  182.0020  176.6890  139.3010 C   0  0  0  0  0  2  0  0  0  0  0  0
  183.1290  177.6260  137.2820 C   0  0  0  0  0  2  0  0  0  0  0  0
  184.0730  177.9570  139.5280 N   0  0  0  0  0  2  0  0  0  0  0  0
  184.1680  179.3100  140.0560 C   0  0  2  0  0  3  0  0  0  0  0  0
  184.6700  180.1500  139.0650 O   0  0  0  0  0  1  0  0  0  0  0  0
  185.0670  179.3260  141.2000 N   0  0  0  0  0  2  0  0  0  0  0  0
  185.3460  178.3090  144.3980 C   0  0  0  0  0  0  0  0  0  0  0  0
  183.9920  178.7970  144.5440 C   0  0  0  0  0  0  0  0  0  0  0  0
  186.2810  178.0990  145.5350 C   0  0  0  0  0  1  0  0  0  0  0  0
  185.6760  178.0450  143.1500 C   0  0  0  0  0  3  0  0  0  0  0  0
  183.1050  178.9140  143.0070 S   0  0  0  0  0  0  0  0  0  0  0  0
  183.4790  179.1050  145.6540 O   0  0  0  0  0  0  0  0  0  0  0  0
  184.6050  178.3120  142.1360 C   0  0  1  0  0  3  0  0  0  0  0  0
  188.7130  177.0860  140.3020 C   0  0  0  0  0  2  0  0  0  0  0  0
  189.9170  177.6320  142.4570 N   0  0  0  0  0  2  0  0  0  0  0  0
  188.4090  179.1280  141.4930 O   0  0  0  0  0  0  0  0  0  0  0  0
  188.9780  178.0060  141.4500 C   0  0  0  0  0  0  0  0  0  0  0  0
  189.8640  177.9810  144.8610 C   0  0  0  0  0  2  0  0  0  0  0  0
  190.3090  178.5430  143.5290 C   0  0  1  0  0  3  0  0  0  0  0  0
  191.3290  177.9180  144.4860 C   0  0  2  0  0  3  0  0  0  0  0  0
  192.1280  175.8580  146.2940 O   0  0  0  0  0  0  0  0  0  0  0  0
  191.6810  176.5530  144.1060 N   0  0  0  0  0  2  0  0  0  0  0  0
  192.0450  175.5650  145.0710 C   0  0  0  0  0  0  0  0  0  0  0  0
  192.3330  174.2390  144.6430 N   0  0  0  0  0  1  0  0  0  0  0  0
  1 11  1  0  0  0  0
  2  3  2  0  0  0  0
  3  8  1  0  0  0  0
  3  9  1  0  0  0  0
  4  1  2  0  0  0  0
  5  4  1  0  0  0  0
  5  2  1  0  0  0  0
  7 10  1  6  0  0  0
  7  6  1  0  0  0  0
  7 32  1  0  0  0  0
  8  1  1  6  0  0  0
  8  7  1  0  0  0  0
  9  6  1  0  0  0  0
 12 11  1  0  0  0  0
 12 14  1  0  0  0  0
 14 13  1  6  0  0  0
 15 17  1  0  0  0  0
 16 19  1  0  0  0  0
 16 21  1  1  0  0  0
 17 19  1  0  0  0  0
 18 14  1  1  0  0  0
 18 20  1  0  0  0  0
 18 15  1  0  0  0  0
 20 16  1  0  0  0  0
 21 22  1  0  0  0  0
 22 23  1  6  0  0  0
 22 24  1  0  0  0  0
 25 26  1  0  0  0  0
 25 27  1  0  0  0  0
 26 30  2  0  0  0  0
 28 25  2  0  0  0  0
 29 26  1  0  0  0  0
 31 24  1  6  0  0  0
 31 29  1  0  0  0  0
 31 28  1  0  0  0  0
 32 35  1  0  0  0  0
 35 34  2  0  0  0  0
 35 33  1  0  0  0  0
 37 33  1  6  0  0  0
 37 38  1  0  0  0  0
 37 36  1  0  0  0  0
 38 40  1  6  0  0  0
 38 36  1  0  0  0  0
 40 41  1  0  0  0  0
 41 39  2  0  0  0  0
 42 41  1  0  0  0  0
M  END
>  <MODEL>
1

>  <REMARK>
 VINA RESULT:      -7.9      0.000      0.000
  Name = 
  12 active torsions:
  status: ('A' for Active; 'I' for Inactive)
    1  A    between atoms: N_1  and  C_33
    2  A    between atoms: C_3  and  N_4
    3  A    between atoms: N_4  and  C_9
    4  A    between atoms: C_9  and  C_29
    5  A    between atoms: C_11  and  N_25
    6  A    between atoms: C_13  and  N_25
    7  A    between atoms: C_13  and  N_39
    8  A    between atoms: C_15  and  C_29
    9  A    between atoms: N_16  and  C_42
   10  A    between atoms: C_24  and  C_32
   11  A    between atoms: C_32  and  C_36
   12  A    between atoms: N_39  and  C_40
                            x       y       z     vdW  Elec       q    Type
                         _______ _______ _______ _____ _____    ______ ____

>  <TORSDO>
F 12

$$$$
=
 OpenBabel11062413133D

 42 46  0  0  1  0  0  0  0  0999 V2000
  187.4820  177.8520  138.9850 C   0  0  0  0  0  0  0  0  0  0  0  0
  186.0090  177.4480  136.6380 N   0  0  0  0  0  0  0  0  0  0  0  0
  187.1590  176.8610  136.7460 C   0  0  0  0  0  0  0  0  0  0  0  0
  186.2520  178.3780  138.8870 C   0  0  0  0  0  3  0  0  0  0  0  0
  185.2930  177.8820  137.8350 C   0  0  0  0  0  2  0  0  0  0  0  0
  189.3270  176.4040  136.0750 N   0  0  0  0  0  2  0  0  0  0  0  0
  189.3570  176.8260  137.4920 C   0  0  2  0  0  0  0  0  0  0  0  0
  187.9030  176.7690  138.0140 C   0  0  1  0  0  3  0  0  0  0  0  0
  188.0050  176.6320  135.6490 N   0  0  0  0  0  2  0  0  0  0  0  0
  189.8610  178.1290  137.5660 O   0  0  0  0  0  1  0  0  0  0  0  0
  188.3710  178.2340  140.0420 N   0  0  0  0  0  2  0  0  0  0  0  0
  188.5620  177.4730  141.2750 C   0  0  0  0  0  2  0  0  0  0  0  0
  190.8630  177.9270  140.7630 O   0  0  0  0  0  1  0  0  0  0  0  0
  189.9770  177.6560  141.8100 C   0  0  2  0  0  3  0  0  0  0  0  0
  191.6660  176.6600  143.5080 C   0  0  0  0  0  2  0  0  0  0  0  0
  189.1560  176.7830  144.8490 C   0  0  2  0  0  3  0  0  0  0  0  0
  191.4170  177.5570  144.5640 O   0  0  0  0  0  0  0  0  0  0  0  0
  190.4000  176.4500  142.6560 C   0  0  1  0  0  3  0  0  0  0  0  0
  190.5540  176.9010  145.4580 C   0  0  0  0  0  2  0  0  0  0  0  0
  189.2450  175.9850  143.5410 C   0  0  0  0  0  2  0  0  0  0  0  0
  188.6150  178.1100  144.6060 N   0  0  0  0  0  2  0  0  0  0  0  0
  187.2790  178.1630  145.1790 C   0  0  2  0  0  3  0  0  0  0  0  0
  187.2340  177.3420  146.3030 O   0  0  0  0  0  1  0  0  0  0  0  0
  186.3080  177.6940  144.2020 N   0  0  0  0  0  2  0  0  0  0  0  0
  183.7030  178.5860  142.2640 C   0  0  0  0  0  0  0  0  0  0  0  0
  182.9980  178.7800  143.5110 C   0  0  0  0  0  0  0  0  0  0  0  0
  183.0320  178.3840  140.9520 C   0  0  0  0  0  1  0  0  0  0  0  0
  185.0130  178.6230  142.3920 C   0  0  0  0  0  3  0  0  0  0  0  0
  184.0700  179.0280  144.9080 S   0  0  0  0  0  0  0  0  0  0  0  0
  181.7390  178.7830  143.6070 O   0  0  0  0  0  0  0  0  0  0  0  0
  185.5130  178.8410  143.7880 C   0  0  1  0  0  3  0  0  0  0  0  0
  190.2270  175.8710  138.3100 C   0  0  0  0  0  2  0  0  0  0  0  0
  192.0750  174.8340  136.9310 N   0  0  0  0  0  2  0  0  0  0  0  0
  190.0680  173.7090  137.3200 O   0  0  0  0  0  0  0  0  0  0  0  0
  190.7610  174.7470  137.4820 C   0  0  0  0  0  0  0  0  0  0  0  0
  193.7880  174.2330  135.3170 C   0  0  0  0  0  2  0  0  0  0  0  0
  192.6940  173.7160  136.2250 C   0  0  1  0  0  3  0  0  0  0  0  0
  194.1670  173.5280  136.6010 C   0  0  2  0  0  3  0  0  0  0  0  0
  195.6290  172.9270  138.9790 O   0  0  0  0  0  0  0  0  0  0  0  0
  194.6160  174.5090  137.5850 N   0  0  0  0  0  2  0  0  0  0  0  0
  195.3700  174.1370  138.7400 C   0  0  0  0  0  0  0  0  0  0  0  0
  195.8190  175.1440  139.6400 N   0  0  0  0  0  1  0  0  0  0  0  0
  1 11  1  0  0  0  0
  2  3  2  0  0  0  0
  2  5  1  0  0  0  0
  4  1  2  0  0  0  0
  5  4  1  0  0  0  0
  6  7  1  0  0  0  0
  7 10  1  1  0  0  0
  7  8  1  0  0  0  0
  7 32  1  0  0  0  0
  8  3  1  6  0  0  0
  8  1  1  0  0  0  0
  9  6  1  0  0  0  0
  9  3  1  0  0  0  0
 11 12  1  0  0  0  0
 12 14  1  0  0  0  0
 14 13  1  6  0  0  0
 15 17  1  0  0  0  0
 16 21  1  6  0  0  0
 16 19  1  0  0  0  0
 17 19  1  0  0  0  0
 18 14  1  1  0  0  0
 18 15  1  0  0  0  0
 18 20  1  0  0  0  0
 20 16  1  0  0  0  0
 21 22  1  0  0  0  0
 22 23  1  1  0  0  0
 24 22  1  0  0  0  0
 25 28  2  0  0  0  0
 25 26  1  0  0  0  0
 26 30  2  0  0  0  0
 26 29  1  0  0  0  0
 27 25  1  0  0  0  0
 28 31  1  0  0  0  0
 31 24  1  1  0  0  0
 31 29  1  0  0  0  0
 33 35  1  0  0  0  0
 34 35  2  0  0  0  0
 35 32  1  0  0  0  0
 36 37  1  0  0  0  0
 36 38  1  0  0  0  0
 37 38  1  0  0  0  0
 37 33  1  1  0  0  0
 38 40  1  1  0  0  0
 40 41  1  0  0  0  0
 41 39  2  0  0  0  0
 41 42  1  0  0  0  0
M  END
>  <MODEL>
2

>  <REMARK>
 VINA RESULT:      -7.7      2.838      6.397
  Name = 
  12 active torsions:
  status: ('A' for Active; 'I' for Inactive)
    1  A    between atoms: N_1  and  C_33
    2  A    between atoms: C_3  and  N_4
    3  A    between atoms: N_4  and  C_9
    4  A    between atoms: C_9  and  C_29
    5  A    between atoms: C_11  and  N_25
    6  A    between atoms: C_13  and  N_25
    7  A    between atoms: C_13  and  N_39
    8  A    between atoms: C_15  and  C_29
    9  A    between atoms: N_16  and  C_42
   10  A    between atoms: C_24  and  C_32
   11  A    between atoms: C_32  and  C_36
   12  A    between atoms: N_39  and  C_40
                            x       y       z     vdW  Elec       q    Type
                         _______ _______ _______ _____ _____    ______ ____

>  <TORSDO>
F 12

$$$$
=
 OpenBabel11062413133D

 42 46  0  0  1  0  0  0  0  0999 V2000
  185.1860  178.7900  141.6960 C   0  0  0  0  0  0  0  0  0  0  0  0
  182.6040  178.9790  142.7650 N   0  0  0  0  0  0  0  0  0  0  0  0
  182.7270  178.6370  141.5210 C   0  0  0  0  0  0  0  0  0  0  0  0
  185.0370  179.0560  143.0030 C   0  0  0  0  0  3  0  0  0  0  0  0
  183.7200  178.7940  143.6890 C   0  0  0  0  0  2  0  0  0  0  0  0
  182.3620  178.9020  139.2510 N   0  0  0  0  0  2  0  0  0  0  0  0
  183.8180  178.7770  139.4770 C   0  0  2  0  0  0  0  0  0  0  0  0
  184.0100  178.2420  140.9150 C   0  0  1  0  0  3  0  0  0  0  0  0
  181.7950  178.9980  140.5350 N   0  0  0  0  0  2  0  0  0  0  0  0
  184.4090  180.0370  139.3320 O   0  0  0  0  0  1  0  0  0  0  0  0
  186.4560  178.9310  141.0500 N   0  0  0  0  0  2  0  0  0  0  0  0
  187.6930  178.3040  141.5110 C   0  0  0  0  0  2  0  0  0  0  0  0
  188.2620  178.9430  139.2690 O   0  0  0  0  0  1  0  0  0  0  0  0
  188.7820  178.4080  140.4510 C   0  0  2  0  0  3  0  0  0  0  0  0
  190.7120  177.0880  139.3300 C   0  0  0  0  0  2  0  0  0  0  0  0
  191.1690  176.9480  142.1380 C   0  0  2  0  0  3  0  0  0  0  0  0
  191.7810  177.7550  139.9550 O   0  0  0  0  0  0  0  0  0  0  0  0
  189.4730  177.0570  140.2450 C   0  0  1  0  0  3  0  0  0  0  0  0
  192.2060  176.9370  141.0150 C   0  0  0  0  0  2  0  0  0  0  0  0
  189.8330  176.4280  141.5910 C   0  0  0  0  0  2  0  0  0  0  0  0
  191.0210  178.2990  142.6540 N   0  0  0  0  0  2  0  0  0  0  0  0
  191.3760  178.2830  144.0650 C   0  0  2  0  0  3  0  0  0  0  0  0
  191.6870  176.9780  144.4400 O   0  0  0  0  0  1  0  0  0  0  0  0
  190.2510  178.7560  144.8580 N   0  0  0  0  0  2  0  0  0  0  0  0
  188.2790  177.8020  147.4160 C   0  0  0  0  0  0  0  0  0  0  0  0
  187.2690  177.5990  146.4020 C   0  0  0  0  0  0  0  0  0  0  0  0
  187.9810  177.9850  148.8620 C   0  0  0  0  0  1  0  0  0  0  0  0
  189.5080  177.7930  146.9400 C   0  0  0  0  0  3  0  0  0  0  0  0
  187.9310  177.3790  144.7660 S   0  0  0  0  0  0  0  0  0  0  0  0
  186.0310  177.5700  146.6470 O   0  0  0  0  0  0  0  0  0  0  0  0
  189.6180  177.5910  145.4590 C   0  0  1  0  0  3  0  0  0  0  0  0
  184.4250  177.7870  138.4830 C   0  0  0  0  0  2  0  0  0  0  0  0
  183.1450  176.3660  136.8280 N   0  0  0  0  0  2  0  0  0  0  0  0
  183.0770  175.9260  139.1190 O   0  0  0  0  0  0  0  0  0  0  0  0
  183.4990  176.6530  138.1810 C   0  0  0  0  0  0  0  0  0  0  0  0
  182.5640  174.8690  135.0050 C   0  0  0  0  0  2  0  0  0  0  0  0
  182.3500  175.1960  136.4670 C   0  0  1  0  0  3  0  0  0  0  0  0
  183.2170  174.0010  136.0590 C   0  0  2  0  0  3  0  0  0  0  0  0
  185.0400  172.9160  137.9700 O   0  0  0  0  0  0  0  0  0  0  0  0
  184.6440  174.3030  136.1280 N   0  0  0  0  0  2  0  0  0  0  0  0
  185.5030  173.6990  137.0970 C   0  0  0  0  0  0  0  0  0  0  0  0
  186.8940  173.9990  137.0860 N   0  0  0  0  0  1  0  0  0  0  0  0
  1  4  2  0  0  0  0
  2  5  1  0  0  0  0
  3  2  2  0  0  0  0
  4  5  1  0  0  0  0
  6  7  1  0  0  0  0
  6  9  1  0  0  0  0
  7 10  1  6  0  0  0
  7  8  1  0  0  0  0
  8  3  1  1  0  0  0
  8  1  1  0  0  0  0
  9  3  1  0  0  0  0
 11 12  1  0  0  0  0
 11  1  1  0  0  0  0
 14 13  1  6  0  0  0
 14 12  1  0  0  0  0
 15 17  1  0  0  0  0
 15 18  1  0  0  0  0
 16 21  1  6  0  0  0
 17 19  1  0  0  0  0
 18 14  1  1  0  0  0
 18 20  1  0  0  0  0
 19 16  1  0  0  0  0
 20 16  1  0  0  0  0
 21 22  1  0  0  0  0
 22 23  1  1  0  0  0
 22 24  1  0  0  0  0
 25 27  1  0  0  0  0
 26 30  2  0  0  0  0
 26 25  1  0  0  0  0
 28 25  2  0  0  0  0
 29 31  1  0  0  0  0
 29 26  1  0  0  0  0
 31 24  1  6  0  0  0
 31 28  1  0  0  0  0
 32  7  1  0  0  0  0
 33 35  1  0  0  0  0
 35 32  1  0  0  0  0
 35 34  2  0  0  0  0
 36 38  1  0  0  0  0
 36 37  1  0  0  0  0
 37 33  1  6  0  0  0
 38 40  1  6  0  0  0
 38 37  1  0  0  0  0
 40 41  1  0  0  0  0
 41 39  2  0  0  0  0
 42 41  1  0  0  0  0
M  END
>  <MODEL>
3

>  <REMARK>
 VINA RESULT:      -7.6      2.480      8.113
  Name = 
  12 active torsions:
  status: ('A' for Active; 'I' for Inactive)
    1  A    between atoms: N_1  and  C_33
    2  A    between atoms: C_3  and  N_4
    3  A    between atoms: N_4  and  C_9
    4  A    between atoms: C_9  and  C_29
    5  A    between atoms: C_11  and  N_25
    6  A    between atoms: C_13  and  N_25
    7  A    between atoms: C_13  and  N_39
    8  A    between atoms: C_15  and  C_29
    9  A    between atoms: N_16  and  C_42
   10  A    between atoms: C_24  and  C_32
   11  A    between atoms: C_32  and  C_36
   12  A    between atoms: N_39  and  C_40
                            x       y       z     vdW  Elec       q    Type
                         _______ _______ _______ _____ _____    ______ ____

>  <TORSDO>
F 12

$$$$
=
 OpenBabel11062413133D

 42 46  0  0  1  0  0  0  0  0999 V2000
  185.1380  178.8070  141.3790 C   0  0  0  0  0  0  0  0  0  0  0  0
  182.4000  178.8060  141.9610 N   0  0  0  0  0  0  0  0  0  0  0  0
  182.7680  178.5000  140.7580 C   0  0  0  0  0  0  0  0  0  0  0  0
  184.7380  179.0340  142.6390 C   0  0  0  0  0  3  0  0  0  0  0  0
  183.3400  178.6740  143.0710 C   0  0  0  0  0  2  0  0  0  0  0  0
  182.8030  178.7900  138.4620 N   0  0  0  0  0  2  0  0  0  0  0  0
  184.1990  178.7530  138.9480 C   0  0  2  0  0  0  0  0  0  0  0  0
  184.1630  178.2020  140.3910 C   0  0  1  0  0  3  0  0  0  0  0  0
  182.0080  178.8210  139.6220 N   0  0  0  0  0  2  0  0  0  0  0  0
  184.7210  180.0520  138.9240 O   0  0  0  0  0  1  0  0  0  0  0  0
  186.4930  179.0440  140.9760 N   0  0  0  0  0  2  0  0  0  0  0  0
  187.6340  178.2340  141.3970 C   0  0  0  0  0  2  0  0  0  0  0  0
  188.3390  178.9220  139.2080 O   0  0  0  0  0  1  0  0  0  0  0  0
  188.7880  178.3700  140.4110 C   0  0  2  0  0  3  0  0  0  0  0  0
  190.7680  177.0810  139.3430 C   0  0  0  0  0  2  0  0  0  0  0  0
  191.1560  176.9540  142.1610 C   0  0  2  0  0  3  0  0  0  0  0  0
  191.8100  177.7690  139.9930 O   0  0  0  0  0  0  0  0  0  0  0  0
  189.5070  177.0310  140.2260 C   0  0  1  0  0  3  0  0  0  0  0  0
  192.2210  176.9600  141.0650 C   0  0  0  0  0  2  0  0  0  0  0  0
  189.8430  176.4100  141.5810 C   0  0  0  0  0  2  0  0  0  0  0  0
  190.9710  178.3030  142.6710 N   0  0  0  0  0  2  0  0  0  0  0  0
  191.3630  178.3120  144.0730 C   0  0  2  0  0  3  0  0  0  0  0  0
  191.6980  177.0170  144.4580 O   0  0  0  0  0  1  0  0  0  0  0  0
  190.2540  178.7850  144.8880 N   0  0  0  0  0  2  0  0  0  0  0  0
  188.2540  177.7760  147.4010 C   0  0  0  0  0  0  0  0  0  0  0  0
  187.2340  177.6650  146.3830 C   0  0  0  0  0  0  0  0  0  0  0  0
  187.9680  177.8940  148.8560 C   0  0  0  0  0  1  0  0  0  0  0  0
  189.4800  177.7440  146.9200 C   0  0  0  0  0  3  0  0  0  0  0  0
  187.8830  177.5050  144.7350 S   0  0  0  0  0  0  0  0  0  0  0  0
  185.9970  177.6700  146.6320 O   0  0  0  0  0  0  0  0  0  0  0  0
  189.5790  177.6160  145.4300 C   0  0  1  0  0  3  0  0  0  0  0  0
  185.0410  177.8260  138.0710 C   0  0  0  0  0  2  0  0  0  0  0  0
  183.5450  175.8690  137.5020 N   0  0  0  0  0  2  0  0  0  0  0  0
  184.0510  177.5130  135.9260 O   0  0  0  0  0  0  0  0  0  0  0  0
  184.2060  177.0650  137.0920 C   0  0  0  0  0  0  0  0  0  0  0  0
  182.1970  173.8600  137.2810 C   0  0  0  0  0  2  0  0  0  0  0  0
  182.6180  175.1570  136.6270 C   0  0  1  0  0  3  0  0  0  0  0  0
  181.2220  175.0160  137.2420 C   0  0  2  0  0  3  0  0  0  0  0  0
  178.9310  174.9470  138.9440 O   0  0  0  0  0  0  0  0  0  0  0  0
  181.1350  175.6300  138.5640 N   0  0  0  0  0  2  0  0  0  0  0  0
  179.9620  175.5310  139.3730 C   0  0  0  0  0  0  0  0  0  0  0  0
  179.9540  176.1120  140.6720 N   0  0  0  0  0  1  0  0  0  0  0  0
  1  4  2  0  0  0  0
  2  5  1  0  0  0  0
  3  2  2  0  0  0  0
  4  5  1  0  0  0  0
  6  7  1  0  0  0  0
  6  9  1  0  0  0  0
  7 10  1  6  0  0  0
  7  8  1  0  0  0  0
  8  3  1  1  0  0  0
  8  1  1  0  0  0  0
  9  3  1  0  0  0  0
 11  1  1  0  0  0  0
 11 12  1  0  0  0  0
 14 13  1  6  0  0  0
 14 12  1  0  0  0  0
 15 17  1  0  0  0  0
 15 18  1  0  0  0  0
 16 21  1  6  0  0  0
 17 19  1  0  0  0  0
 18 14  1  1  0  0  0
 18 20  1  0  0  0  0
 19 16  1  0  0  0  0
 20 16  1  0  0  0  0
 21 22  1  0  0  0  0
 22 23  1  1  0  0  0
 22 24  1  0  0  0  0
 25 27  1  0  0  0  0
 26 30  2  0  0  0  0
 26 25  1  0  0  0  0
 28 25  2  0  0  0  0
 29 31  1  0  0  0  0
 29 26  1  0  0  0  0
 31 24  1  6  0  0  0
 31 28  1  0  0  0  0
 32  7  1  0  0  0  0
 34 35  2  0  0  0  0
 35 33  1  0  0  0  0
 35 32  1  0  0  0  0
 37 38  1  0  0  0  0
 37 36  1  0  0  0  0
 37 33  1  1  0  0  0
 38 36  1  0  0  0  0
 38 40  1  1  0  0  0
 39 41  2  0  0  0  0
 40 41  1  0  0  0  0
 41 42  1  0  0  0  0
M  END
>  <MODEL>
4

>  <REMARK>
 VINA RESULT:      -7.5      2.708      8.395
  Name = 
  12 active torsions:
  status: ('A' for Active; 'I' for Inactive)
    1  A    between atoms: N_1  and  C_33
    2  A    between atoms: C_3  and  N_4
    3  A    between atoms: N_4  and  C_9
    4  A    between atoms: C_9  and  C_29
    5  A    between atoms: C_11  and  N_25
    6  A    between atoms: C_13  and  N_25
    7  A    between atoms: C_13  and  N_39
    8  A    between atoms: C_15  and  C_29
    9  A    between atoms: N_16  and  C_42
   10  A    between atoms: C_24  and  C_32
   11  A    between atoms: C_32  and  C_36
   12  A    between atoms: N_39  and  C_40
                            x       y       z     vdW  Elec       q    Type
                         _______ _______ _______ _____ _____    ______ ____

>  <TORSDO>
F 12

$$$$
=
 OpenBabel11062413133D

 42 46  0  0  1  0  0  0  0  0999 V2000
  184.9500  178.8390  142.2470 C   0  0  0  0  0  0  0  0  0  0  0  0
  182.5090  179.4440  143.4760 N   0  0  0  0  0  0  0  0  0  0  0  0
  182.4820  178.8440  142.3280 C   0  0  0  0  0  0  0  0  0  0  0  0
  184.9530  179.3800  143.4740 C   0  0  0  0  0  3  0  0  0  0  0  0
  183.7020  179.3690  144.3150 C   0  0  0  0  0  2  0  0  0  0  0  0
  181.9000  178.6600  140.0950 N   0  0  0  0  0  2  0  0  0  0  0  0
  183.3620  178.4730  140.2120 C   0  0  2  0  0  0  0  0  0  0  0  0
  183.6710  178.2340  141.7080 C   0  0  1  0  0  3  0  0  0  0  0  0
  181.4750  179.0630  141.3750 N   0  0  0  0  0  2  0  0  0  0  0  0
  184.0060  179.6260  139.7490 O   0  0  0  0  0  1  0  0  0  0  0  0
  186.1540  178.7460  141.4740 N   0  0  0  0  0  2  0  0  0  0  0  0
  187.3440  178.0040  141.8850 C   0  0  0  0  0  2  0  0  0  0  0  0
  188.0750  179.0030  139.8280 O   0  0  0  0  0  1  0  0  0  0  0  0
  188.5130  178.2950  140.9520 C   0  0  2  0  0  3  0  0  0  0  0  0
  190.3800  177.1670  139.5500 C   0  0  0  0  0  2  0  0  0  0  0  0
  191.1670  176.9270  142.2770 C   0  0  2  0  0  3  0  0  0  0  0  0
  191.4700  177.8770  140.0870 O   0  0  0  0  0  0  0  0  0  0  0  0
  189.2600  177.0070  140.5960 C   0  0  1  0  0  3  0  0  0  0  0  0
  192.0660  177.0410  141.0450 C   0  0  0  0  0  2  0  0  0  0  0  0
  189.8130  176.3410  141.8550 C   0  0  0  0  0  2  0  0  0  0  0  0
  190.9940  178.2380  142.8800 N   0  0  0  0  0  2  0  0  0  0  0  0
  191.4050  178.1500  144.2730 C   0  0  2  0  0  3  0  0  0  0  0  0
  191.6410  176.8160  144.5930 O   0  0  0  0  0  1  0  0  0  0  0  0
  190.3490  178.6700  145.1290 N   0  0  0  0  0  2  0  0  0  0  0  0
  188.2460  177.7490  147.5910 C   0  0  0  0  0  0  0  0  0  0  0  0
  187.2460  177.6870  146.5480 C   0  0  0  0  0  0  0  0  0  0  0  0
  187.9310  177.8770  149.0390 C   0  0  0  0  0  1  0  0  0  0  0  0
  189.4800  177.6620  147.1390 C   0  0  0  0  0  3  0  0  0  0  0  0
  187.9250  177.5010  144.9160 S   0  0  0  0  0  0  0  0  0  0  0  0
  186.0050  177.7490  146.7690 O   0  0  0  0  0  0  0  0  0  0  0  0
  189.6080  177.5320  145.6510 C   0  0  1  0  0  3  0  0  0  0  0  0
  183.8060  177.2550  139.4030 C   0  0  0  0  0  2  0  0  0  0  0  0
  185.7940  177.6730  137.8970 N   0  0  0  0  0  2  0  0  0  0  0  0
  183.6060  177.8790  137.1110 O   0  0  0  0  0  0  0  0  0  0  0  0
  184.3780  177.6380  138.0760 C   0  0  0  0  0  0  0  0  0  0  0  0
  187.9060  177.7710  136.7010 C   0  0  0  0  0  2  0  0  0  0  0  0
  186.4040  177.9160  136.5930 C   0  0  1  0  0  3  0  0  0  0  0  0
  187.1060  176.6730  136.0340 C   0  0  2  0  0  3  0  0  0  0  0  0
  185.2930  174.4910  135.7160 O   0  0  0  0  0  0  0  0  0  0  0  0
  187.0010  175.5270  136.9320 N   0  0  0  0  0  2  0  0  0  0  0  0
  186.0870  174.4550  136.6940 C   0  0  0  0  0  0  0  0  0  0  0  0
  186.0640  173.3430  137.5810 N   0  0  0  0  0  1  0  0  0  0  0  0
  1  4  2  0  0  0  0
  2  5  1  0  0  0  0
  3  2  2  0  0  0  0
  4  5  1  0  0  0  0
  6  7  1  0  0  0  0
  6  9  1  0  0  0  0
  7 10  1  6  0  0  0
  7  8  1  0  0  0  0
  8  1  1  1  0  0  0
  8  3  1  0  0  0  0
  9  3  1  0  0  0  0
 11 12  1  0  0  0  0
 11  1  1  0  0  0  0
 14 13  1  6  0  0  0
 14 12  1  0  0  0  0
 15 17  1  0  0  0  0
 15 18  1  0  0  0  0
 16 21  1  6  0  0  0
 17 19  1  0  0  0  0
 18 14  1  1  0  0  0
 18 20  1  0  0  0  0
 19 16  1  0  0  0  0
 20 16  1  0  0  0  0
 21 22  1  0  0  0  0
 22 23  1  1  0  0  0
 22 24  1  0  0  0  0
 25 27  1  0  0  0  0
 26 30  2  0  0  0  0
 26 25  1  0  0  0  0
 28 25  2  0  0  0  0
 29 31  1  0  0  0  0
 29 26  1  0  0  0  0
 31 24  1  6  0  0  0
 31 28  1  0  0  0  0
 32  7  1  0  0  0  0
 33 35  1  0  0  0  0
 34 35  2  0  0  0  0
 35 32  1  0  0  0  0
 37 36  1  0  0  0  0
 37 33  1  1  0  0  0
 38 37  1  0  0  0  0
 38 36  1  0  0  0  0
 38 40  1  1  0  0  0
 39 41  2  0  0  0  0
 41 40  1  0  0  0  0
 41 42  1  0  0  0  0
M  END
>  <MODEL>
5

>  <REMARK>
 VINA RESULT:      -7.5      2.281      7.873
  Name = 
  12 active torsions:
  status: ('A' for Active; 'I' for Inactive)
    1  A    between atoms: N_1  and  C_33
    2  A    between atoms: C_3  and  N_4
    3  A    between atoms: N_4  and  C_9
    4  A    between atoms: C_9  and  C_29
    5  A    between atoms: C_11  and  N_25
    6  A    between atoms: C_13  and  N_25
    7  A    between atoms: C_13  and  N_39
    8  A    between atoms: C_15  and  C_29
    9  A    between atoms: N_16  and  C_42
   10  A    between atoms: C_24  and  C_32
   11  A    between atoms: C_32  and  C_36
   12  A    between atoms: N_39  and  C_40
                            x       y       z     vdW  Elec       q    Type
                         _______ _______ _______ _____ _____    ______ ____

>  <TORSDO>
F 12

$$$$
=
 OpenBabel11062413133D

 42 46  0  0  1  0  0  0  0  0999 V2000
  185.4380  178.7540  141.8140 C   0  0  0  0  0  0  0  0  0  0  0  0
  182.6540  178.7290  141.5230 N   0  0  0  0  0  0  0  0  0  0  0  0
  183.1430  179.0000  142.6920 C   0  0  0  0  0  0  0  0  0  0  0  0
  184.9100  178.5630  140.5960 C   0  0  0  0  0  3  0  0  0  0  0  0
  183.4690  178.9140  140.3260 C   0  0  0  0  0  2  0  0  0  0  0  0
  183.4260  178.6330  144.9600 N   0  0  0  0  0  2  0  0  0  0  0  0
  184.7610  178.7100  144.3300 C   0  0  2  0  0  0  0  0  0  0  0  0
  184.5650  179.3090  142.9190 C   0  0  1  0  0  3  0  0  0  0  0  0
  182.5120  178.6290  143.8890 N   0  0  0  0  0  2  0  0  0  0  0  0
  185.3000  177.4200  144.2530 O   0  0  0  0  0  1  0  0  0  0  0  0
  186.8310  178.5260  142.0630 N   0  0  0  0  0  2  0  0  0  0  0  0
  187.8990  178.8200  141.1100 C   0  0  0  0  0  2  0  0  0  0  0  0
  188.9750  176.8200  141.8910 O   0  0  0  0  0  1  0  0  0  0  0  0
  188.6600  177.5520  140.7420 C   0  0  2  0  0  3  0  0  0  0  0  0
  190.9280  176.7530  139.7720 C   0  0  0  0  0  2  0  0  0  0  0  0
  189.2040  177.1650  137.5430 C   0  0  2  0  0  3  0  0  0  0  0  0
  190.4330  175.6900  138.9940 O   0  0  0  0  0  0  0  0  0  0  0  0
  189.8870  177.8820  139.8860 C   0  0  1  0  0  3  0  0  0  0  0  0
  190.3490  176.1600  137.6730 C   0  0  0  0  0  2  0  0  0  0  0  0
  189.4610  178.3430  138.4930 C   0  0  0  0  0  2  0  0  0  0  0  0
  187.9430  176.5140  137.8630 N   0  0  0  0  0  2  0  0  0  0  0  0
  186.9560  176.9380  136.8810 C   0  0  2  0  0  3  0  0  0  0  0  0
  185.8730  177.5100  137.5440 O   0  0  0  0  0  1  0  0  0  0  0  0
  186.5000  175.7860  136.1180 N   0  0  0  0  0  2  0  0  0  0  0  0
  185.2750  172.7070  136.7110 C   0  0  0  0  0  0  0  0  0  0  0  0
  186.4910  172.2350  136.0870 C   0  0  0  0  0  0  0  0  0  0  0  0
  184.0390  171.8900  136.8480 C   0  0  0  0  0  1  0  0  0  0  0  0
  185.3650  173.9380  137.1710 C   0  0  0  0  0  3  0  0  0  0  0  0
  187.8100  173.4260  136.1010 S   0  0  0  0  0  0  0  0  0  0  0  0
  186.6150  171.0840  135.5860 O   0  0  0  0  0  0  0  0  0  0  0  0
  186.6880  174.6070  136.9490 C   0  0  1  0  0  3  0  0  0  0  0  0
  185.6790  179.6200  145.1450 C   0  0  0  0  0  2  0  0  0  0  0  0
  187.4570  178.4360  146.4990 N   0  0  0  0  0  2  0  0  0  0  0  0
  185.3710  178.9480  147.4110 O   0  0  0  0  0  0  0  0  0  0  0  0
  186.1370  178.9720  146.4120 C   0  0  0  0  0  0  0  0  0  0  0  0
  188.2700  176.4270  147.5960 C   0  0  0  0  0  2  0  0  0  0  0  0
  187.9980  177.9070  147.7470 C   0  0  1  0  0  3  0  0  0  0  0  0
  189.4340  177.3950  147.5930 C   0  0  2  0  0  3  0  0  0  0  0  0
  192.0360  176.6370  146.6960 O   0  0  0  0  0  0  0  0  0  0  0  0
  189.9360  177.5550  146.2310 N   0  0  0  0  0  2  0  0  0  0  0  0
  191.2430  177.1260  145.8470 C   0  0  0  0  0  0  0  0  0  0  0  0
  191.6580  177.2680  144.4940 N   0  0  0  0  0  1  0  0  0  0  0  0
  1 11  1  0  0  0  0
  2  3  2  0  0  0  0
  3  8  1  0  0  0  0
  3  9  1  0  0  0  0
  4  1  2  0  0  0  0
  5  4  1  0  0  0  0
  5  2  1  0  0  0  0
  7 10  1  6  0  0  0
  7  6  1  0  0  0  0
  7 32  1  0  0  0  0
  8  1  1  6  0  0  0
  8  7  1  0  0  0  0
  9  6  1  0  0  0  0
 12 11  1  0  0  0  0
 14 12  1  0  0  0  0
 14 13  1  1  0  0  0
 15 18  1  0  0  0  0
 16 19  1  0  0  0  0
 16 21  1  1  0  0  0
 16 20  1  0  0  0  0
 17 15  1  0  0  0  0
 18 14  1  1  0  0  0
 19 17  1  0  0  0  0
 20 18  1  0  0  0  0
 22 23  1  1  0  0  0
 22 21  1  0  0  0  0
 24 22  1  0  0  0  0
 25 27  1  0  0  0  0
 25 28  2  0  0  0  0
 26 29  1  0  0  0  0
 26 25  1  0  0  0  0
 29 31  1  0  0  0  0
 30 26  2  0  0  0  0
 31 24  1  6  0  0  0
 31 28  1  0  0  0  0
 32 35  1  0  0  0  0
 35 33  1  0  0  0  0
 35 34  2  0  0  0  0
 36 37  1  0  0  0  0
 37 33  1  6  0  0  0
 38 40  1  6  0  0  0
 38 36  1  0  0  0  0
 38 37  1  0  0  0  0
 41 40  1  0  0  0  0
 41 39  2  0  0  0  0
 42 41  1  0  0  0  0
M  END
>  <MODEL>
6

>  <REMARK>
 VINA RESULT:      -7.4      2.846      7.225
  Name = 
  12 active torsions:
  status: ('A' for Active; 'I' for Inactive)
    1  A    between atoms: N_1  and  C_33
    2  A    between atoms: C_3  and  N_4
    3  A    between atoms: N_4  and  C_9
    4  A    between atoms: C_9  and  C_29
    5  A    between atoms: C_11  and  N_25
    6  A    between atoms: C_13  and  N_25
    7  A    between atoms: C_13  and  N_39
    8  A    between atoms: C_15  and  C_29
    9  A    between atoms: N_16  and  C_42
   10  A    between atoms: C_24  and  C_32
   11  A    between atoms: C_32  and  C_36
   12  A    between atoms: N_39  and  C_40
                            x       y       z     vdW  Elec       q    Type
                         _______ _______ _______ _____ _____    ______ ____

>  <TORSDO>
F 12

$$$$
=
 OpenBabel11062413133D

 42 46  0  0  1  0  0  0  0  0999 V2000
  186.5120  178.0790  144.1970 C   0  0  0  0  0  0  0  0  0  0  0  0
  187.5640  177.6820  146.7610 N   0  0  0  0  0  0  0  0  0  0  0  0
  188.3920  177.7760  145.7700 C   0  0  0  0  0  0  0  0  0  0  0  0
  185.6810  178.0670  145.2490 C   0  0  0  0  0  3  0  0  0  0  0  0
  186.2180  178.2380  146.6470 C   0  0  0  0  0  2  0  0  0  0  0  0
  190.0820  176.9910  144.3960 N   0  0  0  0  0  2  0  0  0  0  0  0
  188.9440  177.4040  143.5460 C   0  0  2  0  0  0  0  0  0  0  0  0
  187.9990  178.2480  144.4310 C   0  0  1  0  0  3  0  0  0  0  0  0
  189.6030  177.0680  145.7170 N   0  0  0  0  0  2  0  0  0  0  0  0
  188.2930  176.2590  143.0730 O   0  0  0  0  0  1  0  0  0  0  0  0
  186.0120  178.0240  142.8550 N   0  0  0  0  0  2  0  0  0  0  0  0
  184.6330  178.3190  142.4750 C   0  0  0  0  0  2  0  0  0  0  0  0
  185.0020  179.7380  140.5750 O   0  0  0  0  0  1  0  0  0  0  0  0
  184.5110  178.4890  140.9660 C   0  0  2  0  0  3  0  0  0  0  0  0
  182.4370  179.3850  139.6930 C   0  0  0  0  0  2  0  0  0  0  0  0
  183.3510  177.1130  138.2390 C   0  0  2  0  0  3  0  0  0  0  0  0
  183.0300  179.4910  138.4220 O   0  0  0  0  0  0  0  0  0  0  0  0
  183.0730  178.2390  140.5030 C   0  0  1  0  0  3  0  0  0  0  0  0
  182.6410  178.3530  137.6960 C   0  0  0  0  0  2  0  0  0  0  0  0
  182.9820  176.9310  139.7180 C   0  0  0  0  0  2  0  0  0  0  0  0
  184.7890  177.2650  138.0840 N   0  0  0  0  0  2  0  0  0  0  0  0
  185.2150  176.4150  136.9830 C   0  0  2  0  0  3  0  0  0  0  0  0
  185.1670  177.1480  135.8000 O   0  0  0  0  0  1  0  0  0  0  0  0
  184.3230  175.2700  136.8750 N   0  0  0  0  0  2  0  0  0  0  0  0
  184.4400  171.9310  136.4560 C   0  0  0  0  0  0  0  0  0  0  0  0
  185.5970  172.1970  135.6300 C   0  0  0  0  0  0  0  0  0  0  0  0
  183.6370  170.6810  136.3860 C   0  0  0  0  0  1  0  0  0  0  0  0
  184.1670  172.9020  137.3030 C   0  0  0  0  0  3  0  0  0  0  0  0
  186.3690  173.7630  135.9640 S   0  0  0  0  0  0  0  0  0  0  0  0
  186.0290  171.3950  134.7570 O   0  0  0  0  0  0  0  0  0  0  0  0
  185.0860  174.0850  137.2380 C   0  0  1  0  0  3  0  0  0  0  0  0
  189.4390  178.2560  142.3770 C   0  0  0  0  0  2  0  0  0  0  0  0
  189.7930  177.2040  140.1050 N   0  0  0  0  0  2  0  0  0  0  0  0
  191.4260  177.0890  141.7680 O   0  0  0  0  0  0  0  0  0  0  0  0
  190.2770  177.4690  141.4210 C   0  0  0  0  0  0  0  0  0  0  0  0
  189.7320  175.8520  138.0870 C   0  0  0  0  0  2  0  0  0  0  0  0
  190.6190  176.5530  139.0930 C   0  0  1  0  0  3  0  0  0  0  0  0
  190.4110  177.1470  137.6960 C   0  0  2  0  0  3  0  0  0  0  0  0
  188.4830  177.6310  135.6460 O   0  0  0  0  0  0  0  0  0  0  0  0
  189.4350  178.2330  137.6960 N   0  0  0  0  0  2  0  0  0  0  0  0
  188.4800  178.3980  136.6470 C   0  0  0  0  0  0  0  0  0  0  0  0
  187.5250  179.4490  136.7260 N   0  0  0  0  0  1  0  0  0  0  0  0
  1  4  2  0  0  0  0
  3  2  2  0  0  0  0
  4  5  1  0  0  0  0
  5  2  1  0  0  0  0
  6  9  1  0  0  0  0
  7 10  1  6  0  0  0
  7  6  1  0  0  0  0
  7  8  1  0  0  0  0
  8  1  1  6  0  0  0
  8  3  1  0  0  0  0
  9  3  1  0  0  0  0
 11  1  1  0  0  0  0
 12 11  1  0  0  0  0
 14 13  1  1  0  0  0
 14 12  1  0  0  0  0
 15 18  1  0  0  0  0
 16 21  1  1  0  0  0
 16 20  1  0  0  0  0
 17 15  1  0  0  0  0
 18 14  1  6  0  0  0
 19 16  1  0  0  0  0
 19 17  1  0  0  0  0
 20 18  1  0  0  0  0
 22 23  1  6  0  0  0
 22 21  1  0  0  0  0
 24 22  1  0  0  0  0
 25 28  2  0  0  0  0
 26 29  1  0  0  0  0
 26 25  1  0  0  0  0
 27 25  1  0  0  0  0
 29 31  1  0  0  0  0
 30 26  2  0  0  0  0
 31 24  1  6  0  0  0
 31 28  1  0  0  0  0
 32  7  1  0  0  0  0
 33 35  1  0  0  0  0
 35 34  2  0  0  0  0
 35 32  1  0  0  0  0
 36 37  1  0  0  0  0
 37 33  1  1  0  0  0
 38 40  1  1  0  0  0
 38 36  1  0  0  0  0
 38 37  1  0  0  0  0
 39 41  2  0  0  0  0
 41 42  1  0  0  0  0
 41 40  1  0  0  0  0
M  END
>  <MODEL>
7

>  <REMARK>
 VINA RESULT:      -7.2      2.755      7.324
  Name = 
  12 active torsions:
  status: ('A' for Active; 'I' for Inactive)
    1  A    between atoms: N_1  and  C_33
    2  A    between atoms: C_3  and  N_4
    3  A    between atoms: N_4  and  C_9
    4  A    between atoms: C_9  and  C_29
    5  A    between atoms: C_11  and  N_25
    6  A    between atoms: C_13  and  N_25
    7  A    between atoms: C_13  and  N_39
    8  A    between atoms: C_15  and  C_29
    9  A    between atoms: N_16  and  C_42
   10  A    between atoms: C_24  and  C_32
   11  A    between atoms: C_32  and  C_36
   12  A    between atoms: N_39  and  C_40
                            x       y       z     vdW  Elec       q    Type
                         _______ _______ _______ _____ _____    ______ ____

>  <TORSDO>
F 12

$$$$
=
 OpenBabel11062413133D

 42 46  0  0  1  0  0  0  0  0999 V2000
  187.0120  178.0490  138.8650 C   0  0  0  0  0  0  0  0  0  0  0  0
  185.3620  177.8710  136.6100 N   0  0  0  0  0  0  0  0  0  0  0  0
  186.5900  177.4730  136.5000 C   0  0  0  0  0  0  0  0  0  0  0  0
  185.7150  178.3720  138.9770 C   0  0  0  0  0  3  0  0  0  0  0  0
  184.7280  177.9390  137.9230 C   0  0  0  0  0  2  0  0  0  0  0  0
  188.7130  177.5220  135.5800 N   0  0  0  0  0  2  0  0  0  0  0  0
  188.8390  177.6590  137.0460 C   0  0  2  0  0  0  0  0  0  0  0  0
  187.4760  177.2610  137.6580 C   0  0  1  0  0  3  0  0  0  0  0  0
  187.3330  177.6060  135.3170 N   0  0  0  0  0  2  0  0  0  0  0  0
  189.1520  178.9890  137.3520 O   0  0  0  0  0  1  0  0  0  0  0  0
  187.9470  178.3600  139.9050 N   0  0  0  0  0  2  0  0  0  0  0  0
  188.3420  177.4340  140.9640 C   0  0  0  0  0  2  0  0  0  0  0  0
  190.5480  178.2190  140.4360 O   0  0  0  0  0  1  0  0  0  0  0  0
  189.7370  177.7640  141.4800 C   0  0  2  0  0  3  0  0  0  0  0  0
  191.6780  176.8490  142.9370 C   0  0  0  0  0  2  0  0  0  0  0  0
  189.3410  176.7550  144.5620 C   0  0  2  0  0  3  0  0  0  0  0  0
  191.4950  177.6970  144.0450 O   0  0  0  0  0  0  0  0  0  0  0  0
  190.3380  176.5710  142.2290 C   0  0  1  0  0  3  0  0  0  0  0  0
  190.7890  176.9570  145.0080 C   0  0  0  0  0  2  0  0  0  0  0  0
  189.3300  176.0010  143.2260 C   0  0  0  0  0  2  0  0  0  0  0  0
  188.6850  178.0450  144.4290 N   0  0  0  0  0  2  0  0  0  0  0  0
  187.4640  178.0130  145.2180 C   0  0  2  0  0  3  0  0  0  0  0  0
  187.6330  177.1290  146.2800 O   0  0  0  0  0  1  0  0  0  0  0  0
  186.3570  177.5620  144.3880 N   0  0  0  0  0  2  0  0  0  0  0  0
  183.6970  178.5450  142.5730 C   0  0  0  0  0  0  0  0  0  0  0  0
  183.0670  178.7880  143.8510 C   0  0  0  0  0  0  0  0  0  0  0  0
  182.9500  178.3550  141.3000 C   0  0  0  0  0  1  0  0  0  0  0  0
  185.0120  178.5240  142.6330 C   0  0  0  0  0  3  0  0  0  0  0  0
  184.2200  179.0060  145.1860 S   0  0  0  0  0  0  0  0  0  0  0  0
  181.8170  178.8500  144.0120 O   0  0  0  0  0  0  0  0  0  0  0  0
  185.5930  178.7380  143.9970 C   0  0  1  0  0  3  0  0  0  0  0  0
  189.9250  176.7220  137.5750 C   0  0  0  0  0  2  0  0  0  0  0  0
  188.7190  174.5660  137.0340 N   0  0  0  0  0  2  0  0  0  0  0  0
  190.8570  175.0040  136.2100 O   0  0  0  0  0  0  0  0  0  0  0  0
  189.8830  175.3820  136.9130 C   0  0  0  0  0  0  0  0  0  0  0  0
  187.9600  172.2650  137.2130 C   0  0  0  0  0  2  0  0  0  0  0  0
  188.5740  173.3090  136.3060 C   0  0  1  0  0  3  0  0  0  0  0  0
  187.1090  172.8970  136.1330 C   0  0  2  0  0  3  0  0  0  0  0  0
  184.5800  172.2570  137.2920 O   0  0  0  0  0  0  0  0  0  0  0  0
  186.1890  173.8590  136.7320 N   0  0  0  0  0  2  0  0  0  0  0  0
  184.9490  173.4610  137.3200 C   0  0  0  0  0  0  0  0  0  0  0  0
  184.1160  174.4400  137.9300 N   0  0  0  0  0  1  0  0  0  0  0  0
  1  4  2  0  0  0  0
  1 11  1  0  0  0  0
  2  5  1  0  0  0  0
  3  2  2  0  0  0  0
  5  4  1  0  0  0  0
  6  7  1  0  0  0  0
  7 10  1  1  0  0  0
  7 32  1  0  0  0  0
  7  8  1  0  0  0  0
  8  3  1  6  0  0  0
  8  1  1  0  0  0  0
  9  6  1  0  0  0  0
  9  3  1  0  0  0  0
 11 12  1  0  0  0  0
 12 14  1  0  0  0  0
 14 13  1  6  0  0  0
 15 17  1  0  0  0  0
 16 21  1  6  0  0  0
 16 19  1  0  0  0  0
 17 19  1  0  0  0  0
 18 14  1  1  0  0  0
 18 15  1  0  0  0  0
 18 20  1  0  0  0  0
 20 16  1  0  0  0  0
 21 22  1  0  0  0  0
 22 23  1  1  0  0  0
 24 22  1  0  0  0  0
 25 28  2  0  0  0  0
 25 26  1  0  0  0  0
 26 30  2  0  0  0  0
 26 29  1  0  0  0  0
 27 25  1  0  0  0  0
 28 31  1  0  0  0  0
 31 24  1  1  0  0  0
 31 29  1  0  0  0  0
 34 35  2  0  0  0  0
 35 33  1  0  0  0  0
 35 32  1  0  0  0  0
 37 33  1  1  0  0  0
 37 36  1  0  0  0  0
 38 37  1  0  0  0  0
 38 40  1  1  0  0  0
 38 36  1  0  0  0  0
 39 41  2  0  0  0  0
 40 41  1  0  0  0  0
 41 42  1  0  0  0  0
M  END
>  <MODEL>
8

>  <REMARK>
 VINA RESULT:      -7.1      2.447      6.857
  Name = 
  12 active torsions:
  status: ('A' for Active; 'I' for Inactive)
    1  A    between atoms: N_1  and  C_33
    2  A    between atoms: C_3  and  N_4
    3  A    between atoms: N_4  and  C_9
    4  A    between atoms: C_9  and  C_29
    5  A    between atoms: C_11  and  N_25
    6  A    between atoms: C_13  and  N_25
    7  A    between atoms: C_13  and  N_39
    8  A    between atoms: C_15  and  C_29
    9  A    between atoms: N_16  and  C_42
   10  A    between atoms: C_24  and  C_32
   11  A    between atoms: C_32  and  C_36
   12  A    between atoms: N_39  and  C_40
                            x       y       z     vdW  Elec       q    Type
                         _______ _______ _______ _____ _____    ______ ____

>  <TORSDO>
F 12

$$$$
=
 OpenBabel11062413133D

 42 46  0  0  1  0  0  0  0  0999 V2000
  188.1610  177.8630  145.8470 C   0  0  0  0  0  0  0  0  0  0  0  0
  190.2370  176.7460  147.3560 N   0  0  0  0  0  0  0  0  0  0  0  0
  190.4980  177.1220  146.1440 C   0  0  0  0  0  0  0  0  0  0  0  0
  187.9380  177.5480  147.1310 C   0  0  0  0  0  3  0  0  0  0  0  0
  189.0940  177.3100  148.0690 C   0  0  0  0  0  2  0  0  0  0  0  0
  191.1990  176.7670  143.9670 N   0  0  0  0  0  2  0  0  0  0  0  0
  189.8660  177.4060  143.9290 C   0  0  2  0  0  0  0  0  0  0  0  0
  189.5870  177.9580  145.3450 C   0  0  1  0  0  3  0  0  0  0  0  0
  191.4230  176.4600  145.3220 N   0  0  0  0  0  2  0  0  0  0  0  0
  188.9130  176.4450  143.5720 O   0  0  0  0  0  1  0  0  0  0  0  0
  187.0810  178.1960  144.9660 N   0  0  0  0  0  2  0  0  0  0  0  0
  185.8390  178.8390  145.3890 C   0  0  0  0  0  2  0  0  0  0  0  0
  184.5410  180.5660  144.3420 O   0  0  0  0  0  1  0  0  0  0  0  0
  185.0070  179.2580  144.1820 C   0  0  2  0  0  3  0  0  0  0  0  0
  182.4620  178.8370  143.9260 C   0  0  0  0  0  2  0  0  0  0  0  0
  183.6260  178.2820  141.3870 C   0  0  2  0  0  3  0  0  0  0  0  0
  182.2500  179.6580  142.8030 O   0  0  0  0  0  0  0  0  0  0  0  0
  183.8850  178.2500  143.9170 C   0  0  1  0  0  3  0  0  0  0  0  0
  182.2230  178.8120  141.6820 C   0  0  0  0  0  2  0  0  0  0  0  0
  184.1340  177.5030  142.6070 C   0  0  0  0  0  2  0  0  0  0  0  0
  184.5140  179.3920  141.0810 N   0  0  0  0  0  2  0  0  0  0  0  0
  184.9240  179.2700  139.6900 C   0  0  2  0  0  3  0  0  0  0  0  0
  184.2300  180.2080  138.9290 O   0  0  0  0  0  1  0  0  0  0  0  0
  184.6160  177.9340  139.2050 N   0  0  0  0  0  2  0  0  0  0  0  0
  185.9160  176.4400  136.4810 C   0  0  0  0  0  0  0  0  0  0  0  0
  184.5810  175.9270  136.2750 C   0  0  0  0  0  0  0  0  0  0  0  0
  187.1400  175.8400  135.8850 C   0  0  0  0  0  1  0  0  0  0  0  0
  185.9520  177.5160  137.2410 C   0  0  0  0  0  3  0  0  0  0  0  0
  183.3160  176.8740  137.0900 S   0  0  0  0  0  0  0  0  0  0  0  0
  184.3270  174.9070  135.5760 O   0  0  0  0  0  0  0  0  0  0  0  0
  184.6220  177.9830  137.7500 C   0  0  1  0  0  3  0  0  0  0  0  0
  189.8600  178.5590  142.9250 C   0  0  0  0  0  2  0  0  0  0  0  0
  189.7250  177.5740  140.6000 N   0  0  0  0  0  2  0  0  0  0  0  0
  187.8490  178.4860  141.6470 O   0  0  0  0  0  0  0  0  0  0  0  0
  189.0810  178.2290  141.6920 C   0  0  0  0  0  0  0  0  0  0  0  0
  189.4050  177.9190  138.2160 C   0  0  0  0  0  2  0  0  0  0  0  0
  188.9860  177.1150  139.4270 C   0  0  1  0  0  3  0  0  0  0  0  0
  189.8990  176.4960  138.3640 C   0  0  2  0  0  3  0  0  0  0  0  0
  192.1180  176.0730  136.6180 O   0  0  0  0  0  0  0  0  0  0  0  0
  191.3020  176.5030  138.7670 N   0  0  0  0  0  2  0  0  0  0  0  0
  192.3640  176.3110  137.8310 C   0  0  0  0  0  0  0  0  0  0  0  0
  193.7130  176.3740  138.2780 N   0  0  0  0  0  1  0  0  0  0  0  0
  1  4  2  0  0  0  0
  2  5  1  0  0  0  0
  3  2  2  0  0  0  0
  4  5  1  0  0  0  0
  6  9  1  0  0  0  0
  7 10  1  6  0  0  0
  7  6  1  0  0  0  0
  7  8  1  0  0  0  0
  8  1  1  1  0  0  0
  8  3  1  0  0  0  0
  9  3  1  0  0  0  0
 11 12  1  0  0  0  0
 11  1  1  0  0  0  0
 14 13  1  1  0  0  0
 14 12  1  0  0  0  0
 16 21  1  1  0  0  0
 16 19  1  0  0  0  0
 16 20  1  0  0  0  0
 17 15  1  0  0  0  0
 18 15  1  0  0  0  0
 18 14  1  6  0  0  0
 19 17  1  0  0  0  0
 20 18  1  0  0  0  0
 22 23  1  6  0  0  0
 22 21  1  0  0  0  0
 24 22  1  0  0  0  0
 25 28  2  0  0  0  0
 26 25  1  0  0  0  0
 26 29  1  0  0  0  0
 27 25  1  0  0  0  0
 28 31  1  0  0  0  0
 29 31  1  0  0  0  0
 30 26  2  0  0  0  0
 31 24  1  1  0  0  0
 32  7  1  0  0  0  0
 33 35  1  0  0  0  0
 34 35  2  0  0  0  0
 35 32  1  0  0  0  0
 36 38  1  0  0  0  0
 36 37  1  0  0  0  0
 37 33  1  1  0  0  0
 38 40  1  1  0  0  0
 38 37  1  0  0  0  0
 39 41  2  0  0  0  0
 41 42  1  0  0  0  0
 41 40  1  0  0  0  0
M  END
>  <MODEL>
9

>  <REMARK>
 VINA RESULT:      -7.0      2.090      6.981
  Name = 
  12 active torsions:
  status: ('A' for Active; 'I' for Inactive)
    1  A    between atoms: N_1  and  C_33
    2  A    between atoms: C_3  and  N_4
    3  A    between atoms: N_4  and  C_9
    4  A    between atoms: C_9  and  C_29
    5  A    between atoms: C_11  and  N_25
    6  A    between atoms: C_13  and  N_25
    7  A    between atoms: C_13  and  N_39
    8  A    between atoms: C_15  and  C_29
    9  A    between atoms: N_16  and  C_42
   10  A    between atoms: C_24  and  C_32
   11  A    between atoms: C_32  and  C_36
   12  A    between atoms: N_39  and  C_40
                            x       y       z     vdW  Elec       q    Type
                         _______ _______ _______ _____ _____    ______ ____

>  <TORSDO>
F 12

$$$$
