=
 OpenBabel11062413213D

 46 52  0  0  1  0  0  0  0  0999 V2000
  182.0280  177.3080  139.5730 C   0  0  2  0  0  3  0  0  0  0  0  0
  184.1370  177.4660  134.8830 O   0  0  0  0  0  1  0  0  0  0  0  0
  181.5220  178.3410  137.1460 C   0  0  0  0  0  2  0  0  0  0  0  0
  183.4300  175.7530  138.1670 C   0  0  0  0  0  2  0  0  0  0  0  0
  183.6150  177.3660  136.1770 C   0  0  2  0  0  3  0  0  0  0  0  0
  184.1330  176.0810  136.8470 C   0  0  1  0  0  3  0  0  0  0  0  0
  179.6390  177.9580  138.8150 C   0  0  0  0  0  2  0  0  0  0  0  0
  179.9220  176.5690  138.2760 C   0  0  2  0  0  3  0  0  0  0  0  0
  183.4360  176.9440  139.1160 C   0  0  0  0  0  2  0  0  0  0  0  0
  182.0970  177.3900  136.0960 C   0  0  0  0  0  2  0  0  0  0  0  0
  181.0490  177.5940  138.4050 C   0  0  2  0  0  0  0  0  0  0  0  0
  180.9660  178.4290  141.6200 C   0  0  0  0  0  2  0  0  0  0  0  0
  181.5250  178.9940  142.9170 C   0  0  2  0  0  3  0  0  0  0  0  0
  181.0640  180.2960  143.0990 O   0  0  0  0  0  1  0  0  0  0  0  0
  183.3830  178.3100  141.4690 C   0  0  0  0  0  2  0  0  0  0  0  0
  182.1230  178.4080  140.6410 C   0  0  1  0  0  3  0  0  0  0  0  0
  183.0430  179.0070  142.7760 C   0  0  2  0  0  3  0  0  0  0  0  0
  184.0210  178.5200  146.2120 C   0  0  0  0  0  2  0  0  0  0  0  0
  186.3520  177.8530  145.4770 C   0  0  1  0  0  3  0  0  0  0  0  0
  185.9430  179.8420  146.8030 O   0  0  0  0  0  1  0  0  0  0  0  0
  183.7380  178.3610  143.9790 C   0  0  2  0  0  3  0  0  0  0  0  0
  183.7970  179.2750  145.0490 O   0  0  0  0  0  0  0  0  0  0  0  0
  185.5060  178.5310  146.5730 C   0  0  1  0  0  3  0  0  0  0  0  0
  185.1280  177.7950  143.6150 C   0  0  0  0  0  2  0  0  0  0  0  0
  186.1590  178.5050  144.2500 O   0  0  0  0  0  0  0  0  0  0  0  0
  189.4100  177.3130  147.6650 C   0  0  0  0  0  3  0  0  0  0  0  0
  187.8170  177.7220  145.8650 C   0  0  0  0  0  0  0  0  0  0  0  0
  190.2060  177.5650  145.4020 C   0  0  0  0  0  3  0  0  0  0  0  0
  190.4650  177.3580  146.7560 C   0  0  0  0  0  3  0  0  0  0  0  0
  188.8930  177.7430  144.9360 C   0  0  0  0  0  0  0  0  0  0  0  0
  188.1000  177.4840  147.2210 C   0  0  0  0  0  3  0  0  0  0  0  0
  188.6610  177.9340  143.5350 N   0  0  0  0  0  2  0  0  0  0  0  0
  188.7020  176.8620  142.5460 C   0  0  0  0  0  2  0  0  0  0  0  0
  188.1900  175.6880  143.1070 O   0  0  0  0  0  1  0  0  0  0  0  0
  185.5840  176.1790  137.0620 C   0  0  0  0  0  0  0  0  0  0  0  0
  186.7750  176.2780  137.2280 C   0  0  0  0  0  0  0  0  0  0  0  0
  188.1930  176.4150  137.4110 C   0  0  0  0  0  0  0  0  0  0  0  0
  190.1710  177.0860  138.2280 N   0  0  0  0  0  0  0  0  0  0  0  0
  189.2330  175.7780  136.5640 C   0  0  0  0  0  3  0  0  0  0  0  0
  190.4600  176.3250  137.2230 C   0  0  0  0  0  3  0  0  0  0  0  0
  188.7560  177.1480  138.3550 C   0  0  0  0  0  2  0  0  0  0  0  0
  179.4410  176.4830  136.9650 O   0  0  0  0  0  0  0  0  0  0  0  0
  180.2030  174.2360  137.0890 C   0  0  0  0  0  2  0  0  0  0  0  0
  179.0290  175.1550  136.8230 C   0  0  2  0  0  3  0  0  0  0  0  0
  178.9930  173.3280  135.1510 C   0  0  0  0  0  1  0  0  0  0  0  0
  179.7790  174.5180  135.6660 C   0  0  2  0  0  3  0  0  0  0  0  0
  1  9  1  6  0  0  0
  1 16  1  0  0  0  0
  4  9  1  0  0  0  0
  5  2  1  6  0  0  0
  5  6  1  0  0  0  0
  6 35  1  1  0  0  0
  6  4  1  0  0  0  0
  8 42  1  6  0  0  0
  8 11  1  0  0  0  0
  8  7  1  0  0  0  0
 10  5  1  0  0  0  0
 10  3  1  0  0  0  0
 11  3  1  6  0  0  0
 11  7  1  0  0  0  0
 11  1  1  0  0  0  0
 12 13  1  0  0  0  0
 13 14  1  6  0  0  0
 16 15  1  1  0  0  0
 16 12  1  0  0  0  0
 17 15  1  6  0  0  0
 17 13  1  0  0  0  0
 17 21  1  0  0  0  0
 18 23  1  0  0  0  0
 19 27  1  1  0  0  0
 19 23  1  0  0  0  0
 21 24  1  6  0  0  0
 21 22  1  0  0  0  0
 22 18  1  0  0  0  0
 23 20  1  6  0  0  0
 24 25  1  0  0  0  0
 25 19  1  0  0  0  0
 27 31  2  0  0  0  0
 28 29  1  0  0  0  0
 29 26  2  0  0  0  0
 30 28  2  0  0  0  0
 30 27  1  0  0  0  0
 31 26  1  0  0  0  0
 32 30  1  0  0  0  0
 33 34  1  0  0  0  0
 33 32  1  0  0  0  0
 35 36  3  0  0  0  0
 36 37  1  0  0  0  0
 37 41  1  0  0  0  0
 38 41  1  0  0  0  0
 39 40  1  0  0  0  0
 39 37  2  0  0  0  0
 40 38  2  0  0  0  0
 44 42  1  6  0  0  0
 44 43  1  0  0  0  0
 46 45  1  1  0  0  0
 46 44  1  0  0  0  0
 46 43  1  0  0  0  0
M  END
>  <MODEL>
1

>  <REMARK>
 VINA RESULT:      -8.2      0.000      0.000
  Name = 
  9 active torsions:
  status: ('A' for Active; 'I' for Inactive)
    1  A    between atoms: C_1  and  C_21
    2  A    between atoms: C_2  and  C_42
    3  A    between atoms: C_8  and  C_16
    4  A    between atoms: C_13  and  C_15
    5  A    between atoms: C_14  and  N_37
    6  A    between atoms: C_20  and  N_37
    7  A    between atoms: O_24  and  C_28
    8  A    between atoms: O_24  and  C_32
    9  A    between atoms: C_25  and  C_46
                            x       y       z     vdW  Elec       q    Type
                         _______ _______ _______ _____ _____    ______ ____

>  <TORSDO>
F 9

$$$$
=
 OpenBabel11062413213D

 46 52  0  0  1  0  0  0  0  0999 V2000
  190.8450  176.8590  138.8990 C   0  0  2  0  0  3  0  0  0  0  0  0
  188.3170  174.2170  135.2790 O   0  0  0  0  0  1  0  0  0  0  0  0
  191.1600  174.6600  137.3880 C   0  0  0  0  0  2  0  0  0  0  0  0
  189.2640  177.4260  137.0170 C   0  0  0  0  0  2  0  0  0  0  0  0
  188.9530  174.9950  136.2530 C   0  0  2  0  0  3  0  0  0  0  0  0
  188.4540  176.4480  136.1630 C   0  0  1  0  0  3  0  0  0  0  0  0
  193.1750  175.8510  138.3890 C   0  0  0  0  0  2  0  0  0  0  0  0
  192.7940  176.7280  137.2120 C   0  0  2  0  0  3  0  0  0  0  0  0
  189.3880  176.9450  138.4560 C   0  0  0  0  0  2  0  0  0  0  0  0
  190.4560  174.8980  136.0520 C   0  0  0  0  0  2  0  0  0  0  0  0
  191.7200  175.9630  137.9860 C   0  0  2  0  0  0  0  0  0  0  0  0
  191.8250  177.3930  141.2070 C   0  0  0  0  0  2  0  0  0  0  0  0
  191.2410  177.4440  142.6100 C   0  0  2  0  0  3  0  0  0  0  0  0
  192.0130  176.6640  143.4690 O   0  0  0  0  0  1  0  0  0  0  0  0
  189.5320  176.6200  141.0560 C   0  0  0  0  0  2  0  0  0  0  0  0
  190.8870  176.5200  140.3960 C   0  0  1  0  0  3  0  0  0  0  0  0
  189.8330  176.8660  142.5250 C   0  0  2  0  0  3  0  0  0  0  0  0
  187.8020  178.2660  145.1550 C   0  0  0  0  0  2  0  0  0  0  0  0
  185.8460  178.4780  143.5600 C   0  0  1  0  0  3  0  0  0  0  0  0
  185.7730  177.0170  145.4950 O   0  0  0  0  0  1  0  0  0  0  0  0
  188.7960  177.7760  143.1890 C   0  0  2  0  0  3  0  0  0  0  0  0
  188.3800  177.2210  144.4140 O   0  0  0  0  0  0  0  0  0  0  0  0
  186.2800  178.2330  145.0190 C   0  0  1  0  0  3  0  0  0  0  0  0
  187.6070  178.0860  142.2520 C   0  0  0  0  0  2  0  0  0  0  0  0
  186.4160  177.5100  142.7200 O   0  0  0  0  0  0  0  0  0  0  0  0
  182.2150  179.0510  144.5240 C   0  0  0  0  0  3  0  0  0  0  0  0
  184.3350  178.5910  143.4110 C   0  0  0  0  0  0  0  0  0  0  0  0
  182.2540  178.6600  142.1440 C   0  0  0  0  0  3  0  0  0  0  0  0
  181.5400  178.9300  143.3100 C   0  0  0  0  0  3  0  0  0  0  0  0
  183.6470  178.4930  142.1710 C   0  0  0  0  0  0  0  0  0  0  0  0
  183.5990  178.8910  144.5700 C   0  0  0  0  0  3  0  0  0  0  0  0
  184.3510  178.2340  140.9490 N   0  0  0  0  0  2  0  0  0  0  0  0
  184.5470  179.2230  139.8950 C   0  0  0  0  0  2  0  0  0  0  0  0
  185.7760  179.0000  139.2660 O   0  0  0  0  0  1  0  0  0  0  0  0
  187.0340  176.5130  136.5360 C   0  0  0  0  0  0  0  0  0  0  0  0
  185.8620  176.5700  136.8210 C   0  0  0  0  0  0  0  0  0  0  0  0
  184.4640  176.6440  137.1380 C   0  0  0  0  0  0  0  0  0  0  0  0
  182.3240  177.3170  137.1500 N   0  0  0  0  0  0  0  0  0  0  0  0
  183.7660  175.8010  138.1420 C   0  0  0  0  0  2  0  0  0  0  0  0
  182.3880  176.3740  138.0330 C   0  0  0  0  0  3  0  0  0  0  0  0
  183.6170  177.4930  136.5840 C   0  0  0  0  0  3  0  0  0  0  0  0
  193.1490  176.0760  136.0250 O   0  0  0  0  0  0  0  0  0  0  0  0
  195.1000  176.0740  134.6690 C   0  0  0  0  0  2  0  0  0  0  0  0
  194.5430  175.9830  136.0740 C   0  0  2  0  0  3  0  0  0  0  0  0
  196.3610  174.3180  135.8400 C   0  0  0  0  0  1  0  0  0  0  0  0
  194.9870  174.7270  135.3460 C   0  0  2  0  0  3  0  0  0  0  0  0
  1  9  1  6  0  0  0
  1 16  1  0  0  0  0
  4  9  1  0  0  0  0
  5  2  1  6  0  0  0
  6  5  1  0  0  0  0
  6 35  1  1  0  0  0
  6  4  1  0  0  0  0
  8 42  1  6  0  0  0
  8 11  1  0  0  0  0
  8  7  1  0  0  0  0
 10  5  1  0  0  0  0
 10  3  1  0  0  0  0
 11  3  1  6  0  0  0
 11  7  1  0  0  0  0
 11  1  1  0  0  0  0
 12 13  1  0  0  0  0
 13 14  1  1  0  0  0
 16 15  1  1  0  0  0
 16 12  1  0  0  0  0
 17 15  1  6  0  0  0
 17 13  1  0  0  0  0
 17 21  1  0  0  0  0
 19 27  1  1  0  0  0
 19 23  1  0  0  0  0
 21 24  1  6  0  0  0
 21 22  1  0  0  0  0
 22 18  1  0  0  0  0
 23 18  1  0  0  0  0
 23 20  1  6  0  0  0
 24 25  1  0  0  0  0
 25 19  1  0  0  0  0
 26 31  1  0  0  0  0
 27 31  2  0  0  0  0
 28 30  2  0  0  0  0
 28 29  1  0  0  0  0
 29 26  2  0  0  0  0
 30 27  1  0  0  0  0
 32 30  1  0  0  0  0
 33 32  1  0  0  0  0
 34 33  1  0  0  0  0
 35 36  3  0  0  0  0
 36 37  1  0  0  0  0
 37 39  1  0  0  0  0
 38 40  2  0  0  0  0
 40 39  1  0  0  0  0
 41 37  2  0  0  0  0
 41 38  1  0  0  0  0
 43 46  1  0  0  0  0
 43 44  1  0  0  0  0
 44 42  1  6  0  0  0
 46 45  1  1  0  0  0
 46 44  1  0  0  0  0
M  END
>  <MODEL>
2

>  <REMARK>
 VINA RESULT:      -8.1      3.089      8.489
  Name = 
  9 active torsions:
  status: ('A' for Active; 'I' for Inactive)
    1  A    between atoms: C_1  and  C_21
    2  A    between atoms: C_2  and  C_42
    3  A    between atoms: C_8  and  C_16
    4  A    between atoms: C_13  and  C_15
    5  A    between atoms: C_14  and  N_37
    6  A    between atoms: C_20  and  N_37
    7  A    between atoms: O_24  and  C_28
    8  A    between atoms: O_24  and  C_32
    9  A    between atoms: C_25  and  C_46
                            x       y       z     vdW  Elec       q    Type
                         _______ _______ _______ _____ _____    ______ ____

>  <TORSDO>
F 9

$$$$
=
 OpenBabel11062413213D

 46 52  0  0  1  0  0  0  0  0999 V2000
  188.3220  176.2530  135.7960 C   0  0  2  0  0  3  0  0  0  0  0  0
  187.9770  171.2240  136.8260 O   0  0  0  0  0  1  0  0  0  0  0  0
  189.6730  174.3480  137.1240 C   0  0  0  0  0  2  0  0  0  0  0  0
  187.4450  174.2170  134.5940 C   0  0  0  0  0  2  0  0  0  0  0  0
  188.0140  172.5820  136.4900 C   0  0  2  0  0  3  0  0  0  0  0  0
  187.2540  172.8120  135.1730 C   0  0  1  0  0  3  0  0  0  0  0  0
  190.8460  176.4650  136.3350 C   0  0  0  0  0  2  0  0  0  0  0  0
  190.7220  175.6360  135.0710 C   0  0  2  0  0  3  0  0  0  0  0  0
  187.1490  175.2940  135.6290 C   0  0  0  0  0  2  0  0  0  0  0  0
  189.4660  173.0230  136.3920 C   0  0  0  0  0  2  0  0  0  0  0  0
  189.6540  175.5490  136.1610 C   0  0  2  0  0  0  0  0  0  0  0  0
  186.7100  177.0690  137.6150 C   0  0  0  0  0  2  0  0  0  0  0  0
  186.8830  177.9050  138.8740 C   0  0  2  0  0  3  0  0  0  0  0  0
  185.9680  178.9560  138.8680 O   0  0  0  0  0  1  0  0  0  0  0  0
  189.0100  177.8370  137.6540 C   0  0  0  0  0  2  0  0  0  0  0  0
  187.8990  177.3950  136.7310 C   0  0  1  0  0  3  0  0  0  0  0  0
  188.3000  178.4640  138.8430 C   0  0  2  0  0  3  0  0  0  0  0  0
  190.1800  176.6740  141.3450 C   0  0  0  0  0  2  0  0  0  0  0  0
  188.8630  177.8170  143.1830 C   0  0  1  0  0  3  0  0  0  0  0  0
  188.7540  175.4200  142.8240 O   0  0  0  0  0  1  0  0  0  0  0  0
  189.0440  178.2220  140.1600 C   0  0  2  0  0  3  0  0  0  0  0  0
  189.1460  176.8400  140.4080 O   0  0  0  0  0  0  0  0  0  0  0  0
  189.6020  176.5340  142.7530 C   0  0  1  0  0  3  0  0  0  0  0  0
  188.4020  178.9830  141.3410 C   0  0  0  0  0  2  0  0  0  0  0  0
  187.8330  178.1040  142.2750 O   0  0  0  0  0  0  0  0  0  0  0  0
  186.4990  177.5000  146.1410 C   0  0  0  0  0  3  0  0  0  0  0  0
  188.3950  177.7650  144.6300 C   0  0  0  0  0  0  0  0  0  0  0  0
  188.7280  177.6930  147.0440 C   0  0  0  0  0  3  0  0  0  0  0  0
  187.3550  177.5540  147.2400 C   0  0  0  0  0  3  0  0  0  0  0  0
  189.2670  177.7940  145.7520 C   0  0  0  0  0  0  0  0  0  0  0  0
  187.0170  177.5960  144.8500 C   0  0  0  0  0  3  0  0  0  0  0  0
  190.6860  177.9180  145.5860 N   0  0  0  0  0  2  0  0  0  0  0  0
  191.6040  176.7850  145.5450 C   0  0  0  0  0  2  0  0  0  0  0  0
  192.0750  176.5160  146.8340 O   0  0  0  0  0  1  0  0  0  0  0  0
  185.8230  172.5390  135.3660 C   0  0  0  0  0  0  0  0  0  0  0  0
  184.6510  172.3100  135.5460 C   0  0  0  0  0  0  0  0  0  0  0  0
  183.2630  172.0290  135.7820 C   0  0  0  0  0  0  0  0  0  0  0  0
  181.0560  171.8140  135.4460 N   0  0  0  0  0  0  0  0  0  0  0  0
  182.6830  171.5980  137.0790 C   0  0  0  0  0  2  0  0  0  0  0  0
  181.2400  171.5140  136.6910 C   0  0  0  0  0  3  0  0  0  0  0  0
  182.3150  172.1360  134.8690 C   0  0  0  0  0  3  0  0  0  0  0  0
  191.6250  174.5700  135.1350 O   0  0  0  0  0  0  0  0  0  0  0  0
  193.9840  174.4490  134.8680 C   0  0  0  0  0  2  0  0  0  0  0  0
  192.8280  175.1470  135.5530 C   0  0  2  0  0  3  0  0  0  0  0  0
  194.6390  174.8140  137.2090 C   0  0  0  0  0  1  0  0  0  0  0  0
  193.6480  174.1110  136.3020 C   0  0  2  0  0  3  0  0  0  0  0  0
  1  9  1  1  0  0  0
  1 11  1  0  0  0  0
  1 16  1  0  0  0  0
  4  6  1  0  0  0  0
  4  9  1  0  0  0  0
  5  2  1  6  0  0  0
  6 35  1  1  0  0  0
  6  5  1  0  0  0  0
  8 42  1  1  0  0  0
  8 11  1  0  0  0  0
  8  7  1  0  0  0  0
 10  5  1  0  0  0  0
 10  3  1  0  0  0  0
 11  7  1  1  0  0  0
 11  3  1  0  0  0  0
 12 13  1  0  0  0  0
 13 14  1  6  0  0  0
 16 12  1  1  0  0  0
 16 15  1  0  0  0  0
 17 15  1  6  0  0  0
 17 13  1  0  0  0  0
 17 21  1  0  0  0  0
 18 23  1  0  0  0  0
 19 27  1  1  0  0  0
 21 22  1  0  0  0  0
 21 24  1  1  0  0  0
 22 18  1  0  0  0  0
 23 20  1  6  0  0  0
 23 19  1  0  0  0  0
 24 25  1  0  0  0  0
 25 19  1  0  0  0  0
 26 29  1  0  0  0  0
 27 31  1  0  0  0  0
 27 30  2  0  0  0  0
 28 29  2  0  0  0  0
 30 28  1  0  0  0  0
 31 26  2  0  0  0  0
 32 30  1  0  0  0  0
 33 32  1  0  0  0  0
 33 34  1  0  0  0  0
 35 36  3  0  0  0  0
 36 37  1  0  0  0  0
 37 39  1  0  0  0  0
 38 40  2  0  0  0  0
 40 39  1  0  0  0  0
 41 38  1  0  0  0  0
 41 37  2  0  0  0  0
 43 44  1  0  0  0  0
 43 46  1  0  0  0  0
 44 42  1  6  0  0  0
 44 46  1  0  0  0  0
 46 45  1  1  0  0  0
M  END
>  <MODEL>
3

>  <REMARK>
 VINA RESULT:      -7.8      3.936      7.839
  Name = 
  9 active torsions:
  status: ('A' for Active; 'I' for Inactive)
    1  A    between atoms: C_1  and  C_21
    2  A    between atoms: C_2  and  C_42
    3  A    between atoms: C_8  and  C_16
    4  A    between atoms: C_13  and  C_15
    5  A    between atoms: C_14  and  N_37
    6  A    between atoms: C_20  and  N_37
    7  A    between atoms: O_24  and  C_28
    8  A    between atoms: O_24  and  C_32
    9  A    between atoms: C_25  and  C_46
                            x       y       z     vdW  Elec       q    Type
                         _______ _______ _______ _____ _____    ______ ____

>  <TORSDO>
F 9

$$$$
=
 OpenBabel11062413213D

 46 52  0  0  1  0  0  0  0  0999 V2000
  183.0080  177.8610  137.7610 C   0  0  2  0  0  3  0  0  0  0  0  0
  181.2260  178.3030  142.5670 O   0  0  0  0  0  1  0  0  0  0  0  0
  180.7200  177.5140  139.1250 C   0  0  0  0  0  2  0  0  0  0  0  0
  183.4770  179.3610  139.7330 C   0  0  0  0  0  2  0  0  0  0  0  0
  181.7760  178.2230  141.2830 C   0  0  2  0  0  3  0  0  0  0  0  0
  182.9640  179.1930  141.1660 C   0  0  1  0  0  3  0  0  0  0  0  0
  180.6890  177.9020  136.6100 C   0  0  0  0  0  2  0  0  0  0  0  0
  180.9360  179.2860  137.1790 C   0  0  2  0  0  3  0  0  0  0  0  0
  183.7610  178.0160  139.0780 C   0  0  0  0  0  2  0  0  0  0  0  0
  180.6890  178.5310  140.2650 C   0  0  0  0  0  2  0  0  0  0  0  0
  181.4750  178.0480  137.8950 C   0  0  2  0  0  0  0  0  0  0  0  0
  183.4380  176.6020  135.5690 C   0  0  0  0  0  2  0  0  0  0  0  0
  184.5180  175.6360  135.1060 C   0  0  2  0  0  3  0  0  0  0  0  0
  183.9270  174.4820  134.5940 O   0  0  0  0  0  1  0  0  0  0  0  0
  184.8590  176.1480  137.4810 C   0  0  0  0  0  2  0  0  0  0  0  0
  183.4600  176.5580  137.0850 C   0  0  1  0  0  3  0  0  0  0  0  0
  185.3480  175.2790  136.3340 C   0  0  2  0  0  3  0  0  0  0  0  0
  188.7310  174.3140  135.5460 C   0  0  0  0  0  2  0  0  0  0  0  0
  189.6210  175.9550  137.2580 C   0  0  1  0  0  3  0  0  0  0  0  0
  189.9350  173.5610  137.4890 O   0  0  0  0  0  1  0  0  0  0  0  0
  186.8490  175.4390  136.0800 C   0  0  2  0  0  3  0  0  0  0  0  0
  187.4950  174.1940  136.2030 O   0  0  0  0  0  0  0  0  0  0  0  0
  189.8430  174.6010  136.5550 C   0  0  1  0  0  3  0  0  0  0  0  0
  187.4820  176.5200  136.9850 C   0  0  0  0  0  2  0  0  0  0  0  0
  188.3790  175.9610  137.9090 O   0  0  0  0  0  0  0  0  0  0  0  0
  193.2010  176.4940  138.4130 C   0  0  0  0  0  3  0  0  0  0  0  0
  190.7800  176.3390  138.1670 C   0  0  0  0  0  0  0  0  0  0  0  0
  191.7670  177.3110  140.1720 C   0  0  0  0  0  3  0  0  0  0  0  0
  193.0460  177.0760  139.6690 C   0  0  0  0  0  3  0  0  0  0  0  0
  190.6250  176.9570  139.4380 C   0  0  0  0  0  0  0  0  0  0  0  0
  192.0780  176.1380  137.6680 C   0  0  0  0  0  3  0  0  0  0  0  0
  189.3250  177.2300  139.9780 N   0  0  0  0  0  2  0  0  0  0  0  0
  188.6910  178.5440  139.9540 C   0  0  0  0  0  2  0  0  0  0  0  0
  189.0080  179.1950  138.7580 O   0  0  0  0  0  1  0  0  0  0  0  0
  184.0580  178.7520  142.0420 C   0  0  0  0  0  0  0  0  0  0  0  0
  184.9460  178.3980  142.7790 C   0  0  0  0  0  0  0  0  0  0  0  0
  185.9930  177.9890  143.6730 C   0  0  0  0  0  0  0  0  0  0  0  0
  187.1860  177.6970  145.5500 N   0  0  0  0  0  0  0  0  0  0  0  0
  187.2400  177.2900  143.2720 C   0  0  0  0  0  3  0  0  0  0  0  0
  187.9080  177.1860  144.6060 C   0  0  0  0  0  3  0  0  0  0  0  0
  185.9860  178.2010  144.9770 C   0  0  0  0  0  2  0  0  0  0  0  0
  179.7540  179.7560  137.7630 O   0  0  0  0  0  0  0  0  0  0  0  0
  181.0540  181.7340  137.9770 C   0  0  0  0  0  2  0  0  0  0  0  0
  179.7500  181.1290  137.5020 C   0  0  2  0  0  3  0  0  0  0  0  0
  179.2590  183.2880  138.6110 C   0  0  0  0  0  1  0  0  0  0  0  0
  179.8070  181.8890  138.8150 C   0  0  2  0  0  3  0  0  0  0  0  0
  1 11  1  0  0  0  0
  1  9  1  1  0  0  0
  3 10  1  0  0  0  0
  4  6  1  0  0  0  0
  5  2  1  1  0  0  0
  6  5  1  0  0  0  0
  6 35  1  1  0  0  0
  7  8  1  0  0  0  0
  8 42  1  1  0  0  0
  8 11  1  0  0  0  0
  9  4  1  0  0  0  0
 10  5  1  0  0  0  0
 11  7  1  6  0  0  0
 11  3  1  0  0  0  0
 13 14  1  1  0  0  0
 13 12  1  0  0  0  0
 13 17  1  0  0  0  0
 16 12  1  6  0  0  0
 16 15  1  0  0  0  0
 16  1  1  0  0  0  0
 17 15  1  1  0  0  0
 18 22  1  0  0  0  0
 18 23  1  0  0  0  0
 19 25  1  0  0  0  0
 19 27  1  1  0  0  0
 21 22  1  0  0  0  0
 21 17  1  0  0  0  0
 21 24  1  1  0  0  0
 23 19  1  0  0  0  0
 23 20  1  1  0  0  0
 24 25  1  0  0  0  0
 26 29  1  0  0  0  0
 27 30  2  0  0  0  0
 29 28  2  0  0  0  0
 30 32  1  0  0  0  0
 30 28  1  0  0  0  0
 31 27  1  0  0  0  0
 31 26  2  0  0  0  0
 33 32  1  0  0  0  0
 34 33  1  0  0  0  0
 35 36  3  0  0  0  0
 36 37  1  0  0  0  0
 37 41  1  0  0  0  0
 39 37  2  0  0  0  0
 39 40  1  0  0  0  0
 40 38  2  0  0  0  0
 41 38  1  0  0  0  0
 43 46  1  0  0  0  0
 44 42  1  1  0  0  0
 44 43  1  0  0  0  0
 44 46  1  0  0  0  0
 46 45  1  6  0  0  0
M  END
>  <MODEL>
4

>  <REMARK>
 VINA RESULT:      -7.8      2.592      7.271
  Name = 
  9 active torsions:
  status: ('A' for Active; 'I' for Inactive)
    1  A    between atoms: C_1  and  C_21
    2  A    between atoms: C_2  and  C_42
    3  A    between atoms: C_8  and  C_16
    4  A    between atoms: C_13  and  C_15
    5  A    between atoms: C_14  and  N_37
    6  A    between atoms: C_20  and  N_37
    7  A    between atoms: O_24  and  C_28
    8  A    between atoms: O_24  and  C_32
    9  A    between atoms: C_25  and  C_46
                            x       y       z     vdW  Elec       q    Type
                         _______ _______ _______ _____ _____    ______ ____

>  <TORSDO>
F 9

$$$$
=
 OpenBabel11062413213D

 46 52  0  0  1  0  0  0  0  0999 V2000
  187.4460  178.3860  143.3990 C   0  0  2  0  0  3  0  0  0  0  0  0
  190.5520  175.6620  140.3310 O   0  0  0  0  0  1  0  0  0  0  0  0
  188.9540  176.1640  143.4810 C   0  0  0  0  0  2  0  0  0  0  0  0
  189.0470  178.9090  141.5210 C   0  0  0  0  0  2  0  0  0  0  0  0
  189.7100  176.4620  141.1120 C   0  0  2  0  0  3  0  0  0  0  0  0
  189.7390  177.9090  140.5890 C   0  0  1  0  0  3  0  0  0  0  0  0
  188.3220  177.3870  145.6220 C   0  0  0  0  0  2  0  0  0  0  0  0
  189.4330  178.2410  145.0400 C   0  0  2  0  0  3  0  0  0  0  0  0
  187.6410  178.4530  141.8880 C   0  0  0  0  0  2  0  0  0  0  0  0
  190.1580  176.3740  142.5620 C   0  0  0  0  0  2  0  0  0  0  0  0
  188.4780  177.4810  144.1190 C   0  0  2  0  0  0  0  0  0  0  0  0
  185.2780  179.1020  144.5650 C   0  0  0  0  0  2  0  0  0  0  0  0
  183.8100  179.0650  144.1690 C   0  0  2  0  0  3  0  0  0  0  0  0
  183.0700  178.4370  145.1690 O   0  0  0  0  0  1  0  0  0  0  0  0
  185.1400  177.9440  142.4390 C   0  0  0  0  0  2  0  0  0  0  0  0
  185.9720  178.0730  143.6930 C   0  0  1  0  0  3  0  0  0  0  0  0
  183.7190  178.2510  142.8830 C   0  0  2  0  0  3  0  0  0  0  0  0
  180.8220  179.3880  141.0630 C   0  0  0  0  0  2  0  0  0  0  0  0
  182.0520  179.0840  138.8700 C   0  0  1  0  0  3  0  0  0  0  0  0
  180.0860  177.7780  139.4320 O   0  0  0  0  0  1  0  0  0  0  0  0
  182.9140  178.9750  141.7990 C   0  0  2  0  0  3  0  0  0  0  0  0
  181.6170  178.4340  141.7200 O   0  0  0  0  0  0  0  0  0  0  0  0
  180.6850  179.0360  139.5820 C   0  0  1  0  0  3  0  0  0  0  0  0
  183.6360  178.9690  140.4330 C   0  0  0  0  0  2  0  0  0  0  0  0
  182.9460  178.1960  139.4870 O   0  0  0  0  0  0  0  0  0  0  0  0
  182.5340  177.4770  135.4610 C   0  0  0  0  0  3  0  0  0  0  0  0
  181.9360  178.8750  137.3670 C   0  0  0  0  0  0  0  0  0  0  0  0
  181.0590  179.3600  135.1450 C   0  0  0  0  0  3  0  0  0  0  0  0
  181.7610  178.2760  134.6200 C   0  0  0  0  0  3  0  0  0  0  0  0
  181.1280  179.6720  136.5120 C   0  0  0  0  0  0  0  0  0  0  0  0
  182.6120  177.7710  136.8210 C   0  0  0  0  0  3  0  0  0  0  0  0
  180.3780  180.7830  137.0210 N   0  0  0  0  0  2  0  0  0  0  0  0
  180.7850  182.1770  136.8780 C   0  0  0  0  0  2  0  0  0  0  0  0
  181.5830  182.5460  137.9650 O   0  0  0  0  0  1  0  0  0  0  0  0
  189.1350  177.9700  139.2510 C   0  0  0  0  0  0  0  0  0  0  0  0
  188.6280  178.0020  138.1560 C   0  0  0  0  0  0  0  0  0  0  0  0
  188.0150  178.0180  136.8570 C   0  0  0  0  0  0  0  0  0  0  0  0
  186.4590  178.1530  135.2480 N   0  0  0  0  0  0  0  0  0  0  0  0
  188.7190  177.7700  135.5730 C   0  0  0  0  0  3  0  0  0  0  0  0
  187.5630  177.8830  134.6300 C   0  0  0  0  0  3  0  0  0  0  0  0
  186.7320  178.2410  136.6410 C   0  0  0  0  0  2  0  0  0  0  0  0
  190.6510  177.5720  145.2000 O   0  0  0  0  0  0  0  0  0  0  0  0
  191.1880  177.5150  147.5140 C   0  0  0  0  0  2  0  0  0  0  0  0
  190.4930  176.8160  146.3650 C   0  0  2  0  0  3  0  0  0  0  0  0
  191.6760  175.1150  147.7210 C   0  0  0  0  0  1  0  0  0  0  0  0
  191.8520  176.3360  146.8410 C   0  0  2  0  0  3  0  0  0  0  0  0
  1  9  1  6  0  0  0
  1 16  1  0  0  0  0
  1 11  1  0  0  0  0
  4  9  1  0  0  0  0
  5  2  1  6  0  0  0
  5 10  1  0  0  0  0
  6 35  1  6  0  0  0
  6  5  1  0  0  0  0
  6  4  1  0  0  0  0
  8 42  1  1  0  0  0
  8  7  1  0  0  0  0
 10  3  1  0  0  0  0
 11  3  1  6  0  0  0
 11  8  1  0  0  0  0
 11  7  1  0  0  0  0
 13 12  1  0  0  0  0
 13 14  1  1  0  0  0
 16 15  1  6  0  0  0
 16 12  1  0  0  0  0
 17 15  1  6  0  0  0
 17 13  1  0  0  0  0
 18 22  1  0  0  0  0
 19 27  1  6  0  0  0
 19 25  1  0  0  0  0
 19 23  1  0  0  0  0
 21 24  1  6  0  0  0
 21 17  1  0  0  0  0
 22 21  1  0  0  0  0
 23 20  1  1  0  0  0
 23 18  1  0  0  0  0
 25 24  1  0  0  0  0
 26 31  1  0  0  0  0
 28 30  2  0  0  0  0
 29 28  1  0  0  0  0
 29 26  2  0  0  0  0
 30 32  1  0  0  0  0
 30 27  1  0  0  0  0
 31 27  2  0  0  0  0
 33 32  1  0  0  0  0
 33 34  1  0  0  0  0
 36 35  3  0  0  0  0
 37 36  1  0  0  0  0
 38 41  1  0  0  0  0
 39 37  2  0  0  0  0
 40 38  2  0  0  0  0
 40 39  1  0  0  0  0
 41 37  1  0  0  0  0
 44 42  1  6  0  0  0
 44 46  1  0  0  0  0
 44 43  1  0  0  0  0
 46 43  1  0  0  0  0
 46 45  1  1  0  0  0
M  END
>  <MODEL>
5

>  <REMARK>
 VINA RESULT:      -7.7      2.769      9.294
  Name = 
  9 active torsions:
  status: ('A' for Active; 'I' for Inactive)
    1  A    between atoms: C_1  and  C_21
    2  A    between atoms: C_2  and  C_42
    3  A    between atoms: C_8  and  C_16
    4  A    between atoms: C_13  and  C_15
    5  A    between atoms: C_14  and  N_37
    6  A    between atoms: C_20  and  N_37
    7  A    between atoms: O_24  and  C_28
    8  A    between atoms: O_24  and  C_32
    9  A    between atoms: C_25  and  C_46
                            x       y       z     vdW  Elec       q    Type
                         _______ _______ _______ _____ _____    ______ ____

>  <TORSDO>
F 9

$$$$
=
 OpenBabel11062413213D

 46 52  0  0  1  0  0  0  0  0999 V2000
  186.4660  177.3490  136.5290 C   0  0  2  0  0  3  0  0  0  0  0  0
  186.5950  172.3000  137.5120 O   0  0  0  0  0  1  0  0  0  0  0  0
  188.0970  175.5330  137.6520 C   0  0  0  0  0  2  0  0  0  0  0  0
  185.5890  175.2650  135.4100 C   0  0  0  0  0  2  0  0  0  0  0  0
  186.4980  173.6600  137.1960 C   0  0  2  0  0  3  0  0  0  0  0  0
  185.5680  173.8460  135.9850 C   0  0  1  0  0  3  0  0  0  0  0  0
  189.0170  177.7320  136.7600 C   0  0  0  0  0  2  0  0  0  0  0  0
  188.7950  176.9070  135.5070 C   0  0  2  0  0  3  0  0  0  0  0  0
  185.3490  176.3110  136.4910 C   0  0  0  0  0  2  0  0  0  0  0  0
  187.8930  174.2010  136.9290 C   0  0  0  0  0  2  0  0  0  0  0  0
  187.8780  176.7370  136.7180 C   0  0  2  0  0  0  0  0  0  0  0  0
  184.5890  178.6330  137.7120 C   0  0  0  0  0  2  0  0  0  0  0  0
  184.4030  179.1530  139.1300 C   0  0  2  0  0  3  0  0  0  0  0  0
  184.0700  180.5050  139.0940 O   0  0  0  0  0  1  0  0  0  0  0  0
  186.6600  178.2180  138.9040 C   0  0  0  0  0  2  0  0  0  0  0  0
  186.0830  178.4510  137.5270 C   0  0  1  0  0  3  0  0  0  0  0  0
  185.7390  178.9780  139.8440 C   0  0  2  0  0  3  0  0  0  0  0  0
  184.3620  178.2530  143.0960 C   0  0  0  0  0  2  0  0  0  0  0  0
  186.6860  177.8270  144.0090 C   0  0  1  0  0  3  0  0  0  0  0  0
  185.3050  179.6520  144.8120 O   0  0  0  0  0  1  0  0  0  0  0  0
  185.5800  178.2780  141.1970 C   0  0  2  0  0  3  0  0  0  0  0  0
  184.8420  179.0920  142.0780 O   0  0  0  0  0  0  0  0  0  0  0  0
  185.2660  178.3390  144.3250 C   0  0  1  0  0  3  0  0  0  0  0  0
  186.9390  177.8490  141.7950 C   0  0  0  0  0  2  0  0  0  0  0  0
  187.2430  178.5720  142.9590 O   0  0  0  0  0  0  0  0  0  0  0  0
  187.6690  177.8100  147.6800 C   0  0  0  0  0  3  0  0  0  0  0  0
  187.5740  177.7670  145.2430 C   0  0  0  0  0  0  0  0  0  0  0  0
  189.6880  177.4360  146.4130 C   0  0  0  0  0  3  0  0  0  0  0  0
  189.0440  177.5880  147.6400 C   0  0  0  0  0  3  0  0  0  0  0  0
  188.9730  177.5160  145.2070 C   0  0  0  0  0  0  0  0  0  0  0  0
  186.9430  177.8900  146.4930 C   0  0  0  0  0  3  0  0  0  0  0  0
  189.6640  177.3360  143.9640 N   0  0  0  0  0  2  0  0  0  0  0  0
  189.7890  176.0540  143.2780 C   0  0  0  0  0  2  0  0  0  0  0  0
  191.1200  175.6280  143.3210 O   0  0  0  0  0  1  0  0  0  0  0  0
  184.1930  173.4730  136.3470 C   0  0  0  0  0  0  0  0  0  0  0  0
  183.0670  173.1470  136.6330 C   0  0  0  0  0  0  0  0  0  0  0  0
  181.7280  172.7410  136.9590 C   0  0  0  0  0  0  0  0  0  0  0  0
  179.8880  171.4780  137.1730 N   0  0  0  0  0  0  0  0  0  0  0  0
  180.6780  173.6240  137.5270 C   0  0  0  0  0  2  0  0  0  0  0  0
  179.5440  172.6510  137.5940 C   0  0  0  0  0  3  0  0  0  0  0  0
  181.2520  171.5230  136.7740 C   0  0  0  0  0  3  0  0  0  0  0  0
  189.7710  175.9050  135.4440 O   0  0  0  0  0  0  0  0  0  0  0  0
  192.0910  175.9280  134.9280 C   0  0  0  0  0  2  0  0  0  0  0  0
  190.9730  176.5610  135.7290 C   0  0  2  0  0  3  0  0  0  0  0  0
  192.9660  176.3600  137.1840 C   0  0  0  0  0  1  0  0  0  0  0  0
  191.9300  175.5870  136.3910 C   0  0  2  0  0  3  0  0  0  0  0  0
  1  9  1  1  0  0  0
  1 11  1  0  0  0  0
  1 16  1  0  0  0  0
  4  6  1  0  0  0  0
  4  9  1  0  0  0  0
  5  2  1  6  0  0  0
  6 35  1  1  0  0  0
  6  5  1  0  0  0  0
  8 42  1  1  0  0  0
  8 11  1  0  0  0  0
  8  7  1  0  0  0  0
 10  5  1  0  0  0  0
 10  3  1  0  0  0  0
 11  7  1  1  0  0  0
 11  3  1  0  0  0  0
 12 13  1  0  0  0  0
 13 14  1  6  0  0  0
 13 17  1  0  0  0  0
 16 12  1  1  0  0  0
 16 15  1  0  0  0  0
 17 15  1  6  0  0  0
 17 21  1  0  0  0  0
 18 23  1  0  0  0  0
 19 23  1  0  0  0  0
 19 27  1  1  0  0  0
 21 24  1  1  0  0  0
 21 22  1  0  0  0  0
 22 18  1  0  0  0  0
 23 20  1  6  0  0  0
 24 25  1  0  0  0  0
 25 19  1  0  0  0  0
 27 31  1  0  0  0  0
 28 29  2  0  0  0  0
 29 26  1  0  0  0  0
 30 27  2  0  0  0  0
 30 28  1  0  0  0  0
 31 26  2  0  0  0  0
 32 30  1  0  0  0  0
 33 34  1  0  0  0  0
 33 32  1  0  0  0  0
 35 36  3  0  0  0  0
 36 37  1  0  0  0  0
 37 39  1  0  0  0  0
 38 40  2  0  0  0  0
 39 40  1  0  0  0  0
 41 37  2  0  0  0  0
 41 38  1  0  0  0  0
 43 44  1  0  0  0  0
 43 46  1  0  0  0  0
 44 42  1  6  0  0  0
 44 46  1  0  0  0  0
 46 45  1  1  0  0  0
M  END
>  <MODEL>
6

>  <REMARK>
 VINA RESULT:      -7.4      2.926      6.509
  Name = 
  9 active torsions:
  status: ('A' for Active; 'I' for Inactive)
    1  A    between atoms: C_1  and  C_21
    2  A    between atoms: C_2  and  C_42
    3  A    between atoms: C_8  and  C_16
    4  A    between atoms: C_13  and  C_15
    5  A    between atoms: C_14  and  N_37
    6  A    between atoms: C_20  and  N_37
    7  A    between atoms: O_24  and  C_28
    8  A    between atoms: O_24  and  C_32
    9  A    between atoms: C_25  and  C_46
                            x       y       z     vdW  Elec       q    Type
                         _______ _______ _______ _____ _____    ______ ____

>  <TORSDO>
F 9

$$$$
=
 OpenBabel11062413213D

 46 52  0  0  1  0  0  0  0  0999 V2000
  187.4220  178.4120  143.4140 C   0  0  2  0  0  3  0  0  0  0  0  0
  190.4510  175.6290  140.3230 O   0  0  0  0  0  1  0  0  0  0  0  0
  188.9050  176.1730  143.4910 C   0  0  0  0  0  2  0  0  0  0  0  0
  189.0020  178.9020  141.5100 C   0  0  0  0  0  2  0  0  0  0  0  0
  189.6300  176.4450  141.1100 C   0  0  2  0  0  3  0  0  0  0  0  0
  189.6680  177.8870  140.5760 C   0  0  1  0  0  3  0  0  0  0  0  0
  188.3170  177.4190  145.6310 C   0  0  0  0  0  2  0  0  0  0  0  0
  189.4290  178.2550  145.0280 C   0  0  2  0  0  3  0  0  0  0  0  0
  187.5960  178.4650  141.9000 C   0  0  0  0  0  2  0  0  0  0  0  0
  190.0970  176.3610  142.5540 C   0  0  0  0  0  2  0  0  0  0  0  0
  188.4530  177.5000  144.1260 C   0  0  2  0  0  0  0  0  0  0  0  0
  185.2590  179.1970  144.5460 C   0  0  0  0  0  2  0  0  0  0  0  0
  183.7900  179.1390  144.1580 C   0  0  2  0  0  3  0  0  0  0  0  0
  183.0530  178.5710  145.1950 O   0  0  0  0  0  1  0  0  0  0  0  0
  185.1110  177.9190  142.4900 C   0  0  0  0  0  2  0  0  0  0  0  0
  185.9490  178.1190  143.7320 C   0  0  1  0  0  3  0  0  0  0  0  0
  183.6930  178.2540  142.9210 C   0  0  2  0  0  3  0  0  0  0  0  0
  180.7900  179.2820  141.0460 C   0  0  0  0  0  2  0  0  0  0  0  0
  182.0190  178.8640  138.8720 C   0  0  1  0  0  3  0  0  0  0  0  0
  180.0570  177.5840  139.5050 O   0  0  0  0  0  1  0  0  0  0  0  0
  182.8840  178.9160  141.8010 C   0  0  2  0  0  3  0  0  0  0  0  0
  181.5880  178.3670  141.7530 O   0  0  0  0  0  0  0  0  0  0  0  0
  180.6530  178.8500  139.5870 C   0  0  1  0  0  3  0  0  0  0  0  0
  183.6050  178.8380  140.4370 C   0  0  0  0  0  2  0  0  0  0  0  0
  182.9160  178.0130  139.5340 O   0  0  0  0  0  0  0  0  0  0  0  0
  181.0630  179.3420  135.2250 C   0  0  0  0  0  3  0  0  0  0  0  0
  181.9020  178.5740  137.3820 C   0  0  0  0  0  0  0  0  0  0  0  0
  182.3940  177.3330  135.3420 C   0  0  0  0  0  3  0  0  0  0  0  0
  181.6610  178.2530  134.5940 C   0  0  0  0  0  3  0  0  0  0  0  0
  182.5310  177.4780  136.7310 C   0  0  0  0  0  0  0  0  0  0  0  0
  181.1910  179.5040  136.6040 C   0  0  0  0  0  3  0  0  0  0  0  0
  183.3080  176.5230  137.4670 N   0  0  0  0  0  2  0  0  0  0  0  0
  182.9470  175.1180  137.6150 C   0  0  0  0  0  2  0  0  0  0  0  0
  181.6400  175.0190  138.1050 O   0  0  0  0  0  1  0  0  0  0  0  0
  189.0460  177.9450  139.2460 C   0  0  0  0  0  0  0  0  0  0  0  0
  188.5400  177.9720  138.1500 C   0  0  0  0  0  0  0  0  0  0  0  0
  187.9470  177.9820  136.8420 C   0  0  0  0  0  0  0  0  0  0  0  0
  187.7330  178.0410  134.6110 N   0  0  0  0  0  0  0  0  0  0  0  0
  186.4890  177.9900  136.5620 C   0  0  0  0  0  2  0  0  0  0  0  0
  186.5230  178.0400  135.0670 C   0  0  0  0  0  3  0  0  0  0  0  0
  188.6310  178.0040  135.7130 C   0  0  0  0  0  3  0  0  0  0  0  0
  190.6420  177.5730  145.1750 O   0  0  0  0  0  0  0  0  0  0  0  0
  191.1460  177.5290  147.4970 C   0  0  0  0  0  2  0  0  0  0  0  0
  190.4850  176.8130  146.3390 C   0  0  2  0  0  3  0  0  0  0  0  0
  191.6870  175.1400  147.7120 C   0  0  0  0  0  1  0  0  0  0  0  0
  191.8480  176.3660  146.8340 C   0  0  2  0  0  3  0  0  0  0  0  0
  1  9  1  6  0  0  0
  1 16  1  0  0  0  0
  1 11  1  0  0  0  0
  4  9  1  0  0  0  0
  5  2  1  6  0  0  0
  5 10  1  0  0  0  0
  6 35  1  6  0  0  0
  6  5  1  0  0  0  0
  6  4  1  0  0  0  0
  8 42  1  1  0  0  0
  8  7  1  0  0  0  0
 10  3  1  0  0  0  0
 11  3  1  6  0  0  0
 11  8  1  0  0  0  0
 11  7  1  0  0  0  0
 13 12  1  0  0  0  0
 13 14  1  1  0  0  0
 16 15  1  6  0  0  0
 16 12  1  0  0  0  0
 17 15  1  6  0  0  0
 17 13  1  0  0  0  0
 18 22  1  0  0  0  0
 19 27  1  6  0  0  0
 19 25  1  0  0  0  0
 19 23  1  0  0  0  0
 21 24  1  6  0  0  0
 21 17  1  0  0  0  0
 22 21  1  0  0  0  0
 23 20  1  1  0  0  0
 23 18  1  0  0  0  0
 25 24  1  0  0  0  0
 26 31  1  0  0  0  0
 28 30  2  0  0  0  0
 29 26  2  0  0  0  0
 29 28  1  0  0  0  0
 30 27  1  0  0  0  0
 30 32  1  0  0  0  0
 31 27  2  0  0  0  0
 32 33  1  0  0  0  0
 33 34  1  0  0  0  0
 36 35  3  0  0  0  0
 37 36  1  0  0  0  0
 38 40  2  0  0  0  0
 38 41  1  0  0  0  0
 39 37  1  0  0  0  0
 40 39  1  0  0  0  0
 41 37  2  0  0  0  0
 44 42  1  6  0  0  0
 44 46  1  0  0  0  0
 44 43  1  0  0  0  0
 46 43  1  0  0  0  0
 46 45  1  1  0  0  0
M  END
>  <MODEL>
7

>  <REMARK>
 VINA RESULT:      -7.4      2.588      9.103
  Name = 
  9 active torsions:
  status: ('A' for Active; 'I' for Inactive)
    1  A    between atoms: C_1  and  C_21
    2  A    between atoms: C_2  and  C_42
    3  A    between atoms: C_8  and  C_16
    4  A    between atoms: C_13  and  C_15
    5  A    between atoms: C_14  and  N_37
    6  A    between atoms: C_20  and  N_37
    7  A    between atoms: O_24  and  C_28
    8  A    between atoms: O_24  and  C_32
    9  A    between atoms: C_25  and  C_46
                            x       y       z     vdW  Elec       q    Type
                         _______ _______ _______ _____ _____    ______ ____

>  <TORSDO>
F 9

$$$$
=
 OpenBabel11062413213D

 46 52  0  0  1  0  0  0  0  0999 V2000
  189.1520  177.0240  142.8570 C   0  0  2  0  0  3  0  0  0  0  0  0
  186.0550  179.3800  146.2230 O   0  0  0  0  0  1  0  0  0  0  0  0
  189.3230  178.6280  145.0060 C   0  0  0  0  0  2  0  0  0  0  0  0
  186.9200  176.5230  143.9200 C   0  0  0  0  0  2  0  0  0  0  0  0
  186.8350  178.6960  145.2840 C   0  0  2  0  0  3  0  0  0  0  0  0
  186.0630  177.4710  144.7630 C   0  0  1  0  0  3  0  0  0  0  0  0
  191.2890  177.1670  144.3140 C   0  0  0  0  0  2  0  0  0  0  0  0
  190.3440  176.1920  144.9900 C   0  0  2  0  0  3  0  0  0  0  0  0
  187.6480  177.2660  142.8060 C   0  0  0  0  0  2  0  0  0  0  0  0
  188.1520  178.3040  145.9340 C   0  0  0  0  0  2  0  0  0  0  0  0
  189.7950  177.3920  144.2190 C   0  0  2  0  0  0  0  0  0  0  0  0
  190.6690  176.7310  140.8110 C   0  0  0  0  0  2  0  0  0  0  0  0
  190.6110  177.2410  139.3790 C   0  0  2  0  0  3  0  0  0  0  0  0
  191.8180  177.8560  139.0510 O   0  0  0  0  0  1  0  0  0  0  0  0
  188.7820  178.2480  140.6670 C   0  0  0  0  0  2  0  0  0  0  0  0
  189.7990  177.6700  141.6240 C   0  0  1  0  0  3  0  0  0  0  0  0
  189.4850  178.2670  139.3190 C   0  0  2  0  0  3  0  0  0  0  0  0
  186.5180  178.5650  137.2940 C   0  0  0  0  0  2  0  0  0  0  0  0
  186.5570  176.0760  136.8310 C   0  0  1  0  0  3  0  0  0  0  0  0
  184.7490  177.1240  138.0600 O   0  0  0  0  0  1  0  0  0  0  0  0
  188.5250  178.0010  138.1570 C   0  0  2  0  0  3  0  0  0  0  0  0
  187.2250  178.4210  138.4990 O   0  0  0  0  0  0  0  0  0  0  0  0
  185.6710  177.3220  137.0240 C   0  0  1  0  0  3  0  0  0  0  0  0
  188.5610  176.5260  137.6960 C   0  0  0  0  0  2  0  0  0  0  0  0
  187.3510  175.8690  137.9690 O   0  0  0  0  0  0  0  0  0  0  0  0
  183.7480  174.0050  135.3280 C   0  0  0  0  0  3  0  0  0  0  0  0
  185.7580  174.8470  136.4230 C   0  0  0  0  0  0  0  0  0  0  0  0
  185.4110  172.4510  136.1290 C   0  0  0  0  0  3  0  0  0  0  0  0
  184.1850  172.6940  135.5110 C   0  0  0  0  0  3  0  0  0  0  0  0
  186.2120  173.5090  136.5860 C   0  0  0  0  0  0  0  0  0  0  0  0
  184.5320  175.0680  135.7720 C   0  0  0  0  0  3  0  0  0  0  0  0
  187.4760  173.2240  137.2000 N   0  0  0  0  0  2  0  0  0  0  0  0
  188.7060  172.9690  136.4580 C   0  0  0  0  0  2  0  0  0  0  0  0
  189.8050  173.3780  137.2180 O   0  0  0  0  0  1  0  0  0  0  0  0
  184.8910  177.9080  143.9920 C   0  0  0  0  0  0  0  0  0  0  0  0
  183.9160  178.2530  143.3700 C   0  0  0  0  0  0  0  0  0  0  0  0
  182.7440  178.6450  142.6390 C   0  0  0  0  0  0  0  0  0  0  0  0
  181.3650  179.1090  140.9320 N   0  0  0  0  0  0  0  0  0  0  0  0
  181.4820  179.1420  143.2440 C   0  0  0  0  0  2  0  0  0  0  0  0
  180.6970  179.4080  141.9980 C   0  0  0  0  0  3  0  0  0  0  0  0
  182.6460  178.6300  141.3220 C   0  0  0  0  0  3  0  0  0  0  0  0
  190.3660  176.4220  146.3710 O   0  0  0  0  0  0  0  0  0  0  0  0
  192.2670  175.0140  146.6000 C   0  0  0  0  0  2  0  0  0  0  0  0
  191.7230  176.4230  146.7100 C   0  0  2  0  0  3  0  0  0  0  0  0
  193.2150  176.0030  148.6410 C   0  0  0  0  0  1  0  0  0  0  0  0
  191.9280  175.5830  147.9580 C   0  0  2  0  0  3  0  0  0  0  0  0
  1  9  1  1  0  0  0
  1 11  1  0  0  0  0
  3 10  1  0  0  0  0
  4  6  1  0  0  0  0
  5 10  1  0  0  0  0
  5  2  1  1  0  0  0
  6 35  1  6  0  0  0
  6  5  1  0  0  0  0
  7  8  1  0  0  0  0
  8 42  1  1  0  0  0
  9  4  1  0  0  0  0
 11  7  1  6  0  0  0
 11  8  1  0  0  0  0
 11  3  1  0  0  0  0
 12 16  1  0  0  0  0
 13 14  1  1  0  0  0
 13 12  1  0  0  0  0
 16 15  1  6  0  0  0
 16  1  1  0  0  0  0
 17 13  1  0  0  0  0
 17 15  1  1  0  0  0
 18 22  1  0  0  0  0
 19 27  1  1  0  0  0
 19 23  1  0  0  0  0
 19 25  1  0  0  0  0
 21 24  1  1  0  0  0
 21 22  1  0  0  0  0
 21 17  1  0  0  0  0
 23 18  1  0  0  0  0
 23 20  1  1  0  0  0
 24 25  1  0  0  0  0
 26 29  2  0  0  0  0
 26 31  1  0  0  0  0
 27 30  1  0  0  0  0
 28 30  2  0  0  0  0
 29 28  1  0  0  0  0
 30 32  1  0  0  0  0
 31 27  2  0  0  0  0
 33 32  1  0  0  0  0
 33 34  1  0  0  0  0
 36 35  3  0  0  0  0
 37 39  1  0  0  0  0
 37 36  1  0  0  0  0
 38 41  1  0  0  0  0
 38 40  2  0  0  0  0
 40 39  1  0  0  0  0
 41 37  2  0  0  0  0
 43 44  1  0  0  0  0
 43 46  1  0  0  0  0
 44 42  1  6  0  0  0
 44 46  1  0  0  0  0
 46 45  1  1  0  0  0
M  END
>  <MODEL>
8

>  <REMARK>
 VINA RESULT:      -7.3      2.983     10.547
  Name = 
  9 active torsions:
  status: ('A' for Active; 'I' for Inactive)
    1  A    between atoms: C_1  and  C_21
    2  A    between atoms: C_2  and  C_42
    3  A    between atoms: C_8  and  C_16
    4  A    between atoms: C_13  and  C_15
    5  A    between atoms: C_14  and  N_37
    6  A    between atoms: C_20  and  N_37
    7  A    between atoms: O_24  and  C_28
    8  A    between atoms: O_24  and  C_32
    9  A    between atoms: C_25  and  C_46
                            x       y       z     vdW  Elec       q    Type
                         _______ _______ _______ _____ _____    ______ ____

>  <TORSDO>
F 9

$$$$
=
 OpenBabel11062413213D

 46 52  0  0  1  0  0  0  0  0999 V2000
  189.1580  176.9620  142.8790 C   0  0  2  0  0  3  0  0  0  0  0  0
  186.1080  179.4400  146.2010 O   0  0  0  0  0  1  0  0  0  0  0  0
  189.3590  178.6320  144.9750 C   0  0  0  0  0  2  0  0  0  0  0  0
  186.9350  176.5070  143.9800 C   0  0  0  0  0  2  0  0  0  0  0  0
  186.8750  178.7220  145.2760 C   0  0  2  0  0  3  0  0  0  0  0  0
  186.0920  177.4860  144.8020 C   0  0  1  0  0  3  0  0  0  0  0  0
  191.3100  177.1390  144.3080 C   0  0  0  0  0  2  0  0  0  0  0  0
  190.3680  176.1920  145.0250 C   0  0  2  0  0  3  0  0  0  0  0  0
  187.6540  177.2100  142.8360 C   0  0  0  0  0  2  0  0  0  0  0  0
  188.1960  178.3430  145.9240 C   0  0  0  0  0  2  0  0  0  0  0  0
  189.8170  177.3700  144.2220 C   0  0  2  0  0  0  0  0  0  0  0  0
  190.5530  176.5690  140.7640 C   0  0  0  0  0  2  0  0  0  0  0  0
  190.4680  177.0910  139.3380 C   0  0  2  0  0  3  0  0  0  0  0  0
  191.7020  177.6150  138.9570 O   0  0  0  0  0  1  0  0  0  0  0  0
  188.7820  178.2260  140.7120 C   0  0  0  0  0  2  0  0  0  0  0  0
  189.7940  177.5660  141.6190 C   0  0  1  0  0  3  0  0  0  0  0  0
  189.4220  178.2000  139.3340 C   0  0  2  0  0  3  0  0  0  0  0  0
  186.3350  178.6300  137.5230 C   0  0  0  0  0  2  0  0  0  0  0  0
  186.3490  176.1820  136.8740 C   0  0  1  0  0  3  0  0  0  0  0  0
  184.6180  177.1260  138.2870 O   0  0  0  0  0  1  0  0  0  0  0  0
  188.3920  178.0150  138.2160 C   0  0  2  0  0  3  0  0  0  0  0  0
  187.1150  178.4010  138.6680 O   0  0  0  0  0  0  0  0  0  0  0  0
  185.4740  177.4050  137.2130 C   0  0  1  0  0  3  0  0  0  0  0  0
  188.4020  176.5790  137.6460 C   0  0  0  0  0  2  0  0  0  0  0  0
  187.2120  175.8960  137.9420 O   0  0  0  0  0  0  0  0  0  0  0  0
  184.9990  172.6310  136.7990 C   0  0  0  0  0  3  0  0  0  0  0  0
  185.5270  174.9820  136.4250 C   0  0  0  0  0  0  0  0  0  0  0  0
  183.7920  173.8740  135.1200 C   0  0  0  0  0  3  0  0  0  0  0  0
  184.0310  172.6790  135.7980 C   0  0  0  0  0  3  0  0  0  0  0  0
  184.5220  175.0340  135.4220 C   0  0  0  0  0  0  0  0  0  0  0  0
  185.7320  173.7740  137.1140 C   0  0  0  0  0  3  0  0  0  0  0  0
  184.2370  176.2510  134.7190 N   0  0  0  0  0  2  0  0  0  0  0  0
  182.9040  176.8320  134.6000 C   0  0  0  0  0  2  0  0  0  0  0  0
  182.1790  176.5820  135.7690 O   0  0  0  0  0  1  0  0  0  0  0  0
  184.9140  177.9050  144.0300 C   0  0  0  0  0  0  0  0  0  0  0  0
  183.9530  178.2360  143.3790 C   0  0  0  0  0  0  0  0  0  0  0  0
  182.8200  178.6210  142.5840 C   0  0  0  0  0  0  0  0  0  0  0  0
  181.5300  179.0660  140.8050 N   0  0  0  0  0  0  0  0  0  0  0  0
  181.5300  179.1270  143.1190 C   0  0  0  0  0  2  0  0  0  0  0  0
  180.8090  179.3790  141.8320 C   0  0  0  0  0  3  0  0  0  0  0  0
  182.7890  178.5900  141.2650 C   0  0  0  0  0  3  0  0  0  0  0  0
  190.4060  176.4650  146.3970 O   0  0  0  0  0  0  0  0  0  0  0  0
  192.1590  174.9020  146.7610 C   0  0  0  0  0  2  0  0  0  0  0  0
  191.7560  176.3610  146.7440 C   0  0  2  0  0  3  0  0  0  0  0  0
  193.2040  175.9690  148.7140 C   0  0  0  0  0  1  0  0  0  0  0  0
  191.8810  175.6190  148.0620 C   0  0  2  0  0  3  0  0  0  0  0  0
  1  9  1  1  0  0  0
  1 11  1  0  0  0  0
  3 10  1  0  0  0  0
  4  6  1  0  0  0  0
  5 10  1  0  0  0  0
  5  2  1  1  0  0  0
  6 35  1  6  0  0  0
  6  5  1  0  0  0  0
  7  8  1  0  0  0  0
  8 42  1  1  0  0  0
  9  4  1  0  0  0  0
 11  7  1  6  0  0  0
 11  3  1  0  0  0  0
 11  8  1  0  0  0  0
 12 16  1  0  0  0  0
 13 14  1  1  0  0  0
 13 12  1  0  0  0  0
 16 15  1  6  0  0  0
 16  1  1  0  0  0  0
 17 13  1  0  0  0  0
 17 15  1  1  0  0  0
 18 22  1  0  0  0  0
 19 27  1  1  0  0  0
 19 23  1  0  0  0  0
 19 25  1  0  0  0  0
 21 24  1  1  0  0  0
 21 22  1  0  0  0  0
 21 17  1  0  0  0  0
 23 18  1  0  0  0  0
 23 20  1  1  0  0  0
 24 25  1  0  0  0  0
 26 31  1  0  0  0  0
 27 31  2  0  0  0  0
 28 30  2  0  0  0  0
 28 29  1  0  0  0  0
 29 26  2  0  0  0  0
 30 27  1  0  0  0  0
 32 30  1  0  0  0  0
 33 32  1  0  0  0  0
 33 34  1  0  0  0  0
 36 35  3  0  0  0  0
 37 39  1  0  0  0  0
 37 36  1  0  0  0  0
 38 41  1  0  0  0  0
 38 40  2  0  0  0  0
 40 39  1  0  0  0  0
 41 37  2  0  0  0  0
 43 46  1  0  0  0  0
 44 42  1  6  0  0  0
 44 43  1  0  0  0  0
 44 46  1  0  0  0  0
 46 45  1  1  0  0  0
M  END
>  <MODEL>
9

>  <REMARK>
 VINA RESULT:      -7.2      2.908     10.632
  Name = 
  9 active torsions:
  status: ('A' for Active; 'I' for Inactive)
    1  A    between atoms: C_1  and  C_21
    2  A    between atoms: C_2  and  C_42
    3  A    between atoms: C_8  and  C_16
    4  A    between atoms: C_13  and  C_15
    5  A    between atoms: C_14  and  N_37
    6  A    between atoms: C_20  and  N_37
    7  A    between atoms: O_24  and  C_28
    8  A    between atoms: O_24  and  C_32
    9  A    between atoms: C_25  and  C_46
                            x       y       z     vdW  Elec       q    Type
                         _______ _______ _______ _____ _____    ______ ____

>  <TORSDO>
F 9

$$$$
