=
 OpenBabel11062416183D

 29 31  0  0  1  0  0  0  0  0999 V2000
  188.4190  178.2950  145.3390 C   0  0  2  0  0  3  0  0  0  0  0  0
  187.1930  177.8450  146.1140 C   0  0  2  0  0  3  0  0  0  0  0  0
  187.5410  177.1900  144.7680 C   0  0  1  0  0  3  0  0  0  0  0  0
  186.1520  178.9570  146.0620 C   0  0  0  0  0  1  0  0  0  0  0  0
  185.4090  177.7380  143.6750 C   0  0  0  0  0  3  0  0  0  0  0  0
  187.4030  177.8280  142.2440 C   0  0  0  0  0  2  0  0  0  0  0  0
  185.1750  178.6320  141.4020 C   0  0  0  0  0  0  0  0  0  0  0  0
  184.5980  178.1490  142.5130 C   0  0  0  0  0  3  0  0  0  0  0  0
  186.7430  177.6700  143.5870 C   0  0  0  0  0  0  0  0  0  0  0  0
  186.6680  178.8640  141.3880 C   0  0  0  0  0  2  0  0  0  0  0  0
  184.3600  179.0220  140.2800 N   0  0  0  0  0  0  0  0  0  0  0  0
  184.7260  180.0920  139.5320 O   0  0  0  0  0  1  0  0  0  0  0  0
  183.1290  178.3080  139.9390 C   0  0  0  0  0  0  0  0  0  0  0  0
  182.7950  178.5340  138.6150 F   0  0  0  0  0  0  0  0  0  0  0  0
  182.0910  178.7520  140.7400 F   0  0  0  0  0  0  0  0  0  0  0  0
  183.3070  176.9490  140.1260 F   0  0  0  0  0  0  0  0  0  0  0  0
  190.7800  177.5770  145.0390 C   0  0  0  0  0  3  0  0  0  0  0  0
  189.7180  177.7090  145.8450 C   0  0  0  0  0  0  0  0  0  0  0  0
  189.1140  175.9220  147.7490 O   0  0  0  0  0  0  0  0  0  0  0  0
  191.5820  176.8700  147.8500 N   0  0  0  0  0  1  0  0  0  0  0  0
  189.4190  178.2400  148.4610 O   0  0  0  0  0  0  0  0  0  0  0  0
  189.9130  177.1750  147.5220 S   0  0  0  0  0  0  0  0  0  0  0  0
  191.1860  177.0320  142.5940 N   0  0  0  0  0  2  0  0  0  0  0  0
  190.9010  177.9840  143.6270 C   0  0  0  0  0  0  0  0  0  0  0  0
  190.6480  179.2140  143.3190 N   0  0  0  0  0  2  0  0  0  0  0  0
  191.2730  177.3830  141.1840 C   0  0  0  0  0  2  0  0  0  0  0  0
  190.6700  176.0100  139.3360 O   0  0  0  0  0  0  0  0  0  0  0  0
  190.1100  177.2620  139.0280 C   0  0  0  0  0  2  0  0  0  0  0  0
  190.1330  176.7420  140.4130 C   0  0  2  0  0  3  0  0  0  0  0  0
  1 18  1  1  0  0  0
  1  2  1  0  0  0  0
  2  4  1  6  0  0  0
  3  9  1  6  0  0  0
  3  1  1  0  0  0  0
  3  2  1  0  0  0  0
  6  9  1  0  0  0  0
  7  8  2  0  0  0  0
  8  5  1  0  0  0  0
  9  5  2  0  0  0  0
 10  7  1  0  0  0  0
 10  6  1  0  0  0  0
 11  7  1  0  0  0  0
 12 11  1  0  0  0  0
 13 16  1  0  0  0  0
 13 11  1  0  0  0  0
 13 15  1  0  0  0  0
 14 13  1  0  0  0  0
 17 18  2  0  0  0  0
 18 22  1  0  0  0  0
 22 19  2  0  0  0  0
 22 20  1  0  0  0  0
 22 21  2  0  0  0  0
 23 24  1  0  0  0  0
 24 17  1  0  0  0  0
 25 24  2  0  0  0  0
 26 23  1  0  0  0  0
 27 29  1  0  0  0  0
 28 27  1  0  0  0  0
 28 29  1  0  0  0  0
 29 26  1  1  0  0  0
M  END
>  <MODEL>
1

>  <REMARK>
 VINA RESULT:      -7.9      0.000      0.000
  Name = 
  8 active torsions:
  status: ('A' for Active; 'I' for Inactive)
    1  A    between atoms: C_1  and  N_17
    2  A    between atoms: C_2  and  C_8
    3  A    between atoms: N_5  and  C_27
    4  A    between atoms: C_7  and  C_10
    5  A    between atoms: C_8  and  S_23
    6  A    between atoms: C_11  and  C_22
    7  A    between atoms: C_13  and  N_17
    8  A    between atoms: C_27  and  C_29
                            x       y       z     vdW  Elec       q    Type
                         _______ _______ _______ _____ _____    ______ ____

>  <TORSDO>
F 8

$$$$
=
 OpenBabel11062416183D

 29 31  0  0  1  0  0  0  0  0999 V2000
  187.6220  178.2610  145.0920 C   0  0  2  0  0  3  0  0  0  0  0  0
  186.3620  178.2420  145.9400 C   0  0  2  0  0  3  0  0  0  0  0  0
  186.4630  177.3650  144.6810 C   0  0  1  0  0  3  0  0  0  0  0  0
  185.6410  179.5730  145.7650 C   0  0  0  0  0  1  0  0  0  0  0  0
  186.4760  178.3260  142.4190 C   0  0  0  0  0  3  0  0  0  0  0  0
  184.2800  178.1750  143.5100 C   0  0  0  0  0  2  0  0  0  0  0  0
  184.4770  178.8530  141.0970 C   0  0  0  0  0  0  0  0  0  0  0  0
  185.8100  178.9050  141.2360 C   0  0  0  0  0  3  0  0  0  0  0  0
  185.7580  177.8940  143.4630 C   0  0  0  0  0  0  0  0  0  0  0  0
  183.6590  178.0900  142.1130 C   0  0  0  0  0  2  0  0  0  0  0  0
  183.8530  179.4300  139.9340 N   0  0  0  0  0  0  0  0  0  0  0  0
  184.5590  180.2880  139.1560 O   0  0  0  0  0  1  0  0  0  0  0  0
  182.4640  179.1340  139.5800 C   0  0  0  0  0  0  0  0  0  0  0  0
  182.1050  179.8190  138.4320 F   0  0  0  0  0  0  0  0  0  0  0  0
  181.6240  179.5210  140.6100 F   0  0  0  0  0  0  0  0  0  0  0  0
  182.3170  177.7770  139.3510 F   0  0  0  0  0  0  0  0  0  0  0  0
  189.5180  176.6730  144.8420 C   0  0  0  0  0  3  0  0  0  0  0  0
  188.7510  177.4200  145.6460 C   0  0  0  0  0  0  0  0  0  0  0  0
  188.2380  176.3810  148.0620 O   0  0  0  0  0  0  0  0  0  0  0  0
  190.7820  176.9450  147.6080 N   0  0  0  0  0  1  0  0  0  0  0  0
  188.8890  178.7350  147.9850 O   0  0  0  0  0  0  0  0  0  0  0  0
  189.1260  177.3800  147.3760 S   0  0  0  0  0  0  0  0  0  0  0  0
  190.2790  177.3730  142.5250 N   0  0  0  0  0  2  0  0  0  0  0  0
  189.4540  176.5640  143.3720 C   0  0  0  0  0  0  0  0  0  0  0  0
  188.7020  175.6470  142.8580 N   0  0  0  0  0  2  0  0  0  0  0  0
  190.2790  177.2690  141.0720 C   0  0  0  0  0  2  0  0  0  0  0  0
  188.4310  177.4440  139.5840 O   0  0  0  0  0  0  0  0  0  0  0  0
  189.4060  178.2840  139.0180 C   0  0  0  0  0  2  0  0  0  0  0  0
  189.2220  178.1850  140.4820 C   0  0  2  0  0  3  0  0  0  0  0  0
  1 18  1  1  0  0  0
  1  2  1  0  0  0  0
  2  4  1  6  0  0  0
  3  9  1  6  0  0  0
  3  1  1  0  0  0  0
  3  2  1  0  0  0  0
  5  9  2  0  0  0  0
  7  8  2  0  0  0  0
  7 10  1  0  0  0  0
  8  5  1  0  0  0  0
  9  6  1  0  0  0  0
 10  6  1  0  0  0  0
 11  7  1  0  0  0  0
 12 11  1  0  0  0  0
 13 11  1  0  0  0  0
 13 15  1  0  0  0  0
 14 13  1  0  0  0  0
 16 13  1  0  0  0  0
 17 18  2  0  0  0  0
 18 22  1  0  0  0  0
 22 20  1  0  0  0  0
 22 21  2  0  0  0  0
 22 19  2  0  0  0  0
 23 24  1  0  0  0  0
 24 17  1  0  0  0  0
 25 24  2  0  0  0  0
 26 23  1  0  0  0  0
 27 29  1  0  0  0  0
 28 27  1  0  0  0  0
 28 29  1  0  0  0  0
 29 26  1  1  0  0  0
M  END
>  <MODEL>
2

>  <REMARK>
 VINA RESULT:      -7.8      1.260      1.681
  Name = 
  8 active torsions:
  status: ('A' for Active; 'I' for Inactive)
    1  A    between atoms: C_1  and  N_17
    2  A    between atoms: C_2  and  C_8
    3  A    between atoms: N_5  and  C_27
    4  A    between atoms: C_7  and  C_10
    5  A    between atoms: C_8  and  S_23
    6  A    between atoms: C_11  and  C_22
    7  A    between atoms: C_13  and  N_17
    8  A    between atoms: C_27  and  C_29
                            x       y       z     vdW  Elec       q    Type
                         _______ _______ _______ _____ _____    ______ ____

>  <TORSDO>
F 8

$$$$
=
 OpenBabel11062416183D

 29 31  0  0  1  0  0  0  0  0999 V2000
  188.5410  177.1720  140.0410 C   0  0  2  0  0  3  0  0  0  0  0  0
  188.2060  178.6420  140.2170 C   0  0  2  0  0  3  0  0  0  0  0  0
  189.5260  178.0770  140.7670 C   0  0  1  0  0  3  0  0  0  0  0  0
  187.0660  178.7610  141.2210 C   0  0  0  0  0  1  0  0  0  0  0  0
  190.2030  178.6330  143.0630 C   0  0  0  0  0  3  0  0  0  0  0  0
  189.0610  176.4780  142.7720 C   0  0  0  0  0  2  0  0  0  0  0  0
  189.5740  177.3650  145.0680 C   0  0  0  0  0  0  0  0  0  0  0  0
  190.2900  178.3520  144.5090 C   0  0  0  0  0  3  0  0  0  0  0  0
  189.5480  177.8010  142.2450 C   0  0  0  0  0  0  0  0  0  0  0  0
  188.5800  176.6060  144.2200 C   0  0  0  0  0  2  0  0  0  0  0  0
  189.6810  177.1100  146.4810 N   0  0  0  0  0  0  0  0  0  0  0  0
  190.7380  176.4020  146.9520 O   0  0  0  0  0  1  0  0  0  0  0  0
  188.6640  177.5750  147.4260 C   0  0  0  0  0  0  0  0  0  0  0  0
  187.6630  178.2560  146.7560 F   0  0  0  0  0  0  0  0  0  0  0  0
  189.2380  178.4280  148.3520 F   0  0  0  0  0  0  0  0  0  0  0  0
  188.1030  176.4930  148.0810 F   0  0  0  0  0  0  0  0  0  0  0  0
  188.3810  177.0950  137.5610 C   0  0  0  0  0  3  0  0  0  0  0  0
  189.0790  176.8220  138.6710 C   0  0  0  0  0  0  0  0  0  0  0  0
  191.3450  175.9230  139.7850 O   0  0  0  0  0  0  0  0  0  0  0  0
  190.4460  174.4750  137.7620 N   0  0  0  0  0  1  0  0  0  0  0  0
  191.5140  176.8700  137.5380 O   0  0  0  0  0  0  0  0  0  0  0  0
  190.6550  176.0440  138.4540 S   0  0  0  0  0  0  0  0  0  0  0  0
  185.8520  177.1040  137.7720 N   0  0  0  0  0  2  0  0  0  0  0  0
  187.0770  177.7770  137.4560 C   0  0  0  0  0  0  0  0  0  0  0  0
  187.0650  179.0360  137.1650 N   0  0  0  0  0  2  0  0  0  0  0  0
  184.5480  177.7500  137.7220 C   0  0  0  0  0  2  0  0  0  0  0  0
  182.7790  178.5910  139.0740 O   0  0  0  0  0  0  0  0  0  0  0  0
  183.7390  179.6180  139.0890 C   0  0  0  0  0  2  0  0  0  0  0  0
  184.1290  178.1910  139.1130 C   0  0  2  0  0  3  0  0  0  0  0  0
  1 18  1  6  0  0  0
  1  2  1  0  0  0  0
  1  3  1  0  0  0  0
  2  3  1  0  0  0  0
  2  4  1  1  0  0  0
  3  9  1  1  0  0  0
  5  8  1  0  0  0  0
  6 10  1  0  0  0  0
  7 11  1  0  0  0  0
  8  7  2  0  0  0  0
  9  6  1  0  0  0  0
  9  5  2  0  0  0  0
 10  7  1  0  0  0  0
 11 12  1  0  0  0  0
 11 13  1  0  0  0  0
 13 16  1  0  0  0  0
 13 15  1  0  0  0  0
 14 13  1  0  0  0  0
 17 18  2  0  0  0  0
 20 22  1  0  0  0  0
 21 22  2  0  0  0  0
 22 18  1  0  0  0  0
 22 19  2  0  0  0  0
 24 17  1  0  0  0  0
 24 23  1  0  0  0  0
 25 24  2  0  0  0  0
 26 23  1  0  0  0  0
 27 28  1  0  0  0  0
 27 29  1  0  0  0  0
 28 29  1  0  0  0  0
 29 26  1  6  0  0  0
M  END
>  <MODEL>
3

>  <REMARK>
 VINA RESULT:      -7.6      4.055      7.553
  Name = 
  8 active torsions:
  status: ('A' for Active; 'I' for Inactive)
    1  A    between atoms: C_1  and  N_17
    2  A    between atoms: C_2  and  C_8
    3  A    between atoms: N_5  and  C_27
    4  A    between atoms: C_7  and  C_10
    5  A    between atoms: C_8  and  S_23
    6  A    between atoms: C_11  and  C_22
    7  A    between atoms: C_13  and  N_17
    8  A    between atoms: C_27  and  C_29
                            x       y       z     vdW  Elec       q    Type
                         _______ _______ _______ _____ _____    ______ ____

>  <TORSDO>
F 8

$$$$
=
 OpenBabel11062416183D

 29 31  0  0  1  0  0  0  0  0999 V2000
  190.3370  177.6020  139.8130 C   0  0  2  0  0  3  0  0  0  0  0  0
  191.2370  176.9540  140.8510 C   0  0  2  0  0  3  0  0  0  0  0  0
  189.7930  176.4620  140.6620 C   0  0  1  0  0  3  0  0  0  0  0  0
  191.4570  177.9450  141.9870 C   0  0  0  0  0  1  0  0  0  0  0  0
  188.6390  176.2750  142.8230 C   0  0  0  0  0  3  0  0  0  0  0  0
  187.8240  178.0380  141.3200 C   0  0  0  0  0  2  0  0  0  0  0  0
  186.9810  177.8670  143.6820 C   0  0  0  0  0  0  0  0  0  0  0  0
  187.6310  176.7010  143.8130 C   0  0  0  0  0  3  0  0  0  0  0  0
  188.8020  176.9520  141.6800 C   0  0  0  0  0  0  0  0  0  0  0  0
  187.3710  178.8060  142.5650 C   0  0  0  0  0  2  0  0  0  0  0  0
  185.9990  178.2560  144.6610 N   0  0  0  0  0  0  0  0  0  0  0  0
  186.2980  178.1560  145.9810 O   0  0  0  0  0  1  0  0  0  0  0  0
  184.6720  178.7350  144.2720 C   0  0  0  0  0  0  0  0  0  0  0  0
  183.7800  178.5800  145.3180 F   0  0  0  0  0  0  0  0  0  0  0  0
  184.2130  178.0130  143.1840 F   0  0  0  0  0  0  0  0  0  0  0  0
  184.7370  180.0770  143.9390 F   0  0  0  0  0  0  0  0  0  0  0  0
  189.6960  177.3660  137.4230 C   0  0  0  0  0  3  0  0  0  0  0  0
  190.5790  177.1210  138.4000 C   0  0  0  0  0  0  0  0  0  0  0  0
  192.2770  176.3480  136.4760 O   0  0  0  0  0  0  0  0  0  0  0  0
  193.3980  176.8380  138.8220 N   0  0  0  0  0  1  0  0  0  0  0  0
  191.8650  174.7650  138.2910 O   0  0  0  0  0  0  0  0  0  0  0  0
  192.0370  176.2200  137.9550 S   0  0  0  0  0  0  0  0  0  0  0  0
  187.1980  177.4960  137.8500 N   0  0  0  0  0  2  0  0  0  0  0  0
  188.4370  178.1300  137.5100 C   0  0  0  0  0  0  0  0  0  0  0  0
  188.4880  179.4140  137.3690 N   0  0  0  0  0  2  0  0  0  0  0  0
  185.9410  178.2170  137.9880 C   0  0  0  0  0  2  0  0  0  0  0  0
  183.6250  178.0460  137.4700 O   0  0  0  0  0  0  0  0  0  0  0  0
  183.7230  177.5210  138.7700 C   0  0  0  0  0  2  0  0  0  0  0  0
  184.7710  177.2790  137.7540 C   0  0  2  0  0  3  0  0  0  0  0  0
  1 18  1  6  0  0  0
  1  3  1  0  0  0  0
  1  2  1  0  0  0  0
  2  4  1  1  0  0  0
  3  2  1  0  0  0  0
  3  9  1  1  0  0  0
  5  8  1  0  0  0  0
  6  9  1  0  0  0  0
  6 10  1  0  0  0  0
  7  8  2  0  0  0  0
  7 11  1  0  0  0  0
  9  5  2  0  0  0  0
 10  7  1  0  0  0  0
 11 12  1  0  0  0  0
 13 11  1  0  0  0  0
 13 14  1  0  0  0  0
 15 13  1  0  0  0  0
 16 13  1  0  0  0  0
 17 24  1  0  0  0  0
 17 18  2  0  0  0  0
 19 22  2  0  0  0  0
 22 21  2  0  0  0  0
 22 18  1  0  0  0  0
 22 20  1  0  0  0  0
 23 26  1  0  0  0  0
 24 23  1  0  0  0  0
 25 24  2  0  0  0  0
 27 29  1  0  0  0  0
 27 28  1  0  0  0  0
 29 26  1  1  0  0  0
 29 28  1  0  0  0  0
M  END
>  <MODEL>
4

>  <REMARK>
 VINA RESULT:      -7.6      3.470      6.490
  Name = 
  8 active torsions:
  status: ('A' for Active; 'I' for Inactive)
    1  A    between atoms: C_1  and  N_17
    2  A    between atoms: C_2  and  C_8
    3  A    between atoms: N_5  and  C_27
    4  A    between atoms: C_7  and  C_10
    5  A    between atoms: C_8  and  S_23
    6  A    between atoms: C_11  and  C_22
    7  A    between atoms: C_13  and  N_17
    8  A    between atoms: C_27  and  C_29
                            x       y       z     vdW  Elec       q    Type
                         _______ _______ _______ _____ _____    ______ ____

>  <TORSDO>
F 8

$$$$
=
 OpenBabel11062416183D

 29 31  0  0  1  0  0  0  0  0999 V2000
  187.4360  178.3600  145.7010 C   0  0  2  0  0  3  0  0  0  0  0  0
  186.5610  178.4500  146.9390 C   0  0  2  0  0  3  0  0  0  0  0  0
  186.1890  177.4920  145.7950 C   0  0  1  0  0  3  0  0  0  0  0  0
  185.8500  179.7970  146.9330 C   0  0  0  0  0  1  0  0  0  0  0  0
  183.8810  178.2110  145.3550 C   0  0  0  0  0  3  0  0  0  0  0  0
  185.3190  177.9490  143.3810 C   0  0  0  0  0  2  0  0  0  0  0  0
  183.0220  178.9520  143.1800 C   0  0  0  0  0  0  0  0  0  0  0  0
  182.7850  178.6290  144.4590 C   0  0  0  0  0  3  0  0  0  0  0  0
  185.1060  177.9750  144.8710 C   0  0  0  0  0  0  0  0  0  0  0  0
  184.4490  178.9980  142.6830 C   0  0  0  0  0  2  0  0  0  0  0  0
  181.9330  179.3520  142.3260 N   0  0  0  0  0  0  0  0  0  0  0  0
  180.9790  180.1850  142.8110 O   0  0  0  0  0  1  0  0  0  0  0  0
  181.8140  178.8640  140.9520 C   0  0  0  0  0  0  0  0  0  0  0  0
  182.1780  177.5300  140.8830 F   0  0  0  0  0  0  0  0  0  0  0  0
  182.6440  179.5950  140.1200 F   0  0  0  0  0  0  0  0  0  0  0  0
  180.5050  178.9890  140.5210 F   0  0  0  0  0  0  0  0  0  0  0  0
  189.2370  176.8780  144.8410 C   0  0  0  0  0  3  0  0  0  0  0  0
  188.6710  177.5060  145.8800 C   0  0  0  0  0  0  0  0  0  0  0  0
  188.7060  176.2450  148.2440 O   0  0  0  0  0  0  0  0  0  0  0  0
  191.0900  176.8170  147.2500 N   0  0  0  0  0  1  0  0  0  0  0  0
  189.4040  178.5860  148.2280 O   0  0  0  0  0  0  0  0  0  0  0  0
  189.4430  177.2940  147.4600 S   0  0  0  0  0  0  0  0  0  0  0  0
  189.1310  178.0550  142.5950 N   0  0  0  0  0  2  0  0  0  0  0  0
  188.8310  176.9250  143.4230 C   0  0  0  0  0  0  0  0  0  0  0  0
  188.2790  175.8760  142.9080 N   0  0  0  0  0  2  0  0  0  0  0  0
  188.7870  178.1270  141.1820 C   0  0  0  0  0  2  0  0  0  0  0  0
  189.8730  178.1980  139.0670 O   0  0  0  0  0  0  0  0  0  0  0  0
  189.3900  176.8810  139.1580 C   0  0  0  0  0  2  0  0  0  0  0  0
  189.9290  177.5940  140.3370 C   0  0  2  0  0  3  0  0  0  0  0  0
  1  3  1  0  0  0  0
  1 18  1  1  0  0  0
  1  2  1  0  0  0  0
  2  4  1  6  0  0  0
  3  9  1  6  0  0  0
  3  2  1  0  0  0  0
  6  9  1  0  0  0  0
  7  8  2  0  0  0  0
  8  5  1  0  0  0  0
  9  5  2  0  0  0  0
 10  7  1  0  0  0  0
 10  6  1  0  0  0  0
 11 12  1  0  0  0  0
 11  7  1  0  0  0  0
 13 11  1  0  0  0  0
 14 13  1  0  0  0  0
 15 13  1  0  0  0  0
 16 13  1  0  0  0  0
 17 18  2  0  0  0  0
 18 22  1  0  0  0  0
 20 22  1  0  0  0  0
 22 21  2  0  0  0  0
 22 19  2  0  0  0  0
 23 24  1  0  0  0  0
 24 17  1  0  0  0  0
 25 24  2  0  0  0  0
 26 23  1  0  0  0  0
 27 28  1  0  0  0  0
 27 29  1  0  0  0  0
 28 29  1  0  0  0  0
 29 26  1  1  0  0  0
M  END
>  <MODEL>
5

>  <REMARK>
 VINA RESULT:      -7.4      1.847      2.270
  Name = 
  8 active torsions:
  status: ('A' for Active; 'I' for Inactive)
    1  A    between atoms: C_1  and  N_17
    2  A    between atoms: C_2  and  C_8
    3  A    between atoms: N_5  and  C_27
    4  A    between atoms: C_7  and  C_10
    5  A    between atoms: C_8  and  S_23
    6  A    between atoms: C_11  and  C_22
    7  A    between atoms: C_13  and  N_17
    8  A    between atoms: C_27  and  C_29
                            x       y       z     vdW  Elec       q    Type
                         _______ _______ _______ _____ _____    ______ ____

>  <TORSDO>
F 8

$$$$
=
 OpenBabel11062416183D

 29 31  0  0  1  0  0  0  0  0999 V2000
  190.6500  176.4420  139.6440 C   0  0  2  0  0  3  0  0  0  0  0  0
  190.0690  177.8460  139.6360 C   0  0  2  0  0  3  0  0  0  0  0  0
  191.3480  177.5400  140.4330 C   0  0  1  0  0  3  0  0  0  0  0  0
  188.7720  177.8370  140.4350 C   0  0  0  0  0  1  0  0  0  0  0  0
  191.6420  178.2870  142.7560 C   0  0  0  0  0  3  0  0  0  0  0  0
  190.6750  176.0480  142.4610 C   0  0  0  0  0  2  0  0  0  0  0  0
  190.7880  177.1150  144.7350 C   0  0  0  0  0  0  0  0  0  0  0  0
  191.5250  178.1070  144.2160 C   0  0  0  0  0  3  0  0  0  0  0  0
  191.1620  177.3630  141.9140 C   0  0  0  0  0  0  0  0  0  0  0  0
  189.9750  176.2390  143.8100 C   0  0  0  0  0  2  0  0  0  0  0  0
  190.6940  176.9600  146.1640 N   0  0  0  0  0  0  0  0  0  0  0  0
  191.7320  176.4080  146.8430 O   0  0  0  0  0  1  0  0  0  0  0  0
  189.4980  177.3600  146.9050 C   0  0  0  0  0  0  0  0  0  0  0  0
  189.8480  178.1050  148.0170 F   0  0  0  0  0  0  0  0  0  0  0  0
  188.8070  176.2360  147.3230 F   0  0  0  0  0  0  0  0  0  0  0  0
  188.6800  178.1290  146.0960 F   0  0  0  0  0  0  0  0  0  0  0  0
  190.8620  175.6940  137.2830 C   0  0  0  0  0  3  0  0  0  0  0  0
  191.4570  176.1020  138.4110 C   0  0  0  0  0  0  0  0  0  0  0  0
  193.7000  176.8950  139.6450 O   0  0  0  0  0  0  0  0  0  0  0  0
  193.9250  174.6580  138.2530 N   0  0  0  0  0  1  0  0  0  0  0  0
  193.6600  177.0580  137.2070 O   0  0  0  0  0  0  0  0  0  0  0  0
  193.2230  176.2310  138.3840 S   0  0  0  0  0  0  0  0  0  0  0  0
  188.6090  176.6720  136.6470 N   0  0  0  0  0  2  0  0  0  0  0  0
  189.4170  175.5500  137.0210 C   0  0  0  0  0  0  0  0  0  0  0  0
  188.9060  174.3630  137.0390 N   0  0  0  0  0  2  0  0  0  0  0  0
  187.1890  176.5690  136.3400 C   0  0  0  0  0  2  0  0  0  0  0  0
  187.0540  178.5990  137.5730 O   0  0  0  0  0  0  0  0  0  0  0  0
  185.7810  178.0230  137.7230 C   0  0  0  0  0  2  0  0  0  0  0  0
  186.5290  177.9310  136.4500 C   0  0  2  0  0  3  0  0  0  0  0  0
  1 18  1  6  0  0  0
  1  3  1  0  0  0  0
  2  1  1  0  0  0  0
  2  3  1  0  0  0  0
  2  4  1  1  0  0  0
  3  9  1  1  0  0  0
  5  8  1  0  0  0  0
  6 10  1  0  0  0  0
  7 11  1  0  0  0  0
  8  7  2  0  0  0  0
  9  6  1  0  0  0  0
  9  5  2  0  0  0  0
 10  7  1  0  0  0  0
 11 12  1  0  0  0  0
 11 13  1  0  0  0  0
 13 15  1  0  0  0  0
 13 14  1  0  0  0  0
 16 13  1  0  0  0  0
 17 18  2  0  0  0  0
 20 22  1  0  0  0  0
 21 22  2  0  0  0  0
 22 18  1  0  0  0  0
 22 19  2  0  0  0  0
 23 24  1  0  0  0  0
 24 25  2  0  0  0  0
 24 17  1  0  0  0  0
 26 23  1  0  0  0  0
 27 28  1  0  0  0  0
 29 26  1  1  0  0  0
 29 27  1  0  0  0  0
 29 28  1  0  0  0  0
M  END
>  <MODEL>
6

>  <REMARK>
 VINA RESULT:      -7.3      4.519      7.823
  Name = 
  8 active torsions:
  status: ('A' for Active; 'I' for Inactive)
    1  A    between atoms: C_1  and  N_17
    2  A    between atoms: C_2  and  C_8
    3  A    between atoms: N_5  and  C_27
    4  A    between atoms: C_7  and  C_10
    5  A    between atoms: C_8  and  S_23
    6  A    between atoms: C_11  and  C_22
    7  A    between atoms: C_13  and  N_17
    8  A    between atoms: C_27  and  C_29
                            x       y       z     vdW  Elec       q    Type
                         _______ _______ _______ _____ _____    ______ ____

>  <TORSDO>
F 8

$$$$
=
 OpenBabel11062416183D

 29 31  0  0  1  0  0  0  0  0999 V2000
  184.1030  179.2430  142.2480 C   0  0  2  0  0  3  0  0  0  0  0  0
  185.2240  178.6080  141.4450 C   0  0  2  0  0  3  0  0  0  0  0  0
  184.6170  177.8670  142.6470 C   0  0  1  0  0  3  0  0  0  0  0  0
  186.5120  179.3750  141.7200 C   0  0  0  0  0  1  0  0  0  0  0  0
  186.5250  177.1720  144.0320 C   0  0  0  0  0  3  0  0  0  0  0  0
  184.8630  178.6050  145.1340 C   0  0  0  0  0  2  0  0  0  0  0  0
  187.0260  178.0260  146.2770 C   0  0  0  0  0  0  0  0  0  0  0  0
  187.2990  177.1610  145.2880 C   0  0  0  0  0  3  0  0  0  0  0  0
  185.4210  177.9210  143.9160 C   0  0  0  0  0  0  0  0  0  0  0  0
  185.9850  179.0980  146.0520 C   0  0  0  0  0  2  0  0  0  0  0  0
  187.7950  177.9910  147.4940 N   0  0  0  0  0  0  0  0  0  0  0  0
  187.1820  178.2490  148.6760 O   0  0  0  0  0  1  0  0  0  0  0  0
  189.2310  177.7080  147.4900 C   0  0  0  0  0  0  0  0  0  0  0  0
  189.8310  178.2560  148.6090 F   0  0  0  0  0  0  0  0  0  0  0  0
  189.8130  178.2550  146.3600 F   0  0  0  0  0  0  0  0  0  0  0  0
  189.4400  176.3400  147.4990 F   0  0  0  0  0  0  0  0  0  0  0  0
  182.5960  179.0800  140.2780 C   0  0  0  0  0  3  0  0  0  0  0  0
  182.7380  179.1160  141.6090 C   0  0  0  0  0  0  0  0  0  0  0  0
  180.5560  180.3310  142.5810 O   0  0  0  0  0  0  0  0  0  0  0  0
  180.2170  177.7940  141.9140 N   0  0  0  0  0  1  0  0  0  0  0  0
  181.5980  178.6300  143.9920 O   0  0  0  0  0  0  0  0  0  0  0  0
  181.2590  179.0020  142.5760 S   0  0  0  0  0  0  0  0  0  0  0  0
  184.0400  177.9230  138.5410 N   0  0  0  0  0  2  0  0  0  0  0  0
  183.6570  179.1060  139.2530 C   0  0  0  0  0  0  0  0  0  0  0  0
  184.1730  180.2470  138.9330 N   0  0  0  0  0  2  0  0  0  0  0  0
  185.0510  177.9100  137.4930 C   0  0  0  0  0  2  0  0  0  0  0  0
  187.1650  178.6280  138.3150 O   0  0  0  0  0  0  0  0  0  0  0  0
  187.4790  177.9000  137.1540 C   0  0  0  0  0  2  0  0  0  0  0  0
  186.3900  177.4800  138.0630 C   0  0  2  0  0  3  0  0  0  0  0  0
  1 18  1  6  0  0  0
  1  3  1  0  0  0  0
  2  4  1  1  0  0  0
  2  1  1  0  0  0  0
  2  3  1  0  0  0  0
  3  9  1  1  0  0  0
  5  8  1  0  0  0  0
  6 10  1  0  0  0  0
  7 11  1  0  0  0  0
  8  7  2  0  0  0  0
  9  5  2  0  0  0  0
  9  6  1  0  0  0  0
 10  7  1  0  0  0  0
 11 12  1  0  0  0  0
 13 11  1  0  0  0  0
 13 16  1  0  0  0  0
 13 14  1  0  0  0  0
 15 13  1  0  0  0  0
 17 18  2  0  0  0  0
 18 22  1  0  0  0  0
 20 22  1  0  0  0  0
 22 19  2  0  0  0  0
 22 21  2  0  0  0  0
 23 24  1  0  0  0  0
 24 17  1  0  0  0  0
 25 24  2  0  0  0  0
 26 23  1  0  0  0  0
 28 29  1  0  0  0  0
 28 27  1  0  0  0  0
 29 26  1  6  0  0  0
 29 27  1  0  0  0  0
M  END
>  <MODEL>
7

>  <REMARK>
 VINA RESULT:      -7.1      4.575      7.645
  Name = 
  8 active torsions:
  status: ('A' for Active; 'I' for Inactive)
    1  A    between atoms: C_1  and  N_17
    2  A    between atoms: C_2  and  C_8
    3  A    between atoms: N_5  and  C_27
    4  A    between atoms: C_7  and  C_10
    5  A    between atoms: C_8  and  S_23
    6  A    between atoms: C_11  and  C_22
    7  A    between atoms: C_13  and  N_17
    8  A    between atoms: C_27  and  C_29
                            x       y       z     vdW  Elec       q    Type
                         _______ _______ _______ _____ _____    ______ ____

>  <TORSDO>
F 8

$$$$
=
 OpenBabel11062416183D

 29 31  0  0  1  0  0  0  0  0999 V2000
  190.2940  177.4330  141.1040 C   0  0  2  0  0  3  0  0  0  0  0  0
  190.5600  176.0000  141.5290 C   0  0  2  0  0  3  0  0  0  0  0  0
  189.1520  176.6020  141.6710 C   0  0  1  0  0  3  0  0  0  0  0  0
  191.4200  176.0200  142.7860 C   0  0  0  0  0  1  0  0  0  0  0  0
  187.6940  176.5280  143.6480 C   0  0  0  0  0  3  0  0  0  0  0  0
  189.4470  178.2480  143.6710 C   0  0  0  0  0  2  0  0  0  0  0  0
  188.0420  177.8120  145.7090 C   0  0  0  0  0  0  0  0  0  0  0  0
  187.2680  176.9930  144.9820 C   0  0  0  0  0  3  0  0  0  0  0  0
  188.7760  177.0500  143.0560 C   0  0  0  0  0  0  0  0  0  0  0  0
  189.4190  178.1710  145.2000 C   0  0  0  0  0  2  0  0  0  0  0  0
  187.6000  178.2540  147.0070 N   0  0  0  0  0  0  0  0  0  0  0  0
  186.4720  179.0010  147.1080 O   0  0  0  0  0  1  0  0  0  0  0  0
  188.3510  177.9400  148.2230 C   0  0  0  0  0  0  0  0  0  0  0  0
  189.0050  176.7280  148.0840 F   0  0  0  0  0  0  0  0  0  0  0  0
  187.4860  177.8560  149.3000 F   0  0  0  0  0  0  0  0  0  0  0  0
  189.2910  178.9260  148.4630 F   0  0  0  0  0  0  0  0  0  0  0  0
  191.1080  177.3600  138.7560 C   0  0  0  0  0  3  0  0  0  0  0  0
  190.1090  177.6100  139.6130 C   0  0  0  0  0  0  0  0  0  0  0  0
  187.6870  178.6860  140.0060 O   0  0  0  0  0  0  0  0  0  0  0  0
  188.8580  179.3760  137.7370 N   0  0  0  0  0  1  0  0  0  0  0  0
  187.8750  176.9900  138.2570 O   0  0  0  0  0  0  0  0  0  0  0  0
  188.5720  178.1470  138.9170 S   0  0  0  0  0  0  0  0  0  0  0  0
  193.0270  175.7490  138.3540 N   0  0  0  0  0  2  0  0  0  0  0  0
  192.4610  176.8580  139.0620 C   0  0  0  0  0  0  0  0  0  0  0  0
  193.1740  177.5060  139.9240 N   0  0  0  0  0  2  0  0  0  0  0  0
  194.3720  175.2480  138.5940 C   0  0  0  0  0  2  0  0  0  0  0  0
  195.3320  173.0830  138.8230 O   0  0  0  0  0  0  0  0  0  0  0  0
  195.9680  173.6200  137.6910 C   0  0  0  0  0  2  0  0  0  0  0  0
  194.5380  173.8730  137.9710 C   0  0  2  0  0  3  0  0  0  0  0  0
  1 18  1  6  0  0  0
  1  2  1  0  0  0  0
  1  3  1  0  0  0  0
  2  3  1  0  0  0  0
  2  4  1  1  0  0  0
  3  9  1  1  0  0  0
  5  8  1  0  0  0  0
  6 10  1  0  0  0  0
  7 11  1  0  0  0  0
  8  7  2  0  0  0  0
  9  5  2  0  0  0  0
  9  6  1  0  0  0  0
 10  7  1  0  0  0  0
 11 12  1  0  0  0  0
 11 13  1  0  0  0  0
 13 16  1  0  0  0  0
 13 15  1  0  0  0  0
 14 13  1  0  0  0  0
 17 24  1  0  0  0  0
 17 18  2  0  0  0  0
 20 22  1  0  0  0  0
 21 22  2  0  0  0  0
 22 18  1  0  0  0  0
 22 19  2  0  0  0  0
 23 26  1  0  0  0  0
 23 24  1  0  0  0  0
 24 25  2  0  0  0  0
 28 29  1  0  0  0  0
 28 27  1  0  0  0  0
 29 26  1  1  0  0  0
 29 27  1  0  0  0  0
M  END
>  <MODEL>
8

>  <REMARK>
 VINA RESULT:      -7.1      4.769      6.973
  Name = 
  8 active torsions:
  status: ('A' for Active; 'I' for Inactive)
    1  A    between atoms: C_1  and  N_17
    2  A    between atoms: C_2  and  C_8
    3  A    between atoms: N_5  and  C_27
    4  A    between atoms: C_7  and  C_10
    5  A    between atoms: C_8  and  S_23
    6  A    between atoms: C_11  and  C_22
    7  A    between atoms: C_13  and  N_17
    8  A    between atoms: C_27  and  C_29
                            x       y       z     vdW  Elec       q    Type
                         _______ _______ _______ _____ _____    ______ ____

>  <TORSDO>
F 8

$$$$
=
 OpenBabel11062416183D

 29 31  0  0  1  0  0  0  0  0999 V2000
  189.0350  178.1570  140.3240 C   0  0  2  0  0  3  0  0  0  0  0  0
  190.0620  177.0840  140.0110 C   0  0  2  0  0  3  0  0  0  0  0  0
  188.9730  176.8310  141.0670 C   0  0  1  0  0  3  0  0  0  0  0  0
  191.4140  177.5360  140.5480 C   0  0  0  0  0  1  0  0  0  0  0  0
  189.7950  175.8920  143.1850 C   0  0  0  0  0  3  0  0  0  0  0  0
  189.1820  178.2700  143.2300 C   0  0  0  0  0  2  0  0  0  0  0  0
  190.3140  177.1930  145.2000 C   0  0  0  0  0  0  0  0  0  0  0  0
  190.1730  175.9980  144.6080 C   0  0  0  0  0  3  0  0  0  0  0  0
  189.4110  176.9750  142.4980 C   0  0  0  0  0  0  0  0  0  0  0  0
  190.1940  178.4470  144.3660 C   0  0  0  0  0  2  0  0  0  0  0  0
  190.6790  177.2670  146.5910 N   0  0  0  0  0  0  0  0  0  0  0  0
  191.9750  177.0830  146.9490 O   0  0  0  0  0  1  0  0  0  0  0  0
  189.6850  177.5110  147.6360 C   0  0  0  0  0  0  0  0  0  0  0  0
  188.6720  178.3220  147.1540 F   0  0  0  0  0  0  0  0  0  0  0  0
  190.2820  178.1390  148.7150 F   0  0  0  0  0  0  0  0  0  0  0  0
  189.1330  176.3110  148.0490 F   0  0  0  0  0  0  0  0  0  0  0  0
  186.6560  178.5370  139.7100 C   0  0  0  0  0  3  0  0  0  0  0  0
  187.9040  178.2390  139.3240 C   0  0  0  0  0  0  0  0  0  0  0  0
  188.3540  176.4860  137.3470 O   0  0  0  0  0  0  0  0  0  0  0  0
  186.7980  178.5240  136.6970 N   0  0  0  0  0  1  0  0  0  0  0  0
  189.3890  178.6890  137.1310 O   0  0  0  0  0  0  0  0  0  0  0  0
  188.1610  177.9560  137.5950 S   0  0  0  0  0  0  0  0  0  0  0  0
  185.5510  177.8810  141.8980 N   0  0  0  0  0  2  0  0  0  0  0  0
  186.1820  178.8640  141.0680 C   0  0  0  0  0  0  0  0  0  0  0  0
  186.4350  180.0400  141.5390 N   0  0  0  0  0  2  0  0  0  0  0  0
  185.1050  178.1480  143.2580 C   0  0  0  0  0  2  0  0  0  0  0  0
  183.6130  179.8510  143.9870 O   0  0  0  0  0  0  0  0  0  0  0  0
  183.1490  178.6920  144.6330 C   0  0  0  0  0  2  0  0  0  0  0  0
  183.6740  178.6530  143.2500 C   0  0  2  0  0  3  0  0  0  0  0  0
  1 18  1  6  0  0  0
  1  3  1  0  0  0  0
  2  1  1  0  0  0  0
  2  4  1  1  0  0  0
  2  3  1  0  0  0  0
  3  9  1  1  0  0  0
  5  8  1  0  0  0  0
  6 10  1  0  0  0  0
  7 11  1  0  0  0  0
  8  7  2  0  0  0  0
  9  5  2  0  0  0  0
  9  6  1  0  0  0  0
 10  7  1  0  0  0  0
 11 12  1  0  0  0  0
 11 13  1  0  0  0  0
 13 16  1  0  0  0  0
 13 15  1  0  0  0  0
 14 13  1  0  0  0  0
 17 24  1  0  0  0  0
 18 17  2  0  0  0  0
 19 22  2  0  0  0  0
 20 22  1  0  0  0  0
 21 22  2  0  0  0  0
 22 18  1  0  0  0  0
 23 26  1  0  0  0  0
 24 25  2  0  0  0  0
 24 23  1  0  0  0  0
 27 28  1  0  0  0  0
 29 26  1  1  0  0  0
 29 27  1  0  0  0  0
 29 28  1  0  0  0  0
M  END
>  <MODEL>
9

>  <REMARK>
 VINA RESULT:      -7.0      4.303      8.002
  Name = 
  8 active torsions:
  status: ('A' for Active; 'I' for Inactive)
    1  A    between atoms: C_1  and  N_17
    2  A    between atoms: C_2  and  C_8
    3  A    between atoms: N_5  and  C_27
    4  A    between atoms: C_7  and  C_10
    5  A    between atoms: C_8  and  S_23
    6  A    between atoms: C_11  and  C_22
    7  A    between atoms: C_13  and  N_17
    8  A    between atoms: C_27  and  C_29
                            x       y       z     vdW  Elec       q    Type
                         _______ _______ _______ _____ _____    ______ ____

>  <TORSDO>
F 8

$$$$
