=
 OpenBabel11062412063D

 48 52  0  0  1  0  0  0  0  0999 V2000
  188.3150  176.0640  137.9630 C   0  0  0  0  0  3  0  0  0  0  0  0
  187.1410  176.1780  137.2000 C   0  0  0  0  0  0  0  0  0  0  0  0
  186.4000  177.3670  137.3080 C   0  0  0  0  0  3  0  0  0  0  0  0
  188.7210  177.1030  138.7960 C   0  0  0  0  0  0  0  0  0  0  0  0
  187.9480  178.2610  138.8690 C   0  0  0  0  0  3  0  0  0  0  0  0
  186.8160  178.3690  138.1260 N   0  0  0  0  0  0  0  0  0  0  0  0
  185.3790  173.2520  137.3600 C   0  0  2  0  0  3  0  0  0  0  0  0
  186.7130  173.7260  137.1190 C   0  0  2  0  0  3  0  0  0  0  0  0
  186.6390  175.0390  136.3270 C   0  0  1  0  0  0  0  0  0  0  0  0
  186.2230  172.5160  136.3110 C   0  0  0  0  0  0  0  0  0  0  0  0
  185.1830  175.2680  135.9630 C   0  0  0  0  0  2  0  0  0  0  0  0
  184.3880  174.2210  136.7130 C   0  0  1  0  0  3  0  0  0  0  0  0
  186.3730  171.6600  135.4560 O   0  0  0  0  0  0  0  0  0  0  0  0
  187.4420  174.9200  135.0310 C   0  0  0  0  0  1  0  0  0  0  0  0
  183.4260  173.5200  135.7590 C   0  0  0  0  0  2  0  0  0  0  0  0
  182.0430  173.3700  136.3750 C   0  0  0  0  0  2  0  0  0  0  0  0
  181.4610  174.7300  136.7150 C   0  0  1  0  0  3  0  0  0  0  0  0
  180.1070  174.5720  137.2310 C   0  0  0  0  0  2  0  0  0  0  0  0
  181.2210  174.7940  138.1640 N   0  0  0  0  0  0  0  0  0  0  0  0
  181.1800  176.2010  138.5290 C   0  0  0  0  0  2  0  0  0  0  0  0
  182.3570  176.5520  139.4280 C   0  0  0  0  0  2  0  0  0  0  0  0
  183.1660  177.7120  138.8480 C   0  0  1  0  0  3  0  0  0  0  0  0
  182.6890  178.0390  137.5730 O   0  0  0  0  0  1  0  0  0  0  0  0
  183.8000  178.6410  140.9680 O   0  0  0  0  0  1  0  0  0  0  0  0
  183.1700  178.9490  139.7600 C   0  0  0  0  0  0  0  0  0  0  0  0
  183.8900  179.9640  139.1310 O   0  0  0  0  0  1  0  0  0  0  0  0
  181.4710  179.4210  141.3900 F   0  0  0  0  0  0  0  0  0  0  0  0
  181.7600  179.4630  140.0390 C   0  0  0  0  0  2  0  0  0  0  0  0
  190.2060  176.9450  139.7800 S   0  0  0  0  0  0  0  0  0  0  0  0
  189.7450  175.8920  142.5940 O   0  0  0  0  0  0  0  0  0  0  0  0
  189.4460  177.7200  141.1720 N   0  0  0  0  0  2  0  0  0  0  0  0
  189.3550  177.0810  142.4460 C   0  0  0  0  0  0  0  0  0  0  0  0
  188.8110  177.8330  143.6220 C   0  0  1  0  0  3  0  0  0  0  0  0
  187.7730  177.0930  144.2060 O   0  0  0  0  0  0  0  0  0  0  0  0
  186.5830  177.5170  146.2240 C   0  0  0  0  0  1  0  0  0  0  0  0
  186.9600  178.0320  144.8460 C   0  0  2  0  0  3  0  0  0  0  0  0
  185.7060  178.2630  144.0180 C   0  0  0  0  0  2  0  0  0  0  0  0
  184.5430  178.6300  144.9170 C   0  0  0  0  0  2  0  0  0  0  0  0
  182.2580  178.8550  144.3190 O   0  0  0  0  0  1  0  0  0  0  0  0
  183.5170  179.4170  144.1280 C   0  0  0  0  0  2  0  0  0  0  0  0
  189.9200  178.1110  144.6490 C   0  0  1  0  0  3  0  0  0  0  0  0
  192.1070  175.9570  146.5690 C   0  0  0  0  0  2  0  0  0  0  0  0
  190.0480  177.1670  146.8460 C   0  0  0  0  0  2  0  0  0  0  0  0
  191.6280  176.4880  145.2420 C   0  0  0  0  0  2  0  0  0  0  0  0
  190.2370  176.8970  145.4220 N   0  0  0  0  0  0  0  0  0  0  0  0
  191.2800  176.6940  147.5880 C   0  0  0  0  0  2  0  0  0  0  0  0
  191.1580  178.7490  144.0020 C   0  0  0  0  0  2  0  0  0  0  0  0
  191.0430  180.1280  144.0100 F   0  0  0  0  0  0  0  0  0  0  0  0
  1  4  1  0  0  0  0
  2  3  1  0  0  0  0
  2  1  2  0  0  0  0
  3  6  2  0  0  0  0
  4  5  2  0  0  0  0
  4 29  1  0  0  0  0
  6  5  1  0  0  0  0
  7 10  1  6  0  0  0
  8 10  1  6  0  0  0
  8  7  1  0  0  0  0
  9 14  1  6  0  0  0
  9  8  1  0  0  0  0
  9  2  1  0  0  0  0
 11  9  1  0  0  0  0
 11 12  1  0  0  0  0
 12 15  1  6  0  0  0
 12  7  1  0  0  0  0
 13 10  2  0  0  0  0
 15 16  1  0  0  0  0
 17 16  1  1  0  0  0
 17 18  1  0  0  0  0
 17 19  1  0  0  0  0
 18 19  1  0  0  0  0
 19 20  1  0  0  0  0
 20 21  1  0  0  0  0
 22 23  1  6  0  0  0
 22 21  1  0  0  0  0
 22 25  1  0  0  0  0
 25 28  1  0  0  0  0
 25 24  1  0  0  0  0
 26 25  1  0  0  0  0
 28 27  1  0  0  0  0
 29 31  1  0  0  0  0
 31 32  1  0  0  0  0
 32 30  2  0  0  0  0
 33 32  1  6  0  0  0
 33 34  1  0  0  0  0
 33 41  1  0  0  0  0
 34 36  1  0  0  0  0
 36 35  1  1  0  0  0
 37 36  1  0  0  0  0
 37 38  1  0  0  0  0
 40 39  1  0  0  0  0
 40 38  1  0  0  0  0
 41 47  1  6  0  0  0
 41 45  1  0  0  0  0
 42 46  1  0  0  0  0
 43 46  1  0  0  0  0
 44 45  1  0  0  0  0
 44 42  1  0  0  0  0
 45 43  1  0  0  0  0
 47 48  1  0  0  0  0
M  END
>  <MODEL>
1

>  <REMARK>
 VINA RESULT:      -7.1      0.000      0.000
  Name = 
  20 active torsions:
  status: ('A' for Active; 'I' for Inactive)
    1  A    between atoms: C_1  and  C_47
    2  A    between atoms: C_3  and  C_26
    3  A    between atoms: C_4  and  C_18
    4  A    between atoms: C_4  and  C_24
    5  A    between atoms: S_5  and  C_23
    6  A    between atoms: S_5  and  N_39
    7  A    between atoms: C_9  and  C_12
    8  A    between atoms: C_10  and  C_25
    9  A    between atoms: C_10  and  C_38
   10  A    between atoms: C_18  and  N_45
   11  A    between atoms: C_21  and  C_27
   12  A    between atoms: C_21  and  C_47
   13  A    between atoms: C_24  and  C_31
   14  A    between atoms: C_25  and  C_48
   15  A    between atoms: C_26  and  C_33
   16  A    between atoms: C_26  and  N_35
   17  A    between atoms: C_31  and  C_36
   18  A    between atoms: O_32  and  C_33
   19  A    between atoms: O_32  and  C_48
   20  A    between atoms: C_33  and  C_42
                            x       y       z     vdW  Elec       q    Type
                         _______ _______ _______ _____ _____    ______ ____

>  <TORSDO>
F 20

$$$$
=
 OpenBabel11062412063D

 48 52  0  0  1  0  0  0  0  0999 V2000
  184.0190  177.5000  137.6680 C   0  0  0  0  0  3  0  0  0  0  0  0
  183.2000  177.3490  138.7980 C   0  0  0  0  0  0  0  0  0  0  0  0
  182.7140  176.0620  139.0910 C   0  0  0  0  0  3  0  0  0  0  0  0
  184.3330  176.4030  136.8690 C   0  0  0  0  0  0  0  0  0  0  0  0
  183.8230  175.1490  137.2020 C   0  0  0  0  0  3  0  0  0  0  0  0
  183.0350  175.0060  138.2990 N   0  0  0  0  0  0  0  0  0  0  0  0
  181.2660  178.1630  141.4970 C   0  0  2  0  0  3  0  0  0  0  0  0
  181.3210  178.3670  140.0770 C   0  0  2  0  0  3  0  0  0  0  0  0
  182.7890  178.5350  139.6560 C   0  0  1  0  0  0  0  0  0  0  0  0
  180.8190  179.5250  140.9500 C   0  0  0  0  0  0  0  0  0  0  0  0
  183.6240  178.5720  140.9230 C   0  0  0  0  0  2  0  0  0  0  0  0
  182.6880  178.2170  142.0580 C   0  0  1  0  0  3  0  0  0  0  0  0
  180.4190  180.6680  141.0990 O   0  0  0  0  0  0  0  0  0  0  0  0
  182.9780  179.8620  138.9190 C   0  0  0  0  0  1  0  0  0  0  0  0
  182.8320  179.2340  143.1860 C   0  0  0  0  0  2  0  0  0  0  0  0
  184.2910  179.4480  143.5600 C   0  0  0  0  0  2  0  0  0  0  0  0
  184.6910  178.5220  144.6950 C   0  0  1  0  0  3  0  0  0  0  0  0
  185.9210  177.8220  144.3490 C   0  0  0  0  0  2  0  0  0  0  0  0
  185.9720  178.9810  145.2510 N   0  0  0  0  0  0  0  0  0  0  0  0
  186.0660  178.4500  146.6020 C   0  0  0  0  0  2  0  0  0  0  0  0
  187.2190  177.4620  146.7070 C   0  0  0  0  0  2  0  0  0  0  0  0
  188.5580  178.1890  146.8270 C   0  0  1  0  0  3  0  0  0  0  0  0
  188.9520  178.2470  148.1680 O   0  0  0  0  0  1  0  0  0  0  0  0
  189.1020  176.5830  145.1300 O   0  0  0  0  0  1  0  0  0  0  0  0
  189.6590  177.5550  145.9640 C   0  0  0  0  0  0  0  0  0  0  0  0
  190.2310  178.5470  145.1690 O   0  0  0  0  0  1  0  0  0  0  0  0
  191.6850  176.2650  146.0200 F   0  0  0  0  0  0  0  0  0  0  0  0
  190.7620  176.9240  146.8110 C   0  0  0  0  0  2  0  0  0  0  0  0
  185.3600  176.6050  135.4190 S   0  0  0  0  0  0  0  0  0  0  0  0
  187.3930  174.8020  136.7820 O   0  0  0  0  0  0  0  0  0  0  0  0
  186.7720  177.0200  136.3970 N   0  0  0  0  0  2  0  0  0  0  0  0
  187.6510  176.0270  136.9260 C   0  0  0  0  0  0  0  0  0  0  0  0
  188.9000  176.4400  137.6430 C   0  0  1  0  0  3  0  0  0  0  0  0
  189.8710  176.8170  136.7040 O   0  0  0  0  0  0  0  0  0  0  0  0
  192.0890  176.2690  137.3700 C   0  0  0  0  0  1  0  0  0  0  0  0
  190.8130  175.7850  136.7060 C   0  0  2  0  0  3  0  0  0  0  0  0
  191.1010  175.3610  135.2750 C   0  0  0  0  0  2  0  0  0  0  0  0
  190.6450  173.9340  135.0480 C   0  0  0  0  0  2  0  0  0  0  0  0
  191.8020  171.8620  135.0620 O   0  0  0  0  0  1  0  0  0  0  0  0
  191.5260  172.9860  135.8350 C   0  0  0  0  0  2  0  0  0  0  0  0
  188.6120  177.5940  138.6150 C   0  0  1  0  0  3  0  0  0  0  0  0
  190.1800  177.4890  141.8770 C   0  0  0  0  0  2  0  0  0  0  0  0
  188.0790  178.1160  140.8900 C   0  0  0  0  0  2  0  0  0  0  0  0
  190.1250  177.0480  140.4370 C   0  0  0  0  0  2  0  0  0  0  0  0
  188.7290  177.1440  140.0140 N   0  0  0  0  0  0  0  0  0  0  0  0
  189.0310  178.4520  142.0190 C   0  0  0  0  0  2  0  0  0  0  0  0
  189.4710  178.8310  138.3110 C   0  0  0  0  0  2  0  0  0  0  0  0
  188.8510  179.6180  137.3560 F   0  0  0  0  0  0  0  0  0  0  0  0
  1  2  1  0  0  0  0
  2  3  2  0  0  0  0
  2  9  1  0  0  0  0
  4  5  1  0  0  0  0
  4  1  2  0  0  0  0
  5  6  2  0  0  0  0
  6  3  1  0  0  0  0
  7 10  1  1  0  0  0
  7 12  1  0  0  0  0
  8 10  1  1  0  0  0
  8  7  1  0  0  0  0
  9 14  1  6  0  0  0
  9  8  1  0  0  0  0
  9 11  1  0  0  0  0
 10 13  2  0  0  0  0
 11 12  1  0  0  0  0
 12 15  1  1  0  0  0
 15 16  1  0  0  0  0
 17 16  1  6  0  0  0
 17 19  1  0  0  0  0
 18 17  1  0  0  0  0
 18 19  1  0  0  0  0
 19 20  1  0  0  0  0
 20 21  1  0  0  0  0
 21 22  1  0  0  0  0
 22 23  1  1  0  0  0
 24 25  1  0  0  0  0
 25 28  1  0  0  0  0
 25 22  1  0  0  0  0
 26 25  1  0  0  0  0
 27 28  1  0  0  0  0
 29 31  1  0  0  0  0
 29  4  1  0  0  0  0
 30 32  2  0  0  0  0
 31 32  1  0  0  0  0
 32 33  1  0  0  0  0
 33 34  1  6  0  0  0
 33 41  1  0  0  0  0
 34 36  1  0  0  0  0
 36 35  1  6  0  0  0
 37 36  1  0  0  0  0
 38 37  1  0  0  0  0
 38 40  1  0  0  0  0
 39 40  1  0  0  0  0
 41 47  1  6  0  0  0
 41 45  1  0  0  0  0
 42 46  1  0  0  0  0
 43 46  1  0  0  0  0
 44 42  1  0  0  0  0
 45 44  1  0  0  0  0
 45 43  1  0  0  0  0
 48 47  1  0  0  0  0
M  END
>  <MODEL>
2

>  <REMARK>
 VINA RESULT:      -6.5      2.835      8.464
  Name = 
  20 active torsions:
  status: ('A' for Active; 'I' for Inactive)
    1  A    between atoms: C_1  and  C_47
    2  A    between atoms: C_3  and  C_26
    3  A    between atoms: C_4  and  C_18
    4  A    between atoms: C_4  and  C_24
    5  A    between atoms: S_5  and  C_23
    6  A    between atoms: S_5  and  N_39
    7  A    between atoms: C_9  and  C_12
    8  A    between atoms: C_10  and  C_25
    9  A    between atoms: C_10  and  C_38
   10  A    between atoms: C_18  and  N_45
   11  A    between atoms: C_21  and  C_27
   12  A    between atoms: C_21  and  C_47
   13  A    between atoms: C_24  and  C_31
   14  A    between atoms: C_25  and  C_48
   15  A    between atoms: C_26  and  C_33
   16  A    between atoms: C_26  and  N_35
   17  A    between atoms: C_31  and  C_36
   18  A    between atoms: O_32  and  C_33
   19  A    between atoms: O_32  and  C_48
   20  A    between atoms: C_33  and  C_42
                            x       y       z     vdW  Elec       q    Type
                         _______ _______ _______ _____ _____    ______ ____

>  <TORSDO>
F 20

$$$$
=
 OpenBabel11062412063D

 48 52  0  0  1  0  0  0  0  0999 V2000
  188.2760  176.6740  137.8070 C   0  0  0  0  0  3  0  0  0  0  0  0
  187.3450  177.2110  136.9040 C   0  0  0  0  0  0  0  0  0  0  0  0
  187.3590  178.6010  136.6930 C   0  0  0  0  0  3  0  0  0  0  0  0
  189.1800  177.5030  138.4680 C   0  0  0  0  0  0  0  0  0  0  0  0
  189.1500  178.8750  138.2260 C   0  0  0  0  0  3  0  0  0  0  0  0
  188.2510  179.3890  137.3470 N   0  0  0  0  0  0  0  0  0  0  0  0
  184.1190  176.1220  137.2190 C   0  0  2  0  0  3  0  0  0  0  0  0
  185.4640  175.6210  137.2730 C   0  0  2  0  0  3  0  0  0  0  0  0
  186.3070  176.3430  136.2110 C   0  0  1  0  0  0  0  0  0  0  0  0
  184.3850  174.7170  136.6620 C   0  0  0  0  0  0  0  0  0  0  0  0
  185.3650  177.2100  135.3960 C   0  0  0  0  0  2  0  0  0  0  0  0
  184.0280  177.1660  136.1040 C   0  0  1  0  0  3  0  0  0  0  0  0
  184.0250  173.6910  136.1110 O   0  0  0  0  0  0  0  0  0  0  0  0
  186.9540  175.3240  135.2700 C   0  0  0  0  0  1  0  0  0  0  0  0
  182.9210  176.8530  135.1020 C   0  0  0  0  0  2  0  0  0  0  0  0
  181.5740  177.3720  135.5800 C   0  0  0  0  0  2  0  0  0  0  0  0
  181.3640  178.8060  135.1270 C   0  0  1  0  0  3  0  0  0  0  0  0
  180.0150  178.9640  134.6010 C   0  0  0  0  0  2  0  0  0  0  0  0
  180.3220  179.4190  135.9640 N   0  0  0  0  0  0  0  0  0  0  0  0
  180.5060  180.8600  135.8870 C   0  0  0  0  0  2  0  0  0  0  0  0
  180.7090  181.4460  137.2770 C   0  0  0  0  0  2  0  0  0  0  0  0
  179.5620  182.3840  137.6520 C   0  0  1  0  0  3  0  0  0  0  0  0
  179.4700  182.4950  139.0440 O   0  0  0  0  0  1  0  0  0  0  0  0
  179.1940  183.7310  135.7000 O   0  0  0  0  0  1  0  0  0  0  0  0
  179.6930  183.7720  137.0040 C   0  0  0  0  0  0  0  0  0  0  0  0
  178.9360  184.6810  137.7410 O   0  0  0  0  0  1  0  0  0  0  0  0
  181.3030  185.2920  136.0730 F   0  0  0  0  0  0  0  0  0  0  0  0
  181.1390  184.2610  136.9790 C   0  0  0  0  0  2  0  0  0  0  0  0
  190.3500  176.8160  139.6330 S   0  0  0  0  0  0  0  0  0  0  0  0
  190.2970  175.9560  142.5490 O   0  0  0  0  0  0  0  0  0  0  0  0
  189.4910  177.5160  141.0090 N   0  0  0  0  0  2  0  0  0  0  0  0
  189.6220  176.9980  142.3330 C   0  0  0  0  0  0  0  0  0  0  0  0
  188.9680  177.7050  143.4800 C   0  0  1  0  0  3  0  0  0  0  0  0
  187.9440  176.9010  143.9990 O   0  0  0  0  0  0  0  0  0  0  0  0
  186.4010  177.4330  145.7320 C   0  0  0  0  0  1  0  0  0  0  0  0
  186.9170  177.7830  144.3480 C   0  0  2  0  0  3  0  0  0  0  0  0
  185.7920  177.6770  143.3320 C   0  0  0  0  0  2  0  0  0  0  0  0
  185.9290  178.7600  142.2820 C   0  0  0  0  0  2  0  0  0  0  0  0
  185.0330  179.5200  140.2200 O   0  0  0  0  0  1  0  0  0  0  0  0
  184.8110  178.6310  141.2680 C   0  0  0  0  0  2  0  0  0  0  0  0
  189.9980  178.0390  144.5710 C   0  0  1  0  0  3  0  0  0  0  0  0
  191.8820  175.8280  146.7320 C   0  0  0  0  0  2  0  0  0  0  0  0
  190.0990  177.4340  146.8850 C   0  0  0  0  0  2  0  0  0  0  0  0
  191.4190  176.2310  145.3550 C   0  0  0  0  0  2  0  0  0  0  0  0
  190.1400  176.9190  145.5180 N   0  0  0  0  0  0  0  0  0  0  0  0
  191.2720  176.8560  147.6480 C   0  0  0  0  0  2  0  0  0  0  0  0
  191.3390  178.4950  143.9770 C   0  0  0  0  0  2  0  0  0  0  0  0
  191.2520  179.8110  143.5580 F   0  0  0  0  0  0  0  0  0  0  0  0
  1  4  1  0  0  0  0
  2  1  2  0  0  0  0
  3  2  1  0  0  0  0
  3  6  2  0  0  0  0
  4 29  1  0  0  0  0
  5  4  2  0  0  0  0
  6  5  1  0  0  0  0
  7 10  1  6  0  0  0
  7  8  1  0  0  0  0
  8 10  1  6  0  0  0
  9 14  1  6  0  0  0
  9  2  1  0  0  0  0
  9  8  1  0  0  0  0
 11 12  1  0  0  0  0
 11  9  1  0  0  0  0
 12 15  1  6  0  0  0
 12  7  1  0  0  0  0
 13 10  2  0  0  0  0
 15 16  1  0  0  0  0
 17 16  1  1  0  0  0
 17 19  1  0  0  0  0
 18 17  1  0  0  0  0
 18 19  1  0  0  0  0
 20 19  1  0  0  0  0
 20 21  1  0  0  0  0
 21 22  1  0  0  0  0
 22 23  1  1  0  0  0
 24 25  1  0  0  0  0
 25 22  1  0  0  0  0
 25 26  1  0  0  0  0
 27 28  1  0  0  0  0
 28 25  1  0  0  0  0
 29 31  1  0  0  0  0
 31 32  1  0  0  0  0
 32 30  2  0  0  0  0
 33 32  1  6  0  0  0
 33 34  1  0  0  0  0
 33 41  1  0  0  0  0
 34 36  1  0  0  0  0
 36 35  1  1  0  0  0
 37 36  1  0  0  0  0
 38 37  1  0  0  0  0
 39 40  1  0  0  0  0
 40 38  1  0  0  0  0
 41 47  1  6  0  0  0
 41 45  1  0  0  0  0
 42 46  1  0  0  0  0
 43 46  1  0  0  0  0
 44 45  1  0  0  0  0
 44 42  1  0  0  0  0
 45 43  1  0  0  0  0
 48 47  1  0  0  0  0
M  END
>  <MODEL>
3

>  <REMARK>
 VINA RESULT:      -6.3      3.030      3.533
  Name = 
  20 active torsions:
  status: ('A' for Active; 'I' for Inactive)
    1  A    between atoms: C_1  and  C_47
    2  A    between atoms: C_3  and  C_26
    3  A    between atoms: C_4  and  C_18
    4  A    between atoms: C_4  and  C_24
    5  A    between atoms: S_5  and  C_23
    6  A    between atoms: S_5  and  N_39
    7  A    between atoms: C_9  and  C_12
    8  A    between atoms: C_10  and  C_25
    9  A    between atoms: C_10  and  C_38
   10  A    between atoms: C_18  and  N_45
   11  A    between atoms: C_21  and  C_27
   12  A    between atoms: C_21  and  C_47
   13  A    between atoms: C_24  and  C_31
   14  A    between atoms: C_25  and  C_48
   15  A    between atoms: C_26  and  C_33
   16  A    between atoms: C_26  and  N_35
   17  A    between atoms: C_31  and  C_36
   18  A    between atoms: O_32  and  C_33
   19  A    between atoms: O_32  and  C_48
   20  A    between atoms: C_33  and  C_42
                            x       y       z     vdW  Elec       q    Type
                         _______ _______ _______ _____ _____    ______ ____

>  <TORSDO>
F 20

$$$$
=
 OpenBabel11062412063D

 48 52  0  0  1  0  0  0  0  0999 V2000
  188.2550  176.8340  138.5750 C   0  0  0  0  0  3  0  0  0  0  0  0
  187.7780  177.2940  137.3370 C   0  0  0  0  0  0  0  0  0  0  0  0
  188.0890  178.6130  136.9620 C   0  0  0  0  0  3  0  0  0  0  0  0
  189.0110  177.6660  139.3960 C   0  0  0  0  0  0  0  0  0  0  0  0
  189.2890  178.9670  138.9790 C   0  0  0  0  0  3  0  0  0  0  0  0
  188.8300  179.4070  137.7790 N   0  0  0  0  0  0  0  0  0  0  0  0
  184.9700  175.3440  137.4140 C   0  0  2  0  0  3  0  0  0  0  0  0
  186.3920  175.2270  137.2500 C   0  0  2  0  0  3  0  0  0  0  0  0
  186.9000  176.4320  136.4440 C   0  0  1  0  0  0  0  0  0  0  0  0
  185.4940  174.2970  136.4230 C   0  0  0  0  0  0  0  0  0  0  0  0
  185.6850  177.2220  135.9920 C   0  0  0  0  0  2  0  0  0  0  0  0
  184.4950  176.6120  136.7010 C   0  0  1  0  0  3  0  0  0  0  0  0
  185.3250  173.4270  135.5840 O   0  0  0  0  0  0  0  0  0  0  0  0
  187.6510  175.9560  135.1990 C   0  0  0  0  0  1  0  0  0  0  0  0
  183.3810  176.3330  135.6970 C   0  0  0  0  0  2  0  0  0  0  0  0
  182.0340  176.8190  136.2110 C   0  0  0  0  0  2  0  0  0  0  0  0
  181.9450  178.3320  136.1240 C   0  0  1  0  0  3  0  0  0  0  0  0
  180.5790  178.7270  135.8060 C   0  0  0  0  0  2  0  0  0  0  0  0
  181.0590  178.8170  137.1920 N   0  0  0  0  0  0  0  0  0  0  0  0
  181.3940  180.2120  137.4240 C   0  0  0  0  0  2  0  0  0  0  0  0
  180.4500  181.1230  136.6510 C   0  0  0  0  0  2  0  0  0  0  0  0
  180.0590  182.3450  137.4820 C   0  0  1  0  0  3  0  0  0  0  0  0
  180.5520  182.2150  138.7860 O   0  0  0  0  0  1  0  0  0  0  0  0
  181.7020  184.0930  137.4770 O   0  0  0  0  0  1  0  0  0  0  0  0
  180.5270  183.6660  136.8540 C   0  0  0  0  0  0  0  0  0  0  0  0
  180.7950  183.4470  135.5030 O   0  0  0  0  0  1  0  0  0  0  0  0
  179.2200  185.3400  135.7310 F   0  0  0  0  0  0  0  0  0  0  0  0
  179.4690  184.7610  136.9620 C   0  0  0  0  0  2  0  0  0  0  0  0
  189.5990  177.0800  140.9810 S   0  0  0  0  0  0  0  0  0  0  0  0
  187.8560  175.8510  143.1480 O   0  0  0  0  0  0  0  0  0  0  0  0
  188.1950  177.7430  141.8210 N   0  0  0  0  0  2  0  0  0  0  0  0
  187.5190  177.0300  142.8570 C   0  0  0  0  0  0  0  0  0  0  0  0
  186.4110  177.6910  143.6190 C   0  0  1  0  0  3  0  0  0  0  0  0
  186.9430  178.3380  144.7440 O   0  0  0  0  0  0  0  0  0  0  0  0
  185.3380  178.2530  146.4990 C   0  0  0  0  0  1  0  0  0  0  0  0
  186.5290  177.5790  145.8420 C   0  0  2  0  0  3  0  0  0  0  0  0
  187.6720  177.4630  146.8360 C   0  0  0  0  0  2  0  0  0  0  0  0
  188.9930  177.3350  146.1040 C   0  0  0  0  0  2  0  0  0  0  0  0
  189.8220  177.8040  148.2780 O   0  0  0  0  0  1  0  0  0  0  0  0
  190.1110  177.1160  147.1030 C   0  0  0  0  0  2  0  0  0  0  0  0
  185.6580  178.6900  142.7280 C   0  0  1  0  0  3  0  0  0  0  0  0
  183.2550  178.1350  140.0770 C   0  0  0  0  0  2  0  0  0  0  0  0
  185.5390  178.8390  140.3420 C   0  0  0  0  0  2  0  0  0  0  0  0
  183.7090  177.9190  141.4980 C   0  0  0  0  0  2  0  0  0  0  0  0
  185.1660  178.0340  141.5030 N   0  0  0  0  0  0  0  0  0  0  0  0
  184.3090  179.0280  139.4780 C   0  0  0  0  0  2  0  0  0  0  0  0
  184.5520  179.4280  143.4980 C   0  0  0  0  0  2  0  0  0  0  0  0
  184.9670  180.7090  143.8170 F   0  0  0  0  0  0  0  0  0  0  0  0
  1  4  1  0  0  0  0
  2  1  2  0  0  0  0
  3  2  1  0  0  0  0
  3  6  2  0  0  0  0
  4 29  1  0  0  0  0
  5  4  2  0  0  0  0
  6  5  1  0  0  0  0
  7 10  1  6  0  0  0
  8 10  1  6  0  0  0
  8  7  1  0  0  0  0
  9 14  1  6  0  0  0
  9  8  1  0  0  0  0
  9  2  1  0  0  0  0
 11  9  1  0  0  0  0
 11 12  1  0  0  0  0
 12 15  1  6  0  0  0
 12  7  1  0  0  0  0
 13 10  2  0  0  0  0
 15 16  1  0  0  0  0
 17 16  1  1  0  0  0
 17 19  1  0  0  0  0
 18 17  1  0  0  0  0
 18 19  1  0  0  0  0
 19 20  1  0  0  0  0
 21 20  1  0  0  0  0
 21 22  1  0  0  0  0
 22 23  1  1  0  0  0
 25 28  1  0  0  0  0
 25 24  1  0  0  0  0
 25 22  1  0  0  0  0
 26 25  1  0  0  0  0
 27 28  1  0  0  0  0
 29 31  1  0  0  0  0
 31 32  1  0  0  0  0
 32 30  2  0  0  0  0
 33 32  1  6  0  0  0
 33 34  1  0  0  0  0
 34 36  1  0  0  0  0
 36 35  1  1  0  0  0
 36 37  1  0  0  0  0
 38 37  1  0  0  0  0
 38 40  1  0  0  0  0
 40 39  1  0  0  0  0
 41 47  1  1  0  0  0
 41 33  1  0  0  0  0
 42 44  1  0  0  0  0
 43 45  1  0  0  0  0
 44 45  1  0  0  0  0
 45 41  1  0  0  0  0
 46 42  1  0  0  0  0
 46 43  1  0  0  0  0
 47 48  1  0  0  0  0
M  END
>  <MODEL>
4

>  <REMARK>
 VINA RESULT:      -6.2      2.995      4.955
  Name = 
  20 active torsions:
  status: ('A' for Active; 'I' for Inactive)
    1  A    between atoms: C_1  and  C_47
    2  A    between atoms: C_3  and  C_26
    3  A    between atoms: C_4  and  C_18
    4  A    between atoms: C_4  and  C_24
    5  A    between atoms: S_5  and  C_23
    6  A    between atoms: S_5  and  N_39
    7  A    between atoms: C_9  and  C_12
    8  A    between atoms: C_10  and  C_25
    9  A    between atoms: C_10  and  C_38
   10  A    between atoms: C_18  and  N_45
   11  A    between atoms: C_21  and  C_27
   12  A    between atoms: C_21  and  C_47
   13  A    between atoms: C_24  and  C_31
   14  A    between atoms: C_25  and  C_48
   15  A    between atoms: C_26  and  C_33
   16  A    between atoms: C_26  and  N_35
   17  A    between atoms: C_31  and  C_36
   18  A    between atoms: O_32  and  C_33
   19  A    between atoms: O_32  and  C_48
   20  A    between atoms: C_33  and  C_42
                            x       y       z     vdW  Elec       q    Type
                         _______ _______ _______ _____ _____    ______ ____

>  <TORSDO>
F 20

$$$$
=
 OpenBabel11062412063D

 48 52  0  0  1  0  0  0  0  0999 V2000
  184.5010  175.6270  137.3670 C   0  0  0  0  0  3  0  0  0  0  0  0
  185.8040  175.3170  136.9450 C   0  0  0  0  0  0  0  0  0  0  0  0
  186.1160  173.9660  136.7130 C   0  0  0  0  0  3  0  0  0  0  0  0
  183.5560  174.6200  137.5460 C   0  0  0  0  0  0  0  0  0  0  0  0
  183.9180  173.2950  137.3060 C   0  0  0  0  0  3  0  0  0  0  0  0
  185.1780  173.0000  136.8930 N   0  0  0  0  0  0  0  0  0  0  0  0
  187.2320  177.9320  138.6220 C   0  0  2  0  0  3  0  0  0  0  0  0
  186.3980  177.6750  137.4820 C   0  0  2  0  0  3  0  0  0  0  0  0
  186.8750  176.3850  136.7970 C   0  0  1  0  0  0  0  0  0  0  0  0
  187.4220  178.8140  137.3800 C   0  0  0  0  0  0  0  0  0  0  0  0
  188.1490  175.9450  137.4960 C   0  0  0  0  0  2  0  0  0  0  0  0
  188.2990  176.8380  138.7070 C   0  0  1  0  0  3  0  0  0  0  0  0
  187.9860  179.7040  136.7670 O   0  0  0  0  0  0  0  0  0  0  0  0
  187.2060  176.6590  135.3290 C   0  0  0  0  0  1  0  0  0  0  0  0
  189.7140  177.4070  138.7600 C   0  0  0  0  0  2  0  0  0  0  0  0
  190.5230  176.7820  139.8860 C   0  0  0  0  0  2  0  0  0  0  0  0
  190.3390  177.5680  141.1730 C   0  0  1  0  0  3  0  0  0  0  0  0
  189.5230  176.8010  142.1050 C   0  0  0  0  0  2  0  0  0  0  0  0
  190.9820  176.8330  142.2720 N   0  0  0  0  0  0  0  0  0  0  0  0
  191.2580  177.7960  143.3260 C   0  0  0  0  0  2  0  0  0  0  0  0
  190.1130  177.8310  144.3280 C   0  0  0  0  0  2  0  0  0  0  0  0
  190.4590  177.0350  145.5870 C   0  0  1  0  0  3  0  0  0  0  0  0
  191.7180  177.4170  146.0630 O   0  0  0  0  0  1  0  0  0  0  0  0
  189.4200  176.0440  147.5090 O   0  0  0  0  0  1  0  0  0  0  0  0
  189.3970  177.1740  146.6880 C   0  0  0  0  0  0  0  0  0  0  0  0
  189.7010  178.2910  147.4640 O   0  0  0  0  0  1  0  0  0  0  0  0
  187.3050  178.3510  146.7820 F   0  0  0  0  0  0  0  0  0  0  0  0
  187.9930  177.3550  146.1150 C   0  0  0  0  0  2  0  0  0  0  0  0
  181.9040  175.0190  138.1030 S   0  0  0  0  0  0  0  0  0  0  0  0
  180.7740  176.6950  140.3740 O   0  0  0  0  0  0  0  0  0  0  0  0
  182.4220  176.5900  138.7220 N   0  0  0  0  0  2  0  0  0  0  0  0
  181.7910  177.2140  139.8400 C   0  0  0  0  0  0  0  0  0  0  0  0
  182.3490  178.4870  140.3990 C   0  0  1  0  0  3  0  0  0  0  0  0
  181.6020  179.5720  139.9200 O   0  0  0  0  0  0  0  0  0  0  0  0
  183.6900  180.0070  138.8630 C   0  0  0  0  0  1  0  0  0  0  0  0
  182.1840  179.9160  138.6960 C   0  0  2  0  0  3  0  0  0  0  0  0
  181.6310  181.2520  138.2310 C   0  0  0  0  0  2  0  0  0  0  0  0
  180.1230  181.1810  138.1050 C   0  0  0  0  0  2  0  0  0  0  0  0
  180.8830  181.2250  135.8560 O   0  0  0  0  0  1  0  0  0  0  0  0
  179.7340  181.1720  136.6400 C   0  0  0  0  0  2  0  0  0  0  0  0
  182.3360  178.4590  141.9350 C   0  0  1  0  0  3  0  0  0  0  0  0
  185.1430  178.5390  144.2200 C   0  0  0  0  0  2  0  0  0  0  0  0
  184.7270  178.3660  141.8590 C   0  0  0  0  0  2  0  0  0  0  0  0
  183.6890  178.8050  143.9230 C   0  0  0  0  0  2  0  0  0  0  0  0
  183.5810  179.0250  142.4820 N   0  0  0  0  0  0  0  0  0  0  0  0
  185.6790  177.9300  142.9520 C   0  0  0  0  0  2  0  0  0  0  0  0
  181.0740  179.1190  142.5120 C   0  0  0  0  0  2  0  0  0  0  0  0
  180.5620  178.3500  143.5430 F   0  0  0  0  0  0  0  0  0  0  0  0
  1  4  1  0  0  0  0
  2  1  2  0  0  0  0
  3  6  2  0  0  0  0
  3  2  1  0  0  0  0
  4 29  1  0  0  0  0
  5  4  2  0  0  0  0
  6  5  1  0  0  0  0
  7 10  1  6  0  0  0
  7 12  1  0  0  0  0
  8 10  1  6  0  0  0
  8  7  1  0  0  0  0
  9 14  1  6  0  0  0
  9  2  1  0  0  0  0
  9  8  1  0  0  0  0
  9 11  1  0  0  0  0
 11 12  1  0  0  0  0
 12 15  1  6  0  0  0
 13 10  2  0  0  0  0
 15 16  1  0  0  0  0
 17 16  1  6  0  0  0
 17 18  1  0  0  0  0
 17 19  1  0  0  0  0
 18 19  1  0  0  0  0
 19 20  1  0  0  0  0
 20 21  1  0  0  0  0
 21 22  1  0  0  0  0
 22 23  1  1  0  0  0
 22 25  1  0  0  0  0
 25 26  1  0  0  0  0
 25 24  1  0  0  0  0
 28 25  1  0  0  0  0
 28 27  1  0  0  0  0
 29 31  1  0  0  0  0
 31 32  1  0  0  0  0
 32 30  2  0  0  0  0
 33 32  1  6  0  0  0
 33 41  1  0  0  0  0
 34 33  1  0  0  0  0
 36 35  1  1  0  0  0
 36 34  1  0  0  0  0
 37 36  1  0  0  0  0
 38 37  1  0  0  0  0
 39 40  1  0  0  0  0
 40 38  1  0  0  0  0
 41 45  1  0  0  0  0
 41 47  1  1  0  0  0
 43 45  1  0  0  0  0
 43 46  1  0  0  0  0
 44 42  1  0  0  0  0
 45 44  1  0  0  0  0
 46 42  1  0  0  0  0
 47 48  1  0  0  0  0
M  END
>  <MODEL>
5

>  <REMARK>
 VINA RESULT:      -6.1      2.751      8.061
  Name = 
  20 active torsions:
  status: ('A' for Active; 'I' for Inactive)
    1  A    between atoms: C_1  and  C_47
    2  A    between atoms: C_3  and  C_26
    3  A    between atoms: C_4  and  C_18
    4  A    between atoms: C_4  and  C_24
    5  A    between atoms: S_5  and  C_23
    6  A    between atoms: S_5  and  N_39
    7  A    between atoms: C_9  and  C_12
    8  A    between atoms: C_10  and  C_25
    9  A    between atoms: C_10  and  C_38
   10  A    between atoms: C_18  and  N_45
   11  A    between atoms: C_21  and  C_27
   12  A    between atoms: C_21  and  C_47
   13  A    between atoms: C_24  and  C_31
   14  A    between atoms: C_25  and  C_48
   15  A    between atoms: C_26  and  C_33
   16  A    between atoms: C_26  and  N_35
   17  A    between atoms: C_31  and  C_36
   18  A    between atoms: O_32  and  C_33
   19  A    between atoms: O_32  and  C_48
   20  A    between atoms: C_33  and  C_42
                            x       y       z     vdW  Elec       q    Type
                         _______ _______ _______ _____ _____    ______ ____

>  <TORSDO>
F 20

$$$$
=
 OpenBabel11062412063D

 48 52  0  0  1  0  0  0  0  0999 V2000
  186.6440  178.6090  144.1030 C   0  0  0  0  0  3  0  0  0  0  0  0
  187.8340  177.9270  144.4030 C   0  0  0  0  0  0  0  0  0  0  0  0
  187.8850  177.1890  145.5990 C   0  0  0  0  0  3  0  0  0  0  0  0
  185.5550  178.5500  144.9690 C   0  0  0  0  0  0  0  0  0  0  0  0
  185.6590  177.8060  146.1440 C   0  0  0  0  0  3  0  0  0  0  0  0
  186.8100  177.1440  146.4290 N   0  0  0  0  0  0  0  0  0  0  0  0
  189.5180  176.2060  141.9760 C   0  0  2  0  0  3  0  0  0  0  0  0
  189.6680  176.6190  143.3430 C   0  0  2  0  0  3  0  0  0  0  0  0
  189.0600  178.0190  143.5090 C   0  0  1  0  0  0  0  0  0  0  0  0
  190.9180  176.6170  142.4510 C   0  0  0  0  0  0  0  0  0  0  0  0
  188.6600  178.5080  142.1290 C   0  0  0  0  0  2  0  0  0  0  0  0
  188.8320  177.3290  141.1960 C   0  0  1  0  0  3  0  0  0  0  0  0
  192.1030  176.8280  142.2570 O   0  0  0  0  0  0  0  0  0  0  0  0
  190.1040  178.9850  144.0740 C   0  0  0  0  0  1  0  0  0  0  0  0
  189.6280  177.7540  139.9650 C   0  0  0  0  0  2  0  0  0  0  0  0
  189.7390  176.6210  138.9560 C   0  0  0  0  0  2  0  0  0  0  0  0
  190.9270  176.8420  138.0360 C   0  0  1  0  0  3  0  0  0  0  0  0
  192.1650  176.7510  138.7990 C   0  0  0  0  0  2  0  0  0  0  0  0
  191.7230  175.6080  137.9870 N   0  0  0  0  0  0  0  0  0  0  0  0
  192.5000  175.6510  136.7580 C   0  0  0  0  0  2  0  0  0  0  0  0
  193.9600  175.9540  137.0610 C   0  0  0  0  0  2  0  0  0  0  0  0
  194.8350  175.7400  135.8260 C   0  0  1  0  0  3  0  0  0  0  0  0
  194.8600  176.9040  135.0490 O   0  0  0  0  0  1  0  0  0  0  0  0
  197.1480  176.3550  135.9930 O   0  0  0  0  0  1  0  0  0  0  0  0
  196.2620  175.2920  136.1770 C   0  0  0  0  0  0  0  0  0  0  0  0
  196.2930  174.9160  137.5190 O   0  0  0  0  0  1  0  0  0  0  0  0
  195.6490  173.2890  135.0010 F   0  0  0  0  0  0  0  0  0  0  0  0
  196.7160  174.1020  135.3350 C   0  0  0  0  0  2  0  0  0  0  0  0
  184.0490  179.4370  144.5910 S   0  0  0  0  0  0  0  0  0  0  0  0
  181.6480  179.1480  142.7490 O   0  0  0  0  0  0  0  0  0  0  0  0
  183.9190  178.6720  143.0040 N   0  0  0  0  0  2  0  0  0  0  0  0
  182.7040  178.6710  142.2550 C   0  0  0  0  0  0  0  0  0  0  0  0
  182.6840  178.1160  140.8640 C   0  0  1  0  0  3  0  0  0  0  0  0
  181.3940  178.2490  140.3290 O   0  0  0  0  0  0  0  0  0  0  0  0
  180.5000  177.0090  138.5050 C   0  0  0  0  0  1  0  0  0  0  0  0
  181.0200  176.9630  139.9310 C   0  0  2  0  0  3  0  0  0  0  0  0
  179.9380  176.4410  140.8610 C   0  0  0  0  0  2  0  0  0  0  0  0
  178.9540  175.5820  140.0920 C   0  0  0  0  0  2  0  0  0  0  0  0
  178.9470  174.2660  142.0670 O   0  0  0  0  0  1  0  0  0  0  0  0
  178.9310  174.1850  140.6780 C   0  0  0  0  0  2  0  0  0  0  0  0
  183.7130  178.8340  139.9770 C   0  0  1  0  0  3  0  0  0  0  0  0
  185.3860  177.4220  137.0940 C   0  0  0  0  0  2  0  0  0  0  0  0
  185.9420  178.4140  139.2120 C   0  0  0  0  0  2  0  0  0  0  0  0
  184.1470  177.5910  137.9350 C   0  0  0  0  0  2  0  0  0  0  0  0
  184.5910  177.8630  139.3010 N   0  0  0  0  0  0  0  0  0  0  0  0
  186.4260  178.2620  137.7860 C   0  0  0  0  0  2  0  0  0  0  0  0
  183.0460  179.8190  139.0040 C   0  0  0  0  0  2  0  0  0  0  0  0
  183.9010  180.8740  138.7350 F   0  0  0  0  0  0  0  0  0  0  0  0
  1  2  2  0  0  0  0
  1  4  1  0  0  0  0
  2  3  1  0  0  0  0
  3  6  2  0  0  0  0
  4  5  2  0  0  0  0
  5  6  1  0  0  0  0
  7 10  1  6  0  0  0
  7  8  1  0  0  0  0
  8 10  1  6  0  0  0
  8  9  1  0  0  0  0
  9 14  1  1  0  0  0
  9  2  1  0  0  0  0
 11  9  1  0  0  0  0
 12 15  1  6  0  0  0
 12  7  1  0  0  0  0
 12 11  1  0  0  0  0
 13 10  2  0  0  0  0
 16 15  1  0  0  0  0
 17 18  1  0  0  0  0
 17 16  1  1  0  0  0
 19 17  1  0  0  0  0
 19 18  1  0  0  0  0
 20 21  1  0  0  0  0
 20 19  1  0  0  0  0
 22 23  1  1  0  0  0
 22 25  1  0  0  0  0
 22 21  1  0  0  0  0
 24 25  1  0  0  0  0
 25 26  1  0  0  0  0
 27 28  1  0  0  0  0
 28 25  1  0  0  0  0
 29  4  1  0  0  0  0
 31 29  1  0  0  0  0
 32 30  2  0  0  0  0
 32 31  1  0  0  0  0
 33 34  1  6  0  0  0
 33 32  1  0  0  0  0
 36 35  1  6  0  0  0
 36 34  1  0  0  0  0
 36 37  1  0  0  0  0
 38 40  1  0  0  0  0
 38 37  1  0  0  0  0
 40 39  1  0  0  0  0
 41 47  1  6  0  0  0
 41 33  1  0  0  0  0
 42 46  1  0  0  0  0
 42 44  1  0  0  0  0
 43 45  1  0  0  0  0
 44 45  1  0  0  0  0
 45 41  1  0  0  0  0
 46 43  1  0  0  0  0
 48 47  1  0  0  0  0
M  END
>  <MODEL>
6

>  <REMARK>
 VINA RESULT:      -5.9      4.427      9.779
  Name = 
  20 active torsions:
  status: ('A' for Active; 'I' for Inactive)
    1  A    between atoms: C_1  and  C_47
    2  A    between atoms: C_3  and  C_26
    3  A    between atoms: C_4  and  C_18
    4  A    between atoms: C_4  and  C_24
    5  A    between atoms: S_5  and  C_23
    6  A    between atoms: S_5  and  N_39
    7  A    between atoms: C_9  and  C_12
    8  A    between atoms: C_10  and  C_25
    9  A    between atoms: C_10  and  C_38
   10  A    between atoms: C_18  and  N_45
   11  A    between atoms: C_21  and  C_27
   12  A    between atoms: C_21  and  C_47
   13  A    between atoms: C_24  and  C_31
   14  A    between atoms: C_25  and  C_48
   15  A    between atoms: C_26  and  C_33
   16  A    between atoms: C_26  and  N_35
   17  A    between atoms: C_31  and  C_36
   18  A    between atoms: O_32  and  C_33
   19  A    between atoms: O_32  and  C_48
   20  A    between atoms: C_33  and  C_42
                            x       y       z     vdW  Elec       q    Type
                         _______ _______ _______ _____ _____    ______ ____

>  <TORSDO>
F 20

$$$$
=
 OpenBabel11062412063D

 48 52  0  0  1  0  0  0  0  0999 V2000
  184.8190  178.6750  141.4900 C   0  0  0  0  0  3  0  0  0  0  0  0
  184.2560  178.7960  142.7710 C   0  0  0  0  0  0  0  0  0  0  0  0
  182.8670  178.6210  142.8980 C   0  0  0  0  0  3  0  0  0  0  0  0
  184.0160  178.3930  140.3880 C   0  0  0  0  0  0  0  0  0  0  0  0
  182.6430  178.2320  140.5670 C   0  0  0  0  0  3  0  0  0  0  0  0
  182.1030  178.3440  141.8090 N   0  0  0  0  0  0  0  0  0  0  0  0
  185.6520  177.4280  145.5770 C   0  0  2  0  0  3  0  0  0  0  0  0
  184.6150  178.3440  145.1940 C   0  0  2  0  0  3  0  0  0  0  0  0
  185.0950  179.1620  143.9850 C   0  0  1  0  0  0  0  0  0  0  0  0
  185.4090  178.6510  146.4710 C   0  0  0  0  0  0  0  0  0  0  0  0
  186.5490  178.8000  143.7400 C   0  0  0  0  0  2  0  0  0  0  0  0
  186.8540  177.6320  144.6520 C   0  0  1  0  0  3  0  0  0  0  0  0
  185.6750  179.3540  147.4310 O   0  0  0  0  0  0  0  0  0  0  0  0
  185.0210  180.6580  144.2970 C   0  0  0  0  0  1  0  0  0  0  0  0
  188.1430  177.9000  145.4240 C   0  0  0  0  0  2  0  0  0  0  0  0
  189.2860  177.0340  144.9160 C   0  0  0  0  0  2  0  0  0  0  0  0
  190.0690  177.7640  143.8390 C   0  0  1  0  0  3  0  0  0  0  0  0
  191.4740  177.8440  144.2200 C   0  0  0  0  0  2  0  0  0  0  0  0
  191.0400  176.8320  143.2470 N   0  0  0  0  0  0  0  0  0  0  0  0
  191.3820  177.3510  141.9320 C   0  0  0  0  0  2  0  0  0  0  0  0
  190.5840  176.6340  140.8520 C   0  0  0  0  0  2  0  0  0  0  0  0
  190.4990  177.4760  139.5790 C   0  0  1  0  0  3  0  0  0  0  0  0
  191.1250  176.8080  138.5210 O   0  0  0  0  0  1  0  0  0  0  0  0
  189.0390  179.0890  138.5680 O   0  0  0  0  0  1  0  0  0  0  0  0
  189.0550  177.8480  139.2080 C   0  0  0  0  0  0  0  0  0  0  0  0
  188.5590  176.8880  138.3270 O   0  0  0  0  0  1  0  0  0  0  0  0
  188.3450  179.0510  141.1630 F   0  0  0  0  0  0  0  0  0  0  0  0
  188.1410  177.8970  140.4300 C   0  0  0  0  0  2  0  0  0  0  0  0
  184.7360  178.2610  138.7560 S   0  0  0  0  0  0  0  0  0  0  0  0
  183.4030  177.4520  136.1460 O   0  0  0  0  0  0  0  0  0  0  0  0
  183.7630  176.8380  138.3700 N   0  0  0  0  0  2  0  0  0  0  0  0
  183.2490  176.5990  137.0600 C   0  0  0  0  0  0  0  0  0  0  0  0
  182.5350  175.3160  136.7600 C   0  0  1  0  0  3  0  0  0  0  0  0
  181.1600  175.5650  136.6440 O   0  0  0  0  0  0  0  0  0  0  0  0
  180.2700  174.2780  138.4370 C   0  0  0  0  0  1  0  0  0  0  0  0
  180.6850  175.6560  137.9550 C   0  0  2  0  0  3  0  0  0  0  0  0
  179.4960  176.6010  137.9960 C   0  0  0  0  0  2  0  0  0  0  0  0
  179.9580  178.0350  137.8390 C   0  0  0  0  0  2  0  0  0  0  0  0
  179.4850  178.3780  135.5380 O   0  0  0  0  0  1  0  0  0  0  0  0
  179.0870  178.7430  136.8210 C   0  0  0  0  0  2  0  0  0  0  0  0
  183.0790  174.6800  135.4710 C   0  0  1  0  0  3  0  0  0  0  0  0
  186.1360  173.5760  137.0680 C   0  0  0  0  0  2  0  0  0  0  0  0
  183.8010  173.0020  137.0180 C   0  0  0  0  0  2  0  0  0  0  0  0
  185.4310  174.3350  135.9720 C   0  0  0  0  0  2  0  0  0  0  0  0
  184.1320  173.6950  135.7750 N   0  0  0  0  0  0  0  0  0  0  0  0
  185.0210  173.0220  137.9150 C   0  0  0  0  0  2  0  0  0  0  0  0
  181.9560  174.1050  134.5950 C   0  0  0  0  0  2  0  0  0  0  0  0
  181.1450  173.2720  135.3450 F   0  0  0  0  0  0  0  0  0  0  0  0
  1  2  1  0  0  0  0
  2  3  2  0  0  0  0
  2  9  1  0  0  0  0
  4  5  1  0  0  0  0
  4  1  2  0  0  0  0
  5  6  2  0  0  0  0
  6  3  1  0  0  0  0
  7 10  1  1  0  0  0
  8  7  1  0  0  0  0
  8 10  1  1  0  0  0
  9 14  1  1  0  0  0
  9  8  1  0  0  0  0
 10 13  2  0  0  0  0
 11  9  1  0  0  0  0
 11 12  1  0  0  0  0
 12 15  1  1  0  0  0
 12  7  1  0  0  0  0
 16 15  1  0  0  0  0
 17 18  1  0  0  0  0
 17 16  1  1  0  0  0
 19 17  1  0  0  0  0
 19 18  1  0  0  0  0
 20 19  1  0  0  0  0
 21 20  1  0  0  0  0
 22 23  1  6  0  0  0
 22 21  1  0  0  0  0
 24 25  1  0  0  0  0
 25 22  1  0  0  0  0
 25 28  1  0  0  0  0
 26 25  1  0  0  0  0
 28 27  1  0  0  0  0
 29  4  1  0  0  0  0
 30 32  2  0  0  0  0
 31 29  1  0  0  0  0
 32 31  1  0  0  0  0
 33 34  1  6  0  0  0
 33 32  1  0  0  0  0
 34 36  1  0  0  0  0
 36 37  1  0  0  0  0
 36 35  1  6  0  0  0
 38 37  1  0  0  0  0
 39 40  1  0  0  0  0
 40 38  1  0  0  0  0
 41 47  1  1  0  0  0
 41 45  1  0  0  0  0
 41 33  1  0  0  0  0
 42 46  1  0  0  0  0
 43 46  1  0  0  0  0
 44 42  1  0  0  0  0
 45 44  1  0  0  0  0
 45 43  1  0  0  0  0
 47 48  1  0  0  0  0
M  END
>  <MODEL>
7

>  <REMARK>
 VINA RESULT:      -5.9      2.816      9.698
  Name = 
  20 active torsions:
  status: ('A' for Active; 'I' for Inactive)
    1  A    between atoms: C_1  and  C_47
    2  A    between atoms: C_3  and  C_26
    3  A    between atoms: C_4  and  C_18
    4  A    between atoms: C_4  and  C_24
    5  A    between atoms: S_5  and  C_23
    6  A    between atoms: S_5  and  N_39
    7  A    between atoms: C_9  and  C_12
    8  A    between atoms: C_10  and  C_25
    9  A    between atoms: C_10  and  C_38
   10  A    between atoms: C_18  and  N_45
   11  A    between atoms: C_21  and  C_27
   12  A    between atoms: C_21  and  C_47
   13  A    between atoms: C_24  and  C_31
   14  A    between atoms: C_25  and  C_48
   15  A    between atoms: C_26  and  C_33
   16  A    between atoms: C_26  and  N_35
   17  A    between atoms: C_31  and  C_36
   18  A    between atoms: O_32  and  C_33
   19  A    between atoms: O_32  and  C_48
   20  A    between atoms: C_33  and  C_42
                            x       y       z     vdW  Elec       q    Type
                         _______ _______ _______ _____ _____    ______ ____

>  <TORSDO>
F 20

$$$$
=
 OpenBabel11062412063D

 48 52  0  0  1  0  0  0  0  0999 V2000
  184.2560  178.7490  141.6950 C   0  0  0  0  0  3  0  0  0  0  0  0
  183.8390  178.8430  143.0320 C   0  0  0  0  0  0  0  0  0  0  0  0
  182.4760  178.6440  143.3120 C   0  0  0  0  0  3  0  0  0  0  0  0
  183.3380  178.4680  140.6850 C   0  0  0  0  0  0  0  0  0  0  0  0
  181.9960  178.2830  141.0160 C   0  0  0  0  0  3  0  0  0  0  0  0
  181.5980  178.3690  142.3120 N   0  0  0  0  0  0  0  0  0  0  0  0
  185.2160  177.5890  145.8990 C   0  0  2  0  0  3  0  0  0  0  0  0
  184.2970  178.6040  145.4680 C   0  0  2  0  0  3  0  0  0  0  0  0
  184.8040  179.2060  144.1490 C   0  0  1  0  0  0  0  0  0  0  0  0
  185.2130  178.9230  146.6580 C   0  0  0  0  0  0  0  0  0  0  0  0
  186.1700  178.6060  143.8720 C   0  0  0  0  0  2  0  0  0  0  0  0
  186.3680  177.5100  144.8950 C   0  0  1  0  0  3  0  0  0  0  0  0
  185.6430  179.6760  147.5150 O   0  0  0  0  0  0  0  0  0  0  0  0
  184.9660  180.7210  144.2900 C   0  0  0  0  0  1  0  0  0  0  0  0
  187.7320  177.6630  145.5610 C   0  0  0  0  0  2  0  0  0  0  0  0
  188.8000  176.8610  144.8320 C   0  0  0  0  0  2  0  0  0  0  0  0
  189.4400  177.6980  143.7380 C   0  0  1  0  0  3  0  0  0  0  0  0
  190.5270  176.9510  143.1180 C   0  0  0  0  0  2  0  0  0  0  0  0
  189.2230  177.0330  142.4450 N   0  0  0  0  0  0  0  0  0  0  0  0
  189.3540  178.0510  141.4150 C   0  0  0  0  0  2  0  0  0  0  0  0
  189.7510  177.4190  140.0890 C   0  0  0  0  0  2  0  0  0  0  0  0
  188.6110  177.5040  139.0740 C   0  0  1  0  0  3  0  0  0  0  0  0
  188.3440  178.8420  138.7650 O   0  0  0  0  0  1  0  0  0  0  0  0
  189.7390  175.6270  138.0920 O   0  0  0  0  0  1  0  0  0  0  0  0
  188.8900  176.6960  137.7970 C   0  0  0  0  0  0  0  0  0  0  0  0
  187.6840  176.1870  137.3190 O   0  0  0  0  0  1  0  0  0  0  0  0
  190.1070  176.7680  135.7270 F   0  0  0  0  0  0  0  0  0  0  0  0
  189.5170  177.5530  136.6990 C   0  0  0  0  0  2  0  0  0  0  0  0
  183.8710  178.3700  138.9810 S   0  0  0  0  0  0  0  0  0  0  0  0
  182.0700  177.6150  136.6510 O   0  0  0  0  0  0  0  0  0  0  0  0
  182.9290  176.9020  138.7020 N   0  0  0  0  0  2  0  0  0  0  0  0
  182.1660  176.7010  137.5120 C   0  0  0  0  0  0  0  0  0  0  0  0
  181.4860  175.3870  137.2740 C   0  0  1  0  0  3  0  0  0  0  0  0
  182.3420  174.3450  137.6590 O   0  0  0  0  0  0  0  0  0  0  0  0
  182.4900  172.2470  136.5440 C   0  0  0  0  0  1  0  0  0  0  0  0
  182.7530  173.7400  136.4680 C   0  0  2  0  0  3  0  0  0  0  0  0
  184.2360  173.9950  136.2570 C   0  0  0  0  0  2  0  0  0  0  0  0
  184.9620  173.9990  137.5870 C   0  0  0  0  0  2  0  0  0  0  0  0
  185.8860  172.1050  136.4960 O   0  0  0  0  0  1  0  0  0  0  0  0
  186.0840  172.9810  137.5590 C   0  0  0  0  0  2  0  0  0  0  0  0
  180.1620  175.3120  138.0480 C   0  0  1  0  0  3  0  0  0  0  0  0
  178.9410  173.4680  135.1810 C   0  0  0  0  0  2  0  0  0  0  0  0
  179.0220  173.2600  137.5750 C   0  0  0  0  0  2  0  0  0  0  0  0
  179.4140  174.7570  135.8040 C   0  0  0  0  0  2  0  0  0  0  0  0
  179.1110  174.6780  137.2320 N   0  0  0  0  0  0  0  0  0  0  0  0
  179.0400  172.4560  136.2920 C   0  0  0  0  0  2  0  0  0  0  0  0
  180.3350  174.6470  139.4220 C   0  0  0  0  0  2  0  0  0  0  0  0
  180.3380  175.6060  140.4190 F   0  0  0  0  0  0  0  0  0  0  0  0
  1  2  1  0  0  0  0
  2  3  2  0  0  0  0
  2  9  1  0  0  0  0
  4  5  1  0  0  0  0
  4  1  2  0  0  0  0
  5  6  2  0  0  0  0
  6  3  1  0  0  0  0
  7 10  1  1  0  0  0
  8  7  1  0  0  0  0
  8 10  1  1  0  0  0
  9 14  1  1  0  0  0
  9  8  1  0  0  0  0
 10 13  2  0  0  0  0
 11  9  1  0  0  0  0
 11 12  1  0  0  0  0
 12 15  1  1  0  0  0
 12  7  1  0  0  0  0
 16 15  1  0  0  0  0
 17 16  1  1  0  0  0
 18 17  1  0  0  0  0
 19 18  1  0  0  0  0
 19 17  1  0  0  0  0
 20 19  1  0  0  0  0
 21 20  1  0  0  0  0
 22 23  1  6  0  0  0
 22 21  1  0  0  0  0
 25 24  1  0  0  0  0
 25 22  1  0  0  0  0
 26 25  1  0  0  0  0
 27 28  1  0  0  0  0
 28 25  1  0  0  0  0
 29  4  1  0  0  0  0
 30 32  2  0  0  0  0
 31 29  1  0  0  0  0
 32 31  1  0  0  0  0
 33 32  1  1  0  0  0
 33 34  1  0  0  0  0
 33 41  1  0  0  0  0
 36 35  1  1  0  0  0
 36 34  1  0  0  0  0
 37 36  1  0  0  0  0
 37 38  1  0  0  0  0
 39 40  1  0  0  0  0
 40 38  1  0  0  0  0
 41 47  1  1  0  0  0
 42 44  1  0  0  0  0
 42 46  1  0  0  0  0
 44 45  1  0  0  0  0
 45 43  1  0  0  0  0
 45 41  1  0  0  0  0
 46 43  1  0  0  0  0
 47 48  1  0  0  0  0
M  END
>  <MODEL>
8

>  <REMARK>
 VINA RESULT:      -5.8      2.838     10.287
  Name = 
  20 active torsions:
  status: ('A' for Active; 'I' for Inactive)
    1  A    between atoms: C_1  and  C_47
    2  A    between atoms: C_3  and  C_26
    3  A    between atoms: C_4  and  C_18
    4  A    between atoms: C_4  and  C_24
    5  A    between atoms: S_5  and  C_23
    6  A    between atoms: S_5  and  N_39
    7  A    between atoms: C_9  and  C_12
    8  A    between atoms: C_10  and  C_25
    9  A    between atoms: C_10  and  C_38
   10  A    between atoms: C_18  and  N_45
   11  A    between atoms: C_21  and  C_27
   12  A    between atoms: C_21  and  C_47
   13  A    between atoms: C_24  and  C_31
   14  A    between atoms: C_25  and  C_48
   15  A    between atoms: C_26  and  C_33
   16  A    between atoms: C_26  and  N_35
   17  A    between atoms: C_31  and  C_36
   18  A    between atoms: O_32  and  C_33
   19  A    between atoms: O_32  and  C_48
   20  A    between atoms: C_33  and  C_42
                            x       y       z     vdW  Elec       q    Type
                         _______ _______ _______ _____ _____    ______ ____

>  <TORSDO>
F 20

$$$$
=
 OpenBabel11062412063D

 48 52  0  0  1  0  0  0  0  0999 V2000
  179.6980  177.2460  140.3160 C   0  0  0  0  0  3  0  0  0  0  0  0
  179.7510  178.6440  140.4260 C   0  0  0  0  0  0  0  0  0  0  0  0
  179.7470  179.3980  139.2390 C   0  0  0  0  0  3  0  0  0  0  0  0
  179.6430  176.6350  139.0650 C   0  0  0  0  0  0  0  0  0  0  0  0
  179.6450  177.4290  137.9180 C   0  0  0  0  0  3  0  0  0  0  0  0
  179.6920  178.7820  138.0300 N   0  0  0  0  0  0  0  0  0  0  0  0
  180.2620  177.9920  143.7430 C   0  0  2  0  0  3  0  0  0  0  0  0
  179.2330  178.4540  142.8540 C   0  0  2  0  0  3  0  0  0  0  0  0
  179.8710  179.3390  141.7730 C   0  0  1  0  0  0  0  0  0  0  0  0
  179.3080  179.0800  144.2540 C   0  0  0  0  0  0  0  0  0  0  0  0
  181.3340  179.5180  142.1360 C   0  0  0  0  0  2  0  0  0  0  0  0
  181.6020  178.5790  143.2920 C   0  0  1  0  0  3  0  0  0  0  0  0
  178.9310  179.8710  145.1020 O   0  0  0  0  0  0  0  0  0  0  0  0
  179.2080  180.7180  141.7620 C   0  0  0  0  0  1  0  0  0  0  0  0
  182.3170  179.3280  144.4130 C   0  0  0  0  0  2  0  0  0  0  0  0
  183.7860  179.5450  144.0870 C   0  0  0  0  0  2  0  0  0  0  0  0
  184.5480  178.2330  144.1640 C   0  0  1  0  0  3  0  0  0  0  0  0
  185.4040  178.0920  142.9920 C   0  0  0  0  0  2  0  0  0  0  0  0
  185.9850  178.5260  144.2710 N   0  0  0  0  0  0  0  0  0  0  0  0
  186.6170  177.3540  144.8570 C   0  0  0  0  0  2  0  0  0  0  0  0
  187.9950  177.1330  144.2500 C   0  0  0  0  0  2  0  0  0  0  0  0
  189.0960  177.6080  145.1970 C   0  0  1  0  0  3  0  0  0  0  0  0
  188.9370  177.0140  146.4540 O   0  0  0  0  0  1  0  0  0  0  0  0
  191.3490  176.9400  145.6860 O   0  0  0  0  0  1  0  0  0  0  0  0
  190.5070  177.3460  144.6470 C   0  0  0  0  0  0  0  0  0  0  0  0
  190.4360  176.3200  143.7070 O   0  0  0  0  0  1  0  0  0  0  0  0
  191.2720  178.3700  142.6130 F   0  0  0  0  0  0  0  0  0  0  0  0
  191.0990  178.5790  143.9680 C   0  0  0  0  0  2  0  0  0  0  0  0
  179.5960  174.8530  138.9300 S   0  0  0  0  0  0  0  0  0  0  0  0
  180.9370  174.3600  136.2470 O   0  0  0  0  0  0  0  0  0  0  0  0
  181.3110  174.7730  138.5150 N   0  0  0  0  0  2  0  0  0  0  0  0
  181.7620  174.5740  137.1750 C   0  0  0  0  0  0  0  0  0  0  0  0
  183.2250  174.6380  136.8620 C   0  0  1  0  0  3  0  0  0  0  0  0
  183.8220  175.6460  137.6330 O   0  0  0  0  0  0  0  0  0  0  0  0
  185.4050  176.7950  136.2770 C   0  0  0  0  0  1  0  0  0  0  0  0
  183.9710  176.7370  136.7720 C   0  0  2  0  0  3  0  0  0  0  0  0
  183.6260  178.0170  137.5130 C   0  0  0  0  0  2  0  0  0  0  0  0
  183.3000  177.7140  138.9610 C   0  0  0  0  0  2  0  0  0  0  0  0
  184.4590  179.7820  139.0810 O   0  0  0  0  0  1  0  0  0  0  0  0
  183.6990  178.8880  139.8310 C   0  0  0  0  0  2  0  0  0  0  0  0
  183.8990  173.2840  137.1310 C   0  0  1  0  0  3  0  0  0  0  0  0
  184.6340  170.4650  134.9800 C   0  0  0  0  0  2  0  0  0  0  0  0
  183.0220  171.1100  136.6450 C   0  0  0  0  0  2  0  0  0  0  0  0
  184.7910  171.9240  135.3260 C   0  0  0  0  0  2  0  0  0  0  0  0
  183.5900  172.3220  136.0580 N   0  0  0  0  0  0  0  0  0  0  0  0
  183.7550  169.9140  136.0720 C   0  0  0  0  0  2  0  0  0  0  0  0
  185.4060  173.4310  137.3880 C   0  0  0  0  0  2  0  0  0  0  0  0
  185.9470  172.2140  137.7620 F   0  0  0  0  0  0  0  0  0  0  0  0
  1  2  1  0  0  0  0
  2  9  1  0  0  0  0
  3  2  2  0  0  0  0
  4  1  2  0  0  0  0
  5  6  2  0  0  0  0
  5  4  1  0  0  0  0
  6  3  1  0  0  0  0
  7 10  1  1  0  0  0
  8  7  1  0  0  0  0
  8 10  1  1  0  0  0
  9 14  1  6  0  0  0
  9 11  1  0  0  0  0
  9  8  1  0  0  0  0
 10 13  2  0  0  0  0
 11 12  1  0  0  0  0
 12  7  1  0  0  0  0
 12 15  1  1  0  0  0
 16 15  1  0  0  0  0
 17 16  1  6  0  0  0
 17 19  1  0  0  0  0
 18 17  1  0  0  0  0
 18 19  1  0  0  0  0
 19 20  1  0  0  0  0
 21 20  1  0  0  0  0
 21 22  1  0  0  0  0
 22 23  1  1  0  0  0
 25 22  1  0  0  0  0
 25 24  1  0  0  0  0
 26 25  1  0  0  0  0
 27 28  1  0  0  0  0
 28 25  1  0  0  0  0
 29  4  1  0  0  0  0
 30 32  2  0  0  0  0
 31 29  1  0  0  0  0
 32 31  1  0  0  0  0
 33 41  1  0  0  0  0
 33 32  1  1  0  0  0
 33 34  1  0  0  0  0
 36 35  1  1  0  0  0
 36 37  1  0  0  0  0
 36 34  1  0  0  0  0
 37 38  1  0  0  0  0
 38 40  1  0  0  0  0
 39 40  1  0  0  0  0
 41 47  1  6  0  0  0
 42 44  1  0  0  0  0
 42 46  1  0  0  0  0
 44 45  1  0  0  0  0
 45 43  1  0  0  0  0
 45 41  1  0  0  0  0
 46 43  1  0  0  0  0
 47 48  1  0  0  0  0
M  END
>  <MODEL>
9

>  <REMARK>
 VINA RESULT:      -5.7      3.157      9.942
  Name = 
  20 active torsions:
  status: ('A' for Active; 'I' for Inactive)
    1  A    between atoms: C_1  and  C_47
    2  A    between atoms: C_3  and  C_26
    3  A    between atoms: C_4  and  C_18
    4  A    between atoms: C_4  and  C_24
    5  A    between atoms: S_5  and  C_23
    6  A    between atoms: S_5  and  N_39
    7  A    between atoms: C_9  and  C_12
    8  A    between atoms: C_10  and  C_25
    9  A    between atoms: C_10  and  C_38
   10  A    between atoms: C_18  and  N_45
   11  A    between atoms: C_21  and  C_27
   12  A    between atoms: C_21  and  C_47
   13  A    between atoms: C_24  and  C_31
   14  A    between atoms: C_25  and  C_48
   15  A    between atoms: C_26  and  C_33
   16  A    between atoms: C_26  and  N_35
   17  A    between atoms: C_31  and  C_36
   18  A    between atoms: O_32  and  C_33
   19  A    between atoms: O_32  and  C_48
   20  A    between atoms: C_33  and  C_42
                            x       y       z     vdW  Elec       q    Type
                         _______ _______ _______ _____ _____    ______ ____

>  <TORSDO>
F 20

$$$$
