=
 OpenBabel11062417093D

 36 39  0  0  1  0  0  0  0  0999 V2000
  182.8490  177.6300  140.2750 N   0  0  0  0  0  2  0  0  0  0  0  0
  183.1160  176.7400  139.1750 C   0  0  0  0  0  0  0  0  0  0  0  0
  182.6650  175.5670  139.2380 O   0  0  0  0  0  0  0  0  0  0  0  0
  183.8400  177.1360  137.9180 C   0  0  2  0  0  3  0  0  0  0  0  0
  182.9210  177.5110  136.7740 C   0  0  0  0  0  1  0  0  0  0  0  0
  184.8820  176.1140  137.4960 C   0  0  0  0  0  2  0  0  0  0  0  0
  188.6840  176.5900  136.6020 N   0  0  0  0  0  2  0  0  0  0  0  0
  186.2710  178.1140  137.2340 C   0  0  0  0  0  3  0  0  0  0  0  0
  188.9490  178.8550  137.4680 C   0  0  2  0  0  3  0  0  0  0  0  0
  187.5600  178.6100  136.9470 N   0  0  0  0  0  0  0  0  0  0  0  0
  186.1900  176.7790  137.2240 C   0  0  0  0  0  0  0  0  0  0  0  0
  188.7960  178.0370  136.3580 C   0  0  2  0  0  3  0  0  0  0  0  0
  187.3650  174.7040  137.0240 O   0  0  0  0  0  0  0  0  0  0  0  0
  187.4190  175.9600  136.9410 C   0  0  0  0  0  0  0  0  0  0  0  0
  189.1840  178.1560  138.7840 C   0  0  0  0  0  0  0  0  0  0  0  0
  190.5460  176.7470  140.1930 C   0  0  0  0  0  3  0  0  0  0  0  0
  188.3340  178.3830  139.8730 C   0  0  0  0  0  3  0  0  0  0  0  0
  189.6930  176.9640  141.2300 N   0  0  0  0  0  0  0  0  0  0  0  0
  188.6030  177.7650  141.0950 C   0  0  0  0  0  3  0  0  0  0  0  0
  190.3120  177.3460  138.9550 C   0  0  0  0  0  3  0  0  0  0  0  0
  183.4150  178.9480  140.5620 C   0  0  2  0  0  3  0  0  0  0  0  0
  184.3320  180.4640  138.9340 O   0  0  0  0  0  1  0  0  0  0  0  0
  182.0670  180.1480  138.8390 O   0  0  0  0  0  0  0  0  0  0  0  0
  183.3110  179.8880  139.3990 C   0  0  0  0  0  0  0  0  0  0  0  0
  184.8100  178.8480  141.1660 C   0  0  0  0  0  2  0  0  0  0  0  0
  184.8160  177.8550  142.2270 N   0  0  0  0  0  2  0  0  0  0  0  0
  183.4020  178.3680  144.4020 O   0  0  0  0  0  0  0  0  0  0  0  0
  184.7120  178.6910  143.7410 S   0  0  0  0  0  0  0  0  0  0  0  0
  184.7860  180.1750  143.5110 O   0  0  0  0  0  0  0  0  0  0  0  0
  188.1730  177.0780  145.0730 C   0  0  0  0  0  3  0  0  0  0  0  0
  187.1240  177.4970  144.2500 C   0  0  0  0  0  3  0  0  0  0  0  0
  188.1320  177.3400  146.4440 C   0  0  0  0  0  3  0  0  0  0  0  0
  184.9140  179.1190  146.7370 O   0  0  0  0  0  1  0  0  0  0  0  0
  185.9900  178.4420  146.1720 C   0  0  0  0  0  0  0  0  0  0  0  0
  187.0420  178.0220  146.9920 C   0  0  0  0  0  3  0  0  0  0  0  0
  186.0280  178.1770  144.7940 C   0  0  0  0  0  0  0  0  0  0  0  0
  1 21  1  0  0  0  0
  2  3  2  0  0  0  0
  2  1  1  0  0  0  0
  4  5  1  6  0  0  0
  4  2  1  0  0  0  0
  6  4  1  0  0  0  0
  7 14  1  0  0  0  0
  9 15  1  1  0  0  0
 10  8  1  0  0  0  0
 10  9  1  0  0  0  0
 11  8  2  0  0  0  0
 11  6  1  0  0  0  0
 12  7  1  1  0  0  0
 12 10  1  0  0  0  0
 12  9  1  0  0  0  0
 14 13  2  0  0  0  0
 14 11  1  0  0  0  0
 15 20  2  0  0  0  0
 15 17  1  0  0  0  0
 16 18  2  0  0  0  0
 17 19  2  0  0  0  0
 19 18  1  0  0  0  0
 20 16  1  0  0  0  0
 21 25  1  6  0  0  0
 22 24  1  0  0  0  0
 23 24  2  0  0  0  0
 24 21  1  0  0  0  0
 25 26  1  0  0  0  0
 26 28  1  0  0  0  0
 28 27  2  0  0  0  0
 28 36  1  0  0  0  0
 29 28  2  0  0  0  0
 30 32  1  0  0  0  0
 31 36  1  0  0  0  0
 31 30  2  0  0  0  0
 32 35  2  0  0  0  0
 34 33  1  0  0  0  0
 34 35  1  0  0  0  0
 36 34  2  0  0  0  0
M  END
>  <MODEL>
1

>  <REMARK>
 VINA RESULT:      -8.1      0.000      0.000
  Name = 
  10 active torsions:
  status: ('A' for Active; 'I' for Inactive)
    1  A    between atoms: N_5  and  CA_26
    2  A    between atoms: C_6  and  C_12
    3  A    between atoms: C_9  and  C_19
    4  A    between atoms: C_9  and  C_27
    5  A    between atoms: S_10  and  N_13
    6  A    between atoms: S_10  and  C_32
    7  A    between atoms: N_13  and  C_30
    8  A    between atoms: C_20  and  C_27
    9  A    between atoms: CA_26  and  C_30
   10  A    between atoms: CA_26  and  C_34
                            x       y       z     vdW  Elec       q    Type
                         _______ _______ _______ _____ _____    ______ ____

>  <TORSDO>
F 10

$$$$
=
 OpenBabel11062417093D

 36 39  0  0  1  0  0  0  0  0999 V2000
  188.7980  178.8780  139.3810 N   0  0  0  0  0  2  0  0  0  0  0  0
  189.0570  178.4540  138.0300 C   0  0  0  0  0  0  0  0  0  0  0  0
  189.2510  179.3370  137.1560 O   0  0  0  0  0  0  0  0  0  0  0  0
  189.1830  177.0180  137.6010 C   0  0  2  0  0  3  0  0  0  0  0  0
  187.9130  176.2110  137.7820 C   0  0  0  0  0  1  0  0  0  0  0  0
  190.3860  176.3250  138.2190 C   0  0  0  0  0  2  0  0  0  0  0  0
  191.7890  173.5830  135.7710 N   0  0  0  0  0  2  0  0  0  0  0  0
  192.1260  176.3940  136.4960 C   0  0  0  0  0  3  0  0  0  0  0  0
  193.9160  174.6580  135.2500 C   0  0  2  0  0  3  0  0  0  0  0  0
  192.8290  175.6610  135.5180 N   0  0  0  0  0  0  0  0  0  0  0  0
  191.2170  175.6750  137.1630 C   0  0  0  0  0  0  0  0  0  0  0  0
  192.6250  174.3570  134.8400 C   0  0  2  0  0  3  0  0  0  0  0  0
  190.2540  173.5160  137.5350 O   0  0  0  0  0  0  0  0  0  0  0  0
  191.0420  174.2150  136.8440 C   0  0  0  0  0  0  0  0  0  0  0  0
  194.3850  173.9890  136.5190 C   0  0  0  0  0  0  0  0  0  0  0  0
  194.9520  171.9890  137.7460 C   0  0  0  0  0  3  0  0  0  0  0  0
  194.8300  174.7530  137.6050 C   0  0  0  0  0  3  0  0  0  0  0  0
  195.3570  172.7520  138.7960 N   0  0  0  0  0  0  0  0  0  0  0  0
  195.3070  174.1100  138.7470 C   0  0  0  0  0  3  0  0  0  0  0  0
  194.4670  172.5940  136.5850 C   0  0  0  0  0  3  0  0  0  0  0  0
  188.3390  178.0960  140.5290 C   0  0  2  0  0  3  0  0  0  0  0  0
  186.5950  178.3960  142.1590 O   0  0  0  0  0  1  0  0  0  0  0  0
  186.0140  178.8180  139.9850 O   0  0  0  0  0  0  0  0  0  0  0  0
  186.9440  178.4490  140.9480 C   0  0  0  0  0  0  0  0  0  0  0  0
  189.3560  178.1000  141.6620 C   0  0  0  0  0  2  0  0  0  0  0  0
  189.5090  176.7560  142.1910 N   0  0  0  0  0  2  0  0  0  0  0  0
  191.6010  177.9540  143.2780 O   0  0  0  0  0  0  0  0  0  0  0  0
  190.6380  176.8230  143.5040 S   0  0  0  0  0  0  0  0  0  0  0  0
  191.4110  175.5350  143.5790 O   0  0  0  0  0  0  0  0  0  0  0  0
  187.6920  177.5280  146.1830 C   0  0  0  0  0  3  0  0  0  0  0  0
  188.3900  177.3030  144.9940 C   0  0  0  0  0  3  0  0  0  0  0  0
  188.3760  177.5470  147.4000 C   0  0  0  0  0  3  0  0  0  0  0  0
  191.8340  176.9110  146.2900 O   0  0  0  0  0  1  0  0  0  0  0  0
  190.4600  177.1150  146.2400 C   0  0  0  0  0  0  0  0  0  0  0  0
  189.7580  177.3400  147.4290 C   0  0  0  0  0  3  0  0  0  0  0  0
  189.7750  177.0980  145.0140 C   0  0  0  0  0  0  0  0  0  0  0  0
  1 21  1  0  0  0  0
  2  1  1  0  0  0  0
  3  2  2  0  0  0  0
  4  5  1  1  0  0  0
  4  2  1  0  0  0  0
  4  6  1  0  0  0  0
  7 14  1  0  0  0  0
  8 11  2  0  0  0  0
  9 10  1  0  0  0  0
  9 15  1  1  0  0  0
 10  8  1  0  0  0  0
 11  6  1  0  0  0  0
 12  9  1  0  0  0  0
 12 10  1  0  0  0  0
 12  7  1  1  0  0  0
 14 11  1  0  0  0  0
 14 13  2  0  0  0  0
 15 20  2  0  0  0  0
 15 17  1  0  0  0  0
 16 18  2  0  0  0  0
 17 19  2  0  0  0  0
 19 18  1  0  0  0  0
 20 16  1  0  0  0  0
 21 24  1  0  0  0  0
 21 25  1  1  0  0  0
 23 24  2  0  0  0  0
 24 22  1  0  0  0  0
 25 26  1  0  0  0  0
 26 28  1  0  0  0  0
 27 28  2  0  0  0  0
 28 29  2  0  0  0  0
 28 36  1  0  0  0  0
 30 32  1  0  0  0  0
 31 36  1  0  0  0  0
 31 30  2  0  0  0  0
 32 35  2  0  0  0  0
 34 33  1  0  0  0  0
 34 35  1  0  0  0  0
 36 34  2  0  0  0  0
M  END
>  <MODEL>
2

>  <REMARK>
 VINA RESULT:      -7.9      4.294      5.718
  Name = 
  10 active torsions:
  status: ('A' for Active; 'I' for Inactive)
    1  A    between atoms: N_5  and  CA_26
    2  A    between atoms: C_6  and  C_12
    3  A    between atoms: C_9  and  C_19
    4  A    between atoms: C_9  and  C_27
    5  A    between atoms: S_10  and  N_13
    6  A    between atoms: S_10  and  C_32
    7  A    between atoms: N_13  and  C_30
    8  A    between atoms: C_20  and  C_27
    9  A    between atoms: CA_26  and  C_30
   10  A    between atoms: CA_26  and  C_34
                            x       y       z     vdW  Elec       q    Type
                         _______ _______ _______ _____ _____    ______ ____

>  <TORSDO>
F 10

$$$$
=
 OpenBabel11062417093D

 36 39  0  0  1  0  0  0  0  0999 V2000
  189.3990  178.2410  139.5010 N   0  0  0  0  0  2  0  0  0  0  0  0
  188.6500  178.4140  138.2840 C   0  0  0  0  0  0  0  0  0  0  0  0
  189.0230  179.3040  137.4780 O   0  0  0  0  0  0  0  0  0  0  0  0
  187.4860  177.5540  137.8750 C   0  0  2  0  0  3  0  0  0  0  0  0
  187.8390  176.4910  136.8550 C   0  0  0  0  0  1  0  0  0  0  0  0
  186.2770  178.3690  137.4470 C   0  0  0  0  0  2  0  0  0  0  0  0
  183.0230  176.6550  138.8430 N   0  0  0  0  0  2  0  0  0  0  0  0
  184.9330  178.7820  139.4520 C   0  0  0  0  0  3  0  0  0  0  0  0
  182.3040  178.4580  140.3200 C   0  0  2  0  0  3  0  0  0  0  0  0
  183.8000  178.3950  140.1980 N   0  0  0  0  0  0  0  0  0  0  0  0
  185.1080  178.0790  138.3280 C   0  0  0  0  0  0  0  0  0  0  0  0
  182.9020  177.2130  140.2000 C   0  0  2  0  0  3  0  0  0  0  0  0
  184.2360  176.4040  136.8590 O   0  0  0  0  0  0  0  0  0  0  0  0
  184.1250  177.0020  137.9620 C   0  0  0  0  0  0  0  0  0  0  0  0
  181.6640  179.0140  139.0710 C   0  0  0  0  0  0  0  0  0  0  0  0
  180.0930  178.8010  137.2510 C   0  0  0  0  0  3  0  0  0  0  0  0
  181.9390  180.3210  138.6510 C   0  0  0  0  0  3  0  0  0  0  0  0
  180.3930  180.0650  136.8480 N   0  0  0  0  0  0  0  0  0  0  0  0
  181.2940  180.8280  137.5220 C   0  0  0  0  0  3  0  0  0  0  0  0
  180.7160  178.2560  138.3740 C   0  0  0  0  0  3  0  0  0  0  0  0
  189.0750  177.4490  140.6880 C   0  0  2  0  0  3  0  0  0  0  0  0
  188.7610  179.2270  142.2770 O   0  0  0  0  0  1  0  0  0  0  0  0
  186.9910  177.7990  142.0140 O   0  0  0  0  0  0  0  0  0  0  0  0
  188.2770  178.2180  141.6960 C   0  0  0  0  0  0  0  0  0  0  0  0
  190.3040  176.7520  141.2580 C   0  0  0  0  0  2  0  0  0  0  0  0
  189.9370  176.0020  142.4470 N   0  0  0  0  0  2  0  0  0  0  0  0
  191.7910  177.6830  143.3010 O   0  0  0  0  0  0  0  0  0  0  0  0
  191.0020  176.4770  143.7280 S   0  0  0  0  0  0  0  0  0  0  0  0
  191.9570  175.3580  144.0390 O   0  0  0  0  0  0  0  0  0  0  0  0
  187.9290  177.4520  146.1690 C   0  0  0  0  0  3  0  0  0  0  0  0
  188.6880  177.1220  145.0430 C   0  0  0  0  0  3  0  0  0  0  0  0
  188.5420  177.5450  147.4200 C   0  0  0  0  0  3  0  0  0  0  0  0
  192.0390  176.7430  146.5660 O   0  0  0  0  0  1  0  0  0  0  0  0
  190.6760  176.9760  146.4200 C   0  0  0  0  0  0  0  0  0  0  0  0
  189.9140  177.3060  147.5460 C   0  0  0  0  0  3  0  0  0  0  0  0
  190.0620  176.8860  145.1610 C   0  0  0  0  0  0  0  0  0  0  0  0
  1 21  1  0  0  0  0
  2  1  1  0  0  0  0
  3  2  2  0  0  0  0
  4  5  1  6  0  0  0
  4  2  1  0  0  0  0
  6  4  1  0  0  0  0
  6 11  1  0  0  0  0
  8 10  1  0  0  0  0
  9 15  1  6  0  0  0
 10 12  1  0  0  0  0
 10  9  1  0  0  0  0
 11  8  2  0  0  0  0
 12  7  1  6  0  0  0
 12  9  1  0  0  0  0
 13 14  2  0  0  0  0
 14 11  1  0  0  0  0
 14  7  1  0  0  0  0
 16 20  1  0  0  0  0
 17 15  1  0  0  0  0
 18 16  2  0  0  0  0
 18 19  1  0  0  0  0
 19 17  2  0  0  0  0
 20 15  2  0  0  0  0
 21 25  1  1  0  0  0
 21 24  1  0  0  0  0
 24 23  2  0  0  0  0
 24 22  1  0  0  0  0
 25 26  1  0  0  0  0
 26 28  1  0  0  0  0
 27 28  2  0  0  0  0
 28 29  2  0  0  0  0
 28 36  1  0  0  0  0
 30 32  1  0  0  0  0
 31 36  1  0  0  0  0
 31 30  2  0  0  0  0
 32 35  2  0  0  0  0
 34 33  1  0  0  0  0
 34 35  1  0  0  0  0
 36 34  2  0  0  0  0
M  END
>  <MODEL>
3

>  <REMARK>
 VINA RESULT:      -7.6      3.288      6.238
  Name = 
  10 active torsions:
  status: ('A' for Active; 'I' for Inactive)
    1  A    between atoms: N_5  and  CA_26
    2  A    between atoms: C_6  and  C_12
    3  A    between atoms: C_9  and  C_19
    4  A    between atoms: C_9  and  C_27
    5  A    between atoms: S_10  and  N_13
    6  A    between atoms: S_10  and  C_32
    7  A    between atoms: N_13  and  C_30
    8  A    between atoms: C_20  and  C_27
    9  A    between atoms: CA_26  and  C_30
   10  A    between atoms: CA_26  and  C_34
                            x       y       z     vdW  Elec       q    Type
                         _______ _______ _______ _____ _____    ______ ____

>  <TORSDO>
F 10

$$$$
=
 OpenBabel11062417093D

 36 39  0  0  1  0  0  0  0  0999 V2000
  184.8690  179.5730  141.0150 N   0  0  0  0  0  2  0  0  0  0  0  0
  184.6720  179.3580  139.6060 C   0  0  0  0  0  0  0  0  0  0  0  0
  184.2510  180.3190  138.9120 O   0  0  0  0  0  0  0  0  0  0  0  0
  185.0020  178.0790  138.8880 C   0  0  2  0  0  3  0  0  0  0  0  0
  186.4660  177.9410  138.5240 C   0  0  0  0  0  1  0  0  0  0  0  0
  184.0960  177.8260  137.6940 C   0  0  0  0  0  2  0  0  0  0  0  0
  180.2210  177.1820  137.9040 N   0  0  0  0  0  2  0  0  0  0  0  0
  182.7530  176.3190  139.0810 C   0  0  0  0  0  3  0  0  0  0  0  0
  180.1710  176.1660  140.1220 C   0  0  2  0  0  3  0  0  0  0  0  0
  181.4530  175.8700  139.3960 N   0  0  0  0  0  0  0  0  0  0  0  0
  182.7850  177.2680  138.1390 C   0  0  0  0  0  0  0  0  0  0  0  0
  180.1220  175.9800  138.7470 C   0  0  2  0  0  3  0  0  0  0  0  0
  181.5230  178.7230  136.7200 O   0  0  0  0  0  0  0  0  0  0  0  0
  181.4990  177.7650  137.5370 C   0  0  0  0  0  0  0  0  0  0  0  0
  180.1180  177.5950  140.6030 C   0  0  0  0  0  0  0  0  0  0  0  0
  178.9310  179.6840  140.8360 C   0  0  0  0  0  3  0  0  0  0  0  0
  181.1490  178.1200  141.3930 C   0  0  0  0  0  3  0  0  0  0  0  0
  179.9550  180.1790  141.5820 N   0  0  0  0  0  0  0  0  0  0  0  0
  181.0510  179.4280  141.8680 C   0  0  0  0  0  3  0  0  0  0  0  0
  178.9900  178.3810  140.3410 C   0  0  0  0  0  3  0  0  0  0  0  0
  185.1390  178.6010  142.0750 C   0  0  2  0  0  3  0  0  0  0  0  0
  183.6180  178.2440  143.9040 O   0  0  0  0  0  0  0  0  0  0  0  0
  184.8710  180.1570  144.0070 O   0  0  0  0  0  1  0  0  0  0  0  0
  184.5010  178.9750  143.3790 C   0  0  0  0  0  0  0  0  0  0  0  0
  186.6210  178.2650  142.1740 C   0  0  0  0  0  2  0  0  0  0  0  0
  186.8160  177.1640  143.1010 N   0  0  0  0  0  2  0  0  0  0  0  0
  189.1980  178.2980  142.9150 O   0  0  0  0  0  0  0  0  0  0  0  0
  188.4780  177.1640  143.5900 S   0  0  0  0  0  0  0  0  0  0  0  0
  189.1280  175.8690  143.1880 O   0  0  0  0  0  0  0  0  0  0  0  0
  187.5030  177.8950  147.4460 C   0  0  0  0  0  3  0  0  0  0  0  0
  187.4360  177.7180  146.0620 C   0  0  0  0  0  3  0  0  0  0  0  0
  188.7200  177.7290  148.1120 C   0  0  0  0  0  3  0  0  0  0  0  0
  190.9580  176.8640  145.3110 O   0  0  0  0  0  1  0  0  0  0  0  0
  189.8040  177.2070  146.0070 C   0  0  0  0  0  0  0  0  0  0  0  0
  189.8680  177.3840  147.3930 C   0  0  0  0  0  3  0  0  0  0  0  0
  188.5820  177.3770  145.3350 C   0  0  0  0  0  0  0  0  0  0  0  0
  1 21  1  0  0  0  0
  2  1  1  0  0  0  0
  3  2  2  0  0  0  0
  4  5  1  6  0  0  0
  4  2  1  0  0  0  0
  6 11  1  0  0  0  0
  6  4  1  0  0  0  0
  8 10  1  0  0  0  0
  9 15  1  6  0  0  0
 10  9  1  0  0  0  0
 11  8  2  0  0  0  0
 12  7  1  6  0  0  0
 12 10  1  0  0  0  0
 12  9  1  0  0  0  0
 13 14  2  0  0  0  0
 14  7  1  0  0  0  0
 14 11  1  0  0  0  0
 15 17  1  0  0  0  0
 16 18  2  0  0  0  0
 17 19  2  0  0  0  0
 18 19  1  0  0  0  0
 20 15  2  0  0  0  0
 20 16  1  0  0  0  0
 21 25  1  1  0  0  0
 21 24  1  0  0  0  0
 24 22  2  0  0  0  0
 24 23  1  0  0  0  0
 25 26  1  0  0  0  0
 26 28  1  0  0  0  0
 27 28  2  0  0  0  0
 28 36  1  0  0  0  0
 29 28  2  0  0  0  0
 30 32  1  0  0  0  0
 31 30  2  0  0  0  0
 33 34  1  0  0  0  0
 34 35  1  0  0  0  0
 35 32  2  0  0  0  0
 36 34  2  0  0  0  0
 36 31  1  0  0  0  0
M  END
>  <MODEL>
4

>  <REMARK>
 VINA RESULT:      -7.5      2.855      6.113
  Name = 
  10 active torsions:
  status: ('A' for Active; 'I' for Inactive)
    1  A    between atoms: N_5  and  CA_26
    2  A    between atoms: C_6  and  C_12
    3  A    between atoms: C_9  and  C_19
    4  A    between atoms: C_9  and  C_27
    5  A    between atoms: S_10  and  N_13
    6  A    between atoms: S_10  and  C_32
    7  A    between atoms: N_13  and  C_30
    8  A    between atoms: C_20  and  C_27
    9  A    between atoms: CA_26  and  C_30
   10  A    between atoms: CA_26  and  C_34
                            x       y       z     vdW  Elec       q    Type
                         _______ _______ _______ _____ _____    ______ ____

>  <TORSDO>
F 10

$$$$
=
 OpenBabel11062417093D

 36 39  0  0  1  0  0  0  0  0999 V2000
  188.4260  178.8500  139.9370 N   0  0  0  0  0  2  0  0  0  0  0  0
  188.7850  178.6260  138.5610 C   0  0  0  0  0  0  0  0  0  0  0  0
  189.0480  179.6260  137.8450 O   0  0  0  0  0  0  0  0  0  0  0  0
  188.9360  177.2670  137.9340 C   0  0  2  0  0  3  0  0  0  0  0  0
  190.2960  176.6380  138.1550 C   0  0  0  0  0  1  0  0  0  0  0  0
  188.5360  177.2510  136.4680 C   0  0  0  0  0  2  0  0  0  0  0  0
  184.9220  176.6390  135.0390 N   0  0  0  0  0  2  0  0  0  0  0  0
  186.7720  175.6680  137.0830 C   0  0  0  0  0  3  0  0  0  0  0  0
  183.9930  175.4750  136.9710 C   0  0  2  0  0  3  0  0  0  0  0  0
  185.4650  175.2140  136.8110 N   0  0  0  0  0  0  0  0  0  0  0  0
  187.1680  176.6790  136.3020 C   0  0  0  0  0  0  0  0  0  0  0  0
  184.5110  175.3830  135.6870 C   0  0  2  0  0  3  0  0  0  0  0  0
  186.5670  178.2420  134.5940 O   0  0  0  0  0  0  0  0  0  0  0  0
  186.2300  177.2310  135.2640 C   0  0  0  0  0  0  0  0  0  0  0  0
  183.7250  176.8680  137.4840 C   0  0  0  0  0  0  0  0  0  0  0  0
  182.3210  178.8290  137.5810 C   0  0  0  0  0  3  0  0  0  0  0  0
  184.5530  177.4410  138.4560 C   0  0  0  0  0  3  0  0  0  0  0  0
  183.1540  179.3760  138.5070 N   0  0  0  0  0  0  0  0  0  0  0  0
  184.2530  178.7110  138.9520 C   0  0  0  0  0  3  0  0  0  0  0  0
  182.5860  177.5620  137.0600 C   0  0  0  0  0  3  0  0  0  0  0  0
  187.8760  177.9140  140.9190 C   0  0  2  0  0  3  0  0  0  0  0  0
  186.2370  177.8780  142.6790 O   0  0  0  0  0  1  0  0  0  0  0  0
  186.2450  179.7490  141.3610 O   0  0  0  0  0  0  0  0  0  0  0  0
  186.7490  178.5040  141.7110 C   0  0  0  0  0  0  0  0  0  0  0  0
  188.9680  177.2700  141.7620 C   0  0  0  0  0  2  0  0  0  0  0  0
  189.6190  178.2790  142.5800 N   0  0  0  0  0  2  0  0  0  0  0  0
  191.8770  178.1780  143.9520 O   0  0  0  0  0  0  0  0  0  0  0  0
  190.5660  177.4650  143.7800 S   0  0  0  0  0  0  0  0  0  0  0  0
  190.8360  176.0510  143.3440 O   0  0  0  0  0  0  0  0  0  0  0  0
  187.6550  177.8300  146.5640 C   0  0  0  0  0  3  0  0  0  0  0  0
  188.3510  177.8170  145.3520 C   0  0  0  0  0  3  0  0  0  0  0  0
  188.3130  177.4930  147.7490 C   0  0  0  0  0  3  0  0  0  0  0  0
  191.7090  176.7740  146.5040 O   0  0  0  0  0  1  0  0  0  0  0  0
  190.3640  177.1270  146.5090 C   0  0  0  0  0  0  0  0  0  0  0  0
  189.6660  177.1410  147.7210 C   0  0  0  0  0  3  0  0  0  0  0  0
  189.7060  177.4690  145.3170 C   0  0  0  0  0  0  0  0  0  0  0  0
  1 21  1  0  0  0  0
  2  1  1  0  0  0  0
  3  2  2  0  0  0  0
  4  5  1  6  0  0  0
  4  2  1  0  0  0  0
  6  4  1  0  0  0  0
  7 14  1  0  0  0  0
  9 15  1  6  0  0  0
 10  9  1  0  0  0  0
 10  8  1  0  0  0  0
 11  6  1  0  0  0  0
 11  8  2  0  0  0  0
 12  7  1  6  0  0  0
 12 10  1  0  0  0  0
 12  9  1  0  0  0  0
 13 14  2  0  0  0  0
 14 11  1  0  0  0  0
 15 17  1  0  0  0  0
 16 18  2  0  0  0  0
 17 19  2  0  0  0  0
 18 19  1  0  0  0  0
 20 15  2  0  0  0  0
 20 16  1  0  0  0  0
 21 24  1  0  0  0  0
 21 25  1  1  0  0  0
 23 24  2  0  0  0  0
 24 22  1  0  0  0  0
 25 26  1  0  0  0  0
 26 28  1  0  0  0  0
 28 27  2  0  0  0  0
 28 36  1  0  0  0  0
 29 28  2  0  0  0  0
 30 32  1  0  0  0  0
 31 30  2  0  0  0  0
 33 34  1  0  0  0  0
 34 35  1  0  0  0  0
 35 32  2  0  0  0  0
 36 31  1  0  0  0  0
 36 34  2  0  0  0  0
M  END
>  <MODEL>
5

>  <REMARK>
 VINA RESULT:      -7.4      3.068      5.332
  Name = 
  10 active torsions:
  status: ('A' for Active; 'I' for Inactive)
    1  A    between atoms: N_5  and  CA_26
    2  A    between atoms: C_6  and  C_12
    3  A    between atoms: C_9  and  C_19
    4  A    between atoms: C_9  and  C_27
    5  A    between atoms: S_10  and  N_13
    6  A    between atoms: S_10  and  C_32
    7  A    between atoms: N_13  and  C_30
    8  A    between atoms: C_20  and  C_27
    9  A    between atoms: CA_26  and  C_30
   10  A    between atoms: CA_26  and  C_34
                            x       y       z     vdW  Elec       q    Type
                         _______ _______ _______ _____ _____    ______ ____

>  <TORSDO>
F 10

$$$$
=
 OpenBabel11062417093D

 36 39  0  0  1  0  0  0  0  0999 V2000
  189.5340  178.6260  139.1340 N   0  0  0  0  0  2  0  0  0  0  0  0
  188.4660  178.6220  138.1690 C   0  0  0  0  0  0  0  0  0  0  0  0
  188.5240  179.4390  137.2150 O   0  0  0  0  0  0  0  0  0  0  0  0
  187.3130  177.6560  138.1830 C   0  0  2  0  0  3  0  0  0  0  0  0
  187.6440  176.2990  137.5950 C   0  0  0  0  0  1  0  0  0  0  0  0
  186.0500  178.2430  137.5750 C   0  0  0  0  0  2  0  0  0  0  0  0
  182.7740  176.9460  139.3260 N   0  0  0  0  0  2  0  0  0  0  0  0
  184.8370  179.0030  139.5630 C   0  0  0  0  0  3  0  0  0  0  0  0
  182.2390  178.9710  140.5760 C   0  0  2  0  0  3  0  0  0  0  0  0
  183.7210  178.7930  140.4000 N   0  0  0  0  0  0  0  0  0  0  0  0
  184.9120  178.1480  138.5370 C   0  0  0  0  0  0  0  0  0  0  0  0
  182.7560  177.6840  140.5990 C   0  0  2  0  0  3  0  0  0  0  0  0
  183.8680  176.3570  137.3430 O   0  0  0  0  0  0  0  0  0  0  0  0
  183.8480  177.1000  138.3600 C   0  0  0  0  0  0  0  0  0  0  0  0
  181.5720  179.3990  139.2920 C   0  0  0  0  0  0  0  0  0  0  0  0
  179.9380  179.0230  137.5550 C   0  0  0  0  0  3  0  0  0  0  0  0
  181.8610  180.6430  138.7180 C   0  0  0  0  0  3  0  0  0  0  0  0
  180.2530  180.2260  137.0030 N   0  0  0  0  0  0  0  0  0  0  0  0
  181.1920  181.0370  137.5590 C   0  0  0  0  0  3  0  0  0  0  0  0
  180.5850  178.5930  138.7140 C   0  0  0  0  0  3  0  0  0  0  0  0
  189.6190  177.9500  140.4290 C   0  0  2  0  0  3  0  0  0  0  0  0
  190.6210  175.9870  141.3940 O   0  0  0  0  0  1  0  0  0  0  0  0
  190.7510  176.1570  139.1150 O   0  0  0  0  0  0  0  0  0  0  0  0
  190.3480  176.6430  140.3520 C   0  0  0  0  0  0  0  0  0  0  0  0
  188.2650  177.8740  141.1210 C   0  0  0  0  0  2  0  0  0  0  0  0
  188.3220  178.5760  142.3930 N   0  0  0  0  0  2  0  0  0  0  0  0
  189.7080  177.2860  144.2390 O   0  0  0  0  0  0  0  0  0  0  0  0
  188.3270  177.3910  143.6560 S   0  0  0  0  0  0  0  0  0  0  0  0
  187.9320  176.0500  143.1010 O   0  0  0  0  0  0  0  0  0  0  0  0
  186.7500  178.2530  147.2790 C   0  0  0  0  0  3  0  0  0  0  0  0
  187.6290  177.8780  146.2600 C   0  0  0  0  0  3  0  0  0  0  0  0
  185.4410  178.6270  146.9680 C   0  0  0  0  0  3  0  0  0  0  0  0
  185.4430  178.2610  143.2990 O   0  0  0  0  0  1  0  0  0  0  0  0
  185.8890  178.2530  144.6150 C   0  0  0  0  0  0  0  0  0  0  0  0
  185.0120  178.6280  145.6380 C   0  0  0  0  0  3  0  0  0  0  0  0
  187.2050  177.8730  144.9260 C   0  0  0  0  0  0  0  0  0  0  0  0
  1 21  1  0  0  0  0
  2  4  1  0  0  0  0
  2  1  1  0  0  0  0
  3  2  2  0  0  0  0
  4  5  1  6  0  0  0
  6  4  1  0  0  0  0
  6 11  1  0  0  0  0
  8 10  1  0  0  0  0
  9 15  1  6  0  0  0
  9 12  1  0  0  0  0
 10  9  1  0  0  0  0
 10 12  1  0  0  0  0
 11  8  2  0  0  0  0
 12  7  1  6  0  0  0
 13 14  2  0  0  0  0
 14 11  1  0  0  0  0
 14  7  1  0  0  0  0
 16 20  1  0  0  0  0
 17 15  1  0  0  0  0
 18 16  2  0  0  0  0
 18 19  1  0  0  0  0
 19 17  2  0  0  0  0
 20 15  2  0  0  0  0
 21 25  1  6  0  0  0
 23 24  2  0  0  0  0
 24 21  1  0  0  0  0
 24 22  1  0  0  0  0
 25 26  1  0  0  0  0
 26 28  1  0  0  0  0
 28 27  2  0  0  0  0
 28 36  1  0  0  0  0
 29 28  2  0  0  0  0
 31 30  2  0  0  0  0
 32 30  1  0  0  0  0
 33 34  1  0  0  0  0
 34 36  2  0  0  0  0
 34 35  1  0  0  0  0
 35 32  2  0  0  0  0
 36 31  1  0  0  0  0
M  END
>  <MODEL>
6

>  <REMARK>
 VINA RESULT:      -7.3      2.639      6.090
  Name = 
  10 active torsions:
  status: ('A' for Active; 'I' for Inactive)
    1  A    between atoms: N_5  and  CA_26
    2  A    between atoms: C_6  and  C_12
    3  A    between atoms: C_9  and  C_19
    4  A    between atoms: C_9  and  C_27
    5  A    between atoms: S_10  and  N_13
    6  A    between atoms: S_10  and  C_32
    7  A    between atoms: N_13  and  C_30
    8  A    between atoms: C_20  and  C_27
    9  A    between atoms: CA_26  and  C_30
   10  A    between atoms: CA_26  and  C_34
                            x       y       z     vdW  Elec       q    Type
                         _______ _______ _______ _____ _____    ______ ____

>  <TORSDO>
F 10

$$$$
=
 OpenBabel11062417093D

 36 39  0  0  1  0  0  0  0  0999 V2000
  184.9610  179.6540  140.6540 N   0  0  0  0  0  2  0  0  0  0  0  0
  184.3390  179.6030  139.3570 C   0  0  0  0  0  0  0  0  0  0  0  0
  184.2010  180.6800  138.7220 O   0  0  0  0  0  0  0  0  0  0  0  0
  183.9030  178.3370  138.6730 C   0  0  2  0  0  3  0  0  0  0  0  0
  182.5270  177.8580  139.0890 C   0  0  0  0  0  1  0  0  0  0  0  0
  184.9410  177.2300  138.7730 C   0  0  0  0  0  2  0  0  0  0  0  0
  186.9680  176.1100  135.5940 N   0  0  0  0  0  2  0  0  0  0  0  0
  186.5090  178.4240  137.3190 C   0  0  0  0  0  3  0  0  0  0  0  0
  188.6680  177.8580  135.6490 C   0  0  2  0  0  3  0  0  0  0  0  0
  187.3510  178.3370  136.1910 N   0  0  0  0  0  0  0  0  0  0  0  0
  185.8770  177.2820  137.6120 C   0  0  0  0  0  0  0  0  0  0  0  0
  187.5030  177.3760  135.0690 C   0  0  2  0  0  3  0  0  0  0  0  0
  185.5960  174.9620  137.1020 O   0  0  0  0  0  0  0  0  0  0  0  0
  186.1170  176.0590  136.7700 C   0  0  0  0  0  0  0  0  0  0  0  0
  189.3650  176.9310  136.6130 C   0  0  0  0  0  0  0  0  0  0  0  0
  190.4320  174.8170  137.0870 C   0  0  0  0  0  3  0  0  0  0  0  0
  189.7270  177.3730  137.8920 C   0  0  0  0  0  3  0  0  0  0  0  0
  190.7520  175.2610  138.3320 N   0  0  0  0  0  0  0  0  0  0  0  0
  190.4180  176.5120  138.7460 C   0  0  0  0  0  3  0  0  0  0  0  0
  189.7410  175.6470  136.2030 C   0  0  0  0  0  3  0  0  0  0  0  0
  185.0560  178.6150  141.6810 C   0  0  2  0  0  3  0  0  0  0  0  0
  183.1660  178.2580  143.1260 O   0  0  0  0  0  0  0  0  0  0  0  0
  184.5860  179.9460  143.7380 O   0  0  0  0  0  1  0  0  0  0  0  0
  184.2160  178.9150  142.8850 C   0  0  0  0  0  0  0  0  0  0  0  0
  186.5030  178.2590  141.9960 C   0  0  0  0  0  2  0  0  0  0  0  0
  186.5620  177.4750  143.2180 N   0  0  0  0  0  2  0  0  0  0  0  0
  189.0690  178.2550  142.9010 O   0  0  0  0  0  0  0  0  0  0  0  0
  188.2300  177.2340  143.6170 S   0  0  0  0  0  0  0  0  0  0  0  0
  188.6650  175.8600  143.1860 O   0  0  0  0  0  0  0  0  0  0  0  0
  187.5470  177.9870  147.5310 C   0  0  0  0  0  3  0  0  0  0  0  0
  187.3820  177.8290  146.1530 C   0  0  0  0  0  3  0  0  0  0  0  0
  188.7900  177.7370  148.1180 C   0  0  0  0  0  3  0  0  0  0  0  0
  190.7880  176.7580  145.1770 O   0  0  0  0  0  1  0  0  0  0  0  0
  189.7040  177.1670  145.9470 C   0  0  0  0  0  0  0  0  0  0  0  0
  189.8660  177.3260  147.3270 C   0  0  0  0  0  3  0  0  0  0  0  0
  188.4570  177.4220  145.3540 C   0  0  0  0  0  0  0  0  0  0  0  0
  1 21  1  0  0  0  0
  2  1  1  0  0  0  0
  3  2  2  0  0  0  0
  4  6  1  0  0  0  0
  4  5  1  1  0  0  0
  4  2  1  0  0  0  0
  7 14  1  0  0  0  0
  8 11  2  0  0  0  0
  9 10  1  0  0  0  0
  9 15  1  1  0  0  0
 10  8  1  0  0  0  0
 11  6  1  0  0  0  0
 12  7  1  1  0  0  0
 12  9  1  0  0  0  0
 12 10  1  0  0  0  0
 14 13  2  0  0  0  0
 14 11  1  0  0  0  0
 15 17  1  0  0  0  0
 16 18  2  0  0  0  0
 17 19  2  0  0  0  0
 18 19  1  0  0  0  0
 20 15  2  0  0  0  0
 20 16  1  0  0  0  0
 21 25  1  1  0  0  0
 21 24  1  0  0  0  0
 24 22  2  0  0  0  0
 24 23  1  0  0  0  0
 25 26  1  0  0  0  0
 26 28  1  0  0  0  0
 27 28  2  0  0  0  0
 28 36  1  0  0  0  0
 29 28  2  0  0  0  0
 30 32  1  0  0  0  0
 31 30  2  0  0  0  0
 33 34  1  0  0  0  0
 34 35  1  0  0  0  0
 35 32  2  0  0  0  0
 36 34  2  0  0  0  0
 36 31  1  0  0  0  0
M  END
>  <MODEL>
7

>  <REMARK>
 VINA RESULT:      -7.2      2.319      3.279
  Name = 
  10 active torsions:
  status: ('A' for Active; 'I' for Inactive)
    1  A    between atoms: N_5  and  CA_26
    2  A    between atoms: C_6  and  C_12
    3  A    between atoms: C_9  and  C_19
    4  A    between atoms: C_9  and  C_27
    5  A    between atoms: S_10  and  N_13
    6  A    between atoms: S_10  and  C_32
    7  A    between atoms: N_13  and  C_30
    8  A    between atoms: C_20  and  C_27
    9  A    between atoms: CA_26  and  C_30
   10  A    between atoms: CA_26  and  C_34
                            x       y       z     vdW  Elec       q    Type
                         _______ _______ _______ _____ _____    ______ ____

>  <TORSDO>
F 10

$$$$
=
 OpenBabel11062417093D

 36 39  0  0  1  0  0  0  0  0999 V2000
  190.2010  176.3280  145.1420 N   0  0  0  0  0  2  0  0  0  0  0  0
  190.8480  176.3370  143.8570 C   0  0  0  0  0  0  0  0  0  0  0  0
  191.6790  175.4280  143.6030 O   0  0  0  0  0  0  0  0  0  0  0  0
  190.5480  177.3250  142.7630 C   0  0  2  0  0  3  0  0  0  0  0  0
  190.5740  178.7700  143.2170 C   0  0  0  0  0  1  0  0  0  0  0  0
  189.2720  176.9920  142.0080 C   0  0  0  0  0  2  0  0  0  0  0  0
  188.6720  178.9520  138.6500 N   0  0  0  0  0  2  0  0  0  0  0  0
  190.2680  176.7800  139.7800 C   0  0  0  0  0  3  0  0  0  0  0  0
  189.5950  177.2880  137.1230 C   0  0  2  0  0  3  0  0  0  0  0  0
  190.2850  177.2710  138.4580 N   0  0  0  0  0  0  0  0  0  0  0  0
  189.3880  177.3970  140.5760 C   0  0  0  0  0  0  0  0  0  0  0  0
  189.7730  178.4920  137.7880 C   0  0  2  0  0  3  0  0  0  0  0  0
  187.6290  179.0110  140.7430 O   0  0  0  0  0  0  0  0  0  0  0  0
  188.5220  178.4940  140.0200 C   0  0  0  0  0  0  0  0  0  0  0  0
  188.2150  176.6820  137.2000 C   0  0  0  0  0  0  0  0  0  0  0  0
  185.8140  176.9350  137.1980 C   0  0  0  0  0  3  0  0  0  0  0  0
  188.0450  175.2920  137.1950 C   0  0  0  0  0  3  0  0  0  0  0  0
  185.6750  175.5820  137.2170 N   0  0  0  0  0  0  0  0  0  0  0  0
  186.7560  174.7580  137.2140 C   0  0  0  0  0  3  0  0  0  0  0  0
  187.0860  177.5080  137.1800 C   0  0  0  0  0  3  0  0  0  0  0  0
  189.3730  177.3560  145.7740 C   0  0  2  0  0  3  0  0  0  0  0  0
  188.8880  178.0990  148.0100 O   0  0  0  0  0  1  0  0  0  0  0  0
  190.9640  177.1890  147.6880 O   0  0  0  0  0  0  0  0  0  0  0  0
  189.7130  177.5660  147.2180 C   0  0  0  0  0  0  0  0  0  0  0  0
  187.8900  177.1370  145.5030 C   0  0  0  0  0  2  0  0  0  0  0  0
  187.3460  178.2800  144.7880 N   0  0  0  0  0  2  0  0  0  0  0  0
  185.6900  179.8870  146.0800 O   0  0  0  0  0  0  0  0  0  0  0  0
  185.7410  178.5610  145.3740 S   0  0  0  0  0  0  0  0  0  0  0  0
  185.3550  177.4800  146.3460 O   0  0  0  0  0  0  0  0  0  0  0  0
  184.1680  178.2310  141.6640 C   0  0  0  0  0  3  0  0  0  0  0  0
  185.0490  178.2100  142.7480 C   0  0  0  0  0  3  0  0  0  0  0  0
  182.8420  178.6290  141.8500 C   0  0  0  0  0  3  0  0  0  0  0  0
  182.8160  179.3610  145.4650 O   0  0  0  0  0  1  0  0  0  0  0  0
  183.2780  178.9840  144.2090 C   0  0  0  0  0  0  0  0  0  0  0  0
  182.3980  179.0030  143.1220 C   0  0  0  0  0  3  0  0  0  0  0  0
  184.6120  178.5880  144.0220 C   0  0  0  0  0  0  0  0  0  0  0  0
  1 21  1  0  0  0  0
  2  1  1  0  0  0  0
  3  2  2  0  0  0  0
  4  5  1  1  0  0  0
  4  2  1  0  0  0  0
  6  4  1  0  0  0  0
  7 14  1  0  0  0  0
  8 11  2  0  0  0  0
  9 15  1  1  0  0  0
  9 12  1  0  0  0  0
  9 10  1  0  0  0  0
 10  8  1  0  0  0  0
 11  6  1  0  0  0  0
 12 10  1  0  0  0  0
 12  7  1  1  0  0  0
 14 11  1  0  0  0  0
 14 13  2  0  0  0  0
 16 18  2  0  0  0  0
 17 15  1  0  0  0  0
 17 19  2  0  0  0  0
 19 18  1  0  0  0  0
 20 16  1  0  0  0  0
 20 15  2  0  0  0  0
 21 25  1  1  0  0  0
 21 24  1  0  0  0  0
 24 23  2  0  0  0  0
 24 22  1  0  0  0  0
 26 28  1  0  0  0  0
 26 25  1  0  0  0  0
 28 27  2  0  0  0  0
 28 29  2  0  0  0  0
 30 32  2  0  0  0  0
 30 31  1  0  0  0  0
 31 36  2  0  0  0  0
 32 35  1  0  0  0  0
 34 33  1  0  0  0  0
 35 34  2  0  0  0  0
 36 34  1  0  0  0  0
 36 28  1  0  0  0  0
M  END
>  <MODEL>
8

>  <REMARK>
 VINA RESULT:      -7.2      2.721      6.216
  Name = 
  10 active torsions:
  status: ('A' for Active; 'I' for Inactive)
    1  A    between atoms: N_5  and  CA_26
    2  A    between atoms: C_6  and  C_12
    3  A    between atoms: C_9  and  C_19
    4  A    between atoms: C_9  and  C_27
    5  A    between atoms: S_10  and  N_13
    6  A    between atoms: S_10  and  C_32
    7  A    between atoms: N_13  and  C_30
    8  A    between atoms: C_20  and  C_27
    9  A    between atoms: CA_26  and  C_30
   10  A    between atoms: CA_26  and  C_34
                            x       y       z     vdW  Elec       q    Type
                         _______ _______ _______ _____ _____    ______ ____

>  <TORSDO>
F 10

$$$$
=
 OpenBabel11062417093D

 36 39  0  0  1  0  0  0  0  0999 V2000
  187.2680  178.6710  139.1580 N   0  0  0  0  0  2  0  0  0  0  0  0
  186.8140  178.2850  137.8470 C   0  0  0  0  0  0  0  0  0  0  0  0
  187.2580  178.9160  136.8540 O   0  0  0  0  0  0  0  0  0  0  0  0
  185.8930  177.1270  137.5760 C   0  0  2  0  0  3  0  0  0  0  0  0
  186.5700  175.9520  136.9010 C   0  0  0  0  0  1  0  0  0  0  0  0
  184.6260  177.5440  136.8480 C   0  0  0  0  0  2  0  0  0  0  0  0
  180.9190  176.3160  137.3230 N   0  0  0  0  0  2  0  0  0  0  0  0
  183.5770  176.0910  138.5170 C   0  0  0  0  0  3  0  0  0  0  0  0
  181.0730  175.6940  139.6760 C   0  0  2  0  0  3  0  0  0  0  0  0
  182.3770  175.4950  138.9550 N   0  0  0  0  0  0  0  0  0  0  0  0
  183.4350  176.8610  137.4320 C   0  0  0  0  0  0  0  0  0  0  0  0
  181.0380  175.2740  138.3540 C   0  0  2  0  0  3  0  0  0  0  0  0
  181.9260  177.8290  135.8490 O   0  0  0  0  0  0  0  0  0  0  0  0
  182.0760  177.0310  136.8120 C   0  0  0  0  0  0  0  0  0  0  0  0
  180.7860  177.1550  139.9190 C   0  0  0  0  0  0  0  0  0  0  0  0
  179.2680  179.0310  139.8500 C   0  0  0  0  0  3  0  0  0  0  0  0
  181.7200  177.9650  140.5760 C   0  0  0  0  0  3  0  0  0  0  0  0
  180.2010  179.8040  140.4680 N   0  0  0  0  0  0  0  0  0  0  0  0
  181.4090  179.3010  140.8350 C   0  0  0  0  0  3  0  0  0  0  0  0
  179.5410  177.6900  139.5730 C   0  0  0  0  0  3  0  0  0  0  0  0
  186.7690  178.2650  140.4720 C   0  0  2  0  0  3  0  0  0  0  0  0
  184.9070  179.7230  140.0320 O   0  0  0  0  0  0  0  0  0  0  0  0
  184.9350  178.7340  142.0960 O   0  0  0  0  0  1  0  0  0  0  0  0
  185.4850  178.9450  140.8390 C   0  0  0  0  0  0  0  0  0  0  0  0
  187.8520  178.3460  141.5400 C   0  0  0  0  0  2  0  0  0  0  0  0
  188.0630  177.0340  142.1280 N   0  0  0  0  0  2  0  0  0  0  0  0
  190.2170  178.3540  142.9110 O   0  0  0  0  0  0  0  0  0  0  0  0
  189.3730  177.1590  143.2550 S   0  0  0  0  0  0  0  0  0  0  0  0
  190.2280  175.9240  143.1820 O   0  0  0  0  0  0  0  0  0  0  0  0
  186.8350  177.6540  146.3640 C   0  0  0  0  0  3  0  0  0  0  0  0
  187.3560  177.4910  145.0780 C   0  0  0  0  0  3  0  0  0  0  0  0
  187.6930  177.6820  147.4660 C   0  0  0  0  0  3  0  0  0  0  0  0
  190.9710  177.2470  145.8320 O   0  0  0  0  0  1  0  0  0  0  0  0
  189.5960  177.3820  145.9940 C   0  0  0  0  0  0  0  0  0  0  0  0
  189.0720  177.5450  147.2810 C   0  0  0  0  0  3  0  0  0  0  0  0
  188.7360  177.3570  144.8850 C   0  0  0  0  0  0  0  0  0  0  0  0
  1 21  1  0  0  0  0
  2  1  1  0  0  0  0
  3  2  2  0  0  0  0
  4  5  1  6  0  0  0
  4  2  1  0  0  0  0
  6 11  1  0  0  0  0
  6  4  1  0  0  0  0
  8 10  1  0  0  0  0
  9 15  1  6  0  0  0
 10  9  1  0  0  0  0
 11  8  2  0  0  0  0
 12  7  1  6  0  0  0
 12 10  1  0  0  0  0
 12  9  1  0  0  0  0
 13 14  2  0  0  0  0
 14  7  1  0  0  0  0
 14 11  1  0  0  0  0
 15 17  1  0  0  0  0
 16 18  2  0  0  0  0
 17 19  2  0  0  0  0
 18 19  1  0  0  0  0
 20 16  1  0  0  0  0
 20 15  2  0  0  0  0
 21 24  1  0  0  0  0
 21 25  1  1  0  0  0
 22 24  2  0  0  0  0
 24 23  1  0  0  0  0
 25 26  1  0  0  0  0
 26 28  1  0  0  0  0
 27 28  2  0  0  0  0
 28 36  1  0  0  0  0
 29 28  2  0  0  0  0
 30 32  1  0  0  0  0
 31 30  2  0  0  0  0
 33 34  1  0  0  0  0
 34 35  1  0  0  0  0
 35 32  2  0  0  0  0
 36 31  1  0  0  0  0
 36 34  2  0  0  0  0
M  END
>  <MODEL>
9

>  <REMARK>
 VINA RESULT:      -7.1      2.877      5.817
  Name = 
  10 active torsions:
  status: ('A' for Active; 'I' for Inactive)
    1  A    between atoms: N_5  and  CA_26
    2  A    between atoms: C_6  and  C_12
    3  A    between atoms: C_9  and  C_19
    4  A    between atoms: C_9  and  C_27
    5  A    between atoms: S_10  and  N_13
    6  A    between atoms: S_10  and  C_32
    7  A    between atoms: N_13  and  C_30
    8  A    between atoms: C_20  and  C_27
    9  A    between atoms: CA_26  and  C_30
   10  A    between atoms: CA_26  and  C_34
                            x       y       z     vdW  Elec       q    Type
                         _______ _______ _______ _____ _____    ______ ____

>  <TORSDO>
F 10

$$$$
