=
 OpenBabel11062413213D

 30 33  0  0  1  0  0  0  0  0999 V2000
  187.7440  177.7670  142.3280 C   0  0  0  0  0  0  0  0  0  0  0  0
  186.3530  178.1530  145.8210 C   0  0  0  0  0  0  0  0  0  0  0  0
  188.8180  177.6490  145.6970 C   0  0  0  0  0  2  0  0  0  0  0  0
  187.5840  177.7440  146.5830 C   0  0  0  0  0  2  0  0  0  0  0  0
  183.9300  178.7440  144.6150 C   0  0  0  0  0  3  0  0  0  0  0  0
  185.2510  178.5690  146.5680 C   0  0  0  0  0  3  0  0  0  0  0  0
  187.4600  177.5540  143.6450 C   0  0  0  0  0  0  0  0  0  0  0  0
  184.7480  178.2290  142.3620 C   0  0  0  0  0  2  0  0  0  0  0  0
  186.2490  178.0300  144.4080 C   0  0  0  0  0  0  0  0  0  0  0  0
  184.9950  178.3180  143.8180 C   0  0  0  0  0  0  0  0  0  0  0  0
  184.0760  178.8630  145.9570 N   0  0  0  0  0  0  0  0  0  0  0  0
  186.9280  178.5130  141.4130 N   0  0  0  0  0  2  0  0  0  0  0  0
  188.4860  176.8220  144.4690 C   0  0  0  0  0  2  0  0  0  0  0  0
  185.6840  179.1970  141.6940 C   0  0  1  0  0  3  0  0  0  0  0  0
  185.1010  179.6650  140.4470 N   0  0  0  0  0  2  0  0  0  0  0  0
  184.3430  178.5590  139.8760 C   0  0  1  0  0  3  0  0  0  0  0  0
  182.9050  178.9420  139.6890 C   0  0  0  0  0  0  0  0  0  0  0  0
  182.5560  180.0570  138.7650 C   0  0  0  0  0  1  0  0  0  0  0  0
  182.0190  178.3480  140.2820 O   0  0  0  0  0  0  0  0  0  0  0  0
  184.3940  177.0550  137.8880 O   0  0  0  0  0  0  0  0  0  0  0  0
  184.9560  178.1160  138.5860 C   0  0  0  0  0  0  0  0  0  0  0  0
  185.9620  178.7100  138.1140 O   0  0  0  0  0  1  0  0  0  0  0  0
  188.9910  177.1910  141.7310 C   0  0  0  0  0  2  0  0  0  0  0  0
  189.0070  177.4420  140.3010 N   0  0  0  0  0  2  0  0  0  0  0  0
  190.5720  175.9660  139.3940 O   0  0  0  0  0  0  0  0  0  0  0  0
  190.5000  176.9630  138.4020 C   0  0  2  0  0  3  0  0  0  0  0  0
  190.3850  177.2800  139.8600 C   0  0  1  0  0  3  0  0  0  0  0  0
  189.1240  175.5740  137.1130 C   0  0  0  0  0  1  0  0  0  0  0  0
  189.2500  177.8440  136.6290 C   0  0  0  0  0  1  0  0  0  0  0  0
  189.2100  176.8880  137.7230 N   0  0  0  0  0  0  0  0  0  0  0  0
  1  7  2  0  0  0  0
  2  6  1  0  0  0  0
  2  4  1  0  0  0  0
  3  4  1  0  0  0  0
  5 11  1  0  0  0  0
  7  9  1  0  0  0  0
  7 13  1  0  0  0  0
  8 10  1  0  0  0  0
  9  2  2  0  0  0  0
 10  9  1  0  0  0  0
 10  5  2  0  0  0  0
 11  6  2  0  0  0  0
 12 14  1  0  0  0  0
 12  1  1  0  0  0  0
 13  3  1  0  0  0  0
 14 15  1  6  0  0  0
 14  8  1  0  0  0  0
 16 21  1  6  0  0  0
 16 15  1  0  0  0  0
 17 16  1  0  0  0  0
 17 19  2  0  0  0  0
 18 17  1  0  0  0  0
 20 21  2  0  0  0  0
 22 21  1  0  0  0  0
 23  1  1  0  0  0  0
 24 23  1  0  0  0  0
 25 27  1  0  0  0  0
 26 30  1  6  0  0  0
 26 25  1  0  0  0  0
 26 27  1  0  0  0  0
 27 24  1  6  0  0  0
 28 30  1  0  0  0  0
 29 30  1  0  0  0  0
M  END
>  <MODEL>
1

>  <REMARK>
 VINA RESULT:      -9.0      0.000      0.000
  Name = 
  8 active torsions:
  status: ('A' for Active; 'I' for Inactive)
    1  A    between atoms: C_1  and  C_8
    2  A    between atoms: N_2  and  CA_4
    3  A    between atoms: N_2  and  C_30
    4  A    between atoms: CA_4  and  CB_7
    5  A    between atoms: CA_4  and  C_22
    6  A    between atoms: C_8  and  N_29
    7  A    between atoms: N_20  and  C_23
    8  A    between atoms: C_26  and  N_29
                            x       y       z     vdW  Elec       q    Type
                         _______ _______ _______ _____ _____    ______ ____

>  <TORSDO>
F 8

$$$$
=
 OpenBabel11062413213D

 30 33  0  0  1  0  0  0  0  0999 V2000
  187.3100  177.7010  142.2640 C   0  0  0  0  0  0  0  0  0  0  0  0
  185.6770  178.2440  145.6290 C   0  0  0  0  0  0  0  0  0  0  0  0
  188.1100  177.5950  145.7090 C   0  0  0  0  0  2  0  0  0  0  0  0
  186.8190  177.7820  146.4930 C   0  0  0  0  0  2  0  0  0  0  0  0
  183.3940  178.9480  144.2260 C   0  0  0  0  0  3  0  0  0  0  0  0
  184.5470  178.7400  146.2800 C   0  0  0  0  0  3  0  0  0  0  0  0
  186.9120  177.5340  143.5580 C   0  0  0  0  0  0  0  0  0  0  0  0
  184.3530  178.3370  142.0540 C   0  0  0  0  0  2  0  0  0  0  0  0
  185.6760  178.0960  144.2150 C   0  0  0  0  0  0  0  0  0  0  0  0
  184.4910  178.4430  143.5230 C   0  0  0  0  0  0  0  0  0  0  0  0
  183.4430  179.0870  145.5730 N   0  0  0  0  0  0  0  0  0  0  0  0
  186.6120  178.4720  141.2740 N   0  0  0  0  0  2  0  0  0  0  0  0
  187.8260  176.7620  144.4730 C   0  0  0  0  0  2  0  0  0  0  0  0
  185.3930  179.2330  141.4440 C   0  0  1  0  0  3  0  0  0  0  0  0
  184.9370  179.7060  140.1470 N   0  0  0  0  0  2  0  0  0  0  0  0
  184.2160  178.6120  139.5110 C   0  0  1  0  0  3  0  0  0  0  0  0
  182.8280  179.0390  139.1350 C   0  0  0  0  0  0  0  0  0  0  0  0
  181.6790  178.1360  139.4270 C   0  0  0  0  0  1  0  0  0  0  0  0
  182.6300  180.1170  138.5980 O   0  0  0  0  0  0  0  0  0  0  0  0
  186.1320  178.7580  137.9220 O   0  0  0  0  0  1  0  0  0  0  0  0
  184.9680  178.1120  138.3190 C   0  0  0  0  0  0  0  0  0  0  0  0
  184.5710  177.0980  137.6870 O   0  0  0  0  0  0  0  0  0  0  0  0
  188.5630  177.0400  141.7770 C   0  0  0  0  0  2  0  0  0  0  0  0
  189.6970  177.9150  142.0140 N   0  0  0  0  0  2  0  0  0  0  0  0
  192.0310  177.9340  141.9540 O   0  0  0  0  0  0  0  0  0  0  0  0
  191.7720  177.0280  143.0010 C   0  0  2  0  0  3  0  0  0  0  0  0
  190.8960  177.1190  141.7910 C   0  0  1  0  0  3  0  0  0  0  0  0
  191.9780  178.9950  144.2550 C   0  0  0  0  0  1  0  0  0  0  0  0
  191.5880  176.9730  145.3330 C   0  0  0  0  0  1  0  0  0  0  0  0
  191.2410  177.7470  144.1540 N   0  0  0  0  0  0  0  0  0  0  0  0
  1  7  2  0  0  0  0
  2  6  1  0  0  0  0
  2  4  1  0  0  0  0
  3  4  1  0  0  0  0
  5 11  1  0  0  0  0
  7  9  1  0  0  0  0
  7 13  1  0  0  0  0
  8 10  1  0  0  0  0
  9  2  2  0  0  0  0
 10  9  1  0  0  0  0
 10  5  2  0  0  0  0
 11  6  2  0  0  0  0
 12 14  1  0  0  0  0
 12  1  1  0  0  0  0
 13  3  1  0  0  0  0
 14 15  1  6  0  0  0
 14  8  1  0  0  0  0
 16 21  1  6  0  0  0
 16 15  1  0  0  0  0
 17 18  1  0  0  0  0
 17 16  1  0  0  0  0
 19 17  2  0  0  0  0
 20 21  1  0  0  0  0
 22 21  2  0  0  0  0
 23 24  1  0  0  0  0
 23  1  1  0  0  0  0
 25 26  1  0  0  0  0
 26 30  1  1  0  0  0
 27 25  1  0  0  0  0
 27 24  1  1  0  0  0
 27 26  1  0  0  0  0
 30 28  1  0  0  0  0
 30 29  1  0  0  0  0
M  END
>  <MODEL>
2

>  <REMARK>
 VINA RESULT:      -8.3      1.925      3.002
  Name = 
  8 active torsions:
  status: ('A' for Active; 'I' for Inactive)
    1  A    between atoms: C_1  and  C_8
    2  A    between atoms: N_2  and  CA_4
    3  A    between atoms: N_2  and  C_30
    4  A    between atoms: CA_4  and  CB_7
    5  A    between atoms: CA_4  and  C_22
    6  A    between atoms: C_8  and  N_29
    7  A    between atoms: N_20  and  C_23
    8  A    between atoms: C_26  and  N_29
                            x       y       z     vdW  Elec       q    Type
                         _______ _______ _______ _____ _____    ______ ____

>  <TORSDO>
F 8

$$$$
=
 OpenBabel11062413213D

 30 33  0  0  1  0  0  0  0  0999 V2000
  187.2240  178.0500  141.9890 C   0  0  0  0  0  0  0  0  0  0  0  0
  184.2620  178.6270  144.2650 C   0  0  0  0  0  0  0  0  0  0  0  0
  183.7350  178.6040  141.8010 C   0  0  0  0  0  2  0  0  0  0  0  0
  183.2370  178.9250  143.2030 C   0  0  0  0  0  2  0  0  0  0  0  0
  186.0270  178.3020  146.3750 C   0  0  0  0  0  3  0  0  0  0  0  0
  183.8170  178.5880  145.5860 C   0  0  0  0  0  3  0  0  0  0  0  0
  186.0850  178.5650  142.5350 C   0  0  0  0  0  0  0  0  0  0  0  0
  187.9950  178.2010  144.9180 C   0  0  0  0  0  2  0  0  0  0  0  0
  185.6480  178.4930  143.9770 C   0  0  0  0  0  0  0  0  0  0  0  0
  186.5320  178.3490  145.0740 C   0  0  0  0  0  0  0  0  0  0  0  0
  184.6960  178.4190  146.6040 N   0  0  0  0  0  0  0  0  0  0  0  0
  188.2300  177.3170  142.7050 N   0  0  0  0  0  2  0  0  0  0  0  0
  185.1040  179.2260  141.6040 C   0  0  0  0  0  2  0  0  0  0  0  0
  188.2320  176.9580  144.1070 C   0  0  1  0  0  3  0  0  0  0  0  0
  189.5210  176.3820  144.4530 N   0  0  0  0  0  2  0  0  0  0  0  0
  190.3320  177.4430  145.0360 C   0  0  1  0  0  3  0  0  0  0  0  0
  190.9070  177.0100  146.3520 C   0  0  0  0  0  0  0  0  0  0  0  0
  190.0470  177.0250  147.5690 C   0  0  0  0  0  1  0  0  0  0  0  0
  192.0680  176.6430  146.4360 O   0  0  0  0  0  0  0  0  0  0  0  0
  191.8830  176.9550  143.1450 O   0  0  0  0  0  0  0  0  0  0  0  0
  191.4100  177.8590  144.0870 C   0  0  0  0  0  0  0  0  0  0  0  0
  191.8770  179.0290  144.1170 O   0  0  0  0  0  1  0  0  0  0  0  0
  187.5070  178.2440  140.5310 C   0  0  0  0  0  2  0  0  0  0  0  0
  188.6380  177.4210  140.1410 N   0  0  0  0  0  2  0  0  0  0  0  0
  190.5890  177.4990  138.8620 O   0  0  0  0  0  0  0  0  0  0  0  0
  189.5880  177.4760  137.8700 C   0  0  2  0  0  3  0  0  0  0  0  0
  189.4040  178.1910  139.1720 C   0  0  1  0  0  3  0  0  0  0  0  0
  189.9820  175.2040  137.4600 C   0  0  0  0  0  1  0  0  0  0  0  0
  187.9940  176.1790  136.7520 C   0  0  0  0  0  1  0  0  0  0  0  0
  188.9570  176.1610  137.8390 N   0  0  0  0  0  0  0  0  0  0  0  0
  1  7  2  0  0  0  0
  1 12  1  0  0  0  0
  2  6  1  0  0  0  0
  3  4  1  0  0  0  0
  4  2  1  0  0  0  0
  5 11  1  0  0  0  0
  6 11  2  0  0  0  0
  7  9  1  0  0  0  0
  8 10  1  0  0  0  0
  9  2  2  0  0  0  0
  9 10  1  0  0  0  0
 10  5  2  0  0  0  0
 12 14  1  0  0  0  0
 13  3  1  0  0  0  0
 13  7  1  0  0  0  0
 14 15  1  1  0  0  0
 14  8  1  0  0  0  0
 15 16  1  0  0  0  0
 16 21  1  6  0  0  0
 16 17  1  0  0  0  0
 17 19  2  0  0  0  0
 17 18  1  0  0  0  0
 20 21  2  0  0  0  0
 21 22  1  0  0  0  0
 23  1  1  0  0  0  0
 24 23  1  0  0  0  0
 25 27  1  0  0  0  0
 26 30  1  1  0  0  0
 26 25  1  0  0  0  0
 26 27  1  0  0  0  0
 27 24  1  1  0  0  0
 28 30  1  0  0  0  0
 29 30  1  0  0  0  0
M  END
>  <MODEL>
3

>  <REMARK>
 VINA RESULT:      -8.2      2.703      5.529
  Name = 
  8 active torsions:
  status: ('A' for Active; 'I' for Inactive)
    1  A    between atoms: C_1  and  C_8
    2  A    between atoms: N_2  and  CA_4
    3  A    between atoms: N_2  and  C_30
    4  A    between atoms: CA_4  and  CB_7
    5  A    between atoms: CA_4  and  C_22
    6  A    between atoms: C_8  and  N_29
    7  A    between atoms: N_20  and  C_23
    8  A    between atoms: C_26  and  N_29
                            x       y       z     vdW  Elec       q    Type
                         _______ _______ _______ _____ _____    ______ ____

>  <TORSDO>
F 8

$$$$
=
 OpenBabel11062413213D

 30 33  0  0  1  0  0  0  0  0999 V2000
  187.1590  177.6700  143.7810 C   0  0  0  0  0  0  0  0  0  0  0  0
  189.3690  177.2690  146.8210 C   0  0  0  0  0  0  0  0  0  0  0  0
  186.9050  177.4650  147.3040 C   0  0  0  0  0  2  0  0  0  0  0  0
  188.3150  177.4760  147.8750 C   0  0  0  0  0  2  0  0  0  0  0  0
  191.4890  177.0540  145.0500 C   0  0  0  0  0  3  0  0  0  0  0  0
  190.6550  176.9530  147.2600 C   0  0  0  0  0  3  0  0  0  0  0  0
  187.7210  177.8440  145.0120 C   0  0  0  0  0  0  0  0  0  0  0  0
  190.1110  177.5870  143.0940 C   0  0  0  0  0  2  0  0  0  0  0  0
  189.1230  177.4820  145.4370 C   0  0  0  0  0  0  0  0  0  0  0  0
  190.2260  177.3870  144.5550 C   0  0  0  0  0  0  0  0  0  0  0  0
  191.6770  176.8440  146.3760 N   0  0  0  0  0  0  0  0  0  0  0  0
  187.8130  177.0850  142.6450 N   0  0  0  0  0  2  0  0  0  0  0  0
  186.8450  178.3930  146.1050 C   0  0  0  0  0  2  0  0  0  0  0  0
  189.1560  176.5480  142.5770 C   0  0  1  0  0  3  0  0  0  0  0  0
  189.4760  176.2270  141.1960 N   0  0  0  0  0  2  0  0  0  0  0  0
  189.9370  177.4530  140.5570 C   0  0  1  0  0  3  0  0  0  0  0  0
  191.2960  177.2570  139.9530 C   0  0  0  0  0  0  0  0  0  0  0  0
  191.4130  176.7280  138.5650 C   0  0  0  0  0  1  0  0  0  0  0  0
  192.3040  177.5310  140.5840 O   0  0  0  0  0  0  0  0  0  0  0  0
  189.0560  179.1920  139.0030 O   0  0  0  0  0  0  0  0  0  0  0  0
  188.9510  177.9120  139.5320 C   0  0  0  0  0  0  0  0  0  0  0  0
  188.0410  177.1420  139.1250 O   0  0  0  0  0  1  0  0  0  0  0  0
  185.7510  178.1170  143.5330 C   0  0  0  0  0  2  0  0  0  0  0  0
  185.4260  177.9430  142.1290 N   0  0  0  0  0  2  0  0  0  0  0  0
  185.4810  179.3980  140.3030 O   0  0  0  0  0  0  0  0  0  0  0  0
  184.1000  179.1630  140.4510 C   0  0  2  0  0  3  0  0  0  0  0  0
  185.0230  179.2480  141.6250 C   0  0  1  0  0  3  0  0  0  0  0  0
  184.1020  177.6710  138.6450 C   0  0  0  0  0  1  0  0  0  0  0  0
  182.3490  177.6350  140.1710 C   0  0  0  0  0  1  0  0  0  0  0  0
  183.7890  177.7920  140.0570 N   0  0  0  0  0  0  0  0  0  0  0  0
  1  7  2  0  0  0  0
  2  6  1  0  0  0  0
  2  4  1  0  0  0  0
  3  4  1  0  0  0  0
  5 11  1  0  0  0  0
  7  9  1  0  0  0  0
  7 13  1  0  0  0  0
  8 10  1  0  0  0  0
  9  2  2  0  0  0  0
 10  5  2  0  0  0  0
 10  9  1  0  0  0  0
 11  6  2  0  0  0  0
 12  1  1  0  0  0  0
 13  3  1  0  0  0  0
 14 15  1  6  0  0  0
 14 12  1  0  0  0  0
 14  8  1  0  0  0  0
 16 21  1  6  0  0  0
 16 15  1  0  0  0  0
 17 16  1  0  0  0  0
 17 19  2  0  0  0  0
 18 17  1  0  0  0  0
 20 21  2  0  0  0  0
 22 21  1  0  0  0  0
 23  1  1  0  0  0  0
 24 23  1  0  0  0  0
 25 26  1  0  0  0  0
 25 27  1  0  0  0  0
 26 30  1  6  0  0  0
 26 27  1  0  0  0  0
 27 24  1  6  0  0  0
 28 30  1  0  0  0  0
 30 29  1  0  0  0  0
M  END
>  <MODEL>
4

>  <REMARK>
 VINA RESULT:      -8.2      2.082      5.621
  Name = 
  8 active torsions:
  status: ('A' for Active; 'I' for Inactive)
    1  A    between atoms: C_1  and  C_8
    2  A    between atoms: N_2  and  CA_4
    3  A    between atoms: N_2  and  C_30
    4  A    between atoms: CA_4  and  CB_7
    5  A    between atoms: CA_4  and  C_22
    6  A    between atoms: C_8  and  N_29
    7  A    between atoms: N_20  and  C_23
    8  A    between atoms: C_26  and  N_29
                            x       y       z     vdW  Elec       q    Type
                         _______ _______ _______ _____ _____    ______ ____

>  <TORSDO>
F 8

$$$$
=
 OpenBabel11062413213D

 30 33  0  0  1  0  0  0  0  0999 V2000
  188.3630  177.6750  141.5610 C   0  0  0  0  0  0  0  0  0  0  0  0
  188.9500  177.4280  145.2870 C   0  0  0  0  0  0  0  0  0  0  0  0
  191.0180  177.2380  143.8600 C   0  0  0  0  0  2  0  0  0  0  0  0
  190.4110  177.0700  145.2450 C   0  0  0  0  0  2  0  0  0  0  0  0
  186.2340  177.8850  145.5800 C   0  0  0  0  0  3  0  0  0  0  0  0
  188.3750  177.6100  146.5450 C   0  0  0  0  0  3  0  0  0  0  0  0
  188.8030  177.2570  142.7830 C   0  0  0  0  0  0  0  0  0  0  0  0
  185.7960  177.7730  143.1710 C   0  0  0  0  0  2  0  0  0  0  0  0
  188.1400  177.4820  144.1200 C   0  0  0  0  0  0  0  0  0  0  0  0
  186.7520  177.6960  144.2970 C   0  0  0  0  0  0  0  0  0  0  0  0
  187.0440  177.8410  146.6660 N   0  0  0  0  0  0  0  0  0  0  0  0
  187.1680  178.4340  141.3240 N   0  0  0  0  0  2  0  0  0  0  0  0
  190.1300  176.5490  142.8400 C   0  0  0  0  0  2  0  0  0  0  0  0
  186.2230  178.9240  142.3040 C   0  0  1  0  0  3  0  0  0  0  0  0
  185.0670  179.4810  141.6200 N   0  0  0  0  0  2  0  0  0  0  0  0
  184.6660  178.5290  140.5920 C   0  0  1  0  0  3  0  0  0  0  0  0
  183.2920  177.9950  140.8710 C   0  0  0  0  0  0  0  0  0  0  0  0
  182.4250  178.6840  141.8670 C   0  0  0  0  0  1  0  0  0  0  0  0
  182.8770  177.0060  140.2880 O   0  0  0  0  0  0  0  0  0  0  0  0
  185.1890  178.4150  138.1570 O   0  0  0  0  0  0  0  0  0  0  0  0
  184.7360  179.1600  139.2390 C   0  0  0  0  0  0  0  0  0  0  0  0
  184.3670  180.3510  139.0650 O   0  0  0  0  0  1  0  0  0  0  0  0
  189.1450  177.3330  140.3300 C   0  0  0  0  0  2  0  0  0  0  0  0
  188.3820  177.7020  139.1510 N   0  0  0  0  0  2  0  0  0  0  0  0
  190.1570  177.6740  137.6340 O   0  0  0  0  0  0  0  0  0  0  0  0
  189.1150  178.2200  136.8580 C   0  0  2  0  0  3  0  0  0  0  0  0
  189.2580  178.5130  138.3190 C   0  0  1  0  0  3  0  0  0  0  0  0
  188.8360  176.0590  135.9990 C   0  0  0  0  0  1  0  0  0  0  0  0
  187.2680  177.7060  135.5170 C   0  0  0  0  0  1  0  0  0  0  0  0
  188.1240  177.1880  136.5700 N   0  0  0  0  0  0  0  0  0  0  0  0
  1  7  2  0  0  0  0
  2  6  1  0  0  0  0
  3  4  1  0  0  0  0
  4  2  1  0  0  0  0
  5 11  1  0  0  0  0
  6 11  2  0  0  0  0
  7 13  1  0  0  0  0
  7  9  1  0  0  0  0
  8 10  1  0  0  0  0
  9 10  1  0  0  0  0
  9  2  2  0  0  0  0
 10  5  2  0  0  0  0
 12  1  1  0  0  0  0
 12 14  1  0  0  0  0
 13  3  1  0  0  0  0
 14 15  1  6  0  0  0
 14  8  1  0  0  0  0
 16 21  1  6  0  0  0
 16 17  1  0  0  0  0
 16 15  1  0  0  0  0
 17 18  1  0  0  0  0
 19 17  2  0  0  0  0
 20 21  2  0  0  0  0
 22 21  1  0  0  0  0
 23  1  1  0  0  0  0
 24 23  1  0  0  0  0
 25 27  1  0  0  0  0
 26 30  1  1  0  0  0
 26 25  1  0  0  0  0
 26 27  1  0  0  0  0
 27 24  1  1  0  0  0
 28 30  1  0  0  0  0
 29 30  1  0  0  0  0
M  END
>  <MODEL>
5

>  <REMARK>
 VINA RESULT:      -8.1      1.546      2.104
  Name = 
  8 active torsions:
  status: ('A' for Active; 'I' for Inactive)
    1  A    between atoms: C_1  and  C_8
    2  A    between atoms: N_2  and  CA_4
    3  A    between atoms: N_2  and  C_30
    4  A    between atoms: CA_4  and  CB_7
    5  A    between atoms: CA_4  and  C_22
    6  A    between atoms: C_8  and  N_29
    7  A    between atoms: N_20  and  C_23
    8  A    between atoms: C_26  and  N_29
                            x       y       z     vdW  Elec       q    Type
                         _______ _______ _______ _____ _____    ______ ____

>  <TORSDO>
F 8

$$$$
=
 OpenBabel11062413213D

 30 33  0  0  1  0  0  0  0  0999 V2000
  186.2250  178.3020  141.9510 C   0  0  0  0  0  0  0  0  0  0  0  0
  185.0230  178.4340  145.5310 C   0  0  0  0  0  0  0  0  0  0  0  0
  183.2410  178.7930  143.7880 C   0  0  0  0  0  2  0  0  0  0  0  0
  183.6090  178.8730  145.2620 C   0  0  0  0  0  2  0  0  0  0  0  0
  187.6250  177.8170  146.2560 C   0  0  0  0  0  3  0  0  0  0  0  0
  185.3660  178.1720  146.8580 C   0  0  0  0  0  3  0  0  0  0  0  0
  185.6040  178.6950  143.1000 C   0  0  0  0  0  0  0  0  0  0  0  0
  188.4720  178.0000  143.9630 C   0  0  0  0  0  2  0  0  0  0  0  0
  186.0170  178.3820  144.5160 C   0  0  0  0  0  0  0  0  0  0  0  0
  187.3430  178.0850  144.9150 C   0  0  0  0  0  0  0  0  0  0  0  0
  186.6440  177.8630  147.1910 N   0  0  0  0  0  0  0  0  0  0  0  0
  187.4060  177.4880  141.8820 N   0  0  0  0  0  2  0  0  0  0  0  0
  184.3210  179.4720  142.9670 C   0  0  0  0  0  2  0  0  0  0  0  0
  188.1460  176.9090  142.9820 C   0  0  1  0  0  3  0  0  0  0  0  0
  189.3730  176.3170  142.4770 N   0  0  0  0  0  2  0  0  0  0  0  0
  190.3800  177.3690  142.4310 C   0  0  1  0  0  3  0  0  0  0  0  0
  191.4180  177.1580  143.4930 C   0  0  0  0  0  0  0  0  0  0  0  0
  191.7100  175.7770  143.9700 C   0  0  0  0  0  1  0  0  0  0  0  0
  192.0270  178.1030  143.9680 O   0  0  0  0  0  0  0  0  0  0  0  0
  192.3780  177.2930  140.9410 O   0  0  0  0  0  1  0  0  0  0  0  0
  191.0030  177.4380  141.0740 C   0  0  0  0  0  0  0  0  0  0  0  0
  190.2920  177.6030  140.0470 O   0  0  0  0  0  0  0  0  0  0  0  0
  185.6810  178.7340  140.6230 C   0  0  0  0  0  2  0  0  0  0  0  0
  186.6630  178.4690  139.5860 N   0  0  0  0  0  2  0  0  0  0  0  0
  186.7110  179.0020  137.3140 O   0  0  0  0  0  0  0  0  0  0  0  0
  186.6430  177.5950  137.2850 C   0  0  2  0  0  3  0  0  0  0  0  0
  185.9370  178.4050  138.3260 C   0  0  1  0  0  3  0  0  0  0  0  0
  188.9590  177.6150  136.9350 C   0  0  0  0  0  1  0  0  0  0  0  0
  187.8830  175.6150  137.4290 C   0  0  0  0  0  1  0  0  0  0  0  0
  187.9070  177.0320  137.7490 N   0  0  0  0  0  0  0  0  0  0  0  0
  1  7  2  0  0  0  0
  2  6  1  0  0  0  0
  3  4  1  0  0  0  0
  4  2  1  0  0  0  0
  5 11  1  0  0  0  0
  6 11  2  0  0  0  0
  7  9  1  0  0  0  0
  8 10  1  0  0  0  0
  9 10  1  0  0  0  0
  9  2  2  0  0  0  0
 10  5  2  0  0  0  0
 12  1  1  0  0  0  0
 12 14  1  0  0  0  0
 13  7  1  0  0  0  0
 13  3  1  0  0  0  0
 14 15  1  6  0  0  0
 14  8  1  0  0  0  0
 16 21  1  6  0  0  0
 16 15  1  0  0  0  0
 16 17  1  0  0  0  0
 17 19  2  0  0  0  0
 17 18  1  0  0  0  0
 20 21  1  0  0  0  0
 22 21  2  0  0  0  0
 23  1  1  0  0  0  0
 24 23  1  0  0  0  0
 25 27  1  0  0  0  0
 26 25  1  0  0  0  0
 26 30  1  1  0  0  0
 26 27  1  0  0  0  0
 27 24  1  1  0  0  0
 28 30  1  0  0  0  0
 29 30  1  0  0  0  0
M  END
>  <MODEL>
6

>  <REMARK>
 VINA RESULT:      -7.6      1.978      5.197
  Name = 
  8 active torsions:
  status: ('A' for Active; 'I' for Inactive)
    1  A    between atoms: C_1  and  C_8
    2  A    between atoms: N_2  and  CA_4
    3  A    between atoms: N_2  and  C_30
    4  A    between atoms: CA_4  and  CB_7
    5  A    between atoms: CA_4  and  C_22
    6  A    between atoms: C_8  and  N_29
    7  A    between atoms: N_20  and  C_23
    8  A    between atoms: C_26  and  N_29
                            x       y       z     vdW  Elec       q    Type
                         _______ _______ _______ _____ _____    ______ ____

>  <TORSDO>
F 8

$$$$
=
 OpenBabel11062413213D

 30 33  0  0  1  0  0  0  0  0999 V2000
  186.1100  178.4340  142.8480 C   0  0  0  0  0  0  0  0  0  0  0  0
  186.6630  177.9630  146.5570 C   0  0  0  0  0  0  0  0  0  0  0  0
  184.3150  178.5910  145.8940 C   0  0  0  0  0  2  0  0  0  0  0  0
  185.3130  178.4290  147.0320 C   0  0  0  0  0  2  0  0  0  0  0  0
  189.2630  177.2560  145.9140 C   0  0  0  0  0  3  0  0  0  0  0  0
  187.5490  177.4880  147.5250 C   0  0  0  0  0  3  0  0  0  0  0  0
  186.1020  178.6270  144.1990 C   0  0  0  0  0  0  0  0  0  0  0  0
  188.9960  177.8220  143.5440 C   0  0  0  0  0  2  0  0  0  0  0  0
  187.0870  178.0870  145.2060 C   0  0  0  0  0  0  0  0  0  0  0  0
  188.4260  177.7390  144.9060 C   0  0  0  0  0  0  0  0  0  0  0  0
  188.8150  177.1390  147.1880 N   0  0  0  0  0  0  0  0  0  0  0  0
  187.0730  177.6530  142.1270 N   0  0  0  0  0  2  0  0  0  0  0  0
  184.9530  179.4050  144.7840 C   0  0  0  0  0  2  0  0  0  0  0  0
  188.1890  176.9050  142.6690 C   0  0  1  0  0  3  0  0  0  0  0  0
  189.0130  176.4150  141.5760 N   0  0  0  0  0  2  0  0  0  0  0  0
  189.6140  177.5720  140.9270 C   0  0  1  0  0  3  0  0  0  0  0  0
  191.0940  177.3820  140.7670 C   0  0  0  0  0  0  0  0  0  0  0  0
  191.9820  177.5020  141.9570 C   0  0  0  0  0  1  0  0  0  0  0  0
  191.5760  177.1270  139.6750 O   0  0  0  0  0  0  0  0  0  0  0  0
  188.4390  176.7720  138.8790 O   0  0  0  0  0  0  0  0  0  0  0  0
  188.9580  177.8330  139.6100 C   0  0  0  0  0  0  0  0  0  0  0  0
  188.8500  179.0080  139.1670 O   0  0  0  0  0  1  0  0  0  0  0  0
  185.0570  179.0750  141.9970 C   0  0  0  0  0  2  0  0  0  0  0  0
  184.7990  178.2440  140.8350 N   0  0  0  0  0  2  0  0  0  0  0  0
  185.5090  178.6610  138.6500 O   0  0  0  0  0  0  0  0  0  0  0  0
  184.1230  178.4750  138.4790 C   0  0  2  0  0  3  0  0  0  0  0  0
  184.6930  179.1390  139.6920 C   0  0  1  0  0  3  0  0  0  0  0  0
  184.2800  176.3320  137.5450 C   0  0  0  0  0  1  0  0  0  0  0  0
  182.3360  176.9720  138.6470 C   0  0  0  0  0  1  0  0  0  0  0  0
  183.7840  177.0710  138.6930 N   0  0  0  0  0  0  0  0  0  0  0  0
  1  7  2  0  0  0  0
  2  4  1  0  0  0  0
  2  6  1  0  0  0  0
  3  4  1  0  0  0  0
  5 11  1  0  0  0  0
  7 13  1  0  0  0  0
  7  9  1  0  0  0  0
  8 10  1  0  0  0  0
  9  2  2  0  0  0  0
 10  9  1  0  0  0  0
 10  5  2  0  0  0  0
 11  6  2  0  0  0  0
 12 14  1  0  0  0  0
 12  1  1  0  0  0  0
 13  3  1  0  0  0  0
 14 15  1  6  0  0  0
 14  8  1  0  0  0  0
 16 21  1  6  0  0  0
 16 15  1  0  0  0  0
 17 16  1  0  0  0  0
 17 18  1  0  0  0  0
 19 17  2  0  0  0  0
 20 21  2  0  0  0  0
 22 21  1  0  0  0  0
 23  1  1  0  0  0  0
 24 23  1  0  0  0  0
 25 27  1  0  0  0  0
 26 25  1  0  0  0  0
 26 30  1  1  0  0  0
 26 27  1  0  0  0  0
 27 24  1  1  0  0  0
 28 30  1  0  0  0  0
 29 30  1  0  0  0  0
M  END
>  <MODEL>
7

>  <REMARK>
 VINA RESULT:      -7.5      1.973      5.151
  Name = 
  8 active torsions:
  status: ('A' for Active; 'I' for Inactive)
    1  A    between atoms: C_1  and  C_8
    2  A    between atoms: N_2  and  CA_4
    3  A    between atoms: N_2  and  C_30
    4  A    between atoms: CA_4  and  CB_7
    5  A    between atoms: CA_4  and  C_22
    6  A    between atoms: C_8  and  N_29
    7  A    between atoms: N_20  and  C_23
    8  A    between atoms: C_26  and  N_29
                            x       y       z     vdW  Elec       q    Type
                         _______ _______ _______ _____ _____    ______ ____

>  <TORSDO>
F 8

$$$$
=
 OpenBabel11062413213D

 30 33  0  0  1  0  0  0  0  0999 V2000
  186.7240  178.2060  142.0720 C   0  0  0  0  0  0  0  0  0  0  0  0
  183.9370  178.7500  144.5670 C   0  0  0  0  0  0  0  0  0  0  0  0
  186.2610  178.7330  145.5400 C   0  0  0  0  0  2  0  0  0  0  0  0
  184.7660  178.6940  145.8220 C   0  0  0  0  0  2  0  0  0  0  0  0
  182.2080  178.6900  142.4030 C   0  0  0  0  0  3  0  0  0  0  0  0
  182.5790  179.0310  144.7130 C   0  0  0  0  0  3  0  0  0  0  0  0
  185.9330  178.1100  143.1800 C   0  0  0  0  0  0  0  0  0  0  0  0
  183.9680  178.0650  140.8160 C   0  0  0  0  0  2  0  0  0  0  0  0
  184.4630  178.4290  143.2850 C   0  0  0  0  0  0  0  0  0  0  0  0
  183.5560  178.3860  142.1990 C   0  0  0  0  0  0  0  0  0  0  0  0
  181.7510  179.0050  143.6400 N   0  0  0  0  0  0  0  0  0  0  0  0
  186.2890  178.6520  140.7790 N   0  0  0  0  0  2  0  0  0  0  0  0
  186.5930  177.7080  144.4720 C   0  0  0  0  0  2  0  0  0  0  0  0
  184.9680  179.1060  140.3980 C   0  0  1  0  0  3  0  0  0  0  0  0
  184.9200  179.2860  138.9560 N   0  0  0  0  0  2  0  0  0  0  0  0
  185.1820  177.9900  138.3440 C   0  0  1  0  0  3  0  0  0  0  0  0
  183.9370  177.4390  137.7130 C   0  0  0  0  0  0  0  0  0  0  0  0
  183.7120  175.9670  137.6970 C   0  0  0  0  0  1  0  0  0  0  0  0
  183.1070  178.1840  137.2170 O   0  0  0  0  0  0  0  0  0  0  0  0
  186.6020  177.0050  136.5470 O   0  0  0  0  0  0  0  0  0  0  0  0
  186.2910  178.0970  137.3470 C   0  0  0  0  0  0  0  0  0  0  0  0
  186.9300  179.1740  137.2090 O   0  0  0  0  0  1  0  0  0  0  0  0
  188.1680  177.8170  142.1490 C   0  0  0  0  0  2  0  0  0  0  0  0
  188.6760  177.5650  140.8120 N   0  0  0  0  0  2  0  0  0  0  0  0
  190.5590  176.1860  140.7430 O   0  0  0  0  0  0  0  0  0  0  0  0
  190.7890  177.0520  139.6560 C   0  0  2  0  0  3  0  0  0  0  0  0
  190.1270  177.5130  140.9160 C   0  0  1  0  0  3  0  0  0  0  0  0
  190.2790  175.5180  137.9610 C   0  0  0  0  0  1  0  0  0  0  0  0
  190.0050  177.7940  137.5790 C   0  0  0  0  0  1  0  0  0  0  0  0
  189.8450  176.7560  138.5820 N   0  0  0  0  0  0  0  0  0  0  0  0
  1 23  1  0  0  0  0
  1  7  2  0  0  0  0
  2  6  1  0  0  0  0
  2  4  1  0  0  0  0
  3  4  1  0  0  0  0
  5 11  1  0  0  0  0
  7  9  1  0  0  0  0
  7 13  1  0  0  0  0
  8 10  1  0  0  0  0
  9  2  2  0  0  0  0
 10  5  2  0  0  0  0
 10  9  1  0  0  0  0
 11  6  2  0  0  0  0
 12  1  1  0  0  0  0
 13  3  1  0  0  0  0
 14 15  1  6  0  0  0
 14 12  1  0  0  0  0
 14  8  1  0  0  0  0
 16 21  1  6  0  0  0
 16 15  1  0  0  0  0
 17 16  1  0  0  0  0
 18 17  1  0  0  0  0
 19 17  2  0  0  0  0
 20 21  2  0  0  0  0
 22 21  1  0  0  0  0
 24 23  1  0  0  0  0
 25 27  1  0  0  0  0
 26 30  1  6  0  0  0
 26 25  1  0  0  0  0
 26 27  1  0  0  0  0
 27 24  1  6  0  0  0
 28 30  1  0  0  0  0
 29 30  1  0  0  0  0
M  END
>  <MODEL>
8

>  <REMARK>
 VINA RESULT:      -7.3      1.583      2.192
  Name = 
  8 active torsions:
  status: ('A' for Active; 'I' for Inactive)
    1  A    between atoms: C_1  and  C_8
    2  A    between atoms: N_2  and  CA_4
    3  A    between atoms: N_2  and  C_30
    4  A    between atoms: CA_4  and  CB_7
    5  A    between atoms: CA_4  and  C_22
    6  A    between atoms: C_8  and  N_29
    7  A    between atoms: N_20  and  C_23
    8  A    between atoms: C_26  and  N_29
                            x       y       z     vdW  Elec       q    Type
                         _______ _______ _______ _____ _____    ______ ____

>  <TORSDO>
F 8

$$$$
=
 OpenBabel11062413213D

 30 33  0  0  1  0  0  0  0  0999 V2000
  186.5180  178.4590  142.1040 C   0  0  0  0  0  0  0  0  0  0  0  0
  183.1870  178.8430  143.8490 C   0  0  0  0  0  0  0  0  0  0  0  0
  185.2100  179.1620  145.3160 C   0  0  0  0  0  2  0  0  0  0  0  0
  183.7020  178.9690  145.2580 C   0  0  0  0  0  2  0  0  0  0  0  0
  182.0240  178.4370  141.3680 C   0  0  0  0  0  3  0  0  0  0  0  0
  181.8110  178.9740  143.6600 C   0  0  0  0  0  3  0  0  0  0  0  0
  185.5040  178.3470  143.0110 C   0  0  0  0  0  0  0  0  0  0  0  0
  184.1580  177.9150  140.2800 C   0  0  0  0  0  2  0  0  0  0  0  0
  184.0260  178.5000  142.7530 C   0  0  0  0  0  0  0  0  0  0  0  0
  183.4060  178.2780  141.5010 C   0  0  0  0  0  0  0  0  0  0  0  0
  181.2630  178.7800  142.4350 N   0  0  0  0  0  0  0  0  0  0  0  0
  186.3550  178.7630  140.7110 N   0  0  0  0  0  2  0  0  0  0  0  0
  185.8810  178.1120  144.4500 C   0  0  0  0  0  2  0  0  0  0  0  0
  185.1220  179.0340  140.0030 C   0  0  1  0  0  3  0  0  0  0  0  0
  185.3940  179.1090  138.5770 N   0  0  0  0  0  2  0  0  0  0  0  0
  186.2290  177.9670  138.2300 C   0  0  1  0  0  3  0  0  0  0  0  0
  185.5250  177.0740  137.2510 C   0  0  0  0  0  0  0  0  0  0  0  0
  186.0850  175.7250  136.9540 C   0  0  0  0  0  1  0  0  0  0  0  0
  184.4990  177.4380  136.7000 O   0  0  0  0  0  0  0  0  0  0  0  0
  187.5890  179.4800  136.7880 O   0  0  0  0  0  0  0  0  0  0  0  0
  187.5460  178.4260  137.6920 C   0  0  0  0  0  0  0  0  0  0  0  0
  188.6180  177.8820  138.0670 O   0  0  0  0  0  1  0  0  0  0  0  0
  187.9350  178.2470  142.5400 C   0  0  0  0  0  2  0  0  0  0  0  0
  188.2770  176.8410  142.4130 N   0  0  0  0  0  2  0  0  0  0  0  0
  190.1170  177.8850  141.4250 O   0  0  0  0  0  0  0  0  0  0  0  0
  190.6850  176.6940  141.9180 C   0  0  2  0  0  3  0  0  0  0  0  0
  189.2920  176.7470  141.3740 C   0  0  1  0  0  3  0  0  0  0  0  0
  191.4530  177.9510  143.7390 C   0  0  0  0  0  1  0  0  0  0  0  0
  191.5710  175.6310  143.8060 C   0  0  0  0  0  1  0  0  0  0  0  0
  190.7380  176.7410  143.3760 N   0  0  0  0  0  0  0  0  0  0  0  0
  1 23  1  0  0  0  0
  1  7  2  0  0  0  0
  2  4  1  0  0  0  0
  4  3  1  0  0  0  0
  5 10  2  0  0  0  0
  5 11  1  0  0  0  0
  6  2  1  0  0  0  0
  7 13  1  0  0  0  0
  8 10  1  0  0  0  0
  9  7  1  0  0  0  0
  9  2  2  0  0  0  0
 10  9  1  0  0  0  0
 11  6  2  0  0  0  0
 12  1  1  0  0  0  0
 13  3  1  0  0  0  0
 14 15  1  6  0  0  0
 14  8  1  0  0  0  0
 14 12  1  0  0  0  0
 16 17  1  6  0  0  0
 16 15  1  0  0  0  0
 18 17  1  0  0  0  0
 19 17  2  0  0  0  0
 20 21  2  0  0  0  0
 21 22  1  0  0  0  0
 21 16  1  0  0  0  0
 24 23  1  0  0  0  0
 25 26  1  0  0  0  0
 26 30  1  1  0  0  0
 27 25  1  0  0  0  0
 27 26  1  0  0  0  0
 27 24  1  1  0  0  0
 30 28  1  0  0  0  0
 30 29  1  0  0  0  0
M  END
>  <MODEL>
9

>  <REMARK>
 VINA RESULT:      -7.2      2.312      3.832
  Name = 
  8 active torsions:
  status: ('A' for Active; 'I' for Inactive)
    1  A    between atoms: C_1  and  C_8
    2  A    between atoms: N_2  and  CA_4
    3  A    between atoms: N_2  and  C_30
    4  A    between atoms: CA_4  and  CB_7
    5  A    between atoms: CA_4  and  C_22
    6  A    between atoms: C_8  and  N_29
    7  A    between atoms: N_20  and  C_23
    8  A    between atoms: C_26  and  N_29
                            x       y       z     vdW  Elec       q    Type
                         _______ _______ _______ _____ _____    ______ ____

>  <TORSDO>
F 8

$$$$
