=
 OpenBabel11062415083D

 55 59  0  0  1  0  0  0  0  0999 V2000
  188.4480  177.7110  139.7180 C   0  0  0  0  0  2  0  0  0  0  0  0
  188.4350  176.3140  139.0980 C   0  0  2  0  0  3  0  0  0  0  0  0
  181.6110  177.1020  139.6920 C   0  0  0  0  0  2  0  0  0  0  0  0
  187.7860  177.2460  135.2370 C   0  0  2  0  0  3  0  0  0  0  0  0
  188.4670  176.2680  137.5640 C   0  0  2  0  0  0  0  0  0  0  0  0
  181.4680  174.4760  137.1680 O   0  0  0  0  0  0  0  0  0  0  0  0
  183.2850  175.9360  137.6650 C   0  0  0  0  0  0  0  0  0  0  0  0
  186.7240  176.1220  135.2590 C   0  0  1  0  0  3  0  0  0  0  0  0
  188.5240  177.5130  136.6060 C   0  0  2  0  0  0  0  0  0  0  0  0
  184.4950  176.8280  135.6520 C   0  0  2  0  0  3  0  0  0  0  0  0
  183.8290  176.7380  138.5940 C   0  0  0  0  0  3  0  0  0  0  0  0
  186.7740  180.7220  135.4530 F   0  0  0  0  0  0  0  0  0  0  0  0
  187.1510  176.0560  138.3100 C   0  0  1  0  0  3  0  0  0  0  0  0
  183.6020  178.3660  140.4860 C   0  0  0  0  0  2  0  0  0  0  0  0
  187.3130  178.5620  134.6030 C   0  0  0  0  0  2  0  0  0  0  0  0
  184.0360  175.5880  136.4150 C   0  0  0  0  0  2  0  0  0  0  0  0
  183.3050  177.5190  135.0150 C   0  0  0  0  0  1  0  0  0  0  0  0
  186.7700  174.5910  138.4500 C   0  0  0  0  0  1  0  0  0  0  0  0
  188.0620  178.7020  137.2490 O   0  0  0  0  0  0  0  0  0  0  0  0
  184.9380  178.2180  141.2100 C   0  0  1  0  0  3  0  0  0  0  0  0
  185.4590  176.4790  134.6160 N   0  0  0  0  0  2  0  0  0  0  0  0
  186.4630  179.3810  135.5780 C   0  0  1  0  0  3  0  0  0  0  0  0
  186.6870  178.9240  137.0190 C   0  0  0  0  0  2  0  0  0  0  0  0
  181.1520  175.9140  138.9800 N   0  0  0  0  0  2  0  0  0  0  0  0
  186.0740  178.2740  140.2020 C   0  0  0  0  0  2  0  0  0  0  0  0
  189.0570  175.0950  137.0770 O   0  0  0  0  0  1  0  0  0  0  0  0
  181.9350  175.3920  137.8990 C   0  0  0  0  0  0  0  0  0  0  0  0
  187.3970  177.8460  140.8130 C   0  0  0  0  0  2  0  0  0  0  0  0
  183.1250  177.0410  139.8980 C   0  0  1  0  0  3  0  0  0  0  0  0
  190.8170  177.8150  137.4180 F   0  0  0  0  0  0  0  0  0  0  0  0
  190.0090  177.7920  136.2750 C   0  0  0  0  0  3  0  0  0  0  0  0
  190.5380  176.9040  135.3290 F   0  0  0  0  0  0  0  0  0  0  0  0
  187.2250  173.7150  135.2400 C   0  0  0  0  0  3  0  0  0  0  0  0
  187.2930  174.8950  134.6260 C   0  0  0  0  0  3  0  0  0  0  0  0
  187.8250  172.5030  134.5950 C   0  0  1  0  0  3  0  0  0  0  0  0
  189.9300  173.6690  134.5940 O   0  0  0  0  0  0  0  0  0  0  0  0
  189.3170  172.5740  134.7310 C   0  0  0  0  0  0  0  0  0  0  0  0
  190.0380  171.4030  134.9530 O   0  0  0  0  0  1  0  0  0  0  0  0
  187.2670  171.1840  135.1650 C   0  0  1  0  0  3  0  0  0  0  0  0
  187.5650  171.0860  136.5300 O   0  0  0  0  0  1  0  0  0  0  0  0
  185.7460  171.1060  134.9800 C   0  0  1  0  0  3  0  0  0  0  0  0
  185.2990  169.7750  135.0430 O   0  0  0  0  0  1  0  0  0  0  0  0
  183.6320  172.2600  135.5980 C   0  0  0  0  0  1  0  0  0  0  0  0
  185.0390  171.9200  136.0560 C   0  0  0  0  0  2  0  0  0  0  0  0
  185.1000  179.3550  142.2130 C   0  0  0  0  0  2  0  0  0  0  0  0
  186.0120  179.1670  145.1850 C   0  0  2  0  0  3  0  0  0  0  0  0
  185.2200  181.1910  144.1430 O   0  0  0  0  0  1  0  0  0  0  0  0
  184.3460  179.0840  143.4370 N   0  0  0  0  0  0  0  0  0  0  0  0
  184.8500  179.9010  144.5460 C   0  0  1  0  0  3  0  0  0  0  0  0
  184.6470  177.7080  143.8280 C   0  0  0  0  0  2  0  0  0  0  0  0
  185.8190  177.7190  144.8010 C   0  0  0  0  0  2  0  0  0  0  0  0
  186.0580  179.3640  146.7060 C   0  0  0  0  0  2  0  0  0  0  0  0
  186.7160  178.2100  147.4550 C   0  0  0  0  0  2  0  0  0  0  0  0
  188.5990  177.5300  148.3810 C   0  0  0  0  0  1  0  0  0  0  0  0
  188.1020  178.2720  147.3120 O   0  0  0  0  0  0  0  0  0  0  0  0
  1 28  1  0  0  0  0
  2  1  1  6  0  0  0
  3 29  1  0  0  0  0
  4 15  1  1  0  0  0
  4  8  1  0  0  0  0
  4  9  1  0  0  0  0
  5 26  1  6  0  0  0
  5 13  1  0  0  0  0
  5  2  1  0  0  0  0
  6 27  2  0  0  0  0
  7 27  1  0  0  0  0
  7 11  2  0  0  0  0
  8 34  1  6  0  0  0
  9 31  1  6  0  0  0
  9 19  1  0  0  0  0
  9  5  1  0  0  0  0
 10 17  1  6  0  0  0
 10 16  1  0  0  0  0
 13 18  1  1  0  0  0
 13  2  1  0  0  0  0
 14 20  1  0  0  0  0
 15 22  1  0  0  0  0
 16  7  1  0  0  0  0
 20 45  1  1  0  0  0
 21  8  1  0  0  0  0
 21 10  1  0  0  0  0
 22 12  1  1  0  0  0
 22 23  1  0  0  0  0
 23 19  1  0  0  0  0
 24  3  1  0  0  0  0
 25 28  1  0  0  0  0
 25 20  1  0  0  0  0
 27 24  1  0  0  0  0
 29 11  1  6  0  0  0
 29 14  1  0  0  0  0
 31 30  1  0  0  0  0
 32 31  1  0  0  0  0
 34 33  2  0  0  0  0
 35 37  1  0  0  0  0
 35 39  1  0  0  0  0
 35 33  1  1  0  0  0
 36 37  2  0  0  0  0
 37 38  1  0  0  0  0
 39 40  1  1  0  0  0
 41 42  1  1  0  0  0
 41 39  1  0  0  0  0
 41 44  1  0  0  0  0
 43 44  1  0  0  0  0
 45 48  1  0  0  0  0
 46 52  1  1  0  0  0
 48 50  1  0  0  0  0
 48 49  1  0  0  0  0
 49 47  1  6  0  0  0
 49 46  1  0  0  0  0
 50 51  1  0  0  0  0
 51 46  1  0  0  0  0
 52 53  1  0  0  0  0
 55 53  1  0  0  0  0
 55 54  1  0  0  0  0
M  END
>  <MODEL>
1

>  <REMARK>
 VINA RESULT:       1.8      0.000      0.000
  Name = 
  12 active torsions:
  status: ('A' for Active; 'I' for Inactive)
    1  A    between atoms: C_1  and  C_10
    2  A    between atoms: C_10  and  C_44
    3  A    between atoms: C_11  and  C_15
    4  A    between atoms: C_11  and  C_16
    5  A    between atoms: N_12  and  C_14
    6  A    between atoms: C_13  and  C_24
    7  A    between atoms: C_14  and  C_40
    8  A    between atoms: C_16  and  C_27
    9  A    between atoms: C_19  and  C_27
   10  A    between atoms: O_20  and  C_44
   11  A    between atoms: C_23  and  C_35
   12  A    between atoms: C_27  and  C_28
                            x       y       z     vdW  Elec       q    Type
                         _______ _______ _______ _____ _____    ______ ____

>  <TORSDO>
F 12

$$$$
=
 OpenBabel11062415083D

 55 59  0  0  1  0  0  0  0  0999 V2000
  186.4390  176.1030  134.6290 C   0  0  0  0  0  2  0  0  0  0  0  0
  187.7320  176.9200  134.6500 C   0  0  2  0  0  3  0  0  0  0  0  0
  185.2080  179.0680  140.6970 C   0  0  0  0  0  2  0  0  0  0  0  0
  190.0440  174.5450  136.9340 C   0  0  2  0  0  3  0  0  0  0  0  0
  188.9600  176.2020  135.2260 C   0  0  2  0  0  0  0  0  0  0  0  0
  188.6680  179.9860  141.3860 O   0  0  0  0  0  0  0  0  0  0  0  0
  187.8580  178.4030  139.7980 C   0  0  0  0  0  0  0  0  0  0  0  0
  190.4310  175.8370  137.6900 C   0  0  1  0  0  3  0  0  0  0  0  0
  188.9950  174.7260  135.7680 C   0  0  2  0  0  0  0  0  0  0  0  0
  189.1910  176.2780  139.6620 C   0  0  2  0  0  3  0  0  0  0  0  0
  186.7960  178.0170  139.0740 C   0  0  0  0  0  3  0  0  0  0  0  0
  187.6150  172.2540  138.3510 F   0  0  0  0  0  0  0  0  0  0  0  0
  188.1930  177.2110  136.0780 C   0  0  1  0  0  3  0  0  0  0  0  0
  184.3220  177.7210  138.8020 C   0  0  0  0  0  2  0  0  0  0  0  0
  189.6600  173.3640  137.8370 C   0  0  0  0  0  2  0  0  0  0  0  0
  189.2100  177.8010  139.5610 C   0  0  0  0  0  2  0  0  0  0  0  0
  189.0060  175.8540  141.1070 C   0  0  0  0  0  1  0  0  0  0  0  0
  188.8470  178.5830  136.1160 C   0  0  0  0  0  1  0  0  0  0  0  0
  187.6940  174.2600  136.1300 O   0  0  0  0  0  0  0  0  0  0  0  0
  184.1580  177.7030  137.2840 C   0  0  1  0  0  3  0  0  0  0  0  0
  190.4280  175.7030  139.1480 N   0  0  0  0  0  2  0  0  0  0  0  0
  188.2260  173.4940  138.3530 C   0  0  1  0  0  3  0  0  0  0  0  0
  187.4220  174.4740  137.4990 C   0  0  0  0  0  2  0  0  0  0  0  0
  186.3470  179.8350  141.1930 N   0  0  0  0  0  2  0  0  0  0  0  0
  185.1770  176.7560  136.6720 C   0  0  0  0  0  2  0  0  0  0  0  0
  190.1600  176.6840  134.6890 O   0  0  0  0  0  1  0  0  0  0  0  0
  187.6760  179.4410  140.8290 C   0  0  0  0  0  0  0  0  0  0  0  0
  185.2610  176.9100  135.1630 C   0  0  0  0  0  2  0  0  0  0  0  0
  185.4380  178.6640  139.2410 C   0  0  1  0  0  3  0  0  0  0  0  0
  190.8230  173.5900  134.5950 F   0  0  0  0  0  0  0  0  0  0  0  0
  189.4390  173.8030  134.6090 C   0  0  0  0  0  3  0  0  0  0  0  0
  188.7620  172.5760  134.5940 F   0  0  0  0  0  0  0  0  0  0  0  0
  192.5440  175.5110  136.4770 C   0  0  0  0  0  3  0  0  0  0  0  0
  191.7710  176.2990  137.2220 C   0  0  0  0  0  3  0  0  0  0  0  0
  193.8950  175.9880  136.0400 C   0  0  1  0  0  3  0  0  0  0  0  0
  194.9070  178.1430  136.3870 O   0  0  0  0  0  0  0  0  0  0  0  0
  194.2890  177.1610  136.8860 C   0  0  0  0  0  0  0  0  0  0  0  0
  194.0210  177.1390  138.2530 O   0  0  0  0  0  1  0  0  0  0  0  0
  194.9630  174.8770  136.0810 C   0  0  1  0  0  3  0  0  0  0  0  0
  195.8570  175.1080  137.1340 O   0  0  0  0  0  1  0  0  0  0  0  0
  194.3150  173.4990  136.2700 C   0  0  1  0  0  3  0  0  0  0  0  0
  194.9100  172.5440  135.4270 O   0  0  0  0  0  1  0  0  0  0  0  0
  195.2220  171.7350  137.7670 C   0  0  0  0  0  1  0  0  0  0  0  0
  194.4530  173.0420  137.7160 C   0  0  0  0  0  2  0  0  0  0  0  0
  182.7530  177.2250  136.9310 C   0  0  0  0  0  2  0  0  0  0  0  0
  180.6190  174.9580  136.9870 C   0  0  2  0  0  3  0  0  0  0  0  0
  182.9950  174.5700  136.9020 O   0  0  0  0  0  1  0  0  0  0  0  0
  182.1560  176.4890  138.0470 N   0  0  0  0  0  0  0  0  0  0  0  0
  181.9550  175.0810  137.6890 C   0  0  1  0  0  3  0  0  0  0  0  0
  180.8070  177.0180  138.2330 C   0  0  0  0  0  2  0  0  0  0  0  0
  179.8320  176.1700  137.4250 C   0  0  0  0  0  2  0  0  0  0  0  0
  179.9010  173.6450  137.3270 C   0  0  0  0  0  2  0  0  0  0  0  0
  180.1590  172.5250  136.3240 C   0  0  0  0  0  2  0  0  0  0  0  0
  182.0290  171.4760  135.8080 C   0  0  0  0  0  1  0  0  0  0  0  0
  181.0990  171.6300  136.8340 O   0  0  0  0  0  0  0  0  0  0  0  0
  1 28  1  0  0  0  0
  2  1  1  1  0  0  0
  2  5  1  0  0  0  0
  2 13  1  0  0  0  0
  3 24  1  0  0  0  0
  4  8  1  0  0  0  0
  4 15  1  1  0  0  0
  5 26  1  6  0  0  0
  5  9  1  0  0  0  0
  5 13  1  0  0  0  0
  7 27  1  0  0  0  0
  8 34  1  6  0  0  0
  8 21  1  0  0  0  0
  9 31  1  6  0  0  0
  9 19  1  0  0  0  0
  9  4  1  0  0  0  0
 10 17  1  1  0  0  0
 11 29  1  0  0  0  0
 11  7  2  0  0  0  0
 13 18  1  6  0  0  0
 15 22  1  0  0  0  0
 16 10  1  0  0  0  0
 16  7  1  0  0  0  0
 19 23  1  0  0  0  0
 20 45  1  1  0  0  0
 20 14  1  0  0  0  0
 21 10  1  0  0  0  0
 22 12  1  6  0  0  0
 23 22  1  0  0  0  0
 25 20  1  0  0  0  0
 27 24  1  0  0  0  0
 27  6  2  0  0  0  0
 28 25  1  0  0  0  0
 29 14  1  1  0  0  0
 29  3  1  0  0  0  0
 30 31  1  0  0  0  0
 32 31  1  0  0  0  0
 33 34  2  0  0  0  0
 35 39  1  0  0  0  0
 35 33  1  1  0  0  0
 35 37  1  0  0  0  0
 36 37  2  0  0  0  0
 37 38  1  0  0  0  0
 39 41  1  0  0  0  0
 39 40  1  1  0  0  0
 41 42  1  6  0  0  0
 41 44  1  0  0  0  0
 44 43  1  0  0  0  0
 45 48  1  0  0  0  0
 46 52  1  1  0  0  0
 46 51  1  0  0  0  0
 46 49  1  0  0  0  0
 48 50  1  0  0  0  0
 49 47  1  6  0  0  0
 49 48  1  0  0  0  0
 51 50  1  0  0  0  0
 53 55  1  0  0  0  0
 53 52  1  0  0  0  0
 54 55  1  0  0  0  0
M  END
>  <MODEL>
2

>  <REMARK>
 VINA RESULT:       2.3      3.320      7.533
  Name = 
  12 active torsions:
  status: ('A' for Active; 'I' for Inactive)
    1  A    between atoms: C_1  and  C_10
    2  A    between atoms: C_10  and  C_44
    3  A    between atoms: C_11  and  C_15
    4  A    between atoms: C_11  and  C_16
    5  A    between atoms: N_12  and  C_14
    6  A    between atoms: C_13  and  C_24
    7  A    between atoms: C_14  and  C_40
    8  A    between atoms: C_16  and  C_27
    9  A    between atoms: C_19  and  C_27
   10  A    between atoms: O_20  and  C_44
   11  A    between atoms: C_23  and  C_35
   12  A    between atoms: C_27  and  C_28
                            x       y       z     vdW  Elec       q    Type
                         _______ _______ _______ _____ _____    ______ ____

>  <TORSDO>
F 12

$$$$
=
 OpenBabel11062415083D

 55 59  0  0  1  0  0  0  0  0999 V2000
  186.6650  177.8250  135.6050 C   0  0  0  0  0  2  0  0  0  0  0  0
  188.0500  178.4380  135.8120 C   0  0  2  0  0  3  0  0  0  0  0  0
  185.8090  179.0590  142.3040 C   0  0  0  0  0  2  0  0  0  0  0  0
  190.0410  175.2470  137.2470 C   0  0  2  0  0  3  0  0  0  0  0  0
  189.1780  177.4410  136.1170 C   0  0  2  0  0  0  0  0  0  0  0  0
  189.3570  179.3140  143.1040 O   0  0  0  0  0  0  0  0  0  0  0  0
  188.3560  178.3620  141.1620 C   0  0  0  0  0  0  0  0  0  0  0  0
  190.5870  176.2120  138.3240 C   0  0  1  0  0  3  0  0  0  0  0  0
  189.0250  175.8800  136.2170 C   0  0  2  0  0  0  0  0  0  0  0  0
  189.4100  176.2180  140.3820 C   0  0  2  0  0  3  0  0  0  0  0  0
  187.2540  178.3300  140.3950 C   0  0  0  0  0  3  0  0  0  0  0  0
  187.3390  172.9590  138.0390 F   0  0  0  0  0  0  0  0  0  0  0  0
  188.5430  178.2500  137.2470 C   0  0  1  0  0  3  0  0  0  0  0  0
  184.7640  178.4280  140.1360 C   0  0  0  0  0  2  0  0  0  0  0  0
  189.5090  173.9130  137.7900 C   0  0  0  0  0  2  0  0  0  0  0  0
  189.6210  177.6930  140.7160 C   0  0  0  0  0  2  0  0  0  0  0  0
  189.1700  175.4240  141.6530 C   0  0  0  0  0  1  0  0  0  0  0  0
  189.3650  179.4650  137.6490 C   0  0  0  0  0  1  0  0  0  0  0  0
  187.6750  175.4910  136.4770 O   0  0  0  0  0  0  0  0  0  0  0  0
  184.6010  178.8640  138.6820 C   0  0  1  0  0  3  0  0  0  0  0  0
  190.5640  175.6680  139.6830 N   0  0  0  0  0  2  0  0  0  0  0  0
  188.1020  174.0630  138.3720 C   0  0  1  0  0  3  0  0  0  0  0  0
  187.4300  175.3360  137.8590 C   0  0  0  0  0  2  0  0  0  0  0  0
  187.0350  179.5080  142.9570 N   0  0  0  0  0  2  0  0  0  0  0  0
  185.4930  178.0150  137.7920 C   0  0  0  0  0  2  0  0  0  0  0  0
  190.4300  177.9070  135.6970 O   0  0  0  0  0  1  0  0  0  0  0  0
  188.3050  179.0760  142.4500 C   0  0  0  0  0  0  0  0  0  0  0  0
  185.5980  178.5820  136.3860 C   0  0  0  0  0  2  0  0  0  0  0  0
  185.9890  179.0630  140.7850 C   0  0  1  0  0  3  0  0  0  0  0  0
  190.7270  175.1520  134.6110 F   0  0  0  0  0  0  0  0  0  0  0  0
  189.3500  175.2790  134.8290 C   0  0  0  0  0  3  0  0  0  0  0  0
  188.7100  174.0540  134.5970 F   0  0  0  0  0  0  0  0  0  0  0  0
  192.8690  175.7230  137.5530 C   0  0  0  0  0  3  0  0  0  0  0  0
  191.9750  176.6220  137.9600 C   0  0  0  0  0  3  0  0  0  0  0  0
  194.2630  176.1550  137.2180 C   0  0  1  0  0  3  0  0  0  0  0  0
  195.4810  175.4730  139.1770 O   0  0  0  0  0  1  0  0  0  0  0  0
  195.2310  175.2790  137.9550 C   0  0  0  0  0  0  0  0  0  0  0  0
  195.9070  174.2760  137.2640 O   0  0  0  0  0  0  0  0  0  0  0  0
  194.5410  176.1550  135.7010 C   0  0  1  0  0  3  0  0  0  0  0  0
  193.4800  176.7610  135.0180 O   0  0  0  0  0  1  0  0  0  0  0  0
  195.8380  176.9110  135.3810 C   0  0  1  0  0  3  0  0  0  0  0  0
  196.7160  176.1080  134.6330 O   0  0  0  0  0  1  0  0  0  0  0  0
  196.6850  179.1560  134.7320 C   0  0  0  0  0  1  0  0  0  0  0  0
  195.5310  178.1780  134.5950 C   0  0  0  0  0  2  0  0  0  0  0  0
  183.1470  178.6810  138.2570 C   0  0  0  0  0  2  0  0  0  0  0  0
  180.6400  180.3570  137.4800 C   0  0  2  0  0  3  0  0  0  0  0  0
  180.5530  178.0680  138.2300 O   0  0  0  0  0  1  0  0  0  0  0  0
  182.2580  179.5160  139.0640 N   0  0  0  0  0  0  0  0  0  0  0  0
  180.8690  179.3780  138.6130 C   0  0  1  0  0  3  0  0  0  0  0  0
  182.6020  180.9080  138.7770 C   0  0  0  0  0  2  0  0  0  0  0  0
  181.7080  181.4110  137.6500 C   0  0  0  0  0  2  0  0  0  0  0  0
  179.2260  180.9530  137.5020 C   0  0  0  0  0  2  0  0  0  0  0  0
  178.9470  181.9170  136.3530 C   0  0  0  0  0  2  0  0  0  0  0  0
  180.2990  183.1640  135.1360 C   0  0  0  0  0  1  0  0  0  0  0  0
  179.8030  183.0150  136.4290 O   0  0  0  0  0  0  0  0  0  0  0  0
  1 28  1  0  0  0  0
  2  1  1  1  0  0  0
  2  5  1  0  0  0  0
  2 13  1  0  0  0  0
  3 24  1  0  0  0  0
  4 15  1  1  0  0  0
  4  8  1  0  0  0  0
  5 26  1  6  0  0  0
  5  9  1  0  0  0  0
  5 13  1  0  0  0  0
  7 27  1  0  0  0  0
  8 34  1  6  0  0  0
  8 21  1  0  0  0  0
  9 31  1  6  0  0  0
  9 19  1  0  0  0  0
  9  4  1  0  0  0  0
 10 16  1  0  0  0  0
 10 17  1  1  0  0  0
 11 29  1  0  0  0  0
 11  7  2  0  0  0  0
 13 18  1  6  0  0  0
 15 22  1  0  0  0  0
 16  7  1  0  0  0  0
 19 23  1  0  0  0  0
 20 45  1  6  0  0  0
 20 14  1  0  0  0  0
 21 10  1  0  0  0  0
 22 12  1  6  0  0  0
 23 22  1  0  0  0  0
 25 20  1  0  0  0  0
 27 24  1  0  0  0  0
 27  6  2  0  0  0  0
 28 25  1  0  0  0  0
 29 14  1  6  0  0  0
 29  3  1  0  0  0  0
 30 31  1  0  0  0  0
 32 31  1  0  0  0  0
 33 34  2  0  0  0  0
 35 33  1  6  0  0  0
 35 37  1  0  0  0  0
 37 36  1  0  0  0  0
 38 37  2  0  0  0  0
 39 40  1  6  0  0  0
 39 35  1  0  0  0  0
 41 42  1  6  0  0  0
 41 39  1  0  0  0  0
 44 43  1  0  0  0  0
 44 41  1  0  0  0  0
 45 48  1  0  0  0  0
 46 52  1  1  0  0  0
 46 51  1  0  0  0  0
 46 49  1  0  0  0  0
 49 47  1  6  0  0  0
 49 48  1  0  0  0  0
 50 48  1  0  0  0  0
 51 50  1  0  0  0  0
 53 55  1  0  0  0  0
 53 52  1  0  0  0  0
 54 55  1  0  0  0  0
M  END
>  <MODEL>
3

>  <REMARK>
 VINA RESULT:       3.1      3.960      7.721
  Name = 
  12 active torsions:
  status: ('A' for Active; 'I' for Inactive)
    1  A    between atoms: C_1  and  C_10
    2  A    between atoms: C_10  and  C_44
    3  A    between atoms: C_11  and  C_15
    4  A    between atoms: C_11  and  C_16
    5  A    between atoms: N_12  and  C_14
    6  A    between atoms: C_13  and  C_24
    7  A    between atoms: C_14  and  C_40
    8  A    between atoms: C_16  and  C_27
    9  A    between atoms: C_19  and  C_27
   10  A    between atoms: O_20  and  C_44
   11  A    between atoms: C_23  and  C_35
   12  A    between atoms: C_27  and  C_28
                            x       y       z     vdW  Elec       q    Type
                         _______ _______ _______ _____ _____    ______ ____

>  <TORSDO>
F 12

$$$$
=
 OpenBabel11062415083D

 55 59  0  0  1  0  0  0  0  0999 V2000
  189.0910  177.3610  140.8540 C   0  0  0  0  0  2  0  0  0  0  0  0
  189.0650  176.0380  140.0870 C   0  0  2  0  0  3  0  0  0  0  0  0
  182.7630  178.2220  138.3360 C   0  0  0  0  0  2  0  0  0  0  0  0
  190.0760  177.3200  136.4080 C   0  0  2  0  0  3  0  0  0  0  0  0
  189.6570  176.0800  138.6720 C   0  0  2  0  0  0  0  0  0  0  0  0
  183.1130  175.8450  135.5950 O   0  0  0  0  0  0  0  0  0  0  0  0
  184.8400  176.8520  136.8930 C   0  0  0  0  0  0  0  0  0  0  0  0
  188.9030  176.4480  135.9040 C   0  0  1  0  0  3  0  0  0  0  0  0
  190.2860  177.3400  137.9730 C   0  0  2  0  0  0  0  0  0  0  0  0
  186.8500  177.5870  135.5760 C   0  0  2  0  0  3  0  0  0  0  0  0
  185.1300  177.4620  138.0530 C   0  0  0  0  0  3  0  0  0  0  0  0
  189.6840  180.9120  136.7200 F   0  0  0  0  0  0  0  0  0  0  0  0
  188.1430  176.1080  138.8700 C   0  0  1  0  0  3  0  0  0  0  0  0
  184.5040  178.9830  139.9440 C   0  0  0  0  0  2  0  0  0  0  0  0
  190.1120  178.7430  135.8320 C   0  0  0  0  0  2  0  0  0  0  0  0
  185.9290  176.4290  135.9540 C   0  0  0  0  0  2  0  0  0  0  0  0
  186.1240  178.5530  134.6590 C   0  0  0  0  0  1  0  0  0  0  0  0
  187.4870  174.7510  138.6680 C   0  0  0  0  0  1  0  0  0  0  0  0
  189.8330  178.5590  138.5650 O   0  0  0  0  0  0  0  0  0  0  0  0
  185.4250  178.5100  141.0660 C   0  0  1  0  0  3  0  0  0  0  0  0
  188.0530  177.1040  134.9090 N   0  0  0  0  0  2  0  0  0  0  0  0
  189.1190  179.6620  136.5450 C   0  0  1  0  0  3  0  0  0  0  0  0
  188.7050  179.0820  137.8970 C   0  0  0  0  0  2  0  0  0  0  0  0
  182.4020  177.2040  137.3540 N   0  0  0  0  0  2  0  0  0  0  0  0
  186.8460  178.3850  140.5400 C   0  0  0  0  0  2  0  0  0  0  0  0
  190.1710  174.8400  138.2720 O   0  0  0  0  0  1  0  0  0  0  0  0
  183.4270  176.5940  136.5590 C   0  0  0  0  0  0  0  0  0  0  0  0
  187.7490  177.6490  141.5160 C   0  0  0  0  0  2  0  0  0  0  0  0
  184.0550  177.8280  139.0530 C   0  0  1  0  0  3  0  0  0  0  0  0
  192.1310  176.8780  139.5180 F   0  0  0  0  0  0  0  0  0  0  0  0
  191.8110  177.3170  138.2280 C   0  0  0  0  0  3  0  0  0  0  0  0
  192.5160  176.5680  137.2760 F   0  0  0  0  0  0  0  0  0  0  0  0
  188.7340  174.0430  135.4220 C   0  0  0  0  0  3  0  0  0  0  0  0
  189.4420  175.1690  135.3530 C   0  0  0  0  0  3  0  0  0  0  0  0
  189.3070  172.7680  134.8850 C   0  0  1  0  0  3  0  0  0  0  0  0
  191.5190  171.8670  134.5960 O   0  0  0  0  0  0  0  0  0  0  0  0
  190.8010  172.8220  135.0020 C   0  0  0  0  0  0  0  0  0  0  0  0
  191.3970  173.9180  135.6220 O   0  0  0  0  0  1  0  0  0  0  0  0
  188.7310  171.5160  135.5760 C   0  0  1  0  0  3  0  0  0  0  0  0
  188.3080  171.8330  136.8720 O   0  0  0  0  0  1  0  0  0  0  0  0
  187.5410  170.9520  134.7870 C   0  0  1  0  0  3  0  0  0  0  0  0
  187.1070  169.7330  135.3350 O   0  0  0  0  0  1  0  0  0  0  0  0
  185.1710  171.3050  135.4490 C   0  0  0  0  0  1  0  0  0  0  0  0
  186.3840  171.9420  134.7950 C   0  0  0  0  0  2  0  0  0  0  0  0
  185.3990  179.5240  142.2050 C   0  0  0  0  0  2  0  0  0  0  0  0
  185.9950  178.7850  145.1700 C   0  0  2  0  0  3  0  0  0  0  0  0
  185.3640  180.9900  144.4310 O   0  0  0  0  0  1  0  0  0  0  0  0
  184.5170  179.0760  143.2830 N   0  0  0  0  0  0  0  0  0  0  0  0
  184.9240  179.6670  144.5620 C   0  0  1  0  0  3  0  0  0  0  0  0
  184.7420  177.6420  143.4510 C   0  0  0  0  0  2  0  0  0  0  0  0
  185.8090  177.4350  144.5200 C   0  0  0  0  0  2  0  0  0  0  0  0
  185.8900  178.7130  146.6990 C   0  0  0  0  0  2  0  0  0  0  0  0
  187.0670  178.0030  147.3640 C   0  0  0  0  0  2  0  0  0  0  0  0
  189.0930  177.2080  147.0130 C   0  0  0  0  0  1  0  0  0  0  0  0
  188.2390  178.2470  146.6490 O   0  0  0  0  0  0  0  0  0  0  0  0
  1 28  1  0  0  0  0
  2  1  1  1  0  0  0
  3 29  1  0  0  0  0
  4 15  1  1  0  0  0
  4  9  1  0  0  0  0
  5 26  1  6  0  0  0
  5 13  1  0  0  0  0
  5  2  1  0  0  0  0
  6 27  2  0  0  0  0
  7 11  2  0  0  0  0
  8 34  1  6  0  0  0
  8  4  1  0  0  0  0
  9 31  1  1  0  0  0
  9 19  1  0  0  0  0
  9  5  1  0  0  0  0
 10 17  1  6  0  0  0
 10 16  1  0  0  0  0
 13 18  1  6  0  0  0
 13  2  1  0  0  0  0
 14 20  1  0  0  0  0
 15 22  1  0  0  0  0
 16  7  1  0  0  0  0
 20 45  1  1  0  0  0
 21 10  1  0  0  0  0
 21  8  1  0  0  0  0
 22 12  1  1  0  0  0
 22 23  1  0  0  0  0
 23 19  1  0  0  0  0
 24  3  1  0  0  0  0
 25 20  1  0  0  0  0
 25 28  1  0  0  0  0
 27  7  1  0  0  0  0
 27 24  1  0  0  0  0
 29 11  1  6  0  0  0
 29 14  1  0  0  0  0
 31 30  1  0  0  0  0
 32 31  1  0  0  0  0
 34 33  2  0  0  0  0
 35 37  1  0  0  0  0
 35 33  1  1  0  0  0
 35 39  1  0  0  0  0
 36 37  2  0  0  0  0
 37 38  1  0  0  0  0
 39 40  1  1  0  0  0
 41 44  1  0  0  0  0
 41 42  1  1  0  0  0
 41 39  1  0  0  0  0
 44 43  1  0  0  0  0
 45 48  1  0  0  0  0
 46 52  1  1  0  0  0
 48 50  1  0  0  0  0
 48 49  1  0  0  0  0
 49 47  1  6  0  0  0
 49 46  1  0  0  0  0
 50 51  1  0  0  0  0
 51 46  1  0  0  0  0
 52 53  1  0  0  0  0
 55 54  1  0  0  0  0
 55 53  1  0  0  0  0
M  END
>  <MODEL>
4

>  <REMARK>
 VINA RESULT:       3.4      1.497      1.889
  Name = 
  12 active torsions:
  status: ('A' for Active; 'I' for Inactive)
    1  A    between atoms: C_1  and  C_10
    2  A    between atoms: C_10  and  C_44
    3  A    between atoms: C_11  and  C_15
    4  A    between atoms: C_11  and  C_16
    5  A    between atoms: N_12  and  C_14
    6  A    between atoms: C_13  and  C_24
    7  A    between atoms: C_14  and  C_40
    8  A    between atoms: C_16  and  C_27
    9  A    between atoms: C_19  and  C_27
   10  A    between atoms: O_20  and  C_44
   11  A    between atoms: C_23  and  C_35
   12  A    between atoms: C_27  and  C_28
                            x       y       z     vdW  Elec       q    Type
                         _______ _______ _______ _____ _____    ______ ____

>  <TORSDO>
F 12

$$$$
=
 OpenBabel11062415083D

 55 59  0  0  1  0  0  0  0  0999 V2000
  187.3660  177.3230  135.2290 C   0  0  0  0  0  2  0  0  0  0  0  0
  188.7300  177.9740  135.4650 C   0  0  2  0  0  3  0  0  0  0  0  0
  186.1500  178.9680  141.7820 C   0  0  0  0  0  2  0  0  0  0  0  0
  190.6930  174.9200  137.2020 C   0  0  2  0  0  3  0  0  0  0  0  0
  189.8550  177.0200  135.8910 C   0  0  2  0  0  0  0  0  0  0  0  0
  189.6470  179.3410  142.7410 O   0  0  0  0  0  0  0  0  0  0  0  0
  188.7620  178.2470  140.8170 C   0  0  0  0  0  0  0  0  0  0  0  0
  191.1680  175.9620  138.2410 C   0  0  1  0  0  3  0  0  0  0  0  0
  189.7220  175.4660  136.0840 C   0  0  2  0  0  0  0  0  0  0  0  0
  189.8870  176.0780  140.2320 C   0  0  2  0  0  3  0  0  0  0  0  0
  187.7020  178.1460  140.0000 C   0  0  0  0  0  3  0  0  0  0  0  0
  187.9910  172.6370  138.0050 F   0  0  0  0  0  0  0  0  0  0  0  0
  189.1510  177.8880  136.9320 C   0  0  1  0  0  3  0  0  0  0  0  0
  185.2260  178.1790  139.6100 C   0  0  0  0  0  2  0  0  0  0  0  0
  190.1550  173.6130  137.8030 C   0  0  0  0  0  2  0  0  0  0  0  0
  190.0590  177.5750  140.4800 C   0  0  0  0  0  2  0  0  0  0  0  0
  189.5960  175.3630  141.5380 C   0  0  0  0  0  1  0  0  0  0  0  0
  189.9330  179.1410  137.2950 C   0  0  0  0  0  1  0  0  0  0  0  0
  188.3660  175.0700  136.3010 O   0  0  0  0  0  0  0  0  0  0  0  0
  185.1310  178.5190  138.1250 C   0  0  1  0  0  3  0  0  0  0  0  0
  191.0850  175.5060  139.6290 N   0  0  0  0  0  2  0  0  0  0  0  0
  188.7180  173.7740  138.3030 C   0  0  1  0  0  3  0  0  0  0  0  0
  188.0530  174.9990  137.6760 C   0  0  0  0  0  2  0  0  0  0  0  0
  187.3340  179.4810  142.4650 N   0  0  0  0  0  2  0  0  0  0  0  0
  186.0810  177.6310  137.3370 C   0  0  0  0  0  2  0  0  0  0  0  0
  191.1190  177.4820  135.5040 O   0  0  0  0  0  1  0  0  0  0  0  0
  188.6340  179.0410  142.0520 C   0  0  0  0  0  0  0  0  0  0  0  0
  186.2490  178.1090  135.9050 C   0  0  0  0  0  2  0  0  0  0  0  0
  186.4070  178.8780  140.2780 C   0  0  1  0  0  3  0  0  0  0  0  0
  191.5150  174.7110  134.5940 F   0  0  0  0  0  0  0  0  0  0  0  0
  190.1270  174.7840  134.7560 C   0  0  0  0  0  3  0  0  0  0  0  0
  189.5560  173.5140  134.5940 F   0  0  0  0  0  0  0  0  0  0  0  0
  193.4970  175.4660  137.6270 C   0  0  0  0  0  3  0  0  0  0  0  0
  192.5670  176.3740  137.9200 C   0  0  0  0  0  3  0  0  0  0  0  0
  194.8990  175.9030  137.3340 C   0  0  1  0  0  3  0  0  0  0  0  0
  195.3810  174.5530  139.2670 O   0  0  0  0  0  1  0  0  0  0  0  0
  195.8290  175.2150  138.2880 C   0  0  0  0  0  0  0  0  0  0  0  0
  197.2050  175.3570  138.1240 O   0  0  0  0  0  0  0  0  0  0  0  0
  195.3090  175.6570  135.8690 C   0  0  1  0  0  3  0  0  0  0  0  0
  196.2230  176.6330  135.4540 O   0  0  0  0  0  1  0  0  0  0  0  0
  195.9480  174.2720  135.7020 C   0  0  1  0  0  3  0  0  0  0  0  0
  195.0510  173.3730  135.1010 O   0  0  0  0  0  1  0  0  0  0  0  0
  197.9110  173.0240  134.8260 C   0  0  0  0  0  1  0  0  0  0  0  0
  197.2050  174.3680  134.8490 C   0  0  0  0  0  2  0  0  0  0  0  0
  183.7040  178.2810  137.6410 C   0  0  0  0  0  2  0  0  0  0  0  0
  180.8140  177.1220  137.6370 C   0  0  2  0  0  3  0  0  0  0  0  0
  182.8070  175.7750  137.4880 O   0  0  0  0  0  1  0  0  0  0  0  0
  182.8530  177.8110  138.7340 N   0  0  0  0  0  0  0  0  0  0  0  0
  182.0780  176.6370  138.3170 C   0  0  1  0  0  3  0  0  0  0  0  0
  181.8510  178.8490  138.9710 C   0  0  0  0  0  2  0  0  0  0  0  0
  180.6100  178.5290  138.1460 C   0  0  0  0  0  2  0  0  0  0  0  0
  179.6110  176.2170  137.9340 C   0  0  0  0  0  2  0  0  0  0  0  0
  179.3940  175.9500  139.4200 C   0  0  0  0  0  2  0  0  0  0  0  0
  179.4990  173.9210  138.5630 C   0  0  0  0  0  1  0  0  0  0  0  0
  179.7520  174.6390  139.7300 O   0  0  0  0  0  0  0  0  0  0  0  0
  1 28  1  0  0  0  0
  2  1  1  1  0  0  0
  2  5  1  0  0  0  0
  2 13  1  0  0  0  0
  3 24  1  0  0  0  0
  4 15  1  1  0  0  0
  4  8  1  0  0  0  0
  5 26  1  6  0  0  0
  5  9  1  0  0  0  0
  5 13  1  0  0  0  0
  7 27  1  0  0  0  0
  8 34  1  6  0  0  0
  8 21  1  0  0  0  0
  9 31  1  6  0  0  0
  9 19  1  0  0  0  0
  9  4  1  0  0  0  0
 10 16  1  0  0  0  0
 10 17  1  1  0  0  0
 11 29  1  0  0  0  0
 11  7  2  0  0  0  0
 13 18  1  6  0  0  0
 15 22  1  0  0  0  0
 16  7  1  0  0  0  0
 19 23  1  0  0  0  0
 20 45  1  6  0  0  0
 20 14  1  0  0  0  0
 21 10  1  0  0  0  0
 22 12  1  6  0  0  0
 23 22  1  0  0  0  0
 25 20  1  0  0  0  0
 27 24  1  0  0  0  0
 27  6  2  0  0  0  0
 28 25  1  0  0  0  0
 29 14  1  6  0  0  0
 29  3  1  0  0  0  0
 30 31  1  0  0  0  0
 32 31  1  0  0  0  0
 33 34  2  0  0  0  0
 35 33  1  6  0  0  0
 35 37  1  0  0  0  0
 37 36  1  0  0  0  0
 38 37  2  0  0  0  0
 39 40  1  1  0  0  0
 39 35  1  0  0  0  0
 41 42  1  6  0  0  0
 41 39  1  0  0  0  0
 43 44  1  0  0  0  0
 44 41  1  0  0  0  0
 45 48  1  0  0  0  0
 46 52  1  1  0  0  0
 46 51  1  0  0  0  0
 46 49  1  0  0  0  0
 48 50  1  0  0  0  0
 49 47  1  6  0  0  0
 49 48  1  0  0  0  0
 51 50  1  0  0  0  0
 52 53  1  0  0  0  0
 53 55  1  0  0  0  0
 54 55  1  0  0  0  0
M  END
>  <MODEL>
5

>  <REMARK>
 VINA RESULT:       3.4      3.832      7.553
  Name = 
  12 active torsions:
  status: ('A' for Active; 'I' for Inactive)
    1  A    between atoms: C_1  and  C_10
    2  A    between atoms: C_10  and  C_44
    3  A    between atoms: C_11  and  C_15
    4  A    between atoms: C_11  and  C_16
    5  A    between atoms: N_12  and  C_14
    6  A    between atoms: C_13  and  C_24
    7  A    between atoms: C_14  and  C_40
    8  A    between atoms: C_16  and  C_27
    9  A    between atoms: C_19  and  C_27
   10  A    between atoms: O_20  and  C_44
   11  A    between atoms: C_23  and  C_35
   12  A    between atoms: C_27  and  C_28
                            x       y       z     vdW  Elec       q    Type
                         _______ _______ _______ _____ _____    ______ ____

>  <TORSDO>
F 12

$$$$
