=
 OpenBabel11062416383D

 62 66  0  0  1  0  0  0  0  0999 V2000
  186.4590  177.9260  143.5930 C   0  0  2  0  0  0  0  0  0  0  0  0
  187.0450  176.7050  142.8550 C   0  0  0  0  0  2  0  0  0  0  0  0
  187.9540  177.6500  143.5090 C   0  0  1  0  0  3  0  0  0  0  0  0
  184.2250  178.2240  146.4010 F   0  0  0  0  0  0  0  0  0  0  0  0
  185.3840  178.8420  145.9060 C   0  0  0  0  0  0  0  0  0  0  0  0
  187.2270  177.8270  146.1140 C   0  0  0  0  0  2  0  0  0  0  0  0
  186.4520  178.8000  146.9960 C   0  0  0  0  0  2  0  0  0  0  0  0
  185.2130  180.0980  145.3290 F   0  0  0  0  0  0  0  0  0  0  0  0
  186.1510  177.8120  145.0940 C   0  0  2  0  0  3  0  0  0  0  0  0
  186.3090  179.1790  142.9860 O   0  0  0  0  0  0  0  0  0  0  0  0
  183.6260  177.8770  141.0480 C   0  0  0  0  0  2  0  0  0  0  0  0
  185.4370  178.2080  139.4510 C   0  0  0  0  0  1  0  0  0  0  0  0
  184.3120  177.8130  142.4010 C   0  0  0  0  0  2  0  0  0  0  0  0
  185.1200  179.7550  141.2540 O   0  0  0  0  0  0  0  0  0  0  0  0
  185.0260  179.1170  142.4180 N   0  0  0  0  0  0  0  0  0  0  0  0
  184.4360  178.9520  140.2690 C   0  0  2  0  0  0  0  0  0  0  0  0
  183.7640  179.8500  139.1240 C   0  0  0  0  0  2  0  0  0  0  0  0
  181.4340  179.6270  140.0220 C   0  0  0  0  0  2  0  0  0  0  0  0
  182.2600  179.7710  138.7680 C   0  0  1  0  0  0  0  0  0  0  0  0
  181.7030  180.9450  138.0630 C   0  0  0  0  0  2  0  0  0  0  0  0
  180.8240  181.6990  138.9320 N   0  0  0  0  0  0  0  0  0  0  0  0
  180.3730  180.6960  139.9410 C   0  0  0  0  0  2  0  0  0  0  0  0
  181.4150  184.0700  137.6270 O   0  0  0  0  0  0  0  0  0  0  0  0
  179.8850  182.3940  138.1420 N   0  0  0  0  0  2  0  0  0  0  0  0
  180.2720  183.6060  137.4780 C   0  0  0  0  0  0  0  0  0  0  0  0
  179.3050  184.2350  136.6470 N   0  0  0  0  0  2  0  0  0  0  0  0
  179.5560  184.4460  135.2310 C   0  0  0  0  0  2  0  0  0  0  0  0
  180.1340  183.1800  134.5940 C   0  0  0  0  0  1  0  0  0  0  0  0
  182.0530  178.7070  137.8070 N   0  0  0  0  0  2  0  0  0  0  0  0
  181.6150  176.6330  139.1380 C   0  0  0  0  0  3  0  0  0  0  0  0
  179.5590  175.9670  137.4210 C   0  0  0  0  0  3  0  0  0  0  0  0
  180.1010  175.0160  138.2810 C   0  0  0  0  0  0  0  0  0  0  0  0
  181.0270  175.3360  139.2130 C   0  0  0  0  0  3  0  0  0  0  0  0
  181.2460  177.5240  138.1430 C   0  0  0  0  0  0  0  0  0  0  0  0
  179.5460  173.3800  138.2250 Cl  0  0  0  0  0  0  0  0  0  0  0  0
  180.0740  177.2910  137.3840 C   0  0  0  0  0  0  0  0  0  0  0  0
  178.9740  179.4680  136.8060 O   0  0  0  0  0  1  0  0  0  0  0  0
  179.4900  178.2990  136.3830 C   0  0  0  0  0  0  0  0  0  0  0  0
  179.5680  178.1120  135.1290 O   0  0  0  0  0  0  0  0  0  0  0  0
  188.8220  178.6950  142.3380 S   0  0  0  0  0  0  0  0  0  0  0  0
  190.3590  177.9800  142.8300 C   0  0  2  0  0  3  0  0  0  0  0  0
  193.7940  177.6110  139.5370 O   0  0  0  0  0  0  0  0  0  0  0  0
  192.6410  177.2920  139.8750 C   0  0  0  0  0  0  0  0  0  0  0  0
  189.9460  176.5160  141.0220 O   0  0  0  0  0  0  0  0  0  0  0  0
  190.8160  177.2350  141.6530 C   0  0  0  0  0  0  0  0  0  0  0  0
  192.1940  177.3210  141.2520 N   0  0  0  0  0  2  0  0  0  0  0  0
  191.7030  176.8420  138.8760 C   0  0  0  0  0  2  0  0  0  0  0  0
  192.4080  176.2470  137.7020 C   0  0  0  0  0  2  0  0  0  0  0  0
  192.2760  174.7800  137.7720 C   0  0  0  0  0  0  0  0  0  0  0  0
  193.3140  174.0400  137.6770 O   0  0  0  0  0  0  0  0  0  0  0  0
  190.9700  174.2560  137.7330 N   0  0  0  0  0  2  0  0  0  0  0  0
  190.2910  174.2590  136.4420 C   0  0  0  0  0  2  0  0  0  0  0  0
  187.9430  174.7670  136.9880 C   0  0  0  0  0  1  0  0  0  0  0  0
  189.2440  175.2730  136.4900 C   0  0  2  0  0  3  0  0  0  0  0  0
  188.8440  177.7560  135.5510 C   0  0  0  0  0  1  0  0  0  0  0  0
  189.3190  176.2970  135.3270 C   0  0  1  0  0  3  0  0  0  0  0  0
  190.5290  176.1410  134.6960 O   0  0  0  0  0  1  0  0  0  0  0  0
  190.0950  177.0930  144.0500 C   0  0  0  0  0  2  0  0  0  0  0  0
  192.0930  178.0860  144.8580 F   0  0  0  0  0  0  0  0  0  0  0  0
  191.3570  176.9090  144.8980 C   0  0  0  0  0  0  0  0  0  0  0  0
  192.1000  175.7830  144.4640 F   0  0  0  0  0  0  0  0  0  0  0  0
  191.0290  176.8390  146.2220 F   0  0  0  0  0  0  0  0  0  0  0  0
  1 10  1  6  0  0  0
  1  9  1  0  0  0  0
  2  3  1  0  0  0  0
  2  1  1  0  0  0  0
  3 40  1  6  0  0  0
  3  1  1  0  0  0  0
  5  4  1  0  0  0  0
  5  7  1  0  0  0  0
  6  7  1  0  0  0  0
  8  5  1  0  0  0  0
  9  5  1  0  0  0  0
  9  6  1  1  0  0  0
 11 13  1  0  0  0  0
 13 15  1  0  0  0  0
 14 15  1  0  0  0  0
 15 10  1  0  0  0  0
 16 12  1  6  0  0  0
 16 11  1  0  0  0  0
 16 14  1  0  0  0  0
 17 16  1  0  0  0  0
 19 17  1  1  0  0  0
 19 18  1  0  0  0  0
 20 19  1  0  0  0  0
 20 21  1  0  0  0  0
 21 22  1  0  0  0  0
 22 18  1  0  0  0  0
 24 21  1  0  0  0  0
 25 23  2  0  0  0  0
 25 24  1  0  0  0  0
 26 25  1  0  0  0  0
 27 26  1  0  0  0  0
 28 27  1  0  0  0  0
 29 34  1  0  0  0  0
 29 19  1  0  0  0  0
 30 33  1  0  0  0  0
 31 32  1  0  0  0  0
 32 33  2  0  0  0  0
 34 30  2  0  0  0  0
 35 32  1  0  0  0  0
 36 31  2  0  0  0  0
 36 34  1  0  0  0  0
 38 37  1  0  0  0  0
 38 36  1  0  0  0  0
 39 38  2  0  0  0  0
 40 41  1  0  0  0  0
 41 58  1  1  0  0  0
 42 43  2  0  0  0  0
 43 46  1  0  0  0  0
 44 45  2  0  0  0  0
 45 41  1  0  0  0  0
 46 45  1  0  0  0  0
 47 43  1  0  0  0  0
 48 49  1  0  0  0  0
 48 47  1  0  0  0  0
 50 49  2  0  0  0  0
 51 49  1  0  0  0  0
 52 54  1  0  0  0  0
 52 51  1  0  0  0  0
 54 53  1  6  0  0  0
 56 55  1  1  0  0  0
 56 54  1  0  0  0  0
 57 56  1  0  0  0  0
 58 60  1  0  0  0  0
 59 60  1  0  0  0  0
 60 62  1  0  0  0  0
 61 60  1  0  0  0  0
M  END
>  <MODEL>
1

>  <REMARK>
 VINA RESULT:      -7.2      0.000      0.000
  Name = 
  21 active torsions:
  status: ('A' for Active; 'I' for Inactive)
    1  A    between atoms: C_4  and  C_58
    2  A    between atoms: C_5  and  N_44
    3  A    between atoms: C_7  and  C_56
    4  A    between atoms: C_9  and  C_48
    5  A    between atoms: C_13  and  N_24
    6  A    between atoms: C_13  and  C_33
    7  A    between atoms: C_16  and  C_23
    8  A    between atoms: C_16  and  N_36
    9  A    between atoms: C_23  and  C_55
   10  A    between atoms: N_24  and  C_40
   11  A    between atoms: N_27  and  N_35
   12  A    between atoms: C_29  and  O_30
   13  A    between atoms: C_29  and  C_54
   14  A    between atoms: O_30  and  N_52
   15  A    between atoms: C_31  and  C_39
   16  A    between atoms: C_31  and  C_48
   17  A    between atoms: C_31  and  S_62
   18  A    between atoms: C_33  and  C_59
   19  A    between atoms: C_47  and  C_51
   20  A    between atoms: C_53  and  S_62
   21  A    between atoms: C_56  and  C_58
                            x       y       z     vdW  Elec       q    Type
                         _______ _______ _______ _____ _____    ______ ____

>  <TORSDO>
F 21

$$$$
=
 OpenBabel11062416383D

 62 66  0  0  1  0  0  0  0  0999 V2000
  185.9670  178.4420  143.2450 C   0  0  2  0  0  0  0  0  0  0  0  0
  186.5580  177.0340  143.0350 C   0  0  0  0  0  2  0  0  0  0  0  0
  187.4610  178.1590  143.2920 C   0  0  1  0  0  3  0  0  0  0  0  0
  186.8750  178.9970  146.6860 F   0  0  0  0  0  0  0  0  0  0  0  0
  186.0250  178.1630  145.9410 C   0  0  0  0  0  0  0  0  0  0  0  0
  184.2420  178.9900  145.1630 C   0  0  0  0  0  2  0  0  0  0  0  0
  184.6060  178.3180  146.4830 C   0  0  0  0  0  2  0  0  0  0  0  0
  186.4340  176.8400  145.7940 F   0  0  0  0  0  0  0  0  0  0  0  0
  185.6380  178.9070  144.6730 C   0  0  2  0  0  3  0  0  0  0  0  0
  185.8270  179.3700  142.2060 O   0  0  0  0  0  0  0  0  0  0  0  0
  183.2850  177.5860  140.4710 C   0  0  0  0  0  2  0  0  0  0  0  0
  184.9920  178.0230  138.7870 C   0  0  0  0  0  1  0  0  0  0  0  0
  184.0120  177.7160  141.7990 C   0  0  0  0  0  2  0  0  0  0  0  0
  184.5250  179.6520  140.4820 O   0  0  0  0  0  0  0  0  0  0  0  0
  184.5490  179.0990  141.6930 N   0  0  0  0  0  0  0  0  0  0  0  0
  183.9240  178.6930  139.5850 C   0  0  2  0  0  0  0  0  0  0  0  0
  183.1080  179.4050  138.4040 C   0  0  0  0  0  2  0  0  0  0  0  0
  181.0910  179.6310  139.8750 C   0  0  0  0  0  2  0  0  0  0  0  0
  181.5750  179.6100  138.4470 C   0  0  1  0  0  0  0  0  0  0  0  0
  181.0770  180.8640  137.8440 C   0  0  0  0  0  2  0  0  0  0  0  0
  180.6050  181.7750  138.8650 N   0  0  0  0  0  0  0  0  0  0  0  0
  180.2580  180.8810  140.0090 C   0  0  0  0  0  2  0  0  0  0  0  0
  181.2520  184.1300  137.5580 O   0  0  0  0  0  0  0  0  0  0  0  0
  179.6360  182.6310  138.3040 N   0  0  0  0  0  2  0  0  0  0  0  0
  180.0500  183.8250  137.6210 C   0  0  0  0  0  0  0  0  0  0  0  0
  179.0350  184.6220  137.0220 N   0  0  0  0  0  2  0  0  0  0  0  0
  179.0370  184.8870  135.5930 C   0  0  0  0  0  2  0  0  0  0  0  0
  179.2250  183.5890  134.8050 C   0  0  0  0  0  1  0  0  0  0  0  0
  180.9370  178.6000  137.6290 N   0  0  0  0  0  2  0  0  0  0  0  0
  182.6330  177.5020  136.1510 C   0  0  0  0  0  3  0  0  0  0  0  0
  181.7620  175.0230  136.9960 C   0  0  0  0  0  3  0  0  0  0  0  0
  182.5430  175.1470  135.8500 C   0  0  0  0  0  0  0  0  0  0  0  0
  183.0810  176.3300  135.4740 C   0  0  0  0  0  3  0  0  0  0  0  0
  181.6800  177.4220  137.1550 C   0  0  0  0  0  0  0  0  0  0  0  0
  182.9080  173.7540  134.8940 Cl  0  0  0  0  0  0  0  0  0  0  0  0
  181.3690  176.1700  137.7360 C   0  0  0  0  0  0  0  0  0  0  0  0
  179.2500  176.5860  139.0100 O   0  0  0  0  0  0  0  0  0  0  0  0
  180.4610  176.0000  138.9640 C   0  0  0  0  0  0  0  0  0  0  0  0
  180.7750  175.2240  139.9200 O   0  0  0  0  0  1  0  0  0  0  0  0
  188.3470  178.6820  141.8240 S   0  0  0  0  0  0  0  0  0  0  0  0
  189.8770  178.2250  142.5760 C   0  0  2  0  0  3  0  0  0  0  0  0
  193.6390  177.6130  139.7020 O   0  0  0  0  0  0  0  0  0  0  0  0
  192.4910  177.2410  140.0040 C   0  0  0  0  0  0  0  0  0  0  0  0
  189.7770  176.4110  141.0640 O   0  0  0  0  0  0  0  0  0  0  0  0
  190.5120  177.3250  141.6080 C   0  0  0  0  0  0  0  0  0  0  0  0
  191.9100  177.4810  141.3090 N   0  0  0  0  0  2  0  0  0  0  0  0
  191.7000  176.5140  139.0410 C   0  0  0  0  0  2  0  0  0  0  0  0
  192.5560  175.9380  137.9630 C   0  0  0  0  0  2  0  0  0  0  0  0
  192.0010  174.6280  137.5760 C   0  0  0  0  0  0  0  0  0  0  0  0
  192.7830  173.6830  137.2160 O   0  0  0  0  0  0  0  0  0  0  0  0
  190.6030  174.5490  137.4230 N   0  0  0  0  0  2  0  0  0  0  0  0
  190.0310  175.1500  136.2250 C   0  0  0  0  0  2  0  0  0  0  0  0
  188.3780  176.2070  137.7160 C   0  0  0  0  0  1  0  0  0  0  0  0
  188.6210  175.4150  136.4860 C   0  0  2  0  0  3  0  0  0  0  0  0
  188.1900  173.1570  135.1010 C   0  0  0  0  0  1  0  0  0  0  0  0
  187.6850  174.2470  136.0810 C   0  0  1  0  0  3  0  0  0  0  0  0
  187.0430  173.8000  137.2110 O   0  0  0  0  0  1  0  0  0  0  0  0
  189.5600  177.5550  143.9160 C   0  0  0  0  0  2  0  0  0  0  0  0
  191.6420  178.4940  144.5590 F   0  0  0  0  0  0  0  0  0  0  0  0
  190.8130  177.4010  144.7810 C   0  0  0  0  0  0  0  0  0  0  0  0
  191.4570  176.1650  144.5270 F   0  0  0  0  0  0  0  0  0  0  0  0
  190.4990  177.5640  146.1000 F   0  0  0  0  0  0  0  0  0  0  0  0
  1 10  1  6  0  0  0
  1  3  1  0  0  0  0
  1  9  1  0  0  0  0
  2  1  1  0  0  0  0
  2  3  1  0  0  0  0
  3 40  1  6  0  0  0
  5  7  1  0  0  0  0
  5  4  1  0  0  0  0
  6  7  1  0  0  0  0
  8  5  1  0  0  0  0
  9  6  1  6  0  0  0
  9  5  1  0  0  0  0
 11 13  1  0  0  0  0
 14 15  1  0  0  0  0
 15 13  1  0  0  0  0
 15 10  1  0  0  0  0
 16 12  1  6  0  0  0
 16 11  1  0  0  0  0
 16 14  1  0  0  0  0
 17 16  1  0  0  0  0
 18 22  1  0  0  0  0
 19 17  1  6  0  0  0
 19 18  1  0  0  0  0
 20 19  1  0  0  0  0
 20 21  1  0  0  0  0
 21 22  1  0  0  0  0
 23 25  2  0  0  0  0
 24 21  1  0  0  0  0
 25 24  1  0  0  0  0
 26 25  1  0  0  0  0
 27 26  1  0  0  0  0
 28 27  1  0  0  0  0
 29 19  1  0  0  0  0
 30 34  1  0  0  0  0
 31 36  1  0  0  0  0
 32 31  2  0  0  0  0
 33 32  1  0  0  0  0
 33 30  2  0  0  0  0
 34 29  1  0  0  0  0
 34 36  2  0  0  0  0
 35 32  1  0  0  0  0
 36 38  1  0  0  0  0
 38 37  2  0  0  0  0
 38 39  1  0  0  0  0
 40 41  1  0  0  0  0
 41 58  1  1  0  0  0
 42 43  2  0  0  0  0
 43 46  1  0  0  0  0
 44 45  2  0  0  0  0
 45 41  1  0  0  0  0
 46 45  1  0  0  0  0
 47 43  1  0  0  0  0
 48 47  1  0  0  0  0
 49 48  1  0  0  0  0
 50 49  2  0  0  0  0
 51 49  1  0  0  0  0
 52 54  1  0  0  0  0
 52 51  1  0  0  0  0
 54 53  1  1  0  0  0
 56 55  1  1  0  0  0
 56 54  1  0  0  0  0
 56 57  1  0  0  0  0
 58 60  1  0  0  0  0
 59 60  1  0  0  0  0
 60 62  1  0  0  0  0
 61 60  1  0  0  0  0
M  END
>  <MODEL>
2

>  <REMARK>
 VINA RESULT:      -7.1      1.688      1.994
  Name = 
  21 active torsions:
  status: ('A' for Active; 'I' for Inactive)
    1  A    between atoms: C_4  and  C_58
    2  A    between atoms: C_5  and  N_44
    3  A    between atoms: C_7  and  C_56
    4  A    between atoms: C_9  and  C_48
    5  A    between atoms: C_13  and  N_24
    6  A    between atoms: C_13  and  C_33
    7  A    between atoms: C_16  and  C_23
    8  A    between atoms: C_16  and  N_36
    9  A    between atoms: C_23  and  C_55
   10  A    between atoms: N_24  and  C_40
   11  A    between atoms: N_27  and  N_35
   12  A    between atoms: C_29  and  O_30
   13  A    between atoms: C_29  and  C_54
   14  A    between atoms: O_30  and  N_52
   15  A    between atoms: C_31  and  C_39
   16  A    between atoms: C_31  and  C_48
   17  A    between atoms: C_31  and  S_62
   18  A    between atoms: C_33  and  C_59
   19  A    between atoms: C_47  and  C_51
   20  A    between atoms: C_53  and  S_62
   21  A    between atoms: C_56  and  C_58
                            x       y       z     vdW  Elec       q    Type
                         _______ _______ _______ _____ _____    ______ ____

>  <TORSDO>
F 21

$$$$
=
 OpenBabel11062416383D

 62 66  0  0  1  0  0  0  0  0999 V2000
  187.7920  175.2410  135.8130 C   0  0  2  0  0  0  0  0  0  0  0  0
  188.2560  176.0620  134.5940 C   0  0  0  0  0  2  0  0  0  0  0  0
  189.2240  175.7290  135.6420 C   0  0  1  0  0  3  0  0  0  0  0  0
  186.6190  171.9840  134.8160 F   0  0  0  0  0  0  0  0  0  0  0  0
  186.7790  172.7330  135.9940 C   0  0  0  0  0  0  0  0  0  0  0  0
  188.7300  172.9700  136.7720 C   0  0  0  0  0  2  0  0  0  0  0  0
  187.6370  171.9230  136.9630 C   0  0  0  0  0  2  0  0  0  0  0  0
  185.6140  173.2450  136.5610 F   0  0  0  0  0  0  0  0  0  0  0  0
  187.9220  173.7100  135.7730 C   0  0  2  0  0  3  0  0  0  0  0  0
  187.3700  175.8310  137.0100 O   0  0  0  0  0  0  0  0  0  0  0  0
  184.3630  177.4620  136.0370 C   0  0  0  0  0  2  0  0  0  0  0  0
  185.3680  178.9520  137.6830 C   0  0  0  0  0  1  0  0  0  0  0  0
  185.5120  176.6020  135.5430 C   0  0  0  0  0  2  0  0  0  0  0  0
  185.5450  176.5750  137.9390 O   0  0  0  0  0  0  0  0  0  0  0  0
  185.9900  176.0080  136.8200 N   0  0  0  0  0  0  0  0  0  0  0  0
  184.6580  177.6470  137.5520 C   0  0  2  0  0  0  0  0  0  0  0  0
  183.4840  177.8680  138.6200 C   0  0  0  0  0  2  0  0  0  0  0  0
  181.1760  177.5130  137.7070 C   0  0  0  0  0  2  0  0  0  0  0  0
  182.2130  176.9860  138.6670 C   0  0  1  0  0  0  0  0  0  0  0  0
  182.4010  175.5660  138.3030 C   0  0  0  0  0  2  0  0  0  0  0  0
  181.8010  175.2810  137.0160 N   0  0  0  0  0  0  0  0  0  0  0  0
  180.7520  176.3320  136.8700 C   0  0  0  0  0  2  0  0  0  0  0  0
  182.1550  173.7260  134.7510 O   0  0  0  0  0  0  0  0  0  0  0  0
  181.4580  173.9140  136.9640 N   0  0  0  0  0  2  0  0  0  0  0  0
  181.6920  173.1670  135.7600 C   0  0  0  0  0  0  0  0  0  0  0  0
  181.3840  171.7790  135.7800 N   0  0  0  0  0  2  0  0  0  0  0  0
  182.4080  170.7790  135.5240 C   0  0  0  0  0  2  0  0  0  0  0  0
  183.5230  170.8740  136.5680 C   0  0  0  0  0  1  0  0  0  0  0  0
  181.7480  176.8940  140.0360 N   0  0  0  0  0  2  0  0  0  0  0  0
  183.6300  177.9610  141.2950 C   0  0  0  0  0  3  0  0  0  0  0  0
  181.8310  178.9570  143.1360 C   0  0  0  0  0  3  0  0  0  0  0  0
  183.1920  178.9150  143.4260 C   0  0  0  0  0  0  0  0  0  0  0  0
  184.1100  178.5420  142.5060 C   0  0  0  0  0  3  0  0  0  0  0  0
  182.2720  177.7890  141.0790 C   0  0  0  0  0  0  0  0  0  0  0  0
  183.7630  179.4110  144.9800 Cl  0  0  0  0  0  0  0  0  0  0  0  0
  181.3340  178.4590  141.9020 C   0  0  0  0  0  0  0  0  0  0  0  0
  179.1610  177.3280  141.3720 O   0  0  0  0  0  0  0  0  0  0  0  0
  179.8210  178.4700  141.6390 C   0  0  0  0  0  0  0  0  0  0  0  0
  179.1330  179.5300  141.7660 O   0  0  0  0  0  1  0  0  0  0  0  0
  189.6380  177.1380  136.6700 S   0  0  0  0  0  0  0  0  0  0  0  0
  190.7190  176.1280  137.6320 C   0  0  2  0  0  3  0  0  0  0  0  0
  187.7630  178.5620  140.4810 O   0  0  0  0  0  0  0  0  0  0  0  0
  188.7570  177.8170  140.4080 C   0  0  0  0  0  0  0  0  0  0  0  0
  191.0230  175.8570  139.9600 O   0  0  0  0  0  0  0  0  0  0  0  0
  190.2650  176.3080  139.0140 C   0  0  0  0  0  0  0  0  0  0  0  0
  189.0100  176.9630  139.2660 N   0  0  0  0  0  2  0  0  0  0  0  0
  189.6910  177.7640  141.5050 C   0  0  0  0  0  2  0  0  0  0  0  0
  189.2320  178.6090  142.6470 C   0  0  0  0  0  2  0  0  0  0  0  0
  190.2370  178.5260  143.7230 C   0  0  0  0  0  0  0  0  0  0  0  0
  191.4760  178.4040  143.4320 O   0  0  0  0  0  0  0  0  0  0  0  0
  189.7530  178.3770  145.0370 N   0  0  0  0  0  2  0  0  0  0  0  0
  189.2410  177.0640  145.4100 C   0  0  0  0  0  2  0  0  0  0  0  0
  186.9630  177.9620  145.1280 C   0  0  0  0  0  1  0  0  0  0  0  0
  187.9220  177.2510  146.0070 C   0  0  2  0  0  3  0  0  0  0  0  0
  189.2970  177.9300  148.2100 C   0  0  0  0  0  1  0  0  0  0  0  0
  187.9650  177.5150  147.5350 C   0  0  1  0  0  3  0  0  0  0  0  0
  186.8540  178.2490  147.8740 O   0  0  0  0  0  1  0  0  0  0  0  0
  192.1520  176.6130  137.3920 C   0  0  0  0  0  2  0  0  0  0  0  0
  192.3840  174.3010  136.9100 F   0  0  0  0  0  0  0  0  0  0  0  0
  193.1200  175.4430  137.2030 C   0  0  0  0  0  0  0  0  0  0  0  0
  193.9510  175.2820  138.3400 F   0  0  0  0  0  0  0  0  0  0  0  0
  193.8370  175.6050  136.0520 F   0  0  0  0  0  0  0  0  0  0  0  0
  1 10  1  1  0  0  0
  2  3  1  0  0  0  0
  2  1  1  0  0  0  0
  3  1  1  0  0  0  0
  3 40  1  1  0  0  0
  4  5  1  0  0  0  0
  5  8  1  0  0  0  0
  5  7  1  0  0  0  0
  6  7  1  0  0  0  0
  9  1  1  0  0  0  0
  9  5  1  0  0  0  0
  9  6  1  1  0  0  0
 11 16  1  0  0  0  0
 13 11  1  0  0  0  0
 13 15  1  0  0  0  0
 15 10  1  0  0  0  0
 15 14  1  0  0  0  0
 16 12  1  1  0  0  0
 16 14  1  0  0  0  0
 16 17  1  0  0  0  0
 18 19  1  0  0  0  0
 19 17  1  6  0  0  0
 19 29  1  0  0  0  0
 20 19  1  0  0  0  0
 21 20  1  0  0  0  0
 22 21  1  0  0  0  0
 22 18  1  0  0  0  0
 23 25  2  0  0  0  0
 24 21  1  0  0  0  0
 25 26  1  0  0  0  0
 25 24  1  0  0  0  0
 27 26  1  0  0  0  0
 27 28  1  0  0  0  0
 29 34  1  0  0  0  0
 30 33  1  0  0  0  0
 31 32  1  0  0  0  0
 32 35  1  0  0  0  0
 33 32  2  0  0  0  0
 34 30  2  0  0  0  0
 34 36  1  0  0  0  0
 36 31  2  0  0  0  0
 37 38  2  0  0  0  0
 38 39  1  0  0  0  0
 38 36  1  0  0  0  0
 40 41  1  0  0  0  0
 41 58  1  1  0  0  0
 41 45  1  0  0  0  0
 43 42  2  0  0  0  0
 43 47  1  0  0  0  0
 45 46  1  0  0  0  0
 45 44  2  0  0  0  0
 46 43  1  0  0  0  0
 47 48  1  0  0  0  0
 48 49  1  0  0  0  0
 49 51  1  0  0  0  0
 50 49  2  0  0  0  0
 51 52  1  0  0  0  0
 52 54  1  0  0  0  0
 54 53  1  6  0  0  0
 54 56  1  0  0  0  0
 56 57  1  0  0  0  0
 56 55  1  6  0  0  0
 59 60  1  0  0  0  0
 60 58  1  0  0  0  0
 60 61  1  0  0  0  0
 62 60  1  0  0  0  0
M  END
>  <MODEL>
3

>  <REMARK>
 VINA RESULT:      -7.0      4.299      8.072
  Name = 
  21 active torsions:
  status: ('A' for Active; 'I' for Inactive)
    1  A    between atoms: C_4  and  C_58
    2  A    between atoms: C_5  and  N_44
    3  A    between atoms: C_7  and  C_56
    4  A    between atoms: C_9  and  C_48
    5  A    between atoms: C_13  and  N_24
    6  A    between atoms: C_13  and  C_33
    7  A    between atoms: C_16  and  C_23
    8  A    between atoms: C_16  and  N_36
    9  A    between atoms: C_23  and  C_55
   10  A    between atoms: N_24  and  C_40
   11  A    between atoms: N_27  and  N_35
   12  A    between atoms: C_29  and  O_30
   13  A    between atoms: C_29  and  C_54
   14  A    between atoms: O_30  and  N_52
   15  A    between atoms: C_31  and  C_39
   16  A    between atoms: C_31  and  C_48
   17  A    between atoms: C_31  and  S_62
   18  A    between atoms: C_33  and  C_59
   19  A    between atoms: C_47  and  C_51
   20  A    between atoms: C_53  and  S_62
   21  A    between atoms: C_56  and  C_58
                            x       y       z     vdW  Elec       q    Type
                         _______ _______ _______ _____ _____    ______ ____

>  <TORSDO>
F 21

$$$$
=
 OpenBabel11062416383D

 62 66  0  0  1  0  0  0  0  0999 V2000
  186.6050  177.6310  143.5660 C   0  0  2  0  0  0  0  0  0  0  0  0
  187.4600  176.4020  143.1960 C   0  0  0  0  0  2  0  0  0  0  0  0
  188.1140  177.5840  143.7650 C   0  0  1  0  0  3  0  0  0  0  0  0
  183.9320  178.2980  145.8860 F   0  0  0  0  0  0  0  0  0  0  0  0
  185.1510  178.8700  145.4890 C   0  0  0  0  0  0  0  0  0  0  0  0
  186.9440  177.9720  146.1590 C   0  0  0  0  0  2  0  0  0  0  0  0
  186.0240  179.0460  146.7300 C   0  0  0  0  0  2  0  0  0  0  0  0
  185.0660  180.0080  144.6910 F   0  0  0  0  0  0  0  0  0  0  0  0
  186.0530  177.7510  144.9950 C   0  0  2  0  0  3  0  0  0  0  0  0
  186.4090  178.7090  142.6950 O   0  0  0  0  0  0  0  0  0  0  0  0
  184.6980  178.5310  139.5820 C   0  0  0  0  0  2  0  0  0  0  0  0
  183.1160  179.6040  141.0950 C   0  0  0  0  0  1  0  0  0  0  0  0
  186.0550  178.7400  140.2310 C   0  0  0  0  0  2  0  0  0  0  0  0
  184.5650  177.8690  141.8940 O   0  0  0  0  0  0  0  0  0  0  0  0
  185.8300  178.1150  141.5620 N   0  0  0  0  0  0  0  0  0  0  0  0
  183.7420  178.2860  140.7830 C   0  0  2  0  0  0  0  0  0  0  0  0
  182.4230  177.3860  140.6430 C   0  0  0  0  0  2  0  0  0  0  0  0
  179.9800  177.4630  140.0870 C   0  0  0  0  0  2  0  0  0  0  0  0
  181.3730  177.6010  139.5270 C   0  0  1  0  0  0  0  0  0  0  0  0
  181.4010  178.9220  138.8630 C   0  0  0  0  0  2  0  0  0  0  0  0
  180.2510  179.7140  139.2440 N   0  0  0  0  0  0  0  0  0  0  0  0
  179.2340  178.6980  139.6460 C   0  0  0  0  0  2  0  0  0  0  0  0
  179.1930  182.2280  139.7290 O   0  0  0  0  0  0  0  0  0  0  0  0
  179.9710  180.6390  138.2170 N   0  0  0  0  0  2  0  0  0  0  0  0
  179.4440  181.9330  138.5490 C   0  0  0  0  0  0  0  0  0  0  0  0
  179.2360  182.8490  137.4810 N   0  0  0  0  0  2  0  0  0  0  0  0
  179.9160  184.1330  137.4520 C   0  0  0  0  0  2  0  0  0  0  0  0
  181.1910  184.0470  136.6090 C   0  0  0  0  0  1  0  0  0  0  0  0
  181.6540  176.6990  138.4300 N   0  0  0  0  0  2  0  0  0  0  0  0
  180.5510  174.4920  138.8530 C   0  0  0  0  0  3  0  0  0  0  0  0
  179.4480  174.5600  136.3240 C   0  0  0  0  0  3  0  0  0  0  0  0
  179.4930  173.3710  137.0460 C   0  0  0  0  0  0  0  0  0  0  0  0
  179.9200  173.3260  138.3290 C   0  0  0  0  0  3  0  0  0  0  0  0
  180.7170  175.6230  138.0690 C   0  0  0  0  0  0  0  0  0  0  0  0
  178.9310  171.9010  136.3320 Cl  0  0  0  0  0  0  0  0  0  0  0  0
  179.9980  175.7560  136.8580 C   0  0  0  0  0  0  0  0  0  0  0  0
  180.9620  177.2890  135.1250 O   0  0  0  0  0  0  0  0  0  0  0  0
  179.9810  177.0370  136.0100 C   0  0  0  0  0  0  0  0  0  0  0  0
  178.9970  177.8410  136.0410 O   0  0  0  0  0  1  0  0  0  0  0  0
  189.0370  178.5160  142.5430 S   0  0  0  0  0  0  0  0  0  0  0  0
  190.5310  177.7370  143.0680 C   0  0  2  0  0  3  0  0  0  0  0  0
  193.3640  177.5800  139.2300 O   0  0  0  0  0  0  0  0  0  0  0  0
  192.3910  177.0820  139.8240 C   0  0  0  0  0  0  0  0  0  0  0  0
  190.1850  175.9480  141.5630 O   0  0  0  0  0  0  0  0  0  0  0  0
  190.9510  176.9260  141.9210 C   0  0  0  0  0  0  0  0  0  0  0  0
  192.1840  177.2370  141.2490 N   0  0  0  0  0  2  0  0  0  0  0  0
  191.4350  176.2910  139.0890 C   0  0  0  0  0  2  0  0  0  0  0  0
  191.1000  176.9250  137.7800 C   0  0  0  0  0  2  0  0  0  0  0  0
  189.7410  177.4910  137.8700 C   0  0  0  0  0  0  0  0  0  0  0  0
  189.4400  178.2800  138.8300 O   0  0  0  0  0  0  0  0  0  0  0  0
  188.7720  176.9630  136.9960 N   0  0  0  0  0  2  0  0  0  0  0  0
  188.2460  175.6400  137.3090 C   0  0  0  0  0  2  0  0  0  0  0  0
  187.1350  175.9650  135.1340 C   0  0  0  0  0  1  0  0  0  0  0  0
  187.8090  175.0250  136.0600 C   0  0  2  0  0  3  0  0  0  0  0  0
  186.3070  173.2140  137.3540 C   0  0  0  0  0  1  0  0  0  0  0  0
  187.3150  173.5640  136.2290 C   0  0  1  0  0  3  0  0  0  0  0  0
  187.0350  173.0590  134.9820 O   0  0  0  0  0  1  0  0  0  0  0  0
  190.2150  176.9090  144.3180 C   0  0  0  0  0  2  0  0  0  0  0  0
  192.0010  178.2490  145.1210 F   0  0  0  0  0  0  0  0  0  0  0  0
  191.2780  177.0970  145.4030 C   0  0  0  0  0  0  0  0  0  0  0  0
  192.1000  175.9470  145.5120 F   0  0  0  0  0  0  0  0  0  0  0  0
  190.6880  177.4300  146.5880 F   0  0  0  0  0  0  0  0  0  0  0  0
  1 10  1  6  0  0  0
  1  3  1  0  0  0  0
  1  9  1  0  0  0  0
  2  1  1  0  0  0  0
  2  3  1  0  0  0  0
  3 40  1  6  0  0  0
  5  4  1  0  0  0  0
  5  7  1  0  0  0  0
  6  7  1  0  0  0  0
  8  5  1  0  0  0  0
  9  5  1  0  0  0  0
  9  6  1  1  0  0  0
 11 13  1  0  0  0  0
 11 16  1  0  0  0  0
 13 15  1  0  0  0  0
 15 14  1  0  0  0  0
 15 10  1  0  0  0  0
 16 12  1  1  0  0  0
 16 14  1  0  0  0  0
 17 16  1  0  0  0  0
 19 18  1  0  0  0  0
 19 17  1  1  0  0  0
 20 21  1  0  0  0  0
 20 19  1  0  0  0  0
 21 22  1  0  0  0  0
 22 18  1  0  0  0  0
 24 25  1  0  0  0  0
 24 21  1  0  0  0  0
 25 23  2  0  0  0  0
 26 25  1  0  0  0  0
 27 26  1  0  0  0  0
 28 27  1  0  0  0  0
 29 19  1  0  0  0  0
 31 36  2  0  0  0  0
 31 32  1  0  0  0  0
 32 33  2  0  0  0  0
 33 30  1  0  0  0  0
 34 29  1  0  0  0  0
 34 30  2  0  0  0  0
 35 32  1  0  0  0  0
 36 34  1  0  0  0  0
 37 38  2  0  0  0  0
 38 39  1  0  0  0  0
 38 36  1  0  0  0  0
 40 41  1  0  0  0  0
 41 58  1  1  0  0  0
 42 43  2  0  0  0  0
 43 46  1  0  0  0  0
 44 45  2  0  0  0  0
 45 41  1  0  0  0  0
 46 45  1  0  0  0  0
 47 43  1  0  0  0  0
 48 49  1  0  0  0  0
 48 47  1  0  0  0  0
 49 50  2  0  0  0  0
 51 52  1  0  0  0  0
 51 49  1  0  0  0  0
 54 53  1  1  0  0  0
 54 56  1  0  0  0  0
 54 52  1  0  0  0  0
 56 55  1  1  0  0  0
 57 56  1  0  0  0  0
 58 60  1  0  0  0  0
 59 60  1  0  0  0  0
 60 61  1  0  0  0  0
 60 62  1  0  0  0  0
M  END
>  <MODEL>
4

>  <REMARK>
 VINA RESULT:      -6.8      1.628      2.208
  Name = 
  21 active torsions:
  status: ('A' for Active; 'I' for Inactive)
    1  A    between atoms: C_4  and  C_58
    2  A    between atoms: C_5  and  N_44
    3  A    between atoms: C_7  and  C_56
    4  A    between atoms: C_9  and  C_48
    5  A    between atoms: C_13  and  N_24
    6  A    between atoms: C_13  and  C_33
    7  A    between atoms: C_16  and  C_23
    8  A    between atoms: C_16  and  N_36
    9  A    between atoms: C_23  and  C_55
   10  A    between atoms: N_24  and  C_40
   11  A    between atoms: N_27  and  N_35
   12  A    between atoms: C_29  and  O_30
   13  A    between atoms: C_29  and  C_54
   14  A    between atoms: O_30  and  N_52
   15  A    between atoms: C_31  and  C_39
   16  A    between atoms: C_31  and  C_48
   17  A    between atoms: C_31  and  S_62
   18  A    between atoms: C_33  and  C_59
   19  A    between atoms: C_47  and  C_51
   20  A    between atoms: C_53  and  S_62
   21  A    between atoms: C_56  and  C_58
                            x       y       z     vdW  Elec       q    Type
                         _______ _______ _______ _____ _____    ______ ____

>  <TORSDO>
F 21

$$$$
=
 OpenBabel11062416383D

 62 66  0  0  1  0  0  0  0  0999 V2000
  186.7050  177.4880  143.9230 C   0  0  2  0  0  0  0  0  0  0  0  0
  187.4800  176.3200  143.2810 C   0  0  0  0  0  2  0  0  0  0  0  0
  188.2250  177.4380  143.8660 C   0  0  1  0  0  3  0  0  0  0  0  0
  184.4680  177.9060  146.7150 F   0  0  0  0  0  0  0  0  0  0  0  0
  185.6290  178.5020  146.1960 C   0  0  0  0  0  0  0  0  0  0  0  0
  187.4700  177.4930  146.4470 C   0  0  0  0  0  2  0  0  0  0  0  0
  186.6970  178.5040  147.2870 C   0  0  0  0  0  2  0  0  0  0  0  0
  185.4610  179.7330  145.5660 F   0  0  0  0  0  0  0  0  0  0  0  0
  186.3950  177.4370  145.4280 C   0  0  2  0  0  3  0  0  0  0  0  0
  186.3740  178.6550  143.2250 O   0  0  0  0  0  0  0  0  0  0  0  0
  184.5100  178.7570  140.1980 C   0  0  0  0  0  2  0  0  0  0  0  0
  182.9230  179.4260  141.9230 C   0  0  0  0  0  1  0  0  0  0  0  0
  185.8760  179.0090  140.8120 C   0  0  0  0  0  2  0  0  0  0  0  0
  184.5770  177.7540  142.3870 O   0  0  0  0  0  0  0  0  0  0  0  0
  185.7900  178.1760  142.0410 N   0  0  0  0  0  0  0  0  0  0  0  0
  183.6540  178.2400  141.3890 C   0  0  2  0  0  0  0  0  0  0  0  0
  182.4230  177.2380  141.1710 C   0  0  0  0  0  2  0  0  0  0  0  0
  180.0270  177.6730  140.5750 C   0  0  0  0  0  2  0  0  0  0  0  0
  181.4020  177.3990  140.0190 C   0  0  1  0  0  0  0  0  0  0  0  0
  181.6690  178.5010  139.0710 C   0  0  0  0  0  2  0  0  0  0  0  0
  180.7110  179.5720  139.2420 N   0  0  0  0  0  0  0  0  0  0  0  0
  179.5270  178.8980  139.8520 C   0  0  0  0  0  2  0  0  0  0  0  0
  179.9560  182.2340  139.1140 O   0  0  0  0  0  0  0  0  0  0  0  0
  180.5880  180.2760  138.0270 N   0  0  0  0  0  2  0  0  0  0  0  0
  180.2130  181.6620  138.0420 C   0  0  0  0  0  0  0  0  0  0  0  0
  180.1620  182.3400  136.7930 N   0  0  0  0  0  2  0  0  0  0  0  0
  180.9960  183.5020  136.5350 C   0  0  0  0  0  2  0  0  0  0  0  0
  180.6120  184.1550  135.2050 C   0  0  0  0  0  1  0  0  0  0  0  0
  181.4640  176.2330  139.1620 N   0  0  0  0  0  2  0  0  0  0  0  0
  183.7140  176.0490  138.0830 C   0  0  0  0  0  3  0  0  0  0  0  0
  182.6070  176.7590  135.6560 C   0  0  0  0  0  3  0  0  0  0  0  0
  183.9850  176.8150  135.8510 C   0  0  0  0  0  0  0  0  0  0  0  0
  184.5680  176.3650  136.9850 C   0  0  0  0  0  3  0  0  0  0  0  0
  182.3410  176.2010  137.9820 C   0  0  0  0  0  0  0  0  0  0  0  0
  185.0140  177.4100  134.5960 Cl  0  0  0  0  0  0  0  0  0  0  0  0
  181.7390  176.3690  136.7110 C   0  0  0  0  0  0  0  0  0  0  0  0
  179.5000  175.2460  136.6270 O   0  0  0  0  0  1  0  0  0  0  0  0
  180.2210  176.3730  136.4780 C   0  0  0  0  0  0  0  0  0  0  0  0
  179.5880  177.4490  136.2440 O   0  0  0  0  0  0  0  0  0  0  0  0
  188.9410  178.5150  142.6240 S   0  0  0  0  0  0  0  0  0  0  0  0
  190.5450  177.8690  142.9790 C   0  0  2  0  0  3  0  0  0  0  0  0
  189.6770  176.7740  138.4150 O   0  0  0  0  0  0  0  0  0  0  0  0
  190.5300  176.8780  139.3140 C   0  0  0  0  0  0  0  0  0  0  0  0
  192.4220  177.3950  141.6230 O   0  0  0  0  0  0  0  0  0  0  0  0
  191.1530  177.6420  141.6640 C   0  0  0  0  0  0  0  0  0  0  0  0
  190.3330  177.7080  140.4850 N   0  0  0  0  0  2  0  0  0  0  0  0
  191.7840  176.1780  139.1910 C   0  0  0  0  0  2  0  0  0  0  0  0
  192.0180  175.7270  137.7880 C   0  0  0  0  0  2  0  0  0  0  0  0
  193.4720  175.6760  137.5490 C   0  0  0  0  0  0  0  0  0  0  0  0
  194.0480  176.6210  136.9090 O   0  0  0  0  0  0  0  0  0  0  0  0
  194.1270  174.4700  137.8640 N   0  0  0  0  0  2  0  0  0  0  0  0
  193.9340  173.3510  136.9510 C   0  0  0  0  0  2  0  0  0  0  0  0
  196.3660  173.3420  137.3430 C   0  0  0  0  0  1  0  0  0  0  0  0
  195.1690  172.5750  136.9260 C   0  0  2  0  0  3  0  0  0  0  0  0
  194.8350  170.0700  136.0200 C   0  0  0  0  0  1  0  0  0  0  0  0
  195.2320  171.5470  135.7660 C   0  0  1  0  0  3  0  0  0  0  0  0
  194.7050  172.1350  134.6420 O   0  0  0  0  0  1  0  0  0  0  0  0
  190.3640  176.5870  143.7970 C   0  0  0  0  0  2  0  0  0  0  0  0
  191.9200  177.7950  145.1190 F   0  0  0  0  0  0  0  0  0  0  0  0
  191.2820  176.5650  145.0210 C   0  0  0  0  0  0  0  0  0  0  0  0
  192.1910  175.4800  144.9540 F   0  0  0  0  0  0  0  0  0  0  0  0
  190.5400  176.5530  146.1680 F   0  0  0  0  0  0  0  0  0  0  0  0
  1 10  1  6  0  0  0
  1  9  1  0  0  0  0
  2  3  1  0  0  0  0
  2  1  1  0  0  0  0
  3 40  1  6  0  0  0
  3  1  1  0  0  0  0
  5  4  1  0  0  0  0
  5  7  1  0  0  0  0
  6  7  1  0  0  0  0
  8  5  1  0  0  0  0
  9  5  1  0  0  0  0
  9  6  1  1  0  0  0
 11 13  1  0  0  0  0
 11 16  1  0  0  0  0
 13 15  1  0  0  0  0
 15 14  1  0  0  0  0
 15 10  1  0  0  0  0
 16 12  1  1  0  0  0
 16 14  1  0  0  0  0
 17 16  1  0  0  0  0
 19 18  1  0  0  0  0
 19 17  1  1  0  0  0
 20 21  1  0  0  0  0
 20 19  1  0  0  0  0
 21 22  1  0  0  0  0
 22 18  1  0  0  0  0
 24 25  1  0  0  0  0
 24 21  1  0  0  0  0
 25 23  2  0  0  0  0
 26 25  1  0  0  0  0
 27 26  1  0  0  0  0
 28 27  1  0  0  0  0
 29 19  1  0  0  0  0
 31 32  2  0  0  0  0
 31 36  1  0  0  0  0
 32 33  1  0  0  0  0
 33 30  2  0  0  0  0
 34 30  1  0  0  0  0
 34 29  1  0  0  0  0
 35 32  1  0  0  0  0
 36 34  2  0  0  0  0
 38 37  1  0  0  0  0
 38 36  1  0  0  0  0
 39 38  2  0  0  0  0
 40 41  1  0  0  0  0
 41 58  1  6  0  0  0
 42 43  2  0  0  0  0
 43 46  1  0  0  0  0
 44 45  2  0  0  0  0
 45 41  1  0  0  0  0
 46 45  1  0  0  0  0
 47 43  1  0  0  0  0
 48 47  1  0  0  0  0
 49 48  1  0  0  0  0
 49 51  1  0  0  0  0
 50 49  2  0  0  0  0
 52 51  1  0  0  0  0
 54 52  1  0  0  0  0
 54 53  1  6  0  0  0
 56 55  1  1  0  0  0
 56 54  1  0  0  0  0
 57 56  1  0  0  0  0
 58 60  1  0  0  0  0
 60 59  1  0  0  0  0
 60 62  1  0  0  0  0
 61 60  1  0  0  0  0
M  END
>  <MODEL>
5

>  <REMARK>
 VINA RESULT:      -6.4      2.300      3.213
  Name = 
  21 active torsions:
  status: ('A' for Active; 'I' for Inactive)
    1  A    between atoms: C_4  and  C_58
    2  A    between atoms: C_5  and  N_44
    3  A    between atoms: C_7  and  C_56
    4  A    between atoms: C_9  and  C_48
    5  A    between atoms: C_13  and  N_24
    6  A    between atoms: C_13  and  C_33
    7  A    between atoms: C_16  and  C_23
    8  A    between atoms: C_16  and  N_36
    9  A    between atoms: C_23  and  C_55
   10  A    between atoms: N_24  and  C_40
   11  A    between atoms: N_27  and  N_35
   12  A    between atoms: C_29  and  O_30
   13  A    between atoms: C_29  and  C_54
   14  A    between atoms: O_30  and  N_52
   15  A    between atoms: C_31  and  C_39
   16  A    between atoms: C_31  and  C_48
   17  A    between atoms: C_31  and  S_62
   18  A    between atoms: C_33  and  C_59
   19  A    between atoms: C_47  and  C_51
   20  A    between atoms: C_53  and  S_62
   21  A    between atoms: C_56  and  C_58
                            x       y       z     vdW  Elec       q    Type
                         _______ _______ _______ _____ _____    ______ ____

>  <TORSDO>
F 21

$$$$
=
 OpenBabel11062416383D

 62 66  0  0  1  0  0  0  0  0999 V2000
  186.4830  177.9310  143.7390 C   0  0  2  0  0  0  0  0  0  0  0  0
  186.4660  176.3900  143.8050 C   0  0  0  0  0  2  0  0  0  0  0  0
  187.7510  177.0880  143.7130 C   0  0  1  0  0  3  0  0  0  0  0  0
  188.1210  178.6810  146.8580 F   0  0  0  0  0  0  0  0  0  0  0  0
  186.9090  178.1320  146.4080 C   0  0  0  0  0  0  0  0  0  0  0  0
  185.4430  179.4420  145.6320 C   0  0  0  0  0  2  0  0  0  0  0  0
  185.7630  178.9250  147.0310 C   0  0  0  0  0  2  0  0  0  0  0  0
  186.7740  176.7510  146.5330 F   0  0  0  0  0  0  0  0  0  0  0  0
  186.6030  178.7310  145.0450 C   0  0  2  0  0  3  0  0  0  0  0  0
  186.5180  178.6380  142.5310 O   0  0  0  0  0  0  0  0  0  0  0  0
  183.0580  178.3080  141.7760 C   0  0  0  0  0  2  0  0  0  0  0  0
  184.2040  177.5880  139.7490 C   0  0  0  0  0  1  0  0  0  0  0  0
  184.0970  178.1720  142.8760 C   0  0  0  0  0  2  0  0  0  0  0  0
  185.0920  179.3850  141.0640 O   0  0  0  0  0  0  0  0  0  0  0  0
  185.1850  179.0360  142.3450 N   0  0  0  0  0  0  0  0  0  0  0  0
  183.8750  178.8030  140.5490 C   0  0  2  0  0  0  0  0  0  0  0  0
  183.2130  179.7100  139.4050 C   0  0  0  0  0  2  0  0  0  0  0  0
  180.9340  179.8240  140.4430 C   0  0  0  0  0  2  0  0  0  0  0  0
  181.6890  179.7490  139.1400 C   0  0  1  0  0  0  0  0  0  0  0  0
  181.2050  180.8930  138.3380 C   0  0  0  0  0  2  0  0  0  0  0  0
  180.4590  181.8200  139.1620 N   0  0  0  0  0  0  0  0  0  0  0  0
  179.9780  180.9820  140.2990 C   0  0  0  0  0  2  0  0  0  0  0  0
  181.2010  183.9360  137.5360 O   0  0  0  0  0  0  0  0  0  0  0  0
  179.5430  182.5210  138.3510 N   0  0  0  0  0  2  0  0  0  0  0  0
  180.0070  183.5930  137.5160 C   0  0  0  0  0  0  0  0  0  0  0  0
  179.0530  184.2270  136.6730 N   0  0  0  0  0  2  0  0  0  0  0  0
  179.2180  184.2380  135.2290 C   0  0  0  0  0  2  0  0  0  0  0  0
  180.1510  183.1080  134.7870 C   0  0  0  0  0  1  0  0  0  0  0  0
  181.3210  178.6170  138.3160 N   0  0  0  0  0  2  0  0  0  0  0  0
  179.6900  177.5460  139.8840 C   0  0  0  0  0  3  0  0  0  0  0  0
  180.7280  175.0640  139.2670 C   0  0  0  0  0  3  0  0  0  0  0  0
  179.9330  175.2390  140.3960 C   0  0  0  0  0  0  0  0  0  0  0  0
  179.3150  176.4130  140.6640 C   0  0  0  0  0  3  0  0  0  0  0  0
  180.6530  177.4400  138.8930 C   0  0  0  0  0  0  0  0  0  0  0  0
  179.6530  173.9170  141.4730 Cl  0  0  0  0  0  0  0  0  0  0  0  0
  181.0510  176.1640  138.4270 C   0  0  0  0  0  0  0  0  0  0  0  0
  181.7080  176.5190  136.0350 O   0  0  0  0  0  0  0  0  0  0  0  0
  181.9770  175.9450  137.2220 C   0  0  0  0  0  0  0  0  0  0  0  0
  183.0710  175.3080  137.3310 O   0  0  0  0  0  1  0  0  0  0  0  0
  188.4980  176.9480  142.0900 S   0  0  0  0  0  0  0  0  0  0  0  0
  190.0690  177.3810  142.7680 C   0  0  2  0  0  3  0  0  0  0  0  0
  190.2500  177.4390  137.9980 O   0  0  0  0  0  0  0  0  0  0  0  0
  190.8910  177.3600  139.0610 C   0  0  0  0  0  0  0  0  0  0  0  0
  192.2180  177.3790  141.7840 O   0  0  0  0  0  0  0  0  0  0  0  0
  190.9470  177.5330  141.6030 C   0  0  0  0  0  0  0  0  0  0  0  0
  190.3750  177.8500  140.3230 N   0  0  0  0  0  2  0  0  0  0  0  0
  192.2150  176.7880  139.0550 C   0  0  0  0  0  2  0  0  0  0  0  0
  192.6210  176.3800  137.6770 C   0  0  0  0  0  2  0  0  0  0  0  0
  192.7210  174.9100  137.6360 C   0  0  0  0  0  0  0  0  0  0  0  0
  193.8670  174.3490  137.5620 O   0  0  0  0  0  0  0  0  0  0  0  0
  191.5190  174.1940  137.4700 N   0  0  0  0  0  2  0  0  0  0  0  0
  190.9240  174.1950  136.1400 C   0  0  0  0  0  2  0  0  0  0  0  0
  189.7070  172.4360  134.9160 C   0  0  0  0  0  1  0  0  0  0  0  0
  189.8080  173.2550  136.1470 C   0  0  2  0  0  3  0  0  0  0  0  0
  187.8070  175.0380  136.2880 C   0  0  0  0  0  1  0  0  0  0  0  0
  188.5430  173.7990  136.8610 C   0  0  1  0  0  3  0  0  0  0  0  0
  187.7560  172.7310  137.2130 O   0  0  0  0  0  1  0  0  0  0  0  0
  190.4990  176.2550  143.7130 C   0  0  0  0  0  2  0  0  0  0  0  0
  192.0290  175.9390  145.4980 F   0  0  0  0  0  0  0  0  0  0  0  0
  191.0470  176.8040  145.0320 C   0  0  0  0  0  0  0  0  0  0  0  0
  190.0050  177.0070  145.9700 F   0  0  0  0  0  0  0  0  0  0  0  0
  191.7730  177.9390  144.8050 F   0  0  0  0  0  0  0  0  0  0  0  0
  1 10  1  6  0  0  0
  1  2  1  0  0  0  0
  1  9  1  0  0  0  0
  3 40  1  6  0  0  0
  3  1  1  0  0  0  0
  3  2  1  0  0  0  0
  5  8  1  0  0  0  0
  5  4  1  0  0  0  0
  5  7  1  0  0  0  0
  6  7  1  0  0  0  0
  9  6  1  1  0  0  0
  9  5  1  0  0  0  0
 11 13  1  0  0  0  0
 14 15  1  0  0  0  0
 15 10  1  0  0  0  0
 15 13  1  0  0  0  0
 16 12  1  6  0  0  0
 16 14  1  0  0  0  0
 16 11  1  0  0  0  0
 17 16  1  0  0  0  0
 19 17  1  1  0  0  0
 19 18  1  0  0  0  0
 20 19  1  0  0  0  0
 20 21  1  0  0  0  0
 21 22  1  0  0  0  0
 22 18  1  0  0  0  0
 24 21  1  0  0  0  0
 25 23  2  0  0  0  0
 25 24  1  0  0  0  0
 26 25  1  0  0  0  0
 27 26  1  0  0  0  0
 28 27  1  0  0  0  0
 29 34  1  0  0  0  0
 29 19  1  0  0  0  0
 30 33  1  0  0  0  0
 31 32  1  0  0  0  0
 32 33  2  0  0  0  0
 32 35  1  0  0  0  0
 34 30  2  0  0  0  0
 36 34  1  0  0  0  0
 36 31  2  0  0  0  0
 37 38  2  0  0  0  0
 38 39  1  0  0  0  0
 38 36  1  0  0  0  0
 40 41  1  0  0  0  0
 41 58  1  1  0  0  0
 42 43  2  0  0  0  0
 43 46  1  0  0  0  0
 45 44  2  0  0  0  0
 45 41  1  0  0  0  0
 46 45  1  0  0  0  0
 47 43  1  0  0  0  0
 48 47  1  0  0  0  0
 49 48  1  0  0  0  0
 50 49  2  0  0  0  0
 51 49  1  0  0  0  0
 52 54  1  0  0  0  0
 52 51  1  0  0  0  0
 54 53  1  6  0  0  0
 54 56  1  0  0  0  0
 56 55  1  6  0  0  0
 56 57  1  0  0  0  0
 58 60  1  0  0  0  0
 60 59  1  0  0  0  0
 60 61  1  0  0  0  0
 62 60  1  0  0  0  0
M  END
>  <MODEL>
6

>  <REMARK>
 VINA RESULT:      -6.3      1.621      2.034
  Name = 
  21 active torsions:
  status: ('A' for Active; 'I' for Inactive)
    1  A    between atoms: C_4  and  C_58
    2  A    between atoms: C_5  and  N_44
    3  A    between atoms: C_7  and  C_56
    4  A    between atoms: C_9  and  C_48
    5  A    between atoms: C_13  and  N_24
    6  A    between atoms: C_13  and  C_33
    7  A    between atoms: C_16  and  C_23
    8  A    between atoms: C_16  and  N_36
    9  A    between atoms: C_23  and  C_55
   10  A    between atoms: N_24  and  C_40
   11  A    between atoms: N_27  and  N_35
   12  A    between atoms: C_29  and  O_30
   13  A    between atoms: C_29  and  C_54
   14  A    between atoms: O_30  and  N_52
   15  A    between atoms: C_31  and  C_39
   16  A    between atoms: C_31  and  C_48
   17  A    between atoms: C_31  and  S_62
   18  A    between atoms: C_33  and  C_59
   19  A    between atoms: C_47  and  C_51
   20  A    between atoms: C_53  and  S_62
   21  A    between atoms: C_56  and  C_58
                            x       y       z     vdW  Elec       q    Type
                         _______ _______ _______ _____ _____    ______ ____

>  <TORSDO>
F 21

$$$$
=
 OpenBabel11062416383D

 62 66  0  0  1  0  0  0  0  0999 V2000
  186.3950  177.6870  143.6020 C   0  0  2  0  0  0  0  0  0  0  0  0
  187.2640  176.4690  143.2300 C   0  0  0  0  0  2  0  0  0  0  0  0
  187.9100  177.6750  143.7550 C   0  0  1  0  0  3  0  0  0  0  0  0
  183.8810  178.6420  145.9980 F   0  0  0  0  0  0  0  0  0  0  0  0
  185.1680  179.0420  145.6040 C   0  0  0  0  0  0  0  0  0  0  0  0
  186.8120  177.8540  146.2010 C   0  0  0  0  0  2  0  0  0  0  0  0
  186.0720  179.0280  146.8340 C   0  0  0  0  0  2  0  0  0  0  0  0
  185.2470  180.2150  144.8560 F   0  0  0  0  0  0  0  0  0  0  0  0
  185.8840  177.8230  145.0450 C   0  0  2  0  0  3  0  0  0  0  0  0
  186.1490  178.7430  142.7170 O   0  0  0  0  0  0  0  0  0  0  0  0
  184.5530  178.4610  139.5510 C   0  0  0  0  0  2  0  0  0  0  0  0
  182.9910  179.7380  140.9190 C   0  0  0  0  0  1  0  0  0  0  0  0
  185.8950  178.6250  140.2440 C   0  0  0  0  0  2  0  0  0  0  0  0
  184.2850  177.9720  141.8950 O   0  0  0  0  0  0  0  0  0  0  0  0
  185.5760  178.1110  141.6020 N   0  0  0  0  0  0  0  0  0  0  0  0
  183.5370  178.3630  140.7230 C   0  0  2  0  0  0  0  0  0  0  0  0
  182.1660  177.5440  140.5860 C   0  0  0  0  0  2  0  0  0  0  0  0
  179.7640  177.6970  139.8860 C   0  0  0  0  0  2  0  0  0  0  0  0
  181.1910  177.7300  139.3990 C   0  0  1  0  0  0  0  0  0  0  0  0
  181.3220  178.9990  138.6520 C   0  0  0  0  0  2  0  0  0  0  0  0
  180.1940  179.8690  138.9110 N   0  0  0  0  0  0  0  0  0  0  0  0
  179.1070  178.9320  139.3220 C   0  0  0  0  0  2  0  0  0  0  0  0
  179.4290  182.5170  139.1840 O   0  0  0  0  0  0  0  0  0  0  0  0
  180.0180  180.7330  137.8110 N   0  0  0  0  0  2  0  0  0  0  0  0
  179.6420  182.1010  138.0330 C   0  0  0  0  0  0  0  0  0  0  0  0
  179.5360  182.9440  136.8920 N   0  0  0  0  0  2  0  0  0  0  0  0
  180.3570  184.1360  136.7630 C   0  0  0  0  0  2  0  0  0  0  0  0
  180.7450  184.3650  135.3000 C   0  0  0  0  0  1  0  0  0  0  0  0
  181.4840  176.7420  138.3820 N   0  0  0  0  0  2  0  0  0  0  0  0
  180.3450  174.6270  139.0860 C   0  0  0  0  0  3  0  0  0  0  0  0
  179.4530  174.2500  136.5010 C   0  0  0  0  0  3  0  0  0  0  0  0
  179.4360  173.2020  137.4170 C   0  0  0  0  0  0  0  0  0  0  0  0
  179.7560  173.3810  138.7190 C   0  0  0  0  0  3  0  0  0  0  0  0
  180.5780  175.6100  138.1360 C   0  0  0  0  0  0  0  0  0  0  0  0
  178.9310  171.6250  136.9210 Cl  0  0  0  0  0  0  0  0  0  0  0  0
  179.9600  175.5260  136.8650 C   0  0  0  0  0  0  0  0  0  0  0  0
  178.9410  177.4170  135.5750 O   0  0  0  0  0  1  0  0  0  0  0  0
  180.0160  176.6430  135.8130 C   0  0  0  0  0  0  0  0  0  0  0  0
  181.0980  176.9400  135.2160 O   0  0  0  0  0  0  0  0  0  0  0  0
  188.7750  178.6010  142.4880 S   0  0  0  0  0  0  0  0  0  0  0  0
  190.3240  178.0790  143.1550 C   0  0  2  0  0  3  0  0  0  0  0  0
  193.6360  177.6540  139.7450 O   0  0  0  0  0  0  0  0  0  0  0  0
  192.5910  177.1970  140.2400 C   0  0  0  0  0  0  0  0  0  0  0  0
  190.1690  176.1840  141.7510 O   0  0  0  0  0  0  0  0  0  0  0  0
  190.8870  177.1890  142.1350 C   0  0  0  0  0  0  0  0  0  0  0  0
  192.1990  177.4540  141.6100 N   0  0  0  0  0  2  0  0  0  0  0  0
  191.7360  176.3500  139.4450 C   0  0  0  0  0  2  0  0  0  0  0  0
  191.8500  176.6770  137.9930 C   0  0  0  0  0  2  0  0  0  0  0  0
  191.2500  175.5750  137.2190 C   0  0  0  0  0  0  0  0  0  0  0  0
  190.1070  175.1070  137.5510 O   0  0  0  0  0  0  0  0  0  0  0  0
  192.0720  174.9470  136.2630 N   0  0  0  0  0  2  0  0  0  0  0  0
  193.0990  174.0410  136.7640 C   0  0  0  0  0  2  0  0  0  0  0  0
  194.5690  173.0150  135.0730 C   0  0  0  0  0  1  0  0  0  0  0  0
  194.2810  174.1960  135.9220 C   0  0  2  0  0  3  0  0  0  0  0  0
  196.9000  174.6740  136.2650 C   0  0  0  0  0  1  0  0  0  0  0  0
  195.4210  175.0030  136.5950 C   0  0  1  0  0  3  0  0  0  0  0  0
  195.0740  176.3320  136.5760 O   0  0  0  0  0  1  0  0  0  0  0  0
  190.0490  177.3810  144.4900 C   0  0  0  0  0  2  0  0  0  0  0  0
  191.0280  176.9280  146.6030 F   0  0  0  0  0  0  0  0  0  0  0  0
  191.3420  177.1090  145.2610 C   0  0  0  0  0  0  0  0  0  0  0  0
  192.2850  178.1460  145.0540 F   0  0  0  0  0  0  0  0  0  0  0  0
  191.8380  175.8790  144.9320 F   0  0  0  0  0  0  0  0  0  0  0  0
  1 10  1  6  0  0  0
  1  3  1  0  0  0  0
  1  9  1  0  0  0  0
  2  1  1  0  0  0  0
  2  3  1  0  0  0  0
  3 40  1  6  0  0  0
  5  4  1  0  0  0  0
  5  7  1  0  0  0  0
  6  7  1  0  0  0  0
  8  5  1  0  0  0  0
  9  5  1  0  0  0  0
  9  6  1  1  0  0  0
 11 13  1  0  0  0  0
 11 16  1  0  0  0  0
 13 15  1  0  0  0  0
 15 14  1  0  0  0  0
 15 10  1  0  0  0  0
 16 12  1  1  0  0  0
 16 14  1  0  0  0  0
 17 16  1  0  0  0  0
 19 18  1  0  0  0  0
 19 17  1  1  0  0  0
 20 21  1  0  0  0  0
 20 19  1  0  0  0  0
 21 22  1  0  0  0  0
 22 18  1  0  0  0  0
 24 25  1  0  0  0  0
 24 21  1  0  0  0  0
 25 23  2  0  0  0  0
 26 25  1  0  0  0  0
 27 26  1  0  0  0  0
 28 27  1  0  0  0  0
 29 19  1  0  0  0  0
 31 36  2  0  0  0  0
 31 32  1  0  0  0  0
 32 33  2  0  0  0  0
 33 30  1  0  0  0  0
 34 29  1  0  0  0  0
 34 30  2  0  0  0  0
 35 32  1  0  0  0  0
 36 34  1  0  0  0  0
 37 38  1  0  0  0  0
 38 36  1  0  0  0  0
 39 38  2  0  0  0  0
 40 41  1  0  0  0  0
 41 58  1  1  0  0  0
 42 43  2  0  0  0  0
 43 46  1  0  0  0  0
 44 45  2  0  0  0  0
 45 41  1  0  0  0  0
 46 45  1  0  0  0  0
 47 43  1  0  0  0  0
 48 47  1  0  0  0  0
 49 50  2  0  0  0  0
 49 48  1  0  0  0  0
 51 52  1  0  0  0  0
 51 49  1  0  0  0  0
 54 53  1  1  0  0  0
 54 56  1  0  0  0  0
 54 52  1  0  0  0  0
 56 55  1  6  0  0  0
 57 56  1  0  0  0  0
 58 60  1  0  0  0  0
 60 59  1  0  0  0  0
 61 60  1  0  0  0  0
 62 60  1  0  0  0  0
M  END
>  <MODEL>
7

>  <REMARK>
 VINA RESULT:      -6.2      1.662      2.535
  Name = 
  21 active torsions:
  status: ('A' for Active; 'I' for Inactive)
    1  A    between atoms: C_4  and  C_58
    2  A    between atoms: C_5  and  N_44
    3  A    between atoms: C_7  and  C_56
    4  A    between atoms: C_9  and  C_48
    5  A    between atoms: C_13  and  N_24
    6  A    between atoms: C_13  and  C_33
    7  A    between atoms: C_16  and  C_23
    8  A    between atoms: C_16  and  N_36
    9  A    between atoms: C_23  and  C_55
   10  A    between atoms: N_24  and  C_40
   11  A    between atoms: N_27  and  N_35
   12  A    between atoms: C_29  and  O_30
   13  A    between atoms: C_29  and  C_54
   14  A    between atoms: O_30  and  N_52
   15  A    between atoms: C_31  and  C_39
   16  A    between atoms: C_31  and  C_48
   17  A    between atoms: C_31  and  S_62
   18  A    between atoms: C_33  and  C_59
   19  A    between atoms: C_47  and  C_51
   20  A    between atoms: C_53  and  S_62
   21  A    between atoms: C_56  and  C_58
                            x       y       z     vdW  Elec       q    Type
                         _______ _______ _______ _____ _____    ______ ____

>  <TORSDO>
F 21

$$$$
=
 OpenBabel11062416383D

 62 66  0  0  1  0  0  0  0  0999 V2000
  186.1780  178.3050  142.1430 C   0  0  2  0  0  0  0  0  0  0  0  0
  187.0790  177.0540  142.1440 C   0  0  0  0  0  2  0  0  0  0  0  0
  187.6490  178.3460  142.5330 C   0  0  1  0  0  3  0  0  0  0  0  0
  183.8280  177.6260  144.7870 F   0  0  0  0  0  0  0  0  0  0  0  0
  183.9630  178.4970  143.6930 C   0  0  0  0  0  0  0  0  0  0  0  0
  185.3160  180.1120  143.8600 C   0  0  0  0  0  2  0  0  0  0  0  0
  183.8410  179.9310  144.2040 C   0  0  0  0  0  2  0  0  0  0  0  0
  183.1650  178.2210  142.5850 F   0  0  0  0  0  0  0  0  0  0  0  0
  185.4470  178.6970  143.4370 C   0  0  2  0  0  3  0  0  0  0  0  0
  186.0900  179.1760  141.0510 O   0  0  0  0  0  0  0  0  0  0  0  0
  184.3760  178.5080  138.0070 C   0  0  0  0  0  2  0  0  0  0  0  0
  183.5440  180.6860  138.7180 C   0  0  0  0  0  1  0  0  0  0  0  0
  185.6960  178.3410  138.7390 C   0  0  0  0  0  2  0  0  0  0  0  0
  184.0380  178.9930  140.3420 O   0  0  0  0  0  0  0  0  0  0  0  0
  185.2560  178.4920  140.1520 N   0  0  0  0  0  0  0  0  0  0  0  0
  183.4650  179.2310  139.0390 C   0  0  2  0  0  0  0  0  0  0  0  0
  181.8740  179.0400  139.0390 C   0  0  0  0  0  2  0  0  0  0  0  0
  181.2020  178.6760  136.6520 C   0  0  0  0  0  2  0  0  0  0  0  0
  181.1380  178.1080  138.0470 C   0  0  1  0  0  0  0  0  0  0  0  0
  181.6740  176.7340  137.9370 C   0  0  0  0  0  2  0  0  0  0  0  0
  182.3390  176.5410  136.6660 N   0  0  0  0  0  0  0  0  0  0  0  0
  181.7080  177.5580  135.7740 C   0  0  0  0  0  2  0  0  0  0  0  0
  184.6020  175.0830  136.0130 O   0  0  0  0  0  0  0  0  0  0  0  0
  182.2980  175.1710  136.3310 N   0  0  0  0  0  2  0  0  0  0  0  0
  183.5180  174.4770  136.0260 C   0  0  0  0  0  0  0  0  0  0  0  0
  183.4280  173.0840  135.7530 N   0  0  0  0  0  2  0  0  0  0  0  0
  184.1400  172.1130  136.5670 C   0  0  0  0  0  2  0  0  0  0  0  0
  183.4640  170.7430  136.4830 C   0  0  0  0  0  1  0  0  0  0  0  0
  179.7900  177.8750  138.5230 N   0  0  0  0  0  2  0  0  0  0  0  0
  179.2120  179.5860  140.2550 C   0  0  0  0  0  3  0  0  0  0  0  0
  179.2400  177.6260  142.1990 C   0  0  0  0  0  3  0  0  0  0  0  0
  179.2930  178.9720  142.5490 C   0  0  0  0  0  0  0  0  0  0  0  0
  179.1650  179.9580  141.6320 C   0  0  0  0  0  3  0  0  0  0  0  0
  179.3850  178.2630  139.8830 C   0  0  0  0  0  0  0  0  0  0  0  0
  179.4600  179.4300  144.2070 Cl  0  0  0  0  0  0  0  0  0  0  0  0
  179.2050  177.2300  140.8340 C   0  0  0  0  0  0  0  0  0  0  0  0
  179.3830  174.8040  141.4380 O   0  0  0  0  0  1  0  0  0  0  0  0
  179.2040  175.7350  140.4830 C   0  0  0  0  0  0  0  0  0  0  0  0
  178.9320  175.3290  139.3100 O   0  0  0  0  0  0  0  0  0  0  0  0
  188.7170  179.0370  141.2700 S   0  0  0  0  0  0  0  0  0  0  0  0
  189.6250  177.5250  141.2000 C   0  0  2  0  0  3  0  0  0  0  0  0
  192.0640  174.8470  144.3080 O   0  0  0  0  0  0  0  0  0  0  0  0
  191.5810  175.9650  144.0560 C   0  0  0  0  0  0  0  0  0  0  0  0
  190.4780  178.6230  143.1110 O   0  0  0  0  0  0  0  0  0  0  0  0
  190.4800  177.5500  142.3900 C   0  0  0  0  0  0  0  0  0  0  0  0
  191.2860  176.4010  142.7070 N   0  0  0  0  0  2  0  0  0  0  0  0
  191.3240  176.8900  145.1310 C   0  0  0  0  0  2  0  0  0  0  0  0
  191.2210  176.1820  146.4410 C   0  0  0  0  0  2  0  0  0  0  0  0
  191.0120  177.1870  147.5000 C   0  0  0  0  0  0  0  0  0  0  0  0
  191.8260  177.2580  148.4830 O   0  0  0  0  0  0  0  0  0  0  0  0
  189.7930  177.8910  147.4780 N   0  0  0  0  0  2  0  0  0  0  0  0
  188.6040  177.1730  147.9200 C   0  0  0  0  0  2  0  0  0  0  0  0
  188.0020  177.6680  145.5820 C   0  0  0  0  0  1  0  0  0  0  0  0
  187.5310  177.4580  146.9720 C   0  0  2  0  0  3  0  0  0  0  0  0
  186.5480  179.8450  147.7080 C   0  0  0  0  0  1  0  0  0  0  0  0
  186.3820  178.3090  147.5720 C   0  0  1  0  0  3  0  0  0  0  0  0
  185.1970  177.8690  147.0360 O   0  0  0  0  0  1  0  0  0  0  0  0
  190.4090  177.5080  139.8850 C   0  0  0  0  0  2  0  0  0  0  0  0
  188.2890  176.7380  139.1510 F   0  0  0  0  0  0  0  0  0  0  0  0
  189.6210  176.8220  138.7660 C   0  0  0  0  0  0  0  0  0  0  0  0
  190.1820  175.5600  138.4510 F   0  0  0  0  0  0  0  0  0  0  0  0
  189.5370  177.6420  137.6770 F   0  0  0  0  0  0  0  0  0  0  0  0
  1 10  1  6  0  0  0
  1  2  1  0  0  0  0
  1  3  1  0  0  0  0
  1  9  1  0  0  0  0
  2  3  1  0  0  0  0
  3 40  1  6  0  0  0
  5  7  1  0  0  0  0
  5  4  1  0  0  0  0
  6  7  1  0  0  0  0
  8  5  1  0  0  0  0
  9  5  1  0  0  0  0
  9  6  1  6  0  0  0
 11 13  1  0  0  0  0
 11 16  1  0  0  0  0
 13 15  1  0  0  0  0
 15 14  1  0  0  0  0
 15 10  1  0  0  0  0
 16 12  1  6  0  0  0
 16 17  1  0  0  0  0
 16 14  1  0  0  0  0
 18 19  1  0  0  0  0
 19 29  1  0  0  0  0
 19 17  1  1  0  0  0
 20 19  1  0  0  0  0
 21 20  1  0  0  0  0
 22 18  1  0  0  0  0
 22 21  1  0  0  0  0
 23 25  2  0  0  0  0
 24 21  1  0  0  0  0
 25 24  1  0  0  0  0
 26 25  1  0  0  0  0
 26 27  1  0  0  0  0
 28 27  1  0  0  0  0
 29 34  1  0  0  0  0
 30 33  1  0  0  0  0
 31 32  1  0  0  0  0
 32 35  1  0  0  0  0
 33 32  2  0  0  0  0
 34 30  2  0  0  0  0
 34 36  1  0  0  0  0
 36 31  2  0  0  0  0
 38 36  1  0  0  0  0
 38 37  1  0  0  0  0
 39 38  2  0  0  0  0
 41 58  1  6  0  0  0
 41 40  1  0  0  0  0
 41 45  1  0  0  0  0
 43 42  2  0  0  0  0
 43 47  1  0  0  0  0
 45 46  1  0  0  0  0
 45 44  2  0  0  0  0
 46 43  1  0  0  0  0
 47 48  1  0  0  0  0
 48 49  1  0  0  0  0
 49 50  2  0  0  0  0
 51 49  1  0  0  0  0
 51 52  1  0  0  0  0
 54 53  1  6  0  0  0
 54 56  1  0  0  0  0
 54 52  1  0  0  0  0
 56 55  1  6  0  0  0
 57 56  1  0  0  0  0
 60 59  1  0  0  0  0
 60 58  1  0  0  0  0
 61 60  1  0  0  0  0
 62 60  1  0  0  0  0
M  END
>  <MODEL>
8

>  <REMARK>
 VINA RESULT:      -6.0      3.579      6.780
  Name = 
  21 active torsions:
  status: ('A' for Active; 'I' for Inactive)
    1  A    between atoms: C_4  and  C_58
    2  A    between atoms: C_5  and  N_44
    3  A    between atoms: C_7  and  C_56
    4  A    between atoms: C_9  and  C_48
    5  A    between atoms: C_13  and  N_24
    6  A    between atoms: C_13  and  C_33
    7  A    between atoms: C_16  and  C_23
    8  A    between atoms: C_16  and  N_36
    9  A    between atoms: C_23  and  C_55
   10  A    between atoms: N_24  and  C_40
   11  A    between atoms: N_27  and  N_35
   12  A    between atoms: C_29  and  O_30
   13  A    between atoms: C_29  and  C_54
   14  A    between atoms: O_30  and  N_52
   15  A    between atoms: C_31  and  C_39
   16  A    between atoms: C_31  and  C_48
   17  A    between atoms: C_31  and  S_62
   18  A    between atoms: C_33  and  C_59
   19  A    between atoms: C_47  and  C_51
   20  A    between atoms: C_53  and  S_62
   21  A    between atoms: C_56  and  C_58
                            x       y       z     vdW  Elec       q    Type
                         _______ _______ _______ _____ _____    ______ ____

>  <TORSDO>
F 21

$$$$
=
 OpenBabel11062416383D

 62 66  0  0  1  0  0  0  0  0999 V2000
  186.5790  178.0910  143.6730 C   0  0  2  0  0  0  0  0  0  0  0  0
  186.8490  176.5900  143.4460 C   0  0  0  0  0  2  0  0  0  0  0  0
  187.9540  177.5430  143.3180 C   0  0  1  0  0  3  0  0  0  0  0  0
  188.1550  178.1100  146.9110 F   0  0  0  0  0  0  0  0  0  0  0  0
  186.8900  177.8610  146.3560 C   0  0  0  0  0  0  0  0  0  0  0  0
  185.7310  179.5130  145.7250 C   0  0  0  0  0  2  0  0  0  0  0  0
  185.8760  178.7680  147.0480 C   0  0  0  0  0  2  0  0  0  0  0  0
  186.4990  176.5260  146.2850 F   0  0  0  0  0  0  0  0  0  0  0  0
  186.7720  178.6780  145.0790 C   0  0  2  0  0  3  0  0  0  0  0  0
  186.2840  178.9750  142.6280 O   0  0  0  0  0  0  0  0  0  0  0  0
  182.8160  178.2490  142.9350 C   0  0  0  0  0  2  0  0  0  0  0  0
  183.4420  177.3600  140.7540 C   0  0  0  0  0  1  0  0  0  0  0  0
  184.1240  178.3540  143.6990 C   0  0  0  0  0  2  0  0  0  0  0  0
  184.4310  179.3890  141.5590 O   0  0  0  0  0  0  0  0  0  0  0  0
  184.9120  179.2280  142.7900 N   0  0  0  0  0  0  0  0  0  0  0  0
  183.1990  178.6400  141.4800 C   0  0  2  0  0  0  0  0  0  0  0  0
  182.1460  179.3220  140.4830 C   0  0  0  0  0  2  0  0  0  0  0  0
  181.2520  178.1850  138.4360 C   0  0  0  0  0  2  0  0  0  0  0  0
  182.2450  179.2000  138.9440 C   0  0  1  0  0  0  0  0  0  0  0  0
  181.9690  180.4360  138.1810 C   0  0  0  0  0  2  0  0  0  0  0  0
  180.7020  180.3410  137.4870 N   0  0  0  0  0  0  0  0  0  0  0  0
  180.4890  178.8720  137.3310 C   0  0  0  0  0  2  0  0  0  0  0  0
  179.4550  182.8140  137.4210 O   0  0  0  0  0  0  0  0  0  0  0  0
  180.7330  181.1850  136.3580 N   0  0  0  0  0  2  0  0  0  0  0  0
  180.0820  182.4640  136.4070 C   0  0  0  0  0  0  0  0  0  0  0  0
  180.1940  183.3000  135.2620 N   0  0  0  0  0  2  0  0  0  0  0  0
  180.8010  184.6180  135.3530 C   0  0  0  0  0  2  0  0  0  0  0  0
  181.1810  184.9360  136.8010 C   0  0  0  0  0  1  0  0  0  0  0  0
  183.6160  178.9100  138.5770 N   0  0  0  0  0  2  0  0  0  0  0  0
  182.9570  177.1370  136.9380 C   0  0  0  0  0  3  0  0  0  0  0  0
  185.5740  176.2660  136.8310 C   0  0  0  0  0  3  0  0  0  0  0  0
  184.5400  175.4630  136.3580 C   0  0  0  0  0  0  0  0  0  0  0  0
  183.2630  175.9040  136.2890 C   0  0  0  0  0  3  0  0  0  0  0  0
  183.9380  177.8470  137.6120 C   0  0  0  0  0  0  0  0  0  0  0  0
  184.8760  173.8720  135.7720 Cl  0  0  0  0  0  0  0  0  0  0  0  0
  185.3030  177.5350  137.4100 C   0  0  0  0  0  0  0  0  0  0  0  0
  187.3580  178.9460  137.1490 O   0  0  0  0  0  0  0  0  0  0  0  0
  186.4630  178.3700  137.9720 C   0  0  0  0  0  0  0  0  0  0  0  0
  186.5550  178.6290  139.2130 O   0  0  0  0  0  1  0  0  0  0  0  0
  188.4300  177.8220  141.6120 S   0  0  0  0  0  0  0  0  0  0  0  0
  190.1190  177.5160  142.0260 C   0  0  2  0  0  3  0  0  0  0  0  0
  189.5300  176.1340  137.4960 O   0  0  0  0  0  0  0  0  0  0  0  0
  190.3370  176.3870  138.4080 C   0  0  0  0  0  0  0  0  0  0  0  0
  192.0790  177.2430  140.7340 O   0  0  0  0  0  0  0  0  0  0  0  0
  190.7880  177.3200  140.7370 C   0  0  0  0  0  0  0  0  0  0  0  0
  190.0000  177.2290  139.5380 N   0  0  0  0  0  2  0  0  0  0  0  0
  191.6760  175.8560  138.3440 C   0  0  0  0  0  2  0  0  0  0  0  0
  192.3210  176.1720  137.0350 C   0  0  0  0  0  2  0  0  0  0  0  0
  193.7840  176.1440  137.2170 C   0  0  0  0  0  0  0  0  0  0  0  0
  194.5430  176.7510  136.3860 O   0  0  0  0  0  0  0  0  0  0  0  0
  194.2880  175.2670  138.1960 N   0  0  0  0  0  2  0  0  0  0  0  0
  194.2980  173.8450  137.8720 C   0  0  0  0  0  2  0  0  0  0  0  0
  196.5800  174.1880  138.7360 C   0  0  0  0  0  1  0  0  0  0  0  0
  195.6870  173.4000  137.8530 C   0  0  2  0  0  3  0  0  0  0  0  0
  195.2750  171.9240  135.6500 C   0  0  0  0  0  1  0  0  0  0  0  0
  196.1610  172.9030  136.4630 C   0  0  1  0  0  3  0  0  0  0  0  0
  196.6720  173.9770  135.7750 O   0  0  0  0  0  1  0  0  0  0  0  0
  190.1640  176.2810  142.9310 C   0  0  0  0  0  2  0  0  0  0  0  0
  190.6680  176.3490  145.2480 F   0  0  0  0  0  0  0  0  0  0  0  0
  191.2600  176.3980  143.9920 C   0  0  0  0  0  0  0  0  0  0  0  0
  192.0330  177.5700  143.7960 F   0  0  0  0  0  0  0  0  0  0  0  0
  192.0240  175.2660  144.0090 F   0  0  0  0  0  0  0  0  0  0  0  0
  1 10  1  6  0  0  0
  1  9  1  0  0  0  0
  2  1  1  0  0  0  0
  3 40  1  6  0  0  0
  3  2  1  0  0  0  0
  3  1  1  0  0  0  0
  5  4  1  0  0  0  0
  5  7  1  0  0  0  0
  6  7  1  0  0  0  0
  8  5  1  0  0  0  0
  9  6  1  1  0  0  0
  9  5  1  0  0  0  0
 10 15  1  0  0  0  0
 11 13  1  0  0  0  0
 14 15  1  0  0  0  0
 15 13  1  0  0  0  0
 16 12  1  6  0  0  0
 16 14  1  0  0  0  0
 16 11  1  0  0  0  0
 17 16  1  0  0  0  0
 18 19  1  0  0  0  0
 19 17  1  1  0  0  0
 20 19  1  0  0  0  0
 21 20  1  0  0  0  0
 22 21  1  0  0  0  0
 22 18  1  0  0  0  0
 24 25  1  0  0  0  0
 24 21  1  0  0  0  0
 25 23  2  0  0  0  0
 26 27  1  0  0  0  0
 26 25  1  0  0  0  0
 27 28  1  0  0  0  0
 29 19  1  0  0  0  0
 30 34  1  0  0  0  0
 31 36  1  0  0  0  0
 32 31  2  0  0  0  0
 33 32  1  0  0  0  0
 33 30  2  0  0  0  0
 34 29  1  0  0  0  0
 35 32  1  0  0  0  0
 36 34  2  0  0  0  0
 36 38  1  0  0  0  0
 37 38  2  0  0  0  0
 38 39  1  0  0  0  0
 40 41  1  0  0  0  0
 41 58  1  1  0  0  0
 42 43  2  0  0  0  0
 43 46  1  0  0  0  0
 44 45  2  0  0  0  0
 45 41  1  0  0  0  0
 46 45  1  0  0  0  0
 47 43  1  0  0  0  0
 48 49  1  0  0  0  0
 48 47  1  0  0  0  0
 49 51  1  0  0  0  0
 50 49  2  0  0  0  0
 52 51  1  0  0  0  0
 54 52  1  0  0  0  0
 54 53  1  6  0  0  0
 56 55  1  6  0  0  0
 56 54  1  0  0  0  0
 57 56  1  0  0  0  0
 58 60  1  0  0  0  0
 60 62  1  0  0  0  0
 60 59  1  0  0  0  0
 61 60  1  0  0  0  0
M  END
>  <MODEL>
9

>  <REMARK>
 VINA RESULT:      -5.8      2.303      3.749
  Name = 
  21 active torsions:
  status: ('A' for Active; 'I' for Inactive)
    1  A    between atoms: C_4  and  C_58
    2  A    between atoms: C_5  and  N_44
    3  A    between atoms: C_7  and  C_56
    4  A    between atoms: C_9  and  C_48
    5  A    between atoms: C_13  and  N_24
    6  A    between atoms: C_13  and  C_33
    7  A    between atoms: C_16  and  C_23
    8  A    between atoms: C_16  and  N_36
    9  A    between atoms: C_23  and  C_55
   10  A    between atoms: N_24  and  C_40
   11  A    between atoms: N_27  and  N_35
   12  A    between atoms: C_29  and  O_30
   13  A    between atoms: C_29  and  C_54
   14  A    between atoms: O_30  and  N_52
   15  A    between atoms: C_31  and  C_39
   16  A    between atoms: C_31  and  C_48
   17  A    between atoms: C_31  and  S_62
   18  A    between atoms: C_33  and  C_59
   19  A    between atoms: C_47  and  C_51
   20  A    between atoms: C_53  and  S_62
   21  A    between atoms: C_56  and  C_58
                            x       y       z     vdW  Elec       q    Type
                         _______ _______ _______ _____ _____    ______ ____

>  <TORSDO>
F 21

$$$$
