=
 OpenBabel11062416113D

 59 64  0  0  1  0  0  0  0  0999 V2000
  183.3680  177.2050  140.1170 S   0  0  0  0  0  0  0  0  0  0  0  0
  183.1930  177.3170  138.2980 C   0  0  2  0  0  3  0  0  0  0  0  0
  184.1370  178.3900  137.7430 C   0  0  0  0  0  2  0  0  0  0  0  0
  185.1110  178.8010  138.8220 C   0  0  0  0  0  2  0  0  0  0  0  0
  184.3770  178.7080  140.1430 C   0  0  2  0  0  3  0  0  0  0  0  0
  180.2280  178.4980  135.5590 C   0  0  0  0  0  2  0  0  0  0  0  0
  180.2170  177.1380  135.9450 O   0  0  0  0  0  0  0  0  0  0  0  0
  181.7160  177.4920  137.8480 C   0  0  1  0  0  0  0  0  0  0  0  0
  180.6710  179.4310  136.6610 C   0  0  0  0  0  0  0  0  0  0  0  0
  181.4170  178.9640  137.6670 C   0  0  0  0  0  3  0  0  0  0  0  0
  181.4810  176.7870  136.4790 C   0  0  2  0  0  3  0  0  0  0  0  0
  179.6650  173.2560  140.2290 Cl  0  0  0  0  0  0  0  0  0  0  0  0
  179.7730  174.9920  140.0230 C   0  0  0  0  0  0  0  0  0  0  0  0
  180.7710  176.9220  138.9100 C   0  0  0  0  0  0  0  0  0  0  0  0
  180.6840  175.5290  139.1110 C   0  0  0  0  0  3  0  0  0  0  0  0
  178.9310  175.8370  140.7480 C   0  0  0  0  0  3  0  0  0  0  0  0
  178.9980  177.2200  140.5600 C   0  0  0  0  0  3  0  0  0  0  0  0
  179.9040  177.7570  139.6430 C   0  0  0  0  0  3  0  0  0  0  0  0
  179.4710  181.3040  135.8200 O   0  0  0  0  0  0  0  0  0  0  0  0
  181.2510  181.8140  137.2200 N   0  0  0  0  0  1  0  0  0  0  0  0
  180.4240  180.8780  136.5280 C   0  0  0  0  0  0  0  0  0  0  0  0
  182.8380  176.9740  135.2500 S   0  0  0  0  0  0  0  0  0  0  0  0
  183.3890  172.1620  136.8610 C   0  0  0  0  0  2  0  0  0  0  0  0
  182.3340  173.0660  136.2300 C   0  0  0  0  0  2  0  0  0  0  0  0
  184.1950  174.7490  136.0020 C   0  0  2  0  0  3  0  0  0  0  0  0
  184.7980  172.5350  136.3760 C   0  0  1  0  0  3  0  0  0  0  0  0
  183.0540  175.1810  135.1020 C   0  0  1  0  0  3  0  0  0  0  0  0
  184.8010  173.5990  135.4390 O   0  0  0  0  0  0  0  0  0  0  0  0
  182.7360  174.5230  136.4280 C   0  0  1  0  0  3  0  0  0  0  0  0
  187.0610  172.5510  137.1560 O   0  0  0  0  0  1  0  0  0  0  0  0
  185.7410  172.7840  137.5490 C   0  0  0  0  0  2  0  0  0  0  0  0
  185.3080  178.7450  141.3610 C   0  0  0  0  0  2  0  0  0  0  0  0
  183.1020  178.9750  142.6790 C   0  0  0  0  0  2  0  0  0  0  0  0
  185.3230  178.9480  143.8180 C   0  0  0  0  0  3  0  0  0  0  0  0
  183.2480  178.6300  145.1640 C   0  0  0  0  0  2  0  0  0  0  0  0
  184.6130  178.9550  142.6760 C   0  0  0  0  0  0  0  0  0  0  0  0
  182.4880  179.3200  144.0370 C   0  0  2  0  0  3  0  0  0  0  0  0
  184.6790  179.1470  145.1630 C   0  0  1  0  0  3  0  0  0  0  0  0
  181.0970  178.9030  144.0570 N   0  0  0  0  0  2  0  0  0  0  0  0
  180.5070  179.2940  142.7850 C   0  0  0  0  0  2  0  0  0  0  0  0
  179.2750  180.1410  143.0320 C   0  0  0  0  0  1  0  0  0  0  0  0
  185.4280  178.4940  146.1450 O   0  0  0  0  0  0  0  0  0  0  0  0
  186.4950  178.0430  145.5070 O   0  0  0  0  0  0  0  0  0  0  0  0
  187.3310  177.5500  146.5150 C   0  0  0  0  0  2  0  0  0  0  0  0
  188.6930  177.2240  145.9030 C   0  0  1  0  0  3  0  0  0  0  0  0
  188.9870  178.0450  144.6330 C   0  0  1  0  0  3  0  0  0  0  0  0
  190.4070  178.5870  144.6560 C   0  0  0  0  0  1  0  0  0  0  0  0
  188.7780  177.2750  143.3650 C   0  0  0  0  0  0  0  0  0  0  0  0
  188.2280  176.1370  143.3850 O   0  0  0  0  0  0  0  0  0  0  0  0
  189.2590  177.8240  142.1360 N   0  0  0  0  0  2  0  0  0  0  0  0
  189.0020  177.2000  140.8470 C   0  0  1  0  0  3  0  0  0  0  0  0
  188.6550  178.2670  139.8270 C   0  0  0  0  0  1  0  0  0  0  0  0
  190.1830  176.4770  140.4030 N   0  0  0  0  0  2  0  0  0  0  0  0
  191.7150  177.9680  141.3660 O   0  0  0  0  0  0  0  0  0  0  0  0
  191.5100  176.9230  140.6870 C   0  0  0  0  0  3  0  0  0  0  0  0
  189.3110  177.9710  148.2430 C   0  0  0  0  0  1  0  0  0  0  0  0
  189.8190  177.3560  146.9400 C   0  0  1  0  0  3  0  0  0  0  0  0
  190.3880  176.1080  147.2030 O   0  0  0  0  0  0  0  0  0  0  0  0
  191.7540  176.3590  147.3670 C   0  0  0  0  0  1  0  0  0  0  0  0
  1  5  1  0  0  0  0
  2  3  1  1  0  0  0
  2  1  1  0  0  0  0
  3  4  1  0  0  0  0
  4  5  1  0  0  0  0
  5 32  1  1  0  0  0
  6  7  1  0  0  0  0
  6  9  1  0  0  0  0
  7 11  1  0  0  0  0
  8  2  1  0  0  0  0
  8 14  1  1  0  0  0
  9 10  2  0  0  0  0
 10  8  1  0  0  0  0
 11 22  1  6  0  0  0
 11  8  1  0  0  0  0
 13 12  1  0  0  0  0
 13 16  1  0  0  0  0
 14 15  1  0  0  0  0
 14 18  2  0  0  0  0
 15 13  2  0  0  0  0
 17 16  2  0  0  0  0
 18 17  1  0  0  0  0
 19 21  2  0  0  0  0
 21  9  1  0  0  0  0
 21 20  1  0  0  0  0
 24 23  1  0  0  0  0
 25 28  1  6  0  0  0
 25 29  1  0  0  0  0
 26 23  1  0  0  0  0
 26 31  1  1  0  0  0
 27 22  1  1  0  0  0
 27 25  1  0  0  0  0
 27 29  1  0  0  0  0
 28 26  1  0  0  0  0
 29 24  1  6  0  0  0
 30 31  1  0  0  0  0
 32 36  1  0  0  0  0
 33 37  1  0  0  0  0
 34 38  1  0  0  0  0
 36 33  1  0  0  0  0
 36 34  2  0  0  0  0
 37 39  1  6  0  0  0
 37 35  1  0  0  0  0
 38 35  1  0  0  0  0
 38 42  1  1  0  0  0
 40 41  1  0  0  0  0
 40 39  1  0  0  0  0
 43 42  1  0  0  0  0
 43 44  1  0  0  0  0
 45 44  1  1  0  0  0
 45 57  1  0  0  0  0
 46 47  1  1  0  0  0
 46 45  1  0  0  0  0
 48 49  2  0  0  0  0
 48 46  1  0  0  0  0
 50 48  1  0  0  0  0
 51 52  1  6  0  0  0
 51 50  1  0  0  0  0
 53 55  1  0  0  0  0
 53 51  1  0  0  0  0
 55 54  2  0  0  0  0
 57 58  1  0  0  0  0
 57 56  1  1  0  0  0
 58 59  1  0  0  0  0
M  END
>  <MODEL>
1

>  <REMARK>
 VINA RESULT:      -7.4      0.000      0.000
  Name = 
  20 active torsions:
  status: ('A' for Active; 'I' for Inactive)
    1  A    between atoms: O_1  and  C_27
    2  A    between atoms: C_5  and  N_31
    3  A    between atoms: N_10  and  C_22
    4  A    between atoms: C_16  and  C_30
    5  A    between atoms: C_17  and  C_51
    6  A    between atoms: C_19  and  C_30
    7  A    between atoms: C_22  and  N_54
    8  A    between atoms: S_24  and  C_29
    9  A    between atoms: S_24  and  C_56
   10  A    between atoms: C_25  and  C_59
   11  A    between atoms: C_27  and  C_36
   12  A    between atoms: C_28  and  C_32
   13  A    between atoms: N_31  and  C_33
   14  A    between atoms: C_32  and  C_36
   15  A    between atoms: C_35  and  C_55
   16  A    between atoms: C_36  and  C_47
   17  A    between atoms: C_47  and  O_48
   18  A    between atoms: O_48  and  O_50
   19  A    between atoms: C_49  and  O_50
   20  A    between atoms: C_58  and  C_59
                            x       y       z     vdW  Elec       q    Type
                         _______ _______ _______ _____ _____    ______ ____

>  <TORSDO>
F 20

$$$$
=
 OpenBabel11062416113D

 59 64  0  0  1  0  0  0  0  0999 V2000
  183.3660  178.2640  138.1740 S   0  0  0  0  0  0  0  0  0  0  0  0
  182.0510  176.9920  138.2560 C   0  0  2  0  0  3  0  0  0  0  0  0
  182.1610  176.2050  139.5670 C   0  0  0  0  0  2  0  0  0  0  0  0
  183.1220  176.9130  140.4920 C   0  0  0  0  0  2  0  0  0  0  0  0
  184.1840  177.5550  139.6250 C   0  0  2  0  0  3  0  0  0  0  0  0
  180.0630  174.5650  135.4550 C   0  0  0  0  0  2  0  0  0  0  0  0
  180.7270  175.7010  134.9390 O   0  0  0  0  0  0  0  0  0  0  0  0
  182.0060  176.0940  136.9900 C   0  0  1  0  0  0  0  0  0  0  0  0
  180.7610  173.9510  136.6450 C   0  0  0  0  0  0  0  0  0  0  0  0
  181.5960  174.6920  137.3820 C   0  0  0  0  0  3  0  0  0  0  0  0
  180.9500  176.6350  135.9800 C   0  0  2  0  0  3  0  0  0  0  0  0
  186.8660  174.0450  136.9150 Cl  0  0  0  0  0  0  0  0  0  0  0  0
  185.6580  175.1410  136.2760 C   0  0  0  0  0  0  0  0  0  0  0  0
  183.3900  176.0390  136.3330 C   0  0  0  0  0  0  0  0  0  0  0  0
  184.3700  175.1490  136.8160 C   0  0  0  0  0  3  0  0  0  0  0  0
  185.9890  176.0240  135.2460 C   0  0  0  0  0  3  0  0  0  0  0  0
  185.0330  176.9170  134.7570 C   0  0  0  0  0  3  0  0  0  0  0  0
  183.7470  176.9310  135.3020 C   0  0  0  0  0  3  0  0  0  0  0  0
  179.1880  172.3210  137.3670 O   0  0  0  0  0  0  0  0  0  0  0  0
  181.3760  171.5710  137.1780 N   0  0  0  0  0  1  0  0  0  0  0  0
  180.3860  172.5960  137.0850 C   0  0  0  0  0  0  0  0  0  0  0  0
  179.3800  177.2380  136.7270 S   0  0  0  0  0  0  0  0  0  0  0  0
  181.0880  181.7490  135.0570 C   0  0  0  0  0  2  0  0  0  0  0  0
  181.0200  180.2920  134.6120 C   0  0  0  0  0  2  0  0  0  0  0  0
  179.5690  179.9430  136.6410 C   0  0  2  0  0  3  0  0  0  0  0  0
  179.8610  182.1270  135.9000 C   0  0  1  0  0  3  0  0  0  0  0  0
  179.3940  178.7480  135.7250 C   0  0  1  0  0  3  0  0  0  0  0  0
  178.9360  181.0620  136.0460 O   0  0  0  0  0  0  0  0  0  0  0  0
  180.7550  179.4070  135.8240 C   0  0  1  0  0  3  0  0  0  0  0  0
  180.5820  184.0870  137.0700 O   0  0  0  0  0  1  0  0  0  0  0  0
  180.2710  182.7350  137.2370 C   0  0  0  0  0  2  0  0  0  0  0  0
  185.0260  178.5990  140.3670 C   0  0  0  0  0  2  0  0  0  0  0  0
  183.3360  178.9220  142.2890 C   0  0  0  0  0  2  0  0  0  0  0  0
  185.7370  178.3910  142.7190 C   0  0  0  0  0  3  0  0  0  0  0  0
  184.0770  178.1560  144.5650 C   0  0  0  0  0  2  0  0  0  0  0  0
  184.7610  178.6870  141.8430 C   0  0  0  0  0  0  0  0  0  0  0  0
  183.1830  179.1230  143.7980 C   0  0  2  0  0  3  0  0  0  0  0  0
  185.5250  178.4560  144.2070 C   0  0  1  0  0  3  0  0  0  0  0  0
  181.7960  178.9120  144.1750 N   0  0  0  0  0  2  0  0  0  0  0  0
  181.0270  178.7810  142.9460 C   0  0  0  0  0  2  0  0  0  0  0  0
  179.7360  179.5660  143.0660 C   0  0  0  0  0  1  0  0  0  0  0  0
  186.3770  177.5500  144.8440 O   0  0  0  0  0  0  0  0  0  0  0  0
  187.5930  178.0180  144.6160 O   0  0  0  0  0  0  0  0  0  0  0  0
  188.4470  177.1210  145.2660 C   0  0  0  0  0  2  0  0  0  0  0  0
  189.7260  176.9800  144.4400 C   0  0  1  0  0  3  0  0  0  0  0  0
  189.7390  177.8960  143.2020 C   0  0  1  0  0  3  0  0  0  0  0  0
  190.9040  178.8710  143.2630 C   0  0  0  0  0  1  0  0  0  0  0  0
  189.7980  177.1450  141.9070 C   0  0  0  0  0  0  0  0  0  0  0  0
  190.3520  176.0110  141.8440 O   0  0  0  0  0  0  0  0  0  0  0  0
  189.2640  177.7550  140.7290 N   0  0  0  0  0  2  0  0  0  0  0  0
  189.1790  177.0550  139.4560 C   0  0  1  0  0  3  0  0  0  0  0  0
  188.0680  177.6600  138.6190 C   0  0  0  0  0  1  0  0  0  0  0  0
  190.4390  177.1730  138.7410 N   0  0  0  0  0  2  0  0  0  0  0  0
  189.7190  175.9850  136.8520 O   0  0  0  0  0  0  0  0  0  0  0  0
  190.6440  176.6040  137.4470 C   0  0  0  0  0  3  0  0  0  0  0  0
  190.6120  177.5820  146.7360 C   0  0  0  0  0  1  0  0  0  0  0  0
  190.9790  177.1780  145.3090 C   0  0  1  0  0  3  0  0  0  0  0  0
  191.7420  176.0090  145.3360 O   0  0  0  0  0  0  0  0  0  0  0  0
  191.9910  175.7690  146.6910 C   0  0  0  0  0  1  0  0  0  0  0  0
  1  2  1  0  0  0  0
  1  5  1  0  0  0  0
  2  3  1  1  0  0  0
  3  4  1  0  0  0  0
  5 32  1  1  0  0  0
  5  4  1  0  0  0  0
  6  9  1  0  0  0  0
  7  6  1  0  0  0  0
  7 11  1  0  0  0  0
  8 14  1  6  0  0  0
  8 10  1  0  0  0  0
  8  2  1  0  0  0  0
  9 21  1  0  0  0  0
  9 10  2  0  0  0  0
 11 22  1  1  0  0  0
 11  8  1  0  0  0  0
 13 15  1  0  0  0  0
 13 12  1  0  0  0  0
 14 15  2  0  0  0  0
 16 13  2  0  0  0  0
 17 16  1  0  0  0  0
 17 18  2  0  0  0  0
 18 14  1  0  0  0  0
 21 20  1  0  0  0  0
 21 19  2  0  0  0  0
 23 26  1  0  0  0  0
 24 23  1  0  0  0  0
 25 28  1  6  0  0  0
 26 28  1  0  0  0  0
 26 31  1  1  0  0  0
 27 29  1  0  0  0  0
 27 25  1  0  0  0  0
 27 22  1  1  0  0  0
 29 24  1  6  0  0  0
 29 25  1  0  0  0  0
 30 31  1  0  0  0  0
 32 36  1  0  0  0  0
 33 37  1  0  0  0  0
 34 38  1  0  0  0  0
 36 33  1  0  0  0  0
 36 34  2  0  0  0  0
 37 39  1  1  0  0  0
 37 35  1  0  0  0  0
 38 35  1  0  0  0  0
 38 42  1  1  0  0  0
 40 41  1  0  0  0  0
 40 39  1  0  0  0  0
 43 42  1  0  0  0  0
 43 44  1  0  0  0  0
 45 44  1  1  0  0  0
 45 57  1  0  0  0  0
 46 47  1  1  0  0  0
 46 45  1  0  0  0  0
 48 46  1  0  0  0  0
 49 48  2  0  0  0  0
 50 48  1  0  0  0  0
 51 52  1  6  0  0  0
 51 50  1  0  0  0  0
 53 51  1  0  0  0  0
 54 55  2  0  0  0  0
 55 53  1  0  0  0  0
 57 58  1  0  0  0  0
 57 56  1  1  0  0  0
 58 59  1  0  0  0  0
M  END
>  <MODEL>
2

>  <REMARK>
 VINA RESULT:      -6.6      2.487      5.164
  Name = 
  20 active torsions:
  status: ('A' for Active; 'I' for Inactive)
    1  A    between atoms: O_1  and  C_27
    2  A    between atoms: C_5  and  N_31
    3  A    between atoms: N_10  and  C_22
    4  A    between atoms: C_16  and  C_30
    5  A    between atoms: C_17  and  C_51
    6  A    between atoms: C_19  and  C_30
    7  A    between atoms: C_22  and  N_54
    8  A    between atoms: S_24  and  C_29
    9  A    between atoms: S_24  and  C_56
   10  A    between atoms: C_25  and  C_59
   11  A    between atoms: C_27  and  C_36
   12  A    between atoms: C_28  and  C_32
   13  A    between atoms: N_31  and  C_33
   14  A    between atoms: C_32  and  C_36
   15  A    between atoms: C_35  and  C_55
   16  A    between atoms: C_36  and  C_47
   17  A    between atoms: C_47  and  O_48
   18  A    between atoms: O_48  and  O_50
   19  A    between atoms: C_49  and  O_50
   20  A    between atoms: C_58  and  C_59
                            x       y       z     vdW  Elec       q    Type
                         _______ _______ _______ _____ _____    ______ ____

>  <TORSDO>
F 20

$$$$
=
 OpenBabel11062416113D

 59 64  0  0  1  0  0  0  0  0999 V2000
  183.0370  178.9990  141.3540 S   0  0  0  0  0  0  0  0  0  0  0  0
  181.5680  179.0770  140.2640 C   0  0  2  0  0  3  0  0  0  0  0  0
  180.2870  179.0310  141.1030 C   0  0  0  0  0  2  0  0  0  0  0  0
  180.6380  179.2320  142.5580 C   0  0  0  0  0  2  0  0  0  0  0  0
  181.9950  178.5990  142.7800 C   0  0  2  0  0  3  0  0  0  0  0  0
  179.7730  176.2860  137.6800 C   0  0  0  0  0  2  0  0  0  0  0  0
  180.4740  177.3470  137.0650 O   0  0  0  0  0  0  0  0  0  0  0  0
  181.6090  178.0180  139.1270 C   0  0  1  0  0  0  0  0  0  0  0  0
  180.3860  175.8400  138.9860 C   0  0  0  0  0  0  0  0  0  0  0  0
  181.1690  176.6780  139.6730 C   0  0  0  0  0  3  0  0  0  0  0  0
  180.6260  178.4130  137.9850 C   0  0  2  0  0  3  0  0  0  0  0  0
  185.3670  174.9380  137.0730 Cl  0  0  0  0  0  0  0  0  0  0  0  0
  184.8130  176.4960  137.6540 C   0  0  0  0  0  0  0  0  0  0  0  0
  183.0350  177.8860  138.5810 C   0  0  0  0  0  0  0  0  0  0  0  0
  183.4940  176.6490  138.0860 C   0  0  0  0  0  3  0  0  0  0  0  0
  185.6970  177.5760  137.7110 C   0  0  0  0  0  3  0  0  0  0  0  0
  185.2620  178.8090  138.2030 C   0  0  0  0  0  3  0  0  0  0  0  0
  183.9440  178.9610  138.6420 C   0  0  0  0  0  3  0  0  0  0  0  0
  179.9080  174.4140  140.8280 O   0  0  0  0  0  0  0  0  0  0  0  0
  179.6390  173.4510  138.7330 N   0  0  0  0  0  1  0  0  0  0  0  0
  179.9790  174.5520  139.5760 C   0  0  0  0  0  0  0  0  0  0  0  0
  179.0100  179.0990  138.5360 S   0  0  0  0  0  0  0  0  0  0  0  0
  180.8230  182.6380  135.3350 C   0  0  0  0  0  2  0  0  0  0  0  0
  180.4350  181.1630  135.3420 C   0  0  0  0  0  2  0  0  0  0  0  0
  179.5470  181.6090  137.6570 C   0  0  2  0  0  3  0  0  0  0  0  0
  179.9340  183.4490  136.2890 C   0  0  1  0  0  3  0  0  0  0  0  0
  178.9670  180.2940  137.1740 C   0  0  1  0  0  3  0  0  0  0  0  0
  178.9420  182.6630  136.9290 O   0  0  0  0  0  0  0  0  0  0  0  0
  180.3830  180.6630  136.7810 C   0  0  1  0  0  3  0  0  0  0  0  0
  180.0180  185.3250  137.7730 O   0  0  0  0  0  1  0  0  0  0  0  0
  180.7690  184.2560  137.2770 C   0  0  0  0  0  2  0  0  0  0  0  0
  182.6550  179.0170  144.0990 C   0  0  0  0  0  2  0  0  0  0  0  0
  184.7520  178.5840  145.5350 C   0  0  0  0  0  2  0  0  0  0  0  0
  184.8310  178.5450  143.0410 C   0  0  0  0  0  3  0  0  0  0  0  0
  186.7350  177.5990  144.3450 C   0  0  0  0  0  2  0  0  0  0  0  0
  184.1350  178.7670  144.1690 C   0  0  0  0  0  0  0  0  0  0  0  0
  186.2780  178.4610  145.5150 C   0  0  2  0  0  3  0  0  0  0  0  0
  186.3120  178.2830  143.0520 C   0  0  1  0  0  3  0  0  0  0  0  0
  186.7310  177.8730  146.7630 N   0  0  0  0  0  2  0  0  0  0  0  0
  188.0910  177.3980  146.5530 C   0  0  0  0  0  2  0  0  0  0  0  0
  188.9720  177.8460  147.7020 C   0  0  0  0  0  1  0  0  0  0  0  0
  186.6600  177.4930  141.9530 O   0  0  0  0  0  0  0  0  0  0  0  0
  187.1910  178.3410  141.0880 O   0  0  0  0  0  0  0  0  0  0  0  0
  188.4620  178.6230  141.6000 C   0  0  0  0  0  2  0  0  0  0  0  0
  189.4210  177.5160  141.1610 C   0  0  1  0  0  3  0  0  0  0  0  0
  190.1110  177.8240  139.8190 C   0  0  1  0  0  3  0  0  0  0  0  0
  191.6060  177.5580  139.9050 C   0  0  0  0  0  1  0  0  0  0  0  0
  189.5430  177.0530  138.6670 C   0  0  0  0  0  0  0  0  0  0  0  0
  188.5820  176.2500  138.8400 O   0  0  0  0  0  0  0  0  0  0  0  0
  190.1410  177.1970  137.3760 N   0  0  0  0  0  2  0  0  0  0  0  0
  189.5870  176.5740  136.1840 C   0  0  1  0  0  3  0  0  0  0  0  0
  188.7820  177.5970  135.4060 C   0  0  0  0  0  1  0  0  0  0  0  0
  190.6610  176.0680  135.3450 N   0  0  0  0  0  2  0  0  0  0  0  0
  191.3600  174.4260  136.8660 O   0  0  0  0  0  0  0  0  0  0  0  0
  191.5170  175.0000  135.7530 C   0  0  0  0  0  3  0  0  0  0  0  0
  190.3400  178.1730  143.4290 C   0  0  0  0  0  1  0  0  0  0  0  0
  190.4410  177.1890  142.2640 C   0  0  1  0  0  3  0  0  0  0  0  0
  190.2500  175.8880  142.7330 O   0  0  0  0  0  0  0  0  0  0  0  0
  191.2880  175.6760  143.6470 C   0  0  0  0  0  1  0  0  0  0  0  0
  1  5  1  0  0  0  0
  2  3  1  1  0  0  0
  2  1  1  0  0  0  0
  3  4  1  0  0  0  0
  4  5  1  0  0  0  0
  5 32  1  1  0  0  0
  6  9  1  0  0  0  0
  7  6  1  0  0  0  0
  7 11  1  0  0  0  0
  8 14  1  6  0  0  0
  8 10  1  0  0  0  0
  8  2  1  0  0  0  0
  9 21  1  0  0  0  0
  9 10  2  0  0  0  0
 11 22  1  1  0  0  0
 11  8  1  0  0  0  0
 12 13  1  0  0  0  0
 13 16  2  0  0  0  0
 13 15  1  0  0  0  0
 14 18  1  0  0  0  0
 15 14  2  0  0  0  0
 16 17  1  0  0  0  0
 17 18  2  0  0  0  0
 20 21  1  0  0  0  0
 21 19  2  0  0  0  0
 23 24  1  0  0  0  0
 23 26  1  0  0  0  0
 25 28  1  6  0  0  0
 26 28  1  0  0  0  0
 26 31  1  1  0  0  0
 27 25  1  0  0  0  0
 27 22  1  1  0  0  0
 29 24  1  6  0  0  0
 29 27  1  0  0  0  0
 29 25  1  0  0  0  0
 31 30  1  0  0  0  0
 32 36  1  0  0  0  0
 34 38  1  0  0  0  0
 34 36  2  0  0  0  0
 35 37  1  0  0  0  0
 36 33  1  0  0  0  0
 37 33  1  0  0  0  0
 37 39  1  1  0  0  0
 38 42  1  6  0  0  0
 38 35  1  0  0  0  0
 40 39  1  0  0  0  0
 40 41  1  0  0  0  0
 43 44  1  0  0  0  0
 43 42  1  0  0  0  0
 45 44  1  1  0  0  0
 45 57  1  0  0  0  0
 46 47  1  1  0  0  0
 46 45  1  0  0  0  0
 48 49  2  0  0  0  0
 48 46  1  0  0  0  0
 50 48  1  0  0  0  0
 51 52  1  6  0  0  0
 51 50  1  0  0  0  0
 53 55  1  0  0  0  0
 53 51  1  0  0  0  0
 55 54  2  0  0  0  0
 57 58  1  0  0  0  0
 57 56  1  1  0  0  0
 58 59  1  0  0  0  0
M  END
>  <MODEL>
3

>  <REMARK>
 VINA RESULT:      -6.5      2.961      6.221
  Name = 
  20 active torsions:
  status: ('A' for Active; 'I' for Inactive)
    1  A    between atoms: O_1  and  C_27
    2  A    between atoms: C_5  and  N_31
    3  A    between atoms: N_10  and  C_22
    4  A    between atoms: C_16  and  C_30
    5  A    between atoms: C_17  and  C_51
    6  A    between atoms: C_19  and  C_30
    7  A    between atoms: C_22  and  N_54
    8  A    between atoms: S_24  and  C_29
    9  A    between atoms: S_24  and  C_56
   10  A    between atoms: C_25  and  C_59
   11  A    between atoms: C_27  and  C_36
   12  A    between atoms: C_28  and  C_32
   13  A    between atoms: N_31  and  C_33
   14  A    between atoms: C_32  and  C_36
   15  A    between atoms: C_35  and  C_55
   16  A    between atoms: C_36  and  C_47
   17  A    between atoms: C_47  and  O_48
   18  A    between atoms: O_48  and  O_50
   19  A    between atoms: C_49  and  O_50
   20  A    between atoms: C_58  and  C_59
                            x       y       z     vdW  Elec       q    Type
                         _______ _______ _______ _____ _____    ______ ____

>  <TORSDO>
F 20

$$$$
=
 OpenBabel11062416113D

 59 64  0  0  1  0  0  0  0  0999 V2000
  184.3670  179.3240  139.7200 S   0  0  0  0  0  0  0  0  0  0  0  0
  182.8800  178.4170  140.2870 C   0  0  2  0  0  3  0  0  0  0  0  0
  183.1950  177.6430  141.5720 C   0  0  0  0  0  2  0  0  0  0  0  0
  184.5260  178.1030  142.1170 C   0  0  0  0  0  2  0  0  0  0  0  0
  185.3960  178.4540  140.9290 C   0  0  2  0  0  3  0  0  0  0  0  0
  179.6120  176.8180  138.1780 C   0  0  0  0  0  2  0  0  0  0  0  0
  180.5360  177.5740  137.4210 O   0  0  0  0  0  0  0  0  0  0  0  0
  182.2500  177.5420  139.1680 C   0  0  1  0  0  0  0  0  0  0  0  0
  180.2510  176.0440  139.3050 C   0  0  0  0  0  0  0  0  0  0  0  0
  181.4320  176.4370  139.7960 C   0  0  0  0  0  3  0  0  0  0  0  0
  181.2950  178.3990  138.2850 C   0  0  2  0  0  3  0  0  0  0  0  0
  184.9640  173.2370  137.7790 Cl  0  0  0  0  0  0  0  0  0  0  0  0
  184.6530  174.9570  137.6520 C   0  0  0  0  0  0  0  0  0  0  0  0
  183.3510  176.9150  138.3070 C   0  0  0  0  0  0  0  0  0  0  0  0
  183.6040  175.5300  138.3750 C   0  0  0  0  0  3  0  0  0  0  0  0
  185.4680  175.7580  136.8500 C   0  0  0  0  0  3  0  0  0  0  0  0
  185.2360  177.1340  136.7730 C   0  0  0  0  0  3  0  0  0  0  0  0
  184.1930  177.7090  137.5020 C   0  0  0  0  0  3  0  0  0  0  0  0
  179.2870  173.8720  139.3820 O   0  0  0  0  0  0  0  0  0  0  0  0
  178.9970  175.1520  141.2960 N   0  0  0  0  0  1  0  0  0  0  0  0
  179.4920  174.9690  139.9690 C   0  0  0  0  0  0  0  0  0  0  0  0
  180.2490  179.6090  139.1960 S   0  0  0  0  0  0  0  0  0  0  0  0
  180.8730  182.4290  134.9880 C   0  0  0  0  0  2  0  0  0  0  0  0
  180.6710  180.9730  135.3950 C   0  0  0  0  0  2  0  0  0  0  0  0
  180.2790  181.8800  137.7130 C   0  0  2  0  0  3  0  0  0  0  0  0
  180.1310  183.3780  135.9410 C   0  0  1  0  0  3  0  0  0  0  0  0
  179.7630  180.4550  137.6690 C   0  0  1  0  0  3  0  0  0  0  0  0
  179.4060  182.6970  136.9530 O   0  0  0  0  0  0  0  0  0  0  0  0
  181.0020  180.8140  136.8750 C   0  0  1  0  0  3  0  0  0  0  0  0
  180.3930  185.2100  137.4590 O   0  0  0  0  0  1  0  0  0  0  0  0
  181.0660  184.4420  136.5050 C   0  0  0  0  0  2  0  0  0  0  0  0
  186.6400  179.2670  141.3040 C   0  0  0  0  0  2  0  0  0  0  0  0
  188.5100  178.0110  142.5590 C   0  0  0  0  0  2  0  0  0  0  0  0
  188.4410  178.1250  140.0670 C   0  0  0  0  0  3  0  0  0  0  0  0
  189.9390  176.4700  141.1800 C   0  0  0  0  0  2  0  0  0  0  0  0
  187.9310  178.5000  141.2530 C   0  0  0  0  0  0  0  0  0  0  0  0
  189.8850  177.3530  142.4210 C   0  0  2  0  0  3  0  0  0  0  0  0
  189.7260  177.3500  139.9570 C   0  0  1  0  0  3  0  0  0  0  0  0
  190.1590  176.5540  143.6030 N   0  0  0  0  0  2  0  0  0  0  0  0
  190.4150  177.4750  144.7010 C   0  0  0  0  0  2  0  0  0  0  0  0
  191.4550  176.8830  145.6320 C   0  0  0  0  0  1  0  0  0  0  0  0
  189.7080  176.5700  138.7980 O   0  0  0  0  0  0  0  0  0  0  0  0
  190.9430  176.6370  138.3310 O   0  0  0  0  0  0  0  0  0  0  0  0
  191.2120  175.3530  137.8470 C   0  0  0  0  0  2  0  0  0  0  0  0
  191.2810  175.4110  136.3200 C   0  0  1  0  0  3  0  0  0  0  0  0
  192.6460  174.9570  135.7690 C   0  0  1  0  0  3  0  0  0  0  0  0
  193.6360  176.1100  135.7630 C   0  0  0  0  0  1  0  0  0  0  0  0
  193.2400  173.8070  136.5240 C   0  0  0  0  0  0  0  0  0  0  0  0
  192.8510  172.6240  136.3060 O   0  0  0  0  0  0  0  0  0  0  0  0
  194.2150  174.0730  137.5340 N   0  0  0  0  0  2  0  0  0  0  0  0
  194.9240  173.0130  138.2350 C   0  0  1  0  0  3  0  0  0  0  0  0
  195.7810  172.2390  137.2520 C   0  0  0  0  0  1  0  0  0  0  0  0
  195.7740  173.5850  139.2670 N   0  0  0  0  0  2  0  0  0  0  0  0
  197.0950  174.8310  137.7840 O   0  0  0  0  0  0  0  0  0  0  0  0
  196.8480  174.4780  138.9710 C   0  0  0  0  0  3  0  0  0  0  0  0
  189.5030  173.6370  136.6560 C   0  0  0  0  0  1  0  0  0  0  0  0
  190.1200  174.6350  135.6780 C   0  0  1  0  0  3  0  0  0  0  0  0
  189.1350  175.5170  135.2280 O   0  0  0  0  0  0  0  0  0  0  0  0
  189.8260  176.6820  134.8770 C   0  0  0  0  0  1  0  0  0  0  0  0
  1  2  1  0  0  0  0
  1  5  1  0  0  0  0
  2  3  1  1  0  0  0
  3  4  1  0  0  0  0
  5 32  1  1  0  0  0
  5  4  1  0  0  0  0
  6  9  1  0  0  0  0
  7  6  1  0  0  0  0
  7 11  1  0  0  0  0
  8 14  1  6  0  0  0
  8 10  1  0  0  0  0
  8  2  1  0  0  0  0
  9 10  2  0  0  0  0
  9 21  1  0  0  0  0
 11  8  1  0  0  0  0
 11 22  1  1  0  0  0
 13 12  1  0  0  0  0
 13 15  1  0  0  0  0
 14 15  2  0  0  0  0
 16 13  2  0  0  0  0
 17 16  1  0  0  0  0
 17 18  2  0  0  0  0
 18 14  1  0  0  0  0
 19 21  2  0  0  0  0
 21 20  1  0  0  0  0
 23 24  1  0  0  0  0
 23 26  1  0  0  0  0
 25 28  1  6  0  0  0
 26 31  1  1  0  0  0
 26 28  1  0  0  0  0
 27 25  1  0  0  0  0
 27 22  1  1  0  0  0
 29 24  1  6  0  0  0
 29 27  1  0  0  0  0
 29 25  1  0  0  0  0
 31 30  1  0  0  0  0
 34 36  2  0  0  0  0
 35 37  1  0  0  0  0
 36 32  1  0  0  0  0
 36 33  1  0  0  0  0
 37 33  1  0  0  0  0
 37 39  1  1  0  0  0
 38 42  1  6  0  0  0
 38 34  1  0  0  0  0
 38 35  1  0  0  0  0
 39 40  1  0  0  0  0
 40 41  1  0  0  0  0
 43 42  1  0  0  0  0
 44 43  1  0  0  0  0
 45 44  1  1  0  0  0
 46 47  1  1  0  0  0
 46 45  1  0  0  0  0
 46 48  1  0  0  0  0
 48 50  1  0  0  0  0
 49 48  2  0  0  0  0
 50 51  1  0  0  0  0
 51 52  1  6  0  0  0
 51 53  1  0  0  0  0
 54 55  2  0  0  0  0
 55 53  1  0  0  0  0
 57 45  1  0  0  0  0
 57 56  1  1  0  0  0
 58 57  1  0  0  0  0
 59 58  1  0  0  0  0
M  END
>  <MODEL>
4

>  <REMARK>
 VINA RESULT:      -6.3      3.493      7.944
  Name = 
  20 active torsions:
  status: ('A' for Active; 'I' for Inactive)
    1  A    between atoms: O_1  and  C_27
    2  A    between atoms: C_5  and  N_31
    3  A    between atoms: N_10  and  C_22
    4  A    between atoms: C_16  and  C_30
    5  A    between atoms: C_17  and  C_51
    6  A    between atoms: C_19  and  C_30
    7  A    between atoms: C_22  and  N_54
    8  A    between atoms: S_24  and  C_29
    9  A    between atoms: S_24  and  C_56
   10  A    between atoms: C_25  and  C_59
   11  A    between atoms: C_27  and  C_36
   12  A    between atoms: C_28  and  C_32
   13  A    between atoms: N_31  and  C_33
   14  A    between atoms: C_32  and  C_36
   15  A    between atoms: C_35  and  C_55
   16  A    between atoms: C_36  and  C_47
   17  A    between atoms: C_47  and  O_48
   18  A    between atoms: O_48  and  O_50
   19  A    between atoms: C_49  and  O_50
   20  A    between atoms: C_58  and  C_59
                            x       y       z     vdW  Elec       q    Type
                         _______ _______ _______ _____ _____    ______ ____

>  <TORSDO>
F 20

$$$$
=
 OpenBabel11062416113D

 59 64  0  0  1  0  0  0  0  0999 V2000
  183.3360  177.1840  140.2650 S   0  0  0  0  0  0  0  0  0  0  0  0
  183.1380  177.9980  138.6370 C   0  0  2  0  0  3  0  0  0  0  0  0
  183.6610  179.4370  138.7010 C   0  0  0  0  0  2  0  0  0  0  0  0
  184.4330  179.6290  139.9850 C   0  0  0  0  0  2  0  0  0  0  0  0
  183.7720  178.7630  141.0360 C   0  0  2  0  0  3  0  0  0  0  0  0
  180.2580  178.3350  135.5910 C   0  0  0  0  0  2  0  0  0  0  0  0
  180.4130  177.0530  136.1660 O   0  0  0  0  0  0  0  0  0  0  0  0
  181.6910  177.8830  138.0820 C   0  0  1  0  0  0  0  0  0  0  0  0
  180.4740  179.4630  136.5700 C   0  0  0  0  0  0  0  0  0  0  0  0
  181.1990  179.2540  137.6750 C   0  0  0  0  0  3  0  0  0  0  0  0
  181.6680  176.9740  136.8180 C   0  0  2  0  0  3  0  0  0  0  0  0
  179.4770  173.6710  140.3590 Cl  0  0  0  0  0  0  0  0  0  0  0  0
  179.6860  175.4060  140.2270 C   0  0  0  0  0  0  0  0  0  0  0  0
  180.7570  177.3220  139.1590 C   0  0  0  0  0  0  0  0  0  0  0  0
  180.5900  175.9290  139.3000 C   0  0  0  0  0  3  0  0  0  0  0  0
  178.9310  176.2650  141.0270 C   0  0  0  0  0  3  0  0  0  0  0  0
  179.0780  177.6490  140.8990 C   0  0  0  0  0  3  0  0  0  0  0  0
  179.9760  178.1730  139.9670 C   0  0  0  0  0  3  0  0  0  0  0  0
  179.3360  181.0250  135.1860 O   0  0  0  0  0  0  0  0  0  0  0  0
  180.3760  181.9300  137.0540 N   0  0  0  0  0  1  0  0  0  0  0  0
  180.0340  180.8240  136.2170 C   0  0  0  0  0  0  0  0  0  0  0  0
  183.0760  177.2010  135.6550 S   0  0  0  0  0  0  0  0  0  0  0  0
  183.6830  172.2300  136.6420 C   0  0  0  0  0  2  0  0  0  0  0  0
  182.5730  173.2290  136.3340 C   0  0  0  0  0  2  0  0  0  0  0  0
  184.4360  174.8660  135.8900 C   0  0  2  0  0  3  0  0  0  0  0  0
  184.9830  172.6060  135.9150 C   0  0  1  0  0  3  0  0  0  0  0  0
  183.1610  175.4280  135.2920 C   0  0  1  0  0  3  0  0  0  0  0  0
  184.8530  173.7630  135.1050 O   0  0  0  0  0  0  0  0  0  0  0  0
  183.0840  174.6430  136.5850 C   0  0  1  0  0  3  0  0  0  0  0  0
  185.6830  172.8550  138.1900 O   0  0  0  0  0  1  0  0  0  0  0  0
  186.1560  172.6980  136.8850 C   0  0  0  0  0  2  0  0  0  0  0  0
  184.6310  178.5630  142.2900 C   0  0  0  0  0  2  0  0  0  0  0  0
  186.9180  177.6970  143.1090 C   0  0  0  0  0  2  0  0  0  0  0  0
  186.5890  178.5640  140.7920 C   0  0  0  0  0  3  0  0  0  0  0  0
  188.6460  177.2620  141.3360 C   0  0  0  0  0  2  0  0  0  0  0  0
  186.0930  178.3450  142.0220 C   0  0  0  0  0  0  0  0  0  0  0  0
  188.4150  177.6310  142.7970 C   0  0  2  0  0  3  0  0  0  0  0  0
  188.0420  178.3550  140.4650 C   0  0  1  0  0  3  0  0  0  0  0  0
  189.0440  176.6450  143.6570 N   0  0  0  0  0  2  0  0  0  0  0  0
  190.4680  176.9450  143.6950 C   0  0  0  0  0  2  0  0  0  0  0  0
  190.6900  178.2860  144.3660 C   0  0  0  0  0  1  0  0  0  0  0  0
  188.1800  178.0250  139.1150 O   0  0  0  0  0  0  0  0  0  0  0  0
  189.4650  177.7530  138.9660 O   0  0  0  0  0  0  0  0  0  0  0  0
  189.7490  178.0880  137.6370 C   0  0  0  0  0  2  0  0  0  0  0  0
  190.1750  176.8210  136.8950 C   0  0  1  0  0  3  0  0  0  0  0  0
  190.7390  175.7420  137.8380 C   0  0  1  0  0  3  0  0  0  0  0  0
  190.3790  174.3500  137.3420 C   0  0  0  0  0  1  0  0  0  0  0  0
  192.2240  175.8260  138.0180 C   0  0  0  0  0  0  0  0  0  0  0  0
  192.7340  176.7130  138.7610 O   0  0  0  0  0  0  0  0  0  0  0  0
  193.0620  174.9220  137.2940 N   0  0  0  0  0  2  0  0  0  0  0  0
  194.5020  174.8590  137.4930 C   0  0  1  0  0  3  0  0  0  0  0  0
  194.8570  173.5780  138.2230 C   0  0  0  0  0  1  0  0  0  0  0  0
  195.1800  174.8840  136.2080 N   0  0  0  0  0  2  0  0  0  0  0  0
  194.9960  177.2040  135.9200 O   0  0  0  0  0  0  0  0  0  0  0  0
  195.3830  176.0900  135.4700 C   0  0  0  0  0  3  0  0  0  0  0  0
  187.7390  176.1300  136.8140 C   0  0  0  0  0  1  0  0  0  0  0  0
  189.0360  176.2750  136.0190 C   0  0  1  0  0  3  0  0  0  0  0  0
  188.8210  177.1130  134.9230 O   0  0  0  0  0  0  0  0  0  0  0  0
  187.4400  177.3360  134.9020 C   0  0  0  0  0  1  0  0  0  0  0  0
  1  5  1  0  0  0  0
  2  3  1  1  0  0  0
  2  1  1  0  0  0  0
  3  4  1  0  0  0  0
  4  5  1  0  0  0  0
  5 32  1  1  0  0  0
  6  7  1  0  0  0  0
  6  9  1  0  0  0  0
  7 11  1  0  0  0  0
  8  2  1  0  0  0  0
  8 14  1  1  0  0  0
  9 10  2  0  0  0  0
 10  8  1  0  0  0  0
 11 22  1  6  0  0  0
 11  8  1  0  0  0  0
 13 12  1  0  0  0  0
 13 16  1  0  0  0  0
 14 15  1  0  0  0  0
 14 18  2  0  0  0  0
 15 13  2  0  0  0  0
 17 16  2  0  0  0  0
 18 17  1  0  0  0  0
 19 21  2  0  0  0  0
 21  9  1  0  0  0  0
 21 20  1  0  0  0  0
 24 23  1  0  0  0  0
 25 28  1  6  0  0  0
 25 29  1  0  0  0  0
 26 23  1  0  0  0  0
 26 31  1  1  0  0  0
 27 22  1  1  0  0  0
 27 25  1  0  0  0  0
 27 29  1  0  0  0  0
 28 26  1  0  0  0  0
 29 24  1  6  0  0  0
 31 30  1  0  0  0  0
 34 36  2  0  0  0  0
 35 37  1  0  0  0  0
 36 32  1  0  0  0  0
 36 33  1  0  0  0  0
 37 33  1  0  0  0  0
 37 39  1  1  0  0  0
 38 42  1  6  0  0  0
 38 34  1  0  0  0  0
 38 35  1  0  0  0  0
 39 40  1  0  0  0  0
 40 41  1  0  0  0  0
 43 42  1  0  0  0  0
 44 43  1  0  0  0  0
 45 44  1  1  0  0  0
 45 46  1  0  0  0  0
 46 47  1  6  0  0  0
 46 48  1  0  0  0  0
 48 49  2  0  0  0  0
 50 51  1  0  0  0  0
 50 48  1  0  0  0  0
 51 52  1  6  0  0  0
 53 51  1  0  0  0  0
 55 54  2  0  0  0  0
 55 53  1  0  0  0  0
 57 56  1  1  0  0  0
 57 45  1  0  0  0  0
 58 57  1  0  0  0  0
 59 58  1  0  0  0  0
M  END
>  <MODEL>
5

>  <REMARK>
 VINA RESULT:      -6.2      2.662      5.578
  Name = 
  20 active torsions:
  status: ('A' for Active; 'I' for Inactive)
    1  A    between atoms: O_1  and  C_27
    2  A    between atoms: C_5  and  N_31
    3  A    between atoms: N_10  and  C_22
    4  A    between atoms: C_16  and  C_30
    5  A    between atoms: C_17  and  C_51
    6  A    between atoms: C_19  and  C_30
    7  A    between atoms: C_22  and  N_54
    8  A    between atoms: S_24  and  C_29
    9  A    between atoms: S_24  and  C_56
   10  A    between atoms: C_25  and  C_59
   11  A    between atoms: C_27  and  C_36
   12  A    between atoms: C_28  and  C_32
   13  A    between atoms: N_31  and  C_33
   14  A    between atoms: C_32  and  C_36
   15  A    between atoms: C_35  and  C_55
   16  A    between atoms: C_36  and  C_47
   17  A    between atoms: C_47  and  O_48
   18  A    between atoms: O_48  and  O_50
   19  A    between atoms: C_49  and  O_50
   20  A    between atoms: C_58  and  C_59
                            x       y       z     vdW  Elec       q    Type
                         _______ _______ _______ _____ _____    ______ ____

>  <TORSDO>
F 20

$$$$
=
 OpenBabel11062416113D

 59 64  0  0  1  0  0  0  0  0999 V2000
  183.6390  177.1140  137.1580 S   0  0  0  0  0  0  0  0  0  0  0  0
  183.0190  175.6790  138.1120 C   0  0  2  0  0  3  0  0  0  0  0  0
  183.8570  174.4350  137.7960 C   0  0  0  0  0  2  0  0  0  0  0  0
  185.0950  174.8500  137.0360 C   0  0  0  0  0  2  0  0  0  0  0  0
  184.7130  176.0360  136.1770 C   0  0  2  0  0  3  0  0  0  0  0  0
  178.9950  176.5030  139.0170 C   0  0  0  0  0  2  0  0  0  0  0  0
  179.3810  176.6770  137.6680 O   0  0  0  0  0  0  0  0  0  0  0  0
  181.4900  175.4620  137.9400 C   0  0  1  0  0  0  0  0  0  0  0  0
  179.7220  175.3750  139.7090 C   0  0  0  0  0  0  0  0  0  0  0  0
  180.9040  174.9600  139.2400 C   0  0  0  0  0  3  0  0  0  0  0  0
  180.7890  176.8090  137.5910 C   0  0  2  0  0  3  0  0  0  0  0  0
  179.2830  170.8850  136.5250 Cl  0  0  0  0  0  0  0  0  0  0  0  0
  180.2450  172.3000  136.1490 C   0  0  0  0  0  0  0  0  0  0  0  0
  181.2240  174.4250  136.8440 C   0  0  0  0  0  0  0  0  0  0  0  0
  180.4340  173.2900  137.1160 C   0  0  0  0  0  3  0  0  0  0  0  0
  180.8450  172.4250  134.8940 C   0  0  0  0  0  3  0  0  0  0  0  0
  181.6360  173.5410  134.6070 C   0  0  0  0  0  3  0  0  0  0  0  0
  181.8320  174.5270  135.5760 C   0  0  0  0  0  3  0  0  0  0  0  0
  178.9760  175.6440  141.9500 O   0  0  0  0  0  0  0  0  0  0  0  0
  178.9500  173.4650  141.1520 N   0  0  0  0  0  1  0  0  0  0  0  0
  179.2090  174.8590  140.9900 C   0  0  0  0  0  0  0  0  0  0  0  0
  181.4050  178.2810  138.5070 S   0  0  0  0  0  0  0  0  0  0  0  0
  180.3930  181.9980  135.1580 C   0  0  0  0  0  2  0  0  0  0  0  0
  180.3230  180.4790  135.2690 C   0  0  0  0  0  2  0  0  0  0  0  0
  180.9150  180.8220  137.6930 C   0  0  2  0  0  3  0  0  0  0  0  0
  180.1220  182.6640  136.5160 C   0  0  1  0  0  3  0  0  0  0  0  0
  180.3790  179.4130  137.5330 C   0  0  1  0  0  3  0  0  0  0  0  0
  179.8390  181.7320  137.5470 O   0  0  0  0  0  0  0  0  0  0  0  0
  181.2100  180.0160  136.4190 C   0  0  1  0  0  3  0  0  0  0  0  0
  180.7560  184.5900  137.7880 O   0  0  0  0  0  1  0  0  0  0  0  0
  181.2390  183.6330  136.8920 C   0  0  0  0  0  2  0  0  0  0  0  0
  185.9210  176.7970  135.6180 C   0  0  0  0  0  2  0  0  0  0  0  0
  188.3750  176.0130  135.7450 C   0  0  0  0  0  2  0  0  0  0  0  0
  187.2790  177.2280  137.6290 C   0  0  0  0  0  3  0  0  0  0  0  0
  189.7610  176.9860  137.6020 C   0  0  0  0  0  2  0  0  0  0  0  0
  187.1830  176.6500  136.4200 C   0  0  0  0  0  0  0  0  0  0  0  0
  189.5700  175.7910  136.6750 C   0  0  2  0  0  3  0  0  0  0  0  0
  188.5200  177.1200  138.4730 C   0  0  1  0  0  3  0  0  0  0  0  0
  190.7680  175.5900  135.8810 N   0  0  0  0  0  2  0  0  0  0  0  0
  191.8840  176.1570  136.6250 C   0  0  0  0  0  2  0  0  0  0  0  0
  193.0880  175.2430  136.5150 C   0  0  0  0  0  1  0  0  0  0  0  0
  188.6290  178.2420  139.2980 O   0  0  0  0  0  0  0  0  0  0  0  0
  188.0230  177.8910  140.4200 O   0  0  0  0  0  0  0  0  0  0  0  0
  188.9770  177.1480  141.1230 C   0  0  0  0  0  2  0  0  0  0  0  0
  189.0480  177.6770  142.5560 C   0  0  1  0  0  3  0  0  0  0  0  0
  188.2690  176.7980  143.5530 C   0  0  1  0  0  3  0  0  0  0  0  0
  189.0720  176.5830  144.8260 C   0  0  0  0  0  1  0  0  0  0  0  0
  186.9240  177.3540  143.9120 C   0  0  0  0  0  0  0  0  0  0  0  0
  186.0220  177.4730  143.0350 O   0  0  0  0  0  0  0  0  0  0  0  0
  186.6940  177.7980  145.2510 N   0  0  0  0  0  2  0  0  0  0  0  0
  185.3890  178.2450  145.7130 C   0  0  1  0  0  3  0  0  0  0  0  0
  185.2180  177.8830  147.1750 C   0  0  0  0  0  1  0  0  0  0  0  0
  185.2770  179.6870  145.5590 N   0  0  0  0  0  2  0  0  0  0  0  0
  184.5060  179.6010  143.3460 O   0  0  0  0  0  0  0  0  0  0  0  0
  184.8400  180.2980  144.3440 C   0  0  0  0  0  3  0  0  0  0  0  0
  191.4590  177.8940  141.8110 C   0  0  0  0  0  1  0  0  0  0  0  0
  190.5030  177.8920  143.0020 C   0  0  1  0  0  3  0  0  0  0  0  0
  190.6250  179.0940  143.7020 O   0  0  0  0  0  0  0  0  0  0  0  0
  191.9930  179.2270  143.9590 C   0  0  0  0  0  1  0  0  0  0  0  0
  1  2  1  0  0  0  0
  2  3  1  6  0  0  0
  4  3  1  0  0  0  0
  5 32  1  1  0  0  0
  5  4  1  0  0  0  0
  5  1  1  0  0  0  0
  6  9  1  0  0  0  0
  7  6  1  0  0  0  0
  8 14  1  6  0  0  0
  8  2  1  0  0  0  0
  8 10  1  0  0  0  0
  9 21  1  0  0  0  0
 10  9  2  0  0  0  0
 11  7  1  0  0  0  0
 11  8  1  0  0  0  0
 11 22  1  1  0  0  0
 13 12  1  0  0  0  0
 13 15  1  0  0  0  0
 14 15  2  0  0  0  0
 16 13  2  0  0  0  0
 17 16  1  0  0  0  0
 17 18  2  0  0  0  0
 18 14  1  0  0  0  0
 21 20  1  0  0  0  0
 21 19  2  0  0  0  0
 23 24  1  0  0  0  0
 23 26  1  0  0  0  0
 25 28  1  6  0  0  0
 26 31  1  1  0  0  0
 26 28  1  0  0  0  0
 27 25  1  0  0  0  0
 27 22  1  1  0  0  0
 29 24  1  6  0  0  0
 29 27  1  0  0  0  0
 29 25  1  0  0  0  0
 31 30  1  0  0  0  0
 32 36  1  0  0  0  0
 33 36  1  0  0  0  0
 33 37  1  0  0  0  0
 34 38  1  0  0  0  0
 35 38  1  0  0  0  0
 36 34  2  0  0  0  0
 37 39  1  6  0  0  0
 37 35  1  0  0  0  0
 38 42  1  6  0  0  0
 39 40  1  0  0  0  0
 41 40  1  0  0  0  0
 42 43  1  0  0  0  0
 43 44  1  0  0  0  0
 45 44  1  6  0  0  0
 45 57  1  0  0  0  0
 45 46  1  0  0  0  0
 46 48  1  0  0  0  0
 46 47  1  1  0  0  0
 48 50  1  0  0  0  0
 49 48  2  0  0  0  0
 50 51  1  0  0  0  0
 51 52  1  1  0  0  0
 53 51  1  0  0  0  0
 54 55  2  0  0  0  0
 55 53  1  0  0  0  0
 57 56  1  6  0  0  0
 57 58  1  0  0  0  0
 58 59  1  0  0  0  0
M  END
>  <MODEL>
6

>  <REMARK>
 VINA RESULT:      -5.0      3.037      7.207
  Name = 
  20 active torsions:
  status: ('A' for Active; 'I' for Inactive)
    1  A    between atoms: O_1  and  C_27
    2  A    between atoms: C_5  and  N_31
    3  A    between atoms: N_10  and  C_22
    4  A    between atoms: C_16  and  C_30
    5  A    between atoms: C_17  and  C_51
    6  A    between atoms: C_19  and  C_30
    7  A    between atoms: C_22  and  N_54
    8  A    between atoms: S_24  and  C_29
    9  A    between atoms: S_24  and  C_56
   10  A    between atoms: C_25  and  C_59
   11  A    between atoms: C_27  and  C_36
   12  A    between atoms: C_28  and  C_32
   13  A    between atoms: N_31  and  C_33
   14  A    between atoms: C_32  and  C_36
   15  A    between atoms: C_35  and  C_55
   16  A    between atoms: C_36  and  C_47
   17  A    between atoms: C_47  and  O_48
   18  A    between atoms: O_48  and  O_50
   19  A    between atoms: C_49  and  O_50
   20  A    between atoms: C_58  and  C_59
                            x       y       z     vdW  Elec       q    Type
                         _______ _______ _______ _____ _____    ______ ____

>  <TORSDO>
F 20

$$$$
=
 OpenBabel11062416113D

 59 64  0  0  1  0  0  0  0  0999 V2000
  183.2610  177.3290  140.6220 S   0  0  0  0  0  0  0  0  0  0  0  0
  183.2100  178.3590  139.1090 C   0  0  2  0  0  3  0  0  0  0  0  0
  184.1560  179.5560  139.2540 C   0  0  0  0  0  2  0  0  0  0  0  0
  185.0390  179.3480  140.4620 C   0  0  0  0  0  2  0  0  0  0  0  0
  184.2180  178.5980  141.4890 C   0  0  2  0  0  3  0  0  0  0  0  0
  180.3270  179.6940  136.3520 C   0  0  0  0  0  2  0  0  0  0  0  0
  180.0920  178.4310  136.9410 O   0  0  0  0  0  0  0  0  0  0  0  0
  181.7630  178.7520  138.7020 C   0  0  1  0  0  0  0  0  0  0  0  0
  181.0130  180.6690  137.2780 C   0  0  0  0  0  0  0  0  0  0  0  0
  181.7300  180.2130  138.3110 C   0  0  0  0  0  3  0  0  0  0  0  0
  181.3030  177.9190  137.4680 C   0  0  2  0  0  3  0  0  0  0  0  0
  179.7040  180.5480  143.2140 Cl  0  0  0  0  0  0  0  0  0  0  0  0
  179.8460  179.3090  141.9840 C   0  0  0  0  0  0  0  0  0  0  0  0
  180.8060  178.5330  139.8780 C   0  0  0  0  0  0  0  0  0  0  0  0
  180.6570  179.5260  140.8680 C   0  0  0  0  0  3  0  0  0  0  0  0
  179.1710  178.0950  142.1310 C   0  0  0  0  0  3  0  0  0  0  0  0
  179.3090  177.0970  141.1640 C   0  0  0  0  0  3  0  0  0  0  0  0
  180.1270  177.3110  140.0510 C   0  0  0  0  0  3  0  0  0  0  0  0
  180.7270  182.4890  135.7750 O   0  0  0  0  0  0  0  0  0  0  0  0
  181.3740  183.0730  137.9270 N   0  0  0  0  0  1  0  0  0  0  0  0
  181.0310  182.1020  136.9370 C   0  0  0  0  0  0  0  0  0  0  0  0
  182.5800  177.6630  136.1680 S   0  0  0  0  0  0  0  0  0  0  0  0
  181.0600  172.7990  135.8690 C   0  0  0  0  0  2  0  0  0  0  0  0
  182.1340  173.7210  135.3010 C   0  0  0  0  0  2  0  0  0  0  0  0
  181.2770  175.4180  136.9540 C   0  0  2  0  0  3  0  0  0  0  0  0
  180.6970  173.1940  137.3080 C   0  0  1  0  0  3  0  0  0  0  0  0
  182.6370  175.8770  136.4690 C   0  0  1  0  0  3  0  0  0  0  0  0
  181.4550  174.2900  137.7930 O   0  0  0  0  0  0  0  0  0  0  0  0
  181.7100  175.1720  135.5010 C   0  0  1  0  0  3  0  0  0  0  0  0
  178.9520  174.5590  138.2140 O   0  0  0  0  0  1  0  0  0  0  0  0
  179.1950  173.4050  137.4660 C   0  0  0  0  0  2  0  0  0  0  0  0
  185.0610  177.9980  142.6210 C   0  0  0  0  0  2  0  0  0  0  0  0
  187.4620  177.7910  143.5390 C   0  0  0  0  0  2  0  0  0  0  0  0
  186.9930  177.9270  141.0920 C   0  0  0  0  0  3  0  0  0  0  0  0
  189.2460  177.1930  141.8720 C   0  0  0  0  0  2  0  0  0  0  0  0
  186.5390  177.9680  142.3560 C   0  0  0  0  0  0  0  0  0  0  0  0
  188.9480  177.9000  143.1900 C   0  0  2  0  0  3  0  0  0  0  0  0
  188.4620  177.8890  140.7690 C   0  0  1  0  0  3  0  0  0  0  0  0
  189.7380  177.3060  144.2530 N   0  0  0  0  0  2  0  0  0  0  0  0
  189.0530  177.5780  145.5090 C   0  0  0  0  0  2  0  0  0  0  0  0
  189.8830  177.0580  146.6660 C   0  0  0  0  0  1  0  0  0  0  0  0
  188.6600  177.2340  139.5500 O   0  0  0  0  0  0  0  0  0  0  0  0
  189.9630  177.0190  139.4950 O   0  0  0  0  0  0  0  0  0  0  0  0
  190.4060  177.7890  138.4140 C   0  0  0  0  0  2  0  0  0  0  0  0
  190.9280  176.8480  137.3270 C   0  0  1  0  0  3  0  0  0  0  0  0
  191.6320  175.6060  137.9030 C   0  0  1  0  0  3  0  0  0  0  0  0
  191.2530  174.3580  137.1200 C   0  0  0  0  0  1  0  0  0  0  0  0
  193.1250  175.7280  137.9350 C   0  0  0  0  0  0  0  0  0  0  0  0
  193.6840  176.8470  137.7510 O   0  0  0  0  0  0  0  0  0  0  0  0
  193.9120  174.5500  138.1220 N   0  0  0  0  0  2  0  0  0  0  0  0
  195.3580  174.5910  138.2770 C   0  0  1  0  0  3  0  0  0  0  0  0
  195.7080  174.6530  139.7510 C   0  0  0  0  0  1  0  0  0  0  0  0
  195.9530  173.4000  137.6920 N   0  0  0  0  0  2  0  0  0  0  0  0
  197.1370  174.5530  136.0280 O   0  0  0  0  0  0  0  0  0  0  0  0
  196.8240  173.4520  136.5610 C   0  0  0  0  0  3  0  0  0  0  0  0
  188.9040  175.3840  136.9090 C   0  0  0  0  0  1  0  0  0  0  0  0
  189.8160  176.4660  136.3360 C   0  0  1  0  0  3  0  0  0  0  0  0
  189.0570  177.5890  136.0010 O   0  0  0  0  0  0  0  0  0  0  0  0
  188.8870  177.5120  134.6150 C   0  0  0  0  0  1  0  0  0  0  0  0
  1  5  1  0  0  0  0
  2  3  1  1  0  0  0
  2  1  1  0  0  0  0
  3  4  1  0  0  0  0
  4  5  1  0  0  0  0
  5 32  1  1  0  0  0
  6  7  1  0  0  0  0
  6  9  1  0  0  0  0
  7 11  1  0  0  0  0
  8  2  1  0  0  0  0
  8 14  1  1  0  0  0
  9 10  2  0  0  0  0
 10  8  1  0  0  0  0
 11 22  1  6  0  0  0
 11  8  1  0  0  0  0
 13 16  1  0  0  0  0
 13 12  1  0  0  0  0
 14 18  2  0  0  0  0
 14 15  1  0  0  0  0
 15 13  2  0  0  0  0
 17 16  2  0  0  0  0
 18 17  1  0  0  0  0
 19 21  2  0  0  0  0
 21  9  1  0  0  0  0
 21 20  1  0  0  0  0
 23 26  1  0  0  0  0
 24 23  1  0  0  0  0
 25 28  1  1  0  0  0
 26 31  1  6  0  0  0
 26 28  1  0  0  0  0
 27 22  1  6  0  0  0
 27 25  1  0  0  0  0
 29 24  1  1  0  0  0
 29 27  1  0  0  0  0
 29 25  1  0  0  0  0
 31 30  1  0  0  0  0
 34 36  2  0  0  0  0
 35 37  1  0  0  0  0
 36 32  1  0  0  0  0
 36 33  1  0  0  0  0
 37 33  1  0  0  0  0
 37 39  1  1  0  0  0
 38 42  1  6  0  0  0
 38 34  1  0  0  0  0
 38 35  1  0  0  0  0
 39 40  1  0  0  0  0
 40 41  1  0  0  0  0
 43 42  1  0  0  0  0
 44 43  1  0  0  0  0
 45 46  1  0  0  0  0
 45 44  1  1  0  0  0
 46 47  1  6  0  0  0
 46 48  1  0  0  0  0
 48 50  1  0  0  0  0
 49 48  2  0  0  0  0
 50 51  1  0  0  0  0
 51 52  1  1  0  0  0
 53 51  1  0  0  0  0
 54 55  2  0  0  0  0
 55 53  1  0  0  0  0
 57 56  1  1  0  0  0
 57 45  1  0  0  0  0
 58 57  1  0  0  0  0
 59 58  1  0  0  0  0
M  END
>  <MODEL>
7

>  <REMARK>
 VINA RESULT:      -4.9      3.186      6.080
  Name = 
  20 active torsions:
  status: ('A' for Active; 'I' for Inactive)
    1  A    between atoms: O_1  and  C_27
    2  A    between atoms: C_5  and  N_31
    3  A    between atoms: N_10  and  C_22
    4  A    between atoms: C_16  and  C_30
    5  A    between atoms: C_17  and  C_51
    6  A    between atoms: C_19  and  C_30
    7  A    between atoms: C_22  and  N_54
    8  A    between atoms: S_24  and  C_29
    9  A    between atoms: S_24  and  C_56
   10  A    between atoms: C_25  and  C_59
   11  A    between atoms: C_27  and  C_36
   12  A    between atoms: C_28  and  C_32
   13  A    between atoms: N_31  and  C_33
   14  A    between atoms: C_32  and  C_36
   15  A    between atoms: C_35  and  C_55
   16  A    between atoms: C_36  and  C_47
   17  A    between atoms: C_47  and  O_48
   18  A    between atoms: O_48  and  O_50
   19  A    between atoms: C_49  and  O_50
   20  A    between atoms: C_58  and  C_59
                            x       y       z     vdW  Elec       q    Type
                         _______ _______ _______ _____ _____    ______ ____

>  <TORSDO>
F 20

$$$$
=
 OpenBabel11062416113D

 59 64  0  0  1  0  0  0  0  0999 V2000
  183.4230  176.6360  139.0700 S   0  0  0  0  0  0  0  0  0  0  0  0
  183.1250  175.4870  137.6760 C   0  0  2  0  0  3  0  0  0  0  0  0
  183.7210  176.0600  136.3850 C   0  0  0  0  0  2  0  0  0  0  0  0
  184.6100  177.2320  136.7260 C   0  0  0  0  0  2  0  0  0  0  0  0
  184.0000  177.9180  137.9290 C   0  0  2  0  0  3  0  0  0  0  0  0
  179.0300  175.9470  138.5180 C   0  0  0  0  0  2  0  0  0  0  0  0
  179.3980  176.0010  137.1540 O   0  0  0  0  0  0  0  0  0  0  0  0
  181.6310  175.0780  137.5460 C   0  0  1  0  0  0  0  0  0  0  0  0
  179.8790  175.0000  139.3310 C   0  0  0  0  0  0  0  0  0  0  0  0
  181.1030  174.6700  138.9040 C   0  0  0  0  0  3  0  0  0  0  0  0
  180.7810  176.2840  137.0470 C   0  0  2  0  0  3  0  0  0  0  0  0
  183.4450  170.4220  135.8550 Cl  0  0  0  0  0  0  0  0  0  0  0  0
  182.3080  171.7510  135.7490 C   0  0  0  0  0  0  0  0  0  0  0  0
  181.4910  173.8930  136.5840 C   0  0  0  0  0  0  0  0  0  0  0  0
  182.3780  172.8020  136.6660 C   0  0  0  0  0  3  0  0  0  0  0  0
  181.3510  171.7740  134.7320 C   0  0  0  0  0  3  0  0  0  0  0  0
  180.4650  172.8500  134.6310 C   0  0  0  0  0  3  0  0  0  0  0  0
  180.5400  173.9050  135.5440 C   0  0  0  0  0  3  0  0  0  0  0  0
  179.2710  173.3640  140.9460 O   0  0  0  0  0  0  0  0  0  0  0  0
  179.1710  175.5640  141.6780 N   0  0  0  0  0  1  0  0  0  0  0  0
  179.4240  174.5850  140.6700 C   0  0  0  0  0  0  0  0  0  0  0  0
  181.2210  177.9160  137.7760 S   0  0  0  0  0  0  0  0  0  0  0  0
  180.5140  181.8450  134.5950 C   0  0  0  0  0  2  0  0  0  0  0  0
  181.1870  180.4770  134.6250 C   0  0  0  0  0  2  0  0  0  0  0  0
  180.0490  180.1810  136.8530 C   0  0  2  0  0  3  0  0  0  0  0  0
  179.2400  181.8530  135.4530 C   0  0  1  0  0  3  0  0  0  0  0  0
  180.5110  178.8190  136.3740 C   0  0  1  0  0  3  0  0  0  0  0  0
  178.9600  180.5950  136.0460 O   0  0  0  0  0  0  0  0  0  0  0  0
  181.3640  180.0340  136.0730 C   0  0  1  0  0  3  0  0  0  0  0  0
  180.5720  183.4380  136.6540 O   0  0  0  0  0  1  0  0  0  0  0  0
  179.2620  182.9880  136.4710 C   0  0  0  0  0  2  0  0  0  0  0  0
  184.9530  178.9020  138.6180 C   0  0  0  0  0  2  0  0  0  0  0  0
  183.5940  178.7320  140.8030 C   0  0  0  0  0  2  0  0  0  0  0  0
  186.0890  178.7310  140.7990 C   0  0  0  0  0  3  0  0  0  0  0  0
  184.8640  178.0280  142.8540 C   0  0  0  0  0  2  0  0  0  0  0  0
  184.9360  178.8470  140.1190 C   0  0  0  0  0  0  0  0  0  0  0  0
  183.6660  178.8110  142.3300 C   0  0  2  0  0  3  0  0  0  0  0  0
  186.1310  178.6650  142.3010 C   0  0  1  0  0  3  0  0  0  0  0  0
  182.4430  178.2730  142.8990 N   0  0  0  0  0  2  0  0  0  0  0  0
  181.4720  179.3570  142.9460 C   0  0  0  0  0  2  0  0  0  0  0  0
  180.0840  178.7900  143.1710 C   0  0  0  0  0  1  0  0  0  0  0  0
  187.2530  177.9400  142.7110 O   0  0  0  0  0  0  0  0  0  0  0  0
  187.0970  177.7910  144.0150 O   0  0  0  0  0  0  0  0  0  0  0  0
  187.8550  176.6600  144.3370 C   0  0  0  0  0  2  0  0  0  0  0  0
  189.3190  177.0780  144.4760 C   0  0  1  0  0  3  0  0  0  0  0  0
  189.8570  177.7870  143.2180 C   0  0  1  0  0  3  0  0  0  0  0  0
  191.2310  178.3830  143.4800 C   0  0  0  0  0  1  0  0  0  0  0  0
  189.9320  176.8940  142.0180 C   0  0  0  0  0  0  0  0  0  0  0  0
  189.7610  175.6470  142.1310 O   0  0  0  0  0  0  0  0  0  0  0  0
  190.2530  177.4680  140.7480 N   0  0  0  0  0  2  0  0  0  0  0  0
  190.2370  176.6960  139.5150 C   0  0  1  0  0  3  0  0  0  0  0  0
  189.0230  177.0810  138.6920 C   0  0  0  0  0  1  0  0  0  0  0  0
  191.4420  176.9640  138.7480 N   0  0  0  0  0  2  0  0  0  0  0  0
  191.6700  174.7740  137.9420 O   0  0  0  0  0  0  0  0  0  0  0  0
  192.1140  175.9540  137.9940 C   0  0  0  0  0  3  0  0  0  0  0  0
  188.3420  177.8470  146.6830 C   0  0  0  0  0  1  0  0  0  0  0  0
  189.5450  177.9170  145.7440 C   0  0  1  0  0  3  0  0  0  0  0  0
  190.6890  177.4830  146.4170 O   0  0  0  0  0  0  0  0  0  0  0  0
  190.2140  176.6770  147.4570 C   0  0  0  0  0  1  0  0  0  0  0  0
  2  3  1  6  0  0  0
  2  1  1  0  0  0  0
  3  4  1  0  0  0  0
  4  5  1  0  0  0  0
  5 32  1  1  0  0  0
  5  1  1  0  0  0  0
  6  9  1  0  0  0  0
  7  6  1  0  0  0  0
  8 14  1  6  0  0  0
  8  2  1  0  0  0  0
  8 10  1  0  0  0  0
  9 21  1  0  0  0  0
 10  9  2  0  0  0  0
 11  7  1  0  0  0  0
 11  8  1  0  0  0  0
 11 22  1  1  0  0  0
 13 12  1  0  0  0  0
 13 15  1  0  0  0  0
 14 15  2  0  0  0  0
 16 13  2  0  0  0  0
 17 16  1  0  0  0  0
 17 18  2  0  0  0  0
 18 14  1  0  0  0  0
 21 19  2  0  0  0  0
 21 20  1  0  0  0  0
 23 24  1  0  0  0  0
 23 26  1  0  0  0  0
 25 28  1  6  0  0  0
 26 28  1  0  0  0  0
 26 31  1  1  0  0  0
 27 25  1  0  0  0  0
 27 22  1  1  0  0  0
 29 24  1  6  0  0  0
 29 27  1  0  0  0  0
 29 25  1  0  0  0  0
 31 30  1  0  0  0  0
 32 36  1  0  0  0  0
 33 37  1  0  0  0  0
 34 38  1  0  0  0  0
 36 34  2  0  0  0  0
 36 33  1  0  0  0  0
 37 35  1  0  0  0  0
 37 39  1  1  0  0  0
 38 42  1  6  0  0  0
 38 35  1  0  0  0  0
 39 40  1  0  0  0  0
 40 41  1  0  0  0  0
 42 43  1  0  0  0  0
 43 44  1  0  0  0  0
 45 44  1  6  0  0  0
 45 57  1  0  0  0  0
 46 47  1  1  0  0  0
 46 45  1  0  0  0  0
 48 49  2  0  0  0  0
 48 46  1  0  0  0  0
 50 48  1  0  0  0  0
 51 52  1  6  0  0  0
 51 50  1  0  0  0  0
 53 51  1  0  0  0  0
 54 55  2  0  0  0  0
 55 53  1  0  0  0  0
 57 58  1  0  0  0  0
 57 56  1  1  0  0  0
 58 59  1  0  0  0  0
M  END
>  <MODEL>
8

>  <REMARK>
 VINA RESULT:      -4.6      2.270      5.049
  Name = 
  20 active torsions:
  status: ('A' for Active; 'I' for Inactive)
    1  A    between atoms: O_1  and  C_27
    2  A    between atoms: C_5  and  N_31
    3  A    between atoms: N_10  and  C_22
    4  A    between atoms: C_16  and  C_30
    5  A    between atoms: C_17  and  C_51
    6  A    between atoms: C_19  and  C_30
    7  A    between atoms: C_22  and  N_54
    8  A    between atoms: S_24  and  C_29
    9  A    between atoms: S_24  and  C_56
   10  A    between atoms: C_25  and  C_59
   11  A    between atoms: C_27  and  C_36
   12  A    between atoms: C_28  and  C_32
   13  A    between atoms: N_31  and  C_33
   14  A    between atoms: C_32  and  C_36
   15  A    between atoms: C_35  and  C_55
   16  A    between atoms: C_36  and  C_47
   17  A    between atoms: C_47  and  O_48
   18  A    between atoms: O_48  and  O_50
   19  A    between atoms: C_49  and  O_50
   20  A    between atoms: C_58  and  C_59
                            x       y       z     vdW  Elec       q    Type
                         _______ _______ _______ _____ _____    ______ ____

>  <TORSDO>
F 20

$$$$
=
 OpenBabel11062416113D

 59 64  0  0  1  0  0  0  0  0999 V2000
  188.8750  176.2110  139.6360 S   0  0  0  0  0  0  0  0  0  0  0  0
  189.9900  175.4240  138.4150 C   0  0  2  0  0  3  0  0  0  0  0  0
  191.3850  176.0530  138.4950 C   0  0  0  0  0  2  0  0  0  0  0  0
  191.4770  176.9040  139.7400 C   0  0  0  0  0  2  0  0  0  0  0  0
  190.1040  177.4960  139.9760 C   0  0  2  0  0  3  0  0  0  0  0  0
  189.3770  177.0800  134.5980 C   0  0  0  0  0  2  0  0  0  0  0  0
  189.9770  175.8010  134.6360 O   0  0  0  0  0  0  0  0  0  0  0  0
  189.3920  175.4100  136.9810 C   0  0  1  0  0  0  0  0  0  0  0  0
  188.3730  177.3040  135.7020 C   0  0  0  0  0  0  0  0  0  0  0  0
  188.4410  176.5760  136.8220 C   0  0  0  0  0  3  0  0  0  0  0  0
  190.5240  175.5710  135.9220 C   0  0  2  0  0  3  0  0  0  0  0  0
  189.2540  170.6020  134.8160 Cl  0  0  0  0  0  0  0  0  0  0  0  0
  188.5000  171.8870  135.7380 C   0  0  0  0  0  0  0  0  0  0  0  0
  188.6220  174.1070  136.7440 C   0  0  0  0  0  0  0  0  0  0  0  0
  189.2170  173.0510  136.0250 C   0  0  0  0  0  3  0  0  0  0  0  0
  187.1750  171.7600  136.1600 C   0  0  0  0  0  3  0  0  0  0  0  0
  186.5660  172.7990  136.8690 C   0  0  0  0  0  3  0  0  0  0  0  0
  187.2800  173.9660  137.1510 C   0  0  0  0  0  3  0  0  0  0  0  0
  186.6580  178.5490  134.6230 O   0  0  0  0  0  0  0  0  0  0  0  0
  187.3830  179.4140  136.6510 N   0  0  0  0  0  1  0  0  0  0  0  0
  187.4350  178.4380  135.6100 C   0  0  0  0  0  0  0  0  0  0  0  0
  191.8410  176.7820  136.3510 S   0  0  0  0  0  0  0  0  0  0  0  0
  195.7570  173.8920  134.8130 C   0  0  0  0  0  2  0  0  0  0  0  0
  194.2320  173.8950  134.7900 C   0  0  0  0  0  2  0  0  0  0  0  0
  194.4170  176.2360  135.7020 C   0  0  2  0  0  3  0  0  0  0  0  0
  196.3140  175.3200  134.7180 C   0  0  1  0  0  3  0  0  0  0  0  0
  193.0080  176.0440  135.1780 C   0  0  1  0  0  3  0  0  0  0  0  0
  195.3020  176.3060  134.5980 O   0  0  0  0  0  0  0  0  0  0  0  0
  193.7140  174.8760  135.8350 C   0  0  1  0  0  3  0  0  0  0  0  0
  198.6010  175.5590  135.3840 O   0  0  0  0  0  1  0  0  0  0  0  0
  197.2870  175.6140  135.8550 C   0  0  0  0  0  2  0  0  0  0  0  0
  189.9300  178.0910  141.3780 C   0  0  0  0  0  2  0  0  0  0  0  0
  188.3600  177.2900  143.2610 C   0  0  0  0  0  2  0  0  0  0  0  0
  187.5310  178.6600  141.3460 C   0  0  0  0  0  3  0  0  0  0  0  0
  186.1010  178.3870  143.3710 C   0  0  0  0  0  2  0  0  0  0  0  0
  188.5380  177.9910  141.9350 C   0  0  0  0  0  0  0  0  0  0  0  0
  186.8980  177.1260  143.6850 C   0  0  2  0  0  3  0  0  0  0  0  0
  186.1200  178.6030  141.8640 C   0  0  1  0  0  3  0  0  0  0  0  0
  186.8370  176.8510  145.1090 N   0  0  0  0  0  2  0  0  0  0  0  0
  186.6900  178.1270  145.7940 C   0  0  0  0  0  2  0  0  0  0  0  0
  187.8440  178.3260  146.7570 C   0  0  0  0  0  1  0  0  0  0  0  0
  185.4490  179.7840  141.5380 O   0  0  0  0  0  0  0  0  0  0  0  0
  184.8960  179.5390  140.3620 O   0  0  0  0  0  0  0  0  0  0  0  0
  183.9170  178.5740  140.6230 C   0  0  0  0  0  2  0  0  0  0  0  0
  182.5660  179.2750  140.7680 C   0  0  1  0  0  3  0  0  0  0  0  0
  181.8550  179.4800  139.4170 C   0  0  1  0  0  3  0  0  0  0  0  0
  182.4560  180.6560  138.6630 C   0  0  0  0  0  1  0  0  0  0  0  0
  181.8890  178.2680  138.5360 C   0  0  0  0  0  0  0  0  0  0  0  0
  181.5200  177.1410  138.9770 O   0  0  0  0  0  0  0  0  0  0  0  0
  182.3950  178.3930  137.2060 N   0  0  0  0  0  2  0  0  0  0  0  0
  182.3600  177.2970  136.2490 C   0  0  1  0  0  3  0  0  0  0  0  0
  181.5060  177.6910  135.0590 C   0  0  0  0  0  1  0  0  0  0  0  0
  183.7080  176.9940  135.7940 N   0  0  0  0  0  2  0  0  0  0  0  0
  183.5060  174.6750  136.0730 O   0  0  0  0  0  0  0  0  0  0  0  0
  184.2200  175.6620  135.7430 C   0  0  0  0  0  3  0  0  0  0  0  0
  182.0520  178.8950  143.2190 C   0  0  0  0  0  1  0  0  0  0  0  0
  181.6660  178.5510  141.7820 C   0  0  1  0  0  3  0  0  0  0  0  0
  180.3270  178.8810  141.5650 O   0  0  0  0  0  0  0  0  0  0  0  0
  179.9650  179.6680  142.6640 C   0  0  0  0  0  1  0  0  0  0  0  0
  1  5  1  0  0  0  0
  2  3  1  6  0  0  0
  2  1  1  0  0  0  0
  3  4  1  0  0  0  0
  4  5  1  0  0  0  0
  5 32  1  1  0  0  0
  6  7  1  0  0  0  0
  6  9  1  0  0  0  0
  7 11  1  0  0  0  0
  8 14  1  6  0  0  0
  8  2  1  0  0  0  0
  9 10  2  0  0  0  0
 10  8  1  0  0  0  0
 11 22  1  1  0  0  0
 11  8  1  0  0  0  0
 12 13  1  0  0  0  0
 13 15  2  0  0  0  0
 13 16  1  0  0  0  0
 14 18  2  0  0  0  0
 15 14  1  0  0  0  0
 16 17  2  0  0  0  0
 17 18  1  0  0  0  0
 19 21  2  0  0  0  0
 21  9  1  0  0  0  0
 21 20  1  0  0  0  0
 24 23  1  0  0  0  0
 25 28  1  6  0  0  0
 25 29  1  0  0  0  0
 26 23  1  0  0  0  0
 26 31  1  1  0  0  0
 27 25  1  0  0  0  0
 27 29  1  0  0  0  0
 27 22  1  1  0  0  0
 28 26  1  0  0  0  0
 29 24  1  6  0  0  0
 30 31  1  0  0  0  0
 32 36  1  0  0  0  0
 33 37  1  0  0  0  0
 34 38  1  0  0  0  0
 34 36  2  0  0  0  0
 35 37  1  0  0  0  0
 36 33  1  0  0  0  0
 37 39  1  1  0  0  0
 38 42  1  1  0  0  0
 38 35  1  0  0  0  0
 39 40  1  0  0  0  0
 40 41  1  0  0  0  0
 43 44  1  0  0  0  0
 43 42  1  0  0  0  0
 45 44  1  6  0  0  0
 45 57  1  0  0  0  0
 46 47  1  6  0  0  0
 46 45  1  0  0  0  0
 48 49  2  0  0  0  0
 48 46  1  0  0  0  0
 50 48  1  0  0  0  0
 51 52  1  6  0  0  0
 51 50  1  0  0  0  0
 53 51  1  0  0  0  0
 55 53  1  0  0  0  0
 55 54  2  0  0  0  0
 57 56  1  1  0  0  0
 58 57  1  0  0  0  0
 58 59  1  0  0  0  0
M  END
>  <MODEL>
9

>  <REMARK>
 VINA RESULT:      -4.5      4.492      8.741
  Name = 
  20 active torsions:
  status: ('A' for Active; 'I' for Inactive)
    1  A    between atoms: O_1  and  C_27
    2  A    between atoms: C_5  and  N_31
    3  A    between atoms: N_10  and  C_22
    4  A    between atoms: C_16  and  C_30
    5  A    between atoms: C_17  and  C_51
    6  A    between atoms: C_19  and  C_30
    7  A    between atoms: C_22  and  N_54
    8  A    between atoms: S_24  and  C_29
    9  A    between atoms: S_24  and  C_56
   10  A    between atoms: C_25  and  C_59
   11  A    between atoms: C_27  and  C_36
   12  A    between atoms: C_28  and  C_32
   13  A    between atoms: N_31  and  C_33
   14  A    between atoms: C_32  and  C_36
   15  A    between atoms: C_35  and  C_55
   16  A    between atoms: C_36  and  C_47
   17  A    between atoms: C_47  and  O_48
   18  A    between atoms: O_48  and  O_50
   19  A    between atoms: C_49  and  O_50
   20  A    between atoms: C_58  and  C_59
                            x       y       z     vdW  Elec       q    Type
                         _______ _______ _______ _____ _____    ______ ____

>  <TORSDO>
F 20

$$$$
