=
 OpenBabel11062414513D

 33 34  0  0  1  0  0  0  0  0999 V2000
  187.9670  178.1770  139.9930 C   0  0  0  0  0  2  0  0  0  0  0  0
  189.1730  178.2980  139.0760 C   0  0  2  0  0  3  0  0  0  0  0  0
  189.0040  179.4240  138.2680 O   0  0  0  0  0  1  0  0  0  0  0  0
  189.3440  177.0440  138.2100 C   0  0  2  0  0  3  0  0  0  0  0  0
  188.0990  176.4050  138.0440 O   0  0  0  0  0  0  0  0  0  0  0  0
  188.6820  177.0750  135.8960 O   0  0  0  0  0  1  0  0  0  0  0  0
  186.4390  177.2980  136.6090 C   0  0  0  0  0  1  0  0  0  0  0  0
  187.7000  176.4610  136.6860 C   0  0  2  0  0  0  0  0  0  0  0  0
  188.5290  174.4610  135.6120 O   0  0  0  0  0  1  0  0  0  0  0  0
  187.3860  175.0610  136.1460 C   0  0  0  0  0  2  0  0  0  0  0  0
  190.3110  176.0670  138.8790 C   0  0  0  0  0  2  0  0  0  0  0  0
  190.9120  175.1830  137.8910 N   0  0  0  0  0  2  0  0  0  0  0  0
  191.7600  175.9910  137.0270 C   0  0  0  0  0  2  0  0  0  0  0  0
  194.3980  176.3960  136.4740 O   0  0  0  0  0  0  0  0  0  0  0  0
  193.8660  174.2480  137.8690 O   0  0  0  0  0  1  0  0  0  0  0  0
  193.7180  176.7760  138.9710 O   0  0  0  0  0  1  0  0  0  0  0  0
  193.4920  175.8680  137.5620 P   0  0  0  0  0  0  0  0  0  0  0  0
  188.3600  178.4860  141.4300 C   0  0  0  0  0  2  0  0  0  0  0  0
  189.4850  177.5710  141.9010 C   0  0  0  0  0  2  0  0  0  0  0  0
  188.1090  177.9930  144.9750 C   0  0  1  0  0  3  0  0  0  0  0  0
  188.1450  176.9910  148.3670 O   0  0  0  0  0  0  0  0  0  0  0  0
  190.1200  177.0220  144.2700 C   0  0  1  0  0  3  0  0  0  0  0  0
  189.5280  177.6620  145.2710 C   0  0  2  0  0  3  0  0  0  0  0  0
  189.7310  177.3860  146.6610 N   0  0  0  0  0  0  0  0  0  0  0  0
  191.4070  176.2780  144.3740 C   0  0  0  0  0  1  0  0  0  0  0  0
  187.7850  177.1260  143.7630 C   0  0  0  0  0  2  0  0  0  0  0  0
  189.1510  176.7690  143.1650 C   0  0  1  0  0  3  0  0  0  0  0  0
  190.9080  176.8080  147.2910 C   0  0  0  0  0  1  0  0  0  0  0  0
  187.4190  177.5650  146.1850 N   0  0  0  0  0  0  0  0  0  0  0  0
  188.4110  177.2960  147.1720 C   0  0  0  0  0  0  0  0  0  0  0  0
  185.9970  177.7420  146.4390 C   0  0  0  0  0  2  0  0  0  0  0  0
  184.2520  178.9510  145.1620 C   0  0  0  0  0  1  0  0  0  0  0  0
  185.5520  179.0960  145.9280 C   0  0  0  0  0  2  0  0  0  0  0  0
  1 18  1  0  0  0  0
  2  3  1  6  0  0  0
  2  1  1  0  0  0  0
  4 11  1  1  0  0  0
  4  2  1  0  0  0  0
  5  4  1  0  0  0  0
  6  8  1  0  0  0  0
  8  7  1  6  0  0  0
  8  5  1  0  0  0  0
  9 10  1  0  0  0  0
 10  8  1  0  0  0  0
 12 11  1  0  0  0  0
 13 17  1  0  0  0  0
 13 12  1  0  0  0  0
 14 17  2  0  0  0  0
 17 15  1  0  0  0  0
 17 16  1  0  0  0  0
 18 19  1  0  0  0  0
 20 26  1  6  0  0  0
 20 23  1  0  0  0  0
 20 29  1  0  0  0  0
 22 25  1  1  0  0  0
 22 23  1  0  0  0  0
 23 24  1  1  0  0  0
 24 30  1  0  0  0  0
 24 28  1  0  0  0  0
 27 19  1  6  0  0  0
 27 26  1  0  0  0  0
 27 22  1  0  0  0  0
 29 31  1  0  0  0  0
 29 30  1  0  0  0  0
 30 21  2  0  0  0  0
 32 33  1  0  0  0  0
 33 31  1  0  0  0  0
M  END
>  <MODEL>
1

>  <REMARK>
 VINA RESULT:      -7.2      0.000      0.000
  Name = 
  14 active torsions:
  status: ('A' for Active; 'I' for Inactive)
    1  A    between atoms: C_6  and  C_24
    2  A    between atoms: C_7  and  C_23
    3  A    between atoms: C_7  and  C_27
    4  A    between atoms: C_8  and  O_11
    5  A    between atoms: C_8  and  C_17
    6  A    between atoms: C_8  and  C_29
    7  A    between atoms: N_9  and  C_25
    8  A    between atoms: N_9  and  C_29
    9  A    between atoms: O_11  and  C_33
   10  A    between atoms: C_17  and  C_23
   11  A    between atoms: P_20  and  C_25
   12  A    between atoms: C_22  and  C_33
   13  A    between atoms: C_24  and  N_30
   14  A    between atoms: C_26  and  C_27
                            x       y       z     vdW  Elec       q    Type
                         _______ _______ _______ _____ _____    ______ ____

>  <TORSDO>
F 14

$$$$
=
 OpenBabel11062414513D

 33 34  0  0  1  0  0  0  0  0999 V2000
  188.0330  178.0770  139.9260 C   0  0  0  0  0  2  0  0  0  0  0  0
  189.1740  178.2150  138.9310 C   0  0  2  0  0  3  0  0  0  0  0  0
  188.9310  179.3330  138.1310 O   0  0  0  0  0  1  0  0  0  0  0  0
  189.3110  176.9600  138.0610 C   0  0  2  0  0  3  0  0  0  0  0  0
  190.5390  176.9880  137.3720 O   0  0  0  0  0  0  0  0  0  0  0  0
  190.9640  175.4860  139.0940 O   0  0  0  0  0  1  0  0  0  0  0  0
  192.7790  176.5320  137.9970 C   0  0  0  0  0  1  0  0  0  0  0  0
  191.3860  175.9540  137.8420 C   0  0  2  0  0  0  0  0  0  0  0  0
  190.7590  173.6800  137.3150 O   0  0  0  0  0  1  0  0  0  0  0  0
  191.4520  174.7970  136.8390 C   0  0  0  0  0  2  0  0  0  0  0  0
  188.1770  176.8970  137.0390 C   0  0  0  0  0  2  0  0  0  0  0  0
  187.8790  175.5160  136.6850 N   0  0  0  0  0  2  0  0  0  0  0  0
  186.6150  175.1590  137.3090 C   0  0  0  0  0  2  0  0  0  0  0  0
  185.1920  172.9360  137.9890 O   0  0  0  0  0  1  0  0  0  0  0  0
  187.6550  172.4960  137.2230 O   0  0  0  0  0  1  0  0  0  0  0  0
  185.6760  173.2040  135.4320 O   0  0  0  0  0  0  0  0  0  0  0  0
  186.2450  173.4050  137.0120 P   0  0  0  0  0  0  0  0  0  0  0  0
  188.5360  178.3060  141.3430 C   0  0  0  0  0  2  0  0  0  0  0  0
  189.5380  177.2310  141.7510 C   0  0  0  0  0  2  0  0  0  0  0  0
  188.1500  177.8560  144.7850 C   0  0  1  0  0  3  0  0  0  0  0  0
  188.1530  177.0590  148.2310 O   0  0  0  0  0  0  0  0  0  0  0  0
  190.1520  176.8180  144.1530 C   0  0  1  0  0  3  0  0  0  0  0  0
  189.5630  177.5240  145.1100 C   0  0  2  0  0  3  0  0  0  0  0  0
  189.7540  177.3300  146.5150 N   0  0  0  0  0  0  0  0  0  0  0  0
  191.4280  176.0650  144.3100 C   0  0  0  0  0  1  0  0  0  0  0  0
  187.8210  176.9210  143.6250 C   0  0  0  0  0  2  0  0  0  0  0  0
  189.1860  176.5110  143.0580 C   0  0  1  0  0  3  0  0  0  0  0  0
  190.9200  176.7760  147.1860 C   0  0  0  0  0  1  0  0  0  0  0  0
  187.4470  177.5100  146.0140 N   0  0  0  0  0  0  0  0  0  0  0  0
  188.4300  177.2880  147.0220 C   0  0  0  0  0  0  0  0  0  0  0  0
  186.0270  177.7210  146.2470 C   0  0  0  0  0  2  0  0  0  0  0  0
  184.5200  178.9830  144.7390 C   0  0  0  0  0  1  0  0  0  0  0  0
  185.6290  179.1000  145.7660 C   0  0  0  0  0  2  0  0  0  0  0  0
  1 18  1  0  0  0  0
  2  3  1  6  0  0  0
  2  1  1  0  0  0  0
  4 11  1  6  0  0  0
  4  2  1  0  0  0  0
  5  8  1  0  0  0  0
  5  4  1  0  0  0  0
  8  7  1  1  0  0  0
  8  6  1  0  0  0  0
 10  9  1  0  0  0  0
 10  8  1  0  0  0  0
 12 11  1  0  0  0  0
 12 13  1  0  0  0  0
 16 17  2  0  0  0  0
 17 15  1  0  0  0  0
 17 13  1  0  0  0  0
 17 14  1  0  0  0  0
 18 19  1  0  0  0  0
 20 26  1  6  0  0  0
 20 23  1  0  0  0  0
 20 29  1  0  0  0  0
 22 25  1  1  0  0  0
 22 23  1  0  0  0  0
 23 24  1  1  0  0  0
 24 30  1  0  0  0  0
 24 28  1  0  0  0  0
 27 19  1  6  0  0  0
 27 26  1  0  0  0  0
 27 22  1  0  0  0  0
 29 31  1  0  0  0  0
 29 30  1  0  0  0  0
 30 21  2  0  0  0  0
 32 33  1  0  0  0  0
 33 31  1  0  0  0  0
M  END
>  <MODEL>
2

>  <REMARK>
 VINA RESULT:      -7.0      2.040      3.676
  Name = 
  14 active torsions:
  status: ('A' for Active; 'I' for Inactive)
    1  A    between atoms: C_6  and  C_24
    2  A    between atoms: C_7  and  C_23
    3  A    between atoms: C_7  and  C_27
    4  A    between atoms: C_8  and  O_11
    5  A    between atoms: C_8  and  C_17
    6  A    between atoms: C_8  and  C_29
    7  A    between atoms: N_9  and  C_25
    8  A    between atoms: N_9  and  C_29
    9  A    between atoms: O_11  and  C_33
   10  A    between atoms: C_17  and  C_23
   11  A    between atoms: P_20  and  C_25
   12  A    between atoms: C_22  and  C_33
   13  A    between atoms: C_24  and  N_30
   14  A    between atoms: C_26  and  C_27
                            x       y       z     vdW  Elec       q    Type
                         _______ _______ _______ _____ _____    ______ ____

>  <TORSDO>
F 14

$$$$
=
 OpenBabel11062414513D

 33 34  0  0  1  0  0  0  0  0999 V2000
  183.8290  177.9930  141.5530 C   0  0  0  0  0  2  0  0  0  0  0  0
  184.7990  178.4710  140.4850 C   0  0  2  0  0  3  0  0  0  0  0  0
  185.3140  179.7070  140.8760 O   0  0  0  0  0  1  0  0  0  0  0  0
  184.1110  178.5910  139.1200 C   0  0  2  0  0  3  0  0  0  0  0  0
  182.8140  178.0440  139.1890 O   0  0  0  0  0  0  0  0  0  0  0  0
  181.6970  178.6320  137.2370 O   0  0  0  0  0  1  0  0  0  0  0  0
  182.4410  180.3330  138.7020 C   0  0  0  0  0  1  0  0  0  0  0  0
  181.8800  178.9280  138.5950 C   0  0  2  0  0  0  0  0  0  0  0  0
  180.5370  177.9010  140.3220 O   0  0  0  0  0  1  0  0  0  0  0  0
  180.5360  178.8870  139.3310 C   0  0  0  0  0  2  0  0  0  0  0  0
  184.9060  177.8320  138.0580 C   0  0  0  0  0  2  0  0  0  0  0  0
  186.1190  178.5580  137.7080 N   0  0  0  0  0  2  0  0  0  0  0  0
  187.1920  177.5860  137.5600 C   0  0  0  0  0  2  0  0  0  0  0  0
  189.0740  179.4790  138.1070 O   0  0  0  0  0  0  0  0  0  0  0  0
  189.8980  177.0020  138.2810 O   0  0  0  0  0  1  0  0  0  0  0  0
  188.2330  178.1210  140.1790 O   0  0  0  0  0  1  0  0  0  0  0  0
  188.6360  178.0980  138.5360 P   0  0  0  0  0  0  0  0  0  0  0  0
  183.8010  178.9680  142.7190 C   0  0  0  0  0  2  0  0  0  0  0  0
  184.2830  178.3030  144.0040 C   0  0  0  0  0  2  0  0  0  0  0  0
  187.3430  176.9280  144.5200 C   0  0  1  0  0  3  0  0  0  0  0  0
  190.3300  177.0450  146.4120 O   0  0  0  0  0  0  0  0  0  0  0  0
  186.0050  178.3300  145.8340 C   0  0  1  0  0  3  0  0  0  0  0  0
  186.9320  177.3800  145.8750 C   0  0  2  0  0  3  0  0  0  0  0  0
  188.0170  177.3270  146.8060 N   0  0  0  0  0  0  0  0  0  0  0  0
  185.6290  179.2060  146.9800 C   0  0  0  0  0  1  0  0  0  0  0  0
  186.7950  178.0130  143.5990 C   0  0  0  0  0  2  0  0  0  0  0  0
  185.7020  178.7060  144.4230 C   0  0  1  0  0  3  0  0  0  0  0  0
  188.0720  177.8970  148.1440 C   0  0  0  0  0  1  0  0  0  0  0  0
  188.7980  176.9340  144.6060 N   0  0  0  0  0  0  0  0  0  0  0  0
  189.1460  177.0910  145.9790 C   0  0  0  0  0  0  0  0  0  0  0  0
  189.6950  176.4910  143.5510 C   0  0  0  0  0  2  0  0  0  0  0  0
  191.8010  177.7620  143.2530 C   0  0  0  0  0  1  0  0  0  0  0  0
  190.3330  177.6920  142.8840 C   0  0  0  0  0  2  0  0  0  0  0  0
  1 18  1  0  0  0  0
  2  3  1  1  0  0  0
  2  1  1  0  0  0  0
  4 11  1  6  0  0  0
  4  5  1  0  0  0  0
  4  2  1  0  0  0  0
  6  8  1  0  0  0  0
  8  7  1  1  0  0  0
  8  5  1  0  0  0  0
  8 10  1  0  0  0  0
 10  9  1  0  0  0  0
 12 11  1  0  0  0  0
 13 12  1  0  0  0  0
 13 17  1  0  0  0  0
 14 17  2  0  0  0  0
 15 17  1  0  0  0  0
 17 16  1  0  0  0  0
 18 19  1  0  0  0  0
 20 26  1  6  0  0  0
 20 29  1  0  0  0  0
 20 23  1  0  0  0  0
 22 23  1  0  0  0  0
 22 25  1  1  0  0  0
 23 24  1  6  0  0  0
 24 28  1  0  0  0  0
 26 27  1  0  0  0  0
 27 19  1  6  0  0  0
 27 22  1  0  0  0  0
 29 30  1  0  0  0  0
 30 21  2  0  0  0  0
 30 24  1  0  0  0  0
 31 29  1  0  0  0  0
 33 32  1  0  0  0  0
 33 31  1  0  0  0  0
M  END
>  <MODEL>
3

>  <REMARK>
 VINA RESULT:      -6.9      3.574      5.332
  Name = 
  14 active torsions:
  status: ('A' for Active; 'I' for Inactive)
    1  A    between atoms: C_6  and  C_24
    2  A    between atoms: C_7  and  C_23
    3  A    between atoms: C_7  and  C_27
    4  A    between atoms: C_8  and  O_11
    5  A    between atoms: C_8  and  C_17
    6  A    between atoms: C_8  and  C_29
    7  A    between atoms: N_9  and  C_25
    8  A    between atoms: N_9  and  C_29
    9  A    between atoms: O_11  and  C_33
   10  A    between atoms: C_17  and  C_23
   11  A    between atoms: P_20  and  C_25
   12  A    between atoms: C_22  and  C_33
   13  A    between atoms: C_24  and  N_30
   14  A    between atoms: C_26  and  C_27
                            x       y       z     vdW  Elec       q    Type
                         _______ _______ _______ _____ _____    ______ ____

>  <TORSDO>
F 14

$$$$
=
 OpenBabel11062414513D

 33 34  0  0  1  0  0  0  0  0999 V2000
  188.2400  177.6340  139.5780 C   0  0  0  0  0  2  0  0  0  0  0  0
  189.3630  178.2010  138.7250 C   0  0  2  0  0  3  0  0  0  0  0  0
  189.0080  179.4900  138.3260 O   0  0  0  0  0  1  0  0  0  0  0  0
  189.6310  177.3210  137.4990 C   0  0  2  0  0  3  0  0  0  0  0  0
  191.0130  177.0690  137.3840 O   0  0  0  0  0  0  0  0  0  0  0  0
  190.8710  175.4730  139.0670 O   0  0  0  0  0  1  0  0  0  0  0  0
  192.8020  175.5490  137.7050 C   0  0  0  0  0  1  0  0  0  0  0  0
  191.2980  175.7330  137.7580 C   0  0  2  0  0  0  0  0  0  0  0  0
  190.0300  173.6950  137.4730 O   0  0  0  0  0  1  0  0  0  0  0  0
  190.6550  174.7390  136.7840 C   0  0  0  0  0  2  0  0  0  0  0  0
  189.1540  178.0230  136.2280 C   0  0  0  0  0  2  0  0  0  0  0  0
  188.1230  177.2380  135.5630 N   0  0  0  0  0  2  0  0  0  0  0  0
  186.8380  177.8600  135.8480 C   0  0  0  0  0  2  0  0  0  0  0  0
  185.0820  177.3420  137.8660 O   0  0  0  0  0  1  0  0  0  0  0  0
  186.6560  175.3550  137.2180 O   0  0  0  0  0  1  0  0  0  0  0  0
  184.5570  176.1380  135.6040 O   0  0  0  0  0  0  0  0  0  0  0  0
  185.7430  176.6740  136.6830 P   0  0  0  0  0  0  0  0  0  0  0  0
  188.3720  178.1140  141.0150 C   0  0  0  0  0  2  0  0  0  0  0  0
  189.5840  177.4870  141.6950 C   0  0  0  0  0  2  0  0  0  0  0  0
  188.1910  177.9330  144.7580 C   0  0  1  0  0  3  0  0  0  0  0  0
  188.2180  176.9680  148.1610 O   0  0  0  0  0  0  0  0  0  0  0  0
  190.2120  176.9680  144.0730 C   0  0  1  0  0  3  0  0  0  0  0  0
  189.6100  177.6150  145.0640 C   0  0  2  0  0  3  0  0  0  0  0  0
  189.8090  177.3550  146.4580 N   0  0  0  0  0  0  0  0  0  0  0  0
  191.5030  176.2340  144.1910 C   0  0  0  0  0  1  0  0  0  0  0  0
  187.8790  177.0510  143.5540 C   0  0  0  0  0  2  0  0  0  0  0  0
  189.2500  176.6960  142.9660 C   0  0  1  0  0  3  0  0  0  0  0  0
  190.9880  176.7920  147.0990 C   0  0  0  0  0  1  0  0  0  0  0  0
  187.4980  177.5130  145.9700 N   0  0  0  0  0  0  0  0  0  0  0  0
  188.4870  177.2610  146.9640 C   0  0  0  0  0  0  0  0  0  0  0  0
  186.0740  177.6830  146.2150 C   0  0  0  0  0  2  0  0  0  0  0  0
  184.1910  178.9370  145.2040 C   0  0  0  0  0  1  0  0  0  0  0  0
  185.6230  179.0300  145.6920 C   0  0  0  0  0  2  0  0  0  0  0  0
  1 18  1  0  0  0  0
  2  3  1  6  0  0  0
  2  1  1  0  0  0  0
  4 11  1  6  0  0  0
  4  2  1  0  0  0  0
  5  4  1  0  0  0  0
  5  8  1  0  0  0  0
  8  7  1  6  0  0  0
  8  6  1  0  0  0  0
 10  9  1  0  0  0  0
 10  8  1  0  0  0  0
 12 13  1  0  0  0  0
 12 11  1  0  0  0  0
 13 17  1  0  0  0  0
 16 17  2  0  0  0  0
 17 15  1  0  0  0  0
 17 14  1  0  0  0  0
 18 19  1  0  0  0  0
 20 26  1  6  0  0  0
 20 23  1  0  0  0  0
 20 29  1  0  0  0  0
 22 25  1  1  0  0  0
 22 23  1  0  0  0  0
 23 24  1  1  0  0  0
 24 30  1  0  0  0  0
 24 28  1  0  0  0  0
 27 19  1  6  0  0  0
 27 26  1  0  0  0  0
 27 22  1  0  0  0  0
 29 31  1  0  0  0  0
 29 30  1  0  0  0  0
 30 21  2  0  0  0  0
 32 33  1  0  0  0  0
 33 31  1  0  0  0  0
M  END
>  <MODEL>
4

>  <REMARK>
 VINA RESULT:      -6.9      2.128      3.755
  Name = 
  14 active torsions:
  status: ('A' for Active; 'I' for Inactive)
    1  A    between atoms: C_6  and  C_24
    2  A    between atoms: C_7  and  C_23
    3  A    between atoms: C_7  and  C_27
    4  A    between atoms: C_8  and  O_11
    5  A    between atoms: C_8  and  C_17
    6  A    between atoms: C_8  and  C_29
    7  A    between atoms: N_9  and  C_25
    8  A    between atoms: N_9  and  C_29
    9  A    between atoms: O_11  and  C_33
   10  A    between atoms: C_17  and  C_23
   11  A    between atoms: P_20  and  C_25
   12  A    between atoms: C_22  and  C_33
   13  A    between atoms: C_24  and  N_30
   14  A    between atoms: C_26  and  C_27
                            x       y       z     vdW  Elec       q    Type
                         _______ _______ _______ _____ _____    ______ ____

>  <TORSDO>
F 14

$$$$
=
 OpenBabel11062414513D

 33 34  0  0  1  0  0  0  0  0999 V2000
  183.7240  178.3020  140.8540 C   0  0  0  0  0  2  0  0  0  0  0  0
  184.4280  178.7530  139.5850 C   0  0  2  0  0  3  0  0  0  0  0  0
  184.1920  180.1170  139.4080 O   0  0  0  0  0  1  0  0  0  0  0  0
  183.9360  177.9670  138.3640 C   0  0  2  0  0  3  0  0  0  0  0  0
  183.2350  176.8200  138.7860 O   0  0  0  0  0  0  0  0  0  0  0  0
  181.8350  177.7790  137.1980 O   0  0  0  0  0  1  0  0  0  0  0  0
  180.9090  176.9650  139.2150 C   0  0  0  0  0  1  0  0  0  0  0  0
  181.9690  176.7610  138.1510 C   0  0  2  0  0  0  0  0  0  0  0  0
  182.9230  174.9080  136.9270 O   0  0  0  0  0  1  0  0  0  0  0  0
  181.7430  175.3920  137.4990 C   0  0  0  0  0  2  0  0  0  0  0  0
  185.1200  177.5280  137.5040 C   0  0  0  0  0  2  0  0  0  0  0  0
  186.3100  178.3000  137.8360 N   0  0  0  0  0  2  0  0  0  0  0  0
  187.4650  177.4300  137.6710 C   0  0  0  0  0  2  0  0  0  0  0  0
  188.9280  178.4910  139.7120 O   0  0  0  0  0  1  0  0  0  0  0  0
  189.0690  179.7880  137.4440 O   0  0  0  0  0  0  0  0  0  0  0  0
  190.3290  177.3580  137.8150 O   0  0  0  0  0  1  0  0  0  0  0  0
  188.9730  178.2860  138.2150 P   0  0  0  0  0  0  0  0  0  0  0  0
  184.3330  178.9840  142.0690 C   0  0  0  0  0  2  0  0  0  0  0  0
  184.9840  177.9670  143.0010 C   0  0  0  0  0  2  0  0  0  0  0  0
  187.9310  176.7950  144.2120 C   0  0  1  0  0  3  0  0  0  0  0  0
  190.4490  177.1700  146.6670 O   0  0  0  0  0  0  0  0  0  0  0  0
  186.2840  178.1760  145.1420 C   0  0  1  0  0  3  0  0  0  0  0  0
  187.2260  177.2840  145.4260 C   0  0  2  0  0  3  0  0  0  0  0  0
  188.0940  177.3360  146.5620 N   0  0  0  0  0  0  0  0  0  0  0  0
  185.6370  179.0800  146.1350 C   0  0  0  0  0  1  0  0  0  0  0  0
  187.5360  177.8040  143.1390 C   0  0  0  0  0  2  0  0  0  0  0  0
  186.2650  178.4700  143.6800 C   0  0  1  0  0  3  0  0  0  0  0  0
  187.8420  177.9680  147.8480 C   0  0  0  0  0  1  0  0  0  0  0  0
  189.3340  176.8890  144.5950 N   0  0  0  0  0  0  0  0  0  0  0  0
  189.3810  177.1280  145.9990 C   0  0  0  0  0  0  0  0  0  0  0  0
  190.4510  176.4520  143.7730 C   0  0  0  0  0  2  0  0  0  0  0  0
  191.5590  177.4320  141.7840 C   0  0  0  0  0  1  0  0  0  0  0  0
  191.1960  177.6570  143.2380 C   0  0  0  0  0  2  0  0  0  0  0  0
  1 18  1  0  0  0  0
  2  3  1  6  0  0  0
  2  1  1  0  0  0  0
  4 11  1  6  0  0  0
  4  5  1  0  0  0  0
  4  2  1  0  0  0  0
  6  8  1  0  0  0  0
  8  5  1  0  0  0  0
  8  7  1  1  0  0  0
  9 10  1  0  0  0  0
 10  8  1  0  0  0  0
 11 12  1  0  0  0  0
 13 12  1  0  0  0  0
 13 17  1  0  0  0  0
 15 17  2  0  0  0  0
 16 17  1  0  0  0  0
 17 14  1  0  0  0  0
 18 19  1  0  0  0  0
 20 26  1  6  0  0  0
 20 29  1  0  0  0  0
 20 23  1  0  0  0  0
 22 23  1  0  0  0  0
 22 25  1  1  0  0  0
 23 24  1  1  0  0  0
 24 28  1  0  0  0  0
 26 27  1  0  0  0  0
 27 19  1  6  0  0  0
 27 22  1  0  0  0  0
 29 30  1  0  0  0  0
 30 24  1  0  0  0  0
 30 21  2  0  0  0  0
 31 29  1  0  0  0  0
 32 33  1  0  0  0  0
 33 31  1  0  0  0  0
M  END
>  <MODEL>
5

>  <REMARK>
 VINA RESULT:      -6.6      3.345      4.981
  Name = 
  14 active torsions:
  status: ('A' for Active; 'I' for Inactive)
    1  A    between atoms: C_6  and  C_24
    2  A    between atoms: C_7  and  C_23
    3  A    between atoms: C_7  and  C_27
    4  A    between atoms: C_8  and  O_11
    5  A    between atoms: C_8  and  C_17
    6  A    between atoms: C_8  and  C_29
    7  A    between atoms: N_9  and  C_25
    8  A    between atoms: N_9  and  C_29
    9  A    between atoms: O_11  and  C_33
   10  A    between atoms: C_17  and  C_23
   11  A    between atoms: P_20  and  C_25
   12  A    between atoms: C_22  and  C_33
   13  A    between atoms: C_24  and  N_30
   14  A    between atoms: C_26  and  C_27
                            x       y       z     vdW  Elec       q    Type
                         _______ _______ _______ _____ _____    ______ ____

>  <TORSDO>
F 14

$$$$
=
 OpenBabel11062414513D

 33 34  0  0  1  0  0  0  0  0999 V2000
  188.6640  177.9950  139.6420 C   0  0  0  0  0  2  0  0  0  0  0  0
  189.5030  178.4000  138.4400 C   0  0  2  0  0  3  0  0  0  0  0  0
  189.0560  179.6410  137.9860 O   0  0  0  0  0  1  0  0  0  0  0  0
  189.4090  177.3590  137.3190 C   0  0  2  0  0  3  0  0  0  0  0  0
  188.4910  176.3510  137.6780 O   0  0  0  0  0  0  0  0  0  0  0  0
  187.9490  175.0070  135.8620 O   0  0  0  0  0  1  0  0  0  0  0  0
  187.6070  177.3410  135.7150 C   0  0  0  0  0  1  0  0  0  0  0  0
  187.5770  176.1250  136.6190 C   0  0  2  0  0  0  0  0  0  0  0  0
  185.4910  177.1830  137.2270 O   0  0  0  0  0  1  0  0  0  0  0  0
  186.1500  175.9530  137.1510 C   0  0  0  0  0  2  0  0  0  0  0  0
  190.7730  176.7150  137.0790 C   0  0  0  0  0  2  0  0  0  0  0  0
  191.0490  175.7020  138.0890 N   0  0  0  0  0  2  0  0  0  0  0  0
  192.1160  174.8500  137.5850 C   0  0  0  0  0  2  0  0  0  0  0  0
  194.7220  174.5570  138.3280 O   0  0  0  0  0  1  0  0  0  0  0  0
  193.5680  176.7590  139.1440 O   0  0  0  0  0  1  0  0  0  0  0  0
  194.2870  176.3820  136.5040 O   0  0  0  0  0  0  0  0  0  0  0  0
  193.7310  175.6180  137.9070 P   0  0  0  0  0  0  0  0  0  0  0  0
  189.5510  177.4270  140.7400 C   0  0  0  0  0  2  0  0  0  0  0  0
  188.7180  176.9150  141.9100 C   0  0  0  0  0  2  0  0  0  0  0  0
  187.5280  177.3340  145.0610 C   0  0  1  0  0  3  0  0  0  0  0  0
  185.3080  179.1380  147.1420 O   0  0  0  0  0  0  0  0  0  0  0  0
  186.7120  177.9980  142.9690 C   0  0  1  0  0  3  0  0  0  0  0  0
  186.3580  177.6550  144.2010 C   0  0  2  0  0  3  0  0  0  0  0  0
  185.2950  178.2540  144.9500 N   0  0  0  0  0  0  0  0  0  0  0  0
  185.8240  178.6780  141.9830 C   0  0  0  0  0  1  0  0  0  0  0  0
  188.7110  177.8920  144.2770 C   0  0  0  0  0  2  0  0  0  0  0  0
  188.1970  178.0200  142.8380 C   0  0  1  0  0  3  0  0  0  0  0  0
  184.1020  178.9090  144.4360 C   0  0  0  0  0  1  0  0  0  0  0  0
  187.2460  178.0820  146.2800 N   0  0  0  0  0  0  0  0  0  0  0  0
  185.8970  178.5350  146.2040 C   0  0  0  0  0  0  0  0  0  0  0  0
  188.0610  178.0450  147.4840 C   0  0  0  0  0  2  0  0  0  0  0  0
  190.3300  177.0490  147.4540 C   0  0  0  0  0  1  0  0  0  0  0  0
  188.8460  176.7510  147.5320 C   0  0  0  0  0  2  0  0  0  0  0  0
  1 18  1  0  0  0  0
  2  3  1  6  0  0  0
  2  1  1  0  0  0  0
  4 11  1  1  0  0  0
  4  5  1  0  0  0  0
  4  2  1  0  0  0  0
  6  8  1  0  0  0  0
  8  7  1  6  0  0  0
  8 10  1  0  0  0  0
  8  5  1  0  0  0  0
 10  9  1  0  0  0  0
 11 12  1  0  0  0  0
 13 17  1  0  0  0  0
 13 12  1  0  0  0  0
 16 17  2  0  0  0  0
 17 14  1  0  0  0  0
 17 15  1  0  0  0  0
 18 19  1  0  0  0  0
 20 26  1  6  0  0  0
 20 29  1  0  0  0  0
 22 25  1  1  0  0  0
 22 23  1  0  0  0  0
 23 24  1  1  0  0  0
 23 20  1  0  0  0  0
 24 30  1  0  0  0  0
 27 19  1  6  0  0  0
 27 22  1  0  0  0  0
 27 26  1  0  0  0  0
 28 24  1  0  0  0  0
 29 31  1  0  0  0  0
 30 29  1  0  0  0  0
 30 21  2  0  0  0  0
 31 33  1  0  0  0  0
 32 33  1  0  0  0  0
M  END
>  <MODEL>
6

>  <REMARK>
 VINA RESULT:      -6.5      1.388      3.078
  Name = 
  14 active torsions:
  status: ('A' for Active; 'I' for Inactive)
    1  A    between atoms: C_6  and  C_24
    2  A    between atoms: C_7  and  C_23
    3  A    between atoms: C_7  and  C_27
    4  A    between atoms: C_8  and  O_11
    5  A    between atoms: C_8  and  C_17
    6  A    between atoms: C_8  and  C_29
    7  A    between atoms: N_9  and  C_25
    8  A    between atoms: N_9  and  C_29
    9  A    between atoms: O_11  and  C_33
   10  A    between atoms: C_17  and  C_23
   11  A    between atoms: P_20  and  C_25
   12  A    between atoms: C_22  and  C_33
   13  A    between atoms: C_24  and  N_30
   14  A    between atoms: C_26  and  C_27
                            x       y       z     vdW  Elec       q    Type
                         _______ _______ _______ _____ _____    ______ ____

>  <TORSDO>
F 14

$$$$
=
 OpenBabel11062414513D

 33 34  0  0  1  0  0  0  0  0999 V2000
  184.4410  178.9910  141.0930 C   0  0  0  0  0  2  0  0  0  0  0  0
  184.1350  178.9940  139.6040 C   0  0  2  0  0  3  0  0  0  0  0  0
  184.4230  180.2610  139.0950 O   0  0  0  0  0  1  0  0  0  0  0  0
  182.6700  178.6330  139.3340 C   0  0  2  0  0  3  0  0  0  0  0  0
  182.4420  178.5680  137.9450 O   0  0  0  0  0  0  0  0  0  0  0  0
  182.2260  176.3660  138.6580 O   0  0  0  0  0  1  0  0  0  0  0  0
  183.1970  176.8090  136.5480 C   0  0  0  0  0  1  0  0  0  0  0  0
  182.1520  177.2350  137.5610 C   0  0  2  0  0  0  0  0  0  0  0  0
  179.8220  176.6380  137.7960 O   0  0  0  0  0  1  0  0  0  0  0  0
  180.7720  177.1390  136.9020 C   0  0  0  0  0  2  0  0  0  0  0  0
  181.7450  179.6920  139.9330 C   0  0  0  0  0  2  0  0  0  0  0  0
  180.4980  179.0900  140.3840 N   0  0  0  0  0  2  0  0  0  0  0  0
  180.8140  178.1690  141.4650 C   0  0  0  0  0  2  0  0  0  0  0  0
  179.5360  178.2400  143.8710 O   0  0  0  0  0  1  0  0  0  0  0  0
  180.0610  180.5760  142.8150 O   0  0  0  0  0  0  0  0  0  0  0  0
  182.0390  178.9990  143.9220 O   0  0  0  0  0  1  0  0  0  0  0  0
  180.5790  178.9860  143.0700 P   0  0  0  0  0  0  0  0  0  0  0  0
  185.8270  178.4180  141.3480 C   0  0  0  0  0  2  0  0  0  0  0  0
  186.1350  178.3720  142.8410 C   0  0  0  0  0  2  0  0  0  0  0  0
  188.6060  177.8770  145.1150 C   0  0  1  0  0  3  0  0  0  0  0  0
  191.7850  176.4510  145.7280 O   0  0  0  0  0  0  0  0  0  0  0  0
  188.5600  177.7110  142.7790 C   0  0  1  0  0  3  0  0  0  0  0  0
  189.3360  177.9750  143.8230 C   0  0  2  0  0  3  0  0  0  0  0  0
  190.7050  177.5770  143.9540 N   0  0  0  0  0  0  0  0  0  0  0  0
  189.0500  177.4090  141.4050 C   0  0  0  0  0  1  0  0  0  0  0  0
  187.3240  177.1400  144.7450 C   0  0  0  0  0  2  0  0  0  0  0  0
  187.1900  177.3280  143.2290 C   0  0  1  0  0  3  0  0  0  0  0  0
  191.6630  177.3180  142.8890 C   0  0  0  0  0  1  0  0  0  0  0  0
  189.5090  177.0780  145.9350 N   0  0  0  0  0  0  0  0  0  0  0  0
  190.7550  176.9970  145.2480 C   0  0  0  0  0  0  0  0  0  0  0  0
  189.2910  176.7540  147.3360 C   0  0  0  0  0  2  0  0  0  0  0  0
  187.9300  178.1690  148.8470 C   0  0  0  0  0  1  0  0  0  0  0  0
  189.2720  178.0260  148.1580 C   0  0  0  0  0  2  0  0  0  0  0  0
  1 18  1  0  0  0  0
  2  3  1  1  0  0  0
  2  1  1  0  0  0  0
  4  2  1  0  0  0  0
  4 11  1  6  0  0  0
  5  4  1  0  0  0  0
  8  7  1  6  0  0  0
  8  5  1  0  0  0  0
  8  6  1  0  0  0  0
 10  8  1  0  0  0  0
 10  9  1  0  0  0  0
 11 12  1  0  0  0  0
 12 13  1  0  0  0  0
 13 17  1  0  0  0  0
 15 17  2  0  0  0  0
 17 14  1  0  0  0  0
 17 16  1  0  0  0  0
 18 19  1  0  0  0  0
 20 26  1  6  0  0  0
 20 29  1  0  0  0  0
 22 25  1  1  0  0  0
 22 27  1  0  0  0  0
 22 23  1  0  0  0  0
 23 24  1  1  0  0  0
 23 20  1  0  0  0  0
 24 30  1  0  0  0  0
 27 19  1  1  0  0  0
 27 26  1  0  0  0  0
 28 24  1  0  0  0  0
 29 31  1  0  0  0  0
 30 21  2  0  0  0  0
 30 29  1  0  0  0  0
 31 33  1  0  0  0  0
 33 32  1  0  0  0  0
M  END
>  <MODEL>
7

>  <REMARK>
 VINA RESULT:      -6.5      5.356      7.414
  Name = 
  14 active torsions:
  status: ('A' for Active; 'I' for Inactive)
    1  A    between atoms: C_6  and  C_24
    2  A    between atoms: C_7  and  C_23
    3  A    between atoms: C_7  and  C_27
    4  A    between atoms: C_8  and  O_11
    5  A    between atoms: C_8  and  C_17
    6  A    between atoms: C_8  and  C_29
    7  A    between atoms: N_9  and  C_25
    8  A    between atoms: N_9  and  C_29
    9  A    between atoms: O_11  and  C_33
   10  A    between atoms: C_17  and  C_23
   11  A    between atoms: P_20  and  C_25
   12  A    between atoms: C_22  and  C_33
   13  A    between atoms: C_24  and  N_30
   14  A    between atoms: C_26  and  C_27
                            x       y       z     vdW  Elec       q    Type
                         _______ _______ _______ _____ _____    ______ ____

>  <TORSDO>
F 14

$$$$
=
 OpenBabel11062414513D

 33 34  0  0  1  0  0  0  0  0999 V2000
  190.3020  176.7090  139.8700 C   0  0  0  0  0  2  0  0  0  0  0  0
  190.5930  177.4550  138.5770 C   0  0  2  0  0  3  0  0  0  0  0  0
  189.5190  178.3030  138.3040 O   0  0  0  0  0  1  0  0  0  0  0  0
  190.8140  176.4850  137.4110 C   0  0  2  0  0  3  0  0  0  0  0  0
  190.3340  175.2060  137.7560 O   0  0  0  0  0  0  0  0  0  0  0  0
  188.0160  175.2490  137.5870 O   0  0  0  0  0  1  0  0  0  0  0  0
  189.2000  173.3700  136.7760 C   0  0  0  0  0  1  0  0  0  0  0  0
  189.2110  174.8750  136.9580 C   0  0  2  0  0  0  0  0  0  0  0  0
  188.1170  176.1850  135.2450 O   0  0  0  0  0  1  0  0  0  0  0  0
  189.3070  175.5290  135.5740 C   0  0  0  0  0  2  0  0  0  0  0  0
  192.3030  176.3780  137.0860 C   0  0  0  0  0  2  0  0  0  0  0  0
  193.0220  175.7340  138.1770 N   0  0  0  0  0  2  0  0  0  0  0  0
  193.7540  174.6050  137.6230 C   0  0  0  0  0  2  0  0  0  0  0  0
  195.4200  175.2800  139.6710 O   0  0  0  0  0  1  0  0  0  0  0  0
  196.5440  175.1520  137.3120 O   0  0  0  0  0  0  0  0  0  0  0  0
  195.7840  172.8830  138.6900 O   0  0  0  0  0  1  0  0  0  0  0  0
  195.4030  174.5000  138.3770 P   0  0  0  0  0  0  0  0  0  0  0  0
  189.0220  177.2280  140.5050 C   0  0  0  0  0  2  0  0  0  0  0  0
  189.3050  177.8930  141.8470 C   0  0  0  0  0  2  0  0  0  0  0  0
  188.1060  178.0870  145.0170 C   0  0  1  0  0  3  0  0  0  0  0  0
  188.3080  176.8170  148.3120 O   0  0  0  0  0  0  0  0  0  0  0  0
  190.0570  177.1480  144.1270 C   0  0  1  0  0  3  0  0  0  0  0  0
  189.5320  177.7140  145.2070 C   0  0  2  0  0  3  0  0  0  0  0  0
  189.8060  177.3250  146.5570 N   0  0  0  0  0  0  0  0  0  0  0  0
  191.3350  176.3810  144.1000 C   0  0  0  0  0  1  0  0  0  0  0  0
  187.7010  177.3240  143.7610 C   0  0  0  0  0  2  0  0  0  0  0  0
  189.0250  176.9970  143.0610 C   0  0  1  0  0  3  0  0  0  0  0  0
  191.0050  176.6830  147.0730 C   0  0  0  0  0  1  0  0  0  0  0  0
  187.4750  177.5730  146.2270 N   0  0  0  0  0  0  0  0  0  0  0  0
  188.5140  177.2120  147.1330 C   0  0  0  0  0  0  0  0  0  0  0  0
  186.0730  177.7490  146.5720 C   0  0  0  0  0  2  0  0  0  0  0  0
  184.2410  178.6990  145.2000 C   0  0  0  0  0  1  0  0  0  0  0  0
  185.5390  179.0060  145.9190 C   0  0  0  0  0  2  0  0  0  0  0  0
  1 18  1  0  0  0  0
  2  3  1  6  0  0  0
  2  1  1  0  0  0  0
  4 11  1  1  0  0  0
  4  5  1  0  0  0  0
  4  2  1  0  0  0  0
  8  7  1  6  0  0  0
  8  6  1  0  0  0  0
  8  5  1  0  0  0  0
  9 10  1  0  0  0  0
 10  8  1  0  0  0  0
 11 12  1  0  0  0  0
 13 12  1  0  0  0  0
 13 17  1  0  0  0  0
 15 17  2  0  0  0  0
 17 16  1  0  0  0  0
 17 14  1  0  0  0  0
 18 19  1  0  0  0  0
 20 26  1  6  0  0  0
 20 23  1  0  0  0  0
 20 29  1  0  0  0  0
 22 25  1  1  0  0  0
 22 23  1  0  0  0  0
 23 24  1  1  0  0  0
 24 28  1  0  0  0  0
 24 30  1  0  0  0  0
 27 19  1  6  0  0  0
 27 26  1  0  0  0  0
 27 22  1  0  0  0  0
 29 31  1  0  0  0  0
 29 30  1  0  0  0  0
 30 21  2  0  0  0  0
 32 33  1  0  0  0  0
 33 31  1  0  0  0  0
M  END
>  <MODEL>
8

>  <REMARK>
 VINA RESULT:      -6.5      1.455      2.002
  Name = 
  14 active torsions:
  status: ('A' for Active; 'I' for Inactive)
    1  A    between atoms: C_6  and  C_24
    2  A    between atoms: C_7  and  C_23
    3  A    between atoms: C_7  and  C_27
    4  A    between atoms: C_8  and  O_11
    5  A    between atoms: C_8  and  C_17
    6  A    between atoms: C_8  and  C_29
    7  A    between atoms: N_9  and  C_25
    8  A    between atoms: N_9  and  C_29
    9  A    between atoms: O_11  and  C_33
   10  A    between atoms: C_17  and  C_23
   11  A    between atoms: P_20  and  C_25
   12  A    between atoms: C_22  and  C_33
   13  A    between atoms: C_24  and  N_30
   14  A    between atoms: C_26  and  C_27
                            x       y       z     vdW  Elec       q    Type
                         _______ _______ _______ _____ _____    ______ ____

>  <TORSDO>
F 14

$$$$
=
 OpenBabel11062414513D

 33 34  0  0  1  0  0  0  0  0999 V2000
  189.5360  176.3520  138.8590 C   0  0  0  0  0  2  0  0  0  0  0  0
  189.2920  176.8900  137.4580 C   0  0  2  0  0  3  0  0  0  0  0  0
  189.7640  178.2020  137.3990 O   0  0  0  0  0  1  0  0  0  0  0  0
  187.8040  176.8440  137.0940 C   0  0  2  0  0  3  0  0  0  0  0  0
  187.6410  176.2570  135.8230 O   0  0  0  0  0  0  0  0  0  0  0  0
  186.4690  174.8470  137.2510 O   0  0  0  0  0  1  0  0  0  0  0  0
  187.7790  173.9120  135.5190 C   0  0  0  0  0  1  0  0  0  0  0  0
  186.8840  175.0640  135.9300 C   0  0  2  0  0  0  0  0  0  0  0  0
  184.5220  175.5030  135.6720 O   0  0  0  0  0  1  0  0  0  0  0  0
  185.6720  175.0940  134.9920 C   0  0  0  0  0  2  0  0  0  0  0  0
  187.2230  178.2570  137.0590 C   0  0  0  0  0  2  0  0  0  0  0  0
  186.6720  178.6190  138.3570 N   0  0  0  0  0  2  0  0  0  0  0  0
  185.2990  178.1400  138.4070 C   0  0  0  0  0  2  0  0  0  0  0  0
  183.2240  178.1670  140.1730 O   0  0  0  0  0  1  0  0  0  0  0  0
  183.7850  180.4740  139.0740 O   0  0  0  0  0  0  0  0  0  0  0  0
  185.4040  179.3470  141.0070 O   0  0  0  0  0  1  0  0  0  0  0  0
  184.3790  179.0200  139.7020 P   0  0  0  0  0  0  0  0  0  0  0  0
  190.1830  177.4180  139.7300 C   0  0  0  0  0  2  0  0  0  0  0  0
  189.2340  177.8770  140.8320 C   0  0  0  0  0  2  0  0  0  0  0  0
  188.2870  177.9030  144.0910 C   0  0  1  0  0  3  0  0  0  0  0  0
  188.9790  176.7310  147.3560 O   0  0  0  0  0  0  0  0  0  0  0  0
  190.2910  177.3040  143.0390 C   0  0  1  0  0  3  0  0  0  0  0  0
  189.7670  177.7840  144.1600 C   0  0  2  0  0  3  0  0  0  0  0  0
  190.2150  177.4670  145.4820 N   0  0  0  0  0  0  0  0  0  0  0  0
  191.6750  176.7680  142.9050 C   0  0  0  0  0  1  0  0  0  0  0  0
  187.9170  177.0650  142.8720 C   0  0  0  0  0  2  0  0  0  0  0  0
  189.2160  176.9620  142.0630 C   0  0  1  0  0  3  0  0  0  0  0  0
  191.5460  177.0480  145.8950 C   0  0  0  0  0  1  0  0  0  0  0  0
  187.8570  177.3040  145.3490 N   0  0  0  0  0  0  0  0  0  0  0  0
  189.0140  177.1400  146.1640 C   0  0  0  0  0  0  0  0  0  0  0  0
  186.4790  177.2400  145.8110 C   0  0  0  0  0  2  0  0  0  0  0  0
  184.8550  179.0040  145.1880 C   0  0  0  0  0  1  0  0  0  0  0  0
  185.9820  178.6330  146.1310 C   0  0  0  0  0  2  0  0  0  0  0  0
  1 18  1  0  0  0  0
  2  3  1  1  0  0  0
  2  1  1  0  0  0  0
  4 11  1  6  0  0  0
  4  2  1  0  0  0  0
  5  8  1  0  0  0  0
  5  4  1  0  0  0  0
  8  7  1  6  0  0  0
  8  6  1  0  0  0  0
 10  9  1  0  0  0  0
 10  8  1  0  0  0  0
 11 12  1  0  0  0  0
 12 13  1  0  0  0  0
 13 17  1  0  0  0  0
 15 17  2  0  0  0  0
 17 14  1  0  0  0  0
 17 16  1  0  0  0  0
 18 19  1  0  0  0  0
 20 26  1  6  0  0  0
 20 23  1  0  0  0  0
 20 29  1  0  0  0  0
 22 25  1  1  0  0  0
 22 23  1  0  0  0  0
 23 24  1  1  0  0  0
 24 28  1  0  0  0  0
 24 30  1  0  0  0  0
 27 19  1  6  0  0  0
 27 26  1  0  0  0  0
 27 22  1  0  0  0  0
 29 31  1  0  0  0  0
 29 30  1  0  0  0  0
 30 21  2  0  0  0  0
 31 33  1  0  0  0  0
 32 33  1  0  0  0  0
M  END
>  <MODEL>
9

>  <REMARK>
 VINA RESULT:      -6.4      2.866      4.465
  Name = 
  14 active torsions:
  status: ('A' for Active; 'I' for Inactive)
    1  A    between atoms: C_6  and  C_24
    2  A    between atoms: C_7  and  C_23
    3  A    between atoms: C_7  and  C_27
    4  A    between atoms: C_8  and  O_11
    5  A    between atoms: C_8  and  C_17
    6  A    between atoms: C_8  and  C_29
    7  A    between atoms: N_9  and  C_25
    8  A    between atoms: N_9  and  C_29
    9  A    between atoms: O_11  and  C_33
   10  A    between atoms: C_17  and  C_23
   11  A    between atoms: P_20  and  C_25
   12  A    between atoms: C_22  and  C_33
   13  A    between atoms: C_24  and  N_30
   14  A    between atoms: C_26  and  C_27
                            x       y       z     vdW  Elec       q    Type
                         _______ _______ _______ _____ _____    ______ ____

>  <TORSDO>
F 14

$$$$
