=
 OpenBabel11062416283D

 46 49  0  0  1  0  0  0  0  0999 V2000
  183.7180  178.1650  141.1680 C   0  0  0  0  0  2  0  0  0  0  0  0
  181.5180  179.2120  141.5000 O   0  0  0  0  0  0  0  0  0  0  0  0
  179.8260  177.8580  141.5110 C   0  0  0  0  0  2  0  0  0  0  0  0
  181.0650  177.6780  138.4500 C   0  0  2  0  0  0  0  0  0  0  0  0
  182.3540  178.5340  140.5800 C   0  0  2  0  0  3  0  0  0  0  0  0
  180.9260  178.2980  142.2580 O   0  0  0  0  0  0  0  0  0  0  0  0
  181.6580  177.3680  139.8350 C   0  0  1  0  0  3  0  0  0  0  0  0
  179.3680  177.1390  138.9000 S   0  0  0  0  0  0  0  0  0  0  0  0
  180.3280  176.9070  140.4340 C   0  0  2  0  0  3  0  0  0  0  0  0
  183.9930  177.4820  137.5500 O   0  0  0  0  0  0  0  0  0  0  0  0
  184.4270  174.7040  136.8540 O   0  0  0  0  0  1  0  0  0  0  0  0
  180.1060  174.9420  137.1550 O   0  0  0  0  0  0  0  0  0  0  0  0
  182.3080  174.4680  137.7050 O   0  0  0  0  0  0  0  0  0  0  0  0
  181.2740  175.3410  137.4080 C   0  0  0  0  0  0  0  0  0  0  0  0
  183.5450  175.1490  137.8380 C   0  0  2  0  0  3  0  0  0  0  0  0
  183.1750  176.5760  137.5830 C   0  0  0  0  0  0  0  0  0  0  0  0
  181.7040  176.7710  137.3570 C   0  0  2  0  0  3  0  0  0  0  0  0
  181.1460  179.4590  136.5320 C   0  0  2  0  0  3  0  0  0  0  0  0
  180.2370  178.6530  135.8380 O   0  0  0  0  0  1  0  0  0  0  0  0
  179.8910  181.2420  137.6380 C   0  0  2  0  0  3  0  0  0  0  0  0
  181.0950  179.1790  138.0300 C   0  0  1  0  0  3  0  0  0  0  0  0
  180.7150  180.9060  136.4020 C   0  0  0  0  0  2  0  0  0  0  0  0
  180.4430  182.3540  138.2740 O   0  0  0  0  0  1  0  0  0  0  0  0
  179.9640  180.0410  138.5630 C   0  0  0  0  0  2  0  0  0  0  0  0
  184.8160  179.1870  140.8860 C   0  0  0  0  0  2  0  0  0  0  0  0
  186.1450  178.5210  140.5520 C   0  0  0  0  0  2  0  0  0  0  0  0
  186.4760  178.7350  139.2100 O   0  0  0  0  0  0  0  0  0  0  0  0
  188.9470  179.0700  138.4030 O   0  0  0  0  0  1  0  0  0  0  0  0
  188.0090  178.0410  138.9920 P   0  0  2  0  0  0  0  0  0  0  0  0
  187.8700  176.7430  137.9160 O   0  0  0  0  0  0  0  0  0  0  0  0
  188.6720  177.4240  140.5720 C   0  0  0  0  0  2  0  0  0  0  0  0
  190.1930  177.3550  140.5240 C   0  0  1  0  0  3  0  0  0  0  0  0
  190.7520  177.3320  141.8380 O   0  0  0  0  0  0  0  0  0  0  0  0
  190.2960  175.3190  142.8900 O   0  0  0  0  0  0  0  0  0  0  0  0
  190.2280  176.5770  142.8960 C   0  0  0  0  0  0  0  0  0  0  0  0
  188.1220  176.7720  144.1610 C   0  0  0  0  0  1  0  0  0  0  0  0
  189.5550  177.2640  144.0400 C   0  0  1  0  0  3  0  0  0  0  0  0
  190.3220  177.0330  145.3400 C   0  0  0  0  0  3  0  0  0  0  0  0
  189.6890  177.6970  146.3940 O   0  0  0  0  0  1  0  0  0  0  0  0
  191.6260  177.5180  145.2190 O   0  0  0  0  0  1  0  0  0  0  0  0
  190.6010  176.2280  139.8040 O   0  0  0  0  0  0  0  0  0  0  0  0
  191.6480  176.6280  139.1120 O   0  0  0  0  0  0  0  0  0  0  0  0
  193.1370  175.4610  137.1000 O   0  0  0  0  0  1  0  0  0  0  0  0
  191.5680  175.7760  137.6460 P   0  0  0  0  0  0  0  0  0  0  0  0
  190.7550  174.3120  137.8810 O   0  0  0  0  0  1  0  0  0  0  0  0
  190.8360  176.5990  136.6100 O   0  0  0  0  0  0  0  0  0  0  0  0
  2  6  1  0  0  0  0
  3  6  1  0  0  0  0
  4  8  1  1  0  0  0
  4  7  1  0  0  0  0
  5  1  1  1  0  0  0
  5  2  1  0  0  0  0
  7  9  1  0  0  0  0
  7  5  1  0  0  0  0
  8  9  1  0  0  0  0
  9  3  1  0  0  0  0
 10 16  2  0  0  0  0
 11 15  1  0  0  0  0
 12 14  2  0  0  0  0
 13 15  1  0  0  0  0
 14 13  1  0  0  0  0
 16 15  1  0  0  0  0
 17 14  1  0  0  0  0
 17 16  1  0  0  0  0
 17  4  1  0  0  0  0
 18 21  1  0  0  0  0
 19 18  1  0  0  0  0
 20 23  1  0  0  0  0
 20 24  1  0  0  0  0
 21  4  1  0  0  0  0
 21 24  1  0  0  0  0
 22 18  1  0  0  0  0
 22 20  1  0  0  0  0
 25  1  1  0  0  0  0
 26 25  1  0  0  0  0
 27 26  1  0  0  0  0
 28 29  1  0  0  0  0
 29 27  1  0  0  0  0
 29 31  1  0  0  0  0
 30 29  2  0  0  0  0
 32 31  1  0  0  0  0
 32 33  1  0  0  0  0
 33 35  1  0  0  0  0
 34 35  2  0  0  0  0
 35 37  1  0  0  0  0
 37 36  1  0  0  0  0
 37 38  1  0  0  0  0
 38 39  1  0  0  0  0
 40 38  1  0  0  0  0
 41 32  1  0  0  0  0
 42 41  1  0  0  0  0
 43 44  1  0  0  0  0
 44 45  1  0  0  0  0
 44 42  1  0  0  0  0
 46 44  2  0  0  0  0
M  END
>  <MODEL>
1

>  <REMARK>
 VINA RESULT:      -6.7      0.000      0.000
  Name = 
  16 active torsions:
  status: ('A' for Active; 'I' for Inactive)
    1  A    between atoms: C_3  and  O_21
    2  A    between atoms: C_3  and  C_40
    3  A    between atoms: C_3  and  O_46
    4  A    between atoms: O_4  and  P_19
    5  A    between atoms: O_4  and  O_46
    6  A    between atoms: O_6  and  P_12
    7  A    between atoms: O_6  and  C_23
    8  A    between atoms: C_10  and  C_43
    9  A    between atoms: C_11  and  C_27
   10  A    between atoms: C_11  and  C_45
   11  A    between atoms: P_12  and  C_40
   12  A    between atoms: O_21  and  C_38
   13  A    between atoms: C_23  and  C_41
   14  A    between atoms: C_25  and  C_31
   15  A    between atoms: C_25  and  C_41
   16  A    between atoms: C_38  and  C_43
                            x       y       z     vdW  Elec       q    Type
                         _______ _______ _______ _____ _____    ______ ____

>  <TORSDO>
F 16

$$$$
=
 OpenBabel11062416283D

 46 49  0  0  1  0  0  0  0  0999 V2000
  187.6730  178.2660  138.8800 C   0  0  0  0  0  2  0  0  0  0  0  0
  188.4110  176.9660  136.9290 O   0  0  0  0  0  0  0  0  0  0  0  0
  187.5270  177.5320  135.0330 C   0  0  0  0  0  2  0  0  0  0  0  0
  185.0160  176.3910  136.8580 C   0  0  2  0  0  0  0  0  0  0  0  0
  187.3230  177.2510  137.7890 C   0  0  2  0  0  3  0  0  0  0  0  0
  188.4580  177.9170  136.0060 O   0  0  0  0  0  0  0  0  0  0  0  0
  185.9980  177.5590  137.0500 C   0  0  1  0  0  3  0  0  0  0  0  0
  184.9610  176.5520  135.0300 S   0  0  0  0  0  0  0  0  0  0  0  0
  186.1320  177.8490  135.5530 C   0  0  2  0  0  3  0  0  0  0  0  0
  184.4180  177.7200  139.5590 O   0  0  0  0  0  0  0  0  0  0  0  0
  181.9900  179.2530  139.1720 O   0  0  0  0  0  1  0  0  0  0  0  0
  182.1130  176.7570  135.6250 O   0  0  0  0  0  0  0  0  0  0  0  0
  182.2980  178.6270  136.9840 O   0  0  0  0  0  0  0  0  0  0  0  0
  182.6430  177.3380  136.6090 C   0  0  0  0  0  0  0  0  0  0  0  0
  182.9470  179.0130  138.1850 C   0  0  2  0  0  3  0  0  0  0  0  0
  183.7520  177.8040  138.5390 C   0  0  0  0  0  0  0  0  0  0  0  0
  183.6420  176.7050  137.5210 C   0  0  2  0  0  3  0  0  0  0  0  0
  184.5010  173.9870  137.7620 C   0  0  2  0  0  3  0  0  0  0  0  0
  183.3960  173.9760  136.9060 O   0  0  0  0  0  1  0  0  0  0  0  0
  186.3260  172.7880  136.6630 C   0  0  2  0  0  3  0  0  0  0  0  0
  185.5490  174.9920  137.2920 C   0  0  1  0  0  3  0  0  0  0  0  0
  185.1990  172.6440  137.6780 C   0  0  0  0  0  2  0  0  0  0  0  0
  187.5330  172.4180  137.2570 O   0  0  0  0  0  1  0  0  0  0  0  0
  186.3850  174.2500  136.2640 C   0  0  0  0  0  2  0  0  0  0  0  0
  188.1040  177.6370  140.2020 C   0  0  0  0  0  2  0  0  0  0  0  0
  189.6190  177.6110  140.3550 C   0  0  0  0  0  2  0  0  0  0  0  0
  190.0390  176.3780  140.8650 O   0  0  0  0  0  0  0  0  0  0  0  0
  190.3720  177.9380  142.9460 O   0  0  0  0  0  0  0  0  0  0  0  0
  189.9860  176.5300  142.5550 P   0  0  2  0  0  0  0  0  0  0  0  0
  191.0940  175.4470  143.2330 O   0  0  0  0  0  1  0  0  0  0  0  0
  188.3240  176.1400  143.1890 C   0  0  0  0  0  2  0  0  0  0  0  0
  187.9190  177.1290  144.2740 C   0  0  1  0  0  3  0  0  0  0  0  0
  186.5000  177.1720  144.4340 O   0  0  0  0  0  0  0  0  0  0  0  0
  185.5390  178.5380  142.8290 O   0  0  0  0  0  0  0  0  0  0  0  0
  185.7040  178.2580  144.0470 C   0  0  0  0  0  0  0  0  0  0  0  0
  183.5470  179.0690  144.9200 C   0  0  0  0  0  1  0  0  0  0  0  0
  185.0570  179.1150  145.0850 C   0  0  1  0  0  3  0  0  0  0  0  0
  185.4660  178.6700  146.4880 C   0  0  0  0  0  3  0  0  0  0  0  0
  184.3730  178.1030  147.1480 O   0  0  0  0  0  1  0  0  0  0  0  0
  185.9190  179.7670  147.2250 O   0  0  0  0  0  1  0  0  0  0  0  0
  188.5330  176.7950  145.4840 O   0  0  0  0  0  0  0  0  0  0  0  0
  188.6480  177.9350  146.1350 O   0  0  0  0  0  0  0  0  0  0  0  0
  190.7490  176.9380  147.6240 O   0  0  0  0  0  0  0  0  0  0  0  0
  189.1590  177.5090  147.6960 P   0  0  0  0  0  0  0  0  0  0  0  0
  189.0990  178.8640  148.7060 O   0  0  0  0  0  1  0  0  0  0  0  0
  188.2660  176.4240  148.2540 O   0  0  0  0  0  1  0  0  0  0  0  0
  1 25  1  0  0  0  0
  2  5  1  0  0  0  0
  3  9  1  0  0  0  0
  3  6  1  0  0  0  0
  4  8  1  6  0  0  0
  4  7  1  0  0  0  0
  4 21  1  0  0  0  0
  4 17  1  0  0  0  0
  5  1  1  6  0  0  0
  6  2  1  0  0  0  0
  7  5  1  0  0  0  0
  8  9  1  0  0  0  0
  9  7  1  0  0  0  0
 12 14  2  0  0  0  0
 13 15  1  0  0  0  0
 14 13  1  0  0  0  0
 14 17  1  0  0  0  0
 15 16  1  0  0  0  0
 15 11  1  0  0  0  0
 16 10  2  0  0  0  0
 17 16  1  0  0  0  0
 19 18  1  0  0  0  0
 20 23  1  0  0  0  0
 20 22  1  0  0  0  0
 21 18  1  0  0  0  0
 22 18  1  0  0  0  0
 24 20  1  0  0  0  0
 24 21  1  0  0  0  0
 25 26  1  0  0  0  0
 26 27  1  0  0  0  0
 27 29  1  0  0  0  0
 29 28  2  0  0  0  0
 29 31  1  0  0  0  0
 29 30  1  0  0  0  0
 31 32  1  0  0  0  0
 32 33  1  0  0  0  0
 32 41  1  0  0  0  0
 34 35  2  0  0  0  0
 35 33  1  0  0  0  0
 35 37  1  0  0  0  0
 36 37  1  0  0  0  0
 37 38  1  0  0  0  0
 38 39  1  0  0  0  0
 38 40  1  0  0  0  0
 41 42  1  0  0  0  0
 42 44  1  0  0  0  0
 43 44  2  0  0  0  0
 44 46  1  0  0  0  0
 44 45  1  0  0  0  0
M  END
>  <MODEL>
2

>  <REMARK>
 VINA RESULT:      -6.7      3.178      6.782
  Name = 
  16 active torsions:
  status: ('A' for Active; 'I' for Inactive)
    1  A    between atoms: C_3  and  O_21
    2  A    between atoms: C_3  and  C_40
    3  A    between atoms: C_3  and  O_46
    4  A    between atoms: O_4  and  P_19
    5  A    between atoms: O_4  and  O_46
    6  A    between atoms: O_6  and  P_12
    7  A    between atoms: O_6  and  C_23
    8  A    between atoms: C_10  and  C_43
    9  A    between atoms: C_11  and  C_27
   10  A    between atoms: C_11  and  C_45
   11  A    between atoms: P_12  and  C_40
   12  A    between atoms: O_21  and  C_38
   13  A    between atoms: C_23  and  C_41
   14  A    between atoms: C_25  and  C_31
   15  A    between atoms: C_25  and  C_41
   16  A    between atoms: C_38  and  C_43
                            x       y       z     vdW  Elec       q    Type
                         _______ _______ _______ _____ _____    ______ ____

>  <TORSDO>
F 16

$$$$
=
 OpenBabel11062416283D

 46 49  0  0  1  0  0  0  0  0999 V2000
  187.6350  178.2980  138.4130 C   0  0  0  0  0  2  0  0  0  0  0  0
  188.3210  176.9080  136.5050 O   0  0  0  0  0  0  0  0  0  0  0  0
  187.3580  177.3610  134.6170 C   0  0  0  0  0  2  0  0  0  0  0  0
  184.9360  176.2810  136.5930 C   0  0  2  0  0  0  0  0  0  0  0  0
  187.2620  177.2220  137.3890 C   0  0  2  0  0  3  0  0  0  0  0  0
  188.3180  177.8100  135.5330 O   0  0  0  0  0  0  0  0  0  0  0  0
  185.9050  177.4720  136.6860 C   0  0  1  0  0  3  0  0  0  0  0  0
  184.8100  176.3450  134.7620 S   0  0  0  0  0  0  0  0  0  0  0  0
  185.9780  177.6840  135.1730 C   0  0  2  0  0  3  0  0  0  0  0  0
  184.4160  177.7520  139.2360 O   0  0  0  0  0  0  0  0  0  0  0  0
  181.9470  179.2190  138.8580 O   0  0  0  0  0  1  0  0  0  0  0  0
  181.9810  176.5270  135.4560 O   0  0  0  0  0  0  0  0  0  0  0  0
  182.1820  178.4740  136.6980 O   0  0  0  0  0  0  0  0  0  0  0  0
  182.5370  177.1720  136.3840 C   0  0  0  0  0  0  0  0  0  0  0  0
  182.8690  178.9400  137.8490 C   0  0  2  0  0  3  0  0  0  0  0  0
  183.7100  177.7660  138.2400 C   0  0  0  0  0  0  0  0  0  0  0  0
  183.5830  176.6090  137.2910 C   0  0  2  0  0  3  0  0  0  0  0  0
  184.4940  173.9180  137.6320 C   0  0  2  0  0  3  0  0  0  0  0  0
  183.3620  173.8450  136.8150 O   0  0  0  0  0  1  0  0  0  0  0  0
  186.3040  172.6940  136.5350 C   0  0  2  0  0  3  0  0  0  0  0  0
  185.5070  174.9140  137.0790 C   0  0  1  0  0  3  0  0  0  0  0  0
  185.2130  172.5840  137.5930 C   0  0  0  0  0  2  0  0  0  0  0  0
  187.5360  172.3740  137.1060 O   0  0  0  0  0  1  0  0  0  0  0  0
  186.3240  174.1350  136.0620 C   0  0  0  0  0  2  0  0  0  0  0  0
  189.0470  178.1620  138.9750 C   0  0  0  0  0  2  0  0  0  0  0  0
  189.1220  177.1210  140.0850 C   0  0  0  0  0  2  0  0  0  0  0  0
  190.4540  176.8510  140.4140 O   0  0  0  0  0  0  0  0  0  0  0  0
  191.9240  177.3540  142.5250 O   0  0  0  0  0  0  0  0  0  0  0  0
  190.5390  176.9160  142.1080 P   0  0  2  0  0  0  0  0  0  0  0  0
  190.2400  175.3710  142.7270 O   0  0  0  0  0  1  0  0  0  0  0  0
  189.2940  178.0650  142.7750 C   0  0  0  0  0  2  0  0  0  0  0  0
  188.3890  177.3540  143.7730 C   0  0  1  0  0  3  0  0  0  0  0  0
  188.3260  178.0620  145.0120 O   0  0  0  0  0  0  0  0  0  0  0  0
  187.6930  176.6550  146.7400 O   0  0  0  0  0  0  0  0  0  0  0  0
  188.5320  177.4650  146.2630 C   0  0  0  0  0  0  0  0  0  0  0  0
  189.3490  178.1480  148.4850 C   0  0  0  0  0  1  0  0  0  0  0  0
  189.7490  177.8070  147.0590 C   0  0  1  0  0  3  0  0  0  0  0  0
  190.7550  176.6580  147.0360 C   0  0  0  0  0  3  0  0  0  0  0  0
  191.8230  176.9390  147.8920 O   0  0  0  0  0  1  0  0  0  0  0  0
  191.2470  176.4790  145.7420 O   0  0  0  0  0  1  0  0  0  0  0  0
  187.1080  177.1990  143.2360 O   0  0  0  0  0  0  0  0  0  0  0  0
  186.3280  177.9370  143.9990 O   0  0  0  0  0  0  0  0  0  0  0  0
  184.6470  180.1100  143.7170 O   0  0  0  0  0  1  0  0  0  0  0  0
  185.3120  178.7710  142.9260 P   0  0  0  0  0  0  0  0  0  0  0  0
  186.2030  179.3000  141.5900 O   0  0  0  0  0  0  0  0  0  0  0  0
  184.1950  177.8630  142.4610 O   0  0  0  0  0  1  0  0  0  0  0  0
  1 25  1  0  0  0  0
  2  5  1  0  0  0  0
  3  9  1  0  0  0  0
  3  6  1  0  0  0  0
  4  8  1  6  0  0  0
  4  7  1  0  0  0  0
  4 21  1  0  0  0  0
  4 17  1  0  0  0  0
  5  1  1  6  0  0  0
  6  2  1  0  0  0  0
  7  5  1  0  0  0  0
  8  9  1  0  0  0  0
  9  7  1  0  0  0  0
 12 14  2  0  0  0  0
 13 15  1  0  0  0  0
 14 13  1  0  0  0  0
 14 17  1  0  0  0  0
 15 16  1  0  0  0  0
 15 11  1  0  0  0  0
 16 10  2  0  0  0  0
 17 16  1  0  0  0  0
 19 18  1  0  0  0  0
 20 23  1  0  0  0  0
 20 22  1  0  0  0  0
 21 18  1  0  0  0  0
 22 18  1  0  0  0  0
 24 20  1  0  0  0  0
 24 21  1  0  0  0  0
 25 26  1  0  0  0  0
 26 27  1  0  0  0  0
 27 29  1  0  0  0  0
 29 28  2  0  0  0  0
 29 30  1  0  0  0  0
 29 31  1  0  0  0  0
 31 32  1  0  0  0  0
 32 33  1  0  0  0  0
 33 35  1  0  0  0  0
 35 34  2  0  0  0  0
 35 37  1  0  0  0  0
 37 36  1  0  0  0  0
 38 37  1  0  0  0  0
 38 39  1  0  0  0  0
 40 38  1  0  0  0  0
 41 32  1  0  0  0  0
 41 42  1  0  0  0  0
 44 43  1  0  0  0  0
 44 42  1  0  0  0  0
 45 44  2  0  0  0  0
 46 44  1  0  0  0  0
M  END
>  <MODEL>
3

>  <REMARK>
 VINA RESULT:      -6.7      2.852      6.286
  Name = 
  16 active torsions:
  status: ('A' for Active; 'I' for Inactive)
    1  A    between atoms: C_3  and  O_21
    2  A    between atoms: C_3  and  C_40
    3  A    between atoms: C_3  and  O_46
    4  A    between atoms: O_4  and  P_19
    5  A    between atoms: O_4  and  O_46
    6  A    between atoms: O_6  and  P_12
    7  A    between atoms: O_6  and  C_23
    8  A    between atoms: C_10  and  C_43
    9  A    between atoms: C_11  and  C_27
   10  A    between atoms: C_11  and  C_45
   11  A    between atoms: P_12  and  C_40
   12  A    between atoms: O_21  and  C_38
   13  A    between atoms: C_23  and  C_41
   14  A    between atoms: C_25  and  C_31
   15  A    between atoms: C_25  and  C_41
   16  A    between atoms: C_38  and  C_43
                            x       y       z     vdW  Elec       q    Type
                         _______ _______ _______ _____ _____    ______ ____

>  <TORSDO>
F 16

$$$$
=
 OpenBabel11062416283D

 46 49  0  0  1  0  0  0  0  0999 V2000
  182.3630  178.2700  142.1070 C   0  0  0  0  0  2  0  0  0  0  0  0
  179.9540  178.6510  141.7920 O   0  0  0  0  0  0  0  0  0  0  0  0
  178.9310  177.2090  140.5390 C   0  0  0  0  0  2  0  0  0  0  0  0
  181.0690  178.7410  138.5340 C   0  0  2  0  0  0  0  0  0  0  0  0
  181.2220  178.6510  141.1600 C   0  0  2  0  0  3  0  0  0  0  0  0
  179.5070  177.4030  141.8010 O   0  0  0  0  0  0  0  0  0  0  0  0
  181.2540  177.8980  139.8080 C   0  0  1  0  0  3  0  0  0  0  0  0
  179.6170  177.7840  137.9430 S   0  0  0  0  0  0  0  0  0  0  0  0
  180.0500  176.9960  139.5300 C   0  0  2  0  0  3  0  0  0  0  0  0
  184.0040  179.4880  139.0290 O   0  0  0  0  0  0  0  0  0  0  0  0
  185.5780  177.5090  137.6160 O   0  0  0  0  0  1  0  0  0  0  0  0
  181.5930  176.8600  136.0300 O   0  0  0  0  0  0  0  0  0  0  0  0
  183.5210  176.5460  137.2790 O   0  0  0  0  0  0  0  0  0  0  0  0
  182.4010  177.2710  136.9040 C   0  0  0  0  0  0  0  0  0  0  0  0
  184.3310  177.2700  138.1920 C   0  0  2  0  0  3  0  0  0  0  0  0
  183.5900  178.5590  138.3530 C   0  0  0  0  0  0  0  0  0  0  0  0
  182.2980  178.5950  137.5880 C   0  0  2  0  0  3  0  0  0  0  0  0
  181.1700  181.2200  137.6970 C   0  0  2  0  0  3  0  0  0  0  0  0
  180.9050  180.7270  136.4160 O   0  0  0  0  0  1  0  0  0  0  0  0
  179.0670  182.0140  138.6580 C   0  0  2  0  0  3  0  0  0  0  0  0
  180.7080  180.2390  138.7690 C   0  0  1  0  0  3  0  0  0  0  0  0
  180.3280  182.4590  137.9290 C   0  0  0  0  0  2  0  0  0  0  0  0
  178.9340  182.7430  139.8390 O   0  0  0  0  0  1  0  0  0  0  0  0
  179.2360  180.5430  138.9860 C   0  0  0  0  0  2  0  0  0  0  0  0
  182.1440  178.7030  143.5540 C   0  0  0  0  0  2  0  0  0  0  0  0
  183.3790  179.3730  144.1430 C   0  0  0  0  0  2  0  0  0  0  0  0
  183.8920  178.6120  145.1990 O   0  0  0  0  0  0  0  0  0  0  0  0
  186.1880  179.0790  146.3750 O   0  0  0  0  0  1  0  0  0  0  0  0
  185.5810  178.6850  145.0490 P   0  0  2  0  0  0  0  0  0  0  0  0
  185.9740  179.8560  143.8930 O   0  0  0  0  0  0  0  0  0  0  0  0
  186.2530  177.0810  144.5080 C   0  0  0  0  0  2  0  0  0  0  0  0
  187.6990  177.2320  144.0520 C   0  0  1  0  0  3  0  0  0  0  0  0
  188.6100  176.9420  145.1140 O   0  0  0  0  0  0  0  0  0  0  0  0
  189.9250  178.8390  144.9180 O   0  0  0  0  0  0  0  0  0  0  0  0
  189.5410  177.8610  145.6150 C   0  0  0  0  0  0  0  0  0  0  0  0
  188.9840  177.5100  147.9890 C   0  0  0  0  0  1  0  0  0  0  0  0
  190.1110  177.6730  146.9830 C   0  0  1  0  0  3  0  0  0  0  0  0
  191.0520  176.4700  147.0190 C   0  0  0  0  0  3  0  0  0  0  0  0
  192.0040  176.6360  148.0280 O   0  0  0  0  0  1  0  0  0  0  0  0
  191.7090  176.3400  145.7940 O   0  0  0  0  0  1  0  0  0  0  0  0
  187.9480  176.3990  142.9580 O   0  0  0  0  0  0  0  0  0  0  0  0
  188.4550  177.1910  142.0350 O   0  0  0  0  0  0  0  0  0  0  0  0
  191.1110  177.8920  142.3230 O   0  0  0  0  0  1  0  0  0  0  0  0
  190.0550  176.6670  141.8260 P   0  0  0  0  0  0  0  0  0  0  0  0
  190.3290  175.2830  142.7590 O   0  0  0  0  0  1  0  0  0  0  0  0
  190.3090  176.3520  140.3690 O   0  0  0  0  0  0  0  0  0  0  0  0
  1 25  1  0  0  0  0
  2  6  1  0  0  0  0
  3  6  1  0  0  0  0
  4  8  1  6  0  0  0
  4 21  1  0  0  0  0
  4  7  1  0  0  0  0
  5  2  1  0  0  0  0
  5  1  1  1  0  0  0
  7  5  1  0  0  0  0
  8  9  1  0  0  0  0
  9  7  1  0  0  0  0
  9  3  1  0  0  0  0
 11 15  1  0  0  0  0
 12 14  2  0  0  0  0
 13 15  1  0  0  0  0
 14 13  1  0  0  0  0
 14 17  1  0  0  0  0
 15 16  1  0  0  0  0
 16 10  2  0  0  0  0
 17 16  1  0  0  0  0
 17  4  1  0  0  0  0
 18 22  1  0  0  0  0
 18 21  1  0  0  0  0
 19 18  1  0  0  0  0
 20 24  1  0  0  0  0
 20 23  1  0  0  0  0
 21 24  1  0  0  0  0
 22 20  1  0  0  0  0
 25 26  1  0  0  0  0
 26 27  1  0  0  0  0
 29 27  1  0  0  0  0
 29 28  1  0  0  0  0
 30 29  2  0  0  0  0
 31 29  1  0  0  0  0
 32 31  1  0  0  0  0
 32 33  1  0  0  0  0
 33 35  1  0  0  0  0
 34 35  2  0  0  0  0
 35 37  1  0  0  0  0
 37 38  1  0  0  0  0
 37 36  1  0  0  0  0
 38 39  1  0  0  0  0
 40 38  1  0  0  0  0
 41 32  1  0  0  0  0
 42 41  1  0  0  0  0
 44 42  1  0  0  0  0
 44 43  1  0  0  0  0
 44 45  1  0  0  0  0
 46 44  2  0  0  0  0
M  END
>  <MODEL>
4

>  <REMARK>
 VINA RESULT:      -6.4      2.284      3.566
  Name = 
  16 active torsions:
  status: ('A' for Active; 'I' for Inactive)
    1  A    between atoms: C_3  and  O_21
    2  A    between atoms: C_3  and  C_40
    3  A    between atoms: C_3  and  O_46
    4  A    between atoms: O_4  and  P_19
    5  A    between atoms: O_4  and  O_46
    6  A    between atoms: O_6  and  P_12
    7  A    between atoms: O_6  and  C_23
    8  A    between atoms: C_10  and  C_43
    9  A    between atoms: C_11  and  C_27
   10  A    between atoms: C_11  and  C_45
   11  A    between atoms: P_12  and  C_40
   12  A    between atoms: O_21  and  C_38
   13  A    between atoms: C_23  and  C_41
   14  A    between atoms: C_25  and  C_31
   15  A    between atoms: C_25  and  C_41
   16  A    between atoms: C_38  and  C_43
                            x       y       z     vdW  Elec       q    Type
                         _______ _______ _______ _____ _____    ______ ____

>  <TORSDO>
F 16

$$$$
=
 OpenBabel11062416283D

 46 49  0  0  1  0  0  0  0  0999 V2000
  183.7990  178.2720  141.2130 C   0  0  0  0  0  2  0  0  0  0  0  0
  181.5680  179.2440  141.5640 O   0  0  0  0  0  0  0  0  0  0  0  0
  179.9200  177.8350  141.5720 C   0  0  0  0  0  2  0  0  0  0  0  0
  181.1490  177.7200  138.5030 C   0  0  2  0  0  0  0  0  0  0  0  0
  182.4200  178.6010  140.6340 C   0  0  2  0  0  3  0  0  0  0  0  0
  181.0100  178.3050  142.3170 O   0  0  0  0  0  0  0  0  0  0  0  0
  181.7590  177.4190  139.8830 C   0  0  1  0  0  3  0  0  0  0  0  0
  179.4740  177.1230  138.9580 S   0  0  0  0  0  0  0  0  0  0  0  0
  180.4480  176.9100  140.4850 C   0  0  2  0  0  3  0  0  0  0  0  0
  184.0860  177.5940  137.6200 O   0  0  0  0  0  0  0  0  0  0  0  0
  184.5760  174.8370  136.8800 O   0  0  0  0  0  1  0  0  0  0  0  0
  180.2490  174.9890  137.1570 O   0  0  0  0  0  0  0  0  0  0  0  0
  182.4560  174.5470  137.7140 O   0  0  0  0  0  0  0  0  0  0  0  0
  181.4080  175.4050  137.4240 C   0  0  0  0  0  0  0  0  0  0  0  0
  183.6800  175.2490  137.8660 C   0  0  2  0  0  3  0  0  0  0  0  0
  183.2850  176.6720  137.6320 C   0  0  0  0  0  0  0  0  0  0  0  0
  181.8110  176.8440  137.4000 C   0  0  2  0  0  3  0  0  0  0  0  0
  181.1610  179.5190  136.6000 C   0  0  2  0  0  3  0  0  0  0  0  0
  180.2750  178.6900  135.9050 O   0  0  0  0  0  1  0  0  0  0  0  0
  179.8560  181.2510  137.7280 C   0  0  2  0  0  3  0  0  0  0  0  0
  181.1280  179.2250  138.0960 C   0  0  1  0  0  3  0  0  0  0  0  0
  180.6830  180.9530  136.4840 C   0  0  0  0  0  2  0  0  0  0  0  0
  180.3750  182.3750  138.3710 O   0  0  0  0  0  1  0  0  0  0  0  0
  179.9730  180.0460  138.6420 C   0  0  0  0  0  2  0  0  0  0  0  0
  184.9160  179.1910  140.7250 C   0  0  0  0  0  2  0  0  0  0  0  0
  186.2630  178.4790  140.6830 C   0  0  0  0  0  2  0  0  0  0  0  0
  187.1040  178.9650  141.6900 O   0  0  0  0  0  0  0  0  0  0  0  0
  189.6620  178.7080  142.2000 O   0  0  0  0  0  1  0  0  0  0  0  0
  188.4590  177.9440  141.6970 P   0  0  2  0  0  0  0  0  0  0  0  0
  188.7580  177.4250  140.1150 O   0  0  0  0  0  0  0  0  0  0  0  0
  188.1660  176.4840  142.7460 C   0  0  0  0  0  2  0  0  0  0  0  0
  187.7430  176.9070  144.1470 C   0  0  1  0  0  3  0  0  0  0  0  0
  188.7360  177.7300  144.7610 O   0  0  0  0  0  0  0  0  0  0  0  0
  190.9480  177.0450  144.8420 O   0  0  0  0  0  0  0  0  0  0  0  0
  189.8540  177.2280  145.4410 C   0  0  0  0  0  0  0  0  0  0  0  0
  191.1380  176.8300  147.5060 C   0  0  0  0  0  1  0  0  0  0  0  0
  189.7500  176.8800  146.8900 C   0  0  1  0  0  3  0  0  0  0  0  0
  188.8630  177.8800  147.6270 C   0  0  0  0  0  3  0  0  0  0  0  0
  189.5340  178.3850  148.7430 O   0  0  0  0  0  1  0  0  0  0  0  0
  187.6870  177.2570  148.0510 O   0  0  0  0  0  1  0  0  0  0  0  0
  186.5180  177.5780  144.0980 O   0  0  0  0  0  0  0  0  0  0  0  0
  185.9240  177.2850  145.2370 O   0  0  0  0  0  0  0  0  0  0  0  0
  184.5560  178.6590  147.2030 O   0  0  0  0  0  1  0  0  0  0  0  0
  184.8810  178.5880  145.5450 P   0  0  0  0  0  0  0  0  0  0  0  0
  185.6140  180.0330  145.0590 O   0  0  0  0  0  1  0  0  0  0  0  0
  183.5840  178.4020  144.7900 O   0  0  0  0  0  0  0  0  0  0  0  0
  2  6  1  0  0  0  0
  3  6  1  0  0  0  0
  4  8  1  1  0  0  0
  4  7  1  0  0  0  0
  5  1  1  1  0  0  0
  5  2  1  0  0  0  0
  7  9  1  0  0  0  0
  7  5  1  0  0  0  0
  8  9  1  0  0  0  0
  9  3  1  0  0  0  0
 10 16  2  0  0  0  0
 11 15  1  0  0  0  0
 12 14  2  0  0  0  0
 13 15  1  0  0  0  0
 14 13  1  0  0  0  0
 16 15  1  0  0  0  0
 17 14  1  0  0  0  0
 17 16  1  0  0  0  0
 17  4  1  0  0  0  0
 18 21  1  0  0  0  0
 19 18  1  0  0  0  0
 20 23  1  0  0  0  0
 20 24  1  0  0  0  0
 21  4  1  0  0  0  0
 21 24  1  0  0  0  0
 22 18  1  0  0  0  0
 22 20  1  0  0  0  0
 25  1  1  0  0  0  0
 26 25  1  0  0  0  0
 26 27  1  0  0  0  0
 27 29  1  0  0  0  0
 29 28  1  0  0  0  0
 29 31  1  0  0  0  0
 30 29  2  0  0  0  0
 31 32  1  0  0  0  0
 32 33  1  0  0  0  0
 33 35  1  0  0  0  0
 34 35  2  0  0  0  0
 35 37  1  0  0  0  0
 37 36  1  0  0  0  0
 37 38  1  0  0  0  0
 38 40  1  0  0  0  0
 38 39  1  0  0  0  0
 41 32  1  0  0  0  0
 41 42  1  0  0  0  0
 42 44  1  0  0  0  0
 44 43  1  0  0  0  0
 45 44  1  0  0  0  0
 46 44  2  0  0  0  0
M  END
>  <MODEL>
5

>  <REMARK>
 VINA RESULT:      -6.1      2.127      4.161
  Name = 
  16 active torsions:
  status: ('A' for Active; 'I' for Inactive)
    1  A    between atoms: C_3  and  O_21
    2  A    between atoms: C_3  and  C_40
    3  A    between atoms: C_3  and  O_46
    4  A    between atoms: O_4  and  P_19
    5  A    between atoms: O_4  and  O_46
    6  A    between atoms: O_6  and  P_12
    7  A    between atoms: O_6  and  C_23
    8  A    between atoms: C_10  and  C_43
    9  A    between atoms: C_11  and  C_27
   10  A    between atoms: C_11  and  C_45
   11  A    between atoms: P_12  and  C_40
   12  A    between atoms: O_21  and  C_38
   13  A    between atoms: C_23  and  C_41
   14  A    between atoms: C_25  and  C_31
   15  A    between atoms: C_25  and  C_41
   16  A    between atoms: C_38  and  C_43
                            x       y       z     vdW  Elec       q    Type
                         _______ _______ _______ _____ _____    ______ ____

>  <TORSDO>
F 16

$$$$
=
 OpenBabel11062416283D

 46 49  0  0  1  0  0  0  0  0999 V2000
  183.2100  178.2540  141.5740 C   0  0  0  0  0  2  0  0  0  0  0  0
  180.9460  179.2090  141.6610 O   0  0  0  0  0  0  0  0  0  0  0  0
  179.3230  177.8070  141.3550 C   0  0  0  0  0  2  0  0  0  0  0  0
  180.9740  177.8660  138.4900 C   0  0  2  0  0  0  0  0  0  0  0  0
  181.9260  178.6190  140.8260 C   0  0  2  0  0  3  0  0  0  0  0  0
  180.2930  178.2300  142.2720 O   0  0  0  0  0  0  0  0  0  0  0  0
  181.3850  177.4840  139.9230 C   0  0  1  0  0  3  0  0  0  0  0  0
  179.2550  177.2470  138.6670 S   0  0  0  0  0  0  0  0  0  0  0  0
  180.0040  176.9440  140.3020 C   0  0  2  0  0  3  0  0  0  0  0  0
  183.9930  177.8830  137.9370 O   0  0  0  0  0  0  0  0  0  0  0  0
  184.6790  175.1730  137.1790 O   0  0  0  0  0  1  0  0  0  0  0  0
  180.3460  175.1470  136.9750 O   0  0  0  0  0  0  0  0  0  0  0  0
  182.4940  174.7730  137.7620 O   0  0  0  0  0  0  0  0  0  0  0  0
  181.4490  175.5990  137.3810 C   0  0  0  0  0  0  0  0  0  0  0  0
  183.6620  175.5170  138.0700 C   0  0  2  0  0  3  0  0  0  0  0  0
  183.2360  176.9310  137.8340 C   0  0  0  0  0  0  0  0  0  0  0  0
  181.7910  177.0520  137.4430 C   0  0  2  0  0  3  0  0  0  0  0  0
  181.2360  179.7700  136.7120 C   0  0  2  0  0  3  0  0  0  0  0  0
  180.4550  178.9860  135.8570 O   0  0  0  0  0  1  0  0  0  0  0  0
  179.7830  181.4400  137.7510 C   0  0  2  0  0  3  0  0  0  0  0  0
  181.0020  179.3910  138.1700 C   0  0  1  0  0  3  0  0  0  0  0  0
  180.7720  181.2100  136.6150 C   0  0  0  0  0  2  0  0  0  0  0  0
  180.2060  182.5230  138.5210 O   0  0  0  0  0  1  0  0  0  0  0  0
  179.7800  180.1840  138.6010 C   0  0  0  0  0  2  0  0  0  0  0  0
  183.4000  179.0040  142.8900 C   0  0  0  0  0  2  0  0  0  0  0  0
  184.6840  178.5940  143.6010 C   0  0  0  0  0  2  0  0  0  0  0  0
  185.0300  179.5410  144.5710 O   0  0  0  0  0  0  0  0  0  0  0  0
  184.3230  178.0160  146.5820 O   0  0  0  0  0  0  0  0  0  0  0  0
  185.5280  178.6550  145.9300 P   0  0  2  0  0  0  0  0  0  0  0  0
  186.2550  179.7130  147.0320 O   0  0  0  0  0  1  0  0  0  0  0  0
  186.7370  177.3760  145.4640 C   0  0  0  0  0  2  0  0  0  0  0  0
  187.9810  178.0100  144.8550 C   0  0  1  0  0  3  0  0  0  0  0  0
  189.0270  178.1300  145.8210 O   0  0  0  0  0  0  0  0  0  0  0  0
  189.1900  176.3860  147.3370 O   0  0  0  0  0  0  0  0  0  0  0  0
  189.6980  177.0360  146.3840 C   0  0  0  0  0  0  0  0  0  0  0  0
  191.6800  177.8200  145.1490 C   0  0  0  0  0  1  0  0  0  0  0  0
  191.0440  176.6430  145.8690 C   0  0  1  0  0  3  0  0  0  0  0  0
  191.9380  176.1520  147.0060 C   0  0  0  0  0  3  0  0  0  0  0  0
  191.3900  175.0050  147.5850 O   0  0  0  0  0  1  0  0  0  0  0  0
  192.0540  177.1410  147.9850 O   0  0  0  0  0  1  0  0  0  0  0  0
  188.4160  177.2610  143.7590 O   0  0  0  0  0  0  0  0  0  0  0  0
  189.0300  178.1260  142.9780 O   0  0  0  0  0  0  0  0  0  0  0  0
  190.1060  175.6280  142.4990 O   0  0  0  0  0  1  0  0  0  0  0  0
  189.9050  177.1840  141.8690 P   0  0  0  0  0  0  0  0  0  0  0  0
  189.0570  177.0880  140.4090 O   0  0  0  0  0  0  0  0  0  0  0  0
  191.2630  177.8020  141.6240 O   0  0  0  0  0  1  0  0  0  0  0  0
  1 25  1  0  0  0  0
  2  6  1  0  0  0  0
  3  6  1  0  0  0  0
  4  8  1  6  0  0  0
  4  7  1  0  0  0  0
  5  1  1  1  0  0  0
  5  2  1  0  0  0  0
  7  9  1  0  0  0  0
  7  5  1  0  0  0  0
  8  9  1  0  0  0  0
  9  3  1  0  0  0  0
 11 15  1  0  0  0  0
 12 14  2  0  0  0  0
 13 15  1  0  0  0  0
 14 17  1  0  0  0  0
 14 13  1  0  0  0  0
 16 10  2  0  0  0  0
 16 15  1  0  0  0  0
 17 16  1  0  0  0  0
 17  4  1  0  0  0  0
 18 21  1  0  0  0  0
 19 18  1  0  0  0  0
 20 23  1  0  0  0  0
 20 24  1  0  0  0  0
 21  4  1  0  0  0  0
 21 24  1  0  0  0  0
 22 18  1  0  0  0  0
 22 20  1  0  0  0  0
 25 26  1  0  0  0  0
 26 27  1  0  0  0  0
 27 29  1  0  0  0  0
 29 28  2  0  0  0  0
 29 30  1  0  0  0  0
 31 29  1  0  0  0  0
 32 31  1  0  0  0  0
 32 33  1  0  0  0  0
 33 35  1  0  0  0  0
 35 34  2  0  0  0  0
 36 37  1  0  0  0  0
 37 35  1  0  0  0  0
 37 38  1  0  0  0  0
 38 39  1  0  0  0  0
 38 40  1  0  0  0  0
 41 32  1  0  0  0  0
 42 41  1  0  0  0  0
 44 43  1  0  0  0  0
 44 42  1  0  0  0  0
 45 44  2  0  0  0  0
 46 44  1  0  0  0  0
M  END
>  <MODEL>
6

>  <REMARK>
 VINA RESULT:      -6.0      2.190      3.595
  Name = 
  16 active torsions:
  status: ('A' for Active; 'I' for Inactive)
    1  A    between atoms: C_3  and  O_21
    2  A    between atoms: C_3  and  C_40
    3  A    between atoms: C_3  and  O_46
    4  A    between atoms: O_4  and  P_19
    5  A    between atoms: O_4  and  O_46
    6  A    between atoms: O_6  and  P_12
    7  A    between atoms: O_6  and  C_23
    8  A    between atoms: C_10  and  C_43
    9  A    between atoms: C_11  and  C_27
   10  A    between atoms: C_11  and  C_45
   11  A    between atoms: P_12  and  C_40
   12  A    between atoms: O_21  and  C_38
   13  A    between atoms: C_23  and  C_41
   14  A    between atoms: C_25  and  C_31
   15  A    between atoms: C_25  and  C_41
   16  A    between atoms: C_38  and  C_43
                            x       y       z     vdW  Elec       q    Type
                         _______ _______ _______ _____ _____    ______ ____

>  <TORSDO>
F 16

$$$$
=
 OpenBabel11062416283D

 46 49  0  0  1  0  0  0  0  0999 V2000
  183.7090  178.0620  141.1410 C   0  0  0  0  0  2  0  0  0  0  0  0
  181.5680  179.2020  141.5400 O   0  0  0  0  0  0  0  0  0  0  0  0
  179.8160  177.9260  141.5790 C   0  0  0  0  0  2  0  0  0  0  0  0
  180.9700  177.7270  138.4860 C   0  0  2  0  0  0  0  0  0  0  0  0
  182.3480  178.4980  140.5920 C   0  0  2  0  0  3  0  0  0  0  0  0
  180.9540  178.3070  142.3020 O   0  0  0  0  0  0  0  0  0  0  0  0
  181.5820  177.3740  139.8520 C   0  0  1  0  0  3  0  0  0  0  0  0
  179.2620  177.2590  138.9730 S   0  0  0  0  0  0  0  0  0  0  0  0
  180.2480  176.9660  140.4790 C   0  0  2  0  0  3  0  0  0  0  0  0
  183.8720  177.3570  137.5590 O   0  0  0  0  0  0  0  0  0  0  0  0
  184.1160  174.5730  136.7950 O   0  0  0  0  0  1  0  0  0  0  0  0
  179.8220  175.0920  137.1360 O   0  0  0  0  0  0  0  0  0  0  0  0
  181.9910  174.4590  137.6580 O   0  0  0  0  0  0  0  0  0  0  0  0
  181.0150  175.4060  137.3890 C   0  0  0  0  0  0  0  0  0  0  0  0
  183.2710  175.0530  137.7970 C   0  0  2  0  0  3  0  0  0  0  0  0
  182.9960  176.5070  137.5770 C   0  0  0  0  0  0  0  0  0  0  0  0
  181.5390  176.8050  137.3670 C   0  0  2  0  0  3  0  0  0  0  0  0
  181.1680  179.5210  136.5880 C   0  0  2  0  0  3  0  0  0  0  0  0
  180.2620  178.7480  135.8570 O   0  0  0  0  0  1  0  0  0  0  0  0
  179.9280  181.3300  137.6680 C   0  0  2  0  0  3  0  0  0  0  0  0
  181.0570  179.2300  138.0820 C   0  0  1  0  0  3  0  0  0  0  0  0
  180.7840  180.9810  136.4570 C   0  0  0  0  0  2  0  0  0  0  0  0
  180.4890  182.4200  138.3330 O   0  0  0  0  0  1  0  0  0  0  0  0
  179.9340  180.1200  138.5830 C   0  0  0  0  0  2  0  0  0  0  0  0
  184.8560  179.0040  140.7890 C   0  0  0  0  0  2  0  0  0  0  0  0
  185.9840  178.9370  141.8110 C   0  0  0  0  0  2  0  0  0  0  0  0
  185.8140  177.8360  142.6560 O   0  0  0  0  0  0  0  0  0  0  0  0
  187.6530  176.0400  143.1720 O   0  0  0  0  0  0  0  0  0  0  0  0
  187.3450  177.5130  143.3140 P   0  0  2  0  0  0  0  0  0  0  0  0
  187.3260  177.9160  144.9570 O   0  0  0  0  0  1  0  0  0  0  0  0
  188.6300  178.5020  142.4840 C   0  0  0  0  0  2  0  0  0  0  0  0
  189.7180  177.5990  141.9180 C   0  0  1  0  0  3  0  0  0  0  0  0
  190.0370  177.9540  140.5720 O   0  0  0  0  0  0  0  0  0  0  0  0
  190.5690  175.9020  139.6360 O   0  0  0  0  0  0  0  0  0  0  0  0
  190.0470  177.0420  139.5070 C   0  0  0  0  0  0  0  0  0  0  0  0
  188.6430  176.2690  137.6350 C   0  0  0  0  0  1  0  0  0  0  0  0
  189.4550  177.4280  138.1910 C   0  0  1  0  0  3  0  0  0  0  0  0
  188.5910  178.6800  138.3290 C   0  0  0  0  0  3  0  0  0  0  0  0
  187.2390  178.3300  138.3500 O   0  0  0  0  0  1  0  0  0  0  0  0
  188.8200  179.5400  137.2530 O   0  0  0  0  0  1  0  0  0  0  0  0
  190.8610  177.6630  142.7200 O   0  0  0  0  0  0  0  0  0  0  0  0
  190.4280  178.0600  143.8990 O   0  0  0  0  0  0  0  0  0  0  0  0
  189.7170  176.3500  145.9480 O   0  0  0  0  0  1  0  0  0  0  0  0
  191.0040  176.9020  144.9990 P   0  0  0  0  0  0  0  0  0  0  0  0
  191.6740  175.5980  144.1570 O   0  0  0  0  0  0  0  0  0  0  0  0
  192.0550  177.5180  145.8950 O   0  0  0  0  0  1  0  0  0  0  0  0
  2  6  1  0  0  0  0
  3  6  1  0  0  0  0
  4  8  1  1  0  0  0
  4  7  1  0  0  0  0
  5  1  1  1  0  0  0
  5  2  1  0  0  0  0
  7  9  1  0  0  0  0
  7  5  1  0  0  0  0
  8  9  1  0  0  0  0
  9  3  1  0  0  0  0
 10 16  2  0  0  0  0
 11 15  1  0  0  0  0
 12 14  2  0  0  0  0
 13 15  1  0  0  0  0
 14 13  1  0  0  0  0
 16 15  1  0  0  0  0
 17 14  1  0  0  0  0
 17 16  1  0  0  0  0
 17  4  1  0  0  0  0
 18 21  1  0  0  0  0
 19 18  1  0  0  0  0
 20 23  1  0  0  0  0
 20 24  1  0  0  0  0
 21  4  1  0  0  0  0
 21 24  1  0  0  0  0
 22 18  1  0  0  0  0
 22 20  1  0  0  0  0
 25  1  1  0  0  0  0
 25 26  1  0  0  0  0
 26 27  1  0  0  0  0
 27 29  1  0  0  0  0
 28 29  2  0  0  0  0
 29 30  1  0  0  0  0
 31 29  1  0  0  0  0
 32 31  1  0  0  0  0
 32 41  1  0  0  0  0
 33 32  1  0  0  0  0
 35 34  2  0  0  0  0
 35 33  1  0  0  0  0
 36 37  1  0  0  0  0
 37 38  1  0  0  0  0
 37 35  1  0  0  0  0
 38 39  1  0  0  0  0
 40 38  1  0  0  0  0
 41 42  1  0  0  0  0
 42 44  1  0  0  0  0
 44 46  1  0  0  0  0
 44 43  1  0  0  0  0
 45 44  2  0  0  0  0
M  END
>  <MODEL>
7

>  <REMARK>
 VINA RESULT:      -6.0      1.796      4.024
  Name = 
  16 active torsions:
  status: ('A' for Active; 'I' for Inactive)
    1  A    between atoms: C_3  and  O_21
    2  A    between atoms: C_3  and  C_40
    3  A    between atoms: C_3  and  O_46
    4  A    between atoms: O_4  and  P_19
    5  A    between atoms: O_4  and  O_46
    6  A    between atoms: O_6  and  P_12
    7  A    between atoms: O_6  and  C_23
    8  A    between atoms: C_10  and  C_43
    9  A    between atoms: C_11  and  C_27
   10  A    between atoms: C_11  and  C_45
   11  A    between atoms: P_12  and  C_40
   12  A    between atoms: O_21  and  C_38
   13  A    between atoms: C_23  and  C_41
   14  A    between atoms: C_25  and  C_31
   15  A    between atoms: C_25  and  C_41
   16  A    between atoms: C_38  and  C_43
                            x       y       z     vdW  Elec       q    Type
                         _______ _______ _______ _____ _____    ______ ____

>  <TORSDO>
F 16

$$$$
=
 OpenBabel11062416283D

 46 49  0  0  1  0  0  0  0  0999 V2000
  183.8250  179.3530  138.8180 C   0  0  0  0  0  2  0  0  0  0  0  0
  181.7480  179.5260  137.5150 O   0  0  0  0  0  0  0  0  0  0  0  0
  180.2200  180.8170  138.3500 C   0  0  0  0  0  2  0  0  0  0  0  0
  180.5470  178.3410  140.5190 C   0  0  2  0  0  0  0  0  0  0  0  0
  182.3290  179.0470  138.7140 C   0  0  2  0  0  3  0  0  0  0  0  0
  181.4560  180.8070  137.6910 O   0  0  0  0  0  0  0  0  0  0  0  0
  181.5280  179.4020  139.9910 C   0  0  1  0  0  3  0  0  0  0  0  0
  179.0870  179.4530  140.4470 S   0  0  0  0  0  0  0  0  0  0  0  0
  180.4560  180.4790  139.8150 C   0  0  2  0  0  3  0  0  0  0  0  0
  183.3030  177.8760  141.7870 O   0  0  0  0  0  0  0  0  0  0  0  0
  183.0750  178.7640  144.5350 O   0  0  0  0  0  1  0  0  0  0  0  0
  178.9360  178.6040  143.2420 O   0  0  0  0  0  0  0  0  0  0  0  0
  181.0080  179.4680  143.8230 O   0  0  0  0  0  0  0  0  0  0  0  0
  180.1760  178.6900  143.0350 C   0  0  0  0  0  0  0  0  0  0  0  0
  182.3700  179.3090  143.4610 C   0  0  2  0  0  3  0  0  0  0  0  0
  182.3090  178.3220  142.3390 C   0  0  0  0  0  0  0  0  0  0  0  0
  180.9060  177.9290  141.9770 C   0  0  2  0  0  3  0  0  0  0  0  0
  180.0520  175.7770  140.3160 C   0  0  2  0  0  3  0  0  0  0  0  0
  179.0830  175.9560  141.3080 O   0  0  0  0  0  1  0  0  0  0  0  0
  178.9310  175.7940  138.1440 C   0  0  2  0  0  3  0  0  0  0  0  0
  180.3580  177.0920  139.6060 C   0  0  1  0  0  3  0  0  0  0  0  0
  179.4850  174.8830  139.2320 C   0  0  0  0  0  2  0  0  0  0  0  0
  179.5160  175.4640  136.9220 O   0  0  0  0  0  1  0  0  0  0  0  0
  179.3060  177.2150  138.5170 C   0  0  0  0  0  2  0  0  0  0  0  0
  184.7250  178.1310  138.6580 C   0  0  0  0  0  2  0  0  0  0  0  0
  186.2030  178.5040  138.6720 C   0  0  0  0  0  2  0  0  0  0  0  0
  186.6940  178.6080  137.3670 O   0  0  0  0  0  0  0  0  0  0  0  0
  189.0960  179.4810  137.9520 O   0  0  0  0  0  1  0  0  0  0  0  0
  188.3520  178.2600  137.4630 P   0  0  2  0  0  0  0  0  0  0  0  0
  188.9130  177.8550  135.9190 O   0  0  0  0  0  0  0  0  0  0  0  0
  188.6550  176.8550  138.5820 C   0  0  0  0  0  2  0  0  0  0  0  0
  190.1400  176.7290  138.8940 C   0  0  1  0  0  3  0  0  0  0  0  0
  190.3540  176.0700  140.1430 O   0  0  0  0  0  0  0  0  0  0  0  0
  191.7100  177.5050  141.3560 O   0  0  0  0  0  0  0  0  0  0  0  0
  190.7130  176.7350  141.3240 C   0  0  0  0  0  0  0  0  0  0  0  0
  190.8440  176.0420  143.6850 C   0  0  0  0  0  1  0  0  0  0  0  0
  189.9220  176.5150  142.5720 C   0  0  1  0  0  3  0  0  0  0  0  0
  189.1840  177.7880  142.9810 C   0  0  0  0  0  3  0  0  0  0  0  0
  189.2380  177.9490  144.3670 O   0  0  0  0  0  1  0  0  0  0  0  0
  187.8470  177.7130  142.5850 O   0  0  0  0  0  1  0  0  0  0  0  0
  190.7910  176.0410  137.8660 O   0  0  0  0  0  0  0  0  0  0  0  0
  191.7410  176.8580  137.4580 O   0  0  0  0  0  0  0  0  0  0  0  0
  194.2730  176.4050  136.4510 O   0  0  0  0  0  0  0  0  0  0  0  0
  193.1910  176.0070  137.6890 P   0  0  0  0  0  0  0  0  0  0  0  0
  193.8710  176.4310  139.1790 O   0  0  0  0  0  1  0  0  0  0  0  0
  192.9280  174.5180  137.6600 O   0  0  0  0  0  1  0  0  0  0  0  0
  2  6  1  0  0  0  0
  2  5  1  0  0  0  0
  3  9  1  0  0  0  0
  4  8  1  1  0  0  0
  4 17  1  0  0  0  0
  5  1  1  1  0  0  0
  5  7  1  0  0  0  0
  6  3  1  0  0  0  0
  7  4  1  0  0  0  0
  9  7  1  0  0  0  0
  9  8  1  0  0  0  0
 10 16  2  0  0  0  0
 14 12  2  0  0  0  0
 14 13  1  0  0  0  0
 15 13  1  0  0  0  0
 15 11  1  0  0  0  0
 16 15  1  0  0  0  0
 17 16  1  0  0  0  0
 17 14  1  0  0  0  0
 18 19  1  0  0  0  0
 20 24  1  0  0  0  0
 20 22  1  0  0  0  0
 21 18  1  0  0  0  0
 21  4  1  0  0  0  0
 22 18  1  0  0  0  0
 23 20  1  0  0  0  0
 24 21  1  0  0  0  0
 25 26  1  0  0  0  0
 25  1  1  0  0  0  0
 27 29  1  0  0  0  0
 27 26  1  0  0  0  0
 29 28  1  0  0  0  0
 29 31  1  0  0  0  0
 30 29  2  0  0  0  0
 31 32  1  0  0  0  0
 32 33  1  0  0  0  0
 33 35  1  0  0  0  0
 35 34  2  0  0  0  0
 35 37  1  0  0  0  0
 37 38  1  0  0  0  0
 37 36  1  0  0  0  0
 38 39  1  0  0  0  0
 40 38  1  0  0  0  0
 41 32  1  0  0  0  0
 42 44  1  0  0  0  0
 42 41  1  0  0  0  0
 43 44  2  0  0  0  0
 44 45  1  0  0  0  0
 46 44  1  0  0  0  0
M  END
>  <MODEL>
8

>  <REMARK>
 VINA RESULT:      -5.9      2.019      4.163
  Name = 
  16 active torsions:
  status: ('A' for Active; 'I' for Inactive)
    1  A    between atoms: C_3  and  O_21
    2  A    between atoms: C_3  and  C_40
    3  A    between atoms: C_3  and  O_46
    4  A    between atoms: O_4  and  P_19
    5  A    between atoms: O_4  and  O_46
    6  A    between atoms: O_6  and  P_12
    7  A    between atoms: O_6  and  C_23
    8  A    between atoms: C_10  and  C_43
    9  A    between atoms: C_11  and  C_27
   10  A    between atoms: C_11  and  C_45
   11  A    between atoms: P_12  and  C_40
   12  A    between atoms: O_21  and  C_38
   13  A    between atoms: C_23  and  C_41
   14  A    between atoms: C_25  and  C_31
   15  A    between atoms: C_25  and  C_41
   16  A    between atoms: C_38  and  C_43
                            x       y       z     vdW  Elec       q    Type
                         _______ _______ _______ _____ _____    ______ ____

>  <TORSDO>
F 16

$$$$
=
 OpenBabel11062416283D

 46 49  0  0  1  0  0  0  0  0999 V2000
  185.1690  177.5310  138.4430 C   0  0  0  0  0  2  0  0  0  0  0  0
  185.5890  176.4960  136.2530 O   0  0  0  0  0  0  0  0  0  0  0  0
  184.3270  177.1840  134.6310 C   0  0  0  0  0  2  0  0  0  0  0  0
  182.2800  175.6760  136.7470 C   0  0  2  0  0  0  0  0  0  0  0  0
  184.6730  176.6090  137.3260 C   0  0  2  0  0  3  0  0  0  0  0  0
  185.4050  177.5370  135.4530 O   0  0  0  0  0  0  0  0  0  0  0  0
  183.2150  176.8900  136.8850 C   0  0  1  0  0  3  0  0  0  0  0  0
  181.8670  176.0190  134.9900 S   0  0  0  0  0  0  0  0  0  0  0  0
  183.0430  177.3400  135.4330 C   0  0  2  0  0  3  0  0  0  0  0  0
  182.1710  175.8660  139.8080 O   0  0  0  0  0  0  0  0  0  0  0  0
  179.9540  177.6280  140.4180 O   0  0  0  0  0  1  0  0  0  0  0  0
  179.3400  176.7500  136.2130 O   0  0  0  0  0  0  0  0  0  0  0  0
  179.9310  177.9010  138.1380 O   0  0  0  0  0  0  0  0  0  0  0  0
  180.0500  176.8440  137.2500 C   0  0  0  0  0  0  0  0  0  0  0  0
  180.7540  177.7210  139.2790 C   0  0  2  0  0  3  0  0  0  0  0  0
  181.4170  176.4060  139.0140 C   0  0  0  0  0  0  0  0  0  0  0  0
  181.0440  175.8170  137.6840 C   0  0  2  0  0  3  0  0  0  0  0  0
  182.0530  173.1330  137.3270 C   0  0  2  0  0  3  0  0  0  0  0  0
  180.8630  173.1420  136.5920 O   0  0  0  0  0  1  0  0  0  0  0  0
  183.8310  172.2710  135.8870 C   0  0  2  0  0  3  0  0  0  0  0  0
  182.9630  174.2850  136.9120 C   0  0  1  0  0  3  0  0  0  0  0  0
  182.8370  171.8840  136.9740 C   0  0  0  0  0  2  0  0  0  0  0  0
  185.1200  171.9330  136.2960 O   0  0  0  0  0  1  0  0  0  0  0  0
  183.7340  173.7740  135.7070 C   0  0  0  0  0  2  0  0  0  0  0  0
  184.3060  178.7710  138.6580 C   0  0  0  0  0  2  0  0  0  0  0  0
  184.0590  179.0460  140.1370 C   0  0  0  0  0  2  0  0  0  0  0  0
  185.2640  179.3220  140.7910 O   0  0  0  0  0  0  0  0  0  0  0  0
  183.6450  178.2860  142.5740 O   0  0  0  0  0  0  0  0  0  0  0  0
  185.0490  178.8180  142.3970 P   0  0  2  0  0  0  0  0  0  0  0  0
  185.2660  180.1490  143.4190 O   0  0  0  0  0  1  0  0  0  0  0  0
  186.2630  177.5350  142.8430 C   0  0  0  0  0  2  0  0  0  0  0  0
  187.6680  177.9650  142.4420 C   0  0  1  0  0  3  0  0  0  0  0  0
  188.6470  177.4340  143.3360 O   0  0  0  0  0  0  0  0  0  0  0  0
  190.3180  179.0330  143.1920 O   0  0  0  0  0  0  0  0  0  0  0  0
  189.6900  178.1900  143.8880 C   0  0  0  0  0  0  0  0  0  0  0  0
  188.8410  177.8620  146.1780 C   0  0  0  0  0  1  0  0  0  0  0  0
  190.0860  177.9840  145.3140 C   0  0  1  0  0  3  0  0  0  0  0  0
  190.9720  176.7490  145.4580 C   0  0  0  0  0  3  0  0  0  0  0  0
  191.9070  176.9470  146.4780 O   0  0  0  0  0  1  0  0  0  0  0  0
  191.6510  176.5050  144.2630 O   0  0  0  0  0  1  0  0  0  0  0  0
  187.9390  177.5620  141.1310 O   0  0  0  0  0  0  0  0  0  0  0  0
  188.3120  178.6610  140.5080 O   0  0  0  0  0  0  0  0  0  0  0  0
  189.0250  179.3610  137.9330 O   0  0  0  0  0  0  0  0  0  0  0  0
  189.0860  178.1320  139.0930 P   0  0  0  0  0  0  0  0  0  0  0  0
  190.7020  177.7640  139.4300 O   0  0  0  0  0  1  0  0  0  0  0  0
  188.3910  176.9020  138.5530 O   0  0  0  0  0  1  0  0  0  0  0  0
  1 25  1  0  0  0  0
  2  5  1  0  0  0  0
  3  9  1  0  0  0  0
  3  6  1  0  0  0  0
  4  8  1  6  0  0  0
  4  7  1  0  0  0  0
  4 21  1  0  0  0  0
  4 17  1  0  0  0  0
  5  1  1  1  0  0  0
  6  2  1  0  0  0  0
  7  5  1  0  0  0  0
  8  9  1  0  0  0  0
  9  7  1  0  0  0  0
 12 14  2  0  0  0  0
 13 15  1  0  0  0  0
 14 17  1  0  0  0  0
 14 13  1  0  0  0  0
 15 11  1  0  0  0  0
 16 15  1  0  0  0  0
 16 10  2  0  0  0  0
 17 16  1  0  0  0  0
 19 18  1  0  0  0  0
 20 23  1  0  0  0  0
 20 22  1  0  0  0  0
 21 18  1  0  0  0  0
 22 18  1  0  0  0  0
 24 20  1  0  0  0  0
 24 21  1  0  0  0  0
 25 26  1  0  0  0  0
 26 27  1  0  0  0  0
 27 29  1  0  0  0  0
 29 28  2  0  0  0  0
 29 31  1  0  0  0  0
 29 30  1  0  0  0  0
 32 31  1  0  0  0  0
 32 33  1  0  0  0  0
 33 35  1  0  0  0  0
 34 35  2  0  0  0  0
 35 37  1  0  0  0  0
 37 38  1  0  0  0  0
 37 36  1  0  0  0  0
 38 39  1  0  0  0  0
 40 38  1  0  0  0  0
 41 32  1  0  0  0  0
 42 41  1  0  0  0  0
 43 44  2  0  0  0  0
 44 45  1  0  0  0  0
 44 42  1  0  0  0  0
 46 44  1  0  0  0  0
M  END
>  <MODEL>
9

>  <REMARK>
 VINA RESULT:      -5.9      2.387      5.035
  Name = 
  16 active torsions:
  status: ('A' for Active; 'I' for Inactive)
    1  A    between atoms: C_3  and  O_21
    2  A    between atoms: C_3  and  C_40
    3  A    between atoms: C_3  and  O_46
    4  A    between atoms: O_4  and  P_19
    5  A    between atoms: O_4  and  O_46
    6  A    between atoms: O_6  and  P_12
    7  A    between atoms: O_6  and  C_23
    8  A    between atoms: C_10  and  C_43
    9  A    between atoms: C_11  and  C_27
   10  A    between atoms: C_11  and  C_45
   11  A    between atoms: P_12  and  C_40
   12  A    between atoms: O_21  and  C_38
   13  A    between atoms: C_23  and  C_41
   14  A    between atoms: C_25  and  C_31
   15  A    between atoms: C_25  and  C_41
   16  A    between atoms: C_38  and  C_43
                            x       y       z     vdW  Elec       q    Type
                         _______ _______ _______ _____ _____    ______ ____

>  <TORSDO>
F 16

$$$$
