=
 OpenBabel11062414503D

 33 37  0  0  1  0  0  0  0  0999 V2000
  185.7050  178.4190  138.4250 C   0  0  0  0  0  0  0  0  0  0  0  0
  185.4720  175.2520  137.0190 C   0  0  0  0  0  3  0  0  0  0  0  0
  187.1160  177.0370  137.3240 C   0  0  1  0  0  3  0  0  0  0  0  0
  188.2000  176.0620  137.1750 C   0  0  0  0  0  3  0  0  0  0  0  0
  185.7410  176.7220  136.8340 C   0  0  2  0  0  3  0  0  0  0  0  0
  183.5360  177.5720  137.7870 O   0  0  0  0  0  1  0  0  0  0  0  0
  187.8440  174.7840  137.0150 C   0  0  0  0  0  3  0  0  0  0  0  0
  187.0960  178.0340  138.1980 C   0  0  0  0  0  0  0  0  0  0  0  0
  184.9240  177.6100  137.7120 C   0  0  1  0  0  3  0  0  0  0  0  0
  186.4540  174.3920  137.0450 N   0  0  0  0  0  0  0  0  0  0  0  0
  188.2290  178.4370  138.9730 N   0  0  0  0  0  2  0  0  0  0  0  0
  188.4860  177.9710  140.3290 C   0  0  2  0  0  3  0  0  0  0  0  0
  188.1480  178.9680  141.2480 O   0  0  0  0  0  1  0  0  0  0  0  0
  189.9500  177.5520  140.4800 C   0  0  2  0  0  3  0  0  0  0  0  0
  190.1870  176.2640  139.8480 N   0  0  0  0  0  1  0  0  0  0  0  0
  190.4550  177.5500  141.9270 C   0  0  0  0  0  2  0  0  0  0  0  0
  188.8910  176.1500  143.0970 C   0  0  0  0  0  2  0  0  0  0  0  0
  186.9930  177.9290  145.9440 C   0  0  0  0  0  2  0  0  0  0  0  0
  190.2600  176.2490  142.5660 N   0  0  0  0  0  0  0  0  0  0  0  0
  188.6450  177.1250  144.2500 C   0  0  2  0  0  3  0  0  0  0  0  0
  189.6610  176.8650  145.3620 C   0  0  1  0  0  3  0  0  0  0  0  0
  187.2260  176.9600  144.7860 C   0  0  0  0  0  2  0  0  0  0  0  0
  191.2610  176.0610  143.6270 C   0  0  0  0  0  2  0  0  0  0  0  0
  191.0640  177.0230  144.8050 C   0  0  0  0  0  2  0  0  0  0  0  0
  189.4350  177.8410  146.5120 C   0  0  0  0  0  2  0  0  0  0  0  0
  188.0150  177.6880  147.0540 C   0  0  0  0  0  2  0  0  0  0  0  0
  185.2650  179.3240  139.4470 N   0  0  0  0  0  2  0  0  0  0  0  0
  184.3750  178.3040  143.0470 C   0  0  0  0  0  2  0  0  0  0  0  0
  185.2210  178.9130  141.9300 C   0  0  0  0  0  2  0  0  0  0  0  0
  183.1590  178.9350  140.5470 C   0  0  0  0  0  3  0  0  0  0  0  0
  184.4990  178.9820  140.6080 C   0  0  0  0  0  0  0  0  0  0  0  0
  182.9940  178.9400  143.0460 C   0  0  0  0  0  2  0  0  0  0  0  0
  182.2990  178.5990  141.7340 C   0  0  0  0  0  2  0  0  0  0  0  0
  1 27  1  0  0  0  0
  2 10  2  0  0  0  0
  3  4  1  1  0  0  0
  3  8  1  0  0  0  0
  5  2  1  1  0  0  0
  5  3  1  0  0  0  0
  5  9  1  0  0  0  0
  7 10  1  0  0  0  0
  7  4  2  0  0  0  0
  8  1  2  0  0  0  0
  8 11  1  0  0  0  0
  9  6  1  1  0  0  0
  9  1  1  0  0  0  0
 11 12  1  0  0  0  0
 12 14  1  0  0  0  0
 12 13  1  1  0  0  0
 14 15  1  1  0  0  0
 14 16  1  0  0  0  0
 16 19  1  0  0  0  0
 18 26  1  0  0  0  0
 19 17  1  0  0  0  0
 19 23  1  0  0  0  0
 20 17  1  6  0  0  0
 20 22  1  0  0  0  0
 20 21  1  0  0  0  0
 21 24  1  6  0  0  0
 21 25  1  0  0  0  0
 22 18  1  0  0  0  0
 23 24  1  0  0  0  0
 25 26  1  0  0  0  0
 27 31  1  0  0  0  0
 29 28  1  0  0  0  0
 30 31  2  0  0  0  0
 30 33  1  0  0  0  0
 31 29  1  0  0  0  0
 32 28  1  0  0  0  0
 33 32  1  0  0  0  0
M  END
>  <MODEL>
1

>  <REMARK>
 VINA RESULT:      -9.3      0.000      0.000
  Name = 
  7 active torsions:
  status: ('A' for Active; 'I' for Inactive)
    1  A    between atoms: C_1  and  N_24
    2  A    between atoms: C_4  and  C_7
    3  A    between atoms: C_4  and  N_21
    4  A    between atoms: C_7  and  C_9
    5  A    between atoms: C_9  and  N_15
    6  A    between atoms: C_20  and  N_24
    7  A    between atoms: N_21  and  C_22
                            x       y       z     vdW  Elec       q    Type
                         _______ _______ _______ _____ _____    ______ ____

>  <TORSDO>
F 7

$$$$
=
 OpenBabel11062414503D

 33 37  0  0  1  0  0  0  0  0999 V2000
  186.3780  178.4610  145.1940 C   0  0  0  0  0  0  0  0  0  0  0  0
  187.7870  178.2010  148.3570 C   0  0  0  0  0  3  0  0  0  0  0  0
  188.1280  177.3460  146.0910 C   0  0  1  0  0  3  0  0  0  0  0  0
  189.5340  177.0790  146.4050 C   0  0  0  0  0  3  0  0  0  0  0  0
  187.1290  177.5220  147.1860 C   0  0  2  0  0  3  0  0  0  0  0  0
  185.0230  178.9570  147.1290 O   0  0  0  0  0  1  0  0  0  0  0  0
  189.9590  177.4320  147.6220 C   0  0  0  0  0  3  0  0  0  0  0  0
  187.6790  177.8430  144.9480 C   0  0  0  0  0  0  0  0  0  0  0  0
  186.1030  178.3560  146.4920 C   0  0  1  0  0  3  0  0  0  0  0  0
  189.0740  178.0940  148.5530 N   0  0  0  0  0  0  0  0  0  0  0  0
  188.4800  177.9850  143.7710 N   0  0  0  0  0  2  0  0  0  0  0  0
  188.5570  176.9790  142.7210 C   0  0  2  0  0  3  0  0  0  0  0  0
  187.9730  175.7870  143.1590 O   0  0  0  0  0  1  0  0  0  0  0  0
  190.0110  176.7580  142.2980 C   0  0  2  0  0  3  0  0  0  0  0  0
  190.8300  177.9090  142.6450 N   0  0  0  0  0  1  0  0  0  0  0  0
  190.1860  176.3910  140.8210 C   0  0  0  0  0  2  0  0  0  0  0  0
  189.3690  178.1500  139.4020 C   0  0  0  0  0  2  0  0  0  0  0  0
  186.8850  176.9770  136.6960 C   0  0  0  0  0  2  0  0  0  0  0  0
  190.5650  177.5510  140.0160 N   0  0  0  0  0  0  0  0  0  0  0  0
  188.7250  177.2260  138.3660 C   0  0  2  0  0  3  0  0  0  0  0  0
  189.7520  176.8760  137.2880 C   0  0  1  0  0  3  0  0  0  0  0  0
  187.5130  177.9020  137.7360 C   0  0  0  0  0  2  0  0  0  0  0  0
  191.5470  177.1520  138.9970 C   0  0  0  0  0  2  0  0  0  0  0  0
  190.9540  176.2140  137.9380 C   0  0  0  0  0  2  0  0  0  0  0  0
  189.1280  175.9430  136.2570 C   0  0  0  0  0  2  0  0  0  0  0  0
  187.9080  176.6090  135.6230 C   0  0  0  0  0  2  0  0  0  0  0  0
  185.6680  179.2740  144.2490 N   0  0  0  0  0  2  0  0  0  0  0  0
  181.9860  178.6500  143.3310 C   0  0  0  0  0  2  0  0  0  0  0  0
  183.1600  179.3140  144.0490 C   0  0  0  0  0  2  0  0  0  0  0  0
  184.6210  178.3640  142.2810 C   0  0  0  0  0  3  0  0  0  0  0  0
  184.5030  178.8910  143.5090 C   0  0  0  0  0  0  0  0  0  0  0  0
  182.1880  178.7460  141.8260 C   0  0  0  0  0  2  0  0  0  0  0  0
  183.4360  177.9580  141.4490 C   0  0  0  0  0  2  0  0  0  0  0  0
  1  9  1  0  0  0  0
  2 10  2  0  0  0  0
  3  4  1  1  0  0  0
  3  5  1  0  0  0  0
  4  7  2  0  0  0  0
  5  2  1  1  0  0  0
  7 10  1  0  0  0  0
  8  1  2  0  0  0  0
  8  3  1  0  0  0  0
  9  6  1  1  0  0  0
  9  5  1  0  0  0  0
 11  8  1  0  0  0  0
 12 13  1  1  0  0  0
 12 11  1  0  0  0  0
 14 15  1  6  0  0  0
 14 12  1  0  0  0  0
 16 14  1  0  0  0  0
 17 19  1  0  0  0  0
 18 22  1  0  0  0  0
 19 16  1  0  0  0  0
 20 22  1  6  0  0  0
 20 17  1  0  0  0  0
 21 25  1  6  0  0  0
 21 24  1  0  0  0  0
 21 20  1  0  0  0  0
 23 19  1  0  0  0  0
 24 23  1  0  0  0  0
 26 25  1  0  0  0  0
 26 18  1  0  0  0  0
 27  1  1  0  0  0  0
 28 29  1  0  0  0  0
 30 31  2  0  0  0  0
 31 29  1  0  0  0  0
 31 27  1  0  0  0  0
 32 28  1  0  0  0  0
 33 32  1  0  0  0  0
 33 30  1  0  0  0  0
M  END
>  <MODEL>
2

>  <REMARK>
 VINA RESULT:      -8.9      2.377      7.070
  Name = 
  7 active torsions:
  status: ('A' for Active; 'I' for Inactive)
    1  A    between atoms: C_1  and  N_24
    2  A    between atoms: C_4  and  C_7
    3  A    between atoms: C_4  and  N_21
    4  A    between atoms: C_7  and  C_9
    5  A    between atoms: C_9  and  N_15
    6  A    between atoms: C_20  and  N_24
    7  A    between atoms: N_21  and  C_22
                            x       y       z     vdW  Elec       q    Type
                         _______ _______ _______ _____ _____    ______ ____

>  <TORSDO>
F 7

$$$$
=
 OpenBabel11062414503D

 33 37  0  0  1  0  0  0  0  0999 V2000
  186.3950  177.8340  144.2010 C   0  0  0  0  0  0  0  0  0  0  0  0
  183.8770  178.9900  142.1080 C   0  0  0  0  0  3  0  0  0  0  0  0
  186.3010  178.6650  142.1010 C   0  0  1  0  0  3  0  0  0  0  0  0
  186.2890  178.6200  140.6360 C   0  0  0  0  0  3  0  0  0  0  0  0
  185.1580  179.2670  142.8490 C   0  0  2  0  0  3  0  0  0  0  0  0
  184.3280  178.6200  145.1700 O   0  0  0  0  0  1  0  0  0  0  0  0
  185.0970  178.7100  140.0390 C   0  0  0  0  0  3  0  0  0  0  0  0
  187.0290  177.8830  142.8860 C   0  0  0  0  0  0  0  0  0  0  0  0
  185.2760  178.5540  144.1550 C   0  0  1  0  0  3  0  0  0  0  0  0
  183.8820  178.7920  140.8170 N   0  0  0  0  0  0  0  0  0  0  0  0
  188.0760  177.0310  142.4120 N   0  0  0  0  0  2  0  0  0  0  0  0
  189.4820  177.2260  142.7350 C   0  0  2  0  0  3  0  0  0  0  0  0
  189.7220  178.5700  143.0310 O   0  0  0  0  0  1  0  0  0  0  0  0
  190.3660  176.7490  141.5800 C   0  0  2  0  0  3  0  0  0  0  0  0
  191.5890  177.5320  141.5070 N   0  0  0  0  0  1  0  0  0  0  0  0
  189.6580  176.7160  140.2220 C   0  0  0  0  0  2  0  0  0  0  0  0
  189.3500  178.4200  138.5550 C   0  0  0  0  0  2  0  0  0  0  0  0
  186.4580  177.7300  136.1000 C   0  0  0  0  0  2  0  0  0  0  0  0
  190.3330  177.5650  139.2400 N   0  0  0  0  0  0  0  0  0  0  0  0
  188.3840  177.6120  137.6860 C   0  0  2  0  0  3  0  0  0  0  0  0
  189.1790  176.8000  136.6630 C   0  0  1  0  0  3  0  0  0  0  0  0
  187.4100  178.5440  136.9730 C   0  0  0  0  0  2  0  0  0  0  0  0
  191.0730  176.7290  138.2830 C   0  0  0  0  0  2  0  0  0  0  0  0
  190.1490  175.8880  137.3920 C   0  0  0  0  0  2  0  0  0  0  0  0
  188.2280  175.9780  135.7990 C   0  0  0  0  0  2  0  0  0  0  0  0
  187.2430  176.9020  135.0840 C   0  0  0  0  0  2  0  0  0  0  0  0
  186.7750  176.9400  145.2580 N   0  0  0  0  0  2  0  0  0  0  0  0
  189.8600  177.2010  147.5390 C   0  0  0  0  0  2  0  0  0  0  0  0
  189.0960  177.0710  146.2230 C   0  0  0  0  0  2  0  0  0  0  0  0
  187.0990  177.9000  147.4420 C   0  0  0  0  0  3  0  0  0  0  0  0
  187.6080  177.2600  146.3780 C   0  0  0  0  0  0  0  0  0  0  0  0
  189.3950  178.4450  148.2800 C   0  0  0  0  0  2  0  0  0  0  0  0
  187.9240  178.2780  148.6410 C   0  0  0  0  0  2  0  0  0  0  0  0
  1 27  1  0  0  0  0
  3  4  1  6  0  0  0
  3  5  1  0  0  0  0
  3  8  1  0  0  0  0
  5  2  1  6  0  0  0
  5  9  1  0  0  0  0
  7  4  2  0  0  0  0
  7 10  1  0  0  0  0
  8  1  2  0  0  0  0
  9  1  1  0  0  0  0
  9  6  1  6  0  0  0
 10  2  2  0  0  0  0
 11 12  1  0  0  0  0
 11  8  1  0  0  0  0
 12 13  1  6  0  0  0
 14 15  1  6  0  0  0
 14 12  1  0  0  0  0
 16 14  1  0  0  0  0
 17 19  1  0  0  0  0
 18 22  1  0  0  0  0
 19 16  1  0  0  0  0
 20 22  1  6  0  0  0
 20 17  1  0  0  0  0
 21 25  1  1  0  0  0
 21 24  1  0  0  0  0
 21 20  1  0  0  0  0
 23 19  1  0  0  0  0
 24 23  1  0  0  0  0
 26 25  1  0  0  0  0
 26 18  1  0  0  0  0
 27 31  1  0  0  0  0
 28 32  1  0  0  0  0
 29 31  1  0  0  0  0
 29 28  1  0  0  0  0
 30 33  1  0  0  0  0
 31 30  2  0  0  0  0
 32 33  1  0  0  0  0
M  END
>  <MODEL>
3

>  <REMARK>
 VINA RESULT:      -8.8      2.279      6.647
  Name = 
  7 active torsions:
  status: ('A' for Active; 'I' for Inactive)
    1  A    between atoms: C_1  and  N_24
    2  A    between atoms: C_4  and  C_7
    3  A    between atoms: C_4  and  N_21
    4  A    between atoms: C_7  and  C_9
    5  A    between atoms: C_9  and  N_15
    6  A    between atoms: C_20  and  N_24
    7  A    between atoms: N_21  and  C_22
                            x       y       z     vdW  Elec       q    Type
                         _______ _______ _______ _____ _____    ______ ____

>  <TORSDO>
F 7

$$$$
=
 OpenBabel11062414503D

 33 37  0  0  1  0  0  0  0  0999 V2000
  185.1080  178.6220  139.9570 C   0  0  0  0  0  0  0  0  0  0  0  0
  182.7790  179.0010  142.5050 C   0  0  0  0  0  3  0  0  0  0  0  0
  185.0910  178.2660  142.1890 C   0  0  1  0  0  3  0  0  0  0  0  0
  185.3720  178.5510  143.5990 C   0  0  0  0  0  3  0  0  0  0  0  0
  183.6850  178.0900  141.7190 C   0  0  2  0  0  3  0  0  0  0  0  0
  182.7570  178.6370  139.4090 O   0  0  0  0  0  1  0  0  0  0  0  0
  184.3750  179.0730  144.3200 C   0  0  0  0  0  3  0  0  0  0  0  0
  185.9060  178.5260  141.1770 C   0  0  0  0  0  0  0  0  0  0  0  0
  183.8260  178.4610  140.2790 C   0  0  1  0  0  3  0  0  0  0  0  0
  183.1030  179.3860  143.7100 N   0  0  0  0  0  0  0  0  0  0  0  0
  187.2720  178.9200  141.3350 N   0  0  0  0  0  2  0  0  0  0  0  0
  188.3680  178.3620  140.5550 C   0  0  2  0  0  3  0  0  0  0  0  0
  187.9910  177.1280  140.0190 O   0  0  0  0  0  1  0  0  0  0  0  0
  189.6240  178.2290  141.4190 C   0  0  2  0  0  3  0  0  0  0  0  0
  190.3980  177.0610  141.0290 N   0  0  0  0  0  1  0  0  0  0  0  0
  189.3500  178.2220  142.9260 C   0  0  0  0  0  2  0  0  0  0  0  0
  188.0330  176.7630  144.3080 C   0  0  0  0  0  2  0  0  0  0  0  0
  187.0810  178.2560  147.7330 C   0  0  0  0  0  2  0  0  0  0  0  0
  189.2230  176.8620  143.4470 N   0  0  0  0  0  0  0  0  0  0  0  0
  188.1700  177.5940  145.5850 C   0  0  2  0  0  3  0  0  0  0  0  0
  189.4140  177.1450  146.3520 C   0  0  1  0  0  3  0  0  0  0  0  0
  186.9290  177.4320  146.4560 C   0  0  0  0  0  2  0  0  0  0  0  0
  190.4440  176.4910  144.1780 C   0  0  0  0  0  2  0  0  0  0  0  0
  190.6350  177.3040  145.4640 C   0  0  0  0  0  2  0  0  0  0  0  0
  189.5710  177.9760  147.6210 C   0  0  0  0  0  2  0  0  0  0  0  0
  188.3310  177.8260  148.5000 C   0  0  0  0  0  2  0  0  0  0  0  0
  185.6030  179.0850  138.6920 N   0  0  0  0  0  2  0  0  0  0  0  0
  187.3920  177.8520  135.5180 C   0  0  0  0  0  2  0  0  0  0  0  0
  187.2270  178.6280  136.8240 C   0  0  0  0  0  2  0  0  0  0  0  0
  185.3390  177.1030  137.3490 C   0  0  0  0  0  3  0  0  0  0  0  0
  185.9720  178.2650  137.5770 C   0  0  0  0  0  0  0  0  0  0  0  0
  187.1390  176.3730  135.7680 C   0  0  0  0  0  2  0  0  0  0  0  0
  185.6900  176.1930  136.2050 C   0  0  0  0  0  2  0  0  0  0  0  0
  1  9  1  0  0  0  0
  1  8  2  0  0  0  0
  2 10  2  0  0  0  0
  3  4  1  1  0  0  0
  4  7  2  0  0  0  0
  5  3  1  0  0  0  0
  5  2  1  1  0  0  0
  8 11  1  0  0  0  0
  8  3  1  0  0  0  0
  9  6  1  1  0  0  0
  9  5  1  0  0  0  0
 10  7  1  0  0  0  0
 12 13  1  1  0  0  0
 12 11  1  0  0  0  0
 12 14  1  0  0  0  0
 14 15  1  6  0  0  0
 14 16  1  0  0  0  0
 16 19  1  0  0  0  0
 18 26  1  0  0  0  0
 19 23  1  0  0  0  0
 19 17  1  0  0  0  0
 20 17  1  6  0  0  0
 20 21  1  0  0  0  0
 20 22  1  0  0  0  0
 21 24  1  6  0  0  0
 21 25  1  0  0  0  0
 22 18  1  0  0  0  0
 23 24  1  0  0  0  0
 25 26  1  0  0  0  0
 27  1  1  0  0  0  0
 28 32  1  0  0  0  0
 28 29  1  0  0  0  0
 29 31  1  0  0  0  0
 30 31  2  0  0  0  0
 31 27  1  0  0  0  0
 32 33  1  0  0  0  0
 33 30  1  0  0  0  0
M  END
>  <MODEL>
4

>  <REMARK>
 VINA RESULT:      -8.6      1.554      4.425
  Name = 
  7 active torsions:
  status: ('A' for Active; 'I' for Inactive)
    1  A    between atoms: C_1  and  N_24
    2  A    between atoms: C_4  and  C_7
    3  A    between atoms: C_4  and  N_21
    4  A    between atoms: C_7  and  C_9
    5  A    between atoms: C_9  and  N_15
    6  A    between atoms: C_20  and  N_24
    7  A    between atoms: N_21  and  C_22
                            x       y       z     vdW  Elec       q    Type
                         _______ _______ _______ _____ _____    ______ ____

>  <TORSDO>
F 7

$$$$
=
 OpenBabel11062414503D

 33 37  0  0  1  0  0  0  0  0999 V2000
  185.8310  178.5010  143.4510 C   0  0  0  0  0  0  0  0  0  0  0  0
  185.7670  178.7450  146.9150 C   0  0  0  0  0  3  0  0  0  0  0  0
  186.9480  177.5220  145.1560 C   0  0  1  0  0  3  0  0  0  0  0  0
  188.0680  177.2900  146.0720 C   0  0  0  0  0  3  0  0  0  0  0  0
  185.6020  177.8920  145.6850 C   0  0  2  0  0  3  0  0  0  0  0  0
  183.8400  179.3310  144.5350 O   0  0  0  0  0  1  0  0  0  0  0  0
  187.9740  177.8320  147.2900 C   0  0  0  0  0  3  0  0  0  0  0  0
  187.0600  177.8310  143.8720 C   0  0  0  0  0  0  0  0  0  0  0  0
  185.0320  178.6160  144.5100 C   0  0  1  0  0  3  0  0  0  0  0  0
  186.8410  178.6520  147.6520 N   0  0  0  0  0  0  0  0  0  0  0  0
  188.2870  177.7650  143.1400 N   0  0  0  0  0  2  0  0  0  0  0  0
  188.7000  176.6050  142.3620 C   0  0  2  0  0  3  0  0  0  0  0  0
  189.3240  175.6710  143.1930 O   0  0  0  0  0  1  0  0  0  0  0  0
  189.6250  177.0310  141.2200 C   0  0  2  0  0  3  0  0  0  0  0  0
  190.7580  177.7880  141.7270 N   0  0  0  0  0  1  0  0  0  0  0  0
  188.9200  177.7950  140.0940 C   0  0  0  0  0  2  0  0  0  0  0  0
  189.0600  178.6570  137.8560 C   0  0  0  0  0  2  0  0  0  0  0  0
  186.1440  177.5990  135.5650 C   0  0  0  0  0  2  0  0  0  0  0  0
  189.7980  177.9910  138.9410 N   0  0  0  0  0  0  0  0  0  0  0  0
  187.9520  177.7730  137.2800 C   0  0  2  0  0  3  0  0  0  0  0  0
  188.5560  176.4610  136.7790 C   0  0  1  0  0  3  0  0  0  0  0  0
  187.2400  178.4930  136.1400 C   0  0  0  0  0  2  0  0  0  0  0  0
  190.3420  176.6970  138.5030 C   0  0  0  0  0  2  0  0  0  0  0  0
  189.2670  175.7670  137.9260 C   0  0  0  0  0  2  0  0  0  0  0  0
  187.4590  175.5640  136.2160 C   0  0  0  0  0  2  0  0  0  0  0  0
  186.7360  176.2780  135.0750 C   0  0  0  0  0  2  0  0  0  0  0  0
  185.6510  179.1580  142.1890 N   0  0  0  0  0  2  0  0  0  0  0  0
  184.2610  178.6540  138.6380 C   0  0  0  0  0  2  0  0  0  0  0  0
  185.3170  178.9490  139.7030 C   0  0  0  0  0  2  0  0  0  0  0  0
  183.7720  177.9090  141.3460 C   0  0  0  0  0  3  0  0  0  0  0  0
  184.8280  178.7040  141.1090 C   0  0  0  0  0  0  0  0  0  0  0  0
  183.6140  177.3080  138.9200 C   0  0  0  0  0  2  0  0  0  0  0  0
  182.8810  177.3870  140.2540 C   0  0  0  0  0  2  0  0  0  0  0  0
  1  8  2  0  0  0  0
  1  9  1  0  0  0  0
  2 10  2  0  0  0  0
  3  5  1  0  0  0  0
  3  4  1  1  0  0  0
  4  7  2  0  0  0  0
  5  2  1  1  0  0  0
  7 10  1  0  0  0  0
  8  3  1  0  0  0  0
  9  6  1  1  0  0  0
  9  5  1  0  0  0  0
 11  8  1  0  0  0  0
 12 11  1  0  0  0  0
 12 13  1  1  0  0  0
 14 15  1  1  0  0  0
 14 12  1  0  0  0  0
 16 14  1  0  0  0  0
 17 19  1  0  0  0  0
 18 22  1  0  0  0  0
 19 16  1  0  0  0  0
 20 22  1  6  0  0  0
 20 17  1  0  0  0  0
 21 25  1  1  0  0  0
 21 20  1  0  0  0  0
 21 24  1  0  0  0  0
 23 19  1  0  0  0  0
 24 23  1  0  0  0  0
 26 18  1  0  0  0  0
 26 25  1  0  0  0  0
 27  1  1  0  0  0  0
 28 32  1  0  0  0  0
 28 29  1  0  0  0  0
 29 31  1  0  0  0  0
 31 30  2  0  0  0  0
 31 27  1  0  0  0  0
 32 33  1  0  0  0  0
 33 30  1  0  0  0  0
M  END
>  <MODEL>
5

>  <REMARK>
 VINA RESULT:      -8.5      2.285      6.843
  Name = 
  7 active torsions:
  status: ('A' for Active; 'I' for Inactive)
    1  A    between atoms: C_1  and  N_24
    2  A    between atoms: C_4  and  C_7
    3  A    between atoms: C_4  and  N_21
    4  A    between atoms: C_7  and  C_9
    5  A    between atoms: C_9  and  N_15
    6  A    between atoms: C_20  and  N_24
    7  A    between atoms: N_21  and  C_22
                            x       y       z     vdW  Elec       q    Type
                         _______ _______ _______ _____ _____    ______ ____

>  <TORSDO>
F 7

$$$$
=
 OpenBabel11062414503D

 33 37  0  0  1  0  0  0  0  0999 V2000
  188.4660  177.8600  138.5960 C   0  0  0  0  0  0  0  0  0  0  0  0
  185.1940  179.0150  138.7300 C   0  0  0  0  0  3  0  0  0  0  0  0
  186.8850  178.0380  140.2030 C   0  0  1  0  0  3  0  0  0  0  0  0
  186.2080  178.6210  141.3640 C   0  0  0  0  0  3  0  0  0  0  0  0
  186.1600  177.8750  138.9070 C   0  0  2  0  0  3  0  0  0  0  0  0
  187.1640  177.9410  136.5650 O   0  0  0  0  0  1  0  0  0  0  0  0
  185.1330  179.3780  141.1200 C   0  0  0  0  0  3  0  0  0  0  0  0
  188.1970  177.9860  140.0270 C   0  0  0  0  0  0  0  0  0  0  0  0
  187.3040  177.8860  137.9470 C   0  0  1  0  0  3  0  0  0  0  0  0
  184.7060  179.6430  139.7650 N   0  0  0  0  0  0  0  0  0  0  0  0
  189.1510  178.2920  141.0490 N   0  0  0  0  0  2  0  0  0  0  0  0
  190.3510  177.5040  141.2940 C   0  0  2  0  0  3  0  0  0  0  0  0
  190.0430  176.1420  141.2580 O   0  0  0  0  0  1  0  0  0  0  0  0
  190.9800  177.8930  142.6340 C   0  0  2  0  0  3  0  0  0  0  0  0
  191.9730  176.9130  143.0430 N   0  0  0  0  0  1  0  0  0  0  0  0
  189.9650  178.1390  143.7550 C   0  0  0  0  0  2  0  0  0  0  0  0
  187.9900  176.8110  144.0840 C   0  0  0  0  0  2  0  0  0  0  0  0
  184.9780  178.7700  145.4850 C   0  0  0  0  0  2  0  0  0  0  0  0
  189.4440  176.8860  144.2980 N   0  0  0  0  0  0  0  0  0  0  0  0
  187.2290  177.8630  144.8940 C   0  0  2  0  0  3  0  0  0  0  0  0
  187.5530  177.6930  146.3790 C   0  0  1  0  0  3  0  0  0  0  0  0
  185.7280  177.7230  144.6640 C   0  0  0  0  0  2  0  0  0  0  0  0
  189.7800  176.7830  145.7260 C   0  0  0  0  0  2  0  0  0  0  0  0
  189.0510  177.8250  146.5830 C   0  0  0  0  0  2  0  0  0  0  0  0
  186.8120  178.7470  147.1960 C   0  0  0  0  0  2  0  0  0  0  0  0
  185.3070  178.6190  146.9690 C   0  0  0  0  0  2  0  0  0  0  0  0
  189.7640  177.9710  137.9960 N   0  0  0  0  0  2  0  0  0  0  0  0
  190.9380  175.1360  135.6770 C   0  0  0  0  0  2  0  0  0  0  0  0
  190.2280  176.4350  136.0570 C   0  0  0  0  0  2  0  0  0  0  0  0
  191.6420  176.4670  138.0980 C   0  0  0  0  0  3  0  0  0  0  0  0
  190.5430  176.8960  137.4580 C   0  0  0  0  0  0  0  0  0  0  0  0
  192.4070  175.2270  136.0610 C   0  0  0  0  0  2  0  0  0  0  0  0
  192.5090  175.3550  137.5760 C   0  0  0  0  0  2  0  0  0  0  0  0
  1  8  2  0  0  0  0
  2 10  2  0  0  0  0
  3  4  1  6  0  0  0
  5  2  1  6  0  0  0
  5  3  1  0  0  0  0
  7  4  2  0  0  0  0
  8  3  1  0  0  0  0
  8 11  1  0  0  0  0
  9  6  1  1  0  0  0
  9  1  1  0  0  0  0
  9  5  1  0  0  0  0
 10  7  1  0  0  0  0
 11 12  1  0  0  0  0
 12 13  1  1  0  0  0
 12 14  1  0  0  0  0
 14 15  1  1  0  0  0
 14 16  1  0  0  0  0
 16 19  1  0  0  0  0
 17 19  1  0  0  0  0
 18 26  1  0  0  0  0
 19 23  1  0  0  0  0
 20 17  1  6  0  0  0
 20 21  1  0  0  0  0
 21 24  1  6  0  0  0
 21 25  1  0  0  0  0
 22 20  1  0  0  0  0
 22 18  1  0  0  0  0
 23 24  1  0  0  0  0
 26 25  1  0  0  0  0
 27  1  1  0  0  0  0
 28 29  1  0  0  0  0
 28 32  1  0  0  0  0
 29 31  1  0  0  0  0
 31 27  1  0  0  0  0
 31 30  2  0  0  0  0
 32 33  1  0  0  0  0
 33 30  1  0  0  0  0
M  END
>  <MODEL>
6

>  <REMARK>
 VINA RESULT:      -8.5      2.088      5.198
  Name = 
  7 active torsions:
  status: ('A' for Active; 'I' for Inactive)
    1  A    between atoms: C_1  and  N_24
    2  A    between atoms: C_4  and  C_7
    3  A    between atoms: C_4  and  N_21
    4  A    between atoms: C_7  and  C_9
    5  A    between atoms: C_9  and  N_15
    6  A    between atoms: C_20  and  N_24
    7  A    between atoms: N_21  and  C_22
                            x       y       z     vdW  Elec       q    Type
                         _______ _______ _______ _____ _____    ______ ____

>  <TORSDO>
F 7

$$$$
=
 OpenBabel11062414503D

 33 37  0  0  1  0  0  0  0  0999 V2000
  185.9390  178.5300  142.2310 C   0  0  0  0  0  0  0  0  0  0  0  0
  186.8150  178.0920  145.5620 C   0  0  0  0  0  3  0  0  0  0  0  0
  187.6470  177.5370  143.3300 C   0  0  1  0  0  3  0  0  0  0  0  0
  189.0020  177.4050  143.8700 C   0  0  0  0  0  3  0  0  0  0  0  0
  186.4620  177.4730  144.2360 C   0  0  2  0  0  3  0  0  0  0  0  0
  184.2220  178.6470  143.9230 O   0  0  0  0  0  1  0  0  0  0  0  0
  189.1630  177.6700  145.1700 C   0  0  0  0  0  3  0  0  0  0  0  0
  187.3340  178.1010  142.1720 C   0  0  0  0  0  0  0  0  0  0  0  0
  185.4640  178.2510  143.4430 C   0  0  1  0  0  3  0  0  0  0  0  0
  188.0520  178.1160  145.9790 N   0  0  0  0  0  0  0  0  0  0  0  0
  188.2970  178.4650  141.1780 N   0  0  0  0  0  2  0  0  0  0  0  0
  188.8900  177.5170  140.2450 C   0  0  2  0  0  3  0  0  0  0  0  0
  190.2600  177.3980  140.4930 O   0  0  0  0  0  1  0  0  0  0  0  0
  188.6260  177.9530  138.8020 C   0  0  2  0  0  3  0  0  0  0  0  0
  189.0550  179.3270  138.5900 N   0  0  0  0  0  1  0  0  0  0  0  0
  187.1780  177.7580  138.3430 C   0  0  0  0  0  2  0  0  0  0  0  0
  185.7400  176.9950  136.5750 C   0  0  0  0  0  2  0  0  0  0  0  0
  183.6400  173.8870  137.4690 C   0  0  0  0  0  2  0  0  0  0  0  0
  187.1000  177.4400  136.9170 N   0  0  0  0  0  0  0  0  0  0  0  0
  185.3840  175.6600  137.2300 C   0  0  2  0  0  3  0  0  0  0  0  0
  186.4050  174.6010  136.8130 C   0  0  1  0  0  3  0  0  0  0  0  0
  183.9810  175.2260  136.8190 C   0  0  0  0  0  2  0  0  0  0  0  0
  188.0990  176.4150  136.5790 C   0  0  0  0  0  2  0  0  0  0  0  0
  187.7950  175.0560  137.2220 C   0  0  0  0  0  2  0  0  0  0  0  0
  186.0710  173.2670  137.4720 C   0  0  0  0  0  2  0  0  0  0  0  0
  184.6640  172.8250  137.0710 C   0  0  0  0  0  2  0  0  0  0  0  0
  185.2960  179.3530  141.2470 N   0  0  0  0  0  2  0  0  0  0  0  0
  182.6570  179.4320  138.4500 C   0  0  0  0  0  2  0  0  0  0  0  0
  183.9800  179.7600  139.1400 C   0  0  0  0  0  2  0  0  0  0  0  0
  183.5430  177.8220  140.6290 C   0  0  0  0  0  3  0  0  0  0  0  0
  184.2040  178.9690  140.4050 C   0  0  0  0  0  0  0  0  0  0  0  0
  182.4890  177.9230  138.3600 C   0  0  0  0  0  2  0  0  0  0  0  0
  182.4000  177.3560  139.7720 C   0  0  0  0  0  2  0  0  0  0  0  0
  1  9  1  0  0  0  0
  2 10  2  0  0  0  0
  3  4  1  1  0  0  0
  3  5  1  0  0  0  0
  4  7  2  0  0  0  0
  5  2  1  1  0  0  0
  7 10  1  0  0  0  0
  8  1  2  0  0  0  0
  8  3  1  0  0  0  0
  9  6  1  1  0  0  0
  9  5  1  0  0  0  0
 11  8  1  0  0  0  0
 12 13  1  1  0  0  0
 12 11  1  0  0  0  0
 14 15  1  1  0  0  0
 14 12  1  0  0  0  0
 16 14  1  0  0  0  0
 17 19  1  0  0  0  0
 19 16  1  0  0  0  0
 20 17  1  6  0  0  0
 21 24  1  1  0  0  0
 21 20  1  0  0  0  0
 21 25  1  0  0  0  0
 22 20  1  0  0  0  0
 22 18  1  0  0  0  0
 23 19  1  0  0  0  0
 23 24  1  0  0  0  0
 26 18  1  0  0  0  0
 26 25  1  0  0  0  0
 27  1  1  0  0  0  0
 28 29  1  0  0  0  0
 29 31  1  0  0  0  0
 31 30  2  0  0  0  0
 31 27  1  0  0  0  0
 32 28  1  0  0  0  0
 32 33  1  0  0  0  0
 33 30  1  0  0  0  0
M  END
>  <MODEL>
7

>  <REMARK>
 VINA RESULT:      -8.4      1.998      6.571
  Name = 
  7 active torsions:
  status: ('A' for Active; 'I' for Inactive)
    1  A    between atoms: C_1  and  N_24
    2  A    between atoms: C_4  and  C_7
    3  A    between atoms: C_4  and  N_21
    4  A    between atoms: C_7  and  C_9
    5  A    between atoms: C_9  and  N_15
    6  A    between atoms: C_20  and  N_24
    7  A    between atoms: N_21  and  C_22
                            x       y       z     vdW  Elec       q    Type
                         _______ _______ _______ _____ _____    ______ ____

>  <TORSDO>
F 7

$$$$
=
 OpenBabel11062414503D

 33 37  0  0  1  0  0  0  0  0999 V2000
  189.6260  175.1420  137.6000 C   0  0  0  0  0  0  0  0  0  0  0  0
  187.2180  175.3920  135.1110 C   0  0  0  0  0  3  0  0  0  0  0  0
  187.9580  176.5880  137.1120 C   0  0  1  0  0  3  0  0  0  0  0  0
  187.3540  177.8200  136.5980 C   0  0  0  0  0  3  0  0  0  0  0  0
  187.5410  175.2580  136.5750 C   0  0  2  0  0  3  0  0  0  0  0  0
  188.9700  173.1560  136.3950 O   0  0  0  0  0  1  0  0  0  0  0  0
  186.7880  177.7550  135.3890 C   0  0  0  0  0  3  0  0  0  0  0  0
  189.1260  176.5080  137.7330 C   0  0  0  0  0  0  0  0  0  0  0  0
  188.7620  174.4490  136.8620 C   0  0  1  0  0  3  0  0  0  0  0  0
  186.8270  176.5350  134.6150 N   0  0  0  0  0  0  0  0  0  0  0  0
  189.8660  177.6450  138.1890 N   0  0  0  0  0  2  0  0  0  0  0  0
  190.2120  177.8750  139.5850 C   0  0  2  0  0  3  0  0  0  0  0  0
  191.2540  177.0250  139.9640 O   0  0  0  0  0  1  0  0  0  0  0  0
  188.9850  177.6780  140.4780 C   0  0  2  0  0  3  0  0  0  0  0  0
  187.9340  178.6200  140.1280 N   0  0  0  0  0  1  0  0  0  0  0  0
  189.2870  177.7330  141.9790 C   0  0  0  0  0  2  0  0  0  0  0  0
  187.9260  176.3850  143.4300 C   0  0  0  0  0  2  0  0  0  0  0  0
  186.8440  178.1520  146.6810 C   0  0  0  0  0  2  0  0  0  0  0  0
  189.1460  176.4200  142.6070 N   0  0  0  0  0  0  0  0  0  0  0  0
  188.0140  177.3210  144.6370 C   0  0  2  0  0  3  0  0  0  0  0  0
  189.2300  176.9460  145.4830 C   0  0  1  0  0  3  0  0  0  0  0  0
  186.7420  177.2240  145.4730 C   0  0  0  0  0  2  0  0  0  0  0  0
  190.3410  176.1190  143.4100 C   0  0  0  0  0  2  0  0  0  0  0  0
  190.4820  177.0390  144.6290 C   0  0  0  0  0  2  0  0  0  0  0  0
  189.3380  177.8820  146.6830 C   0  0  0  0  0  2  0  0  0  0  0  0
  188.0670  177.7970  147.5260 C   0  0  0  0  0  2  0  0  0  0  0  0
  190.9460  174.7160  137.9680 N   0  0  0  0  0  2  0  0  0  0  0  0
  193.9970  175.9500  135.9780 C   0  0  0  0  0  2  0  0  0  0  0  0
  192.9450  175.9650  137.0850 C   0  0  0  0  0  2  0  0  0  0  0  0
  192.5280  173.5760  136.5550 C   0  0  0  0  0  3  0  0  0  0  0  0
  192.1020  174.7150  137.1220 C   0  0  0  0  0  0  0  0  0  0  0  0
  194.7340  174.6190  135.9930 C   0  0  0  0  0  2  0  0  0  0  0  0
  193.7420  173.5080  135.6710 C   0  0  0  0  0  2  0  0  0  0  0  0
  1  8  2  0  0  0  0
  1 27  1  0  0  0  0
  3  4  1  6  0  0  0
  3  8  1  0  0  0  0
  5  2  1  6  0  0  0
  5  9  1  0  0  0  0
  5  3  1  0  0  0  0
  7  4  2  0  0  0  0
  8 11  1  0  0  0  0
  9  6  1  6  0  0  0
  9  1  1  0  0  0  0
 10  2  2  0  0  0  0
 10  7  1  0  0  0  0
 11 12  1  0  0  0  0
 12 13  1  1  0  0  0
 12 14  1  0  0  0  0
 14 15  1  6  0  0  0
 14 16  1  0  0  0  0
 16 19  1  0  0  0  0
 18 26  1  0  0  0  0
 19 23  1  0  0  0  0
 19 17  1  0  0  0  0
 20 17  1  6  0  0  0
 20 22  1  0  0  0  0
 20 21  1  0  0  0  0
 21 24  1  6  0  0  0
 21 25  1  0  0  0  0
 22 18  1  0  0  0  0
 23 24  1  0  0  0  0
 25 26  1  0  0  0  0
 28 32  1  0  0  0  0
 28 29  1  0  0  0  0
 29 31  1  0  0  0  0
 30 31  2  0  0  0  0
 31 27  1  0  0  0  0
 33 32  1  0  0  0  0
 33 30  1  0  0  0  0
M  END
>  <MODEL>
8

>  <REMARK>
 VINA RESULT:      -8.3      2.996      5.795
  Name = 
  7 active torsions:
  status: ('A' for Active; 'I' for Inactive)
    1  A    between atoms: C_1  and  N_24
    2  A    between atoms: C_4  and  C_7
    3  A    between atoms: C_4  and  N_21
    4  A    between atoms: C_7  and  C_9
    5  A    between atoms: C_9  and  N_15
    6  A    between atoms: C_20  and  N_24
    7  A    between atoms: N_21  and  C_22
                            x       y       z     vdW  Elec       q    Type
                         _______ _______ _______ _____ _____    ______ ____

>  <TORSDO>
F 7

$$$$
=
 OpenBabel11062414503D

 33 37  0  0  1  0  0  0  0  0999 V2000
  185.8910  177.3370  137.2500 C   0  0  0  0  0  0  0  0  0  0  0  0
  187.9800  175.5010  135.1690 C   0  0  0  0  0  3  0  0  0  0  0  0
  187.9650  177.6180  136.3940 C   0  0  1  0  0  3  0  0  0  0  0  0
  189.4300  177.6260  136.3950 C   0  0  0  0  0  3  0  0  0  0  0  0
  187.2130  176.7720  135.4200 C   0  0  2  0  0  3  0  0  0  0  0  0
  184.9250  175.7020  135.7590 O   0  0  0  0  0  1  0  0  0  0  0  0
  190.0400  176.5730  135.8420 C   0  0  0  0  0  3  0  0  0  0  0  0
  187.1960  177.9730  137.4130 C   0  0  0  0  0  0  0  0  0  0  0  0
  185.9290  176.5780  136.1560 C   0  0  1  0  0  3  0  0  0  0  0  0
  189.2760  175.4620  135.3220 N   0  0  0  0  0  0  0  0  0  0  0  0
  187.6830  178.6280  138.5890 N   0  0  0  0  0  2  0  0  0  0  0  0
  187.7340  177.9970  139.9010 C   0  0  2  0  0  3  0  0  0  0  0  0
  186.9450  178.7140  140.8050 O   0  0  0  0  0  1  0  0  0  0  0  0
  189.1810  177.8970  140.3880 C   0  0  2  0  0  3  0  0  0  0  0  0
  189.8400  176.7350  139.8150 N   0  0  0  0  0  1  0  0  0  0  0  0
  189.3310  177.9120  141.9120 C   0  0  0  0  0  2  0  0  0  0  0  0
  187.9300  176.5040  143.2650 C   0  0  0  0  0  2  0  0  0  0  0  0
  186.7340  178.1390  146.5450 C   0  0  0  0  0  2  0  0  0  0  0  0
  189.1760  176.5750  142.4850 N   0  0  0  0  0  0  0  0  0  0  0  0
  187.9740  177.3920  144.5090 C   0  0  2  0  0  3  0  0  0  0  0  0
  189.1640  176.9890  145.3800 C   0  0  1  0  0  3  0  0  0  0  0  0
  186.6760  177.2580  145.3000 C   0  0  0  0  0  2  0  0  0  0  0  0
  190.3460  176.2480  143.3140 C   0  0  0  0  0  2  0  0  0  0  0  0
  190.4430  177.1200  144.5720 C   0  0  0  0  0  2  0  0  0  0  0  0
  189.2280  177.8780  146.6180 C   0  0  0  0  0  2  0  0  0  0  0  0
  187.9310  177.7560  147.4150 C   0  0  0  0  0  2  0  0  0  0  0  0
  184.8590  177.3210  138.2460 N   0  0  0  0  0  2  0  0  0  0  0  0
  182.3670  180.0840  139.2200 C   0  0  0  0  0  2  0  0  0  0  0  0
  183.7330  179.4170  139.0680 C   0  0  0  0  0  2  0  0  0  0  0  0
  182.6680  177.8910  137.4240 C   0  0  0  0  0  3  0  0  0  0  0  0
  183.6860  178.1430  138.2620 C   0  0  0  0  0  0  0  0  0  0  0  0
  181.6770  180.1470  137.8660 C   0  0  0  0  0  2  0  0  0  0  0  0
  181.4190  178.7260  137.3820 C   0  0  0  0  0  2  0  0  0  0  0  0
  1  8  2  0  0  0  0
  1 27  1  0  0  0  0
  2 10  2  0  0  0  0
  3  4  1  1  0  0  0
  3  8  1  0  0  0  0
  5  2  1  1  0  0  0
  5  9  1  0  0  0  0
  5  3  1  0  0  0  0
  7  4  2  0  0  0  0
  8 11  1  0  0  0  0
  9  6  1  1  0  0  0
  9  1  1  0  0  0  0
 10  7  1  0  0  0  0
 11 12  1  0  0  0  0
 12 14  1  0  0  0  0
 12 13  1  1  0  0  0
 14 15  1  1  0  0  0
 14 16  1  0  0  0  0
 16 19  1  0  0  0  0
 18 26  1  0  0  0  0
 19 17  1  0  0  0  0
 19 23  1  0  0  0  0
 20 17  1  6  0  0  0
 20 22  1  0  0  0  0
 20 21  1  0  0  0  0
 21 24  1  6  0  0  0
 21 25  1  0  0  0  0
 22 18  1  0  0  0  0
 23 24  1  0  0  0  0
 25 26  1  0  0  0  0
 27 31  1  0  0  0  0
 29 28  1  0  0  0  0
 30 31  2  0  0  0  0
 31 29  1  0  0  0  0
 32 28  1  0  0  0  0
 33 30  1  0  0  0  0
 33 32  1  0  0  0  0
M  END
>  <MODEL>
9

>  <REMARK>
 VINA RESULT:      -8.2      1.799      2.312
  Name = 
  7 active torsions:
  status: ('A' for Active; 'I' for Inactive)
    1  A    between atoms: C_1  and  N_24
    2  A    between atoms: C_4  and  C_7
    3  A    between atoms: C_4  and  N_21
    4  A    between atoms: C_7  and  C_9
    5  A    between atoms: C_9  and  N_15
    6  A    between atoms: C_20  and  N_24
    7  A    between atoms: N_21  and  C_22
                            x       y       z     vdW  Elec       q    Type
                         _______ _______ _______ _____ _____    ______ ____

>  <TORSDO>
F 7

$$$$
