=
 OpenBabel11062416323D

 29 33  0  0  1  0  0  0  0  0999 V2000
  179.5750  177.3630  139.8380 C   0  0  0  0  0  2  0  0  0  0  0  0
  182.4390  180.5820  138.7190 C   0  0  0  0  0  1  0  0  0  0  0  0
  182.9030  176.0700  137.5960 C   0  0  0  0  0  0  0  0  0  0  0  0
  182.0420  175.2210  138.4760 C   0  0  0  0  0  2  0  0  0  0  0  0
  181.3370  179.7700  139.3680 C   0  0  2  0  0  0  0  0  0  0  0  0
  186.4510  176.2870  137.1020 O   0  0  0  0  0  1  0  0  0  0  0  0
  185.6560  177.5040  134.5940 C   0  0  0  0  0  1  0  0  0  0  0  0
  180.2150  177.7520  138.5230 C   0  0  1  0  0  0  0  0  0  0  0  0
  181.0230  177.0640  136.2640 C   0  0  0  0  0  0  0  0  0  0  0  0
  180.6360  180.5680  140.2730 O   0  0  0  0  0  1  0  0  0  0  0  0
  180.0040  176.8090  137.3410 C   0  0  0  0  0  2  0  0  0  0  0  0
  184.2190  176.0640  137.8240 C   0  0  0  0  0  3  0  0  0  0  0  0
  185.1710  176.8230  136.9540 C   0  0  2  0  0  3  0  0  0  0  0  0
  181.9300  178.5290  140.0440 C   0  0  2  0  0  3  0  0  0  0  0  0
  183.3080  177.2980  135.3550 C   0  0  0  0  0  2  0  0  0  0  0  0
  181.6980  175.9080  139.7950 C   0  0  0  0  0  2  0  0  0  0  0  0
  180.3780  179.2540  138.3010 C   0  0  0  0  0  2  0  0  0  0  0  0
  180.5040  177.7200  135.0250 C   0  0  0  0  0  1  0  0  0  0  0  0
  184.7180  176.7260  135.4980 C   0  0  1  0  0  3  0  0  0  0  0  0
  181.0940  177.3140  139.6780 C   0  0  1  0  0  0  0  0  0  0  0  0
  182.3420  176.7850  136.4040 C   0  0  0  0  0  0  0  0  0  0  0  0
  180.0690  178.6610  142.1410 F   0  0  0  0  0  0  0  0  0  0  0  0
  184.7510  178.6370  140.9210 O   0  0  0  0  0  1  0  0  0  0  0  0
  181.3830  178.7050  142.4750 C   0  0  0  0  0  0  0  0  0  0  0  0
  183.7330  178.6960  141.8640 C   0  0  0  0  0  0  0  0  0  0  0  0
  184.0770  178.8080  143.2150 C   0  0  0  0  0  3  0  0  0  0  0  0
  183.0820  178.8680  144.1920 C   0  0  0  0  0  3  0  0  0  0  0  0
  182.3750  178.6430  141.4820 C   0  0  0  0  0  0  0  0  0  0  0  0
  181.7380  178.8160  143.8220 C   0  0  0  0  0  3  0  0  0  0  0  0
  3 12  2  0  0  0  0
  3  4  1  0  0  0  0
  4 16  1  0  0  0  0
  5  2  1  6  0  0  0
  5 14  1  0  0  0  0
  5 10  1  0  0  0  0
  8 11  1  6  0  0  0
  8 20  1  0  0  0  0
  8  1  1  0  0  0  0
  9 21  2  0  0  0  0
  9 11  1  0  0  0  0
 13  6  1  6  0  0  0
 13 12  1  0  0  0  0
 14 28  1  1  0  0  0
 15 19  1  0  0  0  0
 15 21  1  0  0  0  0
 17  8  1  0  0  0  0
 17  5  1  0  0  0  0
 18  9  1  0  0  0  0
 19  7  1  6  0  0  0
 19 13  1  0  0  0  0
 20 16  1  6  0  0  0
 20  1  1  0  0  0  0
 20 14  1  0  0  0  0
 21  3  1  0  0  0  0
 22 24  1  0  0  0  0
 23 25  1  0  0  0  0
 24 29  1  0  0  0  0
 25 26  2  0  0  0  0
 26 27  1  0  0  0  0
 28 25  1  0  0  0  0
 28 24  2  0  0  0  0
 29 27  2  0  0  0  0
M  END
>  <MODEL>
1

>  <REMARK>
 VINA RESULT:      -6.2      0.000      0.000
  Name = 
  1 active torsions:
  status: ('A' for Active; 'I' for Inactive)
    1  A    between atoms: C_19  and  C_24
                            x       y       z     vdW  Elec       q    Type
                         _______ _______ _______ _____ _____    ______ ____

>  <TORSDO>
F 1

$$$$
=
 OpenBabel11062416323D

 29 33  0  0  1  0  0  0  0  0999 V2000
  179.2340  177.5710  139.8050 C   0  0  0  0  0  2  0  0  0  0  0  0
  182.3110  180.5880  138.6870 C   0  0  0  0  0  1  0  0  0  0  0  0
  182.4820  176.0500  137.5860 C   0  0  0  0  0  0  0  0  0  0  0  0
  181.5610  175.2640  138.4660 C   0  0  0  0  0  2  0  0  0  0  0  0
  181.1550  179.8540  139.3340 C   0  0  2  0  0  0  0  0  0  0  0  0
  186.0390  176.0290  137.1120 O   0  0  0  0  0  1  0  0  0  0  0  0
  185.3400  177.2840  134.5940 C   0  0  0  0  0  1  0  0  0  0  0  0
  179.9060  177.9110  138.4910 C   0  0  1  0  0  0  0  0  0  0  0  0
  180.6790  177.1600  136.2400 C   0  0  0  0  0  0  0  0  0  0  0  0
  180.5040  180.7010  140.2320 O   0  0  0  0  0  1  0  0  0  0  0  0
  179.6400  176.9780  137.3120 C   0  0  0  0  0  2  0  0  0  0  0  0
  183.7930  175.9580  137.8220 C   0  0  0  0  0  3  0  0  0  0  0  0
  184.7980  176.6480  136.9540 C   0  0  2  0  0  3  0  0  0  0  0  0
  181.6610  178.5790  140.0180 C   0  0  2  0  0  3  0  0  0  0  0  0
  182.9790  177.2380  135.3430 C   0  0  0  0  0  2  0  0  0  0  0  0
  181.2570  175.9780  139.7790 C   0  0  0  0  0  2  0  0  0  0  0  0
  180.1700  179.3970  138.2640 C   0  0  0  0  0  2  0  0  0  0  0  0
  180.2110  177.8440  134.9950 C   0  0  0  0  0  1  0  0  0  0  0  0
  184.3470  176.5750  135.4970 C   0  0  1  0  0  3  0  0  0  0  0  0
  180.7480  177.4210  139.6530 C   0  0  1  0  0  0  0  0  0  0  0  0
  181.9760  176.7950  136.3880 C   0  0  0  0  0  0  0  0  0  0  0  0
  184.3780  178.4770  140.7180 F   0  0  0  0  0  0  0  0  0  0  0  0
  179.8290  178.8710  142.3200 O   0  0  0  0  0  1  0  0  0  0  0  0
  183.4820  178.6110  141.7280 C   0  0  0  0  0  0  0  0  0  0  0  0
  181.2000  178.8050  142.5330 C   0  0  0  0  0  0  0  0  0  0  0  0
  181.6780  178.8790  143.8460 C   0  0  0  0  0  3  0  0  0  0  0  0
  183.0490  178.8180  144.1010 C   0  0  0  0  0  3  0  0  0  0  0  0
  182.1050  178.6710  141.4580 C   0  0  0  0  0  0  0  0  0  0  0  0
  183.9490  178.6850  143.0430 C   0  0  0  0  0  3  0  0  0  0  0  0
  3 12  2  0  0  0  0
  3  4  1  0  0  0  0
  4 16  1  0  0  0  0
  5  2  1  6  0  0  0
  5 14  1  0  0  0  0
  5 10  1  0  0  0  0
  8 11  1  6  0  0  0
  8 20  1  0  0  0  0
  8  1  1  0  0  0  0
  9 21  2  0  0  0  0
  9 11  1  0  0  0  0
 13  6  1  6  0  0  0
 13 12  1  0  0  0  0
 14 28  1  1  0  0  0
 15 19  1  0  0  0  0
 15 21  1  0  0  0  0
 17  8  1  0  0  0  0
 17  5  1  0  0  0  0
 18  9  1  0  0  0  0
 19  7  1  6  0  0  0
 19 13  1  0  0  0  0
 20 16  1  6  0  0  0
 20  1  1  0  0  0  0
 20 14  1  0  0  0  0
 21  3  1  0  0  0  0
 22 24  1  0  0  0  0
 23 25  1  0  0  0  0
 24 29  1  0  0  0  0
 25 26  2  0  0  0  0
 26 27  1  0  0  0  0
 28 24  2  0  0  0  0
 28 25  1  0  0  0  0
 29 27  2  0  0  0  0
M  END
>  <MODEL>
2

>  <REMARK>
 VINA RESULT:      -6.1      1.266      1.590
  Name = 
  1 active torsions:
  status: ('A' for Active; 'I' for Inactive)
    1  A    between atoms: C_19  and  C_24
                            x       y       z     vdW  Elec       q    Type
                         _______ _______ _______ _____ _____    ______ ____

>  <TORSDO>
F 1

$$$$
=
 OpenBabel11062416323D

 29 33  0  0  1  0  0  0  0  0999 V2000
  179.4220  178.1590  137.4010 C   0  0  0  0  0  2  0  0  0  0  0  0
  180.2400  175.1100  140.5400 C   0  0  0  0  0  1  0  0  0  0  0  0
  182.3430  179.2710  140.2320 C   0  0  0  0  0  0  0  0  0  0  0  0
  182.1740  179.8410  138.8590 C   0  0  0  0  0  2  0  0  0  0  0  0
  179.7910  175.8260  139.2820 C   0  0  2  0  0  0  0  0  0  0  0  0
  185.2110  178.2550  142.1340 O   0  0  0  0  0  1  0  0  0  0  0  0
  183.3960  178.6080  144.3670 C   0  0  0  0  0  1  0  0  0  0  0  0
  179.4960  178.2380  138.9110 C   0  0  1  0  0  0  0  0  0  0  0  0
  179.9620  179.6000  140.9500 C   0  0  0  0  0  0  0  0  0  0  0  0
  179.0490  174.9530  138.4850 O   0  0  0  0  0  1  0  0  0  0  0  0
  179.4440  179.6290  139.5390 C   0  0  0  0  0  2  0  0  0  0  0  0
  183.5420  178.7800  140.5560 C   0  0  0  0  0  3  0  0  0  0  0  0
  183.8320  178.2530  141.9270 C   0  0  2  0  0  3  0  0  0  0  0  0
  181.0070  176.3850  138.5370 C   0  0  2  0  0  3  0  0  0  0  0  0
  181.6280  179.1350  142.7140 C   0  0  0  0  0  2  0  0  0  0  0  0
  181.8900  178.7690  137.8110 C   0  0  0  0  0  2  0  0  0  0  0  0
  178.9310  177.0290  139.6520 C   0  0  0  0  0  2  0  0  0  0  0  0
  178.9310  179.7650  142.0210 C   0  0  0  0  0  1  0  0  0  0  0  0
  183.1350  179.1300  142.9660 C   0  0  1  0  0  3  0  0  0  0  0  0
  180.7240  177.8200  138.1270 C   0  0  1  0  0  0  0  0  0  0  0  0
  181.2620  179.3780  141.2640 C   0  0  0  0  0  0  0  0  0  0  0  0
  183.4530  175.1210  139.0910 F   0  0  0  0  0  0  0  0  0  0  0  0
  179.9430  175.8290  135.8350 O   0  0  0  0  0  1  0  0  0  0  0  0
  182.9070  174.9080  137.8670 C   0  0  0  0  0  0  0  0  0  0  0  0
  181.1480  175.2650  136.2310 C   0  0  0  0  0  0  0  0  0  0  0  0
  181.8310  174.4420  135.3290 C   0  0  0  0  0  3  0  0  0  0  0  0
  183.0440  173.8550  135.6900 C   0  0  0  0  0  3  0  0  0  0  0  0
  181.6850  175.5040  137.5150 C   0  0  0  0  0  0  0  0  0  0  0  0
  183.5810  174.0870  136.9580 C   0  0  0  0  0  3  0  0  0  0  0  0
  3 12  2  0  0  0  0
  3 21  1  0  0  0  0
  4  3  1  0  0  0  0
  5 17  1  0  0  0  0
  5  2  1  1  0  0  0
  8  1  1  6  0  0  0
  8 11  1  0  0  0  0
  8 17  1  0  0  0  0
  9 21  2  0  0  0  0
  9 18  1  0  0  0  0
 10  5  1  0  0  0  0
 11  9  1  0  0  0  0
 12 13  1  0  0  0  0
 13  6  1  1  0  0  0
 13 19  1  0  0  0  0
 14 28  1  6  0  0  0
 14  5  1  0  0  0  0
 15 19  1  0  0  0  0
 16 20  1  0  0  0  0
 16  4  1  0  0  0  0
 19  7  1  1  0  0  0
 20  1  1  6  0  0  0
 20 14  1  0  0  0  0
 20  8  1  0  0  0  0
 21 15  1  0  0  0  0
 23 25  1  0  0  0  0
 24 22  1  0  0  0  0
 25 28  2  0  0  0  0
 26 27  2  0  0  0  0
 26 25  1  0  0  0  0
 27 29  1  0  0  0  0
 28 24  1  0  0  0  0
 29 24  2  0  0  0  0
M  END
>  <MODEL>
3

>  <REMARK>
 VINA RESULT:      -5.1      2.510      6.054
  Name = 
  1 active torsions:
  status: ('A' for Active; 'I' for Inactive)
    1  A    between atoms: C_19  and  C_24
                            x       y       z     vdW  Elec       q    Type
                         _______ _______ _______ _____ _____    ______ ____

>  <TORSDO>
F 1

$$$$
=
 OpenBabel11062416323D

 29 33  0  0  1  0  0  0  0  0999 V2000
  179.0840  178.2190  137.6350 C   0  0  0  0  0  2  0  0  0  0  0  0
  180.4440  175.0080  140.4020 C   0  0  0  0  0  1  0  0  0  0  0  0
  182.2540  179.3110  140.1920 C   0  0  0  0  0  0  0  0  0  0  0  0
  181.8900  179.9670  138.8990 C   0  0  0  0  0  2  0  0  0  0  0  0
  179.8080  175.7830  139.2660 C   0  0  2  0  0  0  0  0  0  0  0  0
  185.3830  178.3500  141.6650 O   0  0  0  0  0  1  0  0  0  0  0  0
  183.8300  178.4160  144.1120 C   0  0  0  0  0  1  0  0  0  0  0  0
  179.3340  178.1910  139.1280 C   0  0  1  0  0  0  0  0  0  0  0  0
  179.9610  179.4270  141.2030 C   0  0  0  0  0  0  0  0  0  0  0  0
  179.0270  174.9240  138.4910 O   0  0  0  0  0  1  0  0  0  0  0  0
  179.2770  179.5260  139.8680 C   0  0  0  0  0  2  0  0  0  0  0  0
  183.5100  178.8780  140.3360 C   0  0  0  0  0  3  0  0  0  0  0  0
  183.9900  178.2720  141.6170 C   0  0  2  0  0  3  0  0  0  0  0  0
  180.8930  176.4750  138.4340 C   0  0  2  0  0  3  0  0  0  0  0  0
  181.8500  178.9450  142.7210 C   0  0  0  0  0  2  0  0  0  0  0  0
  181.5440  178.9590  137.8070 C   0  0  0  0  0  2  0  0  0  0  0  0
  178.9310  176.8960  139.8280 C   0  0  0  0  0  2  0  0  0  0  0  0
  179.0580  179.4440  142.3950 C   0  0  0  0  0  1  0  0  0  0  0  0
  183.3740  179.0210  142.7970 C   0  0  1  0  0  3  0  0  0  0  0  0
  180.4810  177.9150  138.1770 C   0  0  1  0  0  0  0  0  0  0  0  0
  181.3000  179.2690  141.3470 C   0  0  0  0  0  0  0  0  0  0  0  0
  179.5010  176.1720  136.0140 F   0  0  0  0  0  0  0  0  0  0  0  0
  183.5590  175.1980  138.4640 O   0  0  0  0  0  1  0  0  0  0  0  0
  180.7330  175.6100  136.0960 C   0  0  0  0  0  0  0  0  0  0  0  0
  182.7690  175.1180  137.3250 C   0  0  0  0  0  0  0  0  0  0  0  0
  183.2630  174.4270  136.2140 C   0  0  0  0  0  3  0  0  0  0  0  0
  182.5000  174.3250  135.0500 C   0  0  0  0  0  3  0  0  0  0  0  0
  181.4920  175.7190  137.2730 C   0  0  0  0  0  0  0  0  0  0  0  0
  181.2370  174.9170  134.9920 C   0  0  0  0  0  3  0  0  0  0  0  0
  3 12  2  0  0  0  0
  3 21  1  0  0  0  0
  4  3  1  0  0  0  0
  5 17  1  0  0  0  0
  5  2  1  1  0  0  0
  8  1  1  6  0  0  0
  8 17  1  0  0  0  0
  8 11  1  0  0  0  0
  9 21  2  0  0  0  0
  9 18  1  0  0  0  0
 10  5  1  0  0  0  0
 11  9  1  0  0  0  0
 12 13  1  0  0  0  0
 13  6  1  1  0  0  0
 13 19  1  0  0  0  0
 14 28  1  6  0  0  0
 14  5  1  0  0  0  0
 15 19  1  0  0  0  0
 16 20  1  0  0  0  0
 16  4  1  0  0  0  0
 19  7  1  1  0  0  0
 20  1  1  6  0  0  0
 20 14  1  0  0  0  0
 20  8  1  0  0  0  0
 21 15  1  0  0  0  0
 22 24  1  0  0  0  0
 24 28  1  0  0  0  0
 25 23  1  0  0  0  0
 26 25  1  0  0  0  0
 27 26  2  0  0  0  0
 28 25  2  0  0  0  0
 29 27  1  0  0  0  0
 29 24  2  0  0  0  0
M  END
>  <MODEL>
4

>  <REMARK>
 VINA RESULT:      -4.9      2.368      5.973
  Name = 
  1 active torsions:
  status: ('A' for Active; 'I' for Inactive)
    1  A    between atoms: C_19  and  C_24
                            x       y       z     vdW  Elec       q    Type
                         _______ _______ _______ _____ _____    ______ ____

>  <TORSDO>
F 1

$$$$
=
 OpenBabel11062416323D

 29 33  0  0  1  0  0  0  0  0999 V2000
  180.3580  176.7830  140.0080 C   0  0  0  0  0  2  0  0  0  0  0  0
  183.7600  179.6080  139.4950 C   0  0  0  0  0  1  0  0  0  0  0  0
  179.6540  179.9270  137.2880 C   0  0  0  0  0  0  0  0  0  0  0  0
  178.9310  178.6190  137.3400 C   0  0  0  0  0  2  0  0  0  0  0  0
  182.8960  178.4100  139.8320 C   0  0  2  0  0  0  0  0  0  0  0  0
  180.9590  181.9070  134.5940 O   0  0  0  0  0  1  0  0  0  0  0  0
  180.8040  184.0270  136.5670 C   0  0  0  0  0  1  0  0  0  0  0  0
  180.4500  178.2940  140.0470 C   0  0  1  0  0  0  0  0  0  0  0  0
  179.3380  180.5020  139.7090 C   0  0  0  0  0  0  0  0  0  0  0  0
  183.6530  177.4670  140.5290 O   0  0  0  0  0  1  0  0  0  0  0  0
  179.1360  179.0690  140.1180 C   0  0  0  0  0  2  0  0  0  0  0  0
  180.2130  180.2810  136.1270 C   0  0  0  0  0  3  0  0  0  0  0  0
  180.8970  181.6010  135.9540 C   0  0  2  0  0  3  0  0  0  0  0  0
  182.2940  177.8240  138.5510 C   0  0  2  0  0  3  0  0  0  0  0  0
  180.0450  182.3190  138.1920 C   0  0  0  0  0  2  0  0  0  0  0  0
  179.8710  177.4390  137.5670 C   0  0  0  0  0  2  0  0  0  0  0  0
  181.7170  178.8490  140.6930 C   0  0  0  0  0  2  0  0  0  0  0  0
  179.2620  181.5060  140.8150 C   0  0  0  0  0  1  0  0  0  0  0  0
  180.1210  182.6790  136.7090 C   0  0  1  0  0  3  0  0  0  0  0  0
  180.8140  177.5590  138.7720 C   0  0  1  0  0  0  0  0  0  0  0  0
  179.6310  180.8830  138.4420 C   0  0  0  0  0  0  0  0  0  0  0  0
  182.5750  175.2330  139.5970 F   0  0  0  0  0  0  0  0  0  0  0  0
  183.6450  178.2330  135.9540 O   0  0  0  0  0  1  0  0  0  0  0  0
  183.1710  175.4890  138.4060 C   0  0  0  0  0  0  0  0  0  0  0  0
  183.7110  176.9940  136.5780 C   0  0  0  0  0  0  0  0  0  0  0  0
  184.4240  175.9660  135.9530 C   0  0  0  0  0  3  0  0  0  0  0  0
  184.5120  174.7070  136.5480 C   0  0  0  0  0  3  0  0  0  0  0  0
  183.0750  176.7610  137.8160 C   0  0  0  0  0  0  0  0  0  0  0  0
  183.8850  174.4690  137.7720 C   0  0  0  0  0  3  0  0  0  0  0  0
  3  4  1  0  0  0  0
  3 21  1  0  0  0  0
  4 16  1  0  0  0  0
  5  2  1  6  0  0  0
  5 10  1  0  0  0  0
  5 17  1  0  0  0  0
  8  1  1  1  0  0  0
  8 11  1  0  0  0  0
  8 17  1  0  0  0  0
  9 11  1  0  0  0  0
  9 18  1  0  0  0  0
 12  3  2  0  0  0  0
 13  6  1  6  0  0  0
 13 12  1  0  0  0  0
 13 19  1  0  0  0  0
 14 28  1  1  0  0  0
 14 20  1  0  0  0  0
 14  5  1  0  0  0  0
 15 21  1  0  0  0  0
 19  7  1  1  0  0  0
 19 15  1  0  0  0  0
 20 16  1  6  0  0  0
 20  1  1  0  0  0  0
 20  8  1  0  0  0  0
 21  9  2  0  0  0  0
 23 25  1  0  0  0  0
 24 22  1  0  0  0  0
 25 28  2  0  0  0  0
 26 27  2  0  0  0  0
 26 25  1  0  0  0  0
 27 29  1  0  0  0  0
 28 24  1  0  0  0  0
 29 24  2  0  0  0  0
M  END
>  <MODEL>
5

>  <REMARK>
 VINA RESULT:      -4.5      2.496      5.461
  Name = 
  1 active torsions:
  status: ('A' for Active; 'I' for Inactive)
    1  A    between atoms: C_19  and  C_24
                            x       y       z     vdW  Elec       q    Type
                         _______ _______ _______ _____ _____    ______ ____

>  <TORSDO>
F 1

$$$$
=
 OpenBabel11062416323D

 29 33  0  0  1  0  0  0  0  0999 V2000
  181.2020  179.9710  137.3090 C   0  0  0  0  0  2  0  0  0  0  0  0
  183.1320  177.0000  140.0040 C   0  0  0  0  0  1  0  0  0  0  0  0
  179.9300  175.9890  136.7540 C   0  0  0  0  0  0  0  0  0  0  0  0
  179.1860  177.2230  136.3530 C   0  0  0  0  0  2  0  0  0  0  0  0
  182.6210  178.2750  139.3650 C   0  0  2  0  0  0  0  0  0  0  0  0
  178.9310  172.9180  138.3190 O   0  0  0  0  0  1  0  0  0  0  0  0
  181.3910  171.9430  137.1340 C   0  0  0  0  0  1  0  0  0  0  0  0
  181.8780  178.6410  137.0510 C   0  0  1  0  0  0  0  0  0  0  0  0
  182.0860  176.6010  135.6280 C   0  0  0  0  0  0  0  0  0  0  0  0
  183.0990  179.3790  140.0740 O   0  0  0  0  0  1  0  0  0  0  0  0
  181.7790  178.0730  135.6360 C   0  0  0  0  0  2  0  0  0  0  0  0
  179.2960  175.1100  137.5350 C   0  0  0  0  0  3  0  0  0  0  0  0
  179.9290  173.8130  137.9330 C   0  0  2  0  0  3  0  0  0  0  0  0
  181.0910  178.2540  139.3060 C   0  0  2  0  0  3  0  0  0  0  0  0
  181.7970  174.2500  136.3290 C   0  0  0  0  0  2  0  0  0  0  0  0
  179.2380  178.3110  137.4220 C   0  0  0  0  0  2  0  0  0  0  0  0
  183.1000  178.3560  137.9200 C   0  0  0  0  0  2  0  0  0  0  0  0
  183.3950  176.2170  135.0150 C   0  0  0  0  0  1  0  0  0  0  0  0
  180.7210  173.2510  136.7530 C   0  0  1  0  0  3  0  0  0  0  0  0
  180.6390  178.6890  137.9220 C   0  0  1  0  0  0  0  0  0  0  0  0
  181.2790  175.6670  136.1860 C   0  0  0  0  0  0  0  0  0  0  0  0
  180.8140  181.0220  139.6890 F   0  0  0  0  0  0  0  0  0  0  0  0
  179.7690  176.6080  141.3760 O   0  0  0  0  0  1  0  0  0  0  0  0
  180.2300  180.2080  140.6040 C   0  0  0  0  0  0  0  0  0  0  0  0
  179.7080  177.9930  141.4540 C   0  0  0  0  0  0  0  0  0  0  0  0
  179.0160  178.5750  142.5210 C   0  0  0  0  0  3  0  0  0  0  0  0
  178.9310  179.9640  142.6320 C   0  0  0  0  0  3  0  0  0  0  0  0
  180.3230  178.8110  140.4810 C   0  0  0  0  0  0  0  0  0  0  0  0
  179.5370  180.7780  141.6750 C   0  0  0  0  0  3  0  0  0  0  0  0
  3 12  2  0  0  0  0
  4  3  1  0  0  0  0
  4 16  1  0  0  0  0
  5  2  1  1  0  0  0
  5 10  1  0  0  0  0
  8 11  1  6  0  0  0
  8  1  1  0  0  0  0
  8 17  1  0  0  0  0
  8 20  1  0  0  0  0
  9 11  1  0  0  0  0
  9 21  2  0  0  0  0
 12 13  1  0  0  0  0
 13  6  1  6  0  0  0
 14  5  1  0  0  0  0
 14 28  1  1  0  0  0
 15 19  1  0  0  0  0
 16 20  1  0  0  0  0
 17  5  1  0  0  0  0
 18  9  1  0  0  0  0
 19  7  1  1  0  0  0
 19 13  1  0  0  0  0
 20  1  1  1  0  0  0
 20 14  1  0  0  0  0
 21 15  1  0  0  0  0
 21  3  1  0  0  0  0
 22 24  1  0  0  0  0
 23 25  1  0  0  0  0
 24 29  1  0  0  0  0
 25 26  2  0  0  0  0
 26 27  1  0  0  0  0
 28 24  2  0  0  0  0
 28 25  1  0  0  0  0
 29 27  2  0  0  0  0
M  END
>  <MODEL>
6

>  <REMARK>
 VINA RESULT:      -4.4      2.595      4.109
  Name = 
  1 active torsions:
  status: ('A' for Active; 'I' for Inactive)
    1  A    between atoms: C_19  and  C_24
                            x       y       z     vdW  Elec       q    Type
                         _______ _______ _______ _____ _____    ______ ____

>  <TORSDO>
F 1

$$$$
=
 OpenBabel11062416323D

 29 33  0  0  1  0  0  0  0  0999 V2000
  190.8680  176.0630  144.4340 C   0  0  0  0  0  2  0  0  0  0  0  0
  190.0850  180.3000  143.3150 C   0  0  0  0  0  1  0  0  0  0  0  0
  186.7920  177.0660  144.0430 C   0  0  0  0  0  0  0  0  0  0  0  0
  187.3800  175.6940  143.9600 C   0  0  0  0  0  2  0  0  0  0  0  0
  190.7290  178.9510  143.5630 C   0  0  2  0  0  0  0  0  0  0  0  0
  184.3020  178.7920  142.1190 O   0  0  0  0  0  1  0  0  0  0  0  0
  184.1340  180.4390  144.4990 C   0  0  0  0  0  1  0  0  0  0  0  0
  189.9510  177.1210  145.0080 C   0  0  1  0  0  0  0  0  0  0  0  0
  187.8490  177.6760  146.2340 C   0  0  0  0  0  0  0  0  0  0  0  0
  192.0960  179.0270  143.2950 O   0  0  0  0  0  1  0  0  0  0  0  0
  188.9600  176.6750  146.0820 C   0  0  0  0  0  2  0  0  0  0  0  0
  186.0420  177.4820  143.0190 C   0  0  0  0  0  3  0  0  0  0  0  0
  185.3510  178.8100  143.0380 C   0  0  2  0  0  3  0  0  0  0  0  0
  190.0400  177.8790  142.7120 C   0  0  2  0  0  3  0  0  0  0  0  0
  185.9800  179.0850  145.4430 C   0  0  0  0  0  2  0  0  0  0  0  0
  188.6730  175.6590  143.1510 C   0  0  0  0  0  2  0  0  0  0  0  0
  190.5200  178.5370  145.0150 C   0  0  0  0  0  2  0  0  0  0  0  0
  187.8790  178.4890  147.4900 C   0  0  0  0  0  1  0  0  0  0  0  0
  184.8240  179.0880  144.4440 C   0  0  1  0  0  3  0  0  0  0  0  0
  189.7540  176.6630  143.5770 C   0  0  1  0  0  0  0  0  0  0  0  0
  186.9050  177.8940  145.2870 C   0  0  0  0  0  0  0  0  0  0  0  0
  192.6750  177.0000  142.3010 F   0  0  0  0  0  0  0  0  0  0  0  0
  188.4810  178.2290  140.2250 O   0  0  0  0  0  1  0  0  0  0  0  0
  191.9030  177.1810  141.2000 C   0  0  0  0  0  0  0  0  0  0  0  0
  189.8000  177.8010  140.1570 C   0  0  0  0  0  0  0  0  0  0  0  0
  190.3580  177.5460  138.9000 C   0  0  0  0  0  3  0  0  0  0  0  0
  191.6800  177.1120  138.7900 C   0  0  0  0  0  3  0  0  0  0  0  0
  190.5740  177.6180  141.3230 C   0  0  0  0  0  0  0  0  0  0  0  0
  192.4500  176.9300  139.9390 C   0  0  0  0  0  3  0  0  0  0  0  0
  3 21  1  0  0  0  0
  4  3  1  0  0  0  0
  5  2  1  6  0  0  0
  5 17  1  0  0  0  0
  8  1  1  1  0  0  0
  8 17  1  0  0  0  0
  8 11  1  0  0  0  0
  9 18  1  0  0  0  0
 10  5  1  0  0  0  0
 11  9  1  0  0  0  0
 12 13  1  0  0  0  0
 12  3  2  0  0  0  0
 13  6  1  6  0  0  0
 13 19  1  0  0  0  0
 14 28  1  6  0  0  0
 14  5  1  0  0  0  0
 14 20  1  0  0  0  0
 16  4  1  0  0  0  0
 19  7  1  6  0  0  0
 19 15  1  0  0  0  0
 20 16  1  6  0  0  0
 20  1  1  0  0  0  0
 20  8  1  0  0  0  0
 21 15  1  0  0  0  0
 21  9  2  0  0  0  0
 24 28  1  0  0  0  0
 24 22  1  0  0  0  0
 25 23  1  0  0  0  0
 25 28  2  0  0  0  0
 26 25  1  0  0  0  0
 27 26  2  0  0  0  0
 27 29  1  0  0  0  0
 29 24  2  0  0  0  0
M  END
>  <MODEL>
7

>  <REMARK>
 VINA RESULT:      -4.2      6.167      9.887
  Name = 
  1 active torsions:
  status: ('A' for Active; 'I' for Inactive)
    1  A    between atoms: C_19  and  C_24
                            x       y       z     vdW  Elec       q    Type
                         _______ _______ _______ _____ _____    ______ ____

>  <TORSDO>
F 1

$$$$
=
 OpenBabel11062416323D

 29 33  0  0  1  0  0  0  0  0999 V2000
  180.5080  178.7240  139.0750 C   0  0  0  0  0  2  0  0  0  0  0  0
  184.8600  179.2020  138.2700 C   0  0  0  0  0  1  0  0  0  0  0  0
  182.4740  175.2100  137.8210 C   0  0  0  0  0  0  0  0  0  0  0  0
  181.1840  175.2850  138.5750 C   0  0  0  0  0  2  0  0  0  0  0  0
  183.4330  179.3960  138.7410 C   0  0  2  0  0  0  0  0  0  0  0  0
  185.3820  173.1310  138.1300 O   0  0  0  0  0  1  0  0  0  0  0  0
  185.8060  173.9490  135.3810 C   0  0  0  0  0  1  0  0  0  0  0  0
  181.3830  178.3280  137.9050 C   0  0  1  0  0  0  0  0  0  0  0  0
  181.8020  176.7850  135.9880 C   0  0  0  0  0  0  0  0  0  0  0  0
  183.3080  180.6390  139.3610 O   0  0  0  0  0  1  0  0  0  0  0  0
  180.7470  177.4550  136.8240 C   0  0  0  0  0  2  0  0  0  0  0  0
  183.4550  174.4690  138.3430 C   0  0  0  0  0  3  0  0  0  0  0  0
  184.7570  174.2740  137.6310 C   0  0  2  0  0  3  0  0  0  0  0  0
  183.0320  178.2500  139.6750 C   0  0  2  0  0  3  0  0  0  0  0  0
  183.7970  175.3790  135.6040 C   0  0  0  0  0  2  0  0  0  0  0  0
  181.2180  176.3260  139.6900 C   0  0  0  0  0  2  0  0  0  0  0  0
  182.4830  179.3260  137.5510 C   0  0  0  0  0  2  0  0  0  0  0  0
  181.9490  177.3080  134.5940 C   0  0  0  0  0  1  0  0  0  0  0  0
  184.5000  174.1300  136.1320 C   0  0  1  0  0  3  0  0  0  0  0  0
  181.6590  177.7370  139.2730 C   0  0  1  0  0  0  0  0  0  0  0  0
  182.6210  175.8130  136.4570 C   0  0  0  0  0  0  0  0  0  0  0  0
  185.5630  177.7270  140.7710 F   0  0  0  0  0  0  0  0  0  0  0  0
  181.0100  179.1090  141.6540 O   0  0  0  0  0  1  0  0  0  0  0  0
  184.5880  178.1260  141.6250 C   0  0  0  0  0  0  0  0  0  0  0  0
  182.3020  178.8170  142.0700 C   0  0  0  0  0  0  0  0  0  0  0  0
  182.6120  178.9380  143.4290 C   0  0  0  0  0  3  0  0  0  0  0  0
  183.9000  178.6560  143.8860 C   0  0  0  0  0  3  0  0  0  0  0  0
  183.2950  178.4080  141.1530 C   0  0  0  0  0  0  0  0  0  0  0  0
  184.8860  178.2510  142.9850 C   0  0  0  0  0  3  0  0  0  0  0  0
  3 12  2  0  0  0  0
  3  4  1  0  0  0  0
  4 16  1  0  0  0  0
  5  2  1  6  0  0  0
  5 10  1  0  0  0  0
  5 14  1  0  0  0  0
  8 11  1  6  0  0  0
  8  1  1  0  0  0  0
  8 20  1  0  0  0  0
  9 21  2  0  0  0  0
  9 11  1  0  0  0  0
 13  6  1  1  0  0  0
 13 12  1  0  0  0  0
 14 28  1  1  0  0  0
 15 19  1  0  0  0  0
 15 21  1  0  0  0  0
 17  8  1  0  0  0  0
 17  5  1  0  0  0  0
 18  9  1  0  0  0  0
 19  7  1  6  0  0  0
 19 13  1  0  0  0  0
 20  1  1  1  0  0  0
 20 14  1  0  0  0  0
 20 16  1  0  0  0  0
 21  3  1  0  0  0  0
 22 24  1  0  0  0  0
 23 25  1  0  0  0  0
 24 29  1  0  0  0  0
 25 26  2  0  0  0  0
 26 27  1  0  0  0  0
 28 24  2  0  0  0  0
 28 25  1  0  0  0  0
 29 27  2  0  0  0  0
M  END
>  <MODEL>
8

>  <REMARK>
 VINA RESULT:      -4.1      1.950      2.379
  Name = 
  1 active torsions:
  status: ('A' for Active; 'I' for Inactive)
    1  A    between atoms: C_19  and  C_24
                            x       y       z     vdW  Elec       q    Type
                         _______ _______ _______ _____ _____    ______ ____

>  <TORSDO>
F 1

$$$$
=
 OpenBabel11062416323D

 29 33  0  0  1  0  0  0  0  0999 V2000
  189.4640  177.3100  134.9160 C   0  0  0  0  0  2  0  0  0  0  0  0
  188.0870  174.2240  137.8130 C   0  0  0  0  0  1  0  0  0  0  0  0
  186.2040  178.4730  137.3240 C   0  0  0  0  0  0  0  0  0  0  0  0
  187.1510  179.3850  136.6120 C   0  0  0  0  0  2  0  0  0  0  0  0
  188.8890  175.0350  136.8160 C   0  0  2  0  0  0  0  0  0  0  0  0
  184.7690  178.5030  140.6130 O   0  0  0  0  0  1  0  0  0  0  0  0
  182.8030  176.7720  139.3710 C   0  0  0  0  0  1  0  0  0  0  0  0
  188.0970  176.7460  135.2380 C   0  0  1  0  0  0  0  0  0  0  0  0
  185.6240  177.0760  135.3220 C   0  0  0  0  0  0  0  0  0  0  0  0
  190.0650  174.3560  136.4970 O   0  0  0  0  0  1  0  0  0  0  0  0
  186.8920  177.4290  134.5940 C   0  0  0  0  0  2  0  0  0  0  0  0
  186.0480  178.6450  138.6390 C   0  0  0  0  0  3  0  0  0  0  0  0
  185.0710  177.8310  139.4290 C   0  0  2  0  0  3  0  0  0  0  0  0
  189.1720  176.4300  137.3840 C   0  0  2  0  0  3  0  0  0  0  0  0
  184.1540  176.8940  137.2990 C   0  0  0  0  0  2  0  0  0  0  0  0
  188.6020  178.9260  136.7250 C   0  0  0  0  0  2  0  0  0  0  0  0
  188.0700  175.2510  135.5490 C   0  0  0  0  0  2  0  0  0  0  0  0
  184.6970  176.1550  134.5950 C   0  0  0  0  0  1  0  0  0  0  0  0
  183.8060  177.6130  138.6010 C   0  0  1  0  0  3  0  0  0  0  0  0
  188.8760  177.4710  136.3180 C   0  0  1  0  0  0  0  0  0  0  0  0
  185.3420  177.4990  136.5780 C   0  0  0  0  0  0  0  0  0  0  0  0
  191.7200  176.1340  136.2410 F   0  0  0  0  0  0  0  0  0  0  0  0
  189.2080  177.1400  140.2530 O   0  0  0  0  0  1  0  0  0  0  0  0
  191.6640  176.4600  137.5570 C   0  0  0  0  0  0  0  0  0  0  0  0
  190.4050  176.9630  139.5720 C   0  0  0  0  0  0  0  0  0  0  0  0
  191.6050  177.1260  140.2710 C   0  0  0  0  0  3  0  0  0  0  0  0
  192.8280  176.9580  139.6210 C   0  0  0  0  0  3  0  0  0  0  0  0
  190.4260  176.6270  138.2000 C   0  0  0  0  0  0  0  0  0  0  0  0
  192.8570  176.6260  138.2650 C   0  0  0  0  0  3  0  0  0  0  0  0
  1  8  1  0  0  0  0
  3 12  2  0  0  0  0
  4 16  1  0  0  0  0
  4  3  1  0  0  0  0
  5 14  1  0  0  0  0
  5  2  1  1  0  0  0
  8 11  1  6  0  0  0
  8 17  1  0  0  0  0
  8 20  1  0  0  0  0
  9 21  2  0  0  0  0
 10  5  1  0  0  0  0
 11  9  1  0  0  0  0
 12 13  1  0  0  0  0
 13  6  1  1  0  0  0
 14 28  1  6  0  0  0
 15 19  1  0  0  0  0
 17  5  1  0  0  0  0
 18  9  1  0  0  0  0
 19  7  1  1  0  0  0
 19 13  1  0  0  0  0
 20  1  1  6  0  0  0
 20 16  1  0  0  0  0
 20 14  1  0  0  0  0
 21 15  1  0  0  0  0
 21  3  1  0  0  0  0
 22 24  1  0  0  0  0
 24 28  2  0  0  0  0
 24 29  1  0  0  0  0
 25 23  1  0  0  0  0
 25 26  2  0  0  0  0
 27 26  1  0  0  0  0
 28 25  1  0  0  0  0
 29 27  2  0  0  0  0
M  END
>  <MODEL>
9

>  <REMARK>
 VINA RESULT:      -4.1      4.721      7.990
  Name = 
  1 active torsions:
  status: ('A' for Active; 'I' for Inactive)
    1  A    between atoms: C_19  and  C_24
                            x       y       z     vdW  Elec       q    Type
                         _______ _______ _______ _____ _____    ______ ____

>  <TORSDO>
F 1

$$$$
