=
 OpenBabel11062415023D

 31 34  0  0  1  0  0  0  0  0999 V2000
  188.7800  178.0540  139.6750 C   0  0  0  0  0  0  0  0  0  0  0  0
  188.7850  177.1500  141.9570 C   0  0  0  0  0  2  0  0  0  0  0  0
  187.4320  177.7850  142.1640 C   0  0  0  0  0  0  0  0  0  0  0  0
  184.8640  179.6840  140.2400 N   0  0  0  0  0  1  0  0  0  0  0  0
  186.8000  178.4530  141.1070 C   0  0  0  0  0  0  0  0  0  0  0  0
  185.5240  179.0000  141.3000 C   0  0  0  0  0  0  0  0  0  0  0  0
  184.9110  178.8800  142.5060 N   0  0  0  0  0  0  0  0  0  0  0  0
  186.7780  177.6700  143.4010 C   0  0  0  0  0  0  0  0  0  0  0  0
  189.3800  177.4330  140.6450 N   0  0  0  0  0  0  0  0  0  0  0  0
  185.5030  178.2360  143.5470 C   0  0  0  0  0  3  0  0  0  0  0  0
  187.4650  178.5790  139.8510 N   0  0  0  0  0  2  0  0  0  0  0  0
  189.4930  178.2710  138.3880 C   0  0  0  0  0  2  0  0  0  0  0  0
  189.8990  176.4130  136.6740 C   0  0  2  0  0  3  0  0  0  0  0  0
  188.9220  177.3510  137.3120 C   0  0  1  0  0  3  0  0  0  0  0  0
  189.0560  176.0140  137.7300 O   0  0  0  0  0  0  0  0  0  0  0  0
  191.3350  176.5050  137.1850 C   0  0  0  0  0  2  0  0  0  0  0  0
  191.7320  175.2200  137.8890 C   0  0  0  0  0  2  0  0  0  0  0  0
  192.8900  174.5530  137.1680 C   0  0  0  0  0  2  0  0  0  0  0  0
  194.6930  176.1030  136.4290 O   0  0  0  0  0  0  0  0  0  0  0  0
  194.1470  175.3040  137.4240 C   0  0  0  0  0  0  0  0  0  0  0  0
  194.7010  175.2390  138.5520 O   0  0  0  0  0  1  0  0  0  0  0  0
  187.4080  176.9750  144.4890 N   0  0  0  0  0  2  0  0  0  0  0  0
  189.2320  176.9590  146.0670 N   0  0  0  0  0  0  0  0  0  0  0  0
  189.5670  177.0980  147.4960 C   0  0  0  0  0  2  0  0  0  0  0  0
  187.4580  178.3540  148.0440 C   0  0  0  0  0  2  0  0  0  0  0  0
  188.9850  178.3660  148.1220 C   0  0  0  0  0  2  0  0  0  0  0  0
  186.9300  177.6030  146.8190 C   0  0  0  0  0  2  0  0  0  0  0  0
  187.9610  177.6060  145.6850 C   0  0  2  0  0  3  0  0  0  0  0  0
  190.2940  177.6030  145.3050 C   0  0  0  0  0  2  0  0  0  0  0  0
  191.5350  176.7270  145.2920 C   0  0  0  0  0  2  0  0  0  0  0  0
  191.6410  175.9880  143.9710 C   0  0  0  0  0  1  0  0  0  0  0  0
  1 11  1  0  0  0  0
  1  9  2  0  0  0  0
  2  3  1  0  0  0  0
  3  8  1  0  0  0  0
  4  6  1  0  0  0  0
  5  6  1  0  0  0  0
  5  3  2  0  0  0  0
  6  7  2  0  0  0  0
  7 10  1  0  0  0  0
  8 10  2  0  0  0  0
  8 22  1  0  0  0  0
  9  2  1  0  0  0  0
 11  5  1  0  0  0  0
 12  1  1  0  0  0  0
 13 16  1  1  0  0  0
 13 14  1  0  0  0  0
 13 15  1  0  0  0  0
 14 15  1  0  0  0  0
 14 12  1  1  0  0  0
 16 17  1  0  0  0  0
 18 20  1  0  0  0  0
 18 17  1  0  0  0  0
 19 20  2  0  0  0  0
 20 21  1  0  0  0  0
 23 24  1  0  0  0  0
 24 26  1  0  0  0  0
 25 26  1  0  0  0  0
 27 25  1  0  0  0  0
 28 22  1  6  0  0  0
 28 23  1  0  0  0  0
 28 27  1  0  0  0  0
 29 23  1  0  0  0  0
 30 29  1  0  0  0  0
 31 30  1  0  0  0  0
M  END
>  <MODEL>
1

>  <REMARK>
 VINA RESULT:      -8.1      0.000      0.000
  Name = 
  10 active torsions:
  status: ('A' for Active; 'I' for Inactive)
    1  A    between atoms: C_1  and  C_18
    2  A    between atoms: C_2  and  C_10
    3  A    between atoms: C_3  and  C_21
    4  A    between atoms: C_3  and  C_26
    5  A    between atoms: C_6  and  C_26
    6  A    between atoms: C_10  and  N_15
    7  A    between atoms: C_11  and  C_18
    8  A    between atoms: C_16  and  C_21
    9  A    between atoms: C_22  and  N_31
   10  A    between atoms: C_28  and  N_31
                            x       y       z     vdW  Elec       q    Type
                         _______ _______ _______ _____ _____    ______ ____

>  <TORSDO>
F 10

$$$$
=
 OpenBabel11062415023D

 31 34  0  0  1  0  0  0  0  0999 V2000
  188.8550  177.9000  139.9980 C   0  0  0  0  0  0  0  0  0  0  0  0
  188.6990  177.0530  142.2970 C   0  0  0  0  0  2  0  0  0  0  0  0
  187.3650  177.7490  142.4150 C   0  0  0  0  0  0  0  0  0  0  0  0
  184.9870  179.7060  140.3120 N   0  0  0  0  0  1  0  0  0  0  0  0
  186.8190  178.4170  141.3110 C   0  0  0  0  0  0  0  0  0  0  0  0
  185.5600  179.0210  141.4210 C   0  0  0  0  0  0  0  0  0  0  0  0
  184.8790  178.9560  142.5950 N   0  0  0  0  0  0  0  0  0  0  0  0
  186.6410  177.6920  143.6170 C   0  0  0  0  0  0  0  0  0  0  0  0
  189.3750  177.2790  141.0130 N   0  0  0  0  0  0  0  0  0  0  0  0
  185.3860  178.3140  143.6800 C   0  0  0  0  0  3  0  0  0  0  0  0
  187.5560  178.4840  140.0900 N   0  0  0  0  0  2  0  0  0  0  0  0
  189.6440  178.0560  138.7470 C   0  0  0  0  0  2  0  0  0  0  0  0
  189.6910  176.5190  136.7000 C   0  0  2  0  0  3  0  0  0  0  0  0
  189.9720  176.6860  138.1610 C   0  0  1  0  0  3  0  0  0  0  0  0
  190.9760  176.8290  137.1860 O   0  0  0  0  0  0  0  0  0  0  0  0
  189.1120  177.7430  135.9940 C   0  0  0  0  0  2  0  0  0  0  0  0
  187.6790  177.4800  135.5660 C   0  0  0  0  0  2  0  0  0  0  0  0
  186.7060  178.0600  136.5770 C   0  0  0  0  0  2  0  0  0  0  0  0
  184.6640  177.2520  137.7510 O   0  0  0  0  0  1  0  0  0  0  0  0
  185.9000  176.9690  137.1880 C   0  0  0  0  0  0  0  0  0  0  0  0
  186.3260  175.7850  137.1690 O   0  0  0  0  0  0  0  0  0  0  0  0
  187.1810  176.9990  144.7530 N   0  0  0  0  0  2  0  0  0  0  0  0
  189.1660  176.9760  146.1230 N   0  0  0  0  0  0  0  0  0  0  0  0
  189.6550  177.1170  147.5070 C   0  0  0  0  0  2  0  0  0  0  0  0
  187.6250  178.3870  148.2760 C   0  0  0  0  0  2  0  0  0  0  0  0
  189.1510  178.3910  148.1880 C   0  0  0  0  0  2  0  0  0  0  0  0
  186.9630  177.6360  147.1190 C   0  0  0  0  0  2  0  0  0  0  0  0
  187.8650  177.6290  145.8790 C   0  0  2  0  0  3  0  0  0  0  0  0
  190.1430  177.6120  145.2490 C   0  0  0  0  0  2  0  0  0  0  0  0
  191.4760  176.8880  145.3380 C   0  0  0  0  0  2  0  0  0  0  0  0
  191.6480  175.9570  144.1530 C   0  0  0  0  0  1  0  0  0  0  0  0
  1 11  1  0  0  0  0
  1  9  2  0  0  0  0
  2  3  1  0  0  0  0
  3  8  1  0  0  0  0
  4  6  1  0  0  0  0
  5  6  1  0  0  0  0
  5  3  2  0  0  0  0
  6  7  2  0  0  0  0
  7 10  1  0  0  0  0
  8 10  2  0  0  0  0
  8 22  1  0  0  0  0
  9  2  1  0  0  0  0
 11  5  1  0  0  0  0
 12  1  1  0  0  0  0
 13 16  1  6  0  0  0
 13 15  1  0  0  0  0
 13 14  1  0  0  0  0
 14 12  1  6  0  0  0
 15 14  1  0  0  0  0
 17 16  1  0  0  0  0
 17 18  1  0  0  0  0
 18 20  1  0  0  0  0
 20 19  1  0  0  0  0
 21 20  2  0  0  0  0
 23 24  1  0  0  0  0
 24 26  1  0  0  0  0
 26 25  1  0  0  0  0
 27 25  1  0  0  0  0
 28 22  1  6  0  0  0
 28 23  1  0  0  0  0
 28 27  1  0  0  0  0
 29 30  1  0  0  0  0
 29 23  1  0  0  0  0
 31 30  1  0  0  0  0
M  END
>  <MODEL>
2

>  <REMARK>
 VINA RESULT:      -7.9      1.637      3.316
  Name = 
  10 active torsions:
  status: ('A' for Active; 'I' for Inactive)
    1  A    between atoms: C_1  and  C_18
    2  A    between atoms: C_2  and  C_10
    3  A    between atoms: C_3  and  C_21
    4  A    between atoms: C_3  and  C_26
    5  A    between atoms: C_6  and  C_26
    6  A    between atoms: C_10  and  N_15
    7  A    between atoms: C_11  and  C_18
    8  A    between atoms: C_16  and  C_21
    9  A    between atoms: C_22  and  N_31
   10  A    between atoms: C_28  and  N_31
                            x       y       z     vdW  Elec       q    Type
                         _______ _______ _______ _____ _____    ______ ____

>  <TORSDO>
F 10

$$$$
=
 OpenBabel11062415023D

 31 34  0  0  1  0  0  0  0  0999 V2000
  184.7600  178.9750  140.3920 C   0  0  0  0  0  0  0  0  0  0  0  0
  185.3140  178.0320  142.5890 C   0  0  0  0  0  2  0  0  0  0  0  0
  186.7470  177.9210  142.1310 C   0  0  0  0  0  0  0  0  0  0  0  0
  188.8650  178.8140  139.1940 N   0  0  0  0  0  1  0  0  0  0  0  0
  187.1220  178.4020  140.8690 C   0  0  0  0  0  0  0  0  0  0  0  0
  188.4640  178.3330  140.4730 C   0  0  0  0  0  0  0  0  0  0  0  0
  189.3900  177.8020  141.3120 N   0  0  0  0  0  0  0  0  0  0  0  0
  187.7230  177.3800  142.9830 C   0  0  0  0  0  0  0  0  0  0  0  0
  184.3970  178.5330  141.5580 N   0  0  0  0  0  0  0  0  0  0  0  0
  189.0530  177.3300  142.5410 C   0  0  0  0  0  3  0  0  0  0  0  0
  186.1310  178.9450  139.9970 N   0  0  0  0  0  2  0  0  0  0  0  0
  183.7300  179.4640  139.4360 C   0  0  0  0  0  2  0  0  0  0  0  0
  181.2110  179.8920  139.2790 C   0  0  2  0  0  3  0  0  0  0  0  0
  182.3340  179.2110  139.9980 C   0  0  1  0  0  3  0  0  0  0  0  0
  181.5590  178.5500  139.0270 O   0  0  0  0  0  0  0  0  0  0  0  0
  181.6160  180.7480  138.0800 C   0  0  0  0  0  2  0  0  0  0  0  0
  181.2400  182.2000  138.3150 C   0  0  0  0  0  2  0  0  0  0  0  0
  180.8510  182.8680  137.0070 C   0  0  0  0  0  2  0  0  0  0  0  0
  180.4510  185.2650  136.4650 O   0  0  0  0  0  0  0  0  0  0  0  0
  181.2710  184.2940  137.0220 C   0  0  0  0  0  0  0  0  0  0  0  0
  182.3570  184.6260  137.5650 O   0  0  0  0  0  1  0  0  0  0  0  0
  187.3570  176.8960  144.2850 N   0  0  0  0  0  2  0  0  0  0  0  0
  188.4070  176.9520  146.4550 N   0  0  0  0  0  0  0  0  0  0  0  0
  188.1800  177.2730  147.8760 C   0  0  0  0  0  2  0  0  0  0  0  0
  186.2280  178.7840  147.3990 C   0  0  0  0  0  2  0  0  0  0  0  0
  187.5910  178.6690  148.0820 C   0  0  0  0  0  2  0  0  0  0  0  0
  186.1120  177.9090  146.1490 C   0  0  0  0  0  2  0  0  0  0  0  0
  187.4900  177.6470  145.5310 C   0  0  2  0  0  3  0  0  0  0  0  0
  189.7620  177.3740  146.1230 C   0  0  0  0  0  2  0  0  0  0  0  0
  190.7350  176.8990  147.1890 C   0  0  0  0  0  2  0  0  0  0  0  0
  191.8850  176.1430  146.5500 C   0  0  0  0  0  1  0  0  0  0  0  0
  1  9  2  0  0  0  0
  3  2  1  0  0  0  0
  3  8  1  0  0  0  0
  4  6  1  0  0  0  0
  5  3  2  0  0  0  0
  6  5  1  0  0  0  0
  6  7  2  0  0  0  0
  7 10  1  0  0  0  0
  8 22  1  0  0  0  0
  9  2  1  0  0  0  0
 10  8  2  0  0  0  0
 11  1  1  0  0  0  0
 11  5  1  0  0  0  0
 12  1  1  0  0  0  0
 13 16  1  6  0  0  0
 13 14  1  0  0  0  0
 14 12  1  6  0  0  0
 15 13  1  0  0  0  0
 15 14  1  0  0  0  0
 16 17  1  0  0  0  0
 18 20  1  0  0  0  0
 18 17  1  0  0  0  0
 19 20  2  0  0  0  0
 20 21  1  0  0  0  0
 23 24  1  0  0  0  0
 24 26  1  0  0  0  0
 25 26  1  0  0  0  0
 27 25  1  0  0  0  0
 28 22  1  6  0  0  0
 28 27  1  0  0  0  0
 28 23  1  0  0  0  0
 29 23  1  0  0  0  0
 29 30  1  0  0  0  0
 31 30  1  0  0  0  0
M  END
>  <MODEL>
3

>  <REMARK>
 VINA RESULT:      -7.9      4.552      7.310
  Name = 
  10 active torsions:
  status: ('A' for Active; 'I' for Inactive)
    1  A    between atoms: C_1  and  C_18
    2  A    between atoms: C_2  and  C_10
    3  A    between atoms: C_3  and  C_21
    4  A    between atoms: C_3  and  C_26
    5  A    between atoms: C_6  and  C_26
    6  A    between atoms: C_10  and  N_15
    7  A    between atoms: C_11  and  C_18
    8  A    between atoms: C_16  and  C_21
    9  A    between atoms: C_22  and  N_31
   10  A    between atoms: C_28  and  N_31
                            x       y       z     vdW  Elec       q    Type
                         _______ _______ _______ _____ _____    ______ ____

>  <TORSDO>
F 10

$$$$
=
 OpenBabel11062415023D

 31 34  0  0  1  0  0  0  0  0999 V2000
  184.6410  179.0750  140.3450 C   0  0  0  0  0  0  0  0  0  0  0  0
  185.1930  178.1250  142.5400 C   0  0  0  0  0  2  0  0  0  0  0  0
  186.6230  177.9970  142.0750 C   0  0  0  0  0  0  0  0  0  0  0  0
  188.7400  178.8680  139.1310 N   0  0  0  0  0  1  0  0  0  0  0  0
  186.9980  178.4740  140.8120 C   0  0  0  0  0  0  0  0  0  0  0  0
  188.3370  178.3910  140.4110 C   0  0  0  0  0  0  0  0  0  0  0  0
  189.2610  177.8470  141.2460 N   0  0  0  0  0  0  0  0  0  0  0  0
  187.5960  177.4440  142.9230 C   0  0  0  0  0  0  0  0  0  0  0  0
  184.2780  178.6360  141.5120 N   0  0  0  0  0  0  0  0  0  0  0  0
  188.9230  177.3790  142.4760 C   0  0  0  0  0  3  0  0  0  0  0  0
  186.0100  179.0300  139.9440 N   0  0  0  0  0  2  0  0  0  0  0  0
  183.6130  179.5770  139.3930 C   0  0  0  0  0  2  0  0  0  0  0  0
  181.5210  178.1490  139.0240 C   0  0  2  0  0  3  0  0  0  0  0  0
  182.9530  178.4050  138.6720 C   0  0  1  0  0  3  0  0  0  0  0  0
  181.8920  178.8870  137.8840 O   0  0  0  0  0  0  0  0  0  0  0  0
  180.9140  179.0940  140.0590 C   0  0  0  0  0  2  0  0  0  0  0  0
  180.2330  178.3060  141.1640 C   0  0  0  0  0  2  0  0  0  0  0  0
  179.9320  179.2040  142.3510 C   0  0  0  0  0  2  0  0  0  0  0  0
  181.7330  178.7330  144.0050 O   0  0  0  0  0  0  0  0  0  0  0  0
  180.4150  178.5660  143.6040 C   0  0  0  0  0  0  0  0  0  0  0  0
  179.6210  177.8990  144.3180 O   0  0  0  0  0  1  0  0  0  0  0  0
  187.2290  176.9640  144.2260 N   0  0  0  0  0  2  0  0  0  0  0  0
  188.3130  176.9690  146.3810 N   0  0  0  0  0  0  0  0  0  0  0  0
  188.1170  177.2860  147.8080 C   0  0  0  0  0  2  0  0  0  0  0  0
  186.2060  178.8620  147.3710 C   0  0  0  0  0  2  0  0  0  0  0  0
  187.5750  178.6980  148.0330 C   0  0  0  0  0  2  0  0  0  0  0  0
  186.0440  178.0000  146.1160 C   0  0  0  0  0  2  0  0  0  0  0  0
  187.4040  177.7000  145.4760 C   0  0  2  0  0  3  0  0  0  0  0  0
  189.6750  177.3510  146.0320 C   0  0  0  0  0  2  0  0  0  0  0  0
  190.6540  176.7890  147.0490 C   0  0  0  0  0  2  0  0  0  0  0  0
  191.9000  176.2780  146.3500 C   0  0  0  0  0  1  0  0  0  0  0  0
  1  9  2  0  0  0  0
  3  2  1  0  0  0  0
  3  8  1  0  0  0  0
  4  6  1  0  0  0  0
  5  3  2  0  0  0  0
  6  5  1  0  0  0  0
  6  7  2  0  0  0  0
  7 10  1  0  0  0  0
  8 22  1  0  0  0  0
  9  2  1  0  0  0  0
 10  8  2  0  0  0  0
 11  1  1  0  0  0  0
 11  5  1  0  0  0  0
 12  1  1  0  0  0  0
 13 16  1  1  0  0  0
 14 13  1  0  0  0  0
 14 12  1  1  0  0  0
 15 14  1  0  0  0  0
 15 13  1  0  0  0  0
 16 17  1  0  0  0  0
 17 18  1  0  0  0  0
 18 20  1  0  0  0  0
 20 19  2  0  0  0  0
 20 21  1  0  0  0  0
 23 24  1  0  0  0  0
 24 26  1  0  0  0  0
 25 26  1  0  0  0  0
 27 25  1  0  0  0  0
 28 22  1  6  0  0  0
 28 27  1  0  0  0  0
 28 23  1  0  0  0  0
 29 23  1  0  0  0  0
 29 30  1  0  0  0  0
 31 30  1  0  0  0  0
M  END
>  <MODEL>
4

>  <REMARK>
 VINA RESULT:      -7.7      4.485      7.163
  Name = 
  10 active torsions:
  status: ('A' for Active; 'I' for Inactive)
    1  A    between atoms: C_1  and  C_18
    2  A    between atoms: C_2  and  C_10
    3  A    between atoms: C_3  and  C_21
    4  A    between atoms: C_3  and  C_26
    5  A    between atoms: C_6  and  C_26
    6  A    between atoms: C_10  and  N_15
    7  A    between atoms: C_11  and  C_18
    8  A    between atoms: C_16  and  C_21
    9  A    between atoms: C_22  and  N_31
   10  A    between atoms: C_28  and  N_31
                            x       y       z     vdW  Elec       q    Type
                         _______ _______ _______ _____ _____    ______ ____

>  <TORSDO>
F 10

$$$$
=
 OpenBabel11062415023D

 31 34  0  0  1  0  0  0  0  0999 V2000
  187.8820  177.2510  142.9170 C   0  0  0  0  0  0  0  0  0  0  0  0
  185.7670  178.3850  142.4020 C   0  0  0  0  0  2  0  0  0  0  0  0
  185.4700  178.4070  143.8820 C   0  0  0  0  0  0  0  0  0  0  0  0
  187.0900  177.4960  147.1160 N   0  0  0  0  0  1  0  0  0  0  0  0
  186.4140  177.9200  144.7960 C   0  0  0  0  0  0  0  0  0  0  0  0
  186.1450  177.9870  146.1700 C   0  0  0  0  0  0  0  0  0  0  0  0
  184.9740  178.5210  146.6040 N   0  0  0  0  0  0  0  0  0  0  0  0
  184.2690  178.9590  144.3550 C   0  0  0  0  0  0  0  0  0  0  0  0
  187.0170  177.6970  142.0570 N   0  0  0  0  0  0  0  0  0  0  0  0
  184.0430  179.0010  145.7380 C   0  0  0  0  0  3  0  0  0  0  0  0
  187.6330  177.3510  144.3190 N   0  0  0  0  0  2  0  0  0  0  0  0
  189.1180  176.5760  142.4370 C   0  0  0  0  0  2  0  0  0  0  0  0
  191.3860  177.7610  142.4880 C   0  0  2  0  0  3  0  0  0  0  0  0
  190.0620  177.5970  141.8100 C   0  0  1  0  0  3  0  0  0  0  0  0
  191.2200  176.9390  141.3570 O   0  0  0  0  0  0  0  0  0  0  0  0
  191.6120  176.8840  143.7180 C   0  0  0  0  0  2  0  0  0  0  0  0
  191.5120  177.7120  144.9860 C   0  0  0  0  0  2  0  0  0  0  0  0
  190.7790  176.9410  146.0700 C   0  0  0  0  0  2  0  0  0  0  0  0
  192.3700  175.1600  146.7740 O   0  0  0  0  0  0  0  0  0  0  0  0
  191.7560  176.3750  147.0380 C   0  0  0  0  0  0  0  0  0  0  0  0
  192.0480  177.0130  148.0830 O   0  0  0  0  0  1  0  0  0  0  0  0
  183.2990  179.4750  143.4310 N   0  0  0  0  0  2  0  0  0  0  0  0
  181.7480  179.2310  141.6000 N   0  0  0  0  0  0  0  0  0  0  0  0
  180.3270  179.0120  141.2680 C   0  0  0  0  0  2  0  0  0  0  0  0
  179.7850  177.9970  143.5040 C   0  0  0  0  0  2  0  0  0  0  0  0
  179.7290  177.8030  141.9880 C   0  0  0  0  0  2  0  0  0  0  0  0
  180.9810  178.8400  143.9540 C   0  0  0  0  0  2  0  0  0  0  0  0
  182.1290  178.7490  142.9420 C   0  0  2  0  0  3  0  0  0  0  0  0
  182.5420  178.4900  140.6300 C   0  0  0  0  0  2  0  0  0  0  0  0
  182.9350  179.3940  139.4730 C   0  0  0  0  0  2  0  0  0  0  0  0
  184.3720  179.1310  139.0660 C   0  0  0  0  0  1  0  0  0  0  0  0
  1 11  1  0  0  0  0
  2  3  1  0  0  0  0
  3  8  2  0  0  0  0
  3  5  1  0  0  0  0
  5  6  2  0  0  0  0
  6  7  1  0  0  0  0
  6  4  1  0  0  0  0
  8 10  1  0  0  0  0
  9  2  1  0  0  0  0
  9  1  2  0  0  0  0
 10  7  2  0  0  0  0
 11  5  1  0  0  0  0
 12  1  1  0  0  0  0
 13 16  1  1  0  0  0
 14 12  1  1  0  0  0
 14 13  1  0  0  0  0
 15 14  1  0  0  0  0
 15 13  1  0  0  0  0
 16 17  1  0  0  0  0
 17 18  1  0  0  0  0
 18 20  1  0  0  0  0
 19 20  2  0  0  0  0
 20 21  1  0  0  0  0
 22  8  1  0  0  0  0
 23 28  1  0  0  0  0
 24 23  1  0  0  0  0
 24 26  1  0  0  0  0
 25 27  1  0  0  0  0
 26 25  1  0  0  0  0
 28 22  1  1  0  0  0
 28 27  1  0  0  0  0
 29 23  1  0  0  0  0
 30 29  1  0  0  0  0
 31 30  1  0  0  0  0
M  END
>  <MODEL>
5

>  <REMARK>
 VINA RESULT:      -7.5      3.668      7.179
  Name = 
  10 active torsions:
  status: ('A' for Active; 'I' for Inactive)
    1  A    between atoms: C_1  and  C_18
    2  A    between atoms: C_2  and  C_10
    3  A    between atoms: C_3  and  C_21
    4  A    between atoms: C_3  and  C_26
    5  A    between atoms: C_6  and  C_26
    6  A    between atoms: C_10  and  N_15
    7  A    between atoms: C_11  and  C_18
    8  A    between atoms: C_16  and  C_21
    9  A    between atoms: C_22  and  N_31
   10  A    between atoms: C_28  and  N_31
                            x       y       z     vdW  Elec       q    Type
                         _______ _______ _______ _____ _____    ______ ____

>  <TORSDO>
F 10

$$$$
=
 OpenBabel11062415023D

 31 34  0  0  1  0  0  0  0  0999 V2000
  188.4270  177.4710  144.6670 C   0  0  0  0  0  0  0  0  0  0  0  0
  186.7320  177.4000  142.8950 C   0  0  0  0  0  2  0  0  0  0  0  0
  185.7520  178.0080  143.8690 C   0  0  0  0  0  0  0  0  0  0  0  0
  185.6730  179.3600  147.3440 N   0  0  0  0  0  1  0  0  0  0  0  0
  186.1740  178.3760  145.1530 C   0  0  0  0  0  0  0  0  0  0  0  0
  185.2660  178.9790  146.0330 C   0  0  0  0  0  0  0  0  0  0  0  0
  183.9860  179.2020  145.6360 N   0  0  0  0  0  0  0  0  0  0  0  0
  184.4250  178.2510  143.4790 C   0  0  0  0  0  0  0  0  0  0  0  0
  188.0520  177.1230  143.4740 N   0  0  0  0  0  0  0  0  0  0  0  0
  183.5520  178.8550  144.3960 C   0  0  0  0  0  3  0  0  0  0  0  0
  187.5190  178.1220  145.5560 N   0  0  0  0  0  2  0  0  0  0  0  0
  189.8000  177.1360  145.1350 C   0  0  0  0  0  2  0  0  0  0  0  0
  191.7020  178.3390  143.9150 C   0  0  2  0  0  3  0  0  0  0  0  0
  190.7020  178.3620  145.0290 C   0  0  1  0  0  3  0  0  0  0  0  0
  190.4660  179.0040  143.8000 O   0  0  0  0  0  0  0  0  0  0  0  0
  191.6840  177.0910  143.0360 C   0  0  0  0  0  2  0  0  0  0  0  0
  191.5440  177.4730  141.5740 C   0  0  0  0  0  2  0  0  0  0  0  0
  190.2880  176.8590  140.9810 C   0  0  0  0  0  2  0  0  0  0  0  0
  189.9290  177.8710  138.7340 O   0  0  0  0  0  0  0  0  0  0  0  0
  190.3980  176.8120  139.4980 C   0  0  0  0  0  0  0  0  0  0  0  0
  190.9420  175.8250  138.9380 O   0  0  0  0  0  1  0  0  0  0  0  0
  183.9820  177.8930  142.1610 N   0  0  0  0  0  2  0  0  0  0  0  0
  182.0040  178.4360  140.8940 N   0  0  0  0  0  0  0  0  0  0  0  0
  181.5260  178.8930  139.5760 C   0  0  0  0  0  2  0  0  0  0  0  0
  183.7310  179.9240  138.9440 C   0  0  0  0  0  2  0  0  0  0  0  0
  182.2290  180.1640  139.0980 C   0  0  0  0  0  2  0  0  0  0  0  0
  184.2720  178.8850  139.9290 C   0  0  0  0  0  2  0  0  0  0  0  0
  183.4000  178.8130  141.1870 C   0  0  2  0  0  3  0  0  0  0  0  0
  181.1620  179.0630  141.9050 C   0  0  0  0  0  2  0  0  0  0  0  0
  180.1690  178.0550  142.4590 C   0  0  0  0  0  2  0  0  0  0  0  0
  179.9570  178.2880  143.9430 C   0  0  0  0  0  1  0  0  0  0  0  0
  1 12  1  0  0  0  0
  1 11  1  0  0  0  0
  2  9  1  0  0  0  0
  2  3  1  0  0  0  0
  3  5  1  0  0  0  0
  5 11  1  0  0  0  0
  5  6  2  0  0  0  0
  6  4  1  0  0  0  0
  7  6  1  0  0  0  0
  8  3  2  0  0  0  0
  8 10  1  0  0  0  0
  9  1  2  0  0  0  0
 10  7  2  0  0  0  0
 13 16  1  6  0  0  0
 13 14  1  0  0  0  0
 14 12  1  6  0  0  0
 15 13  1  0  0  0  0
 15 14  1  0  0  0  0
 17 16  1  0  0  0  0
 18 17  1  0  0  0  0
 19 20  2  0  0  0  0
 20 18  1  0  0  0  0
 21 20  1  0  0  0  0
 22  8  1  0  0  0  0
 23 28  1  0  0  0  0
 23 29  1  0  0  0  0
 24 23  1  0  0  0  0
 25 26  1  0  0  0  0
 25 27  1  0  0  0  0
 26 24  1  0  0  0  0
 27 28  1  0  0  0  0
 28 22  1  1  0  0  0
 29 30  1  0  0  0  0
 30 31  1  0  0  0  0
M  END
>  <MODEL>
6

>  <REMARK>
 VINA RESULT:      -7.5      2.977      6.935
  Name = 
  10 active torsions:
  status: ('A' for Active; 'I' for Inactive)
    1  A    between atoms: C_1  and  C_18
    2  A    between atoms: C_2  and  C_10
    3  A    between atoms: C_3  and  C_21
    4  A    between atoms: C_3  and  C_26
    5  A    between atoms: C_6  and  C_26
    6  A    between atoms: C_10  and  N_15
    7  A    between atoms: C_11  and  C_18
    8  A    between atoms: C_16  and  C_21
    9  A    between atoms: C_22  and  N_31
   10  A    between atoms: C_28  and  N_31
                            x       y       z     vdW  Elec       q    Type
                         _______ _______ _______ _____ _____    ______ ____

>  <TORSDO>
F 10

$$$$
=
 OpenBabel11062415023D

 31 34  0  0  1  0  0  0  0  0999 V2000
  188.8210  178.0580  139.6490 C   0  0  0  0  0  0  0  0  0  0  0  0
  188.8720  177.1190  141.9160 C   0  0  0  0  0  2  0  0  0  0  0  0
  187.5360  177.7750  142.1690 C   0  0  0  0  0  0  0  0  0  0  0  0
  184.9510  179.7480  140.3440 N   0  0  0  0  0  1  0  0  0  0  0  0
  186.8870  178.4700  141.1400 C   0  0  0  0  0  0  0  0  0  0  0  0
  185.6280  179.0360  141.3750 C   0  0  0  0  0  0  0  0  0  0  0  0
  185.0460  178.9080  142.5970 N   0  0  0  0  0  0  0  0  0  0  0  0
  186.9140  177.6520  143.4220 C   0  0  0  0  0  0  0  0  0  0  0  0
  189.4360  177.4120  140.5930 N   0  0  0  0  0  0  0  0  0  0  0  0
  185.6540  178.2380  143.6110 C   0  0  0  0  0  3  0  0  0  0  0  0
  187.5210  178.6040  139.8680 N   0  0  0  0  0  2  0  0  0  0  0  0
  189.5020  178.2840  138.3460 C   0  0  0  0  0  2  0  0  0  0  0  0
  188.6880  177.6750  135.9960 C   0  0  2  0  0  3  0  0  0  0  0  0
  188.4670  178.4760  137.2410 C   0  0  1  0  0  3  0  0  0  0  0  0
  187.8060  177.2560  137.0100 O   0  0  0  0  0  0  0  0  0  0  0  0
  189.9220  176.7740  135.9990 C   0  0  0  0  0  2  0  0  0  0  0  0
  189.5570  175.3730  135.5450 C   0  0  0  0  0  2  0  0  0  0  0  0
  189.5890  174.4080  136.7170 C   0  0  0  0  0  2  0  0  0  0  0  0
  188.5010  172.2530  136.1060 O   0  0  0  0  0  0  0  0  0  0  0  0
  188.4000  173.5160  136.6720 C   0  0  0  0  0  0  0  0  0  0  0  0
  187.3090  173.8940  137.1730 O   0  0  0  0  0  1  0  0  0  0  0  0
  187.5600  176.9300  144.4820 N   0  0  0  0  0  2  0  0  0  0  0  0
  189.2850  176.7470  146.1570 N   0  0  0  0  0  0  0  0  0  0  0  0
  189.5600  176.8910  147.5990 C   0  0  0  0  0  2  0  0  0  0  0  0
  187.5940  178.4090  147.9960 C   0  0  0  0  0  2  0  0  0  0  0  0
  189.1050  178.2400  148.1580 C   0  0  0  0  0  2  0  0  0  0  0  0
  187.0430  177.6870  146.7640 C   0  0  0  0  0  2  0  0  0  0  0  0
  188.1240  177.5280  145.6890 C   0  0  2  0  0  3  0  0  0  0  0  0
  190.4560  177.2330  145.4390 C   0  0  0  0  0  2  0  0  0  0  0  0
  190.2520  178.6800  145.0220 C   0  0  0  0  0  2  0  0  0  0  0  0
  191.2600  179.0650  143.9560 C   0  0  0  0  0  1  0  0  0  0  0  0
  1 11  1  0  0  0  0
  1  9  2  0  0  0  0
  2  3  1  0  0  0  0
  3  8  1  0  0  0  0
  4  6  1  0  0  0  0
  5  6  1  0  0  0  0
  5  3  2  0  0  0  0
  6  7  2  0  0  0  0
  7 10  1  0  0  0  0
  8 10  2  0  0  0  0
  8 22  1  0  0  0  0
  9  2  1  0  0  0  0
 11  5  1  0  0  0  0
 12  1  1  0  0  0  0
 13 16  1  1  0  0  0
 13 15  1  0  0  0  0
 13 14  1  0  0  0  0
 14 12  1  1  0  0  0
 15 14  1  0  0  0  0
 17 16  1  0  0  0  0
 17 18  1  0  0  0  0
 19 20  2  0  0  0  0
 20 18  1  0  0  0  0
 20 21  1  0  0  0  0
 23 24  1  0  0  0  0
 24 26  1  0  0  0  0
 25 26  1  0  0  0  0
 27 25  1  0  0  0  0
 28 22  1  6  0  0  0
 28 23  1  0  0  0  0
 28 27  1  0  0  0  0
 29 23  1  0  0  0  0
 30 29  1  0  0  0  0
 31 30  1  0  0  0  0
M  END
>  <MODEL>
7

>  <REMARK>
 VINA RESULT:      -7.4      2.262      2.525
  Name = 
  10 active torsions:
  status: ('A' for Active; 'I' for Inactive)
    1  A    between atoms: C_1  and  C_18
    2  A    between atoms: C_2  and  C_10
    3  A    between atoms: C_3  and  C_21
    4  A    between atoms: C_3  and  C_26
    5  A    between atoms: C_6  and  C_26
    6  A    between atoms: C_10  and  N_15
    7  A    between atoms: C_11  and  C_18
    8  A    between atoms: C_16  and  C_21
    9  A    between atoms: C_22  and  N_31
   10  A    between atoms: C_28  and  N_31
                            x       y       z     vdW  Elec       q    Type
                         _______ _______ _______ _____ _____    ______ ____

>  <TORSDO>
F 10

$$$$
=
 OpenBabel11062415023D

 31 34  0  0  1  0  0  0  0  0999 V2000
  187.9180  177.9400  138.7970 C   0  0  0  0  0  0  0  0  0  0  0  0
  187.8400  178.4430  141.1980 C   0  0  0  0  0  2  0  0  0  0  0  0
  189.2630  177.9510  141.3020 C   0  0  0  0  0  0  0  0  0  0  0  0
  192.0100  176.7250  139.0970 N   0  0  0  0  0  1  0  0  0  0  0  0
  189.9550  177.5500  140.1500 C   0  0  0  0  0  0  0  0  0  0  0  0
  191.2900  177.1380  140.2540 C   0  0  0  0  0  0  0  0  0  0  0  0
  191.9020  177.1280  141.4670 N   0  0  0  0  0  0  0  0  0  0  0  0
  189.9180  177.9360  142.5440 C   0  0  0  0  0  0  0  0  0  0  0  0
  187.2630  178.3130  139.8550 N   0  0  0  0  0  0  0  0  0  0  0  0
  191.2540  177.5120  142.5980 C   0  0  0  0  0  3  0  0  0  0  0  0
  189.2900  177.5560  138.8880 N   0  0  0  0  0  2  0  0  0  0  0  0
  187.2160  177.8560  137.4880 C   0  0  0  0  0  2  0  0  0  0  0  0
  185.3980  176.1210  136.9970 C   0  0  2  0  0  3  0  0  0  0  0  0
  186.8570  176.4050  137.1790 C   0  0  1  0  0  3  0  0  0  0  0  0
  186.2620  176.3380  135.9060 O   0  0  0  0  0  0  0  0  0  0  0  0
  184.4670  177.3230  137.1460 C   0  0  0  0  0  2  0  0  0  0  0  0
  183.4370  177.0650  138.2300 C   0  0  0  0  0  2  0  0  0  0  0  0
  182.8310  178.3710  138.7120 C   0  0  0  0  0  2  0  0  0  0  0  0
  184.4760  180.2010  139.0950 O   0  0  0  0  0  0  0  0  0  0  0  0
  183.8010  179.0900  139.5810 C   0  0  0  0  0  0  0  0  0  0  0  0
  183.9880  178.7090  140.7650 O   0  0  0  0  0  1  0  0  0  0  0  0
  189.2270  178.3570  143.7300 N   0  0  0  0  0  2  0  0  0  0  0  0
  187.9810  178.0500  145.7720 N   0  0  0  0  0  0  0  0  0  0  0  0
  188.1150  177.7790  147.2150 C   0  0  0  0  0  2  0  0  0  0  0  0
  190.3990  176.7530  146.9840 C   0  0  0  0  0  2  0  0  0  0  0  0
  188.9780  176.5520  147.5110 C   0  0  0  0  0  2  0  0  0  0  0  0
  190.4530  177.6400  145.7380 C   0  0  0  0  0  2  0  0  0  0  0  0
  189.1290  177.5880  144.9670 C   0  0  2  0  0  3  0  0  0  0  0  0
  186.8030  177.3350  145.3010 C   0  0  0  0  0  2  0  0  0  0  0  0
  185.7820  178.3140  144.7440 C   0  0  0  0  0  2  0  0  0  0  0  0
  184.7310  178.6280  145.7910 C   0  0  0  0  0  1  0  0  0  0  0  0
  1 11  1  0  0  0  0
  1  9  2  0  0  0  0
  2  3  1  0  0  0  0
  3  8  1  0  0  0  0
  4  6  1  0  0  0  0
  5  6  1  0  0  0  0
  5  3  2  0  0  0  0
  6  7  2  0  0  0  0
  7 10  1  0  0  0  0
  8 10  2  0  0  0  0
  8 22  1  0  0  0  0
  9  2  1  0  0  0  0
 11  5  1  0  0  0  0
 12  1  1  0  0  0  0
 13 16  1  1  0  0  0
 13 14  1  0  0  0  0
 14 12  1  1  0  0  0
 15 13  1  0  0  0  0
 15 14  1  0  0  0  0
 16 17  1  0  0  0  0
 17 18  1  0  0  0  0
 18 20  1  0  0  0  0
 19 20  2  0  0  0  0
 20 21  1  0  0  0  0
 23 24  1  0  0  0  0
 24 26  1  0  0  0  0
 25 26  1  0  0  0  0
 27 25  1  0  0  0  0
 28 22  1  6  0  0  0
 28 27  1  0  0  0  0
 28 23  1  0  0  0  0
 29 23  1  0  0  0  0
 30 29  1  0  0  0  0
 30 31  1  0  0  0  0
M  END
>  <MODEL>
8

>  <REMARK>
 VINA RESULT:      -7.3      3.084      5.806
  Name = 
  10 active torsions:
  status: ('A' for Active; 'I' for Inactive)
    1  A    between atoms: C_1  and  C_18
    2  A    between atoms: C_2  and  C_10
    3  A    between atoms: C_3  and  C_21
    4  A    between atoms: C_3  and  C_26
    5  A    between atoms: C_6  and  C_26
    6  A    between atoms: C_10  and  N_15
    7  A    between atoms: C_11  and  C_18
    8  A    between atoms: C_16  and  C_21
    9  A    between atoms: C_22  and  N_31
   10  A    between atoms: C_28  and  N_31
                            x       y       z     vdW  Elec       q    Type
                         _______ _______ _______ _____ _____    ______ ____

>  <TORSDO>
F 10

$$$$
=
 OpenBabel11062415023D

 31 34  0  0  1  0  0  0  0  0999 V2000
  185.1380  178.9680  139.5740 C   0  0  0  0  0  0  0  0  0  0  0  0
  186.5210  179.2560  141.5810 C   0  0  0  0  0  2  0  0  0  0  0  0
  187.6060  178.4650  140.8920 C   0  0  0  0  0  0  0  0  0  0  0  0
  188.3070  176.8910  137.5850 N   0  0  0  0  0  1  0  0  0  0  0  0
  187.4310  178.0340  139.5700 C   0  0  0  0  0  0  0  0  0  0  0  0
  188.4640  177.3400  138.9270 C   0  0  0  0  0  0  0  0  0  0  0  0
  189.6250  177.0900  139.5870 N   0  0  0  0  0  0  0  0  0  0  0  0
  188.8160  178.1990  141.5530 C   0  0  0  0  0  0  0  0  0  0  0  0
  185.2840  179.3740  140.7990 N   0  0  0  0  0  0  0  0  0  0  0  0
  189.8200  177.4980  140.8690 C   0  0  0  0  0  3  0  0  0  0  0  0
  186.2000  178.2950  138.8990 N   0  0  0  0  0  2  0  0  0  0  0  0
  183.8310  179.1540  138.8880 C   0  0  0  0  0  2  0  0  0  0  0  0
  181.5140  180.0360  139.5280 C   0  0  2  0  0  3  0  0  0  0  0  0
  182.7040  179.2150  139.9150 C   0  0  1  0  0  3  0  0  0  0  0  0
  181.5460  178.6370  139.3640 O   0  0  0  0  0  0  0  0  0  0  0  0
  181.5890  180.7040  138.1560 C   0  0  0  0  0  2  0  0  0  0  0  0
  181.3200  182.1930  138.2750 C   0  0  0  0  0  2  0  0  0  0  0  0
  180.8060  182.7480  136.9590 C   0  0  0  0  0  2  0  0  0  0  0  0
  182.3030  184.6320  137.5970 O   0  0  0  0  0  1  0  0  0  0  0  0
  181.3250  184.1260  136.7530 C   0  0  0  0  0  0  0  0  0  0  0  0
  180.8990  184.8230  135.7950 O   0  0  0  0  0  0  0  0  0  0  0  0
  189.0160  178.6480  142.9030 N   0  0  0  0  0  2  0  0  0  0  0  0
  188.5310  178.0070  145.1760 N   0  0  0  0  0  0  0  0  0  0  0  0
  189.1490  177.6800  146.4750 C   0  0  0  0  0  2  0  0  0  0  0  0
  191.3740  177.0900  145.4620 C   0  0  0  0  0  2  0  0  0  0  0  0
  190.2360  176.6100  146.3630 C   0  0  0  0  0  2  0  0  0  0  0  0
  190.9010  178.0440  144.3620 C   0  0  0  0  0  2  0  0  0  0  0  0
  189.4270  177.8030  144.0210 C   0  0  2  0  0  3  0  0  0  0  0  0
  187.3870  177.1230  145.0030 C   0  0  0  0  0  2  0  0  0  0  0  0
  186.2630  177.5280  145.9420 C   0  0  0  0  0  2  0  0  0  0  0  0
  185.5440  178.7500  145.4030 C   0  0  0  0  0  1  0  0  0  0  0  0
  1  9  2  0  0  0  0
  3  8  1  0  0  0  0
  3  2  1  0  0  0  0
  4  6  1  0  0  0  0
  5  3  2  0  0  0  0
  6  5  1  0  0  0  0
  6  7  2  0  0  0  0
  7 10  1  0  0  0  0
  8 22  1  0  0  0  0
  9  2  1  0  0  0  0
 10  8  2  0  0  0  0
 11  5  1  0  0  0  0
 11  1  1  0  0  0  0
 12  1  1  0  0  0  0
 13 16  1  6  0  0  0
 13 14  1  0  0  0  0
 14 12  1  6  0  0  0
 15 13  1  0  0  0  0
 15 14  1  0  0  0  0
 16 17  1  0  0  0  0
 18 17  1  0  0  0  0
 20 18  1  0  0  0  0
 20 19  1  0  0  0  0
 21 20  2  0  0  0  0
 23 24  1  0  0  0  0
 25 26  1  0  0  0  0
 26 24  1  0  0  0  0
 27 25  1  0  0  0  0
 28 22  1  6  0  0  0
 28 27  1  0  0  0  0
 28 23  1  0  0  0  0
 29 23  1  0  0  0  0
 29 30  1  0  0  0  0
 31 30  1  0  0  0  0
M  END
>  <MODEL>
9

>  <REMARK>
 VINA RESULT:      -7.3      4.417      7.625
  Name = 
  10 active torsions:
  status: ('A' for Active; 'I' for Inactive)
    1  A    between atoms: C_1  and  C_18
    2  A    between atoms: C_2  and  C_10
    3  A    between atoms: C_3  and  C_21
    4  A    between atoms: C_3  and  C_26
    5  A    between atoms: C_6  and  C_26
    6  A    between atoms: C_10  and  N_15
    7  A    between atoms: C_11  and  C_18
    8  A    between atoms: C_16  and  C_21
    9  A    between atoms: C_22  and  N_31
   10  A    between atoms: C_28  and  N_31
                            x       y       z     vdW  Elec       q    Type
                         _______ _______ _______ _____ _____    ______ ____

>  <TORSDO>
F 10

$$$$
