=
 OpenBabel11062414513D

 33 36  0  0  1  0  0  0  0  0999 V2000
  187.5770  177.3970  138.2700 C   0  0  2  0  0  3  0  0  0  0  0  0
  185.3890  178.3350  138.2560 C   0  0  0  0  0  1  0  0  0  0  0  0
  188.5780  176.0160  136.4150 C   0  0  0  0  0  2  0  0  0  0  0  0
  188.8820  177.0760  137.4880 C   0  0  1  0  0  0  0  0  0  0  0  0
  186.5830  178.1080  137.4520 N   0  0  0  0  0  0  0  0  0  0  0  0
  185.2770  177.8300  135.1570 O   0  0  0  0  0  0  0  0  0  0  0  0
  187.5930  176.4920  135.3530 C   0  0  0  0  0  2  0  0  0  0  0  0
  189.4310  178.3420  136.8320 C   0  0  0  0  0  1  0  0  0  0  0  0
  186.1120  177.0650  136.1450 S   0  0  0  0  0  0  0  0  0  0  0  0
  187.9140  178.1740  139.4600 N   0  0  0  0  0  2  0  0  0  0  0  0
  185.3320  175.8870  136.6610 O   0  0  0  0  0  0  0  0  0  0  0  0
  189.8280  176.6770  139.7790 C   0  0  0  0  0  0  0  0  0  0  0  0
  190.8300  176.1960  140.6220 O   0  0  0  0  0  1  0  0  0  0  0  0
  189.9510  176.5400  138.4410 C   0  0  0  0  0  0  0  0  0  0  0  0
  188.5840  177.2740  140.3930 C   0  0  1  0  0  3  0  0  0  0  0  0
  190.1630  173.7670  137.5750 N   0  0  0  0  0  1  0  0  0  0  0  0
  192.3310  176.8070  137.7570 C   0  0  0  0  0  3  0  0  0  0  0  0
  193.5970  174.9740  136.8140 C   0  0  0  0  0  3  0  0  0  0  0  0
  192.4810  174.1420  136.9330 C   0  0  0  0  0  3  0  0  0  0  0  0
  191.2070  175.9790  137.8860 C   0  0  0  0  0  0  0  0  0  0  0  0
  191.2860  174.6370  137.4640 C   0  0  0  0  0  0  0  0  0  0  0  0
  193.5210  176.3070  137.2270 C   0  0  0  0  0  3  0  0  0  0  0  0
  188.9220  178.0290  141.6730 C   0  0  0  0  0  2  0  0  0  0  0  0
  187.7280  177.5940  146.9400 O   0  0  0  0  0  0  0  0  0  0  0  0
  188.5530  177.2160  142.9050 C   0  0  2  0  0  3  0  0  0  0  0  0
  189.3690  177.4260  145.2510 C   0  0  0  0  0  3  0  0  0  0  0  0
  186.9060  177.7460  144.7120 C   0  0  0  0  0  0  0  0  0  0  0  0
  187.1930  177.6330  143.4070 C   0  0  0  0  0  3  0  0  0  0  0  0
  189.6400  177.3000  143.9520 C   0  0  0  0  0  3  0  0  0  0  0  0
  187.9810  177.5720  145.7070 C   0  0  0  0  0  0  0  0  0  0  0  0
  184.6100  178.4000  143.9830 C   0  0  0  0  0  1  0  0  0  0  0  0
  185.5530  179.3110  146.1030 C   0  0  0  0  0  1  0  0  0  0  0  0
  185.5230  178.1190  145.1630 C   0  0  0  0  0  3  0  0  0  0  0  0
  1 10  1  1  0  0  0
  3  4  1  0  0  0  0
  4  8  1  6  0  0  0
  4  1  1  0  0  0  0
  4 14  1  0  0  0  0
  5  2  1  0  0  0  0
  5  1  1  0  0  0  0
  6  9  2  0  0  0  0
  7  9  1  0  0  0  0
  7  3  1  0  0  0  0
  9 11  2  0  0  0  0
  9  5  1  0  0  0  0
 10 15  1  0  0  0  0
 12 15  1  0  0  0  0
 12 13  1  0  0  0  0
 14 12  2  0  0  0  0
 15 23  1  1  0  0  0
 17 20  1  0  0  0  0
 18 19  2  0  0  0  0
 18 22  1  0  0  0  0
 19 21  1  0  0  0  0
 20 14  1  0  0  0  0
 21 16  1  0  0  0  0
 21 20  2  0  0  0  0
 22 17  2  0  0  0  0
 25 23  1  6  0  0  0
 25 28  1  0  0  0  0
 25 29  1  0  0  0  0
 26 30  1  0  0  0  0
 27 33  1  0  0  0  0
 27 30  1  0  0  0  0
 28 27  2  0  0  0  0
 29 26  2  0  0  0  0
 30 24  2  0  0  0  0
 31 33  1  0  0  0  0
 33 32  1  0  0  0  0
M  END
>  <MODEL>
1

>  <REMARK>
 VINA RESULT:      -9.2      0.000      0.000
  Name = 
  4 active torsions:
  status: ('A' for Active; 'I' for Inactive)
    1  A    between atoms: C_2  and  C_16
    2  A    between atoms: C_2  and  C_33
    3  A    between atoms: C_9  and  C_32
    4  A    between atoms: C_21  and  C_23
                            x       y       z     vdW  Elec       q    Type
                         _______ _______ _______ _____ _____    ______ ____

>  <TORSDO>
F 4

$$$$
=
 OpenBabel11062414513D

 33 36  0  0  1  0  0  0  0  0999 V2000
  187.3290  178.1950  140.8240 C   0  0  2  0  0  3  0  0  0  0  0  0
  185.4990  179.4330  141.7100 C   0  0  0  0  0  1  0  0  0  0  0  0
  187.4680  177.2830  138.4790 C   0  0  0  0  0  2  0  0  0  0  0  0
  188.2780  177.9150  139.6250 C   0  0  1  0  0  0  0  0  0  0  0  0
  186.3610  179.2660  140.5460 N   0  0  0  0  0  0  0  0  0  0  0  0
  184.4890  179.8930  138.7700 O   0  0  0  0  0  0  0  0  0  0  0  0
  186.3900  178.2040  137.9180 C   0  0  0  0  0  2  0  0  0  0  0  0
  188.9290  179.2130  139.1510 C   0  0  0  0  0  1  0  0  0  0  0  0
  185.3390  178.7460  139.2410 S   0  0  0  0  0  0  0  0  0  0  0  0
  188.1320  178.5210  142.0000 N   0  0  0  0  0  2  0  0  0  0  0  0
  184.4560  177.6090  139.6780 O   0  0  0  0  0  0  0  0  0  0  0  0
  189.6490  176.7090  141.3480 C   0  0  0  0  0  0  0  0  0  0  0  0
  190.6860  175.8470  141.7010 O   0  0  0  0  0  1  0  0  0  0  0  0
  189.3930  176.9570  140.0450 C   0  0  0  0  0  0  0  0  0  0  0  0
  188.7810  177.2890  142.4390 C   0  0  1  0  0  3  0  0  0  0  0  0
  192.1980  177.7190  139.8470 N   0  0  0  0  0  1  0  0  0  0  0  0
  189.7930  175.4470  138.1060 C   0  0  0  0  0  3  0  0  0  0  0  0
  191.9670  175.2660  137.0610 C   0  0  0  0  0  3  0  0  0  0  0  0
  192.4790  176.2030  137.9630 C   0  0  0  0  0  3  0  0  0  0  0  0
  190.2950  176.3910  139.0130 C   0  0  0  0  0  0  0  0  0  0  0  0
  191.6520  176.7660  138.9400 C   0  0  0  0  0  0  0  0  0  0  0  0
  190.6250  174.8890  137.1330 C   0  0  0  0  0  3  0  0  0  0  0  0
  189.6020  177.5670  143.6920 C   0  0  0  0  0  2  0  0  0  0  0  0
  187.8780  177.5970  148.8300 O   0  0  0  0  0  0  0  0  0  0  0  0
  188.9940  176.8880  144.9110 C   0  0  2  0  0  3  0  0  0  0  0  0
  189.6160  177.0840  147.3170 C   0  0  0  0  0  3  0  0  0  0  0  0
  187.2980  177.7650  146.5270 C   0  0  0  0  0  0  0  0  0  0  0  0
  187.6810  177.5410  145.2610 C   0  0  0  0  0  3  0  0  0  0  0  0
  189.9800  176.8500  146.0560 C   0  0  0  0  0  3  0  0  0  0  0  0
  188.2350  177.4730  147.6280 C   0  0  0  0  0  0  0  0  0  0  0  0
  185.0820  178.4290  145.5890 C   0  0  0  0  0  1  0  0  0  0  0  0
  186.1090  179.7630  147.4270 C   0  0  0  0  0  1  0  0  0  0  0  0
  185.9600  178.3760  146.8270 C   0  0  0  0  0  3  0  0  0  0  0  0
  1 10  1  1  0  0  0
  3  4  1  0  0  0  0
  4  8  1  6  0  0  0
  4 14  1  0  0  0  0
  4  1  1  0  0  0  0
  5  1  1  0  0  0  0
  5  2  1  0  0  0  0
  6  9  2  0  0  0  0
  7  3  1  0  0  0  0
  7  9  1  0  0  0  0
  9 11  2  0  0  0  0
  9  5  1  0  0  0  0
 10 15  1  0  0  0  0
 12 13  1  0  0  0  0
 12 15  1  0  0  0  0
 14 12  2  0  0  0  0
 15 23  1  1  0  0  0
 17 20  1  0  0  0  0
 18 22  1  0  0  0  0
 18 19  2  0  0  0  0
 19 21  1  0  0  0  0
 20 14  1  0  0  0  0
 21 20  2  0  0  0  0
 21 16  1  0  0  0  0
 22 17  2  0  0  0  0
 25 23  1  6  0  0  0
 25 28  1  0  0  0  0
 25 29  1  0  0  0  0
 26 30  1  0  0  0  0
 27 33  1  0  0  0  0
 27 30  1  0  0  0  0
 28 27  2  0  0  0  0
 29 26  2  0  0  0  0
 30 24  2  0  0  0  0
 31 33  1  0  0  0  0
 33 32  1  0  0  0  0
M  END
>  <MODEL>
2

>  <REMARK>
 VINA RESULT:      -8.8      2.037      2.609
  Name = 
  4 active torsions:
  status: ('A' for Active; 'I' for Inactive)
    1  A    between atoms: C_2  and  C_16
    2  A    between atoms: C_2  and  C_33
    3  A    between atoms: C_9  and  C_32
    4  A    between atoms: C_21  and  C_23
                            x       y       z     vdW  Elec       q    Type
                         _______ _______ _______ _____ _____    ______ ____

>  <TORSDO>
F 4

$$$$
=
 OpenBabel11062414513D

 33 36  0  0  1  0  0  0  0  0999 V2000
  187.3230  178.2510  142.6010 C   0  0  2  0  0  3  0  0  0  0  0  0
  185.4380  178.7590  141.2390 C   0  0  0  0  0  1  0  0  0  0  0  0
  187.3110  178.1470  145.1190 C   0  0  0  0  0  2  0  0  0  0  0  0
  187.8940  177.5120  143.8450 C   0  0  1  0  0  0  0  0  0  0  0  0
  185.8880  178.0040  142.4020 N   0  0  0  0  0  0  0  0  0  0  0  0
  183.5940  178.2130  143.7230 O   0  0  0  0  0  0  0  0  0  0  0  0
  185.7980  177.9960  145.2350 C   0  0  0  0  0  2  0  0  0  0  0  0
  187.5360  176.0280  143.7900 C   0  0  0  0  0  1  0  0  0  0  0  0
  185.0330  178.6440  143.7710 S   0  0  0  0  0  0  0  0  0  0  0  0
  188.0830  177.8500  141.4200 N   0  0  0  0  0  2  0  0  0  0  0  0
  185.1090  180.1470  143.7890 O   0  0  0  0  0  0  0  0  0  0  0  0
  190.1120  178.0200  142.7840 C   0  0  0  0  0  0  0  0  0  0  0  0
  191.5030  178.0950  142.8350 O   0  0  0  0  0  1  0  0  0  0  0  0
  189.4180  177.6260  143.8740 C   0  0  0  0  0  0  0  0  0  0  0  0
  189.4050  178.4600  141.5240 C   0  0  1  0  0  3  0  0  0  0  0  0
  191.4450  175.5370  143.7510 N   0  0  0  0  0  1  0  0  0  0  0  0
  189.8940  177.7720  146.3140 C   0  0  0  0  0  3  0  0  0  0  0  0
  191.5580  176.3720  147.3730 C   0  0  0  0  0  3  0  0  0  0  0  0
  191.8350  175.7710  146.1420 C   0  0  0  0  0  3  0  0  0  0  0  0
  190.1610  177.1720  145.0750 C   0  0  0  0  0  0  0  0  0  0  0  0
  191.1440  176.1660  144.9930 C   0  0  0  0  0  0  0  0  0  0  0  0
  190.5880  177.3720  147.4580 C   0  0  0  0  0  3  0  0  0  0  0  0
  190.2260  178.1050  140.2910 C   0  0  0  0  0  2  0  0  0  0  0  0
  189.3180  176.8440  135.1000 O   0  0  0  0  0  0  0  0  0  0  0  0
  189.3390  177.5890  139.1680 C   0  0  2  0  0  3  0  0  0  0  0  0
  189.0770  178.4260  136.8350 C   0  0  0  0  0  3  0  0  0  0  0  0
  189.9180  176.0670  137.2690 C   0  0  0  0  0  0  0  0  0  0  0  0
  189.9290  176.3310  138.5840 C   0  0  0  0  0  3  0  0  0  0  0  0
  189.0770  178.6710  138.1460 C   0  0  0  0  0  3  0  0  0  0  0  0
  189.4160  177.0900  136.3310 C   0  0  0  0  0  0  0  0  0  0  0  0
  189.5140  173.6250  136.9520 C   0  0  0  0  0  1  0  0  0  0  0  0
  191.8240  174.4630  137.3650 C   0  0  0  0  0  1  0  0  0  0  0  0
  190.4770  174.7790  136.7390 C   0  0  0  0  0  3  0  0  0  0  0  0
  1 10  1  6  0  0  0
  1  4  1  0  0  0  0
  2  5  1  0  0  0  0
  3  7  1  0  0  0  0
  4  8  1  6  0  0  0
  4 14  1  0  0  0  0
  4  3  1  0  0  0  0
  5  1  1  0  0  0  0
  5  9  1  0  0  0  0
  6  9  2  0  0  0  0
  9 11  2  0  0  0  0
  9  7  1  0  0  0  0
 10 15  1  0  0  0  0
 12 13  1  0  0  0  0
 12 14  2  0  0  0  0
 14 20  1  0  0  0  0
 15 23  1  6  0  0  0
 15 12  1  0  0  0  0
 16 21  1  0  0  0  0
 17 22  1  0  0  0  0
 18 22  2  0  0  0  0
 19 18  1  0  0  0  0
 20 17  2  0  0  0  0
 21 20  1  0  0  0  0
 21 19  2  0  0  0  0
 24 30  2  0  0  0  0
 25 23  1  1  0  0  0
 26 29  2  0  0  0  0
 27 28  2  0  0  0  0
 28 25  1  0  0  0  0
 29 25  1  0  0  0  0
 30 26  1  0  0  0  0
 30 27  1  0  0  0  0
 33 31  1  0  0  0  0
 33 27  1  0  0  0  0
 33 32  1  0  0  0  0
M  END
>  <MODEL>
3

>  <REMARK>
 VINA RESULT:      -8.2      2.799      7.708
  Name = 
  4 active torsions:
  status: ('A' for Active; 'I' for Inactive)
    1  A    between atoms: C_2  and  C_16
    2  A    between atoms: C_2  and  C_33
    3  A    between atoms: C_9  and  C_32
    4  A    between atoms: C_21  and  C_23
                            x       y       z     vdW  Elec       q    Type
                         _______ _______ _______ _____ _____    ______ ____

>  <TORSDO>
F 4

$$$$
=
 OpenBabel11062414513D

 33 36  0  0  1  0  0  0  0  0999 V2000
  188.6350  177.7140  143.8610 C   0  0  2  0  0  3  0  0  0  0  0  0
  187.4700  177.7490  145.9370 C   0  0  0  0  0  1  0  0  0  0  0  0
  191.1050  177.2980  143.5870 C   0  0  0  0  0  2  0  0  0  0  0  0
  189.7200  177.0520  142.9650 C   0  0  1  0  0  0  0  0  0  0  0  0
  188.4800  177.0420  145.1590 N   0  0  0  0  0  0  0  0  0  0  0  0
  189.9420  176.3270  147.2580 O   0  0  0  0  0  0  0  0  0  0  0  0
  191.2800  176.6510  144.9560 C   0  0  0  0  0  2  0  0  0  0  0  0
  189.4610  175.5500  142.8430 C   0  0  0  0  0  1  0  0  0  0  0  0
  189.9750  177.1930  146.0290 S   0  0  0  0  0  0  0  0  0  0  0  0
  187.3660  177.7330  143.1370 N   0  0  0  0  0  2  0  0  0  0  0  0
  190.2150  178.6240  146.4270 O   0  0  0  0  0  0  0  0  0  0  0  0
  188.6270  178.3810  141.1370 C   0  0  0  0  0  0  0  0  0  0  0  0
  188.6120  178.8960  139.8420 O   0  0  0  0  0  1  0  0  0  0  0  0
  189.6810  177.6500  141.5590 C   0  0  0  0  0  0  0  0  0  0  0  0
  187.4890  178.7210  142.0700 C   0  0  1  0  0  3  0  0  0  0  0  0
  189.1900  176.0450  139.1780 N   0  0  0  0  0  1  0  0  0  0  0  0
  192.0560  177.7930  140.8220 C   0  0  0  0  0  3  0  0  0  0  0  0
  192.8230  176.7350  138.7870 C   0  0  0  0  0  3  0  0  0  0  0  0
  191.5320  176.2580  138.5480 C   0  0  0  0  0  3  0  0  0  0  0  0
  190.7580  177.3140  140.5950 C   0  0  0  0  0  0  0  0  0  0  0  0
  190.4980  176.5450  139.4440 C   0  0  0  0  0  0  0  0  0  0  0  0
  193.0850  177.5030  139.9240 C   0  0  0  0  0  3  0  0  0  0  0  0
  186.1730  178.8090  141.3070 C   0  0  0  0  0  2  0  0  0  0  0  0
  181.2600  179.2160  143.5560 O   0  0  0  0  0  0  0  0  0  0  0  0
  185.0210  178.2530  142.1300 C   0  0  2  0  0  3  0  0  0  0  0  0
  183.5980  179.3780  143.8400 C   0  0  0  0  0  3  0  0  0  0  0  0
  182.5590  178.4290  141.7230 C   0  0  0  0  0  0  0  0  0  0  0  0
  183.7870  178.1340  141.2720 C   0  0  0  0  0  3  0  0  0  0  0  0
  184.8130  179.0660  143.3870 C   0  0  0  0  0  3  0  0  0  0  0  0
  182.4040  179.0030  143.0730 C   0  0  0  0  0  0  0  0  0  0  0  0
  181.5290  177.0810  139.8920 C   0  0  0  0  0  1  0  0  0  0  0  0
  181.0450  179.5190  140.0690 C   0  0  0  0  0  1  0  0  0  0  0  0
  181.3550  178.2510  140.8440 C   0  0  0  0  0  3  0  0  0  0  0  0
  1 10  1  6  0  0  0
  1  5  1  0  0  0  0
  3  7  1  0  0  0  0
  4  8  1  6  0  0  0
  4  3  1  0  0  0  0
  4  1  1  0  0  0  0
  5  2  1  0  0  0  0
  5  9  1  0  0  0  0
  7  9  1  0  0  0  0
  9 11  2  0  0  0  0
  9  6  2  0  0  0  0
 12 14  2  0  0  0  0
 12 15  1  0  0  0  0
 13 12  1  0  0  0  0
 14  4  1  0  0  0  0
 15 23  1  6  0  0  0
 15 10  1  0  0  0  0
 16 21  1  0  0  0  0
 18 22  1  0  0  0  0
 19 18  2  0  0  0  0
 19 21  1  0  0  0  0
 20 17  1  0  0  0  0
 20 14  1  0  0  0  0
 21 20  2  0  0  0  0
 22 17  2  0  0  0  0
 25 23  1  6  0  0  0
 25 29  1  0  0  0  0
 27 30  1  0  0  0  0
 28 27  2  0  0  0  0
 28 25  1  0  0  0  0
 29 26  2  0  0  0  0
 30 24  2  0  0  0  0
 30 26  1  0  0  0  0
 31 33  1  0  0  0  0
 32 33  1  0  0  0  0
 33 27  1  0  0  0  0
M  END
>  <MODEL>
4

>  <REMARK>
 VINA RESULT:      -8.1      3.410      6.206
  Name = 
  4 active torsions:
  status: ('A' for Active; 'I' for Inactive)
    1  A    between atoms: C_2  and  C_16
    2  A    between atoms: C_2  and  C_33
    3  A    between atoms: C_9  and  C_32
    4  A    between atoms: C_21  and  C_23
                            x       y       z     vdW  Elec       q    Type
                         _______ _______ _______ _____ _____    ______ ____

>  <TORSDO>
F 4

$$$$
=
 OpenBabel11062414513D

 33 36  0  0  1  0  0  0  0  0999 V2000
  187.3730  177.8770  139.5250 C   0  0  2  0  0  3  0  0  0  0  0  0
  186.2820  178.0330  137.4150 C   0  0  0  0  0  1  0  0  0  0  0  0
  189.5860  176.7450  139.9370 C   0  0  0  0  0  2  0  0  0  0  0  0
  188.6990  177.9380  140.3350 C   0  0  1  0  0  0  0  0  0  0  0  0
  187.5680  178.1430  138.0920 N   0  0  0  0  0  0  0  0  0  0  0  0
  188.9960  177.2440  136.0420 O   0  0  0  0  0  0  0  0  0  0  0  0
  190.0190  176.7720  138.4750 C   0  0  0  0  0  2  0  0  0  0  0  0
  189.4300  179.2500  140.0550 C   0  0  0  0  0  1  0  0  0  0  0  0
  188.5810  176.8910  137.4430 S   0  0  0  0  0  0  0  0  0  0  0  0
  186.4210  178.8260  140.0990 N   0  0  0  0  0  2  0  0  0  0  0  0
  187.8580  175.5720  137.4370 O   0  0  0  0  0  0  0  0  0  0  0  0
  187.1610  178.0810  142.3140 C   0  0  0  0  0  0  0  0  0  0  0  0
  186.9290  178.0360  143.6880 O   0  0  0  0  0  1  0  0  0  0  0  0
  188.4060  177.8740  141.8340 C   0  0  0  0  0  0  0  0  0  0  0  0
  185.9890  178.2850  141.3840 C   0  0  1  0  0  3  0  0  0  0  0  0
  189.2240  175.2670  142.8430 N   0  0  0  0  0  1  0  0  0  0  0  0
  190.2350  178.8460  143.2160 C   0  0  0  0  0  3  0  0  0  0  0  0
  191.6810  177.4590  144.5720 C   0  0  0  0  0  3  0  0  0  0  0  0
  190.9870  176.3220  144.1490 C   0  0  0  0  0  3  0  0  0  0  0  0
  189.5290  177.7120  142.7890 C   0  0  0  0  0  0  0  0  0  0  0  0
  189.9150  176.4410  143.2590 C   0  0  0  0  0  0  0  0  0  0  0  0
  191.3040  178.7200  144.1060 C   0  0  0  0  0  3  0  0  0  0  0  0
  184.9600  179.2210  142.0070 C   0  0  0  0  0  2  0  0  0  0  0  0
  179.8570  178.9750  143.8110 O   0  0  0  0  0  0  0  0  0  0  0  0
  183.7460  178.4510  142.5040 C   0  0  2  0  0  3  0  0  0  0  0  0
  182.1560  179.0030  144.3440 C   0  0  0  0  0  3  0  0  0  0  0  0
  181.3290  178.7840  141.9500 C   0  0  0  0  0  0  0  0  0  0  0  0
  182.5970  178.6280  141.5430 C   0  0  0  0  0  3  0  0  0  0  0  0
  183.4120  178.8300  143.9290 C   0  0  0  0  0  3  0  0  0  0  0  0
  181.0430  178.9060  143.3920 C   0  0  0  0  0  0  0  0  0  0  0  0
  180.0590  177.6450  140.1280 C   0  0  0  0  0  1  0  0  0  0  0  0
  180.4170  180.1100  140.0460 C   0  0  0  0  0  1  0  0  0  0  0  0
  180.2130  178.9100  140.9540 C   0  0  0  0  0  3  0  0  0  0  0  0
  1 10  1  1  0  0  0
  1  4  1  0  0  0  0
  2  5  1  0  0  0  0
  3  4  1  0  0  0  0
  4  8  1  6  0  0  0
  4 14  1  0  0  0  0
  5  1  1  0  0  0  0
  6  9  2  0  0  0  0
  7  3  1  0  0  0  0
  9  5  1  0  0  0  0
  9  7  1  0  0  0  0
 10 15  1  0  0  0  0
 11  9  2  0  0  0  0
 12 13  1  0  0  0  0
 14 12  2  0  0  0  0
 14 20  1  0  0  0  0
 15 23  1  1  0  0  0
 15 12  1  0  0  0  0
 16 21  1  0  0  0  0
 17 22  1  0  0  0  0
 19 18  1  0  0  0  0
 20 17  2  0  0  0  0
 20 21  1  0  0  0  0
 21 19  2  0  0  0  0
 22 18  2  0  0  0  0
 25 23  1  6  0  0  0
 25 29  1  0  0  0  0
 27 30  1  0  0  0  0
 28 27  2  0  0  0  0
 28 25  1  0  0  0  0
 29 26  2  0  0  0  0
 30 24  2  0  0  0  0
 30 26  1  0  0  0  0
 31 33  1  0  0  0  0
 32 33  1  0  0  0  0
 33 27  1  0  0  0  0
M  END
>  <MODEL>
5

>  <REMARK>
 VINA RESULT:      -7.9      3.121      5.393
  Name = 
  4 active torsions:
  status: ('A' for Active; 'I' for Inactive)
    1  A    between atoms: C_2  and  C_16
    2  A    between atoms: C_2  and  C_33
    3  A    between atoms: C_9  and  C_32
    4  A    between atoms: C_21  and  C_23
                            x       y       z     vdW  Elec       q    Type
                         _______ _______ _______ _____ _____    ______ ____

>  <TORSDO>
F 4

$$$$
=
 OpenBabel11062414513D

 33 36  0  0  1  0  0  0  0  0999 V2000
  186.8980  177.3020  137.9470 C   0  0  2  0  0  3  0  0  0  0  0  0
  184.9280  178.4780  138.5810 C   0  0  0  0  0  1  0  0  0  0  0  0
  187.0260  175.5500  136.1400 C   0  0  0  0  0  2  0  0  0  0  0  0
  187.7770  176.7160  136.8070 C   0  0  1  0  0  0  0  0  0  0  0  0
  185.7020  177.9940  137.4450 N   0  0  0  0  0  0  0  0  0  0  0  0
  183.5930  177.5310  135.8990 O   0  0  0  0  0  0  0  0  0  0  0  0
  185.7310  175.9750  135.4560 C   0  0  0  0  0  2  0  0  0  0  0  0
  188.0920  177.7960  135.7720 C   0  0  0  0  0  1  0  0  0  0  0  0
  184.7070  176.8300  136.6250 S   0  0  0  0  0  0  0  0  0  0  0  0
  187.7110  178.2030  138.7590 N   0  0  0  0  0  2  0  0  0  0  0  0
  184.1300  175.8430  137.6020 O   0  0  0  0  0  0  0  0  0  0  0  0
  189.5190  176.5550  138.6080 C   0  0  0  0  0  0  0  0  0  0  0  0
  190.7430  176.0920  139.0870 O   0  0  0  0  0  1  0  0  0  0  0  0
  189.1040  176.2070  137.3710 C   0  0  0  0  0  0  0  0  0  0  0  0
  188.6440  177.3800  139.5220 C   0  0  1  0  0  3  0  0  0  0  0  0
  189.1510  173.2940  137.3910 N   0  0  0  0  0  1  0  0  0  0  0  0
  190.8750  176.1000  135.6240 C   0  0  0  0  0  3  0  0  0  0  0  0
  191.7340  173.9910  134.8080 C   0  0  0  0  0  3  0  0  0  0  0  0
  190.8770  173.3070  135.6730 C   0  0  0  0  0  3  0  0  0  0  0  0
  190.0140  175.4240  136.4990 C   0  0  0  0  0  0  0  0  0  0  0  0
  190.0150  174.0150  136.5180 C   0  0  0  0  0  0  0  0  0  0  0  0
  191.7330  175.3880  134.7840 C   0  0  0  0  0  3  0  0  0  0  0  0
  189.4910  178.2730  140.4200 C   0  0  0  0  0  2  0  0  0  0  0  0
  186.6120  177.0170  144.8350 O   0  0  0  0  0  0  0  0  0  0  0  0
  188.7390  178.6510  141.6870 C   0  0  2  0  0  3  0  0  0  0  0  0
  186.5970  177.7560  142.5940 C   0  0  0  0  0  3  0  0  0  0  0  0
  188.7500  177.5320  143.9240 C   0  0  0  0  0  0  0  0  0  0  0  0
  189.4250  178.0520  142.8890 C   0  0  0  0  0  3  0  0  0  0  0  0
  187.2770  178.2880  141.5770 C   0  0  0  0  0  3  0  0  0  0  0  0
  187.2810  177.4270  143.8500 C   0  0  0  0  0  0  0  0  0  0  0  0
  189.3360  177.9060  146.3220 C   0  0  0  0  0  1  0  0  0  0  0  0
  190.9450  176.7490  144.8110 C   0  0  0  0  0  1  0  0  0  0  0  0
  189.4780  176.9880  145.1200 C   0  0  0  0  0  3  0  0  0  0  0  0
  1 10  1  6  0  0  0
  3  4  1  0  0  0  0
  4  8  1  6  0  0  0
  4 14  1  0  0  0  0
  4  1  1  0  0  0  0
  5  1  1  0  0  0  0
  5  2  1  0  0  0  0
  6  9  2  0  0  0  0
  7  3  1  0  0  0  0
  7  9  1  0  0  0  0
  9  5  1  0  0  0  0
  9 11  2  0  0  0  0
 10 15  1  0  0  0  0
 12 13  1  0  0  0  0
 12 15  1  0  0  0  0
 14 12  2  0  0  0  0
 15 23  1  6  0  0  0
 17 20  1  0  0  0  0
 18 19  2  0  0  0  0
 19 21  1  0  0  0  0
 20 21  2  0  0  0  0
 20 14  1  0  0  0  0
 21 16  1  0  0  0  0
 22 18  1  0  0  0  0
 22 17  2  0  0  0  0
 25 23  1  6  0  0  0
 25 28  1  0  0  0  0
 26 30  1  0  0  0  0
 27 33  1  0  0  0  0
 28 27  2  0  0  0  0
 29 25  1  0  0  0  0
 29 26  2  0  0  0  0
 30 27  1  0  0  0  0
 30 24  2  0  0  0  0
 32 33  1  0  0  0  0
 33 31  1  0  0  0  0
M  END
>  <MODEL>
6

>  <REMARK>
 VINA RESULT:      -7.8      1.696      2.468
  Name = 
  4 active torsions:
  status: ('A' for Active; 'I' for Inactive)
    1  A    between atoms: C_2  and  C_16
    2  A    between atoms: C_2  and  C_33
    3  A    between atoms: C_9  and  C_32
    4  A    between atoms: C_21  and  C_23
                            x       y       z     vdW  Elec       q    Type
                         _______ _______ _______ _____ _____    ______ ____

>  <TORSDO>
F 4

$$$$
=
 OpenBabel11062414513D

 33 36  0  0  1  0  0  0  0  0999 V2000
  181.8410  180.1300  138.9180 C   0  0  2  0  0  3  0  0  0  0  0  0
  182.2950  182.4250  138.4810 C   0  0  0  0  0  1  0  0  0  0  0  0
  179.6110  179.0010  138.5910 C   0  0  0  0  0  2  0  0  0  0  0  0
  181.1350  178.8150  138.4800 C   0  0  1  0  0  0  0  0  0  0  0  0
  181.6270  181.2340  137.9720 N   0  0  0  0  0  0  0  0  0  0  0  0
  179.6320  182.5540  136.8170 O   0  0  0  0  0  0  0  0  0  0  0  0
  179.0610  180.0710  137.6560 C   0  0  0  0  0  2  0  0  0  0  0  0
  181.5150  178.4640  137.0420 C   0  0  0  0  0  1  0  0  0  0  0  0
  179.9280  181.5940  137.9360 S   0  0  0  0  0  0  0  0  0  0  0  0
  183.2680  179.8680  139.0900 N   0  0  0  0  0  2  0  0  0  0  0  0
  179.4840  182.1900  139.2440 O   0  0  0  0  0  0  0  0  0  0  0  0
  182.6550  177.7590  140.1760 C   0  0  0  0  0  0  0  0  0  0  0  0
  183.0390  176.6770  140.9680 O   0  0  0  0  0  1  0  0  0  0  0  0
  181.5710  177.6570  139.3770 C   0  0  0  0  0  0  0  0  0  0  0  0
  183.4210  179.0550  140.2920 C   0  0  1  0  0  3  0  0  0  0  0  0
  179.5120  176.8400  141.2690 N   0  0  0  0  0  1  0  0  0  0  0  0
  181.1990  175.4810  138.2230 C   0  0  0  0  0  3  0  0  0  0  0  0
  179.5620  173.8850  139.0120 C   0  0  0  0  0  3  0  0  0  0  0  0
  179.2250  174.7470  140.0590 C   0  0  0  0  0  3  0  0  0  0  0  0
  180.8730  176.3520  139.2730 C   0  0  0  0  0  0  0  0  0  0  0  0
  179.8740  175.9790  140.1930 C   0  0  0  0  0  0  0  0  0  0  0  0
  180.5490  174.2520  138.0950 C   0  0  0  0  0  3  0  0  0  0  0  0
  184.9000  178.7890  140.5390 C   0  0  0  0  0  2  0  0  0  0  0  0
  185.3770  178.0350  145.8840 O   0  0  0  0  0  0  0  0  0  0  0  0
  185.3180  179.2450  141.9290 C   0  0  2  0  0  3  0  0  0  0  0  0
  184.1400  178.9820  144.1100 C   0  0  0  0  0  3  0  0  0  0  0  0
  186.4310  177.9420  143.7510 C   0  0  0  0  0  0  0  0  0  0  0  0
  186.3900  178.3310  142.4690 C   0  0  0  0  0  3  0  0  0  0  0  0
  184.1170  179.3780  142.8370 C   0  0  0  0  0  3  0  0  0  0  0  0
  185.3290  178.3180  144.6570 C   0  0  0  0  0  0  0  0  0  0  0  0
  188.5330  177.8560  145.0950 C   0  0  0  0  0  1  0  0  0  0  0  0
  188.2630  176.3780  143.1060 C   0  0  0  0  0  1  0  0  0  0  0  0
  187.5450  177.0680  144.2520 C   0  0  0  0  0  3  0  0  0  0  0  0
  1 10  1  6  0  0  0
  4  8  1  6  0  0  0
  4  3  1  0  0  0  0
  4  1  1  0  0  0  0
  4 14  1  0  0  0  0
  5  2  1  0  0  0  0
  5  1  1  0  0  0  0
  6  9  2  0  0  0  0
  7  9  1  0  0  0  0
  7  3  1  0  0  0  0
  9  5  1  0  0  0  0
  9 11  2  0  0  0  0
 10 15  1  0  0  0  0
 12 15  1  0  0  0  0
 12 13  1  0  0  0  0
 14 12  2  0  0  0  0
 15 23  1  6  0  0  0
 17 20  1  0  0  0  0
 18 19  2  0  0  0  0
 19 21  1  0  0  0  0
 20 14  1  0  0  0  0
 20 21  2  0  0  0  0
 21 16  1  0  0  0  0
 22 17  2  0  0  0  0
 22 18  1  0  0  0  0
 25 23  1  6  0  0  0
 25 28  1  0  0  0  0
 25 29  1  0  0  0  0
 26 30  1  0  0  0  0
 27 33  1  0  0  0  0
 27 30  1  0  0  0  0
 28 27  2  0  0  0  0
 29 26  2  0  0  0  0
 30 24  2  0  0  0  0
 32 33  1  0  0  0  0
 33 31  1  0  0  0  0
M  END
>  <MODEL>
7

>  <REMARK>
 VINA RESULT:      -7.7      5.117      7.965
  Name = 
  4 active torsions:
  status: ('A' for Active; 'I' for Inactive)
    1  A    between atoms: C_2  and  C_16
    2  A    between atoms: C_2  and  C_33
    3  A    between atoms: C_9  and  C_32
    4  A    between atoms: C_21  and  C_23
                            x       y       z     vdW  Elec       q    Type
                         _______ _______ _______ _____ _____    ______ ____

>  <TORSDO>
F 4

$$$$
=
 OpenBabel11062414513D

 33 36  0  0  1  0  0  0  0  0999 V2000
  190.4720  176.2970  137.2030 C   0  0  2  0  0  3  0  0  0  0  0  0
  192.7960  175.9750  137.6050 C   0  0  0  0  0  1  0  0  0  0  0  0
  189.2610  175.6580  135.0870 C   0  0  0  0  0  2  0  0  0  0  0  0
  189.1420  175.7410  136.6190 C   0  0  1  0  0  0  0  0  0  0  0  0
  191.5930  175.3570  137.0620 N   0  0  0  0  0  0  0  0  0  0  0  0
  192.8610  173.9850  135.1740 O   0  0  0  0  0  0  0  0  0  0  0  0
  190.3340  174.6850  134.6130 C   0  0  0  0  0  2  0  0  0  0  0  0
  188.8490  174.3560  137.1960 C   0  0  0  0  0  1  0  0  0  0  0  0
  191.8830  175.1100  135.3670 S   0  0  0  0  0  0  0  0  0  0  0  0
  190.2660  176.6450  138.6070 N   0  0  0  0  0  2  0  0  0  0  0  0
  192.4220  176.3630  134.7330 O   0  0  0  0  0  0  0  0  0  0  0  0
  188.1020  177.5940  137.9550 C   0  0  0  0  0  0  0  0  0  0  0  0
  187.0150  178.4030  138.2840 O   0  0  0  0  0  1  0  0  0  0  0  0
  187.9780  176.6590  136.9880 C   0  0  0  0  0  0  0  0  0  0  0  0
  189.4250  177.8380  138.6410 C   0  0  1  0  0  3  0  0  0  0  0  0
  187.0200  178.2530  134.7460 N   0  0  0  0  0  1  0  0  0  0  0  0
  185.8240  175.4150  136.8650 C   0  0  0  0  0  3  0  0  0  0  0  0
  184.1380  175.9500  135.2150 C   0  0  0  0  0  3  0  0  0  0  0  0
  184.9540  176.9660  134.7100 C   0  0  0  0  0  3  0  0  0  0  0  0
  186.6480  176.4350  136.3690 C   0  0  0  0  0  0  0  0  0  0  0  0
  186.2070  177.2110  135.2790 C   0  0  0  0  0  0  0  0  0  0  0  0
  184.5730  175.1760  136.2920 C   0  0  0  0  0  3  0  0  0  0  0  0
  189.2140  178.2670  140.0870 C   0  0  0  0  0  2  0  0  0  0  0  0
  191.2710  176.7530  144.8660 O   0  0  0  0  0  0  0  0  0  0  0  0
  189.7290  177.2130  141.0560 C   0  0  2  0  0  3  0  0  0  0  0  0
  191.6800  177.2940  142.6050 C   0  0  0  0  0  3  0  0  0  0  0  0
  189.3260  176.9960  143.5150 C   0  0  0  0  0  0  0  0  0  0  0  0
  188.8430  177.1590  142.2750 C   0  0  0  0  0  3  0  0  0  0  0  0
  191.1890  177.4400  141.3740 C   0  0  0  0  0  3  0  0  0  0  0  0
  190.7860  176.9830  143.7270 C   0  0  0  0  0  0  0  0  0  0  0  0
  186.9550  177.1280  144.2840 C   0  0  0  0  0  1  0  0  0  0  0  0
  188.7970  177.8780  145.7860 C   0  0  0  0  0  1  0  0  0  0  0  0
  188.4000  176.9020  144.6930 C   0  0  0  0  0  3  0  0  0  0  0  0
  1 10  1  1  0  0  0
  3  4  1  0  0  0  0
  4 14  1  0  0  0  0
  4  8  1  1  0  0  0
  4  1  1  0  0  0  0
  5  1  1  0  0  0  0
  5  2  1  0  0  0  0
  6  9  2  0  0  0  0
  7  3  1  0  0  0  0
  7  9  1  0  0  0  0
  9  5  1  0  0  0  0
 10 15  1  0  0  0  0
 11  9  2  0  0  0  0
 12 13  1  0  0  0  0
 12 15  1  0  0  0  0
 14 12  2  0  0  0  0
 15 23  1  1  0  0  0
 16 21  1  0  0  0  0
 18 22  1  0  0  0  0
 19 18  2  0  0  0  0
 19 21  1  0  0  0  0
 20 17  1  0  0  0  0
 20 14  1  0  0  0  0
 21 20  2  0  0  0  0
 22 17  2  0  0  0  0
 25 23  1  6  0  0  0
 25 29  1  0  0  0  0
 25 28  1  0  0  0  0
 26 30  1  0  0  0  0
 27 30  1  0  0  0  0
 27 33  1  0  0  0  0
 28 27  2  0  0  0  0
 29 26  2  0  0  0  0
 30 24  2  0  0  0  0
 31 33  1  0  0  0  0
 33 32  1  0  0  0  0
M  END
>  <MODEL>
8

>  <REMARK>
 VINA RESULT:      -7.7      2.728      5.048
  Name = 
  4 active torsions:
  status: ('A' for Active; 'I' for Inactive)
    1  A    between atoms: C_2  and  C_16
    2  A    between atoms: C_2  and  C_33
    3  A    between atoms: C_9  and  C_32
    4  A    between atoms: C_21  and  C_23
                            x       y       z     vdW  Elec       q    Type
                         _______ _______ _______ _____ _____    ______ ____

>  <TORSDO>
F 4

$$$$
=
 OpenBabel11062414513D

 33 36  0  0  1  0  0  0  0  0999 V2000
  186.7730  178.2690  142.4800 C   0  0  2  0  0  3  0  0  0  0  0  0
  184.6610  178.8150  141.5260 C   0  0  0  0  0  1  0  0  0  0  0  0
  187.2930  178.2480  144.9460 C   0  0  0  0  0  2  0  0  0  0  0  0
  187.5690  177.5470  143.6040 C   0  0  1  0  0  0  0  0  0  0  0  0
  185.3210  178.0790  142.5980 N   0  0  0  0  0  0  0  0  0  0  0  0
  183.3690  178.4310  144.3650 O   0  0  0  0  0  0  0  0  0  0  0  0
  185.8350  178.1670  145.3850 C   0  0  0  0  0  2  0  0  0  0  0  0
  187.1540  176.0790  143.6870 C   0  0  0  0  0  1  0  0  0  0  0  0
  184.8000  178.8000  144.0900 S   0  0  0  0  0  0  0  0  0  0  0  0
  187.2500  177.7970  141.1820 N   0  0  0  0  0  2  0  0  0  0  0  0
  184.9320  180.2980  144.0300 O   0  0  0  0  0  0  0  0  0  0  0  0
  189.5280  177.9230  142.0790 C   0  0  0  0  0  0  0  0  0  0  0  0
  190.9000  177.9390  141.8330 O   0  0  0  0  0  1  0  0  0  0  0  0
  189.0670  177.5950  143.3060 C   0  0  0  0  0  0  0  0  0  0  0  0
  188.5850  178.3520  140.9800 C   0  0  1  0  0  3  0  0  0  0  0  0
  190.6080  175.1380  143.0370 N   0  0  0  0  0  1  0  0  0  0  0  0
  190.2240  177.9360  145.4850 C   0  0  0  0  0  3  0  0  0  0  0  0
  191.8650  176.3640  146.3150 C   0  0  0  0  0  3  0  0  0  0  0  0
  191.6850  175.5750  145.1760 C   0  0  0  0  0  3  0  0  0  0  0  0
  190.0310  177.1480  144.3410 C   0  0  0  0  0  0  0  0  0  0  0  0
  190.7740  175.9610  144.1880 C   0  0  0  0  0  0  0  0  0  0  0  0
  191.1350  177.5450  146.4690 C   0  0  0  0  0  3  0  0  0  0  0  0
  189.1120  177.9220  139.6170 C   0  0  0  0  0  2  0  0  0  0  0  0
  186.7930  177.9940  134.7200 O   0  0  0  0  0  0  0  0  0  0  0  0
  188.3680  178.6260  138.4920 C   0  0  2  0  0  3  0  0  0  0  0  0
  188.7000  178.4730  136.0260 C   0  0  0  0  0  3  0  0  0  0  0  0
  186.4880  177.7850  137.0720 C   0  0  0  0  0  0  0  0  0  0  0  0
  187.0190  177.9840  138.2870 C   0  0  0  0  0  3  0  0  0  0  0  0
  189.2120  178.6820  137.2390 C   0  0  0  0  0  3  0  0  0  0  0  0
  187.2900  178.0950  135.8730 C   0  0  0  0  0  0  0  0  0  0  0  0
  184.1600  177.7150  137.9710 C   0  0  0  0  0  1  0  0  0  0  0  0
  185.1750  175.6680  136.9770 C   0  0  0  0  0  1  0  0  0  0  0  0
  185.1210  177.1840  136.9210 C   0  0  0  0  0  3  0  0  0  0  0  0
  1 10  1  6  0  0  0
  1  5  1  0  0  0  0
  1  4  1  0  0  0  0
  2  5  1  0  0  0  0
  3  7  1  0  0  0  0
  4  8  1  1  0  0  0
  4  3  1  0  0  0  0
  5  9  1  0  0  0  0
  9  6  2  0  0  0  0
  9  7  1  0  0  0  0
 11  9  2  0  0  0  0
 12 14  2  0  0  0  0
 13 12  1  0  0  0  0
 14  4  1  0  0  0  0
 14 20  1  0  0  0  0
 15 23  1  6  0  0  0
 15 10  1  0  0  0  0
 15 12  1  0  0  0  0
 16 21  1  0  0  0  0
 17 22  1  0  0  0  0
 18 22  2  0  0  0  0
 19 18  1  0  0  0  0
 20 17  2  0  0  0  0
 21 20  1  0  0  0  0
 21 19  2  0  0  0  0
 24 30  2  0  0  0  0
 25 23  1  1  0  0  0
 26 29  2  0  0  0  0
 27 28  2  0  0  0  0
 28 25  1  0  0  0  0
 29 25  1  0  0  0  0
 30 26  1  0  0  0  0
 30 27  1  0  0  0  0
 33 32  1  0  0  0  0
 33 27  1  0  0  0  0
 33 31  1  0  0  0  0
M  END
>  <MODEL>
9

>  <REMARK>
 VINA RESULT:      -7.6      3.137      7.295
  Name = 
  4 active torsions:
  status: ('A' for Active; 'I' for Inactive)
    1  A    between atoms: C_2  and  C_16
    2  A    between atoms: C_2  and  C_33
    3  A    between atoms: C_9  and  C_32
    4  A    between atoms: C_21  and  C_23
                            x       y       z     vdW  Elec       q    Type
                         _______ _______ _______ _____ _____    ______ ____

>  <TORSDO>
F 4

$$$$
