=
 OpenBabel11062414433D

 27 29  0  0  1  0  0  0  0  0999 V2000
  187.3010  178.3990  141.3270 C   0  0  0  0  0  0  0  0  0  0  0  0
  188.0160  178.0160  140.2780 C   0  0  0  0  0  3  0  0  0  0  0  0
  189.3260  177.6730  140.8070 C   0  0  0  0  0  0  0  0  0  0  0  0
  189.4040  177.8430  142.0860 N   0  0  0  0  0  0  0  0  0  0  0  0
  188.1230  178.3280  142.5800 C   0  0  2  0  0  3  0  0  0  0  0  0
  190.2080  176.4070  138.8320 N   0  0  0  0  0  1  0  0  0  0  0  0
  191.6340  177.4580  140.3310 O   0  0  0  0  0  0  0  0  0  0  0  0
  190.4500  177.1880  139.9980 C   0  0  0  0  0  0  0  0  0  0  0  0
  187.9650  176.0370  143.2820 O   0  0  0  0  0  1  0  0  0  0  0  0
  187.5460  177.3340  143.5950 C   0  0  1  0  0  3  0  0  0  0  0  0
  188.5020  177.3170  147.7700 C   0  0  0  0  0  2  0  0  0  0  0  0
  191.0240  176.6090  147.0970 Cl  0  0  0  0  0  0  0  0  0  0  0  0
  189.0030  176.8470  145.4650 O   0  0  0  0  0  0  0  0  0  0  0  0
  186.7700  177.5980  145.9760 C   0  0  0  0  0  2  0  0  0  0  0  0
  187.9620  177.6870  145.0220 C   0  0  2  0  0  3  0  0  0  0  0  0
  187.2180  178.0410  147.3670 C   0  0  0  0  0  2  0  0  0  0  0  0
  189.5190  177.4350  146.6340 C   0  0  1  0  0  3  0  0  0  0  0  0
  185.8830  178.9020  141.2610 C   0  0  2  0  0  3  0  0  0  0  0  0
  184.9240  178.1920  142.2360 C   0  0  2  0  0  3  0  0  0  0  0  0
  182.4540  178.2900  141.8160 C   0  0  0  0  0  3  0  0  0  0  0  0
  181.1910  179.7590  143.1720 O   0  0  0  0  0  0  0  0  0  0  0  0
  183.6530  177.7900  141.5120 C   0  0  0  0  0  3  0  0  0  0  0  0
  184.6640  179.0310  143.4730 C   0  0  0  0  0  3  0  0  0  0  0  0
  183.4650  179.5290  143.7770 C   0  0  0  0  0  3  0  0  0  0  0  0
  182.3080  179.2340  142.9280 C   0  0  0  0  0  0  0  0  0  0  0  0
  185.3680  178.8950  139.8210 C   0  0  0  0  0  2  0  0  0  0  0  0
  184.6710  180.0700  139.5320 O   0  0  0  0  0  1  0  0  0  0  0  0
  1  5  1  0  0  0  0
  2  3  1  0  0  0  0
  2  1  2  0  0  0  0
  3  4  2  0  0  0  0
  4  5  1  0  0  0  0
  5 10  1  1  0  0  0
  6  8  1  0  0  0  0
  8  7  2  0  0  0  0
  8  3  1  0  0  0  0
 10  9  1  6  0  0  0
 13 17  1  0  0  0  0
 14 16  1  0  0  0  0
 15 10  1  6  0  0  0
 15 13  1  0  0  0  0
 15 14  1  0  0  0  0
 16 11  1  0  0  0  0
 17 12  1  1  0  0  0
 17 11  1  0  0  0  0
 18 26  1  6  0  0  0
 18  1  1  0  0  0  0
 19 18  1  6  0  0  0
 19 23  1  0  0  0  0
 20 25  1  0  0  0  0
 22 20  2  0  0  0  0
 22 19  1  0  0  0  0
 23 24  2  0  0  0  0
 25 21  2  0  0  0  0
 25 24  1  0  0  0  0
 27 26  1  0  0  0  0
M  END
>  <MODEL>
1

>  <REMARK>
 VINA RESULT:      -8.6      0.000      0.000
  Name = 
  6 active torsions:
  status: ('A' for Active; 'I' for Inactive)
    1  A    between atoms: C_3  and  C_27
    2  A    between atoms: C_7  and  C_27
    3  A    between atoms: C_11  and  C_18
    4  A    between atoms: C_15  and  C_24
    5  A    between atoms: C_16  and  C_27
    6  A    between atoms: C_18  and  C_26
                            x       y       z     vdW  Elec       q    Type
                         _______ _______ _______ _____ _____    ______ ____

>  <TORSDO>
F 6

$$$$
=
 OpenBabel11062414433D

 27 29  0  0  1  0  0  0  0  0999 V2000
  188.2530  178.0290  141.3440 C   0  0  0  0  0  0  0  0  0  0  0  0
  189.0940  178.1840  140.3310 C   0  0  0  0  0  3  0  0  0  0  0  0
  188.2560  178.3170  139.1500 C   0  0  0  0  0  0  0  0  0  0  0  0
  186.9960  178.2380  139.4240 N   0  0  0  0  0  0  0  0  0  0  0  0
  186.8330  178.0440  140.8590 C   0  0  2  0  0  3  0  0  0  0  0  0
  189.3490  177.4290  137.0760 N   0  0  0  0  0  1  0  0  0  0  0  0
  188.6860  179.6460  137.2400 O   0  0  0  0  0  0  0  0  0  0  0  0
  188.7640  178.5150  137.7870 C   0  0  0  0  0  0  0  0  0  0  0  0
  185.2610  179.8140  140.4580 O   0  0  0  0  0  1  0  0  0  0  0  0
  186.0320  179.2080  141.4530 C   0  0  1  0  0  3  0  0  0  0  0  0
  183.3330  178.9200  144.7670 C   0  0  0  0  0  2  0  0  0  0  0  0
  181.3010  178.8090  142.9860 Cl  0  0  0  0  0  0  0  0  0  0  0  0
  183.8170  179.2140  142.4300 O   0  0  0  0  0  0  0  0  0  0  0  0
  185.6880  179.1950  143.9490 C   0  0  0  0  0  2  0  0  0  0  0  0
  185.1340  178.7410  142.5970 C   0  0  2  0  0  3  0  0  0  0  0  0
  184.8050  178.6310  145.0590 C   0  0  0  0  0  2  0  0  0  0  0  0
  183.0160  178.4930  143.3330 C   0  0  1  0  0  3  0  0  0  0  0  0
  188.6660  177.7970  142.7740 C   0  0  2  0  0  3  0  0  0  0  0  0
  190.1840  177.9080  143.0100 C   0  0  2  0  0  3  0  0  0  0  0  0
  191.4380  175.9200  143.8840 C   0  0  0  0  0  3  0  0  0  0  0  0
  192.0600  175.9600  146.1650 O   0  0  0  0  0  0  0  0  0  0  0  0
  190.8310  176.5440  142.8710 C   0  0  0  0  0  3  0  0  0  0  0  0
  190.4940  178.5830  144.3340 C   0  0  0  0  0  3  0  0  0  0  0  0
  191.1020  177.9590  145.3440 C   0  0  0  0  0  3  0  0  0  0  0  0
  191.5510  176.5730  145.1910 C   0  0  0  0  0  0  0  0  0  0  0  0
  188.0830  176.4860  143.3040 C   0  0  0  0  0  2  0  0  0  0  0  0
  187.7300  176.6030  144.6500 O   0  0  0  0  0  1  0  0  0  0  0  0
  1 18  1  0  0  0  0
  2  1  2  0  0  0  0
  3  4  2  0  0  0  0
  3  2  1  0  0  0  0
  4  5  1  0  0  0  0
  5  1  1  0  0  0  0
  5 10  1  1  0  0  0
  6  8  1  0  0  0  0
  7  8  2  0  0  0  0
  8  3  1  0  0  0  0
 10  9  1  6  0  0  0
 11 16  1  0  0  0  0
 13 15  1  0  0  0  0
 13 17  1  0  0  0  0
 14 16  1  0  0  0  0
 15 10  1  6  0  0  0
 15 14  1  0  0  0  0
 17 12  1  6  0  0  0
 17 11  1  0  0  0  0
 18 26  1  6  0  0  0
 19 18  1  1  0  0  0
 19 23  1  0  0  0  0
 20 25  1  0  0  0  0
 22 19  1  0  0  0  0
 22 20  2  0  0  0  0
 23 24  2  0  0  0  0
 25 24  1  0  0  0  0
 25 21  2  0  0  0  0
 26 27  1  0  0  0  0
M  END
>  <MODEL>
2

>  <REMARK>
 VINA RESULT:      -8.5      2.994      6.030
  Name = 
  6 active torsions:
  status: ('A' for Active; 'I' for Inactive)
    1  A    between atoms: C_3  and  C_27
    2  A    between atoms: C_7  and  C_27
    3  A    between atoms: C_11  and  C_18
    4  A    between atoms: C_15  and  C_24
    5  A    between atoms: C_16  and  C_27
    6  A    between atoms: C_18  and  C_26
                            x       y       z     vdW  Elec       q    Type
                         _______ _______ _______ _____ _____    ______ ____

>  <TORSDO>
F 6

$$$$
=
 OpenBabel11062414433D

 27 29  0  0  1  0  0  0  0  0999 V2000
  190.8660  177.3740  142.0440 C   0  0  0  0  0  0  0  0  0  0  0  0
  191.7030  177.3030  141.0180 C   0  0  0  0  0  3  0  0  0  0  0  0
  190.8730  177.0090  139.8610 C   0  0  0  0  0  0  0  0  0  0  0  0
  189.6210  176.9000  140.1640 N   0  0  0  0  0  0  0  0  0  0  0  0
  189.4570  177.1180  141.5950 C   0  0  2  0  0  3  0  0  0  0  0  0
  192.6870  176.3330  138.2700 N   0  0  0  0  0  1  0  0  0  0  0  0
  190.6580  177.1630  137.5100 O   0  0  0  0  0  0  0  0  0  0  0  0
  191.3780  176.8470  138.4930 C   0  0  0  0  0  0  0  0  0  0  0  0
  188.2120  178.9230  140.6160 O   0  0  0  0  0  1  0  0  0  0  0  0
  188.5450  178.3260  141.8360 C   0  0  1  0  0  3  0  0  0  0  0  0
  184.9550  178.2250  144.1680 C   0  0  0  0  0  2  0  0  0  0  0  0
  183.5760  178.7590  141.9040 Cl  0  0  0  0  0  0  0  0  0  0  0  0
  186.1720  178.6850  142.1460 O   0  0  0  0  0  0  0  0  0  0  0  0
  187.4590  178.0910  144.0960 C   0  0  0  0  0  2  0  0  0  0  0  0
  187.2760  177.9280  142.5860 C   0  0  2  0  0  3  0  0  0  0  0  0
  186.1970  177.5990  144.8010 C   0  0  0  0  0  2  0  0  0  0  0  0
  185.0240  178.0480  142.6510 C   0  0  1  0  0  3  0  0  0  0  0  0
  191.2790  177.6080  143.4730 C   0  0  2  0  0  3  0  0  0  0  0  0
  190.7390  176.5530  144.4580 C   0  0  2  0  0  3  0  0  0  0  0  0
  190.9720  176.9450  146.9240 C   0  0  0  0  0  3  0  0  0  0  0  0
  192.6550  175.7250  148.0520 O   0  0  0  0  0  0  0  0  0  0  0  0
  190.3590  177.2140  145.7690 C   0  0  0  0  0  3  0  0  0  0  0  0
  191.7140  175.4030  144.6320 C   0  0  0  0  0  3  0  0  0  0  0  0
  192.3240  175.1330  145.7870 C   0  0  0  0  0  3  0  0  0  0  0  0
  192.0290  175.9310  146.9800 C   0  0  0  0  0  0  0  0  0  0  0  0
  190.9530  179.0380  143.9080 C   0  0  0  0  0  2  0  0  0  0  0  0
  192.1090  179.7230  144.2840 O   0  0  0  0  0  1  0  0  0  0  0  0
  1 18  1  0  0  0  0
  2  1  2  0  0  0  0
  3  4  2  0  0  0  0
  3  2  1  0  0  0  0
  4  5  1  0  0  0  0
  5 10  1  6  0  0  0
  5  1  1  0  0  0  0
  6  8  1  0  0  0  0
  7  8  2  0  0  0  0
  8  3  1  0  0  0  0
 10  9  1  6  0  0  0
 11 16  1  0  0  0  0
 13 15  1  0  0  0  0
 13 17  1  0  0  0  0
 14 16  1  0  0  0  0
 15 10  1  6  0  0  0
 15 14  1  0  0  0  0
 17 12  1  6  0  0  0
 17 11  1  0  0  0  0
 18 26  1  1  0  0  0
 19 18  1  6  0  0  0
 19 23  1  0  0  0  0
 19 22  1  0  0  0  0
 20 25  1  0  0  0  0
 22 20  2  0  0  0  0
 23 24  2  0  0  0  0
 24 25  1  0  0  0  0
 25 21  2  0  0  0  0
 26 27  1  0  0  0  0
M  END
>  <MODEL>
3

>  <REMARK>
 VINA RESULT:      -8.3      3.071      6.377
  Name = 
  6 active torsions:
  status: ('A' for Active; 'I' for Inactive)
    1  A    between atoms: C_3  and  C_27
    2  A    between atoms: C_7  and  C_27
    3  A    between atoms: C_11  and  C_18
    4  A    between atoms: C_15  and  C_24
    5  A    between atoms: C_16  and  C_27
    6  A    between atoms: C_18  and  C_26
                            x       y       z     vdW  Elec       q    Type
                         _______ _______ _______ _____ _____    ______ ____

>  <TORSDO>
F 6

$$$$
=
 OpenBabel11062414433D

 27 29  0  0  1  0  0  0  0  0999 V2000
  188.3800  177.7700  141.5000 C   0  0  0  0  0  0  0  0  0  0  0  0
  187.1760  178.2860  141.7030 C   0  0  0  0  0  3  0  0  0  0  0  0
  186.7790  177.8330  143.0260 C   0  0  0  0  0  0  0  0  0  0  0  0
  187.6750  177.0860  143.5840 N   0  0  0  0  0  0  0  0  0  0  0  0
  188.8100  176.9510  142.6820 C   0  0  2  0  0  3  0  0  0  0  0  0
  185.4570  178.4020  145.0780 N   0  0  0  0  0  1  0  0  0  0  0  0
  184.4500  178.2530  142.9940 O   0  0  0  0  0  0  0  0  0  0  0  0
  185.5060  178.1690  143.6750 C   0  0  0  0  0  0  0  0  0  0  0  0
  189.9980  178.9080  143.4090 O   0  0  0  0  0  1  0  0  0  0  0  0
  190.0720  177.5130  143.3460 C   0  0  1  0  0  3  0  0  0  0  0  0
  191.2040  176.7560  147.4060 C   0  0  0  0  0  2  0  0  0  0  0  0
  189.0350  178.1730  148.1800 Cl  0  0  0  0  0  0  0  0  0  0  0  0
  189.8820  177.8660  145.7320 O   0  0  0  0  0  0  0  0  0  0  0  0
  191.7240  176.5150  144.9640 C   0  0  0  0  0  2  0  0  0  0  0  0
  190.2700  176.9370  144.7470 C   0  0  2  0  0  3  0  0  0  0  0  0
  191.8490  175.8700  146.3420 C   0  0  0  0  0  2  0  0  0  0  0  0
  189.8020  177.1530  146.9430 C   0  0  1  0  0  3  0  0  0  0  0  0
  189.1770  177.9240  140.2320 C   0  0  2  0  0  3  0  0  0  0  0  0
  188.3110  178.1000  138.9690 C   0  0  2  0  0  3  0  0  0  0  0  0
  188.3680  176.3370  137.1880 C   0  0  0  0  0  3  0  0  0  0  0  0
  189.6020  176.8260  135.2300 O   0  0  0  0  0  0  0  0  0  0  0  0
  187.9570  176.7440  138.3900 C   0  0  0  0  0  3  0  0  0  0  0  0
  188.9750  179.0220  137.9630 C   0  0  0  0  0  3  0  0  0  0  0  0
  189.3830  178.6150  136.7600 C   0  0  0  0  0  3  0  0  0  0  0  0
  189.1550  177.2320  136.3340 C   0  0  0  0  0  0  0  0  0  0  0  0
  190.2000  176.7960  140.0900 C   0  0  0  0  0  2  0  0  0  0  0  0
  191.4980  177.3040  140.0080 O   0  0  0  0  0  1  0  0  0  0  0  0
  1  2  2  0  0  0  0
  1  5  1  0  0  0  0
  2  3  1  0  0  0  0
  3  4  2  0  0  0  0
  3  8  1  0  0  0  0
  5 10  1  1  0  0  0
  5  4  1  0  0  0  0
  7  8  2  0  0  0  0
  8  6  1  0  0  0  0
 10  9  1  1  0  0  0
 13 17  1  0  0  0  0
 14 16  1  0  0  0  0
 15 10  1  6  0  0  0
 15 14  1  0  0  0  0
 15 13  1  0  0  0  0
 16 11  1  0  0  0  0
 17 11  1  0  0  0  0
 17 12  1  1  0  0  0
 18 26  1  6  0  0  0
 18  1  1  0  0  0  0
 19 18  1  1  0  0  0
 20 22  2  0  0  0  0
 21 25  2  0  0  0  0
 22 19  1  0  0  0  0
 23 19  1  0  0  0  0
 24 23  2  0  0  0  0
 25 24  1  0  0  0  0
 25 20  1  0  0  0  0
 27 26  1  0  0  0  0
M  END
>  <MODEL>
4

>  <REMARK>
 VINA RESULT:      -8.0      2.625      5.650
  Name = 
  6 active torsions:
  status: ('A' for Active; 'I' for Inactive)
    1  A    between atoms: C_3  and  C_27
    2  A    between atoms: C_7  and  C_27
    3  A    between atoms: C_11  and  C_18
    4  A    between atoms: C_15  and  C_24
    5  A    between atoms: C_16  and  C_27
    6  A    between atoms: C_18  and  C_26
                            x       y       z     vdW  Elec       q    Type
                         _______ _______ _______ _____ _____    ______ ____

>  <TORSDO>
F 6

$$$$
=
 OpenBabel11062414433D

 27 29  0  0  1  0  0  0  0  0999 V2000
  190.0340  177.2470  141.3140 C   0  0  0  0  0  0  0  0  0  0  0  0
  191.3170  177.1420  140.9970 C   0  0  0  0  0  3  0  0  0  0  0  0
  191.3480  177.0130  139.5490 C   0  0  0  0  0  0  0  0  0  0  0  0
  190.1660  177.0290  139.0250 N   0  0  0  0  0  0  0  0  0  0  0  0
  189.1780  177.1810  140.0840 C   0  0  2  0  0  3  0  0  0  0  0  0
  192.5000  176.4290  137.4010 N   0  0  0  0  0  1  0  0  0  0  0  0
  193.6920  177.1470  139.2570 O   0  0  0  0  0  0  0  0  0  0  0  0
  192.5710  176.8740  138.7510 C   0  0  0  0  0  0  0  0  0  0  0  0
  188.4790  178.8760  138.5330 O   0  0  0  0  0  1  0  0  0  0  0  0
  188.3770  178.4690  139.8670 C   0  0  1  0  0  3  0  0  0  0  0  0
  184.2260  178.9820  140.7890 C   0  0  0  0  0  2  0  0  0  0  0  0
  183.6950  178.6740  138.1550 Cl  0  0  0  0  0  0  0  0  0  0  0  0
  186.0610  178.8030  139.2460 O   0  0  0  0  0  0  0  0  0  0  0  0
  186.6020  178.9450  141.5900 C   0  0  0  0  0  2  0  0  0  0  0  0
  186.9080  178.2840  140.2450 C   0  0  2  0  0  3  0  0  0  0  0  0
  185.1490  178.6580  141.9620 C   0  0  0  0  0  2  0  0  0  0  0  0
  184.7710  178.3170  139.5250 C   0  0  1  0  0  3  0  0  0  0  0  0
  189.5040  177.3480  142.7200 C   0  0  2  0  0  3  0  0  0  0  0  0
  190.5320  177.8810  143.7370 C   0  0  2  0  0  3  0  0  0  0  0  0
  191.6980  176.2670  145.2620 C   0  0  0  0  0  3  0  0  0  0  0  0
  190.9640  176.1890  147.5080 O   0  0  0  0  0  0  0  0  0  0  0  0
  191.5560  176.8070  144.0500 C   0  0  0  0  0  3  0  0  0  0  0  0
  189.8530  178.4350  144.9770 C   0  0  0  0  0  3  0  0  0  0  0  0
  189.9970  177.8960  146.1890 C   0  0  0  0  0  3  0  0  0  0  0  0
  190.8810  176.7440  146.3820 C   0  0  0  0  0  0  0  0  0  0  0  0
  188.8720  176.0270  143.1610 C   0  0  0  0  0  2  0  0  0  0  0  0
  187.5540  176.2170  143.5810 O   0  0  0  0  0  1  0  0  0  0  0  0
  1 18  1  0  0  0  0
  2  1  2  0  0  0  0
  3  2  1  0  0  0  0
  4  3  2  0  0  0  0
  4  5  1  0  0  0  0
  5 10  1  6  0  0  0
  5  1  1  0  0  0  0
  6  8  1  0  0  0  0
  8  7  2  0  0  0  0
  8  3  1  0  0  0  0
 10  9  1  6  0  0  0
 11 16  1  0  0  0  0
 13 17  1  0  0  0  0
 13 15  1  0  0  0  0
 14 16  1  0  0  0  0
 15 10  1  6  0  0  0
 15 14  1  0  0  0  0
 17 12  1  6  0  0  0
 17 11  1  0  0  0  0
 18 26  1  1  0  0  0
 19 18  1  6  0  0  0
 19 22  1  0  0  0  0
 19 23  1  0  0  0  0
 20 25  1  0  0  0  0
 22 20  2  0  0  0  0
 23 24  2  0  0  0  0
 24 25  1  0  0  0  0
 25 21  2  0  0  0  0
 26 27  1  0  0  0  0
M  END
>  <MODEL>
5

>  <REMARK>
 VINA RESULT:      -8.0      3.164      6.433
  Name = 
  6 active torsions:
  status: ('A' for Active; 'I' for Inactive)
    1  A    between atoms: C_3  and  C_27
    2  A    between atoms: C_7  and  C_27
    3  A    between atoms: C_11  and  C_18
    4  A    between atoms: C_15  and  C_24
    5  A    between atoms: C_16  and  C_27
    6  A    between atoms: C_18  and  C_26
                            x       y       z     vdW  Elec       q    Type
                         _______ _______ _______ _____ _____    ______ ____

>  <TORSDO>
F 6

$$$$
=
 OpenBabel11062414433D

 27 29  0  0  1  0  0  0  0  0999 V2000
  188.8220  178.2500  141.9860 C   0  0  0  0  0  0  0  0  0  0  0  0
  187.5740  178.4650  142.3800 C   0  0  0  0  0  3  0  0  0  0  0  0
  186.8160  178.6880  141.1600 C   0  0  0  0  0  0  0  0  0  0  0  0
  187.5530  178.6230  140.1000 N   0  0  0  0  0  0  0  0  0  0  0  0
  188.9250  178.3350  140.4920 C   0  0  2  0  0  3  0  0  0  0  0  0
  184.5050  178.3850  142.0810 N   0  0  0  0  0  1  0  0  0  0  0  0
  184.9010  179.7080  140.2170 O   0  0  0  0  0  0  0  0  0  0  0  0
  185.3750  178.9620  141.1140 C   0  0  0  0  0  0  0  0  0  0  0  0
  188.4630  176.6060  138.8910 O   0  0  0  0  0  1  0  0  0  0  0  0
  189.3780  177.0110  139.8680 C   0  0  1  0  0  3  0  0  0  0  0  0
  193.3940  176.3710  138.5240 C   0  0  0  0  0  2  0  0  0  0  0  0
  192.3710  175.3350  136.2450 Cl  0  0  0  0  0  0  0  0  0  0  0  0
  191.0140  176.0840  138.3430 O   0  0  0  0  0  0  0  0  0  0  0  0
  191.8480  177.1310  140.3470 C   0  0  0  0  0  2  0  0  0  0  0  0
  190.7740  177.1280  139.2580 C   0  0  2  0  0  3  0  0  0  0  0  0
  193.2120  177.3370  139.6930 C   0  0  0  0  0  2  0  0  0  0  0  0
  192.1640  176.4450  137.6190 C   0  0  1  0  0  3  0  0  0  0  0  0
  189.9870  178.0220  142.9130 C   0  0  2  0  0  3  0  0  0  0  0  0
  189.7760  176.8640  143.9060 C   0  0  2  0  0  3  0  0  0  0  0  0
  189.7750  177.3430  146.3680 C   0  0  0  0  0  3  0  0  0  0  0  0
  191.7150  176.7450  147.5800 O   0  0  0  0  0  0  0  0  0  0  0  0
  189.1540  177.3850  145.1870 C   0  0  0  0  0  3  0  0  0  0  0  0
  191.0610  176.0910  144.1410 C   0  0  0  0  0  3  0  0  0  0  0  0
  191.6800  176.0470  145.3220 C   0  0  0  0  0  3  0  0  0  0  0  0
  191.0990  176.7240  146.4830 C   0  0  0  0  0  0  0  0  0  0  0  0
  190.3950  179.3240  143.6060 C   0  0  0  0  0  2  0  0  0  0  0  0
  191.7450  179.3020  143.9600 O   0  0  0  0  0  1  0  0  0  0  0  0
  1  2  2  0  0  0  0
  1 18  1  0  0  0  0
  3  2  1  0  0  0  0
  4  5  1  0  0  0  0
  4  3  2  0  0  0  0
  5 10  1  6  0  0  0
  5  1  1  0  0  0  0
  7  8  2  0  0  0  0
  8  3  1  0  0  0  0
  8  6  1  0  0  0  0
 10  9  1  6  0  0  0
 11 16  1  0  0  0  0
 13 15  1  0  0  0  0
 15 10  1  1  0  0  0
 15 14  1  0  0  0  0
 16 14  1  0  0  0  0
 17 12  1  6  0  0  0
 17 13  1  0  0  0  0
 17 11  1  0  0  0  0
 18 26  1  1  0  0  0
 19 18  1  6  0  0  0
 19 23  1  0  0  0  0
 19 22  1  0  0  0  0
 20 25  1  0  0  0  0
 22 20  2  0  0  0  0
 23 24  2  0  0  0  0
 24 25  1  0  0  0  0
 25 21  2  0  0  0  0
 26 27  1  0  0  0  0
M  END
>  <MODEL>
6

>  <REMARK>
 VINA RESULT:      -7.9      3.204      7.223
  Name = 
  6 active torsions:
  status: ('A' for Active; 'I' for Inactive)
    1  A    between atoms: C_3  and  C_27
    2  A    between atoms: C_7  and  C_27
    3  A    between atoms: C_11  and  C_18
    4  A    between atoms: C_15  and  C_24
    5  A    between atoms: C_16  and  C_27
    6  A    between atoms: C_18  and  C_26
                            x       y       z     vdW  Elec       q    Type
                         _______ _______ _______ _____ _____    ______ ____

>  <TORSDO>
F 6

$$$$
=
 OpenBabel11062414433D

 27 29  0  0  1  0  0  0  0  0999 V2000
  187.4620  178.0090  142.4780 C   0  0  0  0  0  0  0  0  0  0  0  0
  187.4860  178.2590  141.1770 C   0  0  0  0  0  3  0  0  0  0  0  0
  188.8830  178.1520  140.7880 C   0  0  0  0  0  0  0  0  0  0  0  0
  189.6550  177.8680  141.7850 N   0  0  0  0  0  0  0  0  0  0  0  0
  188.8470  177.7400  142.9900 C   0  0  2  0  0  3  0  0  0  0  0  0
  190.2460  177.3800  138.8320 N   0  0  0  0  0  1  0  0  0  0  0  0
  189.0560  179.3700  138.7660 O   0  0  0  0  0  0  0  0  0  0  0  0
  189.3840  178.3470  139.4230 C   0  0  0  0  0  0  0  0  0  0  0  0
  189.7220  175.5250  142.6830 O   0  0  0  0  0  1  0  0  0  0  0  0
  188.9870  176.3250  143.5630 C   0  0  1  0  0  3  0  0  0  0  0  0
  191.0980  177.3500  147.1450 C   0  0  0  0  0  2  0  0  0  0  0  0
  188.7590  178.2600  148.1550 Cl  0  0  0  0  0  0  0  0  0  0  0  0
  189.1570  177.3970  145.7260 O   0  0  0  0  0  0  0  0  0  0  0  0
  191.1750  176.4550  144.8040 C   0  0  0  0  0  2  0  0  0  0  0  0
  189.6550  176.3410  144.9360 C   0  0  2  0  0  3  0  0  0  0  0  0
  191.7980  176.3800  146.1950 C   0  0  0  0  0  2  0  0  0  0  0  0
  189.5860  177.1460  147.0420 C   0  0  1  0  0  3  0  0  0  0  0  0
  186.2270  178.0580  143.3390 C   0  0  2  0  0  3  0  0  0  0  0  0
  185.1720  179.0710  142.8570 C   0  0  2  0  0  3  0  0  0  0  0  0
  183.2310  179.6220  144.3460 C   0  0  0  0  0  3  0  0  0  0  0  0
  181.1450  178.6550  143.7940 O   0  0  0  0  0  0  0  0  0  0  0  0
  184.5250  179.7530  144.0470 C   0  0  0  0  0  3  0  0  0  0  0  0
  184.1650  178.4250  141.9220 C   0  0  0  0  0  3  0  0  0  0  0  0
  182.8710  178.2970  142.2200 C   0  0  0  0  0  3  0  0  0  0  0  0
  182.3490  178.8370  143.4780 C   0  0  0  0  0  0  0  0  0  0  0  0
  186.5960  178.2510  144.8120 C   0  0  0  0  0  2  0  0  0  0  0  0
  186.0590  177.2310  145.6000 O   0  0  0  0  0  1  0  0  0  0  0  0
  1  5  1  0  0  0  0
  1 18  1  0  0  0  0
  2  1  2  0  0  0  0
  3  2  1  0  0  0  0
  3  4  2  0  0  0  0
  4  5  1  0  0  0  0
  5 10  1  6  0  0  0
  6  8  1  0  0  0  0
  7  8  2  0  0  0  0
  8  3  1  0  0  0  0
 10  9  1  6  0  0  0
 13 17  1  0  0  0  0
 14 15  1  0  0  0  0
 14 16  1  0  0  0  0
 15 10  1  6  0  0  0
 15 13  1  0  0  0  0
 16 11  1  0  0  0  0
 17 11  1  0  0  0  0
 17 12  1  1  0  0  0
 18 26  1  1  0  0  0
 19 18  1  1  0  0  0
 19 22  1  0  0  0  0
 22 20  2  0  0  0  0
 23 24  2  0  0  0  0
 23 19  1  0  0  0  0
 24 25  1  0  0  0  0
 25 21  2  0  0  0  0
 25 20  1  0  0  0  0
 26 27  1  0  0  0  0
M  END
>  <MODEL>
7

>  <REMARK>
 VINA RESULT:      -7.9      1.726      2.758
  Name = 
  6 active torsions:
  status: ('A' for Active; 'I' for Inactive)
    1  A    between atoms: C_3  and  C_27
    2  A    between atoms: C_7  and  C_27
    3  A    between atoms: C_11  and  C_18
    4  A    between atoms: C_15  and  C_24
    5  A    between atoms: C_16  and  C_27
    6  A    between atoms: C_18  and  C_26
                            x       y       z     vdW  Elec       q    Type
                         _______ _______ _______ _____ _____    ______ ____

>  <TORSDO>
F 6

$$$$
=
 OpenBabel11062414433D

 27 29  0  0  1  0  0  0  0  0999 V2000
  188.1770  177.3550  145.4430 C   0  0  0  0  0  0  0  0  0  0  0  0
  188.8900  177.2650  146.5570 C   0  0  0  0  0  3  0  0  0  0  0  0
  190.2140  176.8390  146.1360 C   0  0  0  0  0  0  0  0  0  0  0  0
  190.2980  176.6730  144.8570 N   0  0  0  0  0  0  0  0  0  0  0  0
  189.0090  176.9810  144.2520 C   0  0  2  0  0  3  0  0  0  0  0  0
  192.2520  175.5430  146.8040 N   0  0  0  0  0  1  0  0  0  0  0  0
  191.5160  177.3620  148.0410 O   0  0  0  0  0  0  0  0  0  0  0  0
  191.3440  176.6130  147.0440 C   0  0  0  0  0  0  0  0  0  0  0  0
  190.2450  178.9460  143.6370 O   0  0  0  0  0  1  0  0  0  0  0  0
  189.1620  178.1450  143.2650 C   0  0  1  0  0  3  0  0  0  0  0  0
  190.0140  177.7150  139.0900 C   0  0  0  0  0  2  0  0  0  0  0  0
  192.5480  177.0580  139.7670 Cl  0  0  0  0  0  0  0  0  0  0  0  0
  190.6740  177.8510  141.3980 O   0  0  0  0  0  0  0  0  0  0  0  0
  188.3680  178.3250  140.8820 C   0  0  0  0  0  2  0  0  0  0  0  0
  189.3510  177.6430  141.8350 C   0  0  2  0  0  3  0  0  0  0  0  0
  188.5380  177.7280  139.4870 C   0  0  0  0  0  2  0  0  0  0  0  0
  190.8300  177.0930  140.2230 C   0  0  1  0  0  3  0  0  0  0  0  0
  186.7150  177.7150  145.3860 C   0  0  2  0  0  3  0  0  0  0  0  0
  186.3390  178.6040  144.1860 C   0  0  2  0  0  3  0  0  0  0  0  0
  184.1410  179.8130  144.1970 C   0  0  0  0  0  3  0  0  0  0  0  0
  182.4210  178.9260  142.8390 O   0  0  0  0  0  0  0  0  0  0  0  0
  185.3990  179.7070  144.6330 C   0  0  0  0  0  3  0  0  0  0  0  0
  185.7880  177.7820  143.0350 C   0  0  0  0  0  3  0  0  0  0  0  0
  184.5320  177.8900  142.5980 C   0  0  0  0  0  3  0  0  0  0  0  0
  183.6250  178.8710  143.1990 C   0  0  0  0  0  0  0  0  0  0  0  0
  186.2450  178.2980  146.7200 C   0  0  0  0  0  2  0  0  0  0  0  0
  184.9340  177.9100  147.0020 O   0  0  0  0  0  1  0  0  0  0  0  0
  1  2  2  0  0  0  0
  3  2  1  0  0  0  0
  3  8  1  0  0  0  0
  4  3  2  0  0  0  0
  5 10  1  6  0  0  0
  5  4  1  0  0  0  0
  5  1  1  0  0  0  0
  6  8  1  0  0  0  0
  8  7  2  0  0  0  0
 10  9  1  1  0  0  0
 11 16  1  0  0  0  0
 11 17  1  0  0  0  0
 13 15  1  0  0  0  0
 14 15  1  0  0  0  0
 15 10  1  1  0  0  0
 16 14  1  0  0  0  0
 17 12  1  6  0  0  0
 17 13  1  0  0  0  0
 18  1  1  0  0  0  0
 18 26  1  1  0  0  0
 19 22  1  0  0  0  0
 19 18  1  1  0  0  0
 20 22  2  0  0  0  0
 21 25  2  0  0  0  0
 23 19  1  0  0  0  0
 24 23  2  0  0  0  0
 24 25  1  0  0  0  0
 25 20  1  0  0  0  0
 26 27  1  0  0  0  0
M  END
>  <MODEL>
8

>  <REMARK>
 VINA RESULT:      -7.8      2.601      5.365
  Name = 
  6 active torsions:
  status: ('A' for Active; 'I' for Inactive)
    1  A    between atoms: C_3  and  C_27
    2  A    between atoms: C_7  and  C_27
    3  A    between atoms: C_11  and  C_18
    4  A    between atoms: C_15  and  C_24
    5  A    between atoms: C_16  and  C_27
    6  A    between atoms: C_18  and  C_26
                            x       y       z     vdW  Elec       q    Type
                         _______ _______ _______ _____ _____    ______ ____

>  <TORSDO>
F 6

$$$$
=
 OpenBabel11062414433D

 27 29  0  0  1  0  0  0  0  0999 V2000
  186.1780  178.2870  141.6040 C   0  0  0  0  0  0  0  0  0  0  0  0
  186.6580  178.2530  140.3690 C   0  0  0  0  0  3  0  0  0  0  0  0
  188.1020  178.3310  140.5120 C   0  0  0  0  0  0  0  0  0  0  0  0
  188.4740  178.4160  141.7470 N   0  0  0  0  0  0  0  0  0  0  0  0
  187.2940  178.3980  142.6010 C   0  0  2  0  0  3  0  0  0  0  0  0
  188.7410  179.0030  138.1840 N   0  0  0  0  0  1  0  0  0  0  0  0
  190.1460  177.7050  139.4960 O   0  0  0  0  0  0  0  0  0  0  0  0
  189.0520  178.3200  139.3930 C   0  0  0  0  0  0  0  0  0  0  0  0
  188.1440  176.1850  142.9820 O   0  0  0  0  0  1  0  0  0  0  0  0
  187.3510  177.1900  143.5430 C   0  0  1  0  0  3  0  0  0  0  0  0
  188.6910  177.2740  147.6100 C   0  0  0  0  0  2  0  0  0  0  0  0
  191.1460  176.5720  146.7200 Cl  0  0  0  0  0  0  0  0  0  0  0  0
  188.9800  176.7570  145.2790 O   0  0  0  0  0  0  0  0  0  0  0  0
  186.7970  177.5000  145.9800 C   0  0  0  0  0  2  0  0  0  0  0  0
  187.8940  177.5780  144.9170 C   0  0  2  0  0  3  0  0  0  0  0  0
  187.3680  177.9780  147.3130 C   0  0  0  0  0  2  0  0  0  0  0  0
  189.5970  177.3750  146.3820 C   0  0  1  0  0  3  0  0  0  0  0  0
  184.7140  178.2860  141.9560 C   0  0  2  0  0  3  0  0  0  0  0  0
  183.7830  178.5400  140.7550 C   0  0  2  0  0  3  0  0  0  0  0  0
  181.3240  178.8350  141.1490 C   0  0  0  0  0  3  0  0  0  0  0  0
  179.9230  177.0090  140.6080 O   0  0  0  0  0  0  0  0  0  0  0  0
  182.5650  179.3250  141.2010 C   0  0  0  0  0  3  0  0  0  0  0  0
  183.4310  177.2490  140.0400 C   0  0  0  0  0  3  0  0  0  0  0  0
  182.1910  176.7610  139.9870 C   0  0  0  0  0  3  0  0  0  0  0  0
  181.0810  177.5000  140.5930 C   0  0  0  0  0  0  0  0  0  0  0  0
  184.4340  179.2300  143.1270 C   0  0  0  0  0  2  0  0  0  0  0  0
  183.9460  178.5290  144.2310 O   0  0  0  0  0  1  0  0  0  0  0  0
  1 18  1  0  0  0  0
  1  5  1  0  0  0  0
  2  3  1  0  0  0  0
  2  1  2  0  0  0  0
  3  4  2  0  0  0  0
  4  5  1  0  0  0  0
  5 10  1  1  0  0  0
  6  8  1  0  0  0  0
  8  7  2  0  0  0  0
  8  3  1  0  0  0  0
 10  9  1  6  0  0  0
 13 17  1  0  0  0  0
 14 16  1  0  0  0  0
 15 10  1  6  0  0  0
 15 13  1  0  0  0  0
 15 14  1  0  0  0  0
 16 11  1  0  0  0  0
 17 12  1  1  0  0  0
 17 11  1  0  0  0  0
 18 26  1  1  0  0  0
 19 22  1  0  0  0  0
 19 18  1  1  0  0  0
 20 22  2  0  0  0  0
 23 19  1  0  0  0  0
 24 23  2  0  0  0  0
 24 25  1  0  0  0  0
 25 21  2  0  0  0  0
 25 20  1  0  0  0  0
 26 27  1  0  0  0  0
M  END
>  <MODEL>
9

>  <REMARK>
 VINA RESULT:      -7.7      1.583      2.261
  Name = 
  6 active torsions:
  status: ('A' for Active; 'I' for Inactive)
    1  A    between atoms: C_3  and  C_27
    2  A    between atoms: C_7  and  C_27
    3  A    between atoms: C_11  and  C_18
    4  A    between atoms: C_15  and  C_24
    5  A    between atoms: C_16  and  C_27
    6  A    between atoms: C_18  and  C_26
                            x       y       z     vdW  Elec       q    Type
                         _______ _______ _______ _____ _____    ______ ____

>  <TORSDO>
F 6

$$$$
