=
 OpenBabel11062417563D

 39 42  0  0  1  0  0  0  0  0999 V2000
  191.1010  176.0230  136.1060 N   0  0  0  0  0  2  0  0  0  0  0  0
  190.6950  176.2350  138.4820 C   0  0  2  0  0  3  0  0  0  0  0  0
  191.5900  175.7630  137.4060 C   0  0  0  0  0  0  0  0  0  0  0  0
  189.8110  176.6780  136.2240 C   0  0  2  0  0  3  0  0  0  0  0  0
  189.7910  177.8730  135.3990 N   0  0  0  0  0  1  0  0  0  0  0  0
  189.1930  178.1040  140.3570 C   0  0  2  0  0  3  0  0  0  0  0  0
  192.6670  175.1450  137.6100 O   0  0  0  0  0  0  0  0  0  0  0  0
  186.4790  176.0010  137.2330 C   0  0  2  0  0  3  0  0  0  0  0  0
  189.6740  177.0640  137.7030 C   0  0  1  0  0  3  0  0  0  0  0  0
  186.3730  177.4950  137.1350 C   0  0  2  0  0  3  0  0  0  0  0  0
  191.4220  177.1550  139.4600 C   0  0  0  0  0  2  0  0  0  0  0  0
  188.2240  177.0570  139.7950 C   0  0  0  0  0  2  0  0  0  0  0  0
  187.4950  178.0460  137.7480 O   0  0  0  0  0  0  0  0  0  0  0  0
  190.5720  177.5010  140.6930 C   0  0  2  0  0  3  0  0  0  0  0  0
  188.2410  176.9670  138.2610 C   0  0  1  0  0  0  0  0  0  0  0  0
  187.6790  175.7270  137.8940 O   0  0  0  0  0  0  0  0  0  0  0  0
  186.4910  175.4030  135.8950 N   0  0  0  0  0  0  0  0  0  0  0  0
  187.2510  174.2810  135.9470 O   0  0  0  0  0  1  0  0  0  0  0  0
  184.8830  174.8790  135.4960 S   0  0  0  0  0  0  0  0  0  0  0  0
  184.9320  173.6190  134.6770 O   0  0  0  0  0  0  0  0  0  0  0  0
  184.1160  176.0770  134.6120 F   0  0  0  0  0  0  0  0  0  0  0  0
  184.0990  174.6290  136.7540 O   0  0  0  0  0  0  0  0  0  0  0  0
  191.1620  176.4380  142.7400 O   0  0  0  0  0  0  0  0  0  0  0  0
  190.5340  176.3770  141.6940 C   0  0  0  0  0  3  0  0  0  0  0  0
  185.0980  178.0060  137.8000 C   0  0  0  0  0  2  0  0  0  0  0  0
  185.2800  179.2930  138.3090 O   0  0  0  0  0  1  0  0  0  0  0  0
  188.5870  178.7810  141.5790 C   0  0  0  0  0  2  0  0  0  0  0  0
  187.2430  178.1550  141.9310 C   0  0  2  0  0  3  0  0  0  0  0  0
  186.0890  178.9680  141.3670 C   0  0  0  0  0  1  0  0  0  0  0  0
  185.8010  177.7810  145.4560 C   0  0  0  0  0  3  0  0  0  0  0  0
  186.9710  177.5490  146.1820 C   0  0  0  0  0  3  0  0  0  0  0  0
  187.1010  177.9470  143.4090 C   0  0  0  0  0  0  0  0  0  0  0  0
  184.6450  178.2170  143.3590 N   0  0  0  0  0  1  0  0  0  0  0  0
  188.2110  177.5140  145.5330 C   0  0  0  0  0  0  0  0  0  0  0  0
  185.8560  177.9800  144.0740 C   0  0  0  0  0  0  0  0  0  0  0  0
  188.2660  177.7140  144.1470 C   0  0  0  0  0  3  0  0  0  0  0  0
  189.4410  177.2690  146.3010 C   0  0  0  0  0  0  0  0  0  0  0  0
  189.3700  176.8880  147.6360 O   0  0  0  0  0  1  0  0  0  0  0  0
  190.5700  177.4010  145.7570 O   0  0  0  0  0  0  0  0  0  0  0  0
  1  4  1  0  0  0  0
  1  3  1  0  0  0  0
  2 11  1  1  0  0  0
  3  7  2  0  0  0  0
  3  2  1  0  0  0  0
  4  5  1  6  0  0  0
  4  9  1  0  0  0  0
  6 14  1  0  0  0  0
  6 27  1  1  0  0  0
  8 17  1  6  0  0  0
  8 16  1  0  0  0  0
  9 15  1  0  0  0  0
  9  2  1  0  0  0  0
 10  8  1  0  0  0  0
 10 13  1  0  0  0  0
 10 25  1  0  0  0  0
 11 14  1  0  0  0  0
 12  6  1  0  0  0  0
 13 15  1  0  0  0  0
 14 24  1  0  0  0  0
 15 12  1  0  0  0  0
 16 15  1  0  0  0  0
 17 18  1  0  0  0  0
 19 17  1  0  0  0  0
 19 22  2  0  0  0  0
 20 19  2  0  0  0  0
 21 19  1  0  0  0  0
 24 23  2  0  0  0  0
 25 26  1  0  0  0  0
 27 28  1  0  0  0  0
 28 32  1  0  0  0  0
 29 28  1  0  0  0  0
 30 31  1  0  0  0  0
 32 35  1  0  0  0  0
 32 36  2  0  0  0  0
 33 35  1  0  0  0  0
 34 31  2  0  0  0  0
 34 37  1  0  0  0  0
 35 30  2  0  0  0  0
 36 34  1  0  0  0  0
 37 38  1  0  0  0  0
 39 37  2  0  0  0  0
M  END
>  <MODEL>
1

>  <REMARK>
 VINA RESULT:      -7.6      0.000      0.000
  Name = 
  8 active torsions:
  status: ('A' for Active; 'I' for Inactive)
    1  A    between atoms: N_1  and  C_17
    2  A    between atoms: N_1  and  S_19
    3  A    between atoms: C_2  and  C_27
    4  A    between atoms: C_9  and  C_11
    5  A    between atoms: C_9  and  C_25
    6  A    between atoms: C_15  and  C_28
    7  A    between atoms: C_16  and  C_25
    8  A    between atoms: C_20  and  C_34
                            x       y       z     vdW  Elec       q    Type
                         _______ _______ _______ _____ _____    ______ ____

>  <TORSDO>
F 8

$$$$
=
 OpenBabel11062417563D

 39 42  0  0  1  0  0  0  0  0999 V2000
  188.9060  176.8750  134.5950 N   0  0  0  0  0  2  0  0  0  0  0  0
  189.3500  176.9400  136.9730 C   0  0  2  0  0  3  0  0  0  0  0  0
  189.8830  176.7490  135.6080 C   0  0  0  0  0  0  0  0  0  0  0  0
  187.6250  177.1410  135.2230 C   0  0  2  0  0  3  0  0  0  0  0  0
  186.9990  178.2910  134.5940 N   0  0  0  0  0  1  0  0  0  0  0  0
  188.2030  178.2920  139.4470 C   0  0  2  0  0  3  0  0  0  0  0  0
  191.0810  176.4550  135.3570 O   0  0  0  0  0  0  0  0  0  0  0  0
  185.1820  175.5460  137.2390 C   0  0  2  0  0  3  0  0  0  0  0  0
  187.9400  177.4580  136.6920 C   0  0  1  0  0  3  0  0  0  0  0  0
  184.6660  176.9520  137.3510 C   0  0  2  0  0  3  0  0  0  0  0  0
  190.1190  178.0160  137.7350 C   0  0  0  0  0  2  0  0  0  0  0  0
  187.4020  177.0220  139.1410 C   0  0  0  0  0  2  0  0  0  0  0  0
  185.7510  177.7880  137.5950 O   0  0  0  0  0  0  0  0  0  0  0  0
  189.7160  178.0960  139.2160 C   0  0  2  0  0  3  0  0  0  0  0  0
  186.8830  176.9570  137.6960 C   0  0  1  0  0  0  0  0  0  0  0  0
  186.5660  175.6130  137.4100 O   0  0  0  0  0  0  0  0  0  0  0  0
  184.8610  174.9900  135.9210 N   0  0  0  0  0  0  0  0  0  0  0  0
  185.9710  174.3730  135.4480 O   0  0  0  0  0  1  0  0  0  0  0  0
  183.6610  173.7470  136.1100 S   0  0  0  0  0  0  0  0  0  0  0  0
  182.2810  174.3430  136.0720 O   0  0  0  0  0  0  0  0  0  0  0  0
  183.8860  172.9820  137.5830 F   0  0  0  0  0  0  0  0  0  0  0  0
  183.7990  172.7310  135.0110 O   0  0  0  0  0  0  0  0  0  0  0  0
  191.5280  176.9930  140.2950 O   0  0  0  0  0  0  0  0  0  0  0  0
  190.3340  176.9970  140.0360 C   0  0  0  0  0  3  0  0  0  0  0  0
  183.6340  177.0770  138.4670 C   0  0  0  0  0  2  0  0  0  0  0  0
  183.2570  175.8200  138.9440 O   0  0  0  0  0  1  0  0  0  0  0  0
  187.9300  178.7590  140.8700 C   0  0  0  0  0  2  0  0  0  0  0  0
  186.6650  178.1080  141.4160 C   0  0  2  0  0  3  0  0  0  0  0  0
  185.4330  178.9430  141.1020 C   0  0  0  0  0  1  0  0  0  0  0  0
  187.7790  176.7190  144.8040 C   0  0  0  0  0  3  0  0  0  0  0  0
  186.8850  177.3770  145.6500 C   0  0  0  0  0  3  0  0  0  0  0  0
  186.7790  177.8250  142.8840 C   0  0  0  0  0  0  0  0  0  0  0  0
  188.6580  176.2500  142.5840 N   0  0  0  0  0  1  0  0  0  0  0  0
  185.9330  178.2590  145.1260 C   0  0  0  0  0  0  0  0  0  0  0  0
  187.7340  176.9360  143.4240 C   0  0  0  0  0  0  0  0  0  0  0  0
  185.8880  178.4770  143.7420 C   0  0  0  0  0  3  0  0  0  0  0  0
  184.9920  178.9510  146.0220 C   0  0  0  0  0  0  0  0  0  0  0  0
  185.4560  179.5990  147.1600 O   0  0  0  0  0  1  0  0  0  0  0  0
  183.7590  178.9610  145.7660 O   0  0  0  0  0  0  0  0  0  0  0  0
  1  4  1  0  0  0  0
  1  3  1  0  0  0  0
  2 11  1  1  0  0  0
  3  2  1  0  0  0  0
  4  5  1  6  0  0  0
  4  9  1  0  0  0  0
  6 27  1  1  0  0  0
  7  3  2  0  0  0  0
  8 17  1  6  0  0  0
  8 10  1  0  0  0  0
  8 16  1  0  0  0  0
  9  2  1  0  0  0  0
  9 15  1  0  0  0  0
 10 13  1  0  0  0  0
 10 25  1  0  0  0  0
 11 14  1  0  0  0  0
 12  6  1  0  0  0  0
 13 15  1  0  0  0  0
 14  6  1  0  0  0  0
 14 24  1  0  0  0  0
 15 12  1  0  0  0  0
 16 15  1  0  0  0  0
 17 19  1  0  0  0  0
 18 17  1  0  0  0  0
 19 21  1  0  0  0  0
 20 19  2  0  0  0  0
 22 19  2  0  0  0  0
 24 23  2  0  0  0  0
 25 26  1  0  0  0  0
 27 28  1  0  0  0  0
 28 32  1  0  0  0  0
 29 28  1  0  0  0  0
 30 31  1  0  0  0  0
 32 35  1  0  0  0  0
 32 36  2  0  0  0  0
 33 35  1  0  0  0  0
 34 31  2  0  0  0  0
 34 37  1  0  0  0  0
 35 30  2  0  0  0  0
 36 34  1  0  0  0  0
 37 38  1  0  0  0  0
 39 37  2  0  0  0  0
M  END
>  <MODEL>
2

>  <REMARK>
 VINA RESULT:      -7.4      2.177      2.698
  Name = 
  8 active torsions:
  status: ('A' for Active; 'I' for Inactive)
    1  A    between atoms: N_1  and  C_17
    2  A    between atoms: N_1  and  S_19
    3  A    between atoms: C_2  and  C_27
    4  A    between atoms: C_9  and  C_11
    5  A    between atoms: C_9  and  C_25
    6  A    between atoms: C_15  and  C_28
    7  A    between atoms: C_16  and  C_25
    8  A    between atoms: C_20  and  C_34
                            x       y       z     vdW  Elec       q    Type
                         _______ _______ _______ _____ _____    ______ ____

>  <TORSDO>
F 8

$$$$
=
 OpenBabel11062417563D

 39 42  0  0  1  0  0  0  0  0999 V2000
  187.0630  178.3740  137.8830 N   0  0  0  0  0  2  0  0  0  0  0  0
  188.0810  176.2720  137.2510 C   0  0  2  0  0  3  0  0  0  0  0  0
  186.8810  177.1350  137.2280 C   0  0  0  0  0  0  0  0  0  0  0  0
  188.4110  178.4180  138.4180 C   0  0  2  0  0  3  0  0  0  0  0  0
  189.0570  179.6570  138.0210 N   0  0  0  0  0  1  0  0  0  0  0  0
  190.8650  175.2050  136.6410 C   0  0  2  0  0  3  0  0  0  0  0  0
  185.7820  176.7960  136.7190 O   0  0  0  0  0  0  0  0  0  0  0  0
  190.4070  176.9120  140.9330 C   0  0  2  0  0  3  0  0  0  0  0  0
  189.1460  177.2250  137.7910 C   0  0  1  0  0  3  0  0  0  0  0  0
  191.5030  177.6090  140.1790 C   0  0  2  0  0  3  0  0  0  0  0  0
  188.4880  175.8340  135.8460 C   0  0  0  0  0  2  0  0  0  0  0  0
  190.6330  175.1910  138.1570 C   0  0  0  0  0  2  0  0  0  0  0  0
  191.2980  177.3860  138.8210 O   0  0  0  0  0  0  0  0  0  0  0  0
  189.6080  174.7810  135.8550 C   0  0  2  0  0  3  0  0  0  0  0  0
  190.1720  176.5460  138.7190 C   0  0  1  0  0  0  0  0  0  0  0  0
  189.5830  176.3130  139.9780 O   0  0  0  0  0  0  0  0  0  0  0  0
  189.6430  177.8790  141.7270 N   0  0  0  0  0  0  0  0  0  0  0  0
  188.3510  177.4680  141.7520 O   0  0  0  0  0  1  0  0  0  0  0  0
  190.1990  177.8250  143.3720 S   0  0  0  0  0  0  0  0  0  0  0  0
  191.1160  178.9830  143.6510 O   0  0  0  0  0  0  0  0  0  0  0  0
  191.0330  176.3950  143.6250 F   0  0  0  0  0  0  0  0  0  0  0  0
  189.0270  177.8760  144.3110 O   0  0  0  0  0  0  0  0  0  0  0  0
  189.2290  172.4710  135.4190 O   0  0  0  0  0  0  0  0  0  0  0  0
  189.0950  173.4060  136.1930 C   0  0  0  0  0  3  0  0  0  0  0  0
  192.8780  177.0980  140.6010 C   0  0  0  0  0  2  0  0  0  0  0  0
  193.8120  177.2730  139.5780 O   0  0  0  0  0  1  0  0  0  0  0  0
  192.0510  174.3210  136.2810 C   0  0  0  0  0  2  0  0  0  0  0  0
  193.3110  174.7930  136.9970 C   0  0  2  0  0  3  0  0  0  0  0  0
  193.9750  175.9400  136.2520 C   0  0  0  0  0  1  0  0  0  0  0  0
  196.1720  172.6350  138.3400 C   0  0  0  0  0  3  0  0  0  0  0  0
  195.9940  171.4790  137.5770 C   0  0  0  0  0  3  0  0  0  0  0  0
  194.2680  173.6630  137.2340 C   0  0  0  0  0  0  0  0  0  0  0  0
  195.5250  174.8950  138.9670 N   0  0  0  0  0  1  0  0  0  0  0  0
  194.9570  171.4040  136.6400 C   0  0  0  0  0  0  0  0  0  0  0  0
  195.3180  173.7280  138.1760 C   0  0  0  0  0  0  0  0  0  0  0  0
  194.1000  172.5000  136.4750 C   0  0  0  0  0  3  0  0  0  0  0  0
  194.7710  170.1840  135.8380 C   0  0  0  0  0  0  0  0  0  0  0  0
  193.5070  169.6280  135.6910 O   0  0  0  0  0  1  0  0  0  0  0  0
  195.7570  169.6320  135.2790 O   0  0  0  0  0  0  0  0  0  0  0  0
  1  4  1  0  0  0  0
  2 11  1  6  0  0  0
  2  9  1  0  0  0  0
  3  2  1  0  0  0  0
  3  1  1  0  0  0  0
  4  5  1  6  0  0  0
  6 27  1  1  0  0  0
  6 12  1  0  0  0  0
  7  3  2  0  0  0  0
  8 17  1  6  0  0  0
  9  4  1  0  0  0  0
  9 15  1  0  0  0  0
 10 25  1  0  0  0  0
 10  8  1  0  0  0  0
 11 14  1  0  0  0  0
 12 15  1  0  0  0  0
 13 10  1  0  0  0  0
 14 24  1  0  0  0  0
 14  6  1  0  0  0  0
 15 13  1  0  0  0  0
 15 16  1  0  0  0  0
 16  8  1  0  0  0  0
 17 18  1  0  0  0  0
 17 19  1  0  0  0  0
 19 21  1  0  0  0  0
 19 20  2  0  0  0  0
 19 22  2  0  0  0  0
 23 24  2  0  0  0  0
 26 25  1  0  0  0  0
 27 28  1  0  0  0  0
 28 32  1  0  0  0  0
 29 28  1  0  0  0  0
 31 30  2  0  0  0  0
 32 35  2  0  0  0  0
 34 31  1  0  0  0  0
 35 30  1  0  0  0  0
 35 33  1  0  0  0  0
 36 34  2  0  0  0  0
 36 32  1  0  0  0  0
 37 34  1  0  0  0  0
 38 37  1  0  0  0  0
 39 37  2  0  0  0  0
M  END
>  <MODEL>
3

>  <REMARK>
 VINA RESULT:      -7.1      4.196      8.808
  Name = 
  8 active torsions:
  status: ('A' for Active; 'I' for Inactive)
    1  A    between atoms: N_1  and  C_17
    2  A    between atoms: N_1  and  S_19
    3  A    between atoms: C_2  and  C_27
    4  A    between atoms: C_9  and  C_11
    5  A    between atoms: C_9  and  C_25
    6  A    between atoms: C_15  and  C_28
    7  A    between atoms: C_16  and  C_25
    8  A    between atoms: C_20  and  C_34
                            x       y       z     vdW  Elec       q    Type
                         _______ _______ _______ _____ _____    ______ ____

>  <TORSDO>
F 8

$$$$
=
 OpenBabel11062417563D

 39 42  0  0  1  0  0  0  0  0999 V2000
  188.5210  177.2550  134.8270 N   0  0  0  0  0  2  0  0  0  0  0  0
  189.0710  177.0620  137.1760 C   0  0  2  0  0  3  0  0  0  0  0  0
  189.4860  176.8440  135.7750 C   0  0  0  0  0  0  0  0  0  0  0  0
  187.3640  177.7640  135.5410 C   0  0  2  0  0  3  0  0  0  0  0  0
  186.9940  179.0640  135.0110 N   0  0  0  0  0  1  0  0  0  0  0  0
  188.3740  178.4750  139.7800 C   0  0  2  0  0  3  0  0  0  0  0  0
  190.5720  176.3030  135.4410 O   0  0  0  0  0  0  0  0  0  0  0  0
  184.7090  176.6370  137.6040 C   0  0  2  0  0  3  0  0  0  0  0  0
  187.8070  177.9040  137.0040 C   0  0  1  0  0  3  0  0  0  0  0  0
  184.5360  178.1130  137.8200 C   0  0  2  0  0  3  0  0  0  0  0  0
  190.0990  177.8830  137.9500 C   0  0  0  0  0  2  0  0  0  0  0  0
  187.2890  177.4430  139.4530 C   0  0  0  0  0  2  0  0  0  0  0  0
  185.7940  178.6640  138.0470 O   0  0  0  0  0  0  0  0  0  0  0  0
  189.7890  177.9560  139.4530 C   0  0  2  0  0  3  0  0  0  0  0  0
  186.7080  177.5920  138.0380 C   0  0  1  0  0  0  0  0  0  0  0  0
  186.0780  176.3760  137.6990 O   0  0  0  0  0  0  0  0  0  0  0  0
  184.2120  176.2560  136.2790 N   0  0  0  0  0  0  0  0  0  0  0  0
  184.9470  175.2020  135.8470 O   0  0  0  0  0  1  0  0  0  0  0  0
  182.5810  175.6760  136.4330 S   0  0  0  0  0  0  0  0  0  0  0  0
  182.1690  174.9400  135.1890 O   0  0  0  0  0  0  0  0  0  0  0  0
  181.5530  176.9770  136.6650 F   0  0  0  0  0  0  0  0  0  0  0  0
  182.4740  174.7570  137.6180 O   0  0  0  0  0  0  0  0  0  0  0  0
  190.8140  176.7290  141.2160 O   0  0  0  0  0  0  0  0  0  0  0  0
  190.1730  176.6940  140.1770 C   0  0  0  0  0  3  0  0  0  0  0  0
  183.6100  178.3960  138.9990 C   0  0  0  0  0  2  0  0  0  0  0  0
  183.3720  177.2360  139.7390 O   0  0  0  0  0  1  0  0  0  0  0  0
  188.2770  178.8980  141.2390 C   0  0  0  0  0  2  0  0  0  0  0  0
  187.0210  178.3250  141.8840 C   0  0  2  0  0  3  0  0  0  0  0  0
  185.8370  179.2650  141.7210 C   0  0  0  0  0  1  0  0  0  0  0  0
  186.4990  177.5640  145.5980 C   0  0  0  0  0  3  0  0  0  0  0  0
  187.8140  177.3070  145.9880 C   0  0  0  0  0  3  0  0  0  0  0  0
  187.2500  177.9720  143.3230 C   0  0  0  0  0  0  0  0  0  0  0  0
  184.8560  178.1540  143.9030 N   0  0  0  0  0  1  0  0  0  0  0  0
  188.8560  177.3810  145.0560 C   0  0  0  0  0  0  0  0  0  0  0  0
  186.2080  177.8960  144.2720 C   0  0  0  0  0  0  0  0  0  0  0  0
  188.5650  177.7140  143.7270 C   0  0  0  0  0  3  0  0  0  0  0  0
  190.2410  177.1090  145.4720 C   0  0  0  0  0  0  0  0  0  0  0  0
  191.2800  177.2060  144.5540 O   0  0  0  0  0  0  0  0  0  0  0  0
  190.4990  176.7860  146.6620 O   0  0  0  0  0  1  0  0  0  0  0  0
  1  4  1  0  0  0  0
  1  3  1  0  0  0  0
  2 11  1  1  0  0  0
  3  2  1  0  0  0  0
  4  5  1  6  0  0  0
  4  9  1  0  0  0  0
  6 27  1  1  0  0  0
  7  3  2  0  0  0  0
  8 17  1  6  0  0  0
  8 16  1  0  0  0  0
  8 10  1  0  0  0  0
  9  2  1  0  0  0  0
  9 15  1  0  0  0  0
 10 13  1  0  0  0  0
 10 25  1  0  0  0  0
 11 14  1  0  0  0  0
 12  6  1  0  0  0  0
 14  6  1  0  0  0  0
 14 24  1  0  0  0  0
 15 13  1  0  0  0  0
 15 12  1  0  0  0  0
 16 15  1  0  0  0  0
 17 19  1  0  0  0  0
 18 17  1  0  0  0  0
 19 21  1  0  0  0  0
 19 22  2  0  0  0  0
 20 19  2  0  0  0  0
 24 23  2  0  0  0  0
 25 26  1  0  0  0  0
 27 28  1  0  0  0  0
 28 32  1  0  0  0  0
 29 28  1  0  0  0  0
 30 31  1  0  0  0  0
 32 36  2  0  0  0  0
 32 35  1  0  0  0  0
 33 35  1  0  0  0  0
 34 37  1  0  0  0  0
 34 31  2  0  0  0  0
 35 30  2  0  0  0  0
 36 34  1  0  0  0  0
 37 39  1  0  0  0  0
 38 37  2  0  0  0  0
M  END
>  <MODEL>
4

>  <REMARK>
 VINA RESULT:      -7.1      1.619      2.046
  Name = 
  8 active torsions:
  status: ('A' for Active; 'I' for Inactive)
    1  A    between atoms: N_1  and  C_17
    2  A    between atoms: N_1  and  S_19
    3  A    between atoms: C_2  and  C_27
    4  A    between atoms: C_9  and  C_11
    5  A    between atoms: C_9  and  C_25
    6  A    between atoms: C_15  and  C_28
    7  A    between atoms: C_16  and  C_25
    8  A    between atoms: C_20  and  C_34
                            x       y       z     vdW  Elec       q    Type
                         _______ _______ _______ _____ _____    ______ ____

>  <TORSDO>
F 8

$$$$
=
 OpenBabel11062417563D

 39 42  0  0  1  0  0  0  0  0999 V2000
  187.0500  178.1210  137.9070 N   0  0  0  0  0  2  0  0  0  0  0  0
  188.0860  176.0430  137.2260 C   0  0  2  0  0  3  0  0  0  0  0  0
  186.8600  176.8660  137.2860 C   0  0  0  0  0  0  0  0  0  0  0  0
  188.4340  178.2170  138.3350 C   0  0  2  0  0  3  0  0  0  0  0  0
  189.0040  179.4700  137.8740 N   0  0  0  0  0  1  0  0  0  0  0  0
  190.8500  175.0590  136.4160 C   0  0  2  0  0  3  0  0  0  0  0  0
  185.7370  176.4830  136.8690 O   0  0  0  0  0  0  0  0  0  0  0  0
  190.6680  176.8170  140.7070 C   0  0  2  0  0  3  0  0  0  0  0  0
  189.1580  177.0390  137.6690 C   0  0  1  0  0  3  0  0  0  0  0  0
  191.6790  177.5370  139.8610 C   0  0  2  0  0  3  0  0  0  0  0  0
  188.3990  175.5970  135.8000 C   0  0  0  0  0  2  0  0  0  0  0  0
  190.7360  175.0610  137.9440 C   0  0  0  0  0  2  0  0  0  0  0  0
  191.3760  177.2870  138.5260 O   0  0  0  0  0  0  0  0  0  0  0  0
  189.5500  174.5810  135.7360 C   0  0  2  0  0  3  0  0  0  0  0  0
  190.2750  176.4080  138.5230 C   0  0  1  0  0  0  0  0  0  0  0  0
  189.7930  176.1760  139.8280 O   0  0  0  0  0  0  0  0  0  0  0  0
  189.9350  177.7710  141.5450 N   0  0  0  0  0  0  0  0  0  0  0  0
  188.6100  177.5250  141.3940 O   0  0  0  0  0  1  0  0  0  0  0  0
  190.2980  177.4510  143.2140 S   0  0  0  0  0  0  0  0  0  0  0  0
  189.1400  177.8520  144.0860 O   0  0  0  0  0  0  0  0  0  0  0  0
  191.6500  178.3310  143.6630 F   0  0  0  0  0  0  0  0  0  0  0  0
  190.5870  175.9890  143.4040 O   0  0  0  0  0  0  0  0  0  0  0  0
  188.2970  172.5750  135.4660 O   0  0  0  0  0  0  0  0  0  0  0  0
  189.1130  173.1960  136.1310 C   0  0  0  0  0  3  0  0  0  0  0  0
  193.0980  177.0790  140.1810 C   0  0  0  0  0  2  0  0  0  0  0  0
  193.7860  176.7300  139.0170 O   0  0  0  0  0  1  0  0  0  0  0  0
  192.0330  174.2080  135.9760 C   0  0  0  0  0  2  0  0  0  0  0  0
  193.3190  175.0270  135.9910 C   0  0  2  0  0  3  0  0  0  0  0  0
  193.5260  175.7590  134.6750 C   0  0  0  0  0  1  0  0  0  0  0  0
  195.7170  172.0760  136.4310 C   0  0  0  0  0  3  0  0  0  0  0  0
  196.7850  172.7140  137.0640 C   0  0  0  0  0  3  0  0  0  0  0  0
  194.5070  174.1820  136.3450 C   0  0  0  0  0  0  0  0  0  0  0  0
  193.5020  172.1210  135.4260 N   0  0  0  0  0  1  0  0  0  0  0  0
  196.7260  174.0850  137.3430 C   0  0  0  0  0  0  0  0  0  0  0  0
  194.5780  172.8000  136.0690 C   0  0  0  0  0  0  0  0  0  0  0  0
  195.5830  174.8100  136.9810 C   0  0  0  0  0  3  0  0  0  0  0  0
  197.8550  174.7530  138.0100 C   0  0  0  0  0  0  0  0  0  0  0  0
  199.0740  174.8890  137.3580 O   0  0  0  0  0  0  0  0  0  0  0  0
  197.7260  175.2090  139.1780 O   0  0  0  0  0  1  0  0  0  0  0  0
  1  4  1  0  0  0  0
  2 11  1  6  0  0  0
  2  3  1  0  0  0  0
  2  9  1  0  0  0  0
  3  1  1  0  0  0  0
  4  5  1  6  0  0  0
  6 27  1  1  0  0  0
  6 12  1  0  0  0  0
  7  3  2  0  0  0  0
  8 17  1  6  0  0  0
  9  4  1  0  0  0  0
  9 15  1  0  0  0  0
 10 25  1  0  0  0  0
 10  8  1  0  0  0  0
 12 15  1  0  0  0  0
 13 10  1  0  0  0  0
 14 11  1  0  0  0  0
 14 24  1  0  0  0  0
 14  6  1  0  0  0  0
 15 13  1  0  0  0  0
 15 16  1  0  0  0  0
 16  8  1  0  0  0  0
 17 19  1  0  0  0  0
 18 17  1  0  0  0  0
 19 22  2  0  0  0  0
 19 21  1  0  0  0  0
 19 20  2  0  0  0  0
 23 24  2  0  0  0  0
 26 25  1  0  0  0  0
 27 28  1  0  0  0  0
 28 32  1  0  0  0  0
 29 28  1  0  0  0  0
 30 31  1  0  0  0  0
 31 34  2  0  0  0  0
 32 36  2  0  0  0  0
 33 35  1  0  0  0  0
 34 37  1  0  0  0  0
 35 32  1  0  0  0  0
 35 30  2  0  0  0  0
 36 34  1  0  0  0  0
 37 39  1  0  0  0  0
 38 37  2  0  0  0  0
M  END
>  <MODEL>
5

>  <REMARK>
 VINA RESULT:      -6.5      4.150      8.744
  Name = 
  8 active torsions:
  status: ('A' for Active; 'I' for Inactive)
    1  A    between atoms: N_1  and  C_17
    2  A    between atoms: N_1  and  S_19
    3  A    between atoms: C_2  and  C_27
    4  A    between atoms: C_9  and  C_11
    5  A    between atoms: C_9  and  C_25
    6  A    between atoms: C_15  and  C_28
    7  A    between atoms: C_16  and  C_25
    8  A    between atoms: C_20  and  C_34
                            x       y       z     vdW  Elec       q    Type
                         _______ _______ _______ _____ _____    ______ ____

>  <TORSDO>
F 8

$$$$
=
 OpenBabel11062417563D

 39 42  0  0  1  0  0  0  0  0999 V2000
  189.6100  177.8180  139.6630 N   0  0  0  0  0  2  0  0  0  0  0  0
  187.2990  177.9400  140.3690 C   0  0  2  0  0  3  0  0  0  0  0  0
  188.7200  177.8270  140.7600 C   0  0  0  0  0  0  0  0  0  0  0  0
  188.8340  177.9030  138.4400 C   0  0  2  0  0  3  0  0  0  0  0  0
  189.3650  178.9560  137.5920 N   0  0  0  0  0  1  0  0  0  0  0  0
  184.6860  179.1170  139.3460 C   0  0  2  0  0  3  0  0  0  0  0  0
  189.1130  177.7030  141.9490 O   0  0  0  0  0  0  0  0  0  0  0  0
  186.5760  175.9810  136.4930 C   0  0  2  0  0  3  0  0  0  0  0  0
  187.4060  178.2580  138.8780 C   0  0  1  0  0  3  0  0  0  0  0  0
  186.3810  177.3010  135.8050 C   0  0  2  0  0  3  0  0  0  0  0  0
  186.6130  179.1120  141.0670 C   0  0  0  0  0  2  0  0  0  0  0  0
  184.9190  177.7480  138.6960 C   0  0  0  0  0  2  0  0  0  0  0  0
  186.2490  178.2800  136.7860 O   0  0  0  0  0  0  0  0  0  0  0  0
  185.0940  179.1330  140.8330 C   0  0  2  0  0  3  0  0  0  0  0  0
  186.2950  177.6130  138.0260 C   0  0  1  0  0  0  0  0  0  0  0  0
  186.5660  176.2390  137.8660 O   0  0  0  0  0  0  0  0  0  0  0  0
  187.8580  175.3880  136.0990 N   0  0  0  0  0  0  0  0  0  0  0  0
  188.5910  175.1980  137.2230 O   0  0  0  0  0  1  0  0  0  0  0  0
  187.5680  173.8060  135.4400 S   0  0  0  0  0  0  0  0  0  0  0  0
  186.3210  173.8110  134.6000 O   0  0  0  0  0  0  0  0  0  0  0  0
  187.3790  172.7120  136.6930 F   0  0  0  0  0  0  0  0  0  0  0  0
  188.7380  173.3810  134.5970 O   0  0  0  0  0  0  0  0  0  0  0  0
  184.2730  178.2780  142.8980 O   0  0  0  0  0  0  0  0  0  0  0  0
  184.3700  178.1290  141.6890 C   0  0  0  0  0  3  0  0  0  0  0  0
  185.1500  177.2810  134.9040 C   0  0  0  0  0  2  0  0  0  0  0  0
  184.2090  176.3570  135.3630 O   0  0  0  0  0  1  0  0  0  0  0  0
  183.2330  179.5390  139.1800 C   0  0  0  0  0  2  0  0  0  0  0  0
  182.4330  178.4510  138.4720 C   0  0  2  0  0  3  0  0  0  0  0  0
  181.7330  178.9940  137.2360 C   0  0  0  0  0  1  0  0  0  0  0  0
  180.1230  175.8950  140.1380 C   0  0  0  0  0  3  0  0  0  0  0  0
  179.6520  176.6470  141.2150 C   0  0  0  0  0  3  0  0  0  0  0  0
  181.4670  177.7820  139.4040 C   0  0  0  0  0  0  0  0  0  0  0  0
  181.4890  175.6600  138.1380 N   0  0  0  0  0  1  0  0  0  0  0  0
  180.0810  177.9680  141.3970 C   0  0  0  0  0  0  0  0  0  0  0  0
  181.0270  176.4520  139.2300 C   0  0  0  0  0  0  0  0  0  0  0  0
  180.9880  178.5260  140.4870 C   0  0  0  0  0  3  0  0  0  0  0  0
  179.5830  178.7570  142.5350 C   0  0  0  0  0  0  0  0  0  0  0  0
  179.4190  180.1320  142.4150 O   0  0  0  0  0  0  0  0  0  0  0  0
  179.3000  178.1950  143.6270 O   0  0  0  0  0  1  0  0  0  0  0  0
  1  3  1  0  0  0  0
  2  3  1  0  0  0  0
  2 11  1  1  0  0  0
  3  7  2  0  0  0  0
  4  5  1  6  0  0  0
  4  9  1  0  0  0  0
  4  1  1  0  0  0  0
  6 27  1  1  0  0  0
  6 14  1  0  0  0  0
  8 17  1  6  0  0  0
  8 16  1  0  0  0  0
  9  2  1  0  0  0  0
 10  8  1  0  0  0  0
 10 13  1  0  0  0  0
 12  6  1  0  0  0  0
 13 15  1  0  0  0  0
 14 11  1  0  0  0  0
 14 24  1  0  0  0  0
 15 12  1  0  0  0  0
 15  9  1  0  0  0  0
 16 15  1  0  0  0  0
 17 18  1  0  0  0  0
 19 17  1  0  0  0  0
 19 21  1  0  0  0  0
 20 19  2  0  0  0  0
 22 19  2  0  0  0  0
 24 23  2  0  0  0  0
 25 26  1  0  0  0  0
 25 10  1  0  0  0  0
 28 27  1  0  0  0  0
 28 32  1  0  0  0  0
 29 28  1  0  0  0  0
 30 31  1  0  0  0  0
 31 34  2  0  0  0  0
 32 36  2  0  0  0  0
 33 35  1  0  0  0  0
 34 37  1  0  0  0  0
 35 32  1  0  0  0  0
 35 30  2  0  0  0  0
 36 34  1  0  0  0  0
 37 39  1  0  0  0  0
 38 37  2  0  0  0  0
M  END
>  <MODEL>
6

>  <REMARK>
 VINA RESULT:      -6.5      3.679      5.862
  Name = 
  8 active torsions:
  status: ('A' for Active; 'I' for Inactive)
    1  A    between atoms: N_1  and  C_17
    2  A    between atoms: N_1  and  S_19
    3  A    between atoms: C_2  and  C_27
    4  A    between atoms: C_9  and  C_11
    5  A    between atoms: C_9  and  C_25
    6  A    between atoms: C_15  and  C_28
    7  A    between atoms: C_16  and  C_25
    8  A    between atoms: C_20  and  C_34
                            x       y       z     vdW  Elec       q    Type
                         _______ _______ _______ _____ _____    ______ ____

>  <TORSDO>
F 8

$$$$
=
 OpenBabel11062417563D

 39 42  0  0  1  0  0  0  0  0999 V2000
  191.0020  176.2290  136.5090 N   0  0  0  0  0  2  0  0  0  0  0  0
  190.1430  176.5220  138.7530 C   0  0  2  0  0  3  0  0  0  0  0  0
  191.2710  176.1100  137.8920 C   0  0  0  0  0  0  0  0  0  0  0  0
  189.6450  176.7160  136.3460 C   0  0  2  0  0  3  0  0  0  0  0  0
  189.6350  177.8490  135.4370 N   0  0  0  0  0  1  0  0  0  0  0  0
  188.1100  178.2810  140.1790 C   0  0  2  0  0  3  0  0  0  0  0  0
  192.3580  175.6510  138.3300 O   0  0  0  0  0  0  0  0  0  0  0  0
  186.2880  175.6660  136.8040 C   0  0  2  0  0  3  0  0  0  0  0  0
  189.1930  177.1640  137.7430 C   0  0  1  0  0  3  0  0  0  0  0  0
  186.0250  177.1260  136.5700 C   0  0  2  0  0  3  0  0  0  0  0  0
  190.5630  177.5830  139.7660 C   0  0  0  0  0  2  0  0  0  0  0  0
  187.3930  177.0860  139.5400 C   0  0  0  0  0  2  0  0  0  0  0  0
  186.9420  177.8530  137.3250 O   0  0  0  0  0  0  0  0  0  0  0  0
  189.4650  177.8840  140.7990 C   0  0  2  0  0  3  0  0  0  0  0  0
  187.7030  176.9120  138.0450 C   0  0  1  0  0  0  0  0  0  0  0  0
  187.3690  175.5900  137.6850 O   0  0  0  0  0  0  0  0  0  0  0  0
  186.6180  175.0000  135.5410 N   0  0  0  0  0  0  0  0  0  0  0  0
  187.6390  175.6810  134.9660 O   0  0  0  0  0  1  0  0  0  0  0  0
  187.2300  173.4100  135.8830 S   0  0  0  0  0  0  0  0  0  0  0  0
  186.8110  172.4470  134.8070 O   0  0  0  0  0  0  0  0  0  0  0  0
  186.6180  172.8880  137.3520 F   0  0  0  0  0  0  0  0  0  0  0  0
  188.7300  173.4460  135.9680 O   0  0  0  0  0  0  0  0  0  0  0  0
  189.8870  176.9840  142.9620 O   0  0  0  0  0  0  0  0  0  0  0  0
  189.3770  176.8240  141.8640 C   0  0  0  0  0  3  0  0  0  0  0  0
  184.5990  177.5020  136.9580 C   0  0  0  0  0  2  0  0  0  0  0  0
  184.1130  176.6570  137.9580 O   0  0  0  0  0  1  0  0  0  0  0  0
  187.2140  178.9410  141.2170 C   0  0  0  0  0  2  0  0  0  0  0  0
  185.7590  178.5410  141.0050 C   0  0  2  0  0  3  0  0  0  0  0  0
  185.1050  179.3850  139.9220 C   0  0  0  0  0  1  0  0  0  0  0  0
  182.9130  178.6680  143.5610 C   0  0  0  0  0  3  0  0  0  0  0  0
  183.6440  178.6810  144.7500 C   0  0  0  0  0  3  0  0  0  0  0  0
  184.9800  178.5880  142.2860 C   0  0  0  0  0  0  0  0  0  0  0  0
  182.7970  178.6100  141.1310 N   0  0  0  0  0  1  0  0  0  0  0  0
  185.0440  178.6490  144.7200 C   0  0  0  0  0  0  0  0  0  0  0  0
  183.5700  178.6220  142.3280 C   0  0  0  0  0  0  0  0  0  0  0  0
  185.7020  178.6030  143.4840 C   0  0  0  0  0  3  0  0  0  0  0  0
  185.8110  178.6630  145.9750 C   0  0  0  0  0  0  0  0  0  0  0  0
  187.0560  178.0500  146.0420 O   0  0  0  0  0  0  0  0  0  0  0  0
  185.3470  179.2310  147.0000 O   0  0  0  0  0  1  0  0  0  0  0  0
  1  3  1  0  0  0  0
  2 11  1  1  0  0  0
  3  7  2  0  0  0  0
  3  2  1  0  0  0  0
  4  5  1  6  0  0  0
  4  1  1  0  0  0  0
  4  9  1  0  0  0  0
  6 14  1  0  0  0  0
  6 27  1  1  0  0  0
  8 17  1  6  0  0  0
  8 16  1  0  0  0  0
  9 15  1  0  0  0  0
  9  2  1  0  0  0  0
 10  8  1  0  0  0  0
 10 25  1  0  0  0  0
 10 13  1  0  0  0  0
 11 14  1  0  0  0  0
 12  6  1  0  0  0  0
 13 15  1  0  0  0  0
 14 24  1  0  0  0  0
 15 12  1  0  0  0  0
 16 15  1  0  0  0  0
 17 19  1  0  0  0  0
 18 17  1  0  0  0  0
 19 22  2  0  0  0  0
 19 21  1  0  0  0  0
 20 19  2  0  0  0  0
 24 23  2  0  0  0  0
 25 26  1  0  0  0  0
 28 27  1  0  0  0  0
 28 32  1  0  0  0  0
 29 28  1  0  0  0  0
 30 31  1  0  0  0  0
 32 35  1  0  0  0  0
 32 36  2  0  0  0  0
 33 35  1  0  0  0  0
 34 31  2  0  0  0  0
 34 37  1  0  0  0  0
 35 30  2  0  0  0  0
 36 34  1  0  0  0  0
 37 38  2  0  0  0  0
 37 39  1  0  0  0  0
M  END
>  <MODEL>
7

>  <REMARK>
 VINA RESULT:      -6.1      1.850      2.379
  Name = 
  8 active torsions:
  status: ('A' for Active; 'I' for Inactive)
    1  A    between atoms: N_1  and  C_17
    2  A    between atoms: N_1  and  S_19
    3  A    between atoms: C_2  and  C_27
    4  A    between atoms: C_9  and  C_11
    5  A    between atoms: C_9  and  C_25
    6  A    between atoms: C_15  and  C_28
    7  A    between atoms: C_16  and  C_25
    8  A    between atoms: C_20  and  C_34
                            x       y       z     vdW  Elec       q    Type
                         _______ _______ _______ _____ _____    ______ ____

>  <TORSDO>
F 8

$$$$
=
 OpenBabel11062417563D

 39 42  0  0  1  0  0  0  0  0999 V2000
  191.9400  178.1390  144.6990 N   0  0  0  0  0  2  0  0  0  0  0  0
  189.7280  177.4180  145.3650 C   0  0  2  0  0  3  0  0  0  0  0  0
  191.1620  177.5220  145.7050 C   0  0  0  0  0  0  0  0  0  0  0  0
  191.0700  178.4760  143.5880 C   0  0  2  0  0  3  0  0  0  0  0  0
  191.2710  179.8640  143.2100 N   0  0  0  0  0  1  0  0  0  0  0  0
  186.8390  178.2070  144.8240 C   0  0  2  0  0  3  0  0  0  0  0  0
  191.6670  177.0680  146.7640 O   0  0  0  0  0  0  0  0  0  0  0  0
  189.1750  176.9190  141.0260 C   0  0  2  0  0  3  0  0  0  0  0  0
  189.6380  178.2800  144.1070 C   0  0  1  0  0  3  0  0  0  0  0  0
  188.6220  178.3080  140.8850 C   0  0  2  0  0  3  0  0  0  0  0  0
  188.8450  178.0400  146.4440 C   0  0  0  0  0  2  0  0  0  0  0  0
  187.3330  177.2780  143.7090 C   0  0  0  0  0  2  0  0  0  0  0  0
  188.3440  178.7900  142.1620 O   0  0  0  0  0  0  0  0  0  0  0  0
  187.3500  177.7720  146.2130 C   0  0  2  0  0  3  0  0  0  0  0  0
  188.6440  177.7450  143.0580 C   0  0  1  0  0  0  0  0  0  0  0  0
  189.2150  176.6400  142.3940 O   0  0  0  0  0  0  0  0  0  0  0  0
  190.5240  176.8490  140.4560 N   0  0  0  0  0  0  0  0  0  0  0  0
  191.2000  175.8700  141.1060 O   0  0  0  0  0  1  0  0  0  0  0  0
  190.4100  176.3380  138.7980 S   0  0  0  0  0  0  0  0  0  0  0  0
  190.7040  177.4890  137.8770 O   0  0  0  0  0  0  0  0  0  0  0  0
  188.8610  175.7790  138.4990 F   0  0  0  0  0  0  0  0  0  0  0  0
  191.3860  175.2250  138.5380 O   0  0  0  0  0  0  0  0  0  0  0  0
  187.3470  175.8800  147.6580 O   0  0  0  0  0  0  0  0  0  0  0  0
  186.9510  176.3770  146.6150 C   0  0  0  0  0  3  0  0  0  0  0  0
  187.3630  178.3200  140.0260 C   0  0  0  0  0  2  0  0  0  0  0  0
  187.6650  178.6280  138.6980 O   0  0  0  0  0  1  0  0  0  0  0  0
  185.3190  178.2890  144.8090 C   0  0  0  0  0  2  0  0  0  0  0  0
  184.8510  179.4380  143.9240 C   0  0  2  0  0  3  0  0  0  0  0  0
  184.7100  180.7270  144.7190 C   0  0  0  0  0  1  0  0  0  0  0  0
  182.2990  178.6140  141.1930 C   0  0  0  0  0  3  0  0  0  0  0  0
  181.1460  178.4640  141.9650 C   0  0  0  0  0  3  0  0  0  0  0  0
  183.5830  179.0960  143.1990 C   0  0  0  0  0  0  0  0  0  0  0  0
  184.6790  179.0780  140.9850 N   0  0  0  0  0  1  0  0  0  0  0  0
  181.1980  178.6280  143.3540 C   0  0  0  0  0  0  0  0  0  0  0  0
  183.5180  178.9300  141.7990 C   0  0  0  0  0  0  0  0  0  0  0  0
  182.4200  178.9450  143.9620 C   0  0  0  0  0  3  0  0  0  0  0  0
  179.9800  178.4680  144.1640 C   0  0  0  0  0  0  0  0  0  0  0  0
  179.1360  179.5500  144.3810 O   0  0  0  0  0  0  0  0  0  0  0  0
  179.6920  177.3500  144.6680 O   0  0  0  0  0  1  0  0  0  0  0  0
  1  3  1  0  0  0  0
  2  3  1  0  0  0  0
  2 11  1  1  0  0  0
  3  7  2  0  0  0  0
  4  5  1  1  0  0  0
  4  9  1  0  0  0  0
  4  1  1  0  0  0  0
  6 27  1  1  0  0  0
  6 14  1  0  0  0  0
  8 17  1  1  0  0  0
  8 16  1  0  0  0  0
  9  2  1  0  0  0  0
 10  8  1  0  0  0  0
 10 13  1  0  0  0  0
 12  6  1  0  0  0  0
 13 15  1  0  0  0  0
 14 11  1  0  0  0  0
 14 24  1  0  0  0  0
 15 12  1  0  0  0  0
 15  9  1  0  0  0  0
 16 15  1  0  0  0  0
 17 18  1  0  0  0  0
 19 17  1  0  0  0  0
 20 19  2  0  0  0  0
 21 19  1  0  0  0  0
 22 19  2  0  0  0  0
 24 23  2  0  0  0  0
 25 10  1  0  0  0  0
 26 25  1  0  0  0  0
 28 29  1  0  0  0  0
 28 27  1  0  0  0  0
 30 35  2  0  0  0  0
 30 31  1  0  0  0  0
 31 34  2  0  0  0  0
 32 28  1  0  0  0  0
 32 36  2  0  0  0  0
 33 35  1  0  0  0  0
 34 36  1  0  0  0  0
 34 37  1  0  0  0  0
 35 32  1  0  0  0  0
 37 38  2  0  0  0  0
 37 39  1  0  0  0  0
M  END
>  <MODEL>
8

>  <REMARK>
 VINA RESULT:      -6.1      3.802      6.549
  Name = 
  8 active torsions:
  status: ('A' for Active; 'I' for Inactive)
    1  A    between atoms: N_1  and  C_17
    2  A    between atoms: N_1  and  S_19
    3  A    between atoms: C_2  and  C_27
    4  A    between atoms: C_9  and  C_11
    5  A    between atoms: C_9  and  C_25
    6  A    between atoms: C_15  and  C_28
    7  A    between atoms: C_16  and  C_25
    8  A    between atoms: C_20  and  C_34
                            x       y       z     vdW  Elec       q    Type
                         _______ _______ _______ _____ _____    ______ ____

>  <TORSDO>
F 8

$$$$
=
 OpenBabel11062417563D

 39 42  0  0  1  0  0  0  0  0999 V2000
  183.1960  179.4060  144.9060 N   0  0  0  0  0  2  0  0  0  0  0  0
  182.7460  178.4480  142.7300 C   0  0  2  0  0  3  0  0  0  0  0  0
  182.2470  178.7530  144.0880 C   0  0  0  0  0  0  0  0  0  0  0  0
  184.4240  179.5650  144.1500 C   0  0  2  0  0  3  0  0  0  0  0  0
  184.8760  180.9430  144.2300 N   0  0  0  0  0  1  0  0  0  0  0  0
  183.6810  178.8280  139.8600 C   0  0  2  0  0  3  0  0  0  0  0  0
  181.1050  178.4290  144.5050 O   0  0  0  0  0  0  0  0  0  0  0  0
  187.0730  177.6340  142.7950 C   0  0  2  0  0  3  0  0  0  0  0  0
  184.0660  179.2180  142.6980 C   0  0  1  0  0  3  0  0  0  0  0  0
  187.3780  178.9310  142.1020 C   0  0  2  0  0  3  0  0  0  0  0  0
  181.8280  179.0120  141.6500 C   0  0  0  0  0  2  0  0  0  0  0  0
  184.6600  177.9080  140.5980 C   0  0  0  0  0  2  0  0  0  0  0  0
  186.1820  179.4450  141.6090 O   0  0  0  0  0  0  0  0  0  0  0  0
  182.2140  178.5420  140.2390 C   0  0  2  0  0  3  0  0  0  0  0  0
  185.1840  178.5010  141.9160 C   0  0  1  0  0  0  0  0  0  0  0  0
  185.6930  177.4410  142.6940 O   0  0  0  0  0  0  0  0  0  0  0  0
  187.4720  177.7040  144.2040 N   0  0  0  0  0  0  0  0  0  0  0  0
  186.7130  176.8200  144.8960 O   0  0  0  0  0  1  0  0  0  0  0  0
  189.1140  177.1520  144.3530 S   0  0  0  0  0  0  0  0  0  0  0  0
  189.3880  176.0560  143.3610 O   0  0  0  0  0  0  0  0  0  0  0  0
  189.3590  176.5630  145.9010 F   0  0  0  0  0  0  0  0  0  0  0  0
  190.0610  178.2940  144.1140 O   0  0  0  0  0  0  0  0  0  0  0  0
  180.6740  176.7300  140.3440 O   0  0  0  0  0  0  0  0  0  0  0  0
  181.7620  177.1340  139.9620 C   0  0  0  0  0  3  0  0  0  0  0  0
  188.3800  178.7320  140.9690 C   0  0  0  0  0  2  0  0  0  0  0  0
  188.2780  177.4470  140.4310 O   0  0  0  0  0  1  0  0  0  0  0  0
  183.8830  178.7140  138.3550 C   0  0  0  0  0  2  0  0  0  0  0  0
  185.0070  177.7360  138.0350 C   0  0  2  0  0  3  0  0  0  0  0  0
  186.2210  178.4540  137.4670 C   0  0  0  0  0  1  0  0  0  0  0  0
  184.8240  174.5200  135.9680 C   0  0  0  0  0  3  0  0  0  0  0  0
  183.5540  174.6560  135.4050 C   0  0  0  0  0  3  0  0  0  0  0  0
  184.5410  176.6370  137.1260 C   0  0  0  0  0  0  0  0  0  0  0  0
  186.6250  175.3370  137.3860 N   0  0  0  0  0  1  0  0  0  0  0  0
  182.7690  175.7780  135.6930 C   0  0  0  0  0  0  0  0  0  0  0  0
  185.3240  175.5020  136.8270 C   0  0  0  0  0  0  0  0  0  0  0  0
  183.2700  176.7630  136.5550 C   0  0  0  0  0  3  0  0  0  0  0  0
  181.4300  175.9170  135.0980 C   0  0  0  0  0  0  0  0  0  0  0  0
  180.7050  174.7900  134.7330 O   0  0  0  0  0  0  0  0  0  0  0  0
  180.9300  177.0590  134.9130 O   0  0  0  0  0  1  0  0  0  0  0  0
  2 11  1  6  0  0  0
  2  3  1  0  0  0  0
  3  7  2  0  0  0  0
  3  1  1  0  0  0  0
  4  5  1  6  0  0  0
  4  1  1  0  0  0  0
  6 27  1  6  0  0  0
  6 14  1  0  0  0  0
  6 12  1  0  0  0  0
  8 17  1  1  0  0  0
  9  2  1  0  0  0  0
  9  4  1  0  0  0  0
 10  8  1  0  0  0  0
 12 15  1  0  0  0  0
 13 15  1  0  0  0  0
 13 10  1  0  0  0  0
 14 11  1  0  0  0  0
 15 16  1  0  0  0  0
 15  9  1  0  0  0  0
 16  8  1  0  0  0  0
 17 19  1  0  0  0  0
 17 18  1  0  0  0  0
 19 21  1  0  0  0  0
 20 19  2  0  0  0  0
 22 19  2  0  0  0  0
 24 14  1  0  0  0  0
 24 23  2  0  0  0  0
 25 10  1  0  0  0  0
 26 25  1  0  0  0  0
 28 27  1  0  0  0  0
 29 28  1  0  0  0  0
 30 35  1  0  0  0  0
 31 34  1  0  0  0  0
 31 30  2  0  0  0  0
 32 28  1  0  0  0  0
 34 36  2  0  0  0  0
 35 32  2  0  0  0  0
 35 33  1  0  0  0  0
 36 32  1  0  0  0  0
 37 34  1  0  0  0  0
 38 37  2  0  0  0  0
 39 37  1  0  0  0  0
M  END
>  <MODEL>
9

>  <REMARK>
 VINA RESULT:      -6.0      4.053      9.302
  Name = 
  8 active torsions:
  status: ('A' for Active; 'I' for Inactive)
    1  A    between atoms: N_1  and  C_17
    2  A    between atoms: N_1  and  S_19
    3  A    between atoms: C_2  and  C_27
    4  A    between atoms: C_9  and  C_11
    5  A    between atoms: C_9  and  C_25
    6  A    between atoms: C_15  and  C_28
    7  A    between atoms: C_16  and  C_25
    8  A    between atoms: C_20  and  C_34
                            x       y       z     vdW  Elec       q    Type
                         _______ _______ _______ _____ _____    ______ ____

>  <TORSDO>
F 8

$$$$
