=
 OpenBabel11062415053D

 66 71  0  0  1  0  0  0  0  0999 V2000
  188.5090  177.8810  140.8930 C   0  0  0  0  0  0  0  0  0  0  0  0
  188.0350  177.0910  141.8470 C   0  0  0  0  0  2  0  0  0  0  0  0
  187.5930  178.4320  139.9470 N   0  0  0  0  0  2  0  0  0  0  0  0
  186.3600  177.8940  139.7370 O   0  0  0  0  0  0  0  0  0  0  0  0
  185.4020  178.9160  139.9230 C   0  0  2  0  0  3  0  0  0  0  0  0
  183.2700  177.1820  141.0430 O   0  0  0  0  0  0  0  0  0  0  0  0
  184.9750  179.7990  143.5460 O   0  0  0  0  0  0  0  0  0  0  0  0
  183.7740  178.0570  141.7940 C   0  0  0  0  0  0  0  0  0  0  0  0
  185.4280  179.7500  142.2220 C   0  0  0  0  0  3  0  0  0  0  0  0
  184.8450  178.9560  141.3210 C   0  0  0  0  0  0  0  0  0  0  0  0
  183.3600  178.1430  143.1230 O   0  0  0  0  0  0  0  0  0  0  0  0
  183.7020  179.2720  143.9270 C   0  0  0  0  0  2  0  0  0  0  0  0
  183.8930  177.6590  138.3520 C   0  0  0  0  0  2  0  0  0  0  0  0
  182.8420  177.7720  137.2450 C   0  0  2  0  0  3  0  0  0  0  0  0
  183.1610  179.8700  139.2600 C   0  0  0  0  0  2  0  0  0  0  0  0
  184.3650  179.0470  138.7960 C   0  0  1  0  0  3  0  0  0  0  0  0
  181.6700  178.6560  137.6750 C   0  0  0  0  0  2  0  0  0  0  0  0
  182.1650  180.0260  138.1200 C   0  0  0  0  0  2  0  0  0  0  0  0
  182.3580  176.4520  136.8490 N   0  0  0  0  0  2  0  0  0  0  0  0
  183.8230  176.1490  135.0550 O   0  0  0  0  0  0  0  0  0  0  0  0
  182.9410  175.6540  135.8090 C   0  0  0  0  0  0  0  0  0  0  0  0
  183.0200  172.0780  136.8160 C   0  0  0  0  0  3  0  0  0  0  0  0
  181.3330  173.9880  135.0820 C   0  0  0  0  0  3  0  0  0  0  0  0
  182.5240  174.2480  135.6400 C   0  0  0  0  0  0  0  0  0  0  0  0
  181.0090  171.5180  135.4480 C   0  0  0  0  0  3  0  0  0  0  0  0
  183.5300  173.1660  135.9270 C   0  0  2  0  0  3  0  0  0  0  0  0
  181.9380  171.3390  136.5760 C   0  0  0  0  0  3  0  0  0  0  0  0
  180.7500  172.6600  134.8060 C   0  0  0  0  0  3  0  0  0  0  0  0
  184.1610  172.6210  134.6540 C   0  0  0  0  0  2  0  0  0  0  0  0
  187.5820  171.1050  135.6310 C   0  0  0  0  0  1  0  0  0  0  0  0
  185.4940  170.0940  134.9900 N   0  0  0  0  0  2  0  0  0  0  0  0
  185.5930  172.4570  134.8610 N   0  0  0  0  0  2  0  0  0  0  0  0
  186.1810  171.1830  135.1350 C   0  0  0  0  0  0  0  0  0  0  0  0
  189.9860  177.9800  140.6420 C   0  0  1  0  0  3  0  0  0  0  0  0
  192.0870  176.9440  141.2640 F   0  0  0  0  0  0  0  0  0  0  0  0
  190.8570  177.3500  141.7440 C   0  0  1  0  0  3  0  0  0  0  0  0
  189.9840  179.2530  142.8950 F   0  0  0  0  0  0  0  0  0  0  0  0
  190.9180  178.2400  143.0030 C   0  0  1  0  0  3  0  0  0  0  0  0
  189.7390  177.4280  146.5330 C   0  0  0  0  0  0  0  0  0  0  0  0
  190.8410  177.5800  144.3640 C   0  0  0  0  0  0  0  0  0  0  0  0
  191.7610  176.1620  146.1200 C   0  0  0  0  0  3  0  0  0  0  0  0
  191.8310  176.7000  144.8310 C   0  0  0  0  0  3  0  0  0  0  0  0
  189.8070  177.9570  145.2390 C   0  0  0  0  0  3  0  0  0  0  0  0
  190.7140  176.5260  146.9680 C   0  0  0  0  0  3  0  0  0  0  0  0
  188.6830  177.8150  147.4070 N   0  0  0  0  0  0  0  0  0  0  0  0
  188.1370  178.1980  148.7440 C   0  0  0  0  0  2  0  0  0  0  0  0
  187.2550  178.1450  147.6850 C   0  0  0  0  0  2  0  0  0  0  0  0
  190.3490  177.6460  139.1860 C   0  0  2  0  0  3  0  0  0  0  0  0
  189.8100  178.6480  138.1720 C   0  0  0  0  0  1  0  0  0  0  0  0
  189.2680  176.1450  136.7030 C   0  0  2  0  0  3  0  0  0  0  0  0
  189.9990  176.1820  138.8750 C   0  0  2  0  0  3  0  0  0  0  0  0
  190.1290  175.1360  136.2610 O   0  0  0  0  0  0  0  0  0  0  0  0
  191.9850  175.5130  137.7690 C   0  0  1  0  0  3  0  0  0  0  0  0
  191.0620  175.2430  138.8140 O   0  0  0  0  0  0  0  0  0  0  0  0
  188.8990  175.8980  138.0360 O   0  0  0  0  0  0  0  0  0  0  0  0
  191.3960  175.7120  136.3610 C   0  0  0  0  0  2  0  0  0  0  0  0
  193.0700  176.5220  138.1520 C   0  0  2  0  0  3  0  0  0  0  0  0
  193.7340  177.0010  137.0170 O   0  0  0  0  0  1  0  0  0  0  0  0
  193.9870  175.9230  139.0190 O   0  0  0  0  0  0  0  0  0  0  0  0
  194.5410  174.8690  138.2850 C   0  0  0  0  0  2  0  0  0  0  0  0
  195.7460  172.8830  138.7900 O   0  0  0  0  0  1  0  0  0  0  0  0
  195.6870  174.2510  139.0580 C   0  0  0  0  0  2  0  0  0  0  0  0
  188.0250  176.1860  135.8230 C   0  0  1  0  0  3  0  0  0  0  0  0
  187.4450  174.9160  135.7670 O   0  0  0  0  0  1  0  0  0  0  0  0
  186.7160  178.2450  135.3500 C   0  0  0  0  0  1  0  0  0  0  0  0
  187.0160  177.1790  136.3830 C   0  0  0  0  0  2  0  0  0  0  0  0
  1  2  2  0  0  0  0
  3  1  1  0  0  0  0
  4  3  1  0  0  0  0
  5  4  1  6  0  0  0
  5 10  1  0  0  0  0
  6  8  2  0  0  0  0
  7 12  1  0  0  0  0
  8 11  1  0  0  0  0
  9  7  1  0  0  0  0
 10  8  1  0  0  0  0
 10  9  2  0  0  0  0
 11 12  1  0  0  0  0
 13 16  1  0  0  0  0
 14 19  1  1  0  0  0
 14 17  1  0  0  0  0
 14 13  1  0  0  0  0
 16 15  1  0  0  0  0
 16  5  1  1  0  0  0
 17 18  1  0  0  0  0
 18 15  1  0  0  0  0
 20 21  2  0  0  0  0
 21 19  1  0  0  0  0
 23 24  2  0  0  0  0
 24 21  1  0  0  0  0
 24 26  1  0  0  0  0
 25 27  1  0  0  0  0
 26 29  1  6  0  0  0
 26 22  1  0  0  0  0
 27 22  2  0  0  0  0
 28 23  1  0  0  0  0
 28 25  2  0  0  0  0
 29 32  1  0  0  0  0
 31 33  2  0  0  0  0
 32 33  1  0  0  0  0
 33 30  1  0  0  0  0
 34  1  1  1  0  0  0
 34 36  1  0  0  0  0
 36 35  1  6  0  0  0
 36 38  1  0  0  0  0
 38 37  1  6  0  0  0
 38 40  1  0  0  0  0
 39 44  1  0  0  0  0
 39 45  1  0  0  0  0
 40 42  2  0  0  0  0
 40 43  1  0  0  0  0
 41 44  2  0  0  0  0
 42 41  1  0  0  0  0
 43 39  2  0  0  0  0
 45 47  1  0  0  0  0
 45 46  1  0  0  0  0
 47 46  1  0  0  0  0
 48 49  1  6  0  0  0
 48 34  1  0  0  0  0
 50 63  1  6  0  0  0
 50 55  1  0  0  0  0
 51 48  1  6  0  0  0
 52 56  1  0  0  0  0
 52 50  1  0  0  0  0
 53 57  1  1  0  0  0
 53 54  1  0  0  0  0
 54 51  1  0  0  0  0
 55 51  1  0  0  0  0
 56 53  1  0  0  0  0
 57 58  1  6  0  0  0
 57 59  1  0  0  0  0
 60 59  1  0  0  0  0
 60 62  1  0  0  0  0
 61 62  1  0  0  0  0
 63 64  1  1  0  0  0
 63 66  1  0  0  0  0
 65 66  1  0  0  0  0
M  END
>  <MODEL>
1

>  <REMARK>
 VINA RESULT:      -7.3      0.000      0.000
  Name = 
  22 active torsions:
  status: ('A' for Active; 'I' for Inactive)
    1  A    between atoms: C_1  and  C_8
    2  A    between atoms: C_1  and  C_47
    3  A    between atoms: C_3  and  C_14
    4  A    between atoms: C_3  and  C_56
    5  A    between atoms: C_4  and  N_24
    6  A    between atoms: C_7  and  C_32
    7  A    between atoms: C_9  and  C_32
    8  A    between atoms: C_9  and  C_56
    9  A    between atoms: C_11  and  N_30
   10  A    between atoms: C_11  and  C_56
   11  A    between atoms: N_13  and  C_36
   12  A    between atoms: C_19  and  C_45
   13  A    between atoms: C_19  and  N_55
   14  A    between atoms: C_20  and  O_25
   15  A    between atoms: C_20  and  C_40
   16  A    between atoms: C_22  and  C_23
   17  A    between atoms: C_23  and  O_25
   18  A    between atoms: C_29  and  C_37
   19  A    between atoms: N_30  and  O_35
   20  A    between atoms: O_35  and  C_65
   21  A    between atoms: C_43  and  C_65
   22  A    between atoms: C_58  and  C_65
                            x       y       z     vdW  Elec       q    Type
                         _______ _______ _______ _____ _____    ______ ____

>  <TORSDO>
F 22

$$$$
=
 OpenBabel11062415053D

 66 71  0  0  1  0  0  0  0  0999 V2000
  188.3860  177.7620  140.1490 C   0  0  0  0  0  0  0  0  0  0  0  0
  187.9190  178.9980  140.2530 C   0  0  0  0  0  2  0  0  0  0  0  0
  187.7290  176.8560  139.2620 N   0  0  0  0  0  2  0  0  0  0  0  0
  186.9120  177.2890  138.2630 O   0  0  0  0  0  0  0  0  0  0  0  0
  186.8500  176.2760  137.2810 C   0  0  2  0  0  3  0  0  0  0  0  0
  188.4570  173.9950  136.2700 O   0  0  0  0  0  0  0  0  0  0  0  0
  189.2720  177.6030  134.7390 O   0  0  0  0  0  0  0  0  0  0  0  0
  188.7410  175.1480  135.8520 C   0  0  0  0  0  0  0  0  0  0  0  0
  188.2500  177.4970  135.6910 C   0  0  0  0  0  3  0  0  0  0  0  0
  187.9870  176.3370  136.2960 C   0  0  0  0  0  0  0  0  0  0  0  0
  189.7460  175.3060  134.8990 O   0  0  0  0  0  0  0  0  0  0  0  0
  190.2770  176.5960  134.5970 C   0  0  0  0  0  2  0  0  0  0  0  0
  184.5960  177.3030  136.8430 C   0  0  0  0  0  2  0  0  0  0  0  0
  183.2130  177.1020  136.2180 C   0  0  2  0  0  3  0  0  0  0  0  0
  185.5700  175.7120  135.1790 C   0  0  0  0  0  2  0  0  0  0  0  0
  185.4580  176.0490  136.6680 C   0  0  1  0  0  3  0  0  0  0  0  0
  183.3190  176.6920  134.7480 C   0  0  0  0  0  2  0  0  0  0  0  0
  184.1880  175.4490  134.5980 C   0  0  0  0  0  2  0  0  0  0  0  0
  182.4040  178.3110  136.3450 N   0  0  0  0  0  2  0  0  0  0  0  0
  181.0310  177.5410  138.0720 O   0  0  0  0  0  0  0  0  0  0  0  0
  181.3910  178.5060  137.3430 C   0  0  0  0  0  0  0  0  0  0  0  0
  181.6040  182.0710  138.3670 C   0  0  0  0  0  3  0  0  0  0  0  0
  179.7620  180.2040  136.7500 C   0  0  0  0  0  3  0  0  0  0  0  0
  180.7900  179.8420  137.5290 C   0  0  0  0  0  0  0  0  0  0  0  0
  179.4620  182.6580  137.2280 C   0  0  0  0  0  3  0  0  0  0  0  0
  181.2330  180.6650  138.7080 C   0  0  2  0  0  3  0  0  0  0  0  0
  180.8070  182.9450  137.7530 C   0  0  0  0  0  3  0  0  0  0  0  0
  179.0140  181.4760  136.7960 C   0  0  0  0  0  3  0  0  0  0  0  0
  180.2400  180.5950  139.8590 C   0  0  0  0  0  2  0  0  0  0  0  0
  181.2310  178.9310  143.2060 C   0  0  0  0  0  1  0  0  0  0  0  0
  179.6890  180.7020  142.6800 N   0  0  0  0  0  2  0  0  0  0  0  0
  180.7020  179.6170  140.8340 N   0  0  0  0  0  2  0  0  0  0  0  0
  180.4920  179.7860  142.2380 C   0  0  0  0  0  0  0  0  0  0  0  0
  189.3990  177.2400  141.1270 C   0  0  1  0  0  3  0  0  0  0  0  0
  191.6680  176.4180  141.3510 F   0  0  0  0  0  0  0  0  0  0  0  0
  190.8430  177.2280  140.5950 C   0  0  1  0  0  3  0  0  0  0  0  0
  190.7320  178.1490  138.3930 F   0  0  0  0  0  0  0  0  0  0  0  0
  190.8900  176.9580  139.0770 C   0  0  1  0  0  3  0  0  0  0  0  0
  192.8220  174.2540  137.2140 C   0  0  0  0  0  0  0  0  0  0  0  0
  192.0540  176.1670  138.5140 C   0  0  0  0  0  0  0  0  0  0  0  0
  194.4280  175.6300  138.3930 C   0  0  0  0  0  3  0  0  0  0  0  0
  193.3850  176.4250  138.8800 C   0  0  0  0  0  3  0  0  0  0  0  0
  191.7820  175.0570  137.6960 C   0  0  0  0  0  3  0  0  0  0  0  0
  194.1440  174.5470  137.5600 C   0  0  0  0  0  3  0  0  0  0  0  0
  192.5330  173.1350  136.3810 N   0  0  0  0  0  0  0  0  0  0  0  0
  191.6890  172.3940  135.3970 C   0  0  0  0  0  2  0  0  0  0  0  0
  192.8500  171.7870  135.8280 C   0  0  0  0  0  2  0  0  0  0  0  0
  189.1790  177.8010  142.5420 C   0  0  2  0  0  3  0  0  0  0  0  0
  190.3420  178.6390  143.0580 C   0  0  0  0  0  1  0  0  0  0  0  0
  189.1540  177.4370  145.6160 C   0  0  2  0  0  3  0  0  0  0  0  0
  188.7360  176.6790  143.4940 C   0  0  2  0  0  3  0  0  0  0  0  0
  187.8730  177.2060  146.1260 O   0  0  0  0  0  0  0  0  0  0  0  0
  186.5860  177.4760  144.0930 C   0  0  1  0  0  3  0  0  0  0  0  0
  187.3490  176.3920  143.5830 O   0  0  0  0  0  0  0  0  0  0  0  0
  189.4740  176.4440  144.6750 O   0  0  0  0  0  0  0  0  0  0  0  0
  187.0660  178.0960  145.4170 C   0  0  0  0  0  2  0  0  0  0  0  0
  186.1750  178.4940  143.0260 C   0  0  2  0  0  3  0  0  0  0  0  0
  185.4440  179.5460  143.5910 O   0  0  0  0  0  1  0  0  0  0  0  0
  185.4120  177.8630  142.0400 O   0  0  0  0  0  0  0  0  0  0  0  0
  184.4660  178.8170  141.6540 C   0  0  0  0  0  2  0  0  0  0  0  0
  184.6650  179.8700  139.5310 O   0  0  0  0  0  1  0  0  0  0  0  0
  184.2110  178.7120  140.1640 C   0  0  0  0  0  2  0  0  0  0  0  0
  190.1720  177.4200  146.7500 C   0  0  1  0  0  3  0  0  0  0  0  0
  189.5410  177.7410  147.9540 O   0  0  0  0  0  1  0  0  0  0  0  0
  192.1240  176.1460  147.6100 C   0  0  0  0  0  1  0  0  0  0  0  0
  190.8110  176.0440  146.8630 C   0  0  0  0  0  2  0  0  0  0  0  0
  1  2  2  0  0  0  0
  3  1  1  0  0  0  0
  4  3  1  0  0  0  0
  5  4  1  6  0  0  0
  7  9  1  0  0  0  0
  8  6  2  0  0  0  0
  8 10  1  0  0  0  0
  9 10  2  0  0  0  0
 10  5  1  0  0  0  0
 11  8  1  0  0  0  0
 12  7  1  0  0  0  0
 12 11  1  0  0  0  0
 14 19  1  6  0  0  0
 14 13  1  0  0  0  0
 15 16  1  0  0  0  0
 16 13  1  0  0  0  0
 16  5  1  6  0  0  0
 17 14  1  0  0  0  0
 18 17  1  0  0  0  0
 18 15  1  0  0  0  0
 19 21  1  0  0  0  0
 21 24  1  0  0  0  0
 21 20  2  0  0  0  0
 22 26  1  0  0  0  0
 23 28  1  0  0  0  0
 23 24  2  0  0  0  0
 24 26  1  0  0  0  0
 25 27  1  0  0  0  0
 26 29  1  1  0  0  0
 27 22  2  0  0  0  0
 28 25  2  0  0  0  0
 29 32  1  0  0  0  0
 32 33  1  0  0  0  0
 33 31  2  0  0  0  0
 33 30  1  0  0  0  0
 34  1  1  6  0  0  0
 34 48  1  0  0  0  0
 36 34  1  0  0  0  0
 36 35  1  1  0  0  0
 38 37  1  6  0  0  0
 38 36  1  0  0  0  0
 39 44  2  0  0  0  0
 39 43  1  0  0  0  0
 40 42  1  0  0  0  0
 40 38  1  0  0  0  0
 41 42  2  0  0  0  0
 43 40  2  0  0  0  0
 44 41  1  0  0  0  0
 45 39  1  0  0  0  0
 46 47  1  0  0  0  0
 46 45  1  0  0  0  0
 47 45  1  0  0  0  0
 48 49  1  1  0  0  0
 50 52  1  0  0  0  0
 50 63  1  1  0  0  0
 51 48  1  1  0  0  0
 51 54  1  0  0  0  0
 51 55  1  0  0  0  0
 53 57  1  6  0  0  0
 53 56  1  0  0  0  0
 54 53  1  0  0  0  0
 55 50  1  0  0  0  0
 56 52  1  0  0  0  0
 57 58  1  1  0  0  0
 59 57  1  0  0  0  0
 60 59  1  0  0  0  0
 61 62  1  0  0  0  0
 62 60  1  0  0  0  0
 63 66  1  0  0  0  0
 63 64  1  1  0  0  0
 66 65  1  0  0  0  0
M  END
>  <MODEL>
2

>  <REMARK>
 VINA RESULT:      -7.1      3.024      8.704
  Name = 
  22 active torsions:
  status: ('A' for Active; 'I' for Inactive)
    1  A    between atoms: C_1  and  C_8
    2  A    between atoms: C_1  and  C_47
    3  A    between atoms: C_3  and  C_14
    4  A    between atoms: C_3  and  C_56
    5  A    between atoms: C_4  and  N_24
    6  A    between atoms: C_7  and  C_32
    7  A    between atoms: C_9  and  C_32
    8  A    between atoms: C_9  and  C_56
    9  A    between atoms: C_11  and  N_30
   10  A    between atoms: C_11  and  C_56
   11  A    between atoms: N_13  and  C_36
   12  A    between atoms: C_19  and  C_45
   13  A    between atoms: C_19  and  N_55
   14  A    between atoms: C_20  and  O_25
   15  A    between atoms: C_20  and  C_40
   16  A    between atoms: C_22  and  C_23
   17  A    between atoms: C_23  and  O_25
   18  A    between atoms: C_29  and  C_37
   19  A    between atoms: N_30  and  O_35
   20  A    between atoms: O_35  and  C_65
   21  A    between atoms: C_43  and  C_65
   22  A    between atoms: C_58  and  C_65
                            x       y       z     vdW  Elec       q    Type
                         _______ _______ _______ _____ _____    ______ ____

>  <TORSDO>
F 22

$$$$
=
 OpenBabel11062415053D

 66 71  0  0  1  0  0  0  0  0999 V2000
  189.0770  177.4960  139.1340 C   0  0  0  0  0  0  0  0  0  0  0  0
  189.0490  178.8100  138.9660 C   0  0  0  0  0  2  0  0  0  0  0  0
  187.9040  176.7440  138.8250 N   0  0  0  0  0  2  0  0  0  0  0  0
  187.3290  176.7770  137.5920 O   0  0  0  0  0  0  0  0  0  0  0  0
  186.8670  175.4750  137.2920 C   0  0  2  0  0  3  0  0  0  0  0  0
  188.5790  176.5830  135.1360 O   0  0  0  0  0  0  0  0  0  0  0  0
  188.9010  172.6610  135.8670 O   0  0  0  0  0  0  0  0  0  0  0  0
  188.6150  175.3420  135.3380 C   0  0  0  0  0  0  0  0  0  0  0  0
  188.0130  173.4140  136.6450 C   0  0  0  0  0  3  0  0  0  0  0  0
  187.8020  174.7080  136.3950 C   0  0  0  0  0  0  0  0  0  0  0  0
  189.4870  174.5490  134.5930 O   0  0  0  0  0  0  0  0  0  0  0  0
  189.3730  173.1260  134.6000 C   0  0  0  0  0  2  0  0  0  0  0  0
  184.7370  176.7750  136.9730 C   0  0  0  0  0  2  0  0  0  0  0  0
  183.2570  176.7040  136.5860 C   0  0  2  0  0  3  0  0  0  0  0  0
  185.2010  174.7910  135.5230 C   0  0  0  0  0  2  0  0  0  0  0  0
  185.3770  175.3830  136.9240 C   0  0  1  0  0  3  0  0  0  0  0  0
  183.0680  176.0440  135.2190 C   0  0  0  0  0  2  0  0  0  0  0  0
  183.7200  174.6670  135.1920 C   0  0  0  0  0  2  0  0  0  0  0  0
  182.6540  178.0340  136.5900 N   0  0  0  0  0  2  0  0  0  0  0  0
  180.7620  177.4730  137.8400 O   0  0  0  0  0  0  0  0  0  0  0  0
  181.4580  178.3790  137.3040 C   0  0  0  0  0  0  0  0  0  0  0  0
  182.0260  181.8390  138.5330 C   0  0  0  0  0  3  0  0  0  0  0  0
  180.2970  180.3390  136.4690 C   0  0  0  0  0  3  0  0  0  0  0  0
  181.0580  179.7940  137.4290 C   0  0  0  0  0  0  0  0  0  0  0  0
  180.3070  182.8010  137.0000 C   0  0  0  0  0  3  0  0  0  0  0  0
  181.3640  180.5110  138.7150 C   0  0  2  0  0  3  0  0  0  0  0  0
  181.5340  182.8450  137.8110 C   0  0  0  0  0  3  0  0  0  0  0  0
  179.7760  181.7200  136.4220 C   0  0  0  0  0  3  0  0  0  0  0  0
  180.1480  180.5950  139.6260 C   0  0  0  0  0  2  0  0  0  0  0  0
  180.3340  178.4830  142.8600 C   0  0  0  0  0  1  0  0  0  0  0  0
  179.6840  180.7660  142.4590 N   0  0  0  0  0  2  0  0  0  0  0  0
  180.1510  179.4610  140.5380 N   0  0  0  0  0  2  0  0  0  0  0  0
  180.0270  179.6230  141.9540 C   0  0  0  0  0  0  0  0  0  0  0  0
  190.2030  176.8420  139.8820 C   0  0  1  0  0  3  0  0  0  0  0  0
  192.5290  176.1640  139.8250 F   0  0  0  0  0  0  0  0  0  0  0  0
  191.5240  176.7690  139.0960 C   0  0  1  0  0  3  0  0  0  0  0  0
  190.9160  177.2010  136.8260 F   0  0  0  0  0  0  0  0  0  0  0  0
  191.3170  176.1910  137.6810 C   0  0  1  0  0  3  0  0  0  0  0  0
  194.5540  175.3310  135.8660 C   0  0  0  0  0  0  0  0  0  0  0  0
  192.4290  175.3720  137.0590 C   0  0  0  0  0  0  0  0  0  0  0  0
  193.3550  173.2640  136.2570 C   0  0  0  0  0  3  0  0  0  0  0  0
  192.3370  173.9790  136.8970 C   0  0  0  0  0  3  0  0  0  0  0  0
  193.5380  176.0420  136.5150 C   0  0  0  0  0  3  0  0  0  0  0  0
  194.4620  173.9420  135.7440 C   0  0  0  0  0  3  0  0  0  0  0  0
  195.6740  176.0230  135.3230 N   0  0  0  0  0  0  0  0  0  0  0  0
  196.3470  177.2370  134.7700 C   0  0  0  0  0  2  0  0  0  0  0  0
  197.0910  176.0790  134.8600 C   0  0  0  0  0  2  0  0  0  0  0  0
  190.2820  177.3180  141.3410 C   0  0  2  0  0  3  0  0  0  0  0  0
  191.5640  178.0720  141.6740 C   0  0  0  0  0  1  0  0  0  0  0  0
  190.5610  176.8690  144.3920 C   0  0  2  0  0  3  0  0  0  0  0  0
  189.9670  176.1570  142.2960 C   0  0  2  0  0  3  0  0  0  0  0  0
  189.3420  176.5800  145.0120 O   0  0  0  0  0  0  0  0  0  0  0  0
  187.8600  176.8630  143.1190 C   0  0  1  0  0  3  0  0  0  0  0  0
  188.6040  175.8200  142.5070 O   0  0  0  0  0  0  0  0  0  0  0  0
  190.8210  175.9140  143.3950 O   0  0  0  0  0  0  0  0  0  0  0  0
  188.4440  177.4630  144.4100 C   0  0  0  0  0  2  0  0  0  0  0  0
  187.3180  177.8960  142.1280 C   0  0  2  0  0  3  0  0  0  0  0  0
  188.0660  179.0780  142.1730 O   0  0  0  0  0  1  0  0  0  0  0  0
  185.9800  178.1720  142.4180 O   0  0  0  0  0  0  0  0  0  0  0  0
  185.6450  179.2440  141.5850 C   0  0  0  0  0  2  0  0  0  0  0  0
  184.8360  179.7920  139.4170 O   0  0  0  0  0  1  0  0  0  0  0  0
  185.0970  178.7210  140.2720 C   0  0  0  0  0  2  0  0  0  0  0  0
  191.6820  176.8550  145.4230 C   0  0  1  0  0  3  0  0  0  0  0  0
  191.5640  177.9660  146.2630 O   0  0  0  0  0  1  0  0  0  0  0  0
  192.5800  175.6790  147.4200 C   0  0  0  0  0  1  0  0  0  0  0  0
  191.6160  175.5830  146.2550 C   0  0  0  0  0  2  0  0  0  0  0  0
  2  1  2  0  0  0  0
  3  1  1  0  0  0  0
  4  3  1  0  0  0  0
  5  4  1  6  0  0  0
  6  8  2  0  0  0  0
  7  9  1  0  0  0  0
  8 10  1  0  0  0  0
 10  9  2  0  0  0  0
 10  5  1  0  0  0  0
 11 12  1  0  0  0  0
 11  8  1  0  0  0  0
 12  7  1  0  0  0  0
 14 19  1  6  0  0  0
 14 13  1  0  0  0  0
 15 16  1  0  0  0  0
 16 13  1  0  0  0  0
 16  5  1  6  0  0  0
 17 14  1  0  0  0  0
 18 17  1  0  0  0  0
 18 15  1  0  0  0  0
 19 21  1  0  0  0  0
 21 24  1  0  0  0  0
 21 20  2  0  0  0  0
 22 26  1  0  0  0  0
 23 24  2  0  0  0  0
 24 26  1  0  0  0  0
 25 27  1  0  0  0  0
 26 29  1  6  0  0  0
 27 22  2  0  0  0  0
 28 23  1  0  0  0  0
 28 25  2  0  0  0  0
 29 32  1  0  0  0  0
 32 33  1  0  0  0  0
 33 31  2  0  0  0  0
 33 30  1  0  0  0  0
 34  1  1  6  0  0  0
 34 48  1  0  0  0  0
 36 35  1  1  0  0  0
 36 34  1  0  0  0  0
 38 37  1  6  0  0  0
 38 36  1  0  0  0  0
 39 43  1  0  0  0  0
 40 38  1  0  0  0  0
 41 42  2  0  0  0  0
 42 40  1  0  0  0  0
 43 40  2  0  0  0  0
 44 39  2  0  0  0  0
 44 41  1  0  0  0  0
 45 39  1  0  0  0  0
 46 47  1  0  0  0  0
 46 45  1  0  0  0  0
 47 45  1  0  0  0  0
 48 49  1  1  0  0  0
 50 52  1  0  0  0  0
 50 63  1  1  0  0  0
 51 48  1  1  0  0  0
 51 54  1  0  0  0  0
 51 55  1  0  0  0  0
 53 57  1  6  0  0  0
 53 56  1  0  0  0  0
 54 53  1  0  0  0  0
 55 50  1  0  0  0  0
 56 52  1  0  0  0  0
 57 58  1  1  0  0  0
 57 59  1  0  0  0  0
 60 59  1  0  0  0  0
 61 62  1  0  0  0  0
 62 60  1  0  0  0  0
 63 66  1  0  0  0  0
 63 64  1  1  0  0  0
 66 65  1  0  0  0  0
M  END
>  <MODEL>
3

>  <REMARK>
 VINA RESULT:      -6.6      3.062      8.826
  Name = 
  22 active torsions:
  status: ('A' for Active; 'I' for Inactive)
    1  A    between atoms: C_1  and  C_8
    2  A    between atoms: C_1  and  C_47
    3  A    between atoms: C_3  and  C_14
    4  A    between atoms: C_3  and  C_56
    5  A    between atoms: C_4  and  N_24
    6  A    between atoms: C_7  and  C_32
    7  A    between atoms: C_9  and  C_32
    8  A    between atoms: C_9  and  C_56
    9  A    between atoms: C_11  and  N_30
   10  A    between atoms: C_11  and  C_56
   11  A    between atoms: N_13  and  C_36
   12  A    between atoms: C_19  and  C_45
   13  A    between atoms: C_19  and  N_55
   14  A    between atoms: C_20  and  O_25
   15  A    between atoms: C_20  and  C_40
   16  A    between atoms: C_22  and  C_23
   17  A    between atoms: C_23  and  O_25
   18  A    between atoms: C_29  and  C_37
   19  A    between atoms: N_30  and  O_35
   20  A    between atoms: O_35  and  C_65
   21  A    between atoms: C_43  and  C_65
   22  A    between atoms: C_58  and  C_65
                            x       y       z     vdW  Elec       q    Type
                         _______ _______ _______ _____ _____    ______ ____

>  <TORSDO>
F 22

$$$$
=
 OpenBabel11062415053D

 66 71  0  0  1  0  0  0  0  0999 V2000
  186.2920  178.2500  138.3110 C   0  0  0  0  0  0  0  0  0  0  0  0
  186.9580  178.1040  139.4480 C   0  0  0  0  0  2  0  0  0  0  0  0
  184.8790  178.4440  138.3680 N   0  0  0  0  0  2  0  0  0  0  0  0
  184.2990  179.2560  139.2940 O   0  0  0  0  0  0  0  0  0  0  0  0
  183.2300  178.5460  139.8870 C   0  0  2  0  0  3  0  0  0  0  0  0
  180.6300  177.1330  140.0970 O   0  0  0  0  0  0  0  0  0  0  0  0
  180.5340  180.9180  138.7970 O   0  0  0  0  0  0  0  0  0  0  0  0
  180.6300  178.3010  139.6280 C   0  0  0  0  0  0  0  0  0  0  0  0
  181.7730  180.3590  139.1350 C   0  0  0  0  0  3  0  0  0  0  0  0
  181.8780  179.0790  139.4960 C   0  0  0  0  0  0  0  0  0  0  0  0
  179.4210  178.9040  139.2820 O   0  0  0  0  0  0  0  0  0  0  0  0
  179.3940  180.1050  138.5100 C   0  0  0  0  0  2  0  0  0  0  0  0
  184.8800  178.3920  141.7800 C   0  0  0  0  0  2  0  0  0  0  0  0
  185.0720  178.1050  143.2710 C   0  0  2  0  0  3  0  0  0  0  0  0
  182.5460  179.1630  142.2380 C   0  0  0  0  0  2  0  0  0  0  0  0
  183.4090  178.2330  141.3820 C   0  0  1  0  0  3  0  0  0  0  0  0
  184.1570  178.9800  144.1310 C   0  0  0  0  0  2  0  0  0  0  0  0
  182.7020  178.8110  143.7100 C   0  0  0  0  0  2  0  0  0  0  0  0
  186.4660  178.2980  143.6640 N   0  0  0  0  0  2  0  0  0  0  0  0
  187.0900  176.0490  143.5710 O   0  0  0  0  0  0  0  0  0  0  0  0
  187.4460  177.2520  143.7110 C   0  0  0  0  0  0  0  0  0  0  0  0
  190.9870  176.2750  144.2640 C   0  0  0  0  0  3  0  0  0  0  0  0
  189.3450  178.7230  143.3650 C   0  0  0  0  0  3  0  0  0  0  0  0
  188.8710  177.5870  143.8980 C   0  0  0  0  0  0  0  0  0  0  0  0
  191.8410  178.5360  143.6390 C   0  0  0  0  0  3  0  0  0  0  0  0
  189.6860  176.7380  144.8350 C   0  0  2  0  0  3  0  0  0  0  0  0
  191.9370  177.0740  143.7790 C   0  0  0  0  0  3  0  0  0  0  0  0
  190.7220  179.2440  143.4610 C   0  0  0  0  0  3  0  0  0  0  0  0
  189.8570  177.3930  146.1980 C   0  0  0  0  0  2  0  0  0  0  0  0
  186.4240  178.6010  147.5060 C   0  0  0  0  0  1  0  0  0  0  0  0
  187.9540  176.9220  148.3020 N   0  0  0  0  0  2  0  0  0  0  0  0
  188.7010  178.2330  146.4760 N   0  0  0  0  0  2  0  0  0  0  0  0
  187.7270  177.8840  147.4640 C   0  0  0  0  0  0  0  0  0  0  0  0
  186.9480  177.9500  136.9940 C   0  0  1  0  0  3  0  0  0  0  0  0
  189.0460  179.1610  136.9470 F   0  0  0  0  0  0  0  0  0  0  0  0
  188.4850  177.9030  137.0500 C   0  0  1  0  0  3  0  0  0  0  0  0
  188.5220  175.7730  138.1310 F   0  0  0  0  0  0  0  0  0  0  0  0
  188.9880  177.0690  138.2460 C   0  0  1  0  0  3  0  0  0  0  0  0
  192.7410  176.5150  137.8950 C   0  0  0  0  0  0  0  0  0  0  0  0
  190.4680  177.0810  138.5700 C   0  0  0  0  0  0  0  0  0  0  0  0
  192.3260  177.3800  140.1190 C   0  0  0  0  0  3  0  0  0  0  0  0
  190.9580  177.4470  139.8340 C   0  0  0  0  0  3  0  0  0  0  0  0
  191.3720  176.5910  137.6120 C   0  0  0  0  0  3  0  0  0  0  0  0
  193.2150  176.9160  139.1470 C   0  0  0  0  0  3  0  0  0  0  0  0
  193.6470  176.0200  136.9140 N   0  0  0  0  0  0  0  0  0  0  0  0
  194.2910  174.9220  136.1330 C   0  0  0  0  0  2  0  0  0  0  0  0
  194.6960  176.2140  135.8720 C   0  0  0  0  0  2  0  0  0  0  0  0
  186.2400  176.8110  136.2410 C   0  0  2  0  0  3  0  0  0  0  0  0
  185.2780  177.2920  135.1620 C   0  0  0  0  0  1  0  0  0  0  0  0
  183.6520  175.1140  136.3100 C   0  0  2  0  0  3  0  0  0  0  0  0
  185.6250  175.8180  137.2390 C   0  0  2  0  0  3  0  0  0  0  0  0
  183.9040  173.7420  136.4160 O   0  0  0  0  0  0  0  0  0  0  0  0
  186.3200  173.7740  136.2630 C   0  0  1  0  0  3  0  0  0  0  0  0
  186.2850  174.5760  137.4340 O   0  0  0  0  0  0  0  0  0  0  0  0
  184.2220  175.7840  137.4050 O   0  0  0  0  0  0  0  0  0  0  0  0
  184.9780  173.5330  135.5500 C   0  0  0  0  0  2  0  0  0  0  0  0
  187.4870  174.1000  135.3280 C   0  0  2  0  0  3  0  0  0  0  0  0
  187.8730  172.9730  134.5950 O   0  0  0  0  0  1  0  0  0  0  0  0
  188.5690  174.5750  136.0720 O   0  0  0  0  0  0  0  0  0  0  0  0
  189.6930  174.3010  135.2860 C   0  0  0  0  0  2  0  0  0  0  0  0
  190.4820  173.4590  137.3660 O   0  0  0  0  0  1  0  0  0  0  0  0
  190.5710  173.2830  135.9840 C   0  0  0  0  0  2  0  0  0  0  0  0
  182.1490  175.3620  136.2800 C   0  0  1  0  0  3  0  0  0  0  0  0
  181.6330  174.9840  135.0380 O   0  0  0  0  0  1  0  0  0  0  0  0
  180.0080  174.9780  137.4830 C   0  0  0  0  0  1  0  0  0  0  0  0
  181.4610  174.5630  137.3780 C   0  0  0  0  0  2  0  0  0  0  0  0
  1  3  1  0  0  0  0
  1  2  2  0  0  0  0
  3  4  1  0  0  0  0
  5  4  1  1  0  0  0
  7  9  1  0  0  0  0
  8  6  2  0  0  0  0
  9 10  2  0  0  0  0
 10  8  1  0  0  0  0
 10  5  1  0  0  0  0
 11  8  1  0  0  0  0
 12  7  1  0  0  0  0
 12 11  1  0  0  0  0
 13 14  1  0  0  0  0
 14 19  1  1  0  0  0
 14 17  1  0  0  0  0
 15 18  1  0  0  0  0
 16  5  1  6  0  0  0
 16 13  1  0  0  0  0
 16 15  1  0  0  0  0
 18 17  1  0  0  0  0
 19 21  1  0  0  0  0
 20 21  2  0  0  0  0
 21 24  1  0  0  0  0
 22 26  1  0  0  0  0
 23 28  1  0  0  0  0
 23 24  2  0  0  0  0
 24 26  1  0  0  0  0
 25 27  1  0  0  0  0
 26 29  1  1  0  0  0
 27 22  2  0  0  0  0
 28 25  2  0  0  0  0
 29 32  1  0  0  0  0
 32 33  1  0  0  0  0
 33 30  1  0  0  0  0
 33 31  2  0  0  0  0
 34 36  1  0  0  0  0
 34  1  1  1  0  0  0
 36 35  1  1  0  0  0
 36 38  1  0  0  0  0
 38 37  1  6  0  0  0
 38 40  1  0  0  0  0
 39 44  1  0  0  0  0
 40 42  2  0  0  0  0
 42 41  1  0  0  0  0
 43 39  2  0  0  0  0
 43 40  1  0  0  0  0
 44 41  2  0  0  0  0
 45 39  1  0  0  0  0
 46 45  1  0  0  0  0
 47 46  1  0  0  0  0
 47 45  1  0  0  0  0
 48 49  1  1  0  0  0
 48 34  1  0  0  0  0
 50 63  1  1  0  0  0
 50 52  1  0  0  0  0
 50 55  1  0  0  0  0
 51 48  1  6  0  0  0
 51 55  1  0  0  0  0
 51 54  1  0  0  0  0
 53 57  1  6  0  0  0
 53 54  1  0  0  0  0
 56 53  1  0  0  0  0
 56 52  1  0  0  0  0
 57 58  1  1  0  0  0
 57 59  1  0  0  0  0
 60 62  1  0  0  0  0
 60 59  1  0  0  0  0
 62 61  1  0  0  0  0
 63 64  1  6  0  0  0
 63 66  1  0  0  0  0
 66 65  1  0  0  0  0
M  END
>  <MODEL>
4

>  <REMARK>
 VINA RESULT:      -6.4      2.807      8.240
  Name = 
  22 active torsions:
  status: ('A' for Active; 'I' for Inactive)
    1  A    between atoms: C_1  and  C_8
    2  A    between atoms: C_1  and  C_47
    3  A    between atoms: C_3  and  C_14
    4  A    between atoms: C_3  and  C_56
    5  A    between atoms: C_4  and  N_24
    6  A    between atoms: C_7  and  C_32
    7  A    between atoms: C_9  and  C_32
    8  A    between atoms: C_9  and  C_56
    9  A    between atoms: C_11  and  N_30
   10  A    between atoms: C_11  and  C_56
   11  A    between atoms: N_13  and  C_36
   12  A    between atoms: C_19  and  C_45
   13  A    between atoms: C_19  and  N_55
   14  A    between atoms: C_20  and  O_25
   15  A    between atoms: C_20  and  C_40
   16  A    between atoms: C_22  and  C_23
   17  A    between atoms: C_23  and  O_25
   18  A    between atoms: C_29  and  C_37
   19  A    between atoms: N_30  and  O_35
   20  A    between atoms: O_35  and  C_65
   21  A    between atoms: C_43  and  C_65
   22  A    between atoms: C_58  and  C_65
                            x       y       z     vdW  Elec       q    Type
                         _______ _______ _______ _____ _____    ______ ____

>  <TORSDO>
F 22

$$$$
=
 OpenBabel11062415053D

 66 71  0  0  1  0  0  0  0  0999 V2000
  187.5200  178.4310  141.6440 C   0  0  0  0  0  0  0  0  0  0  0  0
  188.4220  178.9450  142.4680 C   0  0  0  0  0  2  0  0  0  0  0  0
  187.6320  178.7110  140.2490 N   0  0  0  0  0  2  0  0  0  0  0  0
  188.8360  178.9060  139.6460 O   0  0  0  0  0  0  0  0  0  0  0  0
  189.2860  177.6590  139.1580 C   0  0  2  0  0  3  0  0  0  0  0  0
  190.3600  176.8650  141.8070 O   0  0  0  0  0  0  0  0  0  0  0  0
  192.9670  177.0350  138.7750 O   0  0  0  0  0  0  0  0  0  0  0  0
  191.1730  176.9890  140.8550 C   0  0  0  0  0  0  0  0  0  0  0  0
  191.6230  177.3340  138.5170 C   0  0  0  0  0  3  0  0  0  0  0  0
  190.7230  177.3720  139.5020 C   0  0  0  0  0  0  0  0  0  0  0  0
  192.5210  176.6990  141.0590 O   0  0  0  0  0  0  0  0  0  0  0  0
  193.5080  177.0750  140.0980 C   0  0  0  0  0  2  0  0  0  0  0  0
  187.4610  176.7660  137.6750 C   0  0  0  0  0  2  0  0  0  0  0  0
  187.0310  176.4680  136.2360 C   0  0  2  0  0  3  0  0  0  0  0  0
  188.9370  178.6040  136.8430 C   0  0  0  0  0  2  0  0  0  0  0  0
  188.8800  177.3430  137.7090 C   0  0  1  0  0  3  0  0  0  0  0  0
  187.1580  177.7060  135.3470 C   0  0  0  0  0  2  0  0  0  0  0  0
  188.5740  178.2660  135.4050 C   0  0  0  0  0  2  0  0  0  0  0  0
  185.6630  175.9580  136.1960 N   0  0  0  0  0  2  0  0  0  0  0  0
  186.0350  174.3000  134.5930 O   0  0  0  0  0  0  0  0  0  0  0  0
  185.2450  174.8210  135.4270 C   0  0  0  0  0  0  0  0  0  0  0  0
  182.3650  173.9360  137.6010 C   0  0  0  0  0  3  0  0  0  0  0  0
  183.0290  174.2630  134.6090 C   0  0  0  0  0  3  0  0  0  0  0  0
  183.8980  174.2510  135.6300 C   0  0  0  0  0  0  0  0  0  0  0  0
  180.8440  173.5760  135.6550 C   0  0  0  0  0  3  0  0  0  0  0  0
  183.6220  173.5140  136.9120 C   0  0  2  0  0  3  0  0  0  0  0  0
  181.1500  173.9230  137.0520 C   0  0  0  0  0  3  0  0  0  0  0  0
  181.6550  173.7240  134.6030 C   0  0  0  0  0  3  0  0  0  0  0  0
  183.7000  172.0050  136.7320 C   0  0  0  0  0  2  0  0  0  0  0  0
  186.7430  170.0880  135.3110 C   0  0  0  0  0  1  0  0  0  0  0  0
  184.4500  170.2330  134.5940 N   0  0  0  0  0  2  0  0  0  0  0  0
  185.0680  171.6300  136.4050 N   0  0  0  0  0  2  0  0  0  0  0  0
  185.3700  170.6550  135.4030 C   0  0  0  0  0  0  0  0  0  0  0  0
  186.2640  177.8030  142.1780 C   0  0  1  0  0  3  0  0  0  0  0  0
  187.5990  176.4320  143.6650 F   0  0  0  0  0  0  0  0  0  0  0  0
  186.4240  177.1500  143.5620 C   0  0  1  0  0  3  0  0  0  0  0  0
  184.8490  178.1440  145.0590 F   0  0  0  0  0  0  0  0  0  0  0  0
  186.1850  178.1610  144.7030 C   0  0  1  0  0  3  0  0  0  0  0  0
  189.1730  177.3790  146.9330 C   0  0  0  0  0  0  0  0  0  0  0  0
  187.0700  178.0950  145.9310 C   0  0  0  0  0  0  0  0  0  0  0  0
  187.4360  178.3260  148.3290 C   0  0  0  0  0  3  0  0  0  0  0  0
  186.6130  178.4650  147.2070 C   0  0  0  0  0  3  0  0  0  0  0  0
  188.3500  177.5280  145.8110 C   0  0  0  0  0  3  0  0  0  0  0  0
  188.7150  177.7850  148.1890 C   0  0  0  0  0  3  0  0  0  0  0  0
  190.4700  176.8070  146.7960 N   0  0  0  0  0  0  0  0  0  0  0  0
  191.6090  175.9660  147.2730 C   0  0  0  0  0  2  0  0  0  0  0  0
  191.7470  176.5970  146.0540 C   0  0  0  0  0  2  0  0  0  0  0  0
  185.0330  178.6990  141.9650 C   0  0  2  0  0  3  0  0  0  0  0  0
  184.9650  179.8870  142.9170 C   0  0  0  0  0  1  0  0  0  0  0  0
  182.0140  179.2800  142.3260 C   0  0  2  0  0  3  0  0  0  0  0  0
  183.7570  177.8460  141.9250 C   0  0  2  0  0  3  0  0  0  0  0  0
  181.2550  178.9290  141.2050 O   0  0  0  0  0  0  0  0  0  0  0  0
  183.0430  178.2790  139.7080 C   0  0  1  0  0  3  0  0  0  0  0  0
  183.3640  177.2940  140.6780 O   0  0  0  0  0  0  0  0  0  0  0  0
  182.6950  178.1490  142.8070 O   0  0  0  0  0  0  0  0  0  0  0  0
  182.0320  179.3600  140.1290 C   0  0  0  0  0  2  0  0  0  0  0  0
  184.2580  178.8100  138.9440 C   0  0  2  0  0  3  0  0  0  0  0  0
  184.3510  180.2020  139.0510 O   0  0  0  0  0  1  0  0  0  0  0  0
  184.1680  178.4440  137.5990 O   0  0  0  0  0  0  0  0  0  0  0  0
  182.8520  177.9990  137.4350 C   0  0  0  0  0  2  0  0  0  0  0  0
  181.5480  178.4250  135.4930 O   0  0  0  0  0  1  0  0  0  0  0  0
  182.6040  177.6540  135.9810 C   0  0  0  0  0  2  0  0  0  0  0  0
  181.1030  179.8340  143.4140 C   0  0  1  0  0  3  0  0  0  0  0  0
  180.0720  180.5770  142.8330 O   0  0  0  0  0  1  0  0  0  0  0  0
  179.0030  178.8460  144.3040 C   0  0  0  0  0  1  0  0  0  0  0  0
  180.5090  178.6970  144.2330 C   0  0  0  0  0  2  0  0  0  0  0  0
  1  2  2  0  0  0  0
  3  1  1  0  0  0  0
  4  3  1  0  0  0  0
  5 10  1  0  0  0  0
  5  4  1  6  0  0  0
  7 12  1  0  0  0  0
  8 11  1  0  0  0  0
  8  6  2  0  0  0  0
  9  7  1  0  0  0  0
  9 10  2  0  0  0  0
 10  8  1  0  0  0  0
 12 11  1  0  0  0  0
 13 16  1  0  0  0  0
 14 19  1  1  0  0  0
 14 13  1  0  0  0  0
 15 16  1  0  0  0  0
 16  5  1  1  0  0  0
 17 18  1  0  0  0  0
 17 14  1  0  0  0  0
 18 15  1  0  0  0  0
 20 21  2  0  0  0  0
 21 24  1  0  0  0  0
 21 19  1  0  0  0  0
 23 24  2  0  0  0  0
 24 26  1  0  0  0  0
 25 27  1  0  0  0  0
 26 29  1  6  0  0  0
 26 22  1  0  0  0  0
 27 22  2  0  0  0  0
 28 23  1  0  0  0  0
 28 25  2  0  0  0  0
 30 33  1  0  0  0  0
 31 33  2  0  0  0  0
 32 29  1  0  0  0  0
 33 32  1  0  0  0  0
 34  1  1  1  0  0  0
 34 36  1  0  0  0  0
 36 35  1  6  0  0  0
 36 38  1  0  0  0  0
 38 37  1  1  0  0  0
 38 40  1  0  0  0  0
 39 44  1  0  0  0  0
 40 42  2  0  0  0  0
 42 41  1  0  0  0  0
 43 40  1  0  0  0  0
 43 39  2  0  0  0  0
 44 41  2  0  0  0  0
 45 39  1  0  0  0  0
 45 46  1  0  0  0  0
 47 45  1  0  0  0  0
 47 46  1  0  0  0  0
 48 34  1  0  0  0  0
 48 49  1  1  0  0  0
 50 55  1  0  0  0  0
 50 63  1  1  0  0  0
 51 48  1  6  0  0  0
 51 55  1  0  0  0  0
 52 50  1  0  0  0  0
 53 57  1  1  0  0  0
 53 56  1  0  0  0  0
 53 54  1  0  0  0  0
 54 51  1  0  0  0  0
 56 52  1  0  0  0  0
 57 58  1  6  0  0  0
 59 57  1  0  0  0  0
 60 59  1  0  0  0  0
 61 62  1  0  0  0  0
 62 60  1  0  0  0  0
 63 64  1  6  0  0  0
 63 66  1  0  0  0  0
 66 65  1  0  0  0  0
M  END
>  <MODEL>
5

>  <REMARK>
 VINA RESULT:      -6.3      2.069      6.867
  Name = 
  22 active torsions:
  status: ('A' for Active; 'I' for Inactive)
    1  A    between atoms: C_1  and  C_8
    2  A    between atoms: C_1  and  C_47
    3  A    between atoms: C_3  and  C_14
    4  A    between atoms: C_3  and  C_56
    5  A    between atoms: C_4  and  N_24
    6  A    between atoms: C_7  and  C_32
    7  A    between atoms: C_9  and  C_32
    8  A    between atoms: C_9  and  C_56
    9  A    between atoms: C_11  and  N_30
   10  A    between atoms: C_11  and  C_56
   11  A    between atoms: N_13  and  C_36
   12  A    between atoms: C_19  and  C_45
   13  A    between atoms: C_19  and  N_55
   14  A    between atoms: C_20  and  O_25
   15  A    between atoms: C_20  and  C_40
   16  A    between atoms: C_22  and  C_23
   17  A    between atoms: C_23  and  O_25
   18  A    between atoms: C_29  and  C_37
   19  A    between atoms: N_30  and  O_35
   20  A    between atoms: O_35  and  C_65
   21  A    between atoms: C_43  and  C_65
   22  A    between atoms: C_58  and  C_65
                            x       y       z     vdW  Elec       q    Type
                         _______ _______ _______ _____ _____    ______ ____

>  <TORSDO>
F 22

$$$$
=
 OpenBabel11062415053D

 66 71  0  0  1  0  0  0  0  0999 V2000
  188.8320  177.6450  141.6630 C   0  0  0  0  0  0  0  0  0  0  0  0
  188.6430  176.4610  142.2300 C   0  0  0  0  0  2  0  0  0  0  0  0
  187.6940  178.4620  141.3940 N   0  0  0  0  0  2  0  0  0  0  0  0
  186.4550  177.9320  141.1950 O   0  0  0  0  0  0  0  0  0  0  0  0
  185.5230  178.7300  141.8970 C   0  0  2  0  0  3  0  0  0  0  0  0
  184.6230  180.6590  143.9640 O   0  0  0  0  0  0  0  0  0  0  0  0
  186.0580  177.1550  145.2620 O   0  0  0  0  0  0  0  0  0  0  0  0
  185.1390  179.5780  144.3510 C   0  0  0  0  0  0  0  0  0  0  0  0
  185.9990  177.3820  143.8810 C   0  0  0  0  0  3  0  0  0  0  0  0
  185.6060  178.5590  143.3910 C   0  0  0  0  0  0  0  0  0  0  0  0
  185.2160  179.3030  145.7160 O   0  0  0  0  0  0  0  0  0  0  0  0
  186.0210  178.2300  146.2040 C   0  0  0  0  0  2  0  0  0  0  0  0
  183.8190  177.4030  140.6070 C   0  0  0  0  0  2  0  0  0  0  0  0
  182.3980  177.3830  140.0380 C   0  0  2  0  0  3  0  0  0  0  0  0
  183.0630  178.9580  142.4140 C   0  0  0  0  0  2  0  0  0  0  0  0
  184.1020  178.7350  141.3120 C   0  0  1  0  0  3  0  0  0  0  0  0
  181.3580  177.6800  141.1200 C   0  0  0  0  0  2  0  0  0  0  0  0
  181.6660  179.0030  141.8110 C   0  0  0  0  0  2  0  0  0  0  0  0
  182.1100  176.1000  139.4030 N   0  0  0  0  0  2  0  0  0  0  0  0
  180.1380  176.7570  138.3370 O   0  0  0  0  0  0  0  0  0  0  0  0
  181.0210  175.8710  138.4970 C   0  0  0  0  0  0  0  0  0  0  0  0
  182.6280  172.9570  136.8450 C   0  0  0  0  0  3  0  0  0  0  0  0
  179.8530  173.8450  137.8470 C   0  0  0  0  0  3  0  0  0  0  0  0
  180.9500  174.6070  137.7370 C   0  0  0  0  0  0  0  0  0  0  0  0
  180.4800  171.6930  136.7000 C   0  0  0  0  0  3  0  0  0  0  0  0
  182.0290  174.3210  136.7280 C   0  0  2  0  0  3  0  0  0  0  0  0
  181.9440  171.8140  136.7930 C   0  0  0  0  0  3  0  0  0  0  0  0
  179.5810  172.5700  137.1560 C   0  0  0  0  0  3  0  0  0  0  0  0
  181.5800  174.6320  135.3070 C   0  0  0  0  0  2  0  0  0  0  0  0
  181.5190  178.4970  135.3870 C   0  0  0  0  0  1  0  0  0  0  0  0
  183.2720  176.9220  134.8990 N   0  0  0  0  0  2  0  0  0  0  0  0
  181.1130  176.0090  135.2410 N   0  0  0  0  0  2  0  0  0  0  0  0
  182.0150  177.1140  135.1510 C   0  0  0  0  0  0  0  0  0  0  0  0
  190.1640  178.0070  141.0710 C   0  0  1  0  0  3  0  0  0  0  0  0
  192.5370  177.5200  141.1350 F   0  0  0  0  0  0  0  0  0  0  0  0
  191.3730  177.5000  141.8780 C   0  0  1  0  0  3  0  0  0  0  0  0
  190.6550  179.3070  143.2670 F   0  0  0  0  0  0  0  0  0  0  0  0
  191.4740  178.1920  143.2530 C   0  0  1  0  0  3  0  0  0  0  0  0
  190.1880  177.1130  146.6720 C   0  0  0  0  0  0  0  0  0  0  0  0
  191.2710  177.3610  144.5030 C   0  0  0  0  0  0  0  0  0  0  0  0
  191.8820  175.5240  145.9840 C   0  0  0  0  0  3  0  0  0  0  0  0
  192.0510  176.2280  144.7870 C   0  0  0  0  0  3  0  0  0  0  0  0
  190.3550  177.8090  145.4700 C   0  0  0  0  0  3  0  0  0  0  0  0
  190.9490  175.9670  146.9240 C   0  0  0  0  0  3  0  0  0  0  0  0
  189.2530  177.5750  147.6420 N   0  0  0  0  0  0  0  0  0  0  0  0
  188.1110  177.3820  148.5840 C   0  0  0  0  0  2  0  0  0  0  0  0
  188.6580  178.6440  148.4950 C   0  0  0  0  0  2  0  0  0  0  0  0
  190.1980  177.7920  139.5490 C   0  0  2  0  0  3  0  0  0  0  0  0
  189.4330  178.8480  138.7610 C   0  0  0  0  0  1  0  0  0  0  0  0
  188.8940  176.4030  137.1090 C   0  0  2  0  0  3  0  0  0  0  0  0
  189.8100  176.3450  139.2090 C   0  0  2  0  0  3  0  0  0  0  0  0
  189.7050  175.4090  136.5520 O   0  0  0  0  0  0  0  0  0  0  0  0
  191.6860  175.7120  137.9090 C   0  0  1  0  0  3  0  0  0  0  0  0
  190.8540  175.4040  139.0180 O   0  0  0  0  0  0  0  0  0  0  0  0
  188.6390  176.1020  138.4570 O   0  0  0  0  0  0  0  0  0  0  0  0
  190.9810  175.9730  136.5670 C   0  0  0  0  0  2  0  0  0  0  0  0
  192.8100  176.6970  138.2390 C   0  0  2  0  0  3  0  0  0  0  0  0
  193.4590  177.1270  137.0760 O   0  0  0  0  0  1  0  0  0  0  0  0
  193.7300  176.0940  139.0990 O   0  0  0  0  0  0  0  0  0  0  0  0
  194.2590  175.0260  138.3690 C   0  0  0  0  0  2  0  0  0  0  0  0
  196.5690  174.7590  137.8700 O   0  0  0  0  0  1  0  0  0  0  0  0
  195.6320  174.6700  138.9010 C   0  0  0  0  0  2  0  0  0  0  0  0
  187.5800  176.4880  136.3420 C   0  0  1  0  0  3  0  0  0  0  0  0
  187.8140  176.2720  134.9820 O   0  0  0  0  0  1  0  0  0  0  0  0
  186.0010  174.6810  135.6970 C   0  0  0  0  0  1  0  0  0  0  0  0
  186.6000  175.4460  136.8590 C   0  0  0  0  0  2  0  0  0  0  0  0
  1  2  2  0  0  0  0
  3  1  1  0  0  0  0
  4  3  1  0  0  0  0
  5  4  1  6  0  0  0
  5 10  1  0  0  0  0
  6  8  2  0  0  0  0
  7 12  1  0  0  0  0
  8 11  1  0  0  0  0
  9  7  1  0  0  0  0
 10  9  2  0  0  0  0
 10  8  1  0  0  0  0
 11 12  1  0  0  0  0
 13 16  1  0  0  0  0
 14 19  1  1  0  0  0
 14 13  1  0  0  0  0
 14 17  1  0  0  0  0
 16  5  1  1  0  0  0
 16 15  1  0  0  0  0
 17 18  1  0  0  0  0
 18 15  1  0  0  0  0
 20 21  2  0  0  0  0
 21 19  1  0  0  0  0
 24 23  2  0  0  0  0
 24 21  1  0  0  0  0
 25 27  1  0  0  0  0
 25 28  2  0  0  0  0
 26 29  1  6  0  0  0
 26 22  1  0  0  0  0
 26 24  1  0  0  0  0
 27 22  2  0  0  0  0
 28 23  1  0  0  0  0
 31 33  2  0  0  0  0
 32 29  1  0  0  0  0
 33 32  1  0  0  0  0
 33 30  1  0  0  0  0
 34  1  1  1  0  0  0
 34 36  1  0  0  0  0
 36 35  1  6  0  0  0
 36 38  1  0  0  0  0
 38 37  1  6  0  0  0
 38 40  1  0  0  0  0
 39 44  1  0  0  0  0
 39 45  1  0  0  0  0
 40 42  2  0  0  0  0
 40 43  1  0  0  0  0
 41 44  2  0  0  0  0
 42 41  1  0  0  0  0
 43 39  2  0  0  0  0
 45 47  1  0  0  0  0
 45 46  1  0  0  0  0
 47 46  1  0  0  0  0
 48 49  1  6  0  0  0
 48 34  1  0  0  0  0
 50 63  1  6  0  0  0
 50 55  1  0  0  0  0
 51 48  1  6  0  0  0
 52 56  1  0  0  0  0
 52 50  1  0  0  0  0
 53 57  1  1  0  0  0
 53 54  1  0  0  0  0
 54 51  1  0  0  0  0
 55 51  1  0  0  0  0
 56 53  1  0  0  0  0
 57 58  1  6  0  0  0
 57 59  1  0  0  0  0
 60 62  1  0  0  0  0
 60 59  1  0  0  0  0
 61 62  1  0  0  0  0
 63 64  1  6  0  0  0
 63 66  1  0  0  0  0
 65 66  1  0  0  0  0
M  END
>  <MODEL>
6

>  <REMARK>
 VINA RESULT:      -6.2      1.923      2.748
  Name = 
  22 active torsions:
  status: ('A' for Active; 'I' for Inactive)
    1  A    between atoms: C_1  and  C_8
    2  A    between atoms: C_1  and  C_47
    3  A    between atoms: C_3  and  C_14
    4  A    between atoms: C_3  and  C_56
    5  A    between atoms: C_4  and  N_24
    6  A    between atoms: C_7  and  C_32
    7  A    between atoms: C_9  and  C_32
    8  A    between atoms: C_9  and  C_56
    9  A    between atoms: C_11  and  N_30
   10  A    between atoms: C_11  and  C_56
   11  A    between atoms: N_13  and  C_36
   12  A    between atoms: C_19  and  C_45
   13  A    between atoms: C_19  and  N_55
   14  A    between atoms: C_20  and  O_25
   15  A    between atoms: C_20  and  C_40
   16  A    between atoms: C_22  and  C_23
   17  A    between atoms: C_23  and  O_25
   18  A    between atoms: C_29  and  C_37
   19  A    between atoms: N_30  and  O_35
   20  A    between atoms: O_35  and  C_65
   21  A    between atoms: C_43  and  C_65
   22  A    between atoms: C_58  and  C_65
                            x       y       z     vdW  Elec       q    Type
                         _______ _______ _______ _____ _____    ______ ____

>  <TORSDO>
F 22

$$$$
=
 OpenBabel11062415053D

 66 71  0  0  1  0  0  0  0  0999 V2000
  188.4710  177.5370  141.8940 C   0  0  0  0  0  0  0  0  0  0  0  0
  188.3060  176.3480  142.4570 C   0  0  0  0  0  2  0  0  0  0  0  0
  187.3140  178.3220  141.6080 N   0  0  0  0  0  2  0  0  0  0  0  0
  186.0540  177.8170  141.7130 O   0  0  0  0  0  0  0  0  0  0  0  0
  185.2620  178.7610  142.4050 C   0  0  2  0  0  3  0  0  0  0  0  0
  184.7760  180.9340  144.3650 O   0  0  0  0  0  0  0  0  0  0  0  0
  185.8000  177.3590  145.8450 O   0  0  0  0  0  0  0  0  0  0  0  0
  185.1630  179.8200  144.8050 C   0  0  0  0  0  0  0  0  0  0  0  0
  185.6800  177.4970  144.4560 C   0  0  0  0  0  3  0  0  0  0  0  0
  185.4210  178.6820  143.9000 C   0  0  0  0  0  0  0  0  0  0  0  0
  185.2930  179.6300  146.1800 O   0  0  0  0  0  0  0  0  0  0  0  0
  185.9740  178.4890  146.7030 C   0  0  0  0  0  2  0  0  0  0  0  0
  183.5000  177.7600  140.9150 C   0  0  0  0  0  2  0  0  0  0  0  0
  182.0550  177.8600  140.4200 C   0  0  2  0  0  3  0  0  0  0  0  0
  182.8280  178.8350  143.0690 C   0  0  0  0  0  2  0  0  0  0  0  0
  183.8160  178.8900  141.9010 C   0  0  1  0  0  3  0  0  0  0  0  0
  181.0650  177.8820  141.5860 C   0  0  0  0  0  2  0  0  0  0  0  0
  181.4050  179.0070  142.5570 C   0  0  0  0  0  2  0  0  0  0  0  0
  181.7380  176.7610  139.5120 N   0  0  0  0  0  2  0  0  0  0  0  0
  180.2210  177.9350  138.1790 O   0  0  0  0  0  0  0  0  0  0  0  0
  180.8870  176.8790  138.3630 C   0  0  0  0  0  0  0  0  0  0  0  0
  181.2130  173.2910  137.4580 C   0  0  0  0  0  3  0  0  0  0  0  0
  179.9710  175.8840  136.3480 C   0  0  0  0  0  3  0  0  0  0  0  0
  180.8120  175.7740  137.3870 C   0  0  0  0  0  0  0  0  0  0  0  0
  179.9700  173.5880  135.3140 C   0  0  0  0  0  3  0  0  0  0  0  0
  181.8140  174.6580  137.4940 C   0  0  2  0  0  3  0  0  0  0  0  0
  180.4390  172.8220  136.4790 C   0  0  0  0  0  3  0  0  0  0  0  0
  179.7690  174.9080  135.2600 C   0  0  0  0  0  3  0  0  0  0  0  0
  182.9520  174.8130  136.4950 C   0  0  0  0  0  2  0  0  0  0  0  0
  186.1060  172.8560  137.5800 C   0  0  0  0  0  1  0  0  0  0  0  0
  184.7390  172.7440  135.6020 N   0  0  0  0  0  2  0  0  0  0  0  0
  184.2100  174.4660  137.1410 N   0  0  0  0  0  2  0  0  0  0  0  0
  184.9990  173.3510  136.7170 C   0  0  0  0  0  0  0  0  0  0  0  0
  189.8000  177.9370  141.3210 C   0  0  1  0  0  3  0  0  0  0  0  0
  192.0870  177.1360  141.3090 F   0  0  0  0  0  0  0  0  0  0  0  0
  191.0120  177.4300  142.1240 C   0  0  1  0  0  3  0  0  0  0  0  0
  190.9920  179.6560  142.9910 F   0  0  0  0  0  0  0  0  0  0  0  0
  191.3380  178.3570  143.3130 C   0  0  1  0  0  3  0  0  0  0  0  0
  191.2020  176.8520  146.8090 C   0  0  0  0  0  0  0  0  0  0  0  0
  190.8200  177.9880  144.6870 C   0  0  0  0  0  0  0  0  0  0  0  0
  189.0280  177.8030  146.3290 C   0  0  0  0  0  3  0  0  0  0  0  0
  189.4900  178.2190  145.0760 C   0  0  0  0  0  3  0  0  0  0  0  0
  191.6630  177.2770  145.5590 C   0  0  0  0  0  3  0  0  0  0  0  0
  189.8860  177.1210  147.1940 C   0  0  0  0  0  3  0  0  0  0  0  0
  192.0690  176.1370  147.6840 N   0  0  0  0  0  0  0  0  0  0  0  0
  193.0780  176.0570  148.7830 C   0  0  0  0  0  2  0  0  0  0  0  0
  192.6730  174.8740  148.2010 C   0  0  0  0  0  2  0  0  0  0  0  0
  189.8490  177.7620  139.7950 C   0  0  2  0  0  3  0  0  0  0  0  0
  189.4230  179.0020  139.0190 C   0  0  0  0  0  1  0  0  0  0  0  0
  188.1500  176.9110  137.3500 C   0  0  2  0  0  3  0  0  0  0  0  0
  189.1130  176.4770  139.3850 C   0  0  2  0  0  3  0  0  0  0  0  0
  188.6760  175.8000  136.6830 O   0  0  0  0  0  0  0  0  0  0  0  0
  190.7280  175.5230  137.9370 C   0  0  1  0  0  3  0  0  0  0  0  0
  189.8940  175.3340  139.0710 O   0  0  0  0  0  0  0  0  0  0  0  0
  187.8870  176.5750  138.6890 O   0  0  0  0  0  0  0  0  0  0  0  0
  190.0500  176.0460  136.6590 C   0  0  0  0  0  2  0  0  0  0  0  0
  192.0670  176.1890  138.2640 C   0  0  2  0  0  3  0  0  0  0  0  0
  192.4130  177.1290  137.2860 O   0  0  0  0  0  1  0  0  0  0  0  0
  193.0670  175.2180  138.3600 O   0  0  0  0  0  0  0  0  0  0  0  0
  192.6990  174.2310  137.4410 C   0  0  0  0  0  2  0  0  0  0  0  0
  193.3840  174.6550  135.2040 O   0  0  0  0  0  1  0  0  0  0  0  0
  193.7890  174.0660  136.4020 C   0  0  0  0  0  2  0  0  0  0  0  0
  186.8640  177.3610  136.6700 C   0  0  1  0  0  3  0  0  0  0  0  0
  186.5820  176.5190  135.5910 O   0  0  0  0  0  1  0  0  0  0  0  0
  185.5280  178.6880  138.2910 C   0  0  0  0  0  1  0  0  0  0  0  0
  185.7050  177.3250  137.6560 C   0  0  0  0  0  2  0  0  0  0  0  0
  1  2  2  0  0  0  0
  3  4  1  0  0  0  0
  3  1  1  0  0  0  0
  5  4  1  6  0  0  0
  5 10  1  0  0  0  0
  6  8  2  0  0  0  0
  7 12  1  0  0  0  0
  8 11  1  0  0  0  0
  9  7  1  0  0  0  0
 10  9  2  0  0  0  0
 10  8  1  0  0  0  0
 11 12  1  0  0  0  0
 13 16  1  0  0  0  0
 14 19  1  6  0  0  0
 14 13  1  0  0  0  0
 14 17  1  0  0  0  0
 16  5  1  1  0  0  0
 16 15  1  0  0  0  0
 17 18  1  0  0  0  0
 18 15  1  0  0  0  0
 20 21  2  0  0  0  0
 21 19  1  0  0  0  0
 22 26  1  0  0  0  0
 23 24  2  0  0  0  0
 24 26  1  0  0  0  0
 24 21  1  0  0  0  0
 25 27  1  0  0  0  0
 26 29  1  6  0  0  0
 27 22  2  0  0  0  0
 28 25  2  0  0  0  0
 28 23  1  0  0  0  0
 29 32  1  0  0  0  0
 31 33  2  0  0  0  0
 33 32  1  0  0  0  0
 33 30  1  0  0  0  0
 34  1  1  1  0  0  0
 34 36  1  0  0  0  0
 36 35  1  6  0  0  0
 36 38  1  0  0  0  0
 38 37  1  6  0  0  0
 38 40  1  0  0  0  0
 39 44  1  0  0  0  0
 39 45  1  0  0  0  0
 40 42  2  0  0  0  0
 40 43  1  0  0  0  0
 41 44  2  0  0  0  0
 42 41  1  0  0  0  0
 43 39  2  0  0  0  0
 45 47  1  0  0  0  0
 45 46  1  0  0  0  0
 47 46  1  0  0  0  0
 48 49  1  6  0  0  0
 48 34  1  0  0  0  0
 50 63  1  6  0  0  0
 50 55  1  0  0  0  0
 51 48  1  6  0  0  0
 52 50  1  0  0  0  0
 53 57  1  1  0  0  0
 53 54  1  0  0  0  0
 54 51  1  0  0  0  0
 55 51  1  0  0  0  0
 56 52  1  0  0  0  0
 56 53  1  0  0  0  0
 57 58  1  6  0  0  0
 57 59  1  0  0  0  0
 60 59  1  0  0  0  0
 61 62  1  0  0  0  0
 62 60  1  0  0  0  0
 63 64  1  6  0  0  0
 63 66  1  0  0  0  0
 66 65  1  0  0  0  0
M  END
>  <MODEL>
7

>  <REMARK>
 VINA RESULT:      -5.7      1.862      2.807
  Name = 
  22 active torsions:
  status: ('A' for Active; 'I' for Inactive)
    1  A    between atoms: C_1  and  C_8
    2  A    between atoms: C_1  and  C_47
    3  A    between atoms: C_3  and  C_14
    4  A    between atoms: C_3  and  C_56
    5  A    between atoms: C_4  and  N_24
    6  A    between atoms: C_7  and  C_32
    7  A    between atoms: C_9  and  C_32
    8  A    between atoms: C_9  and  C_56
    9  A    between atoms: C_11  and  N_30
   10  A    between atoms: C_11  and  C_56
   11  A    between atoms: N_13  and  C_36
   12  A    between atoms: C_19  and  C_45
   13  A    between atoms: C_19  and  N_55
   14  A    between atoms: C_20  and  O_25
   15  A    between atoms: C_20  and  C_40
   16  A    between atoms: C_22  and  C_23
   17  A    between atoms: C_23  and  O_25
   18  A    between atoms: C_29  and  C_37
   19  A    between atoms: N_30  and  O_35
   20  A    between atoms: O_35  and  C_65
   21  A    between atoms: C_43  and  C_65
   22  A    between atoms: C_58  and  C_65
                            x       y       z     vdW  Elec       q    Type
                         _______ _______ _______ _____ _____    ______ ____

>  <TORSDO>
F 22

$$$$
=
 OpenBabel11062415053D

 66 71  0  0  1  0  0  0  0  0999 V2000
  183.2450  177.2720  135.9420 C   0  0  0  0  0  0  0  0  0  0  0  0
  183.3070  177.5110  134.6400 C   0  0  0  0  0  2  0  0  0  0  0  0
  184.4440  177.3680  136.7110 N   0  0  0  0  0  2  0  0  0  0  0  0
  185.6200  177.7810  136.1660 O   0  0  0  0  0  0  0  0  0  0  0  0
  186.4800  178.1600  137.2210 C   0  0  2  0  0  3  0  0  0  0  0  0
  189.0330  179.6620  137.4070 O   0  0  0  0  0  0  0  0  0  0  0  0
  189.2960  175.7010  136.8940 O   0  0  0  0  0  0  0  0  0  0  0  0
  189.0910  178.4250  137.1790 C   0  0  0  0  0  0  0  0  0  0  0  0
  188.0240  176.2780  136.9890 C   0  0  0  0  0  3  0  0  0  0  0  0
  187.8710  177.6010  137.0800 C   0  0  0  0  0  0  0  0  0  0  0  0
  190.3350  177.8020  137.0810 O   0  0  0  0  0  0  0  0  0  0  0  0
  190.4530  176.4750  136.5680 C   0  0  0  0  0  2  0  0  0  0  0  0
  186.9550  178.2530  139.6890 C   0  0  0  0  0  2  0  0  0  0  0  0
  186.3580  178.1750  141.0970 C   0  0  2  0  0  3  0  0  0  0  0  0
  184.7730  179.1090  138.8200 C   0  0  0  0  0  2  0  0  0  0  0  0
  185.8680  178.0570  138.6270 C   0  0  1  0  0  3  0  0  0  0  0  0
  185.2110  179.1730  141.2730 C   0  0  0  0  0  2  0  0  0  0  0  0
  184.1480  178.9640  140.2010 C   0  0  0  0  0  2  0  0  0  0  0  0
  187.3830  178.4040  142.1110 N   0  0  0  0  0  2  0  0  0  0  0  0
  187.5670  176.1860  142.8200 O   0  0  0  0  0  0  0  0  0  0  0  0
  188.0110  177.3660  142.8760 C   0  0  0  0  0  0  0  0  0  0  0  0
  190.6680  176.3770  145.2780 C   0  0  0  0  0  3  0  0  0  0  0  0
  190.0040  178.6730  143.3330 C   0  0  0  0  0  3  0  0  0  0  0  0
  189.1900  177.6760  143.7090 C   0  0  0  0  0  0  0  0  0  0  0  0
  191.9970  178.4470  144.8550 C   0  0  0  0  0  3  0  0  0  0  0  0
  189.3250  176.9880  145.0390 C   0  0  2  0  0  3  0  0  0  0  0  0
  191.8260  177.0340  145.2320 C   0  0  0  0  0  3  0  0  0  0  0  0
  191.2110  179.1510  144.0360 C   0  0  0  0  0  3  0  0  0  0  0  0
  188.8860  177.8800  146.1920 C   0  0  0  0  0  2  0  0  0  0  0  0
  185.2160  178.9290  145.5730 C   0  0  0  0  0  1  0  0  0  0  0  0
  186.2230  177.4650  147.1970 N   0  0  0  0  0  2  0  0  0  0  0  0
  187.7170  178.6470  145.7880 N   0  0  0  0  0  2  0  0  0  0  0  0
  186.4000  178.3180  146.2370 C   0  0  0  0  0  0  0  0  0  0  0  0
  182.0190  176.6550  136.5520 C   0  0  1  0  0  3  0  0  0  0  0  0
  180.1040  175.9570  135.2400 F   0  0  0  0  0  0  0  0  0  0  0  0
  180.7040  177.0410  135.8520 C   0  0  1  0  0  3  0  0  0  0  0  0
  179.3850  177.0550  137.8440 F   0  0  0  0  0  0  0  0  0  0  0  0
  179.7760  177.8500  136.7820 C   0  0  1  0  0  3  0  0  0  0  0  0
  180.5380  181.5820  136.8080 C   0  0  0  0  0  0  0  0  0  0  0  0
  180.2390  179.2080  137.2690 C   0  0  0  0  0  0  0  0  0  0  0  0
  181.4180  180.6340  138.8550 C   0  0  0  0  0  3  0  0  0  0  0  0
  180.9480  179.3740  138.4700 C   0  0  0  0  0  3  0  0  0  0  0  0
  180.0610  180.3210  136.4310 C   0  0  0  0  0  3  0  0  0  0  0  0
  181.2110  181.7360  138.0230 C   0  0  0  0  0  3  0  0  0  0  0  0
  180.3460  182.7030  135.9510 N   0  0  0  0  0  0  0  0  0  0  0  0
  179.5370  183.5340  135.0090 C   0  0  0  0  0  2  0  0  0  0  0  0
  180.8170  183.9590  135.2980 C   0  0  0  0  0  2  0  0  0  0  0  0
  182.2250  175.1690  136.8850 C   0  0  2  0  0  3  0  0  0  0  0  0
  183.2440  174.9220  137.9900 C   0  0  0  0  0  1  0  0  0  0  0  0
  184.3560  173.1110  135.9880 C   0  0  2  0  0  3  0  0  0  0  0  0
  182.4790  174.3670  135.6000 C   0  0  2  0  0  3  0  0  0  0  0  0
  183.8040  171.8790  135.6260 O   0  0  0  0  0  0  0  0  0  0  0  0
  181.4910  172.3000  136.2040 C   0  0  1  0  0  3  0  0  0  0  0  0
  181.5480  173.3530  135.2530 O   0  0  0  0  0  0  0  0  0  0  0  0
  183.8080  174.1270  135.1870 O   0  0  0  0  0  0  0  0  0  0  0  0
  182.8300  171.6520  136.5990 C   0  0  0  0  0  2  0  0  0  0  0  0
  180.5510  172.5810  137.3780 C   0  0  2  0  0  3  0  0  0  0  0  0
  179.6840  171.5050  137.5980 O   0  0  0  0  0  1  0  0  0  0  0  0
  179.8110  173.7390  137.1240 O   0  0  0  0  0  0  0  0  0  0  0  0
  178.9320  173.8490  138.2050 C   0  0  0  0  0  2  0  0  0  0  0  0
  180.1190  175.2200  139.7430 O   0  0  0  0  0  1  0  0  0  0  0  0
  179.7160  173.9060  139.5010 C   0  0  0  0  0  2  0  0  0  0  0  0
  185.8690  173.0720  135.8080 C   0  0  1  0  0  3  0  0  0  0  0  0
  186.4950  173.4470  136.9990 O   0  0  0  0  0  1  0  0  0  0  0  0
  187.7130  171.4120  135.9450 C   0  0  0  0  0  1  0  0  0  0  0  0
  186.3170  171.6710  135.4190 C   0  0  0  0  0  2  0  0  0  0  0  0
  1  3  1  0  0  0  0
  2  1  2  0  0  0  0
  4  3  1  0  0  0  0
  5  4  1  6  0  0  0
  7  9  1  0  0  0  0
  8  6  2  0  0  0  0
  9 10  2  0  0  0  0
 10  8  1  0  0  0  0
 10  5  1  0  0  0  0
 11  8  1  0  0  0  0
 12  7  1  0  0  0  0
 12 11  1  0  0  0  0
 13 14  1  0  0  0  0
 14 17  1  0  0  0  0
 14 19  1  1  0  0  0
 15 18  1  0  0  0  0
 16  5  1  6  0  0  0
 16 15  1  0  0  0  0
 16 13  1  0  0  0  0
 18 17  1  0  0  0  0
 19 21  1  0  0  0  0
 20 21  2  0  0  0  0
 21 24  1  0  0  0  0
 23 24  2  0  0  0  0
 23 28  1  0  0  0  0
 24 26  1  0  0  0  0
 25 27  1  0  0  0  0
 26 22  1  0  0  0  0
 26 29  1  1  0  0  0
 27 22  2  0  0  0  0
 28 25  2  0  0  0  0
 30 33  1  0  0  0  0
 32 29  1  0  0  0  0
 32 33  1  0  0  0  0
 33 31  2  0  0  0  0
 34  1  1  6  0  0  0
 34 48  1  0  0  0  0
 36 35  1  1  0  0  0
 36 34  1  0  0  0  0
 36 38  1  0  0  0  0
 38 40  1  0  0  0  0
 38 37  1  1  0  0  0
 39 44  1  0  0  0  0
 40 42  2  0  0  0  0
 42 41  1  0  0  0  0
 43 39  2  0  0  0  0
 43 40  1  0  0  0  0
 44 41  2  0  0  0  0
 45 39  1  0  0  0  0
 46 47  1  0  0  0  0
 46 45  1  0  0  0  0
 47 45  1  0  0  0  0
 48 49  1  1  0  0  0
 50 63  1  6  0  0  0
 51 48  1  1  0  0  0
 52 50  1  0  0  0  0
 52 56  1  0  0  0  0
 53 56  1  0  0  0  0
 53 57  1  1  0  0  0
 54 51  1  0  0  0  0
 54 53  1  0  0  0  0
 55 51  1  0  0  0  0
 55 50  1  0  0  0  0
 57 58  1  6  0  0  0
 59 57  1  0  0  0  0
 59 60  1  0  0  0  0
 60 62  1  0  0  0  0
 62 61  1  0  0  0  0
 63 64  1  1  0  0  0
 66 63  1  0  0  0  0
 66 65  1  0  0  0  0
M  END
>  <MODEL>
8

>  <REMARK>
 VINA RESULT:      -5.7      3.397     10.806
  Name = 
  22 active torsions:
  status: ('A' for Active; 'I' for Inactive)
    1  A    between atoms: C_1  and  C_8
    2  A    between atoms: C_1  and  C_47
    3  A    between atoms: C_3  and  C_14
    4  A    between atoms: C_3  and  C_56
    5  A    between atoms: C_4  and  N_24
    6  A    between atoms: C_7  and  C_32
    7  A    between atoms: C_9  and  C_32
    8  A    between atoms: C_9  and  C_56
    9  A    between atoms: C_11  and  N_30
   10  A    between atoms: C_11  and  C_56
   11  A    between atoms: N_13  and  C_36
   12  A    between atoms: C_19  and  C_45
   13  A    between atoms: C_19  and  N_55
   14  A    between atoms: C_20  and  O_25
   15  A    between atoms: C_20  and  C_40
   16  A    between atoms: C_22  and  C_23
   17  A    between atoms: C_23  and  O_25
   18  A    between atoms: C_29  and  C_37
   19  A    between atoms: N_30  and  O_35
   20  A    between atoms: O_35  and  C_65
   21  A    between atoms: C_43  and  C_65
   22  A    between atoms: C_58  and  C_65
                            x       y       z     vdW  Elec       q    Type
                         _______ _______ _______ _____ _____    ______ ____

>  <TORSDO>
F 22

$$$$
=
 OpenBabel11062415053D

 66 71  0  0  1  0  0  0  0  0999 V2000
  187.1040  178.3230  140.1360 C   0  0  0  0  0  0  0  0  0  0  0  0
  186.3470  178.2490  139.0500 C   0  0  0  0  0  2  0  0  0  0  0  0
  186.4920  178.6980  141.3700 N   0  0  0  0  0  2  0  0  0  0  0  0
  185.3480  178.1100  141.8160 O   0  0  0  0  0  0  0  0  0  0  0  0
  184.7030  179.0180  142.6860 C   0  0  2  0  0  3  0  0  0  0  0  0
  186.0750  176.6710  143.8740 O   0  0  0  0  0  0  0  0  0  0  0  0
  185.3190  179.7520  146.3150 O   0  0  0  0  0  0  0  0  0  0  0  0
  185.7680  177.6230  144.6380 C   0  0  0  0  0  0  0  0  0  0  0  0
  184.9390  179.8560  144.9710 C   0  0  0  0  0  3  0  0  0  0  0  0
  185.0910  178.8320  144.1290 C   0  0  0  0  0  0  0  0  0  0  0  0
  186.1290  177.5700  145.9830 O   0  0  0  0  0  0  0  0  0  0  0  0
  185.5790  178.4870  146.9290 C   0  0  0  0  0  2  0  0  0  0  0  0
  182.7250  178.2350  141.3440 C   0  0  0  0  0  2  0  0  0  0  0  0
  181.2240  178.3960  141.0900 C   0  0  2  0  0  3  0  0  0  0  0  0
  182.3950  178.9750  143.7090 C   0  0  0  0  0  2  0  0  0  0  0  0
  183.1990  179.2090  142.4280 C   0  0  1  0  0  3  0  0  0  0  0  0
  180.4180  178.2380  142.3820 C   0  0  0  0  0  2  0  0  0  0  0  0
  180.9150  179.2100  143.4460 C   0  0  0  0  0  2  0  0  0  0  0  0
  180.7590  177.4390  140.0890 N   0  0  0  0  0  2  0  0  0  0  0  0
  181.7280  178.4870  138.2390 O   0  0  0  0  0  0  0  0  0  0  0  0
  181.1140  177.4850  138.7000 C   0  0  0  0  0  0  0  0  0  0  0  0
  180.1240  173.9450  138.1630 C   0  0  0  0  0  3  0  0  0  0  0  0
  180.2610  176.6010  136.6070 C   0  0  0  0  0  3  0  0  0  0  0  0
  180.7800  176.3500  137.8170 C   0  0  0  0  0  0  0  0  0  0  0  0
  179.5230  174.3420  135.7730 C   0  0  0  0  0  3  0  0  0  0  0  0
  181.2080  174.9700  138.2370 C   0  0  2  0  0  3  0  0  0  0  0  0
  179.4200  173.6530  137.0700 C   0  0  0  0  0  3  0  0  0  0  0  0
  179.8860  175.6130  135.5760 C   0  0  0  0  0  3  0  0  0  0  0  0
  182.4730  174.5220  137.5200 C   0  0  0  0  0  2  0  0  0  0  0  0
  183.4480  170.9040  136.5630 C   0  0  0  0  0  1  0  0  0  0  0  0
  184.7260  172.7350  137.4630 N   0  0  0  0  0  2  0  0  0  0  0  0
  182.3940  173.0930  137.2540 N   0  0  0  0  0  2  0  0  0  0  0  0
  183.5620  172.2770  137.1260 C   0  0  0  0  0  0  0  0  0  0  0  0
  188.6010  178.2830  140.0320 C   0  0  1  0  0  3  0  0  0  0  0  0
  189.4330  179.7510  141.7710 F   0  0  0  0  0  0  0  0  0  0  0  0
  189.3320  178.4310  141.3780 C   0  0  1  0  0  3  0  0  0  0  0  0
  188.2950  176.3290  141.8420 F   0  0  0  0  0  0  0  0  0  0  0  0
  188.7560  177.4830  142.4500 C   0  0  1  0  0  3  0  0  0  0  0  0
  189.9130  177.2860  146.0730 C   0  0  0  0  0  0  0  0  0  0  0  0
  189.6040  177.1510  143.6600 C   0  0  0  0  0  0  0  0  0  0  0  0
  191.6780  176.3830  144.6840 C   0  0  0  0  0  3  0  0  0  0  0  0
  190.8970  176.6130  143.5470 C   0  0  0  0  0  3  0  0  0  0  0  0
  189.1320  177.5070  144.9340 C   0  0  0  0  0  3  0  0  0  0  0  0
  191.1840  176.7180  145.9450 C   0  0  0  0  0  3  0  0  0  0  0  0
  189.4200  177.6480  147.3590 N   0  0  0  0  0  0  0  0  0  0  0  0
  188.5040  177.4800  148.5270 C   0  0  0  0  0  2  0  0  0  0  0  0
  189.4240  178.5060  148.5800 C   0  0  0  0  0  2  0  0  0  0  0  0
  189.0860  177.1670  139.0920 C   0  0  2  0  0  3  0  0  0  0  0  0
  190.0120  176.1580  139.7600 C   0  0  0  0  0  1  0  0  0  0  0  0
  191.3300  176.3810  137.1100 C   0  0  2  0  0  3  0  0  0  0  0  0
  189.6410  177.7710  137.7930 C   0  0  2  0  0  3  0  0  0  0  0  0
  190.8610  176.1850  135.8070 O   0  0  0  0  0  0  0  0  0  0  0  0
  188.4870  176.4510  136.2000 C   0  0  1  0  0  3  0  0  0  0  0  0
  188.8070  177.7610  136.6450 O   0  0  0  0  0  0  0  0  0  0  0  0
  191.0260  177.6870  137.5290 O   0  0  0  0  0  0  0  0  0  0  0  0
  189.6670  175.4870  135.9840 C   0  0  0  0  0  2  0  0  0  0  0  0
  187.2850  175.8330  136.9190 C   0  0  2  0  0  3  0  0  0  0  0  0
  187.6290  174.6170  137.5190 O   0  0  0  0  0  1  0  0  0  0  0  0
  186.2420  175.6350  136.0110 O   0  0  0  0  0  0  0  0  0  0  0  0
  185.1380  176.2700  136.5880 C   0  0  0  0  0  2  0  0  0  0  0  0
  183.4110  177.0710  135.1640 O   0  0  0  0  0  1  0  0  0  0  0  0
  184.6640  177.3930  135.6880 C   0  0  0  0  0  2  0  0  0  0  0  0
  192.8380  176.1630  137.1540 C   0  0  1  0  0  3  0  0  0  0  0  0
  193.1320  175.0720  137.9760 O   0  0  0  0  0  1  0  0  0  0  0  0
  194.7670  176.4780  135.6200 C   0  0  0  0  0  1  0  0  0  0  0  0
  193.3730  175.9000  135.7540 C   0  0  0  0  0  2  0  0  0  0  0  0
  1  3  1  0  0  0  0
  2  1  2  0  0  0  0
  3  4  1  0  0  0  0
  5  4  1  6  0  0  0
  5 10  1  0  0  0  0
  6  8  2  0  0  0  0
  7 12  1  0  0  0  0
  8 11  1  0  0  0  0
  9  7  1  0  0  0  0
 10  8  1  0  0  0  0
 10  9  2  0  0  0  0
 11 12  1  0  0  0  0
 13 16  1  0  0  0  0
 14 19  1  6  0  0  0
 14 13  1  0  0  0  0
 14 17  1  0  0  0  0
 16  5  1  1  0  0  0
 16 15  1  0  0  0  0
 17 18  1  0  0  0  0
 18 15  1  0  0  0  0
 20 21  2  0  0  0  0
 21 19  1  0  0  0  0
 22 26  1  0  0  0  0
 23 24  2  0  0  0  0
 24 26  1  0  0  0  0
 24 21  1  0  0  0  0
 25 27  1  0  0  0  0
 26 29  1  6  0  0  0
 27 22  2  0  0  0  0
 28 25  2  0  0  0  0
 28 23  1  0  0  0  0
 30 33  1  0  0  0  0
 32 29  1  0  0  0  0
 33 32  1  0  0  0  0
 33 31  2  0  0  0  0
 34  1  1  1  0  0  0
 34 36  1  0  0  0  0
 36 35  1  1  0  0  0
 36 38  1  0  0  0  0
 38 37  1  6  0  0  0
 38 40  1  0  0  0  0
 39 45  1  0  0  0  0
 40 43  1  0  0  0  0
 41 44  2  0  0  0  0
 42 40  2  0  0  0  0
 42 41  1  0  0  0  0
 43 39  2  0  0  0  0
 44 39  1  0  0  0  0
 45 46  1  0  0  0  0
 45 47  1  0  0  0  0
 46 47  1  0  0  0  0
 48 49  1  1  0  0  0
 48 34  1  0  0  0  0
 50 63  1  6  0  0  0
 50 55  1  0  0  0  0
 51 48  1  1  0  0  0
 52 56  1  0  0  0  0
 52 50  1  0  0  0  0
 53 54  1  0  0  0  0
 53 57  1  1  0  0  0
 54 51  1  0  0  0  0
 55 51  1  0  0  0  0
 56 53  1  0  0  0  0
 57 58  1  6  0  0  0
 59 60  1  0  0  0  0
 59 57  1  0  0  0  0
 61 62  1  0  0  0  0
 62 60  1  0  0  0  0
 63 64  1  1  0  0  0
 65 66  1  0  0  0  0
 66 63  1  0  0  0  0
M  END
>  <MODEL>
9

>  <REMARK>
 VINA RESULT:      -5.3      2.054      4.431
  Name = 
  22 active torsions:
  status: ('A' for Active; 'I' for Inactive)
    1  A    between atoms: C_1  and  C_8
    2  A    between atoms: C_1  and  C_47
    3  A    between atoms: C_3  and  C_14
    4  A    between atoms: C_3  and  C_56
    5  A    between atoms: C_4  and  N_24
    6  A    between atoms: C_7  and  C_32
    7  A    between atoms: C_9  and  C_32
    8  A    between atoms: C_9  and  C_56
    9  A    between atoms: C_11  and  N_30
   10  A    between atoms: C_11  and  C_56
   11  A    between atoms: N_13  and  C_36
   12  A    between atoms: C_19  and  C_45
   13  A    between atoms: C_19  and  N_55
   14  A    between atoms: C_20  and  O_25
   15  A    between atoms: C_20  and  C_40
   16  A    between atoms: C_22  and  C_23
   17  A    between atoms: C_23  and  O_25
   18  A    between atoms: C_29  and  C_37
   19  A    between atoms: N_30  and  O_35
   20  A    between atoms: O_35  and  C_65
   21  A    between atoms: C_43  and  C_65
   22  A    between atoms: C_58  and  C_65
                            x       y       z     vdW  Elec       q    Type
                         _______ _______ _______ _____ _____    ______ ____

>  <TORSDO>
F 22

$$$$
