=
 OpenBabel11062416213D

 29 33  0  0  1  0  0  0  0  0999 V2000
  182.7730  177.1140  141.0610 C   0  0  0  0  0  1  0  0  0  0  0  0
  182.5260  180.4980  138.3880 C   0  0  0  0  0  2  0  0  0  0  0  0
  179.7790  177.7670  141.1220 C   0  0  0  0  0  1  0  0  0  0  0  0
  182.8350  178.1960  138.7810 C   0  0  1  0  0  3  0  0  0  0  0  0
  181.2260  180.8370  139.1060 C   0  0  0  0  0  2  0  0  0  0  0  0
  184.6780  179.6440  138.6910 C   0  0  0  0  0  2  0  0  0  0  0  0
  183.3070  179.5380  139.1580 N   0  0  1  0  0  0  0  0  0  0  0  0
  185.4330  177.2850  136.1940 C   0  0  0  0  0  2  0  0  0  0  0  0
  183.9630  177.3210  138.4550 N   0  0  0  0  0  2  0  0  0  0  0  0
  180.8430  178.5380  140.3610 C   0  0  1  0  0  3  0  0  0  0  0  0
  186.6120  176.6380  136.7870 C   0  0  0  0  0  2  0  0  0  0  0  0
  185.0800  178.2390  138.3570 C   0  0  2  0  0  0  0  0  0  0  0  0
  186.3620  177.6540  138.8170 C   0  0  1  0  0  3  0  0  0  0  0  0
  181.9430  177.5810  139.8730 C   0  0  2  0  0  3  0  0  0  0  0  0
  186.2010  178.0230  137.3120 C   0  0  0  0  0  0  0  0  0  0  0  0
  180.0420  179.4540  139.0000 S   0  0  0  0  0  0  0  0  0  0  0  0
  187.3230  178.2940  141.0220 C   0  0  0  0  0  0  0  0  0  0  0  0
  188.9560  179.2640  137.9430 O   0  0  0  0  0  0  0  0  0  0  0  0
  187.2790  178.6510  139.5470 C   0  0  1  0  0  3  0  0  0  0  0  0
  189.4730  177.2530  140.7440 C   0  0  0  0  0  3  0  0  0  0  0  0
  188.3160  177.6070  141.5130 N   0  0  0  0  0  0  0  0  0  0  0  0
  188.6690  178.5950  138.9700 C   0  0  0  0  0  0  0  0  0  0  0  0
  189.6490  177.7340  139.5530 N   0  0  0  0  0  0  0  0  0  0  0  0
  186.2310  178.6930  141.9240 C   0  0  0  0  0  0  0  0  0  0  0  0
  185.5810  179.7510  141.7060 O   0  0  0  0  0  0  0  0  0  0  0  0
  185.9380  177.8980  143.0420 O   0  0  0  0  0  0  0  0  0  0  0  0
  185.8260  178.3910  144.3780 C   0  0  0  0  0  3  0  0  0  0  0  0
  186.5200  177.4730  145.3690 C   0  0  0  0  0  1  0  0  0  0  0  0
  184.3760  178.6070  144.7700 C   0  0  0  0  0  1  0  0  0  0  0  0
  2  5  1  0  0  0  0
  4  9  1  1  0  0  0
  4  7  1  0  0  0  0
  4 14  1  0  0  0  0
  6  7  1  0  0  0  0
  7  2  1  6  0  0  0
  8 11  1  0  0  0  0
  8 15  1  0  0  0  0
 10  3  1  6  0  0  0
 11 15  1  0  0  0  0
 12  9  1  0  0  0  0
 12  6  1  1  0  0  0
 12 13  1  0  0  0  0
 13 15  1  6  0  0  0
 13 19  1  0  0  0  0
 14 10  1  0  0  0  0
 14  1  1  1  0  0  0
 15 12  1  0  0  0  0
 16  5  1  0  0  0  0
 16 10  1  0  0  0  0
 17 21  2  0  0  0  0
 17 24  1  0  0  0  0
 18 22  2  0  0  0  0
 19 22  1  6  0  0  0
 19 17  1  0  0  0  0
 20 21  1  0  0  0  0
 22 23  1  0  0  0  0
 23 20  2  0  0  0  0
 24 26  1  0  0  0  0
 25 24  2  0  0  0  0
 26 27  1  0  0  0  0
 27 29  1  0  0  0  0
 27 28  1  0  0  0  0
M  END
>  <MODEL>
1

>  <REMARK>
 VINA RESULT:      -5.7      0.000      0.000
  Name = 
  4 active torsions:
  status: ('A' for Active; 'I' for Inactive)
    1  A    between atoms: C_2  and  C_3
    2  A    between atoms: C_2  and  O_10
    3  A    between atoms: C_4  and  O_10
    4  A    between atoms: C_11  and  C_24
                            x       y       z     vdW  Elec       q    Type
                         _______ _______ _______ _____ _____    ______ ____

>  <TORSDO>
F 4

$$$$
=
 OpenBabel11062416213D

 29 33  0  0  1  0  0  0  0  0999 V2000
  185.4430  178.2740  138.2510 C   0  0  0  0  0  1  0  0  0  0  0  0
  183.3630  174.5290  137.7050 C   0  0  0  0  0  2  0  0  0  0  0  0
  187.3130  176.7700  136.3450 C   0  0  0  0  0  1  0  0  0  0  0  0
  183.5710  176.8470  137.3410 C   0  0  1  0  0  3  0  0  0  0  0  0
  184.7160  173.9560  137.3030 C   0  0  0  0  0  2  0  0  0  0  0  0
  182.3060  176.0360  139.1420 C   0  0  0  0  0  2  0  0  0  0  0  0
  183.5230  175.8090  138.3840 N   0  0  1  0  0  0  0  0  0  0  0  0
  179.9700  177.9900  137.3830 C   0  0  0  0  0  2  0  0  0  0  0  0
  182.6530  177.9430  137.6570 N   0  0  0  0  0  2  0  0  0  0  0  0
  186.0290  176.2260  136.9440 C   0  0  1  0  0  3  0  0  0  0  0  0
  179.7340  179.0650  138.3570 C   0  0  0  0  0  2  0  0  0  0  0  0
  181.8510  177.4060  138.7380 C   0  0  2  0  0  0  0  0  0  0  0  0
  181.4440  178.4280  139.7310 C   0  0  1  0  0  3  0  0  0  0  0  0
  185.0030  177.3590  137.1160 C   0  0  2  0  0  3  0  0  0  0  0  0
  180.3460  177.7470  138.8600 C   0  0  0  0  0  0  0  0  0  0  0  0
  185.4170  174.8690  135.8880 S   0  0  0  0  0  0  0  0  0  0  0  0
  182.2160  178.8590  142.0580 C   0  0  0  0  0  0  0  0  0  0  0  0
  179.2830  176.8370  141.4280 O   0  0  0  0  0  0  0  0  0  0  0  0
  181.4130  177.9150  141.1810 C   0  0  1  0  0  3  0  0  0  0  0  0
  180.1950  179.8740  142.8780 C   0  0  0  0  0  3  0  0  0  0  0  0
  181.6210  179.7730  142.7720 N   0  0  0  0  0  0  0  0  0  0  0  0
  179.9920  177.8470  141.6770 C   0  0  0  0  0  0  0  0  0  0  0  0
  179.4280  178.9550  142.3790 N   0  0  0  0  0  0  0  0  0  0  0  0
  183.6840  178.7790  142.0990 C   0  0  0  0  0  0  0  0  0  0  0  0
  184.3770  179.3500  141.2140 O   0  0  0  0  0  0  0  0  0  0  0  0
  184.3040  178.0390  143.1170 O   0  0  0  0  0  0  0  0  0  0  0  0
  185.0140  178.6120  144.2160 C   0  0  0  0  0  3  0  0  0  0  0  0
  186.2110  177.7640  144.6070 C   0  0  0  0  0  1  0  0  0  0  0  0
  184.1020  178.8370  145.4090 C   0  0  0  0  0  1  0  0  0  0  0  0
  4  9  1  1  0  0  0
  4  7  1  0  0  0  0
  5  2  1  0  0  0  0
  7  2  1  6  0  0  0
  7  6  1  0  0  0  0
  8 11  1  0  0  0  0
  8 15  1  0  0  0  0
  9 12  1  0  0  0  0
 10  3  1  6  0  0  0
 10 14  1  0  0  0  0
 11 15  1  0  0  0  0
 12 15  1  0  0  0  0
 12  6  1  1  0  0  0
 12 13  1  0  0  0  0
 13 15  1  6  0  0  0
 13 19  1  0  0  0  0
 14  4  1  0  0  0  0
 14  1  1  1  0  0  0
 16 10  1  0  0  0  0
 16  5  1  0  0  0  0
 17 24  1  0  0  0  0
 17 21  2  0  0  0  0
 18 22  2  0  0  0  0
 19 22  1  1  0  0  0
 19 17  1  0  0  0  0
 21 20  1  0  0  0  0
 22 23  1  0  0  0  0
 23 20  2  0  0  0  0
 24 26  1  0  0  0  0
 25 24  2  0  0  0  0
 26 27  1  0  0  0  0
 27 28  1  0  0  0  0
 27 29  1  0  0  0  0
M  END
>  <MODEL>
2

>  <REMARK>
 VINA RESULT:      -5.5      3.042      6.029
  Name = 
  4 active torsions:
  status: ('A' for Active; 'I' for Inactive)
    1  A    between atoms: C_2  and  C_3
    2  A    between atoms: C_2  and  O_10
    3  A    between atoms: C_4  and  O_10
    4  A    between atoms: C_11  and  C_24
                            x       y       z     vdW  Elec       q    Type
                         _______ _______ _______ _____ _____    ______ ____

>  <TORSDO>
F 4

$$$$
=
 OpenBabel11062416213D

 29 33  0  0  1  0  0  0  0  0999 V2000
  182.2940  176.1580  139.8340 C   0  0  0  0  0  1  0  0  0  0  0  0
  181.2980  177.2620  135.7790 C   0  0  0  0  0  2  0  0  0  0  0  0
  179.2510  175.7870  139.7930 C   0  0  0  0  0  1  0  0  0  0  0  0
  182.2490  175.7760  137.3400 C   0  0  1  0  0  3  0  0  0  0  0  0
  179.8930  177.5220  136.3060 C   0  0  0  0  0  2  0  0  0  0  0  0
  183.5670  177.4190  136.3080 C   0  0  0  0  0  2  0  0  0  0  0  0
  182.2530  177.1730  136.8760 N   0  0  1  0  0  0  0  0  0  0  0  0
  185.2410  174.4450  135.4550 C   0  0  0  0  0  2  0  0  0  0  0  0
  183.6140  175.2590  137.4470 N   0  0  0  0  0  2  0  0  0  0  0  0
  180.1010  176.2970  138.6430 C   0  0  1  0  0  3  0  0  0  0  0  0
  186.4960  174.6230  136.1990 C   0  0  0  0  0  2  0  0  0  0  0  0
  184.4050  176.2630  136.7640 C   0  0  2  0  0  0  0  0  0  0  0  0
  185.7530  176.4490  137.3530 C   0  0  1  0  0  3  0  0  0  0  0  0
  181.4810  175.6200  138.6630 C   0  0  2  0  0  3  0  0  0  0  0  0
  185.6360  175.8650  135.9130 C   0  0  0  0  0  0  0  0  0  0  0  0
  179.1980  176.0240  137.0800 S   0  0  0  0  0  0  0  0  0  0  0  0
  186.3050  178.4280  138.7570 C   0  0  0  0  0  0  0  0  0  0  0  0
  187.7460  178.0400  135.4620 O   0  0  0  0  0  0  0  0  0  0  0  0
  186.2500  177.9050  137.3330 C   0  0  1  0  0  3  0  0  0  0  0  0
  188.6890  178.1180  138.8180 C   0  0  0  0  0  3  0  0  0  0  0  0
  187.4300  178.4550  139.4150 N   0  0  0  0  0  0  0  0  0  0  0  0
  187.6200  177.9760  136.7130 C   0  0  0  0  0  0  0  0  0  0  0  0
  188.7820  177.9120  137.5410 N   0  0  0  0  0  0  0  0  0  0  0  0
  185.0830  178.8920  139.4340 C   0  0  0  0  0  0  0  0  0  0  0  0
  184.4340  179.8690  138.9750 O   0  0  0  0  0  0  0  0  0  0  0  0
  184.6640  178.2500  140.6100 O   0  0  0  0  0  0  0  0  0  0  0  0
  184.7760  178.8080  141.9200 C   0  0  0  0  0  3  0  0  0  0  0  0
  185.9120  178.1690  142.6990 C   0  0  0  0  0  1  0  0  0  0  0  0
  183.4700  178.6970  142.6840 C   0  0  0  0  0  1  0  0  0  0  0  0
  2  5  1  0  0  0  0
  4  9  1  1  0  0  0
  4 14  1  0  0  0  0
  5 16  1  0  0  0  0
  6  7  1  0  0  0  0
  7  2  1  6  0  0  0
  7  4  1  0  0  0  0
  8 15  1  0  0  0  0
  8 11  1  0  0  0  0
 10 14  1  0  0  0  0
 10  3  1  1  0  0  0
 12  6  1  6  0  0  0
 12 13  1  0  0  0  0
 12  9  1  0  0  0  0
 13 15  1  6  0  0  0
 14  1  1  1  0  0  0
 15 11  1  0  0  0  0
 15 12  1  0  0  0  0
 16 10  1  0  0  0  0
 17 21  2  0  0  0  0
 17 24  1  0  0  0  0
 18 22  2  0  0  0  0
 19 22  1  1  0  0  0
 19 13  1  0  0  0  0
 19 17  1  0  0  0  0
 20 21  1  0  0  0  0
 22 23  1  0  0  0  0
 23 20  2  0  0  0  0
 24 26  1  0  0  0  0
 25 24  2  0  0  0  0
 26 27  1  0  0  0  0
 27 29  1  0  0  0  0
 27 28  1  0  0  0  0
M  END
>  <MODEL>
3

>  <REMARK>
 VINA RESULT:      -5.4      2.305      2.848
  Name = 
  4 active torsions:
  status: ('A' for Active; 'I' for Inactive)
    1  A    between atoms: C_2  and  C_3
    2  A    between atoms: C_2  and  O_10
    3  A    between atoms: C_4  and  O_10
    4  A    between atoms: C_11  and  C_24
                            x       y       z     vdW  Elec       q    Type
                         _______ _______ _______ _____ _____    ______ ____

>  <TORSDO>
F 4

$$$$
=
 OpenBabel11062416213D

 29 33  0  0  1  0  0  0  0  0999 V2000
  187.0010  178.2260  137.3530 C   0  0  0  0  0  1  0  0  0  0  0  0
  185.6790  174.2090  136.4740 C   0  0  0  0  0  2  0  0  0  0  0  0
  189.3700  177.1000  135.7680 C   0  0  0  0  0  1  0  0  0  0  0  0
  185.5570  176.5400  136.1520 C   0  0  1  0  0  3  0  0  0  0  0  0
  187.1550  173.8760  136.2940 C   0  0  0  0  0  2  0  0  0  0  0  0
  184.1760  175.4840  137.7270 C   0  0  0  0  0  2  0  0  0  0  0  0
  185.5180  175.4790  137.1720 N   0  0  1  0  0  0  0  0  0  0  0  0
  181.8560  177.0800  135.6190 C   0  0  0  0  0  2  0  0  0  0  0  0
  184.4330  177.4630  136.3190 N   0  0  0  0  0  2  0  0  0  0  0  0
  188.1150  176.3380  136.1530 C   0  0  1  0  0  3  0  0  0  0  0  0
  181.2960  178.0750  136.5440 C   0  0  0  0  0  2  0  0  0  0  0  0
  183.5700  176.7720  137.2560 C   0  0  2  0  0  0  0  0  0  0  0  0
  182.8480  177.6860  138.1730 C   0  0  1  0  0  3  0  0  0  0  0  0
  186.9030  177.2840  136.1600 C   0  0  2  0  0  3  0  0  0  0  0  0
  182.0290  176.8610  137.1370 C   0  0  0  0  0  0  0  0  0  0  0  0
  187.9100  174.9290  135.0110 S   0  0  0  0  0  0  0  0  0  0  0  0
  182.9220  178.2520  140.5960 C   0  0  0  0  0  0  0  0  0  0  0  0
  181.0060  175.4190  139.4170 O   0  0  0  0  0  0  0  0  0  0  0  0
  182.6750  177.1350  139.5990 C   0  0  1  0  0  3  0  0  0  0  0  0
  180.5550  178.5290  140.9270 C   0  0  0  0  0  3  0  0  0  0  0  0
  181.9260  178.8980  141.1350 N   0  0  0  0  0  0  0  0  0  0  0  0
  181.2810  176.5930  139.7790 C   0  0  0  0  0  0  0  0  0  0  0  0
  180.2520  177.4320  140.3060 N   0  0  0  0  0  0  0  0  0  0  0  0
  184.2930  178.6480  140.9550 C   0  0  0  0  0  0  0  0  0  0  0  0
  184.8920  179.5350  140.2910 O   0  0  0  0  0  0  0  0  0  0  0  0
  184.9340  178.0100  142.0280 O   0  0  0  0  0  0  0  0  0  0  0  0
  185.2250  178.6290  143.2820 C   0  0  0  0  0  3  0  0  0  0  0  0
  186.3050  177.8750  144.0360 C   0  0  0  0  0  1  0  0  0  0  0  0
  183.9760  178.7740  144.1320 C   0  0  0  0  0  1  0  0  0  0  0  0
  4 14  1  0  0  0  0
  4  9  1  1  0  0  0
  4  7  1  0  0  0  0
  5  2  1  0  0  0  0
  7  2  1  6  0  0  0
  7  6  1  0  0  0  0
  8 11  1  0  0  0  0
  8 15  1  0  0  0  0
  9 12  1  0  0  0  0
 10  3  1  6  0  0  0
 10 14  1  0  0  0  0
 11 15  1  0  0  0  0
 12  6  1  1  0  0  0
 12 13  1  0  0  0  0
 13 15  1  6  0  0  0
 13 19  1  0  0  0  0
 14  1  1  1  0  0  0
 15 12  1  0  0  0  0
 16 10  1  0  0  0  0
 16  5  1  0  0  0  0
 17 24  1  0  0  0  0
 17 21  2  0  0  0  0
 18 22  2  0  0  0  0
 19 22  1  6  0  0  0
 19 17  1  0  0  0  0
 20 21  1  0  0  0  0
 22 23  1  0  0  0  0
 23 20  2  0  0  0  0
 24 26  1  0  0  0  0
 25 24  2  0  0  0  0
 26 27  1  0  0  0  0
 27 28  1  0  0  0  0
 27 29  1  0  0  0  0
M  END
>  <MODEL>
4

>  <REMARK>
 VINA RESULT:      -5.2      3.092      6.063
  Name = 
  4 active torsions:
  status: ('A' for Active; 'I' for Inactive)
    1  A    between atoms: C_2  and  C_3
    2  A    between atoms: C_2  and  O_10
    3  A    between atoms: C_4  and  O_10
    4  A    between atoms: C_11  and  C_24
                            x       y       z     vdW  Elec       q    Type
                         _______ _______ _______ _____ _____    ______ ____

>  <TORSDO>
F 4

$$$$
=
 OpenBabel11062416213D

 29 33  0  0  1  0  0  0  0  0999 V2000
  184.0010  177.8810  141.6500 C   0  0  0  0  0  1  0  0  0  0  0  0
  180.7550  179.2240  139.1360 C   0  0  0  0  0  2  0  0  0  0  0  0
  182.0940  179.1540  143.6830 C   0  0  0  0  0  1  0  0  0  0  0  0
  181.9840  177.5060  140.1800 C   0  0  1  0  0  3  0  0  0  0  0  0
  180.4240  180.1950  140.2620 C   0  0  0  0  0  2  0  0  0  0  0  0
  182.5110  178.1870  137.9980 C   0  0  0  0  0  2  0  0  0  0  0  0
  182.0980  178.6810  139.3000 N   0  0  1  0  0  0  0  0  0  0  0  0
  181.8640  174.7530  137.5960 C   0  0  0  0  0  2  0  0  0  0  0  0
  182.6830  176.3550  139.6050 N   0  0  0  0  0  2  0  0  0  0  0  0
  181.8910  179.1110  142.1800 C   0  0  1  0  0  3  0  0  0  0  0  0
  183.2030  174.2710  137.2280 C   0  0  0  0  0  2  0  0  0  0  0  0
  182.9570  176.7770  138.2460 C   0  0  2  0  0  0  0  0  0  0  0  0
  184.2360  176.2490  137.7140 C   0  0  1  0  0  3  0  0  0  0  0  0
  182.4800  177.8130  141.6030 C   0  0  2  0  0  3  0  0  0  0  0  0
  182.9010  175.7700  137.0720 C   0  0  0  0  0  0  0  0  0  0  0  0
  180.1110  179.3040  141.8220 S   0  0  0  0  0  0  0  0  0  0  0  0
  186.3910  177.4340  137.3310 C   0  0  0  0  0  0  0  0  0  0  0  0
  184.0900  176.8540  134.6010 O   0  0  0  0  0  0  0  0  0  0  0  0
  184.9860  177.2290  136.7960 C   0  0  1  0  0  3  0  0  0  0  0  0
  187.2810  175.9410  135.6680 C   0  0  0  0  0  3  0  0  0  0  0  0
  187.4000  176.7830  136.8230 N   0  0  0  0  0  0  0  0  0  0  0  0
  185.0510  176.6800  135.3950 C   0  0  0  0  0  0  0  0  0  0  0  0
  186.1810  175.9080  134.9840 N   0  0  0  0  0  0  0  0  0  0  0  0
  186.6400  178.3520  138.4550 C   0  0  0  0  0  0  0  0  0  0  0  0
  185.6910  179.0020  138.9660 O   0  0  0  0  0  0  0  0  0  0  0  0
  187.9500  178.5130  138.9320 O   0  0  0  0  0  0  0  0  0  0  0  0
  188.5040  177.7940  140.0340 C   0  0  0  0  0  3  0  0  0  0  0  0
  188.2880  178.5320  141.3430 C   0  0  0  0  0  1  0  0  0  0  0  0
  189.9770  177.4980  139.8200 C   0  0  0  0  0  1  0  0  0  0  0  0
  2  7  1  0  0  0  0
  2  5  1  0  0  0  0
  4  9  1  6  0  0  0
  4 14  1  0  0  0  0
  5 16  1  0  0  0  0
  7  6  1  6  0  0  0
  7  4  1  0  0  0  0
 10  3  1  1  0  0  0
 11  8  1  0  0  0  0
 12  6  1  6  0  0  0
 12  9  1  0  0  0  0
 13 15  1  6  0  0  0
 13 12  1  0  0  0  0
 14  1  1  6  0  0  0
 14 10  1  0  0  0  0
 15 11  1  0  0  0  0
 15  8  1  0  0  0  0
 15 12  1  0  0  0  0
 16 10  1  0  0  0  0
 17 24  1  0  0  0  0
 18 22  2  0  0  0  0
 19 22  1  6  0  0  0
 19 17  1  0  0  0  0
 19 13  1  0  0  0  0
 20 21  1  0  0  0  0
 21 17  2  0  0  0  0
 23 22  1  0  0  0  0
 23 20  2  0  0  0  0
 24 26  1  0  0  0  0
 24 25  2  0  0  0  0
 26 27  1  0  0  0  0
 27 28  1  0  0  0  0
 29 27  1  0  0  0  0
M  END
>  <MODEL>
5

>  <REMARK>
 VINA RESULT:      -5.2      2.428      3.998
  Name = 
  4 active torsions:
  status: ('A' for Active; 'I' for Inactive)
    1  A    between atoms: C_2  and  C_3
    2  A    between atoms: C_2  and  O_10
    3  A    between atoms: C_4  and  O_10
    4  A    between atoms: C_11  and  C_24
                            x       y       z     vdW  Elec       q    Type
                         _______ _______ _______ _____ _____    ______ ____

>  <TORSDO>
F 4

$$$$
=
 OpenBabel11062416213D

 29 33  0  0  1  0  0  0  0  0999 V2000
  190.7420  172.9390  136.4620 C   0  0  0  0  0  1  0  0  0  0  0  0
  193.4300  176.2730  135.9050 C   0  0  0  0  0  2  0  0  0  0  0  0
  193.3240  171.5450  135.5760 C   0  0  0  0  0  1  0  0  0  0  0  0
  192.1950  174.8270  137.2950 C   0  0  1  0  0  3  0  0  0  0  0  0
  194.2280  175.3440  134.9990 C   0  0  0  0  0  2  0  0  0  0  0  0
  191.2700  176.8570  136.5710 C   0  0  0  0  0  2  0  0  0  0  0  0
  192.0950  175.7410  136.1450 N   0  0  1  0  0  0  0  0  0  0  0  0
  191.0920  177.1380  140.0730 C   0  0  0  0  0  2  0  0  0  0  0  0
  191.1560  175.1200  138.2840 N   0  0  0  0  0  2  0  0  0  0  0  0
  193.1190  173.0440  135.6980 C   0  0  1  0  0  3  0  0  0  0  0  0
  189.6360  177.1250  140.2680 C   0  0  0  0  0  2  0  0  0  0  0  0
  190.6310  176.3980  137.8470 C   0  0  2  0  0  0  0  0  0  0  0  0
  189.1790  176.5540  138.1040 C   0  0  1  0  0  3  0  0  0  0  0  0
  192.1540  173.3540  136.8540 C   0  0  2  0  0  3  0  0  0  0  0  0
  190.1810  177.4680  138.8720 C   0  0  0  0  0  0  0  0  0  0  0  0
  194.7480  173.8440  135.8970 S   0  0  0  0  0  0  0  0  0  0  0  0
  187.2700  176.4910  136.5080 C   0  0  0  0  0  0  0  0  0  0  0  0
  188.6580  179.6460  137.6060 O   0  0  0  0  0  0  0  0  0  0  0  0
  188.4290  177.3330  137.0090 C   0  0  1  0  0  3  0  0  0  0  0  0
  185.7200  177.7810  137.8190 C   0  0  0  0  0  3  0  0  0  0  0  0
  186.0600  176.6950  136.9470 N   0  0  0  0  0  0  0  0  0  0  0  0
  187.9110  178.6340  137.5620 C   0  0  0  0  0  0  0  0  0  0  0  0
  186.5860  178.7060  138.0920 N   0  0  0  0  0  0  0  0  0  0  0  0
  187.4930  175.4090  135.5360 C   0  0  0  0  0  0  0  0  0  0  0  0
  188.3590  175.5370  134.6300 O   0  0  0  0  0  0  0  0  0  0  0  0
  186.7110  174.2460  135.6120 O   0  0  0  0  0  0  0  0  0  0  0  0
  186.9690  173.1550  136.4980 C   0  0  0  0  0  3  0  0  0  0  0  0
  187.1740  171.8580  135.7360 C   0  0  0  0  0  1  0  0  0  0  0  0
  185.8650  173.0050  137.5280 C   0  0  0  0  0  1  0  0  0  0  0  0
  4  9  1  1  0  0  0
  5 16  1  0  0  0  0
  5  2  1  0  0  0  0
  7  2  1  1  0  0  0
  7  6  1  0  0  0  0
  7  4  1  0  0  0  0
  8 11  1  0  0  0  0
 10  3  1  1  0  0  0
 10 16  1  0  0  0  0
 10 14  1  0  0  0  0
 12  6  1  6  0  0  0
 12 13  1  0  0  0  0
 12  9  1  0  0  0  0
 12 15  1  0  0  0  0
 13 15  1  1  0  0  0
 14  1  1  6  0  0  0
 14  4  1  0  0  0  0
 15  8  1  0  0  0  0
 15 11  1  0  0  0  0
 17 21  2  0  0  0  0
 19 17  1  1  0  0  0
 19 22  1  0  0  0  0
 19 13  1  0  0  0  0
 20 23  2  0  0  0  0
 21 20  1  0  0  0  0
 22 18  2  0  0  0  0
 22 23  1  0  0  0  0
 24 26  1  0  0  0  0
 24 17  1  0  0  0  0
 25 24  2  0  0  0  0
 26 27  1  0  0  0  0
 27 29  1  0  0  0  0
 28 27  1  0  0  0  0
M  END
>  <MODEL>
6

>  <REMARK>
 VINA RESULT:      -5.1      5.199      8.999
  Name = 
  4 active torsions:
  status: ('A' for Active; 'I' for Inactive)
    1  A    between atoms: C_2  and  C_3
    2  A    between atoms: C_2  and  O_10
    3  A    between atoms: C_4  and  O_10
    4  A    between atoms: C_11  and  C_24
                            x       y       z     vdW  Elec       q    Type
                         _______ _______ _______ _____ _____    ______ ____

>  <TORSDO>
F 4

$$$$
=
 OpenBabel11062416213D

 29 33  0  0  1  0  0  0  0  0999 V2000
  183.1500  175.7800  138.6770 C   0  0  0  0  0  1  0  0  0  0  0  0
  183.6290  177.1060  134.5940 C   0  0  0  0  0  2  0  0  0  0  0  0
  180.3340  175.3830  137.5350 C   0  0  0  0  0  1  0  0  0  0  0  0
  184.0060  175.5420  136.3150 C   0  0  1  0  0  3  0  0  0  0  0  0
  182.1210  177.3210  134.5980 C   0  0  0  0  0  2  0  0  0  0  0  0
  185.5560  177.2540  135.9050 C   0  0  0  0  0  2  0  0  0  0  0  0
  184.1340  176.9630  135.9540 N   0  0  1  0  0  0  0  0  0  0  0  0
  187.5110  174.3500  135.5570 C   0  0  0  0  0  2  0  0  0  0  0  0
  185.2590  175.0330  136.8760 N   0  0  0  0  0  2  0  0  0  0  0  0
  181.5210  175.9660  136.7910 C   0  0  1  0  0  3  0  0  0  0  0  0
  188.4130  174.4980  136.7070 C   0  0  0  0  0  2  0  0  0  0  0  0
  186.2110  176.0820  136.5710 C   0  0  2  0  0  0  0  0  0  0  0  0
  187.2550  176.2470  137.6100 C   0  0  1  0  0  3  0  0  0  0  0  0
  182.8230  175.3030  137.2680 C   0  0  2  0  0  3  0  0  0  0  0  0
  187.6750  175.7460  136.1960 C   0  0  0  0  0  0  0  0  0  0  0  0
  181.2410  175.7740  134.9970 S   0  0  0  0  0  0  0  0  0  0  0  0
  187.3190  178.1100  139.2590 C   0  0  0  0  0  0  0  0  0  0  0  0
  189.6360  178.0190  136.4830 O   0  0  0  0  0  0  0  0  0  0  0  0
  187.6830  177.7070  137.8420 C   0  0  1  0  0  3  0  0  0  0  0  0
  189.6020  177.8300  139.9640 C   0  0  0  0  0  3  0  0  0  0  0  0
  188.2140  178.0980  140.2070 N   0  0  0  0  0  0  0  0  0  0  0  0
  189.1690  177.8500  137.6390 C   0  0  0  0  0  0  0  0  0  0  0  0
  190.0550  177.7330  138.7540 N   0  0  0  0  0  0  0  0  0  0  0  0
  185.9410  178.4980  139.5990 C   0  0  0  0  0  0  0  0  0  0  0  0
  185.2170  179.0820  138.7490 O   0  0  0  0  0  0  0  0  0  0  0  0
  185.4500  178.2340  140.8870 O   0  0  0  0  0  0  0  0  0  0  0  0
  184.4800  179.0350  141.5640 C   0  0  0  0  0  3  0  0  0  0  0  0
  184.8040  179.1700  143.0400 C   0  0  0  0  0  1  0  0  0  0  0  0
  183.0780  178.4900  141.3680 C   0  0  0  0  0  1  0  0  0  0  0  0
  2  5  1  0  0  0  0
  4  9  1  1  0  0  0
  4 14  1  0  0  0  0
  5 16  1  0  0  0  0
  6  7  1  0  0  0  0
  7  2  1  6  0  0  0
  7  4  1  0  0  0  0
  8 15  1  0  0  0  0
  8 11  1  0  0  0  0
 10 14  1  0  0  0  0
 10  3  1  1  0  0  0
 12  6  1  6  0  0  0
 12  9  1  0  0  0  0
 12 13  1  0  0  0  0
 13 15  1  6  0  0  0
 13 19  1  0  0  0  0
 14  1  1  1  0  0  0
 15 12  1  0  0  0  0
 15 11  1  0  0  0  0
 16 10  1  0  0  0  0
 17 24  1  0  0  0  0
 17 21  2  0  0  0  0
 18 22  2  0  0  0  0
 19 22  1  1  0  0  0
 19 17  1  0  0  0  0
 20 21  1  0  0  0  0
 22 23  1  0  0  0  0
 23 20  2  0  0  0  0
 24 26  1  0  0  0  0
 25 24  2  0  0  0  0
 26 27  1  0  0  0  0
 27 28  1  0  0  0  0
 29 27  1  0  0  0  0
M  END
>  <MODEL>
7

>  <REMARK>
 VINA RESULT:      -4.9      2.400      3.330
  Name = 
  4 active torsions:
  status: ('A' for Active; 'I' for Inactive)
    1  A    between atoms: C_2  and  C_3
    2  A    between atoms: C_2  and  O_10
    3  A    between atoms: C_4  and  O_10
    4  A    between atoms: C_11  and  C_24
                            x       y       z     vdW  Elec       q    Type
                         _______ _______ _______ _____ _____    ______ ____

>  <TORSDO>
F 4

$$$$
=
 OpenBabel11062416213D

 29 33  0  0  1  0  0  0  0  0999 V2000
  183.7020  177.7850  141.6370 C   0  0  0  0  0  1  0  0  0  0  0  0
  182.2110  180.1240  138.3260 C   0  0  0  0  0  2  0  0  0  0  0  0
  181.0460  178.8440  142.7390 C   0  0  0  0  0  1  0  0  0  0  0  0
  182.7090  178.0530  139.3320 C   0  0  1  0  0  3  0  0  0  0  0  0
  181.3680  180.8580  139.3610 C   0  0  0  0  0  2  0  0  0  0  0  0
  184.2840  179.1160  137.9580 C   0  0  0  0  0  2  0  0  0  0  0  0
  183.2740  179.3630  138.9710 N   0  0  1  0  0  0  0  0  0  0  0  0
  183.8780  175.9940  136.3880 C   0  0  0  0  0  2  0  0  0  0  0  0
  183.5840  176.9680  138.8860 N   0  0  0  0  0  2  0  0  0  0  0  0
  181.6360  179.1670  141.3790 C   0  0  1  0  0  3  0  0  0  0  0  0
  185.2090  175.4120  136.6040 C   0  0  0  0  0  2  0  0  0  0  0  0
  184.5190  177.6360  138.0030 C   0  0  2  0  0  0  0  0  0  0  0  0
  185.8820  177.0540  138.0420 C   0  0  1  0  0  3  0  0  0  0  0  0
  182.4160  177.9580  140.8390 C   0  0  2  0  0  3  0  0  0  0  0  0
  185.0520  176.9360  136.7290 C   0  0  0  0  0  0  0  0  0  0  0  0
  180.2900  179.6990  140.2670 S   0  0  0  0  0  0  0  0  0  0  0  0
  188.0690  177.8110  138.9570 C   0  0  0  0  0  0  0  0  0  0  0  0
  187.1010  178.6280  135.5690 O   0  0  0  0  0  0  0  0  0  0  0  0
  187.0110  178.0910  137.9060 C   0  0  1  0  0  3  0  0  0  0  0  0
  189.4790  176.7670  137.3110 C   0  0  0  0  0  3  0  0  0  0  0  0
  189.1540  177.1550  138.6530 N   0  0  0  0  0  0  0  0  0  0  0  0
  187.6250  178.0110  136.5330 C   0  0  0  0  0  0  0  0  0  0  0  0
  188.7700  177.1870  136.3110 N   0  0  0  0  0  0  0  0  0  0  0  0
  187.8810  178.2510  140.3490 C   0  0  0  0  0  0  0  0  0  0  0  0
  186.9160  179.0030  140.6520 O   0  0  0  0  0  0  0  0  0  0  0  0
  188.8010  177.8470  141.3280 O   0  0  0  0  0  0  0  0  0  0  0  0
  188.5510  177.8740  142.7340 C   0  0  0  0  0  3  0  0  0  0  0  0
  189.8050  178.2250  143.5140 C   0  0  0  0  0  1  0  0  0  0  0  0
  187.9660  176.5600  143.2190 C   0  0  0  0  0  1  0  0  0  0  0  0
  2  7  1  0  0  0  0
  2  5  1  0  0  0  0
  4  9  1  1  0  0  0
  4 14  1  0  0  0  0
  5 16  1  0  0  0  0
  7  6  1  6  0  0  0
  7  4  1  0  0  0  0
  8 11  1  0  0  0  0
  8 15  1  0  0  0  0
 10  3  1  1  0  0  0
 11 15  1  0  0  0  0
 12  6  1  6  0  0  0
 12 13  1  0  0  0  0
 12  9  1  0  0  0  0
 13 15  1  6  0  0  0
 14 10  1  0  0  0  0
 14  1  1  1  0  0  0
 15 12  1  0  0  0  0
 16 10  1  0  0  0  0
 17 24  1  0  0  0  0
 18 22  2  0  0  0  0
 19 22  1  6  0  0  0
 19 13  1  0  0  0  0
 19 17  1  0  0  0  0
 20 21  1  0  0  0  0
 21 17  2  0  0  0  0
 23 22  1  0  0  0  0
 23 20  2  0  0  0  0
 24 25  2  0  0  0  0
 24 26  1  0  0  0  0
 26 27  1  0  0  0  0
 27 29  1  0  0  0  0
 27 28  1  0  0  0  0
M  END
>  <MODEL>
8

>  <REMARK>
 VINA RESULT:      -4.8      1.802      2.267
  Name = 
  4 active torsions:
  status: ('A' for Active; 'I' for Inactive)
    1  A    between atoms: C_2  and  C_3
    2  A    between atoms: C_2  and  O_10
    3  A    between atoms: C_4  and  O_10
    4  A    between atoms: C_11  and  C_24
                            x       y       z     vdW  Elec       q    Type
                         _______ _______ _______ _____ _____    ______ ____

>  <TORSDO>
F 4

$$$$
=
 OpenBabel11062416213D

 29 33  0  0  1  0  0  0  0  0999 V2000
  193.8930  175.9790  138.2440 C   0  0  0  0  0  1  0  0  0  0  0  0
  191.8540  172.8860  136.0240 C   0  0  0  0  0  2  0  0  0  0  0  0
  196.2120  174.1750  137.3720 C   0  0  0  0  0  1  0  0  0  0  0  0
  192.6240  175.1010  136.2470 C   0  0  1  0  0  3  0  0  0  0  0  0
  193.0810  172.0260  136.2990 C   0  0  0  0  0  2  0  0  0  0  0  0
  190.4570  174.5210  136.9340 C   0  0  0  0  0  2  0  0  0  0  0  0
  191.8300  174.0490  136.9020 N   0  0  1  0  0  0  0  0  0  0  0  0
  189.8610  177.0780  134.5940 C   0  0  0  0  0  2  0  0  0  0  0  0
  191.8890  176.3680  136.2230 N   0  0  0  0  0  2  0  0  0  0  0  0
  194.7400  173.9270  137.0970 C   0  0  1  0  0  3  0  0  0  0  0  0
  189.3160  178.1220  135.4720 C   0  0  0  0  0  2  0  0  0  0  0  0
  190.5450  175.9810  136.6040 C   0  0  2  0  0  0  0  0  0  0  0  0
  189.8400  177.0140  137.4000 C   0  0  1  0  0  3  0  0  0  0  0  0
  194.0050  175.2630  136.9040 C   0  0  2  0  0  3  0  0  0  0  0  0
  189.3090  176.6690  135.9760 C   0  0  0  0  0  0  0  0  0  0  0  0
  194.5920  172.8180  135.6550 S   0  0  0  0  0  0  0  0  0  0  0  0
  189.1710  177.2020  139.7890 C   0  0  0  0  0  0  0  0  0  0  0  0
  186.9440  175.7150  137.3570 O   0  0  0  0  0  0  0  0  0  0  0  0
  188.9260  176.4440  138.4980 C   0  0  1  0  0  3  0  0  0  0  0  0
  187.1670  178.4910  139.4550 C   0  0  0  0  0  3  0  0  0  0  0  0
  188.3740  178.1650  140.1580 N   0  0  0  0  0  0  0  0  0  0  0  0
  187.4820  176.5830  138.0930 C   0  0  0  0  0  0  0  0  0  0  0  0
  186.7360  177.7340  138.4950 N   0  0  0  0  0  0  0  0  0  0  0  0
  190.3290  176.8830  140.6390 C   0  0  0  0  0  0  0  0  0  0  0  0
  191.4510  177.4070  140.4060 O   0  0  0  0  0  0  0  0  0  0  0  0
  190.1760  175.9710  141.6950 O   0  0  0  0  0  0  0  0  0  0  0  0
  189.8040  176.3290  143.0260 C   0  0  0  0  0  3  0  0  0  0  0  0
  188.3030  176.2330  143.2280 C   0  0  0  0  0  1  0  0  0  0  0  0
  190.3080  177.7140  143.3890 C   0  0  0  0  0  1  0  0  0  0  0  0
  2  5  1  0  0  0  0
  4  9  1  1  0  0  0
  4  7  1  0  0  0  0
  4 14  1  0  0  0  0
  7  2  1  6  0  0  0
  7  6  1  0  0  0  0
  8 11  1  0  0  0  0
  8 15  1  0  0  0  0
  9 12  1  0  0  0  0
 10  3  1  6  0  0  0
 11 15  1  0  0  0  0
 12  6  1  1  0  0  0
 12 13  1  0  0  0  0
 13 15  1  6  0  0  0
 13 19  1  0  0  0  0
 14 10  1  0  0  0  0
 14  1  1  1  0  0  0
 15 12  1  0  0  0  0
 16  5  1  0  0  0  0
 16 10  1  0  0  0  0
 17 21  2  0  0  0  0
 17 24  1  0  0  0  0
 18 22  2  0  0  0  0
 19 22  1  6  0  0  0
 19 17  1  0  0  0  0
 20 21  1  0  0  0  0
 22 23  1  0  0  0  0
 23 20  2  0  0  0  0
 24 26  1  0  0  0  0
 25 24  2  0  0  0  0
 26 27  1  0  0  0  0
 27 28  1  0  0  0  0
 27 29  1  0  0  0  0
M  END
>  <MODEL>
9

>  <REMARK>
 VINA RESULT:      -4.8      5.274      8.556
  Name = 
  4 active torsions:
  status: ('A' for Active; 'I' for Inactive)
    1  A    between atoms: C_2  and  C_3
    2  A    between atoms: C_2  and  O_10
    3  A    between atoms: C_4  and  O_10
    4  A    between atoms: C_11  and  C_24
                            x       y       z     vdW  Elec       q    Type
                         _______ _______ _______ _____ _____    ______ ____

>  <TORSDO>
F 4

$$$$
