=
 OpenBabel11062413543D

 25 29  0  0  1  0  0  0  0  0999 V2000
  192.0850  174.1700  137.2080 C   0  0  1  0  0  3  0  0  0  0  0  0
  192.5120  177.7900  140.3650 O   0  0  0  0  0  0  0  0  0  0  0  0
  188.8000  178.8550  138.7990 N   0  0  0  0  0  0  0  0  0  0  0  0
  192.1910  176.3780  138.4830 C   0  0  0  0  0  0  0  0  0  0  0  0
  193.4450  174.5010  136.7150 C   0  0  2  0  0  3  0  0  0  0  0  0
  190.2470  177.1710  139.9620 C   0  0  0  0  0  2  0  0  0  0  0  0
  189.5120  177.7130  138.7800 C   0  0  2  0  0  3  0  0  0  0  0  0
  188.3290  179.0730  137.5790 N   0  0  0  0  0  0  0  0  0  0  0  0
  190.0960  175.8790  137.0110 C   0  0  1  0  0  3  0  0  0  0  0  0
  189.5210  177.1890  137.4990 C   0  0  0  0  0  0  0  0  0  0  0  0
  193.8490  175.9750  136.7850 C   0  0  0  0  0  2  0  0  0  0  0  0
  188.7570  178.0800  136.7740 C   0  0  0  0  0  0  0  0  0  0  0  0
  191.7080  177.1320  139.6520 C   0  0  0  0  0  0  0  0  0  0  0  0
  193.3720  176.6130  138.0050 N   0  0  0  0  0  0  0  0  0  0  0  0
  191.2990  175.3400  137.8440 C   0  0  1  0  0  3  0  0  0  0  0  0
  192.3250  174.3870  135.7710 N   0  0  0  0  0  2  0  0  0  0  0  0
  186.4360  174.7580  135.3800 N   0  0  0  0  0  0  0  0  0  0  0  0
  185.8820  173.4930  134.9300 C   0  0  0  0  0  1  0  0  0  0  0  0
  187.7260  174.9450  134.6960 C   0  0  0  0  0  2  0  0  0  0  0  0
  187.7440  175.4770  137.3610 C   0  0  0  0  0  2  0  0  0  0  0  0
  189.0000  174.9080  136.8570 N   0  0  0  0  0  0  0  0  0  0  0  0
  188.9120  174.3680  135.4840 C   0  0  0  0  0  2  0  0  0  0  0  0
  186.5480  174.6820  136.8430 C   0  0  0  0  0  2  0  0  0  0  0  0
  188.3700  177.9480  135.3420 C   0  0  0  0  0  2  0  0  0  0  0  0
  187.0370  178.3230  135.1810 O   0  0  0  0  0  1  0  0  0  0  0  0
  1 16  1  6  0  0  0
  1 15  1  0  0  0  0
  4 13  1  0  0  0  0
  5 11  1  1  0  0  0
  5  1  1  0  0  0  0
  7  3  1  0  0  0  0
  7  6  1  6  0  0  0
  8  3  2  0  0  0  0
  9 21  1  1  0  0  0
  9 10  1  0  0  0  0
  9 15  1  0  0  0  0
 10  7  1  0  0  0  0
 11 14  1  0  0  0  0
 12 10  2  0  0  0  0
 12  8  1  0  0  0  0
 13  6  1  0  0  0  0
 13  2  2  0  0  0  0
 14  4  2  0  0  0  0
 15  4  1  6  0  0  0
 16  5  1  0  0  0  0
 17 23  1  0  0  0  0
 18 17  1  0  0  0  0
 19 17  1  0  0  0  0
 19 22  1  0  0  0  0
 21 20  1  0  0  0  0
 22 21  1  0  0  0  0
 23 20  1  0  0  0  0
 24 12  1  0  0  0  0
 25 24  1  0  0  0  0
M  END
>  <MODEL>
1

>  <REMARK>
 VINA RESULT:      -5.3      0.000      0.000
  Name = 
  2 active torsions:
  status: ('A' for Active; 'I' for Inactive)
    1  A    between atoms: C_1  and  C_15
    2  A    between atoms: C_11  and  N_21
                            x       y       z     vdW  Elec       q    Type
                         _______ _______ _______ _____ _____    ______ ____

>  <TORSDO>
F 2

$$$$
=
 OpenBabel11062413543D

 25 29  0  0  1  0  0  0  0  0999 V2000
  188.8740  173.9450  135.9660 C   0  0  1  0  0  3  0  0  0  0  0  0
  184.9100  176.4990  136.9710 O   0  0  0  0  0  0  0  0  0  0  0  0
  187.5800  178.6770  139.3140 N   0  0  0  0  0  0  0  0  0  0  0  0
  186.9190  175.2350  136.9800 C   0  0  0  0  0  0  0  0  0  0  0  0
  188.1120  172.7170  136.3020 C   0  0  2  0  0  3  0  0  0  0  0  0
  186.9020  177.8010  137.0650 C   0  0  0  0  0  2  0  0  0  0  0  0
  187.7440  177.8090  138.2980 C   0  0  0  0  0  0  0  0  0  0  0  0
  188.4490  178.3720  140.2670 N   0  0  0  0  0  2  0  0  0  0  0  0
  189.3410  175.8090  137.7610 C   0  0  1  0  0  3  0  0  0  0  0  0
  188.7370  176.8980  138.6180 C   0  0  0  0  0  0  0  0  0  0  0  0
  187.0350  172.8640  137.3780 C   0  0  0  0  0  2  0  0  0  0  0  0
  189.1560  177.2960  139.8700 C   0  0  0  0  0  0  0  0  0  0  0  0
  186.1690  176.5010  136.9830 C   0  0  0  0  0  0  0  0  0  0  0  0
  186.3140  174.1240  137.2590 N   0  0  0  0  0  0  0  0  0  0  0  0
  188.3950  175.2420  136.6590 C   0  0  1  0  0  3  0  0  0  0  0  0
  189.4140  172.9740  136.9330 N   0  0  0  0  0  2  0  0  0  0  0  0
  192.7000  175.2880  135.3630 N   0  0  0  0  0  0  0  0  0  0  0  0
  193.5360  176.1940  134.5940 C   0  0  0  0  0  1  0  0  0  0  0  0
  191.3060  175.5160  134.9500 C   0  0  0  0  0  2  0  0  0  0  0  0
  191.7040  175.3460  137.6330 C   0  0  0  0  0  2  0  0  0  0  0  0
  190.6380  176.2770  137.2450 N   0  0  0  0  0  0  0  0  0  0  0  0
  190.5950  176.5810  135.8000 C   0  0  0  0  0  2  0  0  0  0  0  0
  192.9510  175.5720  136.7820 C   0  0  0  0  0  2  0  0  0  0  0  0
  190.2770  176.7050  140.6530 C   0  0  0  0  0  2  0  0  0  0  0  0
  191.4180  177.4910  140.5050 O   0  0  0  0  0  1  0  0  0  0  0  0
  1  5  1  0  0  0  0
  1 15  1  0  0  0  0
  1 16  1  1  0  0  0
  2 13  2  0  0  0  0
  3  8  1  0  0  0  0
  4 13  1  0  0  0  0
  4 14  2  0  0  0  0
  5 16  1  0  0  0  0
  5 11  1  1  0  0  0
  6  7  1  0  0  0  0
  7 10  1  0  0  0  0
  7  3  2  0  0  0  0
  9 21  1  6  0  0  0
  9 10  1  0  0  0  0
 10 12  2  0  0  0  0
 12  8  1  0  0  0  0
 12 24  1  0  0  0  0
 13  6  1  0  0  0  0
 14 11  1  0  0  0  0
 15  4  1  1  0  0  0
 15  9  1  0  0  0  0
 17 23  1  0  0  0  0
 18 17  1  0  0  0  0
 19 17  1  0  0  0  0
 19 22  1  0  0  0  0
 21 20  1  0  0  0  0
 22 21  1  0  0  0  0
 23 20  1  0  0  0  0
 25 24  1  0  0  0  0
M  END
>  <MODEL>
2

>  <REMARK>
 VINA RESULT:      -5.3      1.690      5.043
  Name = 
  2 active torsions:
  status: ('A' for Active; 'I' for Inactive)
    1  A    between atoms: C_1  and  C_15
    2  A    between atoms: C_11  and  N_21
                            x       y       z     vdW  Elec       q    Type
                         _______ _______ _______ _____ _____    ______ ____

>  <TORSDO>
F 2

$$$$
=
 OpenBabel11062413543D

 25 29  0  0  1  0  0  0  0  0999 V2000
  180.6120  178.2090  137.5120 C   0  0  1  0  0  3  0  0  0  0  0  0
  184.5970  180.4660  139.0220 O   0  0  0  0  0  0  0  0  0  0  0  0
  183.4520  178.8520  142.6890 N   0  0  0  0  0  0  0  0  0  0  0  0
  182.4190  179.5870  138.6740 C   0  0  0  0  0  0  0  0  0  0  0  0
  180.1920  179.4780  136.8700 C   0  0  2  0  0  3  0  0  0  0  0  0
  184.0980  178.5130  140.2910 C   0  0  0  0  0  2  0  0  0  0  0  0
  183.1180  178.5700  141.4160 C   0  0  0  0  0  0  0  0  0  0  0  0
  182.3430  178.8780  143.4150 N   0  0  0  0  0  2  0  0  0  0  0  0
  180.9170  178.0190  140.1180 C   0  0  1  0  0  3  0  0  0  0  0  0
  181.7440  178.4330  141.3130 C   0  0  0  0  0  0  0  0  0  0  0  0
  180.6370  180.7670  137.5660 C   0  0  0  0  0  2  0  0  0  0  0  0
  181.2970  178.6320  142.6020 C   0  0  0  0  0  0  0  0  0  0  0  0
  183.7550  179.5680  139.2900 C   0  0  0  0  0  0  0  0  0  0  0  0
  181.9920  180.6630  138.0900 N   0  0  0  0  0  0  0  0  0  0  0  0
  181.5510  178.3530  138.7330 C   0  0  1  0  0  3  0  0  0  0  0  0
  179.2780  178.7710  137.7770 N   0  0  0  0  0  2  0  0  0  0  0  0
  179.8170  174.3540  138.4840 N   0  0  0  0  0  0  0  0  0  0  0  0
  180.0920  172.9720  138.8390 C   0  0  0  0  0  1  0  0  0  0  0  0
  181.1090  175.0510  138.3840 C   0  0  0  0  0  2  0  0  0  0  0  0
  179.1810  176.3830  139.7600 C   0  0  0  0  0  2  0  0  0  0  0  0
  180.5390  176.6030  140.2700 N   0  0  0  0  0  0  0  0  0  0  0  0
  181.5530  175.6850  139.7110 C   0  0  0  0  0  2  0  0  0  0  0  0
  178.9310  174.8960  139.5230 C   0  0  0  0  0  2  0  0  0  0  0  0
  179.8890  178.5120  143.0750 C   0  0  0  0  0  2  0  0  0  0  0  0
  179.7920  177.4720  143.9980 O   0  0  0  0  0  1  0  0  0  0  0  0
  1 16  1  1  0  0  0
  1 15  1  0  0  0  0
  2 13  2  0  0  0  0
  3  8  1  0  0  0  0
  4 13  1  0  0  0  0
  5  1  1  0  0  0  0
  5 11  1  1  0  0  0
  5 16  1  0  0  0  0
  6  7  1  0  0  0  0
  7  3  2  0  0  0  0
  9 21  1  6  0  0  0
  9 10  1  0  0  0  0
 10  7  1  0  0  0  0
 10 12  2  0  0  0  0
 11 14  1  0  0  0  0
 12 24  1  0  0  0  0
 12  8  1  0  0  0  0
 13  6  1  0  0  0  0
 14  4  2  0  0  0  0
 15  4  1  1  0  0  0
 15  9  1  0  0  0  0
 17 18  1  0  0  0  0
 17 23  1  0  0  0  0
 19 17  1  0  0  0  0
 19 22  1  0  0  0  0
 20 21  1  0  0  0  0
 22 21  1  0  0  0  0
 23 20  1  0  0  0  0
 24 25  1  0  0  0  0
M  END
>  <MODEL>
3

>  <REMARK>
 VINA RESULT:      -5.0      7.929      9.864
  Name = 
  2 active torsions:
  status: ('A' for Active; 'I' for Inactive)
    1  A    between atoms: C_1  and  C_15
    2  A    between atoms: C_11  and  N_21
                            x       y       z     vdW  Elec       q    Type
                         _______ _______ _______ _____ _____    ______ ____

>  <TORSDO>
F 2

$$$$
=
 OpenBabel11062413543D

 25 29  0  0  1  0  0  0  0  0999 V2000
  183.9430  177.9370  141.5150 C   0  0  1  0  0  3  0  0  0  0  0  0
  179.3300  178.1770  142.8980 O   0  0  0  0  0  0  0  0  0  0  0  0
  178.9310  180.2110  139.2830 N   0  0  0  0  0  0  0  0  0  0  0  0
  181.5470  178.5570  142.1380 C   0  0  0  0  0  0  0  0  0  0  0  0
  184.3230  178.4580  142.8510 C   0  0  2  0  0  3  0  0  0  0  0  0
  179.5890  178.1380  140.5300 C   0  0  0  0  0  2  0  0  0  0  0  0
  179.8800  179.3960  139.7790 C   0  0  2  0  0  3  0  0  0  0  0  0
  179.5270  181.2580  138.7290 N   0  0  0  0  0  0  0  0  0  0  0  0
  182.4930  179.3600  139.8440 C   0  0  1  0  0  3  0  0  0  0  0  0
  181.1300  179.9480  139.5600 C   0  0  0  0  0  0  0  0  0  0  0  0
  183.3280  179.4160  143.5100 C   0  0  0  0  0  2  0  0  0  0  0  0
  180.8580  181.1230  138.8900 C   0  0  0  0  0  0  0  0  0  0  0  0
  180.1200  178.2660  141.9210 C   0  0  0  0  0  0  0  0  0  0  0  0
  181.9480  179.0090  143.2840 N   0  0  0  0  0  0  0  0  0  0  0  0
  182.5330  178.3330  141.0160 C   0  0  1  0  0  3  0  0  0  0  0  0
  184.8300  179.1060  141.6340 N   0  0  0  0  0  2  0  0  0  0  0  0
  184.5960  176.4650  137.7200 N   0  0  0  0  0  0  0  0  0  0  0  0
  184.4820  175.9230  136.3770 C   0  0  0  0  0  1  0  0  0  0  0  0
  183.2730  176.3550  138.3550 C   0  0  0  0  0  2  0  0  0  0  0  0
  184.5190  178.7480  138.6860 C   0  0  0  0  0  2  0  0  0  0  0  0
  183.0580  178.8440  138.5850 N   0  0  0  0  0  0  0  0  0  0  0  0
  182.3990  177.5990  138.1380 C   0  0  0  0  0  2  0  0  0  0  0  0
  185.0750  177.8470  137.5860 C   0  0  0  0  0  2  0  0  0  0  0  0
  181.8610  182.0740  138.3350 C   0  0  0  0  0  2  0  0  0  0  0  0
  181.2130  183.0530  137.5840 O   0  0  0  0  0  1  0  0  0  0  0  0
  1 16  1  6  0  0  0
  1  5  1  0  0  0  0
  3  7  1  0  0  0  0
  4 14  2  0  0  0  0
  5 11  1  6  0  0  0
  6 13  1  0  0  0  0
  7  6  1  1  0  0  0
  8 12  1  0  0  0  0
  8  3  2  0  0  0  0
  9 21  1  6  0  0  0
  9 15  1  0  0  0  0
 10  7  1  0  0  0  0
 10  9  1  0  0  0  0
 12 10  2  0  0  0  0
 13  4  1  0  0  0  0
 13  2  2  0  0  0  0
 14 11  1  0  0  0  0
 15  1  1  0  0  0  0
 15  4  1  1  0  0  0
 16  5  1  0  0  0  0
 17 19  1  0  0  0  0
 18 17  1  0  0  0  0
 21 20  1  0  0  0  0
 22 19  1  0  0  0  0
 22 21  1  0  0  0  0
 23 17  1  0  0  0  0
 23 20  1  0  0  0  0
 24 12  1  0  0  0  0
 25 24  1  0  0  0  0
M  END
>  <MODEL>
4

>  <REMARK>
 VINA RESULT:      -5.0      7.256      9.372
  Name = 
  2 active torsions:
  status: ('A' for Active; 'I' for Inactive)
    1  A    between atoms: C_1  and  C_15
    2  A    between atoms: C_11  and  N_21
                            x       y       z     vdW  Elec       q    Type
                         _______ _______ _______ _____ _____    ______ ____

>  <TORSDO>
F 2

$$$$
=
 OpenBabel11062413543D

 25 29  0  0  1  0  0  0  0  0999 V2000
  181.7450  181.0080  138.3850 C   0  0  1  0  0  3  0  0  0  0  0  0
  178.9310  181.2070  142.2950 O   0  0  0  0  0  0  0  0  0  0  0  0
  179.3820  177.0680  142.1480 N   0  0  0  0  0  0  0  0  0  0  0  0
  179.9840  180.7590  140.2150 C   0  0  0  0  0  0  0  0  0  0  0  0
  180.7610  181.8740  137.6890 C   0  0  2  0  0  3  0  0  0  0  0  0
  180.4160  179.3450  142.3130 C   0  0  0  0  0  2  0  0  0  0  0  0
  180.0630  178.0870  141.5910 C   0  0  2  0  0  3  0  0  0  0  0  0
  179.1890  176.1400  141.2210 N   0  0  0  0  0  0  0  0  0  0  0  0
  181.1010  178.6100  139.2500 C   0  0  1  0  0  3  0  0  0  0  0  0
  180.2950  177.8180  140.2530 C   0  0  0  0  0  0  0  0  0  0  0  0
  179.3000  181.7080  138.1110 C   0  0  0  0  0  2  0  0  0  0  0  0
  179.7280  176.5740  140.0650 C   0  0  0  0  0  0  0  0  0  0  0  0
  179.7430  180.4980  141.6430 C   0  0  0  0  0  0  0  0  0  0  0  0
  179.1660  181.5120  139.5480 N   0  0  0  0  0  0  0  0  0  0  0  0
  181.1820  180.1400  139.5340 C   0  0  1  0  0  3  0  0  0  0  0  0
  181.1970  180.6100  137.0770 N   0  0  0  0  0  2  0  0  0  0  0  0
  185.1580  178.8120  138.3490 N   0  0  0  0  0  0  0  0  0  0  0  0
  186.3350  178.1270  138.8540 C   0  0  0  0  0  1  0  0  0  0  0  0
  184.4460  179.3810  139.5050 C   0  0  0  0  0  2  0  0  0  0  0  0
  182.8750  178.0960  137.6980 C   0  0  0  0  0  2  0  0  0  0  0  0
  182.4170  177.9670  139.0860 N   0  0  0  0  0  0  0  0  0  0  0  0
  183.3970  178.4250  140.0920 C   0  0  0  0  0  2  0  0  0  0  0  0
  184.3730  177.8220  137.6000 C   0  0  0  0  0  2  0  0  0  0  0  0
  179.7680  175.7680  138.8130 C   0  0  0  0  0  2  0  0  0  0  0  0
  180.8740  174.9200  138.8370 O   0  0  0  0  0  1  0  0  0  0  0  0
  1 16  1  6  0  0  0
  1 15  1  0  0  0  0
  4 13  1  0  0  0  0
  5 11  1  1  0  0  0
  5  1  1  0  0  0  0
  7  3  1  0  0  0  0
  7  6  1  6  0  0  0
  8  3  2  0  0  0  0
  9 21  1  1  0  0  0
  9 15  1  0  0  0  0
  9 10  1  0  0  0  0
 10  7  1  0  0  0  0
 11 14  1  0  0  0  0
 12 10  2  0  0  0  0
 12  8  1  0  0  0  0
 13  2  2  0  0  0  0
 13  6  1  0  0  0  0
 14  4  2  0  0  0  0
 15  4  1  6  0  0  0
 16  5  1  0  0  0  0
 17 18  1  0  0  0  0
 17 19  1  0  0  0  0
 19 22  1  0  0  0  0
 20 21  1  0  0  0  0
 21 22  1  0  0  0  0
 23 20  1  0  0  0  0
 23 17  1  0  0  0  0
 24 25  1  0  0  0  0
 24 12  1  0  0  0  0
M  END
>  <MODEL>
5

>  <REMARK>
 VINA RESULT:      -4.9      7.946     10.592
  Name = 
  2 active torsions:
  status: ('A' for Active; 'I' for Inactive)
    1  A    between atoms: C_1  and  C_15
    2  A    between atoms: C_11  and  N_21
                            x       y       z     vdW  Elec       q    Type
                         _______ _______ _______ _____ _____    ______ ____

>  <TORSDO>
F 2

$$$$
=
 OpenBabel11062413543D

 25 29  0  0  1  0  0  0  0  0999 V2000
  186.3930  176.1960  137.0650 C   0  0  1  0  0  3  0  0  0  0  0  0
  184.9310  179.7030  140.0330 O   0  0  0  0  0  0  0  0  0  0  0  0
  181.2760  179.0050  138.1590 N   0  0  0  0  0  0  0  0  0  0  0  0
  185.4180  178.2540  138.2170 C   0  0  0  0  0  0  0  0  0  0  0  0
  187.5110  177.0770  136.6490 C   0  0  2  0  0  3  0  0  0  0  0  0
  183.2040  178.1480  139.5120 C   0  0  0  0  0  2  0  0  0  0  0  0
  182.4110  178.2890  138.2540 C   0  0  2  0  0  3  0  0  0  0  0  0
  180.8640  178.9690  136.8990 N   0  0  0  0  0  0  0  0  0  0  0  0
  183.8840  176.8580  136.6360 C   0  0  1  0  0  3  0  0  0  0  0  0
  182.7570  177.7950  137.0090 C   0  0  0  0  0  0  0  0  0  0  0  0
  187.2270  178.5810  136.6620 C   0  0  0  0  0  2  0  0  0  0  0  0
  181.7480  178.2460  136.1840 C   0  0  0  0  0  0  0  0  0  0  0  0
  184.5580  178.7450  139.3060 C   0  0  0  0  0  0  0  0  0  0  0  0
  186.4170  178.9710  137.8080 N   0  0  0  0  0  0  0  0  0  0  0  0
  185.1250  176.9170  137.5780 C   0  0  1  0  0  3  0  0  0  0  0  0
  186.6370  176.4650  135.6380 N   0  0  0  0  0  2  0  0  0  0  0  0
  184.3870  172.7340  136.4240 N   0  0  0  0  0  0  0  0  0  0  0  0
  183.5820  171.6000  136.8450 C   0  0  0  0  0  1  0  0  0  0  0  0
  184.5490  173.6180  137.5890 C   0  0  0  0  0  2  0  0  0  0  0  0
  183.9060  174.8730  135.2660 C   0  0  0  0  0  2  0  0  0  0  0  0
  183.3350  175.5020  136.4630 N   0  0  0  0  0  0  0  0  0  0  0  0
  183.4490  174.6860  137.6890 C   0  0  0  0  0  2  0  0  0  0  0  0
  183.6870  173.3630  135.2970 C   0  0  0  0  0  2  0  0  0  0  0  0
  181.5820  177.9270  134.7390 C   0  0  0  0  0  2  0  0  0  0  0  0
  180.7480  176.8190  134.5960 O   0  0  0  0  0  1  0  0  0  0  0  0
  1 16  1  6  0  0  0
  1 15  1  0  0  0  0
  3  7  1  0  0  0  0
  4 13  1  0  0  0  0
  5 11  1  1  0  0  0
  5  1  1  0  0  0  0
  7  6  1  6  0  0  0
  8  3  2  0  0  0  0
  9 21  1  1  0  0  0
  9 10  1  0  0  0  0
  9 15  1  0  0  0  0
 10  7  1  0  0  0  0
 11 14  1  0  0  0  0
 12  8  1  0  0  0  0
 12 10  2  0  0  0  0
 13  6  1  0  0  0  0
 13  2  2  0  0  0  0
 14  4  2  0  0  0  0
 15  4  1  6  0  0  0
 16  5  1  0  0  0  0
 17 18  1  0  0  0  0
 17 19  1  0  0  0  0
 19 22  1  0  0  0  0
 20 23  1  0  0  0  0
 20 21  1  0  0  0  0
 21 22  1  0  0  0  0
 23 17  1  0  0  0  0
 24 12  1  0  0  0  0
 25 24  1  0  0  0  0
M  END
>  <MODEL>
6

>  <REMARK>
 VINA RESULT:      -4.8      4.316      6.342
  Name = 
  2 active torsions:
  status: ('A' for Active; 'I' for Inactive)
    1  A    between atoms: C_1  and  C_15
    2  A    between atoms: C_11  and  N_21
                            x       y       z     vdW  Elec       q    Type
                         _______ _______ _______ _____ _____    ______ ____

>  <TORSDO>
F 2

$$$$
=
 OpenBabel11062413543D

 25 29  0  0  1  0  0  0  0  0999 V2000
  189.1990  178.1350  139.2900 C   0  0  1  0  0  3  0  0  0  0  0  0
  193.8760  177.1400  139.9080 O   0  0  0  0  0  0  0  0  0  0  0  0
  193.1150  174.3680  136.8930 N   0  0  0  0  0  0  0  0  0  0  0  0
  191.5170  177.1280  139.6420 C   0  0  0  0  0  0  0  0  0  0  0  0
  189.0240  178.0020  140.7570 C   0  0  2  0  0  3  0  0  0  0  0  0
  193.1290  176.7470  137.6810 C   0  0  0  0  0  2  0  0  0  0  0  0
  192.4590  175.4620  137.3220 C   0  0  2  0  0  3  0  0  0  0  0  0
  192.2320  173.3930  136.7210 N   0  0  0  0  0  0  0  0  0  0  0  0
  189.9720  176.1060  137.8060 C   0  0  1  0  0  3  0  0  0  0  0  0
  191.1110  175.1770  137.4560 C   0  0  0  0  0  0  0  0  0  0  0  0
  189.9430  177.0000  141.4590 C   0  0  0  0  0  2  0  0  0  0  0  0
  191.0140  173.8580  137.0610 C   0  0  0  0  0  0  0  0  0  0  0  0
  192.8930  177.0340  139.1280 C   0  0  0  0  0  0  0  0  0  0  0  0
  191.2940  177.0260  140.9150 N   0  0  0  0  0  0  0  0  0  0  0  0
  190.3720  177.3340  138.6790 C   0  0  1  0  0  3  0  0  0  0  0  0
  188.1580  177.2500  139.8390 N   0  0  0  0  0  2  0  0  0  0  0  0
  186.7820  177.9250  135.8510 N   0  0  0  0  0  0  0  0  0  0  0  0
  186.6500  178.6420  134.5940 C   0  0  0  0  0  1  0  0  0  0  0  0
  187.8740  178.5580  136.6080 C   0  0  0  0  0  2  0  0  0  0  0  0
  187.9280  175.8410  136.5530 C   0  0  0  0  0  2  0  0  0  0  0  0
  189.2560  176.4660  136.5700 N   0  0  0  0  0  0  0  0  0  0  0  0
  189.2440  177.9230  136.3280 C   0  0  0  0  0  2  0  0  0  0  0  0
  187.0310  176.5170  135.5190 C   0  0  0  0  0  2  0  0  0  0  0  0
  189.7580  173.0680  136.9320 C   0  0  0  0  0  2  0  0  0  0  0  0
  189.6360  172.5930  135.6260 O   0  0  0  0  0  1  0  0  0  0  0  0
  1 16  1  6  0  0  0
  1  5  1  0  0  0  0
  3  7  1  0  0  0  0
  4 14  2  0  0  0  0
  5 11  1  1  0  0  0
  6 13  1  0  0  0  0
  7 10  1  0  0  0  0
  7  6  1  1  0  0  0
  8  3  2  0  0  0  0
  8 12  1  0  0  0  0
  9 21  1  6  0  0  0
  9 15  1  0  0  0  0
 10  9  1  0  0  0  0
 12 10  2  0  0  0  0
 13  4  1  0  0  0  0
 13  2  2  0  0  0  0
 14 11  1  0  0  0  0
 15  1  1  0  0  0  0
 15  4  1  1  0  0  0
 16  5  1  0  0  0  0
 17 19  1  0  0  0  0
 18 17  1  0  0  0  0
 20 21  1  0  0  0  0
 22 21  1  0  0  0  0
 22 19  1  0  0  0  0
 23 17  1  0  0  0  0
 23 20  1  0  0  0  0
 24 12  1  0  0  0  0
 25 24  1  0  0  0  0
M  END
>  <MODEL>
7

>  <REMARK>
 VINA RESULT:      -4.7      2.104      4.367
  Name = 
  2 active torsions:
  status: ('A' for Active; 'I' for Inactive)
    1  A    between atoms: C_1  and  C_15
    2  A    between atoms: C_11  and  N_21
                            x       y       z     vdW  Elec       q    Type
                         _______ _______ _______ _____ _____    ______ ____

>  <TORSDO>
F 2

$$$$
=
 OpenBabel11062413543D

 25 29  0  0  1  0  0  0  0  0999 V2000
  185.5750  176.2880  136.9370 C   0  0  1  0  0  3  0  0  0  0  0  0
  185.3870  179.4520  140.5700 O   0  0  0  0  0  0  0  0  0  0  0  0
  181.4270  179.8080  139.3200 N   0  0  0  0  0  0  0  0  0  0  0  0
  185.2630  178.2680  138.5150 C   0  0  0  0  0  0  0  0  0  0  0  0
  186.7840  176.9930  136.4460 C   0  0  2  0  0  3  0  0  0  0  0  0
  183.3010  178.3740  140.1680 C   0  0  0  0  0  2  0  0  0  0  0  0
  182.3780  178.8800  139.1080 C   0  0  2  0  0  3  0  0  0  0  0  0
  180.8330  180.0680  138.1640 N   0  0  0  0  0  0  0  0  0  0  0  0
  183.2380  177.4880  137.0680 C   0  0  1  0  0  3  0  0  0  0  0  0
  182.4150  178.5480  137.7640 C   0  0  0  0  0  0  0  0  0  0  0  0
  186.8430  178.4980  136.7140 C   0  0  0  0  0  2  0  0  0  0  0  0
  181.4180  179.3210  137.2080 C   0  0  0  0  0  0  0  0  0  0  0  0
  184.7060  178.7240  139.8000 C   0  0  0  0  0  0  0  0  0  0  0  0
  186.3220  178.8370  138.0320 N   0  0  0  0  0  0  0  0  0  0  0  0
  184.5890  177.1430  137.7670 C   0  0  1  0  0  3  0  0  0  0  0  0
  185.6550  176.7440  135.5390 N   0  0  0  0  0  2  0  0  0  0  0  0
  182.7810  173.4630  136.1190 N   0  0  0  0  0  0  0  0  0  0  0  0
  181.8420  172.4340  136.5310 C   0  0  0  0  0  1  0  0  0  0  0  0
  183.3480  174.0580  137.3400 C   0  0  0  0  0  2  0  0  0  0  0  0
  182.5690  175.8390  135.4410 C   0  0  0  0  0  2  0  0  0  0  0  0
  182.3850  176.3140  136.8170 N   0  0  0  0  0  0  0  0  0  0  0  0
  182.5470  175.2670  137.8460 C   0  0  0  0  0  2  0  0  0  0  0  0
  182.0350  174.4170  135.2880 C   0  0  0  0  0  2  0  0  0  0  0  0
  180.9690  179.2920  135.7880 C   0  0  0  0  0  2  0  0  0  0  0  0
  180.8760  180.5950  135.2990 O   0  0  0  0  0  1  0  0  0  0  0  0
  1 16  1  6  0  0  0
  1 15  1  0  0  0  0
  4 13  1  0  0  0  0
  5 11  1  1  0  0  0
  5  1  1  0  0  0  0
  7  3  1  0  0  0  0
  7  6  1  6  0  0  0
  8  3  2  0  0  0  0
  9 21  1  1  0  0  0
  9 10  1  0  0  0  0
  9 15  1  0  0  0  0
 10  7  1  0  0  0  0
 11 14  1  0  0  0  0
 12 10  2  0  0  0  0
 12  8  1  0  0  0  0
 13  6  1  0  0  0  0
 13  2  2  0  0  0  0
 14  4  2  0  0  0  0
 15  4  1  6  0  0  0
 16  5  1  0  0  0  0
 17 18  1  0  0  0  0
 17 19  1  0  0  0  0
 19 22  1  0  0  0  0
 20 21  1  0  0  0  0
 21 22  1  0  0  0  0
 23 20  1  0  0  0  0
 23 17  1  0  0  0  0
 24 12  1  0  0  0  0
 25 24  1  0  0  0  0
M  END
>  <MODEL>
8

>  <REMARK>
 VINA RESULT:      -4.7      4.908      6.765
  Name = 
  2 active torsions:
  status: ('A' for Active; 'I' for Inactive)
    1  A    between atoms: C_1  and  C_15
    2  A    between atoms: C_11  and  N_21
                            x       y       z     vdW  Elec       q    Type
                         _______ _______ _______ _____ _____    ______ ____

>  <TORSDO>
F 2

$$$$
=
 OpenBabel11062413543D

 25 29  0  0  1  0  0  0  0  0999 V2000
  179.1770  178.3690  137.5500 C   0  0  1  0  0  3  0  0  0  0  0  0
  179.2570  176.2510  141.8810 O   0  0  0  0  0  0  0  0  0  0  0  0
  182.6940  178.5630  142.3320 N   0  0  0  0  0  0  0  0  0  0  0  0
  179.7020  177.1480  139.7280 C   0  0  0  0  0  0  0  0  0  0  0  0
  179.0200  177.0230  136.9460 C   0  0  2  0  0  3  0  0  0  0  0  0
  180.2300  178.4250  141.8920 C   0  0  0  0  0  2  0  0  0  0  0  0
  181.6520  178.6210  141.4820 C   0  0  0  0  0  0  0  0  0  0  0  0
  183.8100  178.7220  141.6350 N   0  0  0  0  0  2  0  0  0  0  0  0
  181.3250  179.0220  138.9190 C   0  0  1  0  0  3  0  0  0  0  0  0
  182.1140  178.7980  140.1890 C   0  0  0  0  0  0  0  0  0  0  0  0
  179.6900  175.8670  137.6910 C   0  0  0  0  0  2  0  0  0  0  0  0
  183.4840  178.8610  140.3350 C   0  0  0  0  0  0  0  0  0  0  0  0
  179.6830  177.2200  141.1990 C   0  0  0  0  0  0  0  0  0  0  0  0
  179.5650  176.0040  139.1350 N   0  0  0  0  0  0  0  0  0  0  0  0
  179.8910  178.4100  138.9210 C   0  0  1  0  0  3  0  0  0  0  0  0
  180.0790  177.9260  136.4740 N   0  0  0  0  0  2  0  0  0  0  0  0
  179.4980  182.4490  137.4260 N   0  0  0  0  0  0  0  0  0  0  0  0
  179.5620  183.8570  137.7790 C   0  0  0  0  0  1  0  0  0  0  0  0
  179.1780  181.7000  138.6520 C   0  0  0  0  0  2  0  0  0  0  0  0
  181.1800  180.6490  137.1440 C   0  0  0  0  0  2  0  0  0  0  0  0
  181.3570  180.4570  138.5890 N   0  0  0  0  0  0  0  0  0  0  0  0
  180.4290  181.2490  139.4220 C   0  0  0  0  0  2  0  0  0  0  0  0
  180.7960  182.0940  136.8380 C   0  0  0  0  0  2  0  0  0  0  0  0
  184.4750  179.1300  139.2560 C   0  0  0  0  0  2  0  0  0  0  0  0
  184.5560  180.5030  139.0260 O   0  0  0  0  0  1  0  0  0  0  0  0
  1 16  1  6  0  0  0
  1 15  1  0  0  0  0
  4 13  1  0  0  0  0
  5  1  1  0  0  0  0
  5 11  1  1  0  0  0
  7  6  1  0  0  0  0
  7  3  2  0  0  0  0
  8  3  1  0  0  0  0
  9 21  1  1  0  0  0
  9 15  1  0  0  0  0
  9 10  1  0  0  0  0
 10 12  2  0  0  0  0
 10  7  1  0  0  0  0
 11 14  1  0  0  0  0
 12  8  1  0  0  0  0
 13  2  2  0  0  0  0
 13  6  1  0  0  0  0
 14  4  2  0  0  0  0
 15  4  1  6  0  0  0
 16  5  1  0  0  0  0
 17 18  1  0  0  0  0
 17 19  1  0  0  0  0
 19 22  1  0  0  0  0
 20 21  1  0  0  0  0
 21 22  1  0  0  0  0
 23 20  1  0  0  0  0
 23 17  1  0  0  0  0
 24 12  1  0  0  0  0
 25 24  1  0  0  0  0
M  END
>  <MODEL>
9

>  <REMARK>
 VINA RESULT:      -4.6      8.008     10.741
  Name = 
  2 active torsions:
  status: ('A' for Active; 'I' for Inactive)
    1  A    between atoms: C_1  and  C_15
    2  A    between atoms: C_11  and  N_21
                            x       y       z     vdW  Elec       q    Type
                         _______ _______ _______ _____ _____    ______ ____

>  <TORSDO>
F 2

$$$$
