=
 OpenBabel11062413233D

 46 49  0  0  1  0  0  0  0  0999 V2000
  185.9730  175.8720  135.6680 C   0  0  0  0  0  2  0  0  0  0  0  0
  184.5360  176.2470  135.3780 C   0  0  0  0  0  2  0  0  0  0  0  0
  183.6480  175.7630  136.5120 C   0  0  0  0  0  2  0  0  0  0  0  0
  180.8170  177.3150  138.0790 C   0  0  2  0  0  3  0  0  0  0  0  0
  181.8470  176.3670  137.9950 O   0  0  0  0  0  0  0  0  0  0  0  0
  181.3310  178.7740  139.0660 S   0  0  0  0  0  0  0  0  0  0  0  0
  182.7400  176.8700  137.0330 C   0  0  1  0  0  3  0  0  0  0  0  0
  183.1340  178.4590  138.9720 C   0  0  1  0  0  3  0  0  0  0  0  0
  183.5580  178.0600  137.5630 C   0  0  0  0  0  2  0  0  0  0  0  0
  179.6410  176.7110  138.6850 N   0  0  0  0  0  2  0  0  0  0  0  0
  180.0680  176.0510  139.9080 C   0  0  0  0  0  3  0  0  0  0  0  0
  179.6680  174.5880  139.8670 C   0  0  0  0  0  1  0  0  0  0  0  0
  179.4050  176.7160  141.0960 C   0  0  0  0  0  1  0  0  0  0  0  0
  183.9080  179.6900  139.4050 C   0  0  0  0  0  2  0  0  0  0  0  0
  184.8050  179.3550  140.4200 O   0  0  0  0  0  0  0  0  0  0  0  0
  184.2030  178.2860  141.0840 C   0  0  0  0  0  2  0  0  0  0  0  0
  181.8340  179.1240  142.9230 Cl  0  0  0  0  0  0  0  0  0  0  0  0
  183.7710  178.8740  144.8170 C   0  0  0  0  0  3  0  0  0  0  0  0
  185.0630  178.6030  145.2770 C   0  0  0  0  0  0  0  0  0  0  0  0
  186.0620  178.2310  144.3750 C   0  0  0  0  0  3  0  0  0  0  0  0
  183.4710  178.7700  143.4550 C   0  0  0  0  0  0  0  0  0  0  0  0
  185.7690  178.1250  143.0120 C   0  0  0  0  0  3  0  0  0  0  0  0
  184.4750  178.3850  142.5470 C   0  0  0  0  0  0  0  0  0  0  0  0
  185.4300  178.7350  146.9830 Cl  0  0  0  0  0  0  0  0  0  0  0  0
  186.6770  177.0050  136.0790 O   0  0  0  0  0  0  0  0  0  0  0  0
  187.4050  176.5950  137.1470 N   0  0  0  0  0  2  0  0  0  0  0  0
  187.4630  178.7210  138.1060 O   0  0  0  0  0  0  0  0  0  0  0  0
  187.8080  177.5120  138.1680 C   0  0  0  0  0  0  0  0  0  0  0  0
  188.5480  178.0490  140.4760 C   0  0  0  0  0  2  0  0  0  0  0  0
  190.9410  177.7350  143.3480 C   0  0  0  0  0  0  0  0  0  0  0  0
  188.6390  177.0420  139.3180 C   0  0  2  0  0  3  0  0  0  0  0  0
  191.2520  177.1500  139.7310 C   0  0  0  0  0  2  0  0  0  0  0  0
  189.6250  177.8110  141.4830 C   0  0  0  0  0  0  0  0  0  0  0  0
  191.6940  177.3690  142.3170 C   0  0  0  0  0  3  0  0  0  0  0  0
  189.5360  178.0620  142.9440 C   0  0  0  0  0  2  0  0  0  0  0  0
  190.0680  176.7310  138.8930 C   0  0  0  0  0  0  0  0  0  0  0  0
  190.8390  177.4200  141.1450 C   0  0  0  0  0  0  0  0  0  0  0  0
  190.2700  176.0950  137.8720 O   0  0  0  0  0  0  0  0  0  0  0  0
  191.4530  177.8130  144.7460 C   0  0  0  0  0  2  0  0  0  0  0  0
  192.0680  175.6140  145.4380 O   0  0  0  0  0  1  0  0  0  0  0  0
  191.0590  176.5740  145.5350 C   0  0  1  0  0  3  0  0  0  0  0  0
  190.8530  176.9540  146.9910 C   0  0  0  0  0  2  0  0  0  0  0  0
  189.4410  177.3800  147.2340 C   0  0  0  0  0  0  0  0  0  0  0  0
  188.5600  177.0620  146.4490 O   0  0  0  0  0  0  0  0  0  0  0  0
  189.1170  178.2260  148.4190 C   0  0  0  0  0  2  0  0  0  0  0  0
  187.9230  177.7930  148.9960 O   0  0  0  0  0  1  0  0  0  0  0  0
  1 25  1  0  0  0  0
  2  1  1  0  0  0  0
  2  3  1  0  0  0  0
  4 10  1  1  0  0  0
  4  6  1  0  0  0  0
  5  4  1  0  0  0  0
  7  3  1  1  0  0  0
  7  9  1  0  0  0  0
  7  5  1  0  0  0  0
  8  6  1  0  0  0  0
  8 14  1  6  0  0  0
  9  8  1  0  0  0  0
 10 11  1  0  0  0  0
 11 13  1  0  0  0  0
 12 11  1  0  0  0  0
 14 15  1  0  0  0  0
 15 16  1  0  0  0  0
 16 23  1  0  0  0  0
 17 21  1  0  0  0  0
 18 19  1  0  0  0  0
 19 24  1  0  0  0  0
 20 19  2  0  0  0  0
 21 18  2  0  0  0  0
 22 20  1  0  0  0  0
 23 22  2  0  0  0  0
 23 21  1  0  0  0  0
 25 26  1  0  0  0  0
 26 28  1  0  0  0  0
 27 28  2  0  0  0  0
 29 33  1  0  0  0  0
 30 39  1  0  0  0  0
 31 28  1  6  0  0  0
 31 29  1  0  0  0  0
 32 37  1  0  0  0  0
 33 35  1  0  0  0  0
 34 30  2  0  0  0  0
 35 30  1  0  0  0  0
 36 31  1  0  0  0  0
 36 32  1  0  0  0  0
 37 33  2  0  0  0  0
 37 34  1  0  0  0  0
 38 36  2  0  0  0  0
 39 41  1  0  0  0  0
 41 40  1  1  0  0  0
 41 42  1  0  0  0  0
 42 43  1  0  0  0  0
 43 45  1  0  0  0  0
 44 43  2  0  0  0  0
 45 46  1  0  0  0  0
M  END
>  <MODEL>
1

>  <REMARK>
 VINA RESULT:      -8.0      0.000      0.000
  Name = 
  17 active torsions:
  status: ('A' for Active; 'I' for Inactive)
    1  A    between atoms: C_4  and  N_42
    2  A    between atoms: C_6  and  O_12
    3  A    between atoms: C_6  and  C_40
    4  A    between atoms: C_8  and  C_17
    5  A    between atoms: C_9  and  C_17
    6  A    between atoms: C_9  and  C_45
    7  A    between atoms: C_10  and  C_19
    8  A    between atoms: C_10  and  O_31
    9  A    between atoms: O_12  and  C_43
   10  A    between atoms: C_14  and  C_44
   11  A    between atoms: N_16  and  O_31
   12  A    between atoms: C_18  and  N_42
   13  A    between atoms: C_19  and  C_26
   14  A    between atoms: C_22  and  C_26
   15  A    between atoms: C_25  and  C_41
   16  A    between atoms: C_28  and  C_43
   17  A    between atoms: C_44  and  C_45
                            x       y       z     vdW  Elec       q    Type
                         _______ _______ _______ _____ _____    ______ ____

>  <TORSDO>
F 17

$$$$
=
 OpenBabel11062413233D

 46 49  0  0  1  0  0  0  0  0999 V2000
  190.9790  176.6020  142.8450 C   0  0  0  0  0  2  0  0  0  0  0  0
  190.2580  176.8140  141.5310 C   0  0  0  0  0  2  0  0  0  0  0  0
  191.2480  177.3040  140.4860 C   0  0  0  0  0  2  0  0  0  0  0  0
  190.7660  175.3480  137.5160 C   0  0  2  0  0  3  0  0  0  0  0  0
  190.7550  175.5550  138.9030 O   0  0  0  0  0  0  0  0  0  0  0  0
  189.1150  175.6650  136.7810 S   0  0  0  0  0  0  0  0  0  0  0  0
  190.8010  176.9490  139.0720 C   0  0  1  0  0  3  0  0  0  0  0  0
  188.4440  176.6220  138.1940 C   0  0  1  0  0  3  0  0  0  0  0  0
  189.4640  177.6230  138.7240 C   0  0  0  0  0  2  0  0  0  0  0  0
  191.1700  173.9800  137.2260 N   0  0  0  0  0  2  0  0  0  0  0  0
  192.4890  174.0330  136.6170 C   0  0  0  0  0  3  0  0  0  0  0  0
  193.5540  173.9640  137.6950 C   0  0  0  0  0  1  0  0  0  0  0  0
  192.6380  175.3320  135.8520 C   0  0  0  0  0  1  0  0  0  0  0  0
  187.1800  177.3540  137.7810 C   0  0  0  0  0  2  0  0  0  0  0  0
  186.5310  176.6470  136.7680 O   0  0  0  0  0  0  0  0  0  0  0  0
  185.2020  176.5750  137.1860 C   0  0  0  0  0  2  0  0  0  0  0  0
  182.1810  176.1640  136.5510 Cl  0  0  0  0  0  0  0  0  0  0  0  0
  182.9360  173.5550  136.7150 C   0  0  0  0  0  3  0  0  0  0  0  0
  183.8460  172.5120  136.9080 C   0  0  0  0  0  0  0  0  0  0  0  0
  185.1850  172.7950  137.1870 C   0  0  0  0  0  3  0  0  0  0  0  0
  183.3610  174.8850  136.7960 C   0  0  0  0  0  0  0  0  0  0  0  0
  185.6160  174.1220  137.2690 C   0  0  0  0  0  3  0  0  0  0  0  0
  184.7130  175.1710  137.0670 C   0  0  0  0  0  0  0  0  0  0  0  0
  183.3060  170.8510  136.8040 Cl  0  0  0  0  0  0  0  0  0  0  0  0
  190.6570  177.6370  143.7250 O   0  0  0  0  0  0  0  0  0  0  0  0
  189.3030  177.6960  143.7140 N   0  0  0  0  0  2  0  0  0  0  0  0
  189.1070  176.8930  145.8960 O   0  0  0  0  0  0  0  0  0  0  0  0
  188.5330  177.2880  144.8480 C   0  0  0  0  0  0  0  0  0  0  0  0
  186.5750  177.8330  143.4210 C   0  0  0  0  0  2  0  0  0  0  0  0
  182.9760  178.7800  142.9520 C   0  0  0  0  0  0  0  0  0  0  0  0
  187.0390  177.3300  144.7990 C   0  0  2  0  0  3  0  0  0  0  0  0
  185.3200  179.0960  145.7670 C   0  0  0  0  0  2  0  0  0  0  0  0
  185.1360  178.2310  143.4500 C   0  0  0  0  0  0  0  0  0  0  0  0
  183.2050  179.1690  144.2010 C   0  0  0  0  0  2  0  0  0  0  0  0
  184.1740  178.1380  142.3220 C   0  0  0  0  0  3  0  0  0  0  0  0
  186.4570  178.1230  145.9620 C   0  0  0  0  0  0  0  0  0  0  0  0
  184.5800  178.8070  144.4980 C   0  0  0  0  0  0  0  0  0  0  0  0
  186.8890  177.9460  147.0900 O   0  0  0  0  0  0  0  0  0  0  0  0
  181.6670  178.9720  142.2640 C   0  0  0  0  0  2  0  0  0  0  0  0
  180.9100  177.2550  140.7900 O   0  0  0  0  0  1  0  0  0  0  0  0
  181.7080  178.3980  140.8560 C   0  0  1  0  0  3  0  0  0  0  0  0
  181.1930  179.4390  139.8770 C   0  0  0  0  0  2  0  0  0  0  0  0
  182.3140  180.0070  139.0680 C   0  0  0  0  0  0  0  0  0  0  0  0
  182.1880  181.0930  138.5230 O   0  0  0  0  0  0  0  0  0  0  0  0
  183.5730  179.2260  138.8980 C   0  0  0  0  0  2  0  0  0  0  0  0
  184.6550  179.9650  139.3760 O   0  0  0  0  0  1  0  0  0  0  0  0
  1 25  1  0  0  0  0
  2  1  1  0  0  0  0
  3  2  1  0  0  0  0
  4 10  1  1  0  0  0
  4  5  1  0  0  0  0
  5  7  1  0  0  0  0
  6  4  1  0  0  0  0
  6  8  1  0  0  0  0
  7  3  1  1  0  0  0
  8 14  1  6  0  0  0
  8  9  1  0  0  0  0
  9  7  1  0  0  0  0
 11 10  1  0  0  0  0
 11 12  1  0  0  0  0
 13 11  1  0  0  0  0
 15 16  1  0  0  0  0
 15 14  1  0  0  0  0
 17 21  1  0  0  0  0
 18 21  2  0  0  0  0
 18 19  1  0  0  0  0
 19 20  2  0  0  0  0
 20 22  1  0  0  0  0
 21 23  1  0  0  0  0
 23 16  1  0  0  0  0
 23 22  2  0  0  0  0
 24 19  1  0  0  0  0
 26 25  1  0  0  0  0
 26 28  1  0  0  0  0
 28 27  2  0  0  0  0
 29 33  1  0  0  0  0
 29 31  1  0  0  0  0
 30 34  1  0  0  0  0
 31 28  1  6  0  0  0
 31 36  1  0  0  0  0
 32 36  1  0  0  0  0
 33 37  2  0  0  0  0
 34 37  1  0  0  0  0
 35 30  2  0  0  0  0
 35 33  1  0  0  0  0
 36 38  2  0  0  0  0
 37 32  1  0  0  0  0
 39 30  1  0  0  0  0
 41 40  1  1  0  0  0
 41 39  1  0  0  0  0
 42 41  1  0  0  0  0
 43 42  1  0  0  0  0
 44 43  2  0  0  0  0
 45 43  1  0  0  0  0
 45 46  1  0  0  0  0
M  END
>  <MODEL>
2

>  <REMARK>
 VINA RESULT:      -8.0      3.464      9.100
  Name = 
  17 active torsions:
  status: ('A' for Active; 'I' for Inactive)
    1  A    between atoms: C_4  and  N_42
    2  A    between atoms: C_6  and  O_12
    3  A    between atoms: C_6  and  C_40
    4  A    between atoms: C_8  and  C_17
    5  A    between atoms: C_9  and  C_17
    6  A    between atoms: C_9  and  C_45
    7  A    between atoms: C_10  and  C_19
    8  A    between atoms: C_10  and  O_31
    9  A    between atoms: O_12  and  C_43
   10  A    between atoms: C_14  and  C_44
   11  A    between atoms: N_16  and  O_31
   12  A    between atoms: C_18  and  N_42
   13  A    between atoms: C_19  and  C_26
   14  A    between atoms: C_22  and  C_26
   15  A    between atoms: C_25  and  C_41
   16  A    between atoms: C_28  and  C_43
   17  A    between atoms: C_44  and  C_45
                            x       y       z     vdW  Elec       q    Type
                         _______ _______ _______ _____ _____    ______ ____

>  <TORSDO>
F 17

$$$$
=
 OpenBabel11062413233D

 46 49  0  0  1  0  0  0  0  0999 V2000
  183.1640  176.9090  139.6140 C   0  0  0  0  0  2  0  0  0  0  0  0
  183.7070  177.3580  138.2740 C   0  0  0  0  0  2  0  0  0  0  0  0
  183.1190  176.4900  137.1740 C   0  0  0  0  0  2  0  0  0  0  0  0
  184.1690  173.3650  135.7550 C   0  0  2  0  0  3  0  0  0  0  0  0
  183.5320  174.6140  135.7180 O   0  0  0  0  0  0  0  0  0  0  0  0
  185.8890  173.4750  135.1260 S   0  0  0  0  0  0  0  0  0  0  0  0
  184.0320  175.3210  136.8250 C   0  0  1  0  0  3  0  0  0  0  0  0
  186.0490  175.2940  135.2860 C   0  0  1  0  0  3  0  0  0  0  0  0
  185.4810  175.7900  136.6110 C   0  0  0  0  0  2  0  0  0  0  0  0
  183.4210  172.4080  134.9550 N   0  0  0  0  0  2  0  0  0  0  0  0
  182.8600  171.4210  135.8630 C   0  0  0  0  0  3  0  0  0  0  0  0
  183.8440  170.2830  136.0540 C   0  0  0  0  0  1  0  0  0  0  0  0
  181.5730  170.8750  135.2790 C   0  0  0  0  0  1  0  0  0  0  0  0
  187.5040  175.7070  135.1700 C   0  0  0  0  0  2  0  0  0  0  0  0
  187.8050  176.6640  136.1410 O   0  0  0  0  0  0  0  0  0  0  0  0
  188.9870  176.2110  136.7270 C   0  0  0  0  0  2  0  0  0  0  0  0
  191.6260  175.6190  138.2700 Cl  0  0  0  0  0  0  0  0  0  0  0  0
  190.3560  177.1090  140.1610 C   0  0  0  0  0  3  0  0  0  0  0  0
  189.3000  177.8650  140.6750 C   0  0  0  0  0  0  0  0  0  0  0  0
  188.1540  178.0800  139.9060 C   0  0  0  0  0  3  0  0  0  0  0  0
  190.2740  176.5670  138.8740 C   0  0  0  0  0  0  0  0  0  0  0  0
  188.0660  177.5410  138.6190 C   0  0  0  0  0  3  0  0  0  0  0  0
  189.1240  176.7910  138.0940 C   0  0  0  0  0  0  0  0  0  0  0  0
  189.4110  178.5400  142.2860 Cl  0  0  0  0  0  0  0  0  0  0  0  0
  182.5540  177.9900  140.2550 O   0  0  0  0  0  0  0  0  0  0  0  0
  183.2320  178.1320  141.4200 N   0  0  0  0  0  2  0  0  0  0  0  0
  184.7120  179.7030  140.5330 O   0  0  0  0  0  0  0  0  0  0  0  0
  184.3540  179.0150  141.5240 C   0  0  0  0  0  0  0  0  0  0  0  0
  185.9470  177.8620  143.0380 C   0  0  0  0  0  2  0  0  0  0  0  0
  187.5050  177.2990  146.4050 C   0  0  0  0  0  0  0  0  0  0  0  0
  185.1060  179.1280  142.8110 C   0  0  2  0  0  3  0  0  0  0  0  0
  184.3220  178.7820  145.3160 C   0  0  0  0  0  2  0  0  0  0  0  0
  186.4180  177.7750  144.4530 C   0  0  0  0  0  0  0  0  0  0  0  0
  186.3540  177.8790  146.7240 C   0  0  0  0  0  2  0  0  0  0  0  0
  187.6860  177.1600  144.9240 C   0  0  0  0  0  3  0  0  0  0  0  0
  184.1840  179.4640  143.9760 C   0  0  0  0  0  0  0  0  0  0  0  0
  185.6820  178.1770  145.4720 C   0  0  0  0  0  0  0  0  0  0  0  0
  183.3350  180.3300  143.8460 O   0  0  0  0  0  0  0  0  0  0  0  0
  188.4960  176.8360  147.4180 C   0  0  0  0  0  2  0  0  0  0  0  0
  190.2980  178.0420  148.4140 O   0  0  0  0  0  1  0  0  0  0  0  0
  189.8420  177.5110  147.2060 C   0  0  1  0  0  3  0  0  0  0  0  0
  190.8380  176.4880  146.6870 C   0  0  0  0  0  2  0  0  0  0  0  0
  191.3230  176.8630  145.3250 C   0  0  0  0  0  0  0  0  0  0  0  0
  191.3960  178.0390  145.0000 O   0  0  0  0  0  0  0  0  0  0  0  0
  191.6850  175.7940  144.3490 C   0  0  0  0  0  2  0  0  0  0  0  0
  190.6630  175.6450  143.4120 O   0  0  0  0  0  1  0  0  0  0  0  0
  1 25  1  0  0  0  0
  2  1  1  0  0  0  0
  3  2  1  0  0  0  0
  4 10  1  6  0  0  0
  5  4  1  0  0  0  0
  5  7  1  0  0  0  0
  6  8  1  0  0  0  0
  6  4  1  0  0  0  0
  7  3  1  6  0  0  0
  8 14  1  1  0  0  0
  8  9  1  0  0  0  0
  9  7  1  0  0  0  0
 10 11  1  0  0  0  0
 11 12  1  0  0  0  0
 13 11  1  0  0  0  0
 14 15  1  0  0  0  0
 15 16  1  0  0  0  0
 16 23  1  0  0  0  0
 17 21  1  0  0  0  0
 18 19  1  0  0  0  0
 19 24  1  0  0  0  0
 20 19  2  0  0  0  0
 21 18  2  0  0  0  0
 22 20  1  0  0  0  0
 23 22  2  0  0  0  0
 23 21  1  0  0  0  0
 25 26  1  0  0  0  0
 26 28  1  0  0  0  0
 27 28  2  0  0  0  0
 29 33  1  0  0  0  0
 30 34  1  0  0  0  0
 30 39  1  0  0  0  0
 31 28  1  6  0  0  0
 31 29  1  0  0  0  0
 31 36  1  0  0  0  0
 32 37  1  0  0  0  0
 33 35  1  0  0  0  0
 33 37  2  0  0  0  0
 35 30  2  0  0  0  0
 36 32  1  0  0  0  0
 37 34  1  0  0  0  0
 38 36  2  0  0  0  0
 41 39  1  0  0  0  0
 41 40  1  1  0  0  0
 42 41  1  0  0  0  0
 43 42  1  0  0  0  0
 44 43  2  0  0  0  0
 45 43  1  0  0  0  0
 46 45  1  0  0  0  0
M  END
>  <MODEL>
3

>  <REMARK>
 VINA RESULT:      -7.6      3.183      5.998
  Name = 
  17 active torsions:
  status: ('A' for Active; 'I' for Inactive)
    1  A    between atoms: C_4  and  N_42
    2  A    between atoms: C_6  and  O_12
    3  A    between atoms: C_6  and  C_40
    4  A    between atoms: C_8  and  C_17
    5  A    between atoms: C_9  and  C_17
    6  A    between atoms: C_9  and  C_45
    7  A    between atoms: C_10  and  C_19
    8  A    between atoms: C_10  and  O_31
    9  A    between atoms: O_12  and  C_43
   10  A    between atoms: C_14  and  C_44
   11  A    between atoms: N_16  and  O_31
   12  A    between atoms: C_18  and  N_42
   13  A    between atoms: C_19  and  C_26
   14  A    between atoms: C_22  and  C_26
   15  A    between atoms: C_25  and  C_41
   16  A    between atoms: C_28  and  C_43
   17  A    between atoms: C_44  and  C_45
                            x       y       z     vdW  Elec       q    Type
                         _______ _______ _______ _____ _____    ______ ____

>  <TORSDO>
F 17

$$$$
=
 OpenBabel11062413233D

 46 49  0  0  1  0  0  0  0  0999 V2000
  188.3640  178.2700  140.8340 C   0  0  0  0  0  2  0  0  0  0  0  0
  187.1600  178.7230  141.6320 C   0  0  0  0  0  2  0  0  0  0  0  0
  185.9110  178.6010  140.7750 C   0  0  0  0  0  2  0  0  0  0  0  0
  182.4450  178.8370  141.6760 C   0  0  2  0  0  3  0  0  0  0  0  0
  183.6110  178.1390  141.3300 O   0  0  0  0  0  0  0  0  0  0  0  0
  182.2450  178.9410  143.4970 S   0  0  0  0  0  0  0  0  0  0  0  0
  184.6630  179.0510  141.5260 C   0  0  1  0  0  3  0  0  0  0  0  0
  183.9840  178.5380  143.9160 C   0  0  1  0  0  3  0  0  0  0  0  0
  184.9620  179.2850  143.0160 C   0  0  0  0  0  2  0  0  0  0  0  0
  181.2860  178.1730  141.1000 N   0  0  0  0  0  2  0  0  0  0  0  0
  181.0880  178.7160  139.7660 C   0  0  0  0  0  3  0  0  0  0  0  0
  180.3290  180.0270  139.8540 C   0  0  0  0  0  1  0  0  0  0  0  0
  180.2890  177.7330  138.9360 C   0  0  0  0  0  1  0  0  0  0  0  0
  184.2680  178.8770  145.3670 C   0  0  0  0  0  2  0  0  0  0  0  0
  185.6250  179.1610  145.5320 O   0  0  0  0  0  0  0  0  0  0  0  0
  186.0570  178.2610  146.5050 C   0  0  0  0  0  2  0  0  0  0  0  0
  188.1000  178.1150  148.8510 Cl  0  0  0  0  0  0  0  0  0  0  0  0
  189.7220  177.2930  146.8270 C   0  0  0  0  0  3  0  0  0  0  0  0
  190.0250  176.9670  145.5030 C   0  0  0  0  0  0  0  0  0  0  0  0
  189.0400  177.0610  144.5170 C   0  0  0  0  0  3  0  0  0  0  0  0
  188.4330  177.7110  147.1730 C   0  0  0  0  0  0  0  0  0  0  0  0
  187.7500  177.4780  144.8560 C   0  0  0  0  0  3  0  0  0  0  0  0
  187.4380  177.7960  146.1820 C   0  0  0  0  0  0  0  0  0  0  0  0
  191.6400  176.4440  145.0780 Cl  0  0  0  0  0  0  0  0  0  0  0  0
  188.2630  178.7490  139.5270 O   0  0  0  0  0  0  0  0  0  0  0  0
  188.9930  177.8840  138.7810 N   0  0  0  0  0  2  0  0  0  0  0  0
  187.1090  176.8850  137.8350 O   0  0  0  0  0  0  0  0  0  0  0  0
  188.3630  176.9220  137.9300 C   0  0  0  0  0  0  0  0  0  0  0  0
  190.5150  175.6840  137.8760 C   0  0  0  0  0  2  0  0  0  0  0  0
  193.2560  173.8770  136.0610 C   0  0  0  0  0  0  0  0  0  0  0  0
  189.1910  175.9560  137.1440 C   0  0  2  0  0  3  0  0  0  0  0  0
  190.7110  176.3110  135.0050 C   0  0  0  0  0  2  0  0  0  0  0  0
  191.5050  175.0270  136.9720 C   0  0  0  0  0  0  0  0  0  0  0  0
  192.7090  174.6010  135.0900 C   0  0  0  0  0  3  0  0  0  0  0  0
  192.5590  174.0600  137.3740 C   0  0  0  0  0  2  0  0  0  0  0  0
  189.3760  176.4130  135.7030 C   0  0  0  0  0  0  0  0  0  0  0  0
  191.5980  175.3190  135.6890 C   0  0  0  0  0  0  0  0  0  0  0  0
  188.4190  176.8370  135.0750 O   0  0  0  0  0  0  0  0  0  0  0  0
  194.4360  172.9890  135.8530 C   0  0  0  0  0  2  0  0  0  0  0  0
  196.2220  171.9620  137.0570 O   0  0  0  0  0  1  0  0  0  0  0  0
  195.4000  173.0900  137.0240 C   0  0  1  0  0  3  0  0  0  0  0  0
  196.2510  174.3380  136.8650 C   0  0  0  0  0  2  0  0  0  0  0  0
  196.9070  174.7030  138.1570 C   0  0  0  0  0  0  0  0  0  0  0  0
  198.0280  175.1870  138.1610 O   0  0  0  0  0  0  0  0  0  0  0  0
  196.2010  174.4400  139.4450 C   0  0  0  0  0  2  0  0  0  0  0  0
  195.5210  175.5880  139.8530 O   0  0  0  0  0  1  0  0  0  0  0  0
  1  2  1  0  0  0  0
  3  2  1  0  0  0  0
  4 10  1  6  0  0  0
  4  6  1  0  0  0  0
  5  7  1  0  0  0  0
  5  4  1  0  0  0  0
  6  8  1  0  0  0  0
  7  3  1  6  0  0  0
  7  9  1  0  0  0  0
  8 14  1  1  0  0  0
  9  8  1  0  0  0  0
 11 12  1  0  0  0  0
 11 10  1  0  0  0  0
 13 11  1  0  0  0  0
 14 15  1  0  0  0  0
 15 16  1  0  0  0  0
 18 21  1  0  0  0  0
 19 18  2  0  0  0  0
 20 22  2  0  0  0  0
 20 19  1  0  0  0  0
 21 17  1  0  0  0  0
 22 23  1  0  0  0  0
 23 16  1  0  0  0  0
 23 21  2  0  0  0  0
 24 19  1  0  0  0  0
 25  1  1  0  0  0  0
 26 25  1  0  0  0  0
 27 28  2  0  0  0  0
 28 26  1  0  0  0  0
 30 35  1  0  0  0  0
 31 29  1  0  0  0  0
 31 28  1  1  0  0  0
 32 37  1  0  0  0  0
 32 36  1  0  0  0  0
 33 35  1  0  0  0  0
 33 29  1  0  0  0  0
 34 37  1  0  0  0  0
 34 30  2  0  0  0  0
 36 31  1  0  0  0  0
 37 33  2  0  0  0  0
 38 36  2  0  0  0  0
 39 30  1  0  0  0  0
 39 41  1  0  0  0  0
 41 40  1  6  0  0  0
 42 41  1  0  0  0  0
 42 43  1  0  0  0  0
 43 44  2  0  0  0  0
 43 45  1  0  0  0  0
 45 46  1  0  0  0  0
M  END
>  <MODEL>
4

>  <REMARK>
 VINA RESULT:      -7.5      3.730      6.747
  Name = 
  17 active torsions:
  status: ('A' for Active; 'I' for Inactive)
    1  A    between atoms: C_4  and  N_42
    2  A    between atoms: C_6  and  O_12
    3  A    between atoms: C_6  and  C_40
    4  A    between atoms: C_8  and  C_17
    5  A    between atoms: C_9  and  C_17
    6  A    between atoms: C_9  and  C_45
    7  A    between atoms: C_10  and  C_19
    8  A    between atoms: C_10  and  O_31
    9  A    between atoms: O_12  and  C_43
   10  A    between atoms: C_14  and  C_44
   11  A    between atoms: N_16  and  O_31
   12  A    between atoms: C_18  and  N_42
   13  A    between atoms: C_19  and  C_26
   14  A    between atoms: C_22  and  C_26
   15  A    between atoms: C_25  and  C_41
   16  A    between atoms: C_28  and  C_43
   17  A    between atoms: C_44  and  C_45
                            x       y       z     vdW  Elec       q    Type
                         _______ _______ _______ _____ _____    ______ ____

>  <TORSDO>
F 17

$$$$
=
 OpenBabel11062413233D

 46 49  0  0  1  0  0  0  0  0999 V2000
  185.2710  179.0080  143.4530 C   0  0  0  0  0  2  0  0  0  0  0  0
  186.2680  178.1050  142.7580 C   0  0  0  0  0  2  0  0  0  0  0  0
  186.9400  178.8690  141.6280 C   0  0  0  0  0  2  0  0  0  0  0  0
  188.7640  177.6810  138.7740 C   0  0  2  0  0  3  0  0  0  0  0  0
  188.3470  178.6660  139.6820 O   0  0  0  0  0  0  0  0  0  0  0  0
  190.3670  176.9450  139.2800 S   0  0  0  0  0  0  0  0  0  0  0  0
  187.8280  177.9630  140.7830 C   0  0  1  0  0  3  0  0  0  0  0  0
  190.3150  177.5170  141.0210 C   0  0  1  0  0  3  0  0  0  0  0  0
  188.9330  177.3140  141.6330 C   0  0  0  0  0  2  0  0  0  0  0  0
  188.8950  178.2600  137.4460 N   0  0  0  0  0  2  0  0  0  0  0  0
  188.1990  177.3850  136.5170 C   0  0  0  0  0  3  0  0  0  0  0  0
  187.2410  178.1980  135.6660 C   0  0  0  0  0  1  0  0  0  0  0  0
  187.4160  176.3460  137.2940 C   0  0  0  0  0  1  0  0  0  0  0  0
  191.3500  176.7810  141.8490 C   0  0  0  0  0  2  0  0  0  0  0  0
  190.7570  176.2640  143.0020 O   0  0  0  0  0  0  0  0  0  0  0  0
  191.4840  176.8240  144.0520 C   0  0  0  0  0  2  0  0  0  0  0  0
  192.3620  175.7340  146.8340 Cl  0  0  0  0  0  0  0  0  0  0  0  0
  189.9940  176.8670  147.5530 C   0  0  0  0  0  3  0  0  0  0  0  0
  188.8060  177.5660  147.3240 C   0  0  0  0  0  0  0  0  0  0  0  0
  188.4980  178.0190  146.0390 C   0  0  0  0  0  3  0  0  0  0  0  0
  190.8820  176.6210  146.5000 C   0  0  0  0  0  0  0  0  0  0  0  0
  189.3800  177.7770  144.9830 C   0  0  0  0  0  3  0  0  0  0  0  0
  190.5760  177.0860  145.2070 C   0  0  0  0  0  0  0  0  0  0  0  0
  187.7020  177.8700  148.6470 Cl  0  0  0  0  0  0  0  0  0  0  0  0
  183.9920  178.4590  143.3450 O   0  0  0  0  0  0  0  0  0  0  0  0
  183.8620  178.1310  142.0370 N   0  0  0  0  0  2  0  0  0  0  0  0
  181.7370  179.0770  141.8620 O   0  0  0  0  0  0  0  0  0  0  0  0
  182.6760  178.4520  141.3040 C   0  0  0  0  0  0  0  0  0  0  0  0
  182.6300  176.5190  139.7470 C   0  0  0  0  0  2  0  0  0  0  0  0
  183.0360  174.9940  136.3430 C   0  0  0  0  0  0  0  0  0  0  0  0
  182.5440  178.0490  139.8710 C   0  0  2  0  0  3  0  0  0  0  0  0
  184.3000  178.0810  137.8900 C   0  0  0  0  0  2  0  0  0  0  0  0
  182.8660  176.1060  138.3310 C   0  0  0  0  0  0  0  0  0  0  0  0
  183.7490  176.1100  136.2350 C   0  0  0  0  0  3  0  0  0  0  0  0
  182.3890  174.8550  137.6870 C   0  0  0  0  0  2  0  0  0  0  0  0
  183.5360  178.7890  138.9820 C   0  0  0  0  0  0  0  0  0  0  0  0
  183.6240  176.8020  137.5050 C   0  0  0  0  0  0  0  0  0  0  0  0
  183.6960  179.9900  139.1240 O   0  0  0  0  0  0  0  0  0  0  0  0
  182.9070  173.9970  135.2420 C   0  0  0  0  0  2  0  0  0  0  0  0
  183.0140  171.6360  134.9090 O   0  0  0  0  0  1  0  0  0  0  0  0
  183.5960  172.6930  135.6120 C   0  0  1  0  0  3  0  0  0  0  0  0
  185.0710  172.7900  135.2600 C   0  0  0  0  0  2  0  0  0  0  0  0
  185.9130  172.7720  136.4950 C   0  0  0  0  0  0  0  0  0  0  0  0
  185.3870  172.7920  137.5970 O   0  0  0  0  0  0  0  0  0  0  0  0
  187.4000  172.7660  136.3750 C   0  0  0  0  0  2  0  0  0  0  0  0
  187.9590  172.1060  137.4700 O   0  0  0  0  0  1  0  0  0  0  0  0
  2  1  1  0  0  0  0
  3  2  1  0  0  0  0
  4 10  1  6  0  0  0
  4  6  1  0  0  0  0
  4  5  1  0  0  0  0
  5  7  1  0  0  0  0
  6  8  1  0  0  0  0
  7  3  1  1  0  0  0
  7  9  1  0  0  0  0
  8  9  1  0  0  0  0
  8 14  1  1  0  0  0
 11 13  1  0  0  0  0
 11 10  1  0  0  0  0
 12 11  1  0  0  0  0
 14 15  1  0  0  0  0
 15 16  1  0  0  0  0
 16 23  1  0  0  0  0
 19 18  1  0  0  0  0
 19 24  1  0  0  0  0
 20 19  2  0  0  0  0
 21 17  1  0  0  0  0
 21 18  2  0  0  0  0
 22 23  2  0  0  0  0
 22 20  1  0  0  0  0
 23 21  1  0  0  0  0
 25  1  1  0  0  0  0
 26 25  1  0  0  0  0
 28 27  2  0  0  0  0
 28 26  1  0  0  0  0
 29 31  1  0  0  0  0
 30 35  1  0  0  0  0
 31 28  1  1  0  0  0
 32 36  1  0  0  0  0
 33 29  1  0  0  0  0
 34 30  2  0  0  0  0
 34 37  1  0  0  0  0
 35 33  1  0  0  0  0
 36 38  2  0  0  0  0
 36 31  1  0  0  0  0
 37 32  1  0  0  0  0
 37 33  2  0  0  0  0
 39 41  1  0  0  0  0
 39 30  1  0  0  0  0
 41 40  1  6  0  0  0
 42 41  1  0  0  0  0
 42 43  1  0  0  0  0
 43 44  2  0  0  0  0
 45 43  1  0  0  0  0
 45 46  1  0  0  0  0
M  END
>  <MODEL>
5

>  <REMARK>
 VINA RESULT:      -7.5      2.984      8.843
  Name = 
  17 active torsions:
  status: ('A' for Active; 'I' for Inactive)
    1  A    between atoms: C_4  and  N_42
    2  A    between atoms: C_6  and  O_12
    3  A    between atoms: C_6  and  C_40
    4  A    between atoms: C_8  and  C_17
    5  A    between atoms: C_9  and  C_17
    6  A    between atoms: C_9  and  C_45
    7  A    between atoms: C_10  and  C_19
    8  A    between atoms: C_10  and  O_31
    9  A    between atoms: O_12  and  C_43
   10  A    between atoms: C_14  and  C_44
   11  A    between atoms: N_16  and  O_31
   12  A    between atoms: C_18  and  N_42
   13  A    between atoms: C_19  and  C_26
   14  A    between atoms: C_22  and  C_26
   15  A    between atoms: C_25  and  C_41
   16  A    between atoms: C_28  and  C_43
   17  A    between atoms: C_44  and  C_45
                            x       y       z     vdW  Elec       q    Type
                         _______ _______ _______ _____ _____    ______ ____

>  <TORSDO>
F 17

$$$$
=
 OpenBabel11062413233D

 46 49  0  0  1  0  0  0  0  0999 V2000
  187.4690  175.8670  135.7550 C   0  0  0  0  0  2  0  0  0  0  0  0
  186.3990  176.0950  136.8010 C   0  0  0  0  0  2  0  0  0  0  0  0
  185.3040  176.9750  136.2210 C   0  0  0  0  0  2  0  0  0  0  0  0
  182.7470  174.5590  136.9350 C   0  0  2  0  0  3  0  0  0  0  0  0
  184.0070  175.1500  137.1130 O   0  0  0  0  0  0  0  0  0  0  0  0
  181.5210  175.2330  138.1230 S   0  0  0  0  0  0  0  0  0  0  0  0
  183.9160  176.4140  136.5060 C   0  0  1  0  0  3  0  0  0  0  0  0
  182.4730  176.7350  138.5680 C   0  0  1  0  0  3  0  0  0  0  0  0
  183.0750  177.4000  137.3350 C   0  0  0  0  0  2  0  0  0  0  0  0
  182.8500  173.1190  137.1100 N   0  0  0  0  0  2  0  0  0  0  0  0
  181.7140  172.5130  136.4350 C   0  0  0  0  0  3  0  0  0  0  0  0
  182.1280  171.1870  135.8250 C   0  0  0  0  0  1  0  0  0  0  0  0
  181.2310  173.4380  135.3360 C   0  0  0  0  0  1  0  0  0  0  0  0
  181.5830  177.7260  139.2950 C   0  0  0  0  0  2  0  0  0  0  0  0
  181.6580  177.5110  140.6720 O   0  0  0  0  0  0  0  0  0  0  0  0
  181.6530  178.7890  141.2290 C   0  0  0  0  0  2  0  0  0  0  0  0
  184.6640  178.6650  140.4470 Cl  0  0  0  0  0  0  0  0  0  0  0  0
  184.9370  178.8430  143.1480 C   0  0  0  0  0  3  0  0  0  0  0  0
  184.4720  178.9440  144.4620 C   0  0  0  0  0  0  0  0  0  0  0  0
  183.0990  178.9960  144.7150 C   0  0  0  0  0  3  0  0  0  0  0  0
  184.0330  178.7970  142.0810 C   0  0  0  0  0  0  0  0  0  0  0  0
  182.1910  178.9510  143.6540 C   0  0  0  0  0  3  0  0  0  0  0  0
  182.6510  178.8600  142.3360 C   0  0  0  0  0  0  0  0  0  0  0  0
  185.6090  179.0020  145.7910 Cl  0  0  0  0  0  0  0  0  0  0  0  0
  188.6050  175.3260  136.3610 O   0  0  0  0  0  0  0  0  0  0  0  0
  188.7200  175.9870  137.5390 N   0  0  0  0  0  2  0  0  0  0  0  0
  190.5720  177.2170  136.8310 O   0  0  0  0  0  0  0  0  0  0  0  0
  189.7600  176.9460  137.7530 C   0  0  0  0  0  0  0  0  0  0  0  0
  190.6500  176.7410  140.0610 C   0  0  0  0  0  2  0  0  0  0  0  0
  190.6790  177.6650  143.6980 C   0  0  0  0  0  0  0  0  0  0  0  0
  189.8860  177.6380  139.0720 C   0  0  2  0  0  3  0  0  0  0  0  0
  188.1480  177.9430  141.0460 C   0  0  0  0  0  2  0  0  0  0  0  0
  190.4840  177.2250  141.4650 C   0  0  0  0  0  0  0  0  0  0  0  0
  189.4590  178.0350  143.3260 C   0  0  0  0  0  2  0  0  0  0  0  0
  191.4790  177.1030  142.5610 C   0  0  0  0  0  3  0  0  0  0  0  0
  188.5360  178.1080  139.5960 C   0  0  0  0  0  0  0  0  0  0  0  0
  189.3580  177.7520  141.9060 C   0  0  0  0  0  0  0  0  0  0  0  0
  187.7560  178.6660  138.8420 O   0  0  0  0  0  0  0  0  0  0  0  0
  191.1820  177.7930  145.0950 C   0  0  0  0  0  2  0  0  0  0  0  0
  192.0630  175.7540  145.9680 O   0  0  0  0  0  1  0  0  0  0  0  0
  190.9030  176.5260  145.8880 C   0  0  1  0  0  3  0  0  0  0  0  0
  190.4420  176.9020  147.2850 C   0  0  0  0  0  2  0  0  0  0  0  0
  189.0140  177.3430  147.2730 C   0  0  0  0  0  0  0  0  0  0  0  0
  188.2000  176.7690  146.5650 O   0  0  0  0  0  0  0  0  0  0  0  0
  188.5930  178.5110  148.1010 C   0  0  0  0  0  2  0  0  0  0  0  0
  187.9700  178.0630  149.2660 O   0  0  0  0  0  1  0  0  0  0  0  0
  1 25  1  0  0  0  0
  1  2  1  0  0  0  0
  3  2  1  0  0  0  0
  4 10  1  1  0  0  0
  4  5  1  0  0  0  0
  4  6  1  0  0  0  0
  6  8  1  0  0  0  0
  7  3  1  1  0  0  0
  7  5  1  0  0  0  0
  7  9  1  0  0  0  0
  8 14  1  6  0  0  0
  9  8  1  0  0  0  0
 11 10  1  0  0  0  0
 12 11  1  0  0  0  0
 13 11  1  0  0  0  0
 14 15  1  0  0  0  0
 15 16  1  0  0  0  0
 16 23  1  0  0  0  0
 17 21  1  0  0  0  0
 18 19  1  0  0  0  0
 19 20  2  0  0  0  0
 19 24  1  0  0  0  0
 21 23  1  0  0  0  0
 21 18  2  0  0  0  0
 22 20  1  0  0  0  0
 23 22  2  0  0  0  0
 25 26  1  0  0  0  0
 26 28  1  0  0  0  0
 27 28  2  0  0  0  0
 29 33  1  0  0  0  0
 30 39  1  0  0  0  0
 31 28  1  6  0  0  0
 31 36  1  0  0  0  0
 31 29  1  0  0  0  0
 32 37  1  0  0  0  0
 33 37  2  0  0  0  0
 33 35  1  0  0  0  0
 34 30  1  0  0  0  0
 35 30  2  0  0  0  0
 36 32  1  0  0  0  0
 37 34  1  0  0  0  0
 38 36  2  0  0  0  0
 39 41  1  0  0  0  0
 41 40  1  1  0  0  0
 41 42  1  0  0  0  0
 43 42  1  0  0  0  0
 43 45  1  0  0  0  0
 44 43  2  0  0  0  0
 45 46  1  0  0  0  0
M  END
>  <MODEL>
6

>  <REMARK>
 VINA RESULT:      -7.3      1.899      2.751
  Name = 
  17 active torsions:
  status: ('A' for Active; 'I' for Inactive)
    1  A    between atoms: C_4  and  N_42
    2  A    between atoms: C_6  and  O_12
    3  A    between atoms: C_6  and  C_40
    4  A    between atoms: C_8  and  C_17
    5  A    between atoms: C_9  and  C_17
    6  A    between atoms: C_9  and  C_45
    7  A    between atoms: C_10  and  C_19
    8  A    between atoms: C_10  and  O_31
    9  A    between atoms: O_12  and  C_43
   10  A    between atoms: C_14  and  C_44
   11  A    between atoms: N_16  and  O_31
   12  A    between atoms: C_18  and  N_42
   13  A    between atoms: C_19  and  C_26
   14  A    between atoms: C_22  and  C_26
   15  A    between atoms: C_25  and  C_41
   16  A    between atoms: C_28  and  C_43
   17  A    between atoms: C_44  and  C_45
                            x       y       z     vdW  Elec       q    Type
                         _______ _______ _______ _____ _____    ______ ____

>  <TORSDO>
F 17

$$$$
=
 OpenBabel11062413233D

 46 49  0  0  1  0  0  0  0  0999 V2000
  190.1230  176.6730  143.7200 C   0  0  0  0  0  2  0  0  0  0  0  0
  188.7510  176.2930  143.2060 C   0  0  0  0  0  2  0  0  0  0  0  0
  187.8640  177.5270  143.1730 C   0  0  0  0  0  2  0  0  0  0  0  0
  186.5700  177.7960  146.5100 C   0  0  2  0  0  3  0  0  0  0  0  0
  187.3540  178.2170  145.4260 O   0  0  0  0  0  0  0  0  0  0  0  0
  184.9360  178.6300  146.5150 S   0  0  0  0  0  0  0  0  0  0  0  0
  186.8490  177.5250  144.3110 C   0  0  1  0  0  3  0  0  0  0  0  0
  184.9830  179.1830  144.7680 C   0  0  1  0  0  3  0  0  0  0  0  0
  185.4910  178.0780  143.8470 C   0  0  0  0  0  2  0  0  0  0  0  0
  187.2630  178.0820  147.7570 N   0  0  0  0  0  2  0  0  0  0  0  0
  188.6820  177.8620  147.5300 C   0  0  0  0  0  3  0  0  0  0  0  0
  188.9980  176.3830  147.6520 C   0  0  0  0  0  1  0  0  0  0  0  0
  189.4810  178.6290  148.5630 C   0  0  0  0  0  1  0  0  0  0  0  0
  183.6040  179.6240  144.3170 C   0  0  0  0  0  2  0  0  0  0  0  0
  182.9970  178.6070  143.5790 O   0  0  0  0  0  0  0  0  0  0  0  0
  182.4120  179.2610  142.4940 C   0  0  0  0  0  2  0  0  0  0  0  0
  179.4320  178.4460  142.1030 Cl  0  0  0  0  0  0  0  0  0  0  0  0
  180.5520  176.8920  140.1700 C   0  0  0  0  0  3  0  0  0  0  0  0
  181.6110  176.3810  139.4130 C   0  0  0  0  0  0  0  0  0  0  0  0
  182.9170  176.8100  139.6610 C   0  0  0  0  0  3  0  0  0  0  0  0
  180.7940  177.8350  141.1740 C   0  0  0  0  0  0  0  0  0  0  0  0
  183.1650  177.7520  140.6630 C   0  0  0  0  0  3  0  0  0  0  0  0
  182.1080  178.2750  141.4170 C   0  0  0  0  0  0  0  0  0  0  0  0
  181.3000  175.2020  138.1590 Cl  0  0  0  0  0  0  0  0  0  0  0  0
  191.0970  176.2160  142.8290 O   0  0  0  0  0  0  0  0  0  0  0  0
  190.5150  176.2920  141.6080 N   0  0  0  0  0  2  0  0  0  0  0  0
  192.0790  177.8210  140.7980 O   0  0  0  0  0  0  0  0  0  0  0  0
  191.0400  177.1450  140.5860 C   0  0  0  0  0  0  0  0  0  0  0  0
  188.8460  177.4230  139.4570 C   0  0  0  0  0  2  0  0  0  0  0  0
  186.5660  177.0390  136.5030 C   0  0  0  0  0  0  0  0  0  0  0  0
  190.3590  177.2360  139.2580 C   0  0  2  0  0  3  0  0  0  0  0  0
  189.6680  175.3540  137.5290 C   0  0  0  0  0  2  0  0  0  0  0  0
  188.1000  177.1570  138.1910 C   0  0  0  0  0  0  0  0  0  0  0  0
  187.4980  176.1270  136.2550 C   0  0  0  0  0  3  0  0  0  0  0  0
  186.8330  177.8040  137.7640 C   0  0  0  0  0  2  0  0  0  0  0  0
  190.7140  176.0580  138.3590 C   0  0  0  0  0  0  0  0  0  0  0  0
  188.4640  176.2220  137.3350 C   0  0  0  0  0  0  0  0  0  0  0  0
  191.8740  175.6920  138.2730 O   0  0  0  0  0  0  0  0  0  0  0  0
  185.3860  177.2630  135.6190 C   0  0  0  0  0  2  0  0  0  0  0  0
  183.0520  177.3670  136.1080 O   0  0  0  0  0  1  0  0  0  0  0  0
  184.1660  176.5270  136.1510 C   0  0  1  0  0  3  0  0  0  0  0  0
  183.9130  175.2970  135.2960 C   0  0  0  0  0  2  0  0  0  0  0  0
  184.1460  174.0470  136.0800 C   0  0  0  0  0  0  0  0  0  0  0  0
  183.9330  172.9560  135.5740 O   0  0  0  0  0  0  0  0  0  0  0  0
  184.6050  174.1380  137.4970 C   0  0  0  0  0  2  0  0  0  0  0  0
  184.9370  172.8670  137.9670 O   0  0  0  0  0  1  0  0  0  0  0  0
  2  1  1  0  0  0  0
  3  2  1  0  0  0  0
  4  6  1  0  0  0  0
  4 10  1  1  0  0  0
  5  4  1  0  0  0  0
  7  3  1  6  0  0  0
  7  5  1  0  0  0  0
  8 14  1  6  0  0  0
  8  6  1  0  0  0  0
  9  7  1  0  0  0  0
  9  8  1  0  0  0  0
 11 12  1  0  0  0  0
 11 10  1  0  0  0  0
 11 13  1  0  0  0  0
 15 14  1  0  0  0  0
 16 15  1  0  0  0  0
 18 21  1  0  0  0  0
 19 20  1  0  0  0  0
 19 18  2  0  0  0  0
 20 22  2  0  0  0  0
 21 23  2  0  0  0  0
 21 17  1  0  0  0  0
 22 23  1  0  0  0  0
 23 16  1  0  0  0  0
 24 19  1  0  0  0  0
 25  1  1  0  0  0  0
 26 25  1  0  0  0  0
 28 27  2  0  0  0  0
 28 26  1  0  0  0  0
 30 35  1  0  0  0  0
 31 29  1  0  0  0  0
 31 28  1  1  0  0  0
 32 36  1  0  0  0  0
 33 29  1  0  0  0  0
 34 30  2  0  0  0  0
 34 37  1  0  0  0  0
 35 33  1  0  0  0  0
 36 31  1  0  0  0  0
 37 32  1  0  0  0  0
 37 33  2  0  0  0  0
 38 36  2  0  0  0  0
 39 41  1  0  0  0  0
 39 30  1  0  0  0  0
 41 40  1  6  0  0  0
 42 43  1  0  0  0  0
 42 41  1  0  0  0  0
 43 45  1  0  0  0  0
 44 43  2  0  0  0  0
 45 46  1  0  0  0  0
M  END
>  <MODEL>
7

>  <REMARK>
 VINA RESULT:      -7.2      3.126      8.262
  Name = 
  17 active torsions:
  status: ('A' for Active; 'I' for Inactive)
    1  A    between atoms: C_4  and  N_42
    2  A    between atoms: C_6  and  O_12
    3  A    between atoms: C_6  and  C_40
    4  A    between atoms: C_8  and  C_17
    5  A    between atoms: C_9  and  C_17
    6  A    between atoms: C_9  and  C_45
    7  A    between atoms: C_10  and  C_19
    8  A    between atoms: C_10  and  O_31
    9  A    between atoms: O_12  and  C_43
   10  A    between atoms: C_14  and  C_44
   11  A    between atoms: N_16  and  O_31
   12  A    between atoms: C_18  and  N_42
   13  A    between atoms: C_19  and  C_26
   14  A    between atoms: C_22  and  C_26
   15  A    between atoms: C_25  and  C_41
   16  A    between atoms: C_28  and  C_43
   17  A    between atoms: C_44  and  C_45
                            x       y       z     vdW  Elec       q    Type
                         _______ _______ _______ _____ _____    ______ ____

>  <TORSDO>
F 17

$$$$
=
 OpenBabel11062413233D

 46 49  0  0  1  0  0  0  0  0999 V2000
  190.4900  176.5330  143.1690 C   0  0  0  0  0  2  0  0  0  0  0  0
  190.8330  176.4080  141.7000 C   0  0  0  0  0  2  0  0  0  0  0  0
  190.0890  177.4750  140.9150 C   0  0  0  0  0  2  0  0  0  0  0  0
  190.7840  175.8680  137.7810 C   0  0  2  0  0  3  0  0  0  0  0  0
  190.1790  175.9580  139.0440 O   0  0  0  0  0  0  0  0  0  0  0  0
  189.6710  176.4910  136.4630 S   0  0  0  0  0  0  0  0  0  0  0  0
  190.2830  177.3100  139.4120 C   0  0  1  0  0  3  0  0  0  0  0  0
  188.5410  177.4170  137.5700 C   0  0  1  0  0  3  0  0  0  0  0  0
  189.3130  178.2060  138.6220 C   0  0  0  0  0  2  0  0  0  0  0  0
  191.1360  174.4840  137.5030 N   0  0  0  0  0  2  0  0  0  0  0  0
  192.3400  174.4950  136.6870 C   0  0  0  0  0  3  0  0  0  0  0  0
  192.7970  173.0710  136.4300 C   0  0  0  0  0  1  0  0  0  0  0  0
  193.4350  175.2460  137.4170 C   0  0  0  0  0  1  0  0  0  0  0  0
  187.6710  178.3640  136.7640 C   0  0  0  0  0  2  0  0  0  0  0  0
  186.7140  178.9520  137.5920 O   0  0  0  0  0  0  0  0  0  0  0  0
  185.9320  177.8870  138.0370 C   0  0  0  0  0  2  0  0  0  0  0  0
  183.6040  175.9440  137.3290 Cl  0  0  0  0  0  0  0  0  0  0  0  0
  182.1360  178.0460  138.2410 C   0  0  0  0  0  3  0  0  0  0  0  0
  181.9550  179.3260  138.7720 C   0  0  0  0  0  0  0  0  0  0  0  0
  183.0630  180.1260  139.0600 C   0  0  0  0  0  3  0  0  0  0  0  0
  183.4250  177.5580  138.0010 C   0  0  0  0  0  0  0  0  0  0  0  0
  184.3540  179.6450  138.8220 C   0  0  0  0  0  3  0  0  0  0  0  0
  184.5420  178.3600  138.3010 C   0  0  0  0  0  0  0  0  0  0  0  0
  180.3400  179.9290  139.0700 Cl  0  0  0  0  0  0  0  0  0  0  0  0
  190.2050  177.8670  143.4690 O   0  0  0  0  0  0  0  0  0  0  0  0
  188.8530  177.9290  143.5330 N   0  0  0  0  0  2  0  0  0  0  0  0
  188.7530  176.7890  145.5650 O   0  0  0  0  0  0  0  0  0  0  0  0
  188.1330  177.3470  144.6230 C   0  0  0  0  0  0  0  0  0  0  0  0
  186.1080  177.9290  143.3110 C   0  0  0  0  0  2  0  0  0  0  0  0
  182.4950  178.9070  143.0480 C   0  0  0  0  0  0  0  0  0  0  0  0
  186.6390  177.3990  144.6530 C   0  0  2  0  0  3  0  0  0  0  0  0
  184.9850  179.1570  145.7420 C   0  0  0  0  0  2  0  0  0  0  0  0
  184.6750  178.3360  143.4220 C   0  0  0  0  0  0  0  0  0  0  0  0
  182.7930  179.2720  144.2900 C   0  0  0  0  0  2  0  0  0  0  0  0
  183.6540  178.2700  142.3450 C   0  0  0  0  0  3  0  0  0  0  0  0
  186.1250  178.1730  145.8590 C   0  0  0  0  0  0  0  0  0  0  0  0
  184.1780  178.8960  144.5080 C   0  0  0  0  0  0  0  0  0  0  0  0
  186.6140  177.9730  146.9590 O   0  0  0  0  0  0  0  0  0  0  0  0
  181.1540  179.1200  142.4330 C   0  0  0  0  0  2  0  0  0  0  0  0
  179.5170  178.0910  143.8340 O   0  0  0  0  0  1  0  0  0  0  0  0
  180.2570  177.9130  142.6630 C   0  0  1  0  0  3  0  0  0  0  0  0
  179.3150  177.7590  141.4810 C   0  0  0  0  0  2  0  0  0  0  0  0
  179.3350  176.3570  140.9650 C   0  0  0  0  0  0  0  0  0  0  0  0
  179.0400  175.4280  141.7010 O   0  0  0  0  0  0  0  0  0  0  0  0
  179.7510  176.0940  139.5570 C   0  0  0  0  0  2  0  0  0  0  0  0
  180.0320  174.7370  139.3930 O   0  0  0  0  0  1  0  0  0  0  0  0
  1 25  1  0  0  0  0
  2  1  1  0  0  0  0
  3  2  1  0  0  0  0
  4 10  1  6  0  0  0
  4  5  1  0  0  0  0
  5  7  1  0  0  0  0
  6  8  1  0  0  0  0
  6  4  1  0  0  0  0
  7  3  1  1  0  0  0
  8 14  1  6  0  0  0
  8  9  1  0  0  0  0
  9  7  1  0  0  0  0
 11 13  1  0  0  0  0
 11 10  1  0  0  0  0
 12 11  1  0  0  0  0
 14 15  1  0  0  0  0
 15 16  1  0  0  0  0
 16 23  1  0  0  0  0
 17 21  1  0  0  0  0
 18 19  1  0  0  0  0
 19 20  2  0  0  0  0
 19 24  1  0  0  0  0
 21 18  2  0  0  0  0
 21 23  1  0  0  0  0
 22 20  1  0  0  0  0
 23 22  2  0  0  0  0
 25 26  1  0  0  0  0
 26 28  1  0  0  0  0
 28 27  2  0  0  0  0
 29 33  1  0  0  0  0
 29 31  1  0  0  0  0
 30 34  1  0  0  0  0
 31 28  1  6  0  0  0
 31 36  1  0  0  0  0
 32 36  1  0  0  0  0
 33 37  2  0  0  0  0
 34 37  1  0  0  0  0
 35 30  2  0  0  0  0
 35 33  1  0  0  0  0
 36 38  2  0  0  0  0
 37 32  1  0  0  0  0
 39 41  1  0  0  0  0
 39 30  1  0  0  0  0
 41 40  1  1  0  0  0
 42 41  1  0  0  0  0
 43 42  1  0  0  0  0
 43 44  2  0  0  0  0
 45 43  1  0  0  0  0
 46 45  1  0  0  0  0
M  END
>  <MODEL>
8

>  <REMARK>
 VINA RESULT:      -7.2      3.195      8.906
  Name = 
  17 active torsions:
  status: ('A' for Active; 'I' for Inactive)
    1  A    between atoms: C_4  and  N_42
    2  A    between atoms: C_6  and  O_12
    3  A    between atoms: C_6  and  C_40
    4  A    between atoms: C_8  and  C_17
    5  A    between atoms: C_9  and  C_17
    6  A    between atoms: C_9  and  C_45
    7  A    between atoms: C_10  and  C_19
    8  A    between atoms: C_10  and  O_31
    9  A    between atoms: O_12  and  C_43
   10  A    between atoms: C_14  and  C_44
   11  A    between atoms: N_16  and  O_31
   12  A    between atoms: C_18  and  N_42
   13  A    between atoms: C_19  and  C_26
   14  A    between atoms: C_22  and  C_26
   15  A    between atoms: C_25  and  C_41
   16  A    between atoms: C_28  and  C_43
   17  A    between atoms: C_44  and  C_45
                            x       y       z     vdW  Elec       q    Type
                         _______ _______ _______ _____ _____    ______ ____

>  <TORSDO>
F 17

$$$$
=
 OpenBabel11062413233D

 46 49  0  0  1  0  0  0  0  0999 V2000
  186.3740  179.0020  146.2500 C   0  0  0  0  0  2  0  0  0  0  0  0
  186.5980  177.5040  146.2560 C   0  0  0  0  0  2  0  0  0  0  0  0
  186.9330  177.0380  144.8490 C   0  0  0  0  0  2  0  0  0  0  0  0
  190.4190  177.8790  144.6980 C   0  0  2  0  0  3  0  0  0  0  0  0
  189.3430  176.9950  144.8650 O   0  0  0  0  0  0  0  0  0  0  0  0
  191.0200  177.8770  142.9650 S   0  0  0  0  0  0  0  0  0  0  0  0
  188.2250  177.6640  144.3370 C   0  0  1  0  0  3  0  0  0  0  0  0
  189.5260  177.1080  142.2310 C   0  0  1  0  0  3  0  0  0  0  0  0
  188.2490  177.7170  142.8000 C   0  0  0  0  0  2  0  0  0  0  0  0
  191.5060  177.5030  145.5880 N   0  0  0  0  0  2  0  0  0  0  0  0
  190.9490  176.6480  146.6240 C   0  0  0  0  0  3  0  0  0  0  0  0
  190.3390  177.5020  147.7190 C   0  0  0  0  0  1  0  0  0  0  0  0
  192.0490  175.7910  147.2140 C   0  0  0  0  0  1  0  0  0  0  0  0
  189.5370  177.2700  140.7230 C   0  0  0  0  0  2  0  0  0  0  0  0
  188.6790  178.3050  140.3500 O   0  0  0  0  0  0  0  0  0  0  0  0
  189.0610  178.6270  139.0470 C   0  0  0  0  0  2  0  0  0  0  0  0
  190.7300  176.7510  137.2060 Cl  0  0  0  0  0  0  0  0  0  0  0  0
  188.2430  176.1420  136.2860 C   0  0  0  0  0  3  0  0  0  0  0  0
  186.8490  176.2420  136.2470 C   0  0  0  0  0  0  0  0  0  0  0  0
  186.1860  177.1120  137.1150 C   0  0  0  0  0  3  0  0  0  0  0  0
  188.9790  176.9070  137.1960 C   0  0  0  0  0  0  0  0  0  0  0  0
  186.9160  177.8790  138.0270 C   0  0  0  0  0  3  0  0  0  0  0  0
  188.3110  177.7760  138.0780 C   0  0  0  0  0  0  0  0  0  0  0  0
  185.9350  175.2800  135.1060 Cl  0  0  0  0  0  0  0  0  0  0  0  0
  185.0330  179.2730  146.5310 O   0  0  0  0  0  0  0  0  0  0  0  0
  184.3360  178.5960  145.5860 N   0  0  0  0  0  2  0  0  0  0  0  0
  184.5590  180.2920  144.0000 O   0  0  0  0  0  0  0  0  0  0  0  0
  184.0950  179.1600  144.2940 C   0  0  0  0  0  0  0  0  0  0  0  0
  183.9820  178.4840  141.9080 C   0  0  0  0  0  2  0  0  0  0  0  0
  182.0950  177.3580  138.8670 C   0  0  0  0  0  0  0  0  0  0  0  0
  183.2940  178.4070  143.2810 C   0  0  2  0  0  3  0  0  0  0  0  0
  181.0970  179.0740  141.9620 C   0  0  0  0  0  2  0  0  0  0  0  0
  183.0520  178.0670  140.8160 C   0  0  0  0  0  0  0  0  0  0  0  0
  181.1350  177.9050  139.6040 C   0  0  0  0  0  2  0  0  0  0  0  0
  183.4300  177.3960  139.5460 C   0  0  0  0  0  3  0  0  0  0  0  0
  181.8400  178.8620  143.2580 C   0  0  0  0  0  0  0  0  0  0  0  0
  181.7620  178.3430  140.8370 C   0  0  0  0  0  0  0  0  0  0  0  0
  181.2420  179.0260  144.3090 O   0  0  0  0  0  0  0  0  0  0  0  0
  181.8580  176.7810  137.5130 C   0  0  0  0  0  2  0  0  0  0  0  0
  180.6300  174.7350  137.5710 O   0  0  0  0  0  1  0  0  0  0  0  0
  181.9230  175.2620  137.5550 C   0  0  1  0  0  3  0  0  0  0  0  0
  182.6640  174.7600  136.3280 C   0  0  0  0  0  2  0  0  0  0  0  0
  182.9840  173.3060  136.4580 C   0  0  0  0  0  0  0  0  0  0  0  0
  183.8490  172.9340  137.2370 O   0  0  0  0  0  0  0  0  0  0  0  0
  182.2670  172.3120  135.6080 C   0  0  0  0  0  2  0  0  0  0  0  0
  181.6360  171.3660  136.4160 O   0  0  0  0  0  1  0  0  0  0  0  0
  1  2  1  0  0  0  0
  1 25  1  0  0  0  0
  3  2  1  0  0  0  0
  4  5  1  0  0  0  0
  4 10  1  1  0  0  0
  6  4  1  0  0  0  0
  7  3  1  6  0  0  0
  7  5  1  0  0  0  0
  8 14  1  6  0  0  0
  8  9  1  0  0  0  0
  8  6  1  0  0  0  0
  9  7  1  0  0  0  0
 10 11  1  0  0  0  0
 11 13  1  0  0  0  0
 11 12  1  0  0  0  0
 15 14  1  0  0  0  0
 16 15  1  0  0  0  0
 18 21  1  0  0  0  0
 19 18  2  0  0  0  0
 19 20  1  0  0  0  0
 20 22  2  0  0  0  0
 21 17  1  0  0  0  0
 21 23  2  0  0  0  0
 22 23  1  0  0  0  0
 23 16  1  0  0  0  0
 24 19  1  0  0  0  0
 26 25  1  0  0  0  0
 27 28  2  0  0  0  0
 28 26  1  0  0  0  0
 29 31  1  0  0  0  0
 30 35  2  0  0  0  0
 30 34  1  0  0  0  0
 31 28  1  1  0  0  0
 32 36  1  0  0  0  0
 33 37  2  0  0  0  0
 33 29  1  0  0  0  0
 34 37  1  0  0  0  0
 35 33  1  0  0  0  0
 36 31  1  0  0  0  0
 36 38  2  0  0  0  0
 37 32  1  0  0  0  0
 39 41  1  0  0  0  0
 39 30  1  0  0  0  0
 41 40  1  6  0  0  0
 42 43  1  0  0  0  0
 42 41  1  0  0  0  0
 43 44  2  0  0  0  0
 45 46  1  0  0  0  0
 45 43  1  0  0  0  0
M  END
>  <MODEL>
9

>  <REMARK>
 VINA RESULT:      -7.2      3.876     10.309
  Name = 
  17 active torsions:
  status: ('A' for Active; 'I' for Inactive)
    1  A    between atoms: C_4  and  N_42
    2  A    between atoms: C_6  and  O_12
    3  A    between atoms: C_6  and  C_40
    4  A    between atoms: C_8  and  C_17
    5  A    between atoms: C_9  and  C_17
    6  A    between atoms: C_9  and  C_45
    7  A    between atoms: C_10  and  C_19
    8  A    between atoms: C_10  and  O_31
    9  A    between atoms: O_12  and  C_43
   10  A    between atoms: C_14  and  C_44
   11  A    between atoms: N_16  and  O_31
   12  A    between atoms: C_18  and  N_42
   13  A    between atoms: C_19  and  C_26
   14  A    between atoms: C_22  and  C_26
   15  A    between atoms: C_25  and  C_41
   16  A    between atoms: C_28  and  C_43
   17  A    between atoms: C_44  and  C_45
                            x       y       z     vdW  Elec       q    Type
                         _______ _______ _______ _____ _____    ______ ____

>  <TORSDO>
F 17

$$$$
