=
 OpenBabel11062415333D

 35 40  0  0  1  0  0  0  0  0999 V2000
  188.2970  176.5050  144.0590 C   0  0  0  0  0  2  0  0  0  0  0  0
  186.1680  178.6250  144.9910 C   0  0  2  0  0  3  0  0  0  0  0  0
  188.9890  178.2620  148.5260 C   0  0  0  0  0  3  0  0  0  0  0  0
  188.9040  177.1260  146.5880 C   0  0  0  0  0  0  0  0  0  0  0  0
  185.7210  177.2700  145.2530 O   0  0  0  0  0  0  0  0  0  0  0  0
  190.2210  177.7780  148.2290 O   0  0  0  0  0  0  0  0  0  0  0  0
  190.1990  177.1520  147.0710 C   0  0  0  0  0  3  0  0  0  0  0  0
  186.8510  178.1500  147.2720 C   0  0  0  0  0  2  0  0  0  0  0  0
  188.2320  177.8410  147.5880 C   0  0  0  0  0  0  0  0  0  0  0  0
  188.2600  177.3900  145.2790 C   0  0  2  0  0  3  0  0  0  0  0  0
  186.9180  177.7030  145.8320 C   0  0  2  0  0  0  0  0  0  0  0  0
  184.8730  179.1040  144.2070 C   0  0  1  0  0  3  0  0  0  0  0  0
  184.8400  178.4900  142.8490 C   0  0  2  0  0  3  0  0  0  0  0  0
  185.9520  178.8560  142.0540 O   0  0  0  0  0  1  0  0  0  0  0  0
  182.3350  178.5950  143.0260 C   0  0  0  0  0  2  0  0  0  0  0  0
  183.7800  179.2740  145.0630 O   0  0  0  0  0  0  0  0  0  0  0  0
  183.5330  178.9320  142.1580 C   0  0  0  0  0  2  0  0  0  0  0  0
  182.4560  179.2330  144.3900 C   0  0  0  0  0  2  0  0  0  0  0  0
  190.5520  176.9730  141.1880 N   0  0  0  0  0  0  0  0  0  0  0  0
  191.2980  177.7570  143.4600 C   0  0  0  0  0  2  0  0  0  0  0  0
  189.2350  176.6190  141.6040 C   0  0  0  0  0  2  0  0  0  0  0  0
  189.9310  178.3450  143.4360 C   0  0  0  0  0  2  0  0  0  0  0  0
  188.8730  177.3480  142.9250 C   0  0  2  0  0  3  0  0  0  0  0  0
  191.6690  177.0460  142.1780 C   0  0  0  0  0  2  0  0  0  0  0  0
  191.2400  176.7520  138.9460 O   0  0  0  0  0  1  0  0  0  0  0  0
  190.7310  177.6370  139.8890 C   0  0  1  0  0  3  0  0  0  0  0  0
  189.3770  178.2510  139.4440 C   0  0  0  0  0  2  0  0  0  0  0  0
  189.2120  178.2760  137.9110 C   0  0  0  0  0  2  0  0  0  0  0  0
  185.6020  177.9890  137.7150 C   0  0  2  0  0  3  0  0  0  0  0  0
  187.3490  177.0070  136.5810 C   0  0  1  0  0  3  0  0  0  0  0  0
  184.3450  178.0450  138.6220 C   0  0  0  0  0  1  0  0  0  0  0  0
  188.3220  175.8480  136.7530 C   0  0  0  0  0  1  0  0  0  0  0  0
  186.0010  176.6370  137.1440 C   0  0  0  0  0  2  0  0  0  0  0  0
  186.7710  178.5030  138.3780 N   0  0  0  0  0  2  0  0  0  0  0  0
  187.7870  178.2640  137.3610 C   0  0  1  0  0  3  0  0  0  0  0  0
  2  5  1  6  0  0  0
  2 11  1  0  0  0  0
  4  7  2  0  0  0  0
  4  9  1  0  0  0  0
  5 11  1  0  0  0  0
  6  3  1  0  0  0  0
  7  6  1  0  0  0  0
  8  9  1  0  0  0  0
  9  3  2  0  0  0  0
 10  1  1  6  0  0  0
 10 11  1  0  0  0  0
 10  4  1  0  0  0  0
 11  8  1  1  0  0  0
 12  2  1  0  0  0  0
 12 16  1  1  0  0  0
 13 14  1  6  0  0  0
 13 12  1  0  0  0  0
 15 18  1  0  0  0  0
 17 13  1  0  0  0  0
 17 15  1  0  0  0  0
 18 16  1  0  0  0  0
 19 21  1  0  0  0  0
 19 24  1  0  0  0  0
 21 23  1  0  0  0  0
 22 20  1  0  0  0  0
 23 22  1  0  0  0  0
 23  1  1  1  0  0  0
 24 20  1  0  0  0  0
 26 25  1  6  0  0  0
 26 19  1  0  0  0  0
 27 26  1  0  0  0  0
 28 27  1  0  0  0  0
 29 34  1  0  0  0  0
 29 31  1  1  0  0  0
 30 32  1  1  0  0  0
 30 33  1  0  0  0  0
 30 35  1  0  0  0  0
 33 29  1  0  0  0  0
 35 28  1  1  0  0  0
 35 34  1  0  0  0  0
M  END
>  <MODEL>
1

>  <REMARK>
 VINA RESULT:      -9.3      0.000      0.000
  Name = 
  7 active torsions:
  status: ('A' for Active; 'I' for Inactive)
    1  A    between atoms: C_1  and  C_8
    2  A    between atoms: N_2  and  C_34
    3  A    between atoms: C_22  and  C_25
    4  A    between atoms: C_25  and  C_27
    5  A    between atoms: C_32  and  C_33
    6  A    between atoms: C_32  and  C_34
    7  A    between atoms: C_33  and  C_35
                            x       y       z     vdW  Elec       q    Type
                         _______ _______ _______ _____ _____    ______ ____

>  <TORSDO>
F 7

$$$$
=
 OpenBabel11062415333D

 35 40  0  0  1  0  0  0  0  0999 V2000
  189.2170  178.2790  138.9610 C   0  0  0  0  0  2  0  0  0  0  0  0
  186.2920  177.8900  137.8700 C   0  0  2  0  0  3  0  0  0  0  0  0
  188.9320  176.1900  134.5950 C   0  0  0  0  0  3  0  0  0  0  0  0
  189.4570  177.2540  136.5030 C   0  0  0  0  0  0  0  0  0  0  0  0
  186.8080  179.2090  137.5530 O   0  0  0  0  0  0  0  0  0  0  0  0
  190.1750  175.8210  134.9940 O   0  0  0  0  0  0  0  0  0  0  0  0
  190.4790  176.3970  136.1380 C   0  0  0  0  0  3  0  0  0  0  0  0
  187.2620  177.6880  135.6520 C   0  0  0  0  0  2  0  0  0  0  0  0
  188.5490  177.0500  135.4560 C   0  0  0  0  0  0  0  0  0  0  0  0
  188.7090  177.5340  137.7530 C   0  0  2  0  0  3  0  0  0  0  0  0
  187.5050  178.0890  137.0880 C   0  0  2  0  0  0  0  0  0  0  0  0
  184.9370  178.3730  138.5410 C   0  0  1  0  0  3  0  0  0  0  0  0
  183.8430  177.4070  138.2400 C   0  0  2  0  0  3  0  0  0  0  0  0
  183.5860  177.2830  136.8540 O   0  0  0  0  0  1  0  0  0  0  0  0
  182.8470  178.0740  140.4480 C   0  0  0  0  0  2  0  0  0  0  0  0
  185.1620  179.0090  139.7660 O   0  0  0  0  0  0  0  0  0  0  0  0
  182.5700  177.8850  138.9680 C   0  0  0  0  0  2  0  0  0  0  0  0
  183.9830  179.0460  140.6690 C   0  0  0  0  0  2  0  0  0  0  0  0
  190.1210  177.3170  142.3970 N   0  0  0  0  0  0  0  0  0  0  0  0
  191.9360  177.4760  140.6610 C   0  0  0  0  0  2  0  0  0  0  0  0
  189.0510  177.5380  141.4800 C   0  0  0  0  0  2  0  0  0  0  0  0
  190.9410  176.6720  139.9000 C   0  0  0  0  0  2  0  0  0  0  0  0
  189.5120  177.2310  140.0300 C   0  0  2  0  0  3  0  0  0  0  0  0
  191.5050  177.7800  142.0790 C   0  0  0  0  0  2  0  0  0  0  0  0
  190.4830  175.0840  143.0550 O   0  0  0  0  0  1  0  0  0  0  0  0
  189.9520  176.3060  143.4510 C   0  0  1  0  0  3  0  0  0  0  0  0
  190.5980  176.8280  144.7620 C   0  0  0  0  0  2  0  0  0  0  0  0
  189.7290  177.8880  145.4700 C   0  0  0  0  0  2  0  0  0  0  0  0
  186.1240  178.0790  145.8170 C   0  0  2  0  0  3  0  0  0  0  0  0
  187.8440  177.5620  147.2570 C   0  0  1  0  0  3  0  0  0  0  0  0
  184.9100  178.8800  145.2790 C   0  0  0  0  0  1  0  0  0  0  0  0
  188.8590  178.2800  148.1380 C   0  0  0  0  0  1  0  0  0  0  0  0
  186.5360  178.3100  147.2630 C   0  0  0  0  0  2  0  0  0  0  0  0
  187.3070  178.2930  145.0260 N   0  0  0  0  0  2  0  0  0  0  0  0
  188.2810  177.5120  145.7780 C   0  0  1  0  0  3  0  0  0  0  0  0
  2  5  1  1  0  0  0
  2 12  1  0  0  0  0
  3  6  1  0  0  0  0
  3  9  2  0  0  0  0
  4 10  1  0  0  0  0
  6  7  1  0  0  0  0
  7  4  2  0  0  0  0
  9  8  1  0  0  0  0
  9  4  1  0  0  0  0
 10  1  1  1  0  0  0
 11  8  1  6  0  0  0
 11  5  1  0  0  0  0
 11 10  1  0  0  0  0
 11  2  1  0  0  0  0
 12 16  1  1  0  0  0
 13 14  1  6  0  0  0
 13 12  1  0  0  0  0
 13 17  1  0  0  0  0
 15 18  1  0  0  0  0
 16 18  1  0  0  0  0
 17 15  1  0  0  0  0
 19 26  1  0  0  0  0
 20 24  1  0  0  0  0
 21 19  1  0  0  0  0
 22 23  1  0  0  0  0
 22 20  1  0  0  0  0
 23  1  1  6  0  0  0
 23 21  1  0  0  0  0
 24 19  1  0  0  0  0
 26 25  1  6  0  0  0
 26 27  1  0  0  0  0
 27 28  1  0  0  0  0
 29 31  1  6  0  0  0
 29 33  1  0  0  0  0
 30 33  1  0  0  0  0
 30 32  1  1  0  0  0
 34 35  1  0  0  0  0
 34 29  1  0  0  0  0
 35 28  1  1  0  0  0
 35 30  1  0  0  0  0
M  END
>  <MODEL>
2

>  <REMARK>
 VINA RESULT:      -8.7      2.414      7.678
  Name = 
  7 active torsions:
  status: ('A' for Active; 'I' for Inactive)
    1  A    between atoms: C_1  and  C_8
    2  A    between atoms: N_2  and  C_34
    3  A    between atoms: C_22  and  C_25
    4  A    between atoms: C_25  and  C_27
    5  A    between atoms: C_32  and  C_33
    6  A    between atoms: C_32  and  C_34
    7  A    between atoms: C_33  and  C_35
                            x       y       z     vdW  Elec       q    Type
                         _______ _______ _______ _____ _____    ______ ____

>  <TORSDO>
F 7

$$$$
=
 OpenBabel11062415333D

 35 40  0  0  1  0  0  0  0  0999 V2000
  188.1540  176.5530  144.1000 C   0  0  0  0  0  2  0  0  0  0  0  0
  185.9290  178.7200  144.6000 C   0  0  2  0  0  3  0  0  0  0  0  0
  188.1960  178.5320  148.5260 C   0  0  0  0  0  3  0  0  0  0  0  0
  188.3870  177.3000  146.6560 C   0  0  0  0  0  0  0  0  0  0  0  0
  185.4360  177.3810  144.8610 O   0  0  0  0  0  0  0  0  0  0  0  0
  189.4540  178.0320  148.4390 O   0  0  0  0  0  0  0  0  0  0  0  0
  189.5980  177.3480  147.3220 C   0  0  0  0  0  3  0  0  0  0  0  0
  186.2650  178.3600  146.9790 C   0  0  0  0  0  2  0  0  0  0  0  0
  187.5820  178.0650  147.5100 C   0  0  0  0  0  0  0  0  0  0  0  0
  187.9450  177.4980  145.2550 C   0  0  2  0  0  3  0  0  0  0  0  0
  186.5400  177.8400  145.5880 C   0  0  2  0  0  0  0  0  0  0  0  0
  184.7680  179.1600  143.6120 C   0  0  1  0  0  3  0  0  0  0  0  0
  185.0340  178.6360  142.2430 C   0  0  2  0  0  3  0  0  0  0  0  0
  186.2420  179.1270  141.6920 O   0  0  0  0  0  1  0  0  0  0  0  0
  182.5400  178.5600  141.9480 C   0  0  0  0  0  2  0  0  0  0  0  0
  183.5260  179.2000  144.2530 O   0  0  0  0  0  0  0  0  0  0  0  0
  183.8470  179.0330  141.3400 C   0  0  0  0  0  2  0  0  0  0  0  0
  182.3560  179.1130  143.3420 C   0  0  0  0  0  2  0  0  0  0  0  0
  190.8860  176.8360  141.6500 N   0  0  0  0  0  0  0  0  0  0  0  0
  191.2330  177.7470  143.9690 C   0  0  0  0  0  2  0  0  0  0  0  0
  189.5100  176.5160  141.8450 C   0  0  0  0  0  2  0  0  0  0  0  0
  189.9020  178.3420  143.6710 C   0  0  0  0  0  2  0  0  0  0  0  0
  188.9340  177.3240  143.0390 C   0  0  2  0  0  3  0  0  0  0  0  0
  191.8120  176.9600  142.8150 C   0  0  0  0  0  2  0  0  0  0  0  0
  192.6830  177.5510  140.3050 O   0  0  0  0  0  1  0  0  0  0  0  0
  191.3000  177.4220  140.3670 C   0  0  1  0  0  3  0  0  0  0  0  0
  190.7410  176.5540  139.2090 C   0  0  0  0  0  2  0  0  0  0  0  0
  191.6440  176.5800  137.9580 C   0  0  0  0  0  2  0  0  0  0  0  0
  190.1230  173.8760  136.0800 C   0  0  2  0  0  3  0  0  0  0  0  0
  192.2960  174.5260  136.4730 C   0  0  1  0  0  3  0  0  0  0  0  0
  188.8880  172.9390  136.1170 C   0  0  0  0  0  1  0  0  0  0  0  0
  193.3650  174.3670  137.5460 C   0  0  0  0  0  1  0  0  0  0  0  0
  191.4850  173.2610  136.3630 C   0  0  0  0  0  2  0  0  0  0  0  0
  189.9880  174.9840  136.9890 N   0  0  0  0  0  2  0  0  0  0  0  0
  191.2800  175.6360  136.8140 C   0  0  1  0  0  3  0  0  0  0  0  0
  2  5  1  6  0  0  0
  2 11  1  0  0  0  0
  4  7  2  0  0  0  0
  4  9  1  0  0  0  0
  5 11  1  0  0  0  0
  6  3  1  0  0  0  0
  7  6  1  0  0  0  0
  8  9  1  0  0  0  0
  9  3  2  0  0  0  0
 10  1  1  6  0  0  0
 10 11  1  0  0  0  0
 10  4  1  0  0  0  0
 11  8  1  1  0  0  0
 12 16  1  1  0  0  0
 12  2  1  0  0  0  0
 13 14  1  6  0  0  0
 13 12  1  0  0  0  0
 15 18  1  0  0  0  0
 17 15  1  0  0  0  0
 17 13  1  0  0  0  0
 18 16  1  0  0  0  0
 19 21  1  0  0  0  0
 19 24  1  0  0  0  0
 21 23  1  0  0  0  0
 22 20  1  0  0  0  0
 23 22  1  0  0  0  0
 23  1  1  1  0  0  0
 24 20  1  0  0  0  0
 26 25  1  1  0  0  0
 26 19  1  0  0  0  0
 27 26  1  0  0  0  0
 28 27  1  0  0  0  0
 29 31  1  1  0  0  0
 29 33  1  0  0  0  0
 29 34  1  0  0  0  0
 30 35  1  0  0  0  0
 30 32  1  1  0  0  0
 33 30  1  0  0  0  0
 35 34  1  0  0  0  0
 35 28  1  1  0  0  0
M  END
>  <MODEL>
3

>  <REMARK>
 VINA RESULT:      -8.6      1.999      2.762
  Name = 
  7 active torsions:
  status: ('A' for Active; 'I' for Inactive)
    1  A    between atoms: C_1  and  C_8
    2  A    between atoms: N_2  and  C_34
    3  A    between atoms: C_22  and  C_25
    4  A    between atoms: C_25  and  C_27
    5  A    between atoms: C_32  and  C_33
    6  A    between atoms: C_32  and  C_34
    7  A    between atoms: C_33  and  C_35
                            x       y       z     vdW  Elec       q    Type
                         _______ _______ _______ _____ _____    ______ ____

>  <TORSDO>
F 7

$$$$
=
 OpenBabel11062415333D

 35 40  0  0  1  0  0  0  0  0999 V2000
  186.7080  178.4100  137.6830 C   0  0  0  0  0  2  0  0  0  0  0  0
  184.2700  178.2760  139.6680 C   0  0  2  0  0  3  0  0  0  0  0  0
  182.7530  176.2350  135.9100 C   0  0  0  0  0  3  0  0  0  0  0  0
  184.6890  177.2970  136.3280 C   0  0  0  0  0  0  0  0  0  0  0  0
  184.2930  179.5290  138.9350 O   0  0  0  0  0  0  0  0  0  0  0  0
  183.7200  175.7580  135.0860 O   0  0  0  0  0  0  0  0  0  0  0  0
  184.8730  176.3350  135.3520 C   0  0  0  0  0  3  0  0  0  0  0  0
  182.8510  177.9170  137.7300 C   0  0  0  0  0  2  0  0  0  0  0  0
  183.3210  177.1520  136.5920 C   0  0  0  0  0  0  0  0  0  0  0  0
  185.3910  177.6830  137.5750 C   0  0  2  0  0  3  0  0  0  0  0  0
  184.2200  178.3330  138.2130 C   0  0  2  0  0  0  0  0  0  0  0  0
  184.1710  178.9070  141.1210 C   0  0  1  0  0  3  0  0  0  0  0  0
  182.9540  178.4010  141.8170 C   0  0  2  0  0  3  0  0  0  0  0  0
  181.7560  178.7400  141.1460 O   0  0  0  0  0  1  0  0  0  0  0  0
  184.2450  178.6790  143.9550 C   0  0  0  0  0  2  0  0  0  0  0  0
  185.4320  179.0940  141.6940 O   0  0  0  0  0  0  0  0  0  0  0  0
  182.9410  178.9890  143.2430 C   0  0  0  0  0  2  0  0  0  0  0  0
  185.4280  179.2020  143.1750 C   0  0  0  0  0  2  0  0  0  0  0  0
  189.9550  177.6750  139.2520 N   0  0  0  0  0  0  0  0  0  0  0  0
  189.3950  176.5920  137.0500 C   0  0  0  0  0  2  0  0  0  0  0  0
  188.6720  178.2710  139.4280 C   0  0  0  0  0  2  0  0  0  0  0  0
  188.1320  176.3130  137.7870 C   0  0  0  0  0  2  0  0  0  0  0  0
  187.6150  177.5450  138.5530 C   0  0  2  0  0  3  0  0  0  0  0  0
  190.4380  177.2950  137.8900 C   0  0  0  0  0  2  0  0  0  0  0  0
  191.9900  177.3390  140.3890 O   0  0  0  0  0  1  0  0  0  0  0  0
  190.6250  177.0810  140.4170 C   0  0  1  0  0  3  0  0  0  0  0  0
  189.9550  177.6110  141.7120 C   0  0  0  0  0  2  0  0  0  0  0  0
  190.0520  176.6120  142.8830 C   0  0  0  0  0  2  0  0  0  0  0  0
  191.4830  176.6970  146.2150 C   0  0  2  0  0  3  0  0  0  0  0  0
  189.6360  177.6700  145.2410 C   0  0  1  0  0  3  0  0  0  0  0  0
  192.2580  175.7940  147.2080 C   0  0  0  0  0  1  0  0  0  0  0  0
  188.1940  177.3120  144.9050 C   0  0  0  0  0  1  0  0  0  0  0  0
  190.0350  177.0290  146.5450 C   0  0  0  0  0  2  0  0  0  0  0  0
  191.4730  176.1520  144.8830 N   0  0  0  0  0  2  0  0  0  0  0  0
  190.6350  177.1280  144.1970 C   0  0  1  0  0  3  0  0  0  0  0  0
  2  5  1  6  0  0  0
  2 12  1  0  0  0  0
  3  9  2  0  0  0  0
  4  9  1  0  0  0  0
  4 10  1  0  0  0  0
  6  7  1  0  0  0  0
  6  3  1  0  0  0  0
  7  4  2  0  0  0  0
  9  8  1  0  0  0  0
 10  1  1  6  0  0  0
 10 11  1  0  0  0  0
 11  8  1  6  0  0  0
 11  5  1  0  0  0  0
 11  2  1  0  0  0  0
 12 16  1  1  0  0  0
 12 13  1  0  0  0  0
 13 14  1  6  0  0  0
 13 17  1  0  0  0  0
 16 18  1  0  0  0  0
 17 15  1  0  0  0  0
 18 15  1  0  0  0  0
 19 21  1  0  0  0  0
 19 26  1  0  0  0  0
 20 22  1  0  0  0  0
 20 24  1  0  0  0  0
 22 23  1  0  0  0  0
 23  1  1  6  0  0  0
 23 21  1  0  0  0  0
 24 19  1  0  0  0  0
 26 25  1  1  0  0  0
 26 27  1  0  0  0  0
 27 28  1  0  0  0  0
 29 33  1  0  0  0  0
 29 31  1  1  0  0  0
 30 32  1  6  0  0  0
 30 33  1  0  0  0  0
 34 29  1  0  0  0  0
 35 28  1  6  0  0  0
 35 34  1  0  0  0  0
 35 30  1  0  0  0  0
M  END
>  <MODEL>
4

>  <REMARK>
 VINA RESULT:      -8.2      2.257      7.732
  Name = 
  7 active torsions:
  status: ('A' for Active; 'I' for Inactive)
    1  A    between atoms: C_1  and  C_8
    2  A    between atoms: N_2  and  C_34
    3  A    between atoms: C_22  and  C_25
    4  A    between atoms: C_25  and  C_27
    5  A    between atoms: C_32  and  C_33
    6  A    between atoms: C_32  and  C_34
    7  A    between atoms: C_33  and  C_35
                            x       y       z     vdW  Elec       q    Type
                         _______ _______ _______ _____ _____    ______ ____

>  <TORSDO>
F 7

$$$$
=
 OpenBabel11062415333D

 35 40  0  0  1  0  0  0  0  0999 V2000
  189.4620  177.4760  138.8180 C   0  0  0  0  0  2  0  0  0  0  0  0
  188.8740  174.8710  137.1540 C   0  0  2  0  0  3  0  0  0  0  0  0
  193.3970  175.2230  137.0990 C   0  0  0  0  0  3  0  0  0  0  0  0
  191.8240  176.6040  137.9170 C   0  0  0  0  0  0  0  0  0  0  0  0
  188.8070  176.0600  136.3250 O   0  0  0  0  0  0  0  0  0  0  0  0
  193.9270  175.9730  138.0970 O   0  0  0  0  0  0  0  0  0  0  0  0
  193.0040  176.7530  138.6220 C   0  0  0  0  0  3  0  0  0  0  0  0
  191.0910  175.1140  136.1930 C   0  0  0  0  0  2  0  0  0  0  0  0
  192.1930  175.6300  136.9800 C   0  0  0  0  0  0  0  0  0  0  0  0
  190.3960  176.4240  138.2750 C   0  0  2  0  0  3  0  0  0  0  0  0
  190.0010  175.7810  136.9970 C   0  0  2  0  0  0  0  0  0  0  0  0
  187.4560  174.2790  136.7540 C   0  0  1  0  0  3  0  0  0  0  0  0
  187.4560  172.7980  136.9130 C   0  0  2  0  0  3  0  0  0  0  0  0
  188.4100  172.1570  136.0880 O   0  0  0  0  0  1  0  0  0  0  0  0
  185.0030  173.0020  137.4170 C   0  0  0  0  0  2  0  0  0  0  0  0
  186.4150  175.1470  137.0980 O   0  0  0  0  0  0  0  0  0  0  0  0
  186.0410  172.2820  136.5770 C   0  0  0  0  0  2  0  0  0  0  0  0
  185.0850  174.4980  137.2190 C   0  0  0  0  0  2  0  0  0  0  0  0
  189.7780  176.5140  142.3560 N   0  0  0  0  0  0  0  0  0  0  0  0
  187.8170  177.9240  141.6500 C   0  0  0  0  0  2  0  0  0  0  0  0
  190.4240  176.5520  141.0860 C   0  0  0  0  0  2  0  0  0  0  0  0
  188.9130  178.6800  140.9840 C   0  0  0  0  0  2  0  0  0  0  0  0
  189.9030  177.7530  140.2520 C   0  0  2  0  0  3  0  0  0  0  0  0
  188.3070  176.7530  142.4710 C   0  0  0  0  0  2  0  0  0  0  0  0
  191.9430  176.7610  143.2500 O   0  0  0  0  0  1  0  0  0  0  0  0
  190.5970  176.6330  143.5710 C   0  0  1  0  0  3  0  0  0  0  0  0
  190.0810  177.8270  144.4160 C   0  0  0  0  0  2  0  0  0  0  0  0
  189.7810  177.4350  145.8770 C   0  0  0  0  0  2  0  0  0  0  0  0
  186.2290  178.0460  146.2820 C   0  0  2  0  0  3  0  0  0  0  0  0
  187.9410  177.5390  147.7360 C   0  0  1  0  0  3  0  0  0  0  0  0
  185.0830  178.8950  145.6730 C   0  0  0  0  0  1  0  0  0  0  0  0
  189.0550  178.2530  148.4910 C   0  0  0  0  0  1  0  0  0  0  0  0
  186.7170  178.4140  147.6760 C   0  0  0  0  0  2  0  0  0  0  0  0
  187.3970  178.0320  145.4420 N   0  0  0  0  0  2  0  0  0  0  0  0
  188.3150  177.2550  146.2660 C   0  0  1  0  0  3  0  0  0  0  0  0
  2  5  1  1  0  0  0
  3  6  1  0  0  0  0
  4 10  1  0  0  0  0
  4  7  2  0  0  0  0
  5 11  1  0  0  0  0
  6  7  1  0  0  0  0
  8  9  1  0  0  0  0
  9  3  2  0  0  0  0
  9  4  1  0  0  0  0
 10  1  1  6  0  0  0
 11  8  1  6  0  0  0
 11  2  1  0  0  0  0
 11 10  1  0  0  0  0
 12 13  1  0  0  0  0
 12 16  1  1  0  0  0
 12  2  1  0  0  0  0
 13 14  1  6  0  0  0
 16 18  1  0  0  0  0
 17 13  1  0  0  0  0
 17 15  1  0  0  0  0
 18 15  1  0  0  0  0
 19 24  1  0  0  0  0
 19 26  1  0  0  0  0
 20 24  1  0  0  0  0
 21 19  1  0  0  0  0
 22 20  1  0  0  0  0
 23  1  1  6  0  0  0
 23 22  1  0  0  0  0
 23 21  1  0  0  0  0
 26 25  1  6  0  0  0
 26 27  1  0  0  0  0
 27 28  1  0  0  0  0
 29 31  1  6  0  0  0
 29 33  1  0  0  0  0
 30 32  1  6  0  0  0
 33 30  1  0  0  0  0
 34 35  1  0  0  0  0
 34 29  1  0  0  0  0
 35 28  1  1  0  0  0
 35 30  1  0  0  0  0
M  END
>  <MODEL>
5

>  <REMARK>
 VINA RESULT:      -8.1      3.129      8.367
  Name = 
  7 active torsions:
  status: ('A' for Active; 'I' for Inactive)
    1  A    between atoms: C_1  and  C_8
    2  A    between atoms: N_2  and  C_34
    3  A    between atoms: C_22  and  C_25
    4  A    between atoms: C_25  and  C_27
    5  A    between atoms: C_32  and  C_33
    6  A    between atoms: C_32  and  C_34
    7  A    between atoms: C_33  and  C_35
                            x       y       z     vdW  Elec       q    Type
                         _______ _______ _______ _____ _____    ______ ____

>  <TORSDO>
F 7

$$$$
=
 OpenBabel11062415333D

 35 40  0  0  1  0  0  0  0  0999 V2000
  188.2420  178.5060  145.3380 C   0  0  0  0  0  2  0  0  0  0  0  0
  189.7900  177.4760  142.8000 C   0  0  2  0  0  3  0  0  0  0  0  0
  192.0550  175.6650  146.2900 C   0  0  0  0  0  3  0  0  0  0  0  0
  190.3390  177.1160  146.2440 C   0  0  0  0  0  0  0  0  0  0  0  0
  190.2620  178.7830  143.2180 O   0  0  0  0  0  0  0  0  0  0  0  0
  191.3490  175.5710  147.4450 O   0  0  0  0  0  0  0  0  0  0  0  0
  190.3100  176.3800  147.4130 C   0  0  0  0  0  3  0  0  0  0  0  0
  191.6810  177.0430  144.2620 C   0  0  0  0  0  2  0  0  0  0  0  0
  191.4820  176.5920  145.6250 C   0  0  0  0  0  0  0  0  0  0  0  0
  189.3480  177.4890  145.2060 C   0  0  2  0  0  3  0  0  0  0  0  0
  190.3390  177.7230  144.1270 C   0  0  2  0  0  0  0  0  0  0  0  0
  189.5150  177.8500  141.2820 C   0  0  1  0  0  3  0  0  0  0  0  0
  190.4840  177.1430  140.3970 C   0  0  2  0  0  3  0  0  0  0  0  0
  191.8280  177.4950  140.6630 O   0  0  0  0  0  1  0  0  0  0  0  0
  188.6760  177.1660  138.6520 C   0  0  0  0  0  2  0  0  0  0  0  0
  188.1520  178.0370  141.0310 O   0  0  0  0  0  0  0  0  0  0  0  0
  190.1320  177.4860  138.9350 C   0  0  0  0  0  2  0  0  0  0  0  0
  187.7620  177.9000  139.6050 C   0  0  0  0  0  2  0  0  0  0  0  0
  184.9210  178.8080  143.7810 N   0  0  0  0  0  0  0  0  0  0  0  0
  185.0690  178.2550  146.2310 C   0  0  0  0  0  2  0  0  0  0  0  0
  186.3250  178.7290  143.5490 C   0  0  0  0  0  2  0  0  0  0  0  0
  186.0530  177.2730  145.7000 C   0  0  0  0  0  2  0  0  0  0  0  0
  187.0100  177.9010  144.6690 C   0  0  2  0  0  3  0  0  0  0  0  0
  184.3880  179.0670  145.1520 C   0  0  0  0  0  2  0  0  0  0  0  0
  182.6920  178.6190  143.0430 O   0  0  0  0  0  1  0  0  0  0  0  0
  184.0050  178.2530  142.7740 C   0  0  1  0  0  3  0  0  0  0  0  0
  184.4640  178.7120  141.3640 C   0  0  0  0  0  2  0  0  0  0  0  0
  183.9360  177.7970  140.2410 C   0  0  0  0  0  2  0  0  0  0  0  0
  181.9640  180.2140  138.3910 C   0  0  2  0  0  3  0  0  0  0  0  0
  181.6370  178.0200  139.0090 C   0  0  1  0  0  3  0  0  0  0  0  0
  181.6760  181.7380  138.3410 C   0  0  0  0  0  1  0  0  0  0  0  0
  181.1600  177.2280  140.2190 C   0  0  0  0  0  1  0  0  0  0  0  0
  180.8540  179.3020  138.8920 C   0  0  0  0  0  2  0  0  0  0  0  0
  183.1220  179.9090  139.1900 N   0  0  0  0  0  2  0  0  0  0  0  0
  183.1130  178.4530  139.1330 C   0  0  1  0  0  3  0  0  0  0  0  0
  2  5  1  1  0  0  0
  2 11  1  0  0  0  0
  3  6  1  0  0  0  0
  4  7  2  0  0  0  0
  5 11  1  0  0  0  0
  7  6  1  0  0  0  0
  8  9  1  0  0  0  0
  9  4  1  0  0  0  0
  9  3  2  0  0  0  0
 10  1  1  1  0  0  0
 10  4  1  0  0  0  0
 11  8  1  1  0  0  0
 11 10  1  0  0  0  0
 12 16  1  6  0  0  0
 12  2  1  0  0  0  0
 13 14  1  1  0  0  0
 13 12  1  0  0  0  0
 15 17  1  0  0  0  0
 15 18  1  0  0  0  0
 17 13  1  0  0  0  0
 18 16  1  0  0  0  0
 19 24  1  0  0  0  0
 21 19  1  0  0  0  0
 21 23  1  0  0  0  0
 22 20  1  0  0  0  0
 23  1  1  1  0  0  0
 23 22  1  0  0  0  0
 24 20  1  0  0  0  0
 26 25  1  1  0  0  0
 26 19  1  0  0  0  0
 27 26  1  0  0  0  0
 28 27  1  0  0  0  0
 29 31  1  1  0  0  0
 29 33  1  0  0  0  0
 29 34  1  0  0  0  0
 30 35  1  0  0  0  0
 30 32  1  1  0  0  0
 33 30  1  0  0  0  0
 35 34  1  0  0  0  0
 35 28  1  1  0  0  0
M  END
>  <MODEL>
6

>  <REMARK>
 VINA RESULT:      -7.9      2.369      5.593
  Name = 
  7 active torsions:
  status: ('A' for Active; 'I' for Inactive)
    1  A    between atoms: C_1  and  C_8
    2  A    between atoms: N_2  and  C_34
    3  A    between atoms: C_22  and  C_25
    4  A    between atoms: C_25  and  C_27
    5  A    between atoms: C_32  and  C_33
    6  A    between atoms: C_32  and  C_34
    7  A    between atoms: C_33  and  C_35
                            x       y       z     vdW  Elec       q    Type
                         _______ _______ _______ _____ _____    ______ ____

>  <TORSDO>
F 7

$$$$
=
 OpenBabel11062415333D

 35 40  0  0  1  0  0  0  0  0999 V2000
  188.9980  178.4020  144.9210 C   0  0  0  0  0  2  0  0  0  0  0  0
  190.0010  176.5360  142.5940 C   0  0  2  0  0  3  0  0  0  0  0  0
  192.3640  175.1600  146.2150 C   0  0  0  0  0  3  0  0  0  0  0  0
  190.9290  176.8700  145.9580 C   0  0  0  0  0  0  0  0  0  0  0  0
  190.7390  177.7850  142.6320 O   0  0  0  0  0  0  0  0  0  0  0  0
  191.8110  175.4730  147.4140 O   0  0  0  0  0  0  0  0  0  0  0  0
  190.9300  176.4410  147.2720 C   0  0  0  0  0  3  0  0  0  0  0  0
  191.9660  176.0850  143.9480 C   0  0  0  0  0  2  0  0  0  0  0  0
  191.8740  176.0050  145.3930 C   0  0  0  0  0  0  0  0  0  0  0  0
  189.8880  177.1850  144.9510 C   0  0  2  0  0  3  0  0  0  0  0  0
  190.7530  176.9660  143.7660 C   0  0  2  0  0  0  0  0  0  0  0  0
  189.5960  176.6010  141.0610 C   0  0  1  0  0  3  0  0  0  0  0  0
  188.8200  177.8430  140.7880 C   0  0  2  0  0  3  0  0  0  0  0  0
  187.6160  177.9120  141.5270 O   0  0  0  0  0  1  0  0  0  0  0  0
  189.7900  177.7610  138.4710 C   0  0  0  0  0  2  0  0  0  0  0  0
  190.5820  176.0460  140.2390 O   0  0  0  0  0  0  0  0  0  0  0  0
  188.5110  177.8900  139.2770 C   0  0  0  0  0  2  0  0  0  0  0  0
  190.5300  176.4920  138.8230 C   0  0  0  0  0  2  0  0  0  0  0  0
  185.3840  178.9500  145.3510 N   0  0  0  0  0  0  0  0  0  0  0  0
  186.7580  178.2790  147.3490 C   0  0  0  0  0  2  0  0  0  0  0  0
  186.4490  178.8080  144.4130 C   0  0  0  0  0  2  0  0  0  0  0  0
  187.2460  177.2710  146.3680 C   0  0  0  0  0  2  0  0  0  0  0  0
  187.5610  177.8950  144.9950 C   0  0  2  0  0  3  0  0  0  0  0  0
  185.6700  179.1740  146.8000 C   0  0  0  0  0  2  0  0  0  0  0  0
  183.0800  179.0000  145.8370 O   0  0  0  0  0  1  0  0  0  0  0  0
  184.0410  178.4920  144.9710 C   0  0  1  0  0  3  0  0  0  0  0  0
  183.7670  178.8890  143.4960 C   0  0  0  0  0  2  0  0  0  0  0  0
  182.2620  179.0110  143.1840 C   0  0  0  0  0  2  0  0  0  0  0  0
  181.5860  178.7570  139.6290 C   0  0  2  0  0  3  0  0  0  0  0  0
  180.2790  178.6210  141.5200 C   0  0  1  0  0  3  0  0  0  0  0  0
  182.0740  179.3310  138.2730 C   0  0  0  0  0  1  0  0  0  0  0  0
  179.5680  179.5530  142.4920 C   0  0  0  0  0  1  0  0  0  0  0  0
  180.2130  179.1860  140.1240 C   0  0  0  0  0  2  0  0  0  0  0  0
  182.5040  179.0440  140.7000 N   0  0  0  0  0  2  0  0  0  0  0  0
  181.7830  178.4790  141.8340 C   0  0  1  0  0  3  0  0  0  0  0  0
  2  5  1  1  0  0  0
  2 11  1  0  0  0  0
  3  6  1  0  0  0  0
  4  7  2  0  0  0  0
  5 11  1  0  0  0  0
  7  6  1  0  0  0  0
  8  9  1  0  0  0  0
  9  4  1  0  0  0  0
  9  3  2  0  0  0  0
 10  1  1  1  0  0  0
 10  4  1  0  0  0  0
 11  8  1  1  0  0  0
 11 10  1  0  0  0  0
 12 16  1  6  0  0  0
 12  2  1  0  0  0  0
 13 12  1  0  0  0  0
 13 14  1  1  0  0  0
 15 18  1  0  0  0  0
 15 17  1  0  0  0  0
 17 13  1  0  0  0  0
 18 16  1  0  0  0  0
 19 24  1  0  0  0  0
 21 23  1  0  0  0  0
 21 19  1  0  0  0  0
 22 20  1  0  0  0  0
 23  1  1  1  0  0  0
 23 22  1  0  0  0  0
 24 20  1  0  0  0  0
 26 19  1  0  0  0  0
 26 25  1  1  0  0  0
 27 26  1  0  0  0  0
 28 27  1  0  0  0  0
 29 31  1  6  0  0  0
 29 33  1  0  0  0  0
 29 34  1  0  0  0  0
 30 35  1  0  0  0  0
 30 32  1  1  0  0  0
 33 30  1  0  0  0  0
 34 35  1  0  0  0  0
 35 28  1  1  0  0  0
M  END
>  <MODEL>
7

>  <REMARK>
 VINA RESULT:      -7.8      2.356      6.340
  Name = 
  7 active torsions:
  status: ('A' for Active; 'I' for Inactive)
    1  A    between atoms: C_1  and  C_8
    2  A    between atoms: N_2  and  C_34
    3  A    between atoms: C_22  and  C_25
    4  A    between atoms: C_25  and  C_27
    5  A    between atoms: C_32  and  C_33
    6  A    between atoms: C_32  and  C_34
    7  A    between atoms: C_33  and  C_35
                            x       y       z     vdW  Elec       q    Type
                         _______ _______ _______ _____ _____    ______ ____

>  <TORSDO>
F 7

$$$$
=
 OpenBabel11062415333D

 35 40  0  0  1  0  0  0  0  0999 V2000
  190.3220  177.3730  138.7760 C   0  0  0  0  0  2  0  0  0  0  0  0
  191.4850  175.1710  136.8540 C   0  0  2  0  0  3  0  0  0  0  0  0
  187.0900  175.3980  135.7480 C   0  0  0  0  0  3  0  0  0  0  0  0
  188.2510  176.4170  137.3800 C   0  0  0  0  0  0  0  0  0  0  0  0
  191.0970  174.6090  138.1350 O   0  0  0  0  0  0  0  0  0  0  0  0
  186.4720  176.5560  136.0900 O   0  0  0  0  0  0  0  0  0  0  0  0
  187.1670  177.1910  137.0110 C   0  0  0  0  0  3  0  0  0  0  0  0
  189.2070  174.3850  136.5520 C   0  0  0  0  0  2  0  0  0  0  0  0
  188.0940  175.3130  136.5330 C   0  0  0  0  0  0  0  0  0  0  0  0
  189.6970  176.6630  137.6030 C   0  0  2  0  0  3  0  0  0  0  0  0
  190.1250  175.2620  137.3690 C   0  0  2  0  0  0  0  0  0  0  0  0
  192.9620  174.5890  136.8310 C   0  0  1  0  0  3  0  0  0  0  0  0
  193.7630  175.1820  137.9390 C   0  0  2  0  0  3  0  0  0  0  0  0
  193.8800  176.5880  137.8400 O   0  0  0  0  0  1  0  0  0  0  0  0
  195.0490  173.0230  137.9630 C   0  0  0  0  0  2  0  0  0  0  0  0
  192.9890  173.2540  136.4150 O   0  0  0  0  0  0  0  0  0  0  0  0
  195.1630  174.5360  137.9130 C   0  0  0  0  0  2  0  0  0  0  0  0
  194.2040  172.5040  136.8240 C   0  0  0  0  0  2  0  0  0  0  0  0
  188.5710  178.4630  141.8240 N   0  0  0  0  0  0  0  0  0  0  0  0
  190.8370  177.3920  142.0420 C   0  0  0  0  0  2  0  0  0  0  0  0
  188.4590  178.2360  140.4210 C   0  0  0  0  0  2  0  0  0  0  0  0
  190.1930  176.4140  141.1230 C   0  0  0  0  0  2  0  0  0  0  0  0
  189.4230  177.1030  139.9800 C   0  0  2  0  0  3  0  0  0  0  0  0
  189.9100  178.5010  142.4860 C   0  0  0  0  0  2  0  0  0  0  0  0
  186.2220  178.3030  141.9080 O   0  0  0  0  0  1  0  0  0  0  0  0
  187.3840  178.2680  142.6690 C   0  0  1  0  0  3  0  0  0  0  0  0
  187.5310  176.9360  143.4510 C   0  0  0  0  0  2  0  0  0  0  0  0
  187.5430  177.1420  144.9790 C   0  0  0  0  0  2  0  0  0  0  0  0
  190.8380  176.9400  146.4820 C   0  0  2  0  0  3  0  0  0  0  0  0
  188.8430  177.8960  147.1220 C   0  0  1  0  0  3  0  0  0  0  0  0
  192.0530  175.9810  146.5790 C   0  0  0  0  0  1  0  0  0  0  0  0
  187.5370  177.4870  147.7920 C   0  0  0  0  0  1  0  0  0  0  0  0
  189.9930  177.1380  147.7320 C   0  0  0  0  0  2  0  0  0  0  0  0
  189.9230  176.5500  145.4410 N   0  0  0  0  0  2  0  0  0  0  0  0
  188.8700  177.5420  145.6200 C   0  0  1  0  0  3  0  0  0  0  0  0
  2 11  1  0  0  0  0
  2  5  1  1  0  0  0
  3  6  1  0  0  0  0
  3  9  2  0  0  0  0
  4 10  1  0  0  0  0
  6  7  1  0  0  0  0
  7  4  2  0  0  0  0
  9  8  1  0  0  0  0
  9  4  1  0  0  0  0
 10  1  1  1  0  0  0
 11  8  1  6  0  0  0
 11 10  1  0  0  0  0
 11  5  1  0  0  0  0
 12 16  1  1  0  0  0
 12  2  1  0  0  0  0
 12 13  1  0  0  0  0
 13 14  1  6  0  0  0
 16 18  1  0  0  0  0
 17 13  1  0  0  0  0
 17 15  1  0  0  0  0
 18 15  1  0  0  0  0
 19 24  1  0  0  0  0
 19 26  1  0  0  0  0
 20 24  1  0  0  0  0
 21 19  1  0  0  0  0
 22 20  1  0  0  0  0
 23  1  1  6  0  0  0
 23 21  1  0  0  0  0
 23 22  1  0  0  0  0
 26 25  1  6  0  0  0
 26 27  1  0  0  0  0
 27 28  1  0  0  0  0
 29 31  1  1  0  0  0
 29 33  1  0  0  0  0
 30 33  1  0  0  0  0
 30 32  1  1  0  0  0
 34 35  1  0  0  0  0
 34 29  1  0  0  0  0
 35 28  1  1  0  0  0
 35 30  1  0  0  0  0
M  END
>  <MODEL>
8

>  <REMARK>
 VINA RESULT:      -7.8      2.936      9.624
  Name = 
  7 active torsions:
  status: ('A' for Active; 'I' for Inactive)
    1  A    between atoms: C_1  and  C_8
    2  A    between atoms: N_2  and  C_34
    3  A    between atoms: C_22  and  C_25
    4  A    between atoms: C_25  and  C_27
    5  A    between atoms: C_32  and  C_33
    6  A    between atoms: C_32  and  C_34
    7  A    between atoms: C_33  and  C_35
                            x       y       z     vdW  Elec       q    Type
                         _______ _______ _______ _____ _____    ______ ____

>  <TORSDO>
F 7

$$$$
=
 OpenBabel11062415333D

 35 40  0  0  1  0  0  0  0  0999 V2000
  183.3420  179.1820  140.5700 C   0  0  0  0  0  2  0  0  0  0  0  0
  184.5530  178.2970  143.3360 C   0  0  2  0  0  3  0  0  0  0  0  0
  180.0670  178.2010  144.0100 C   0  0  0  0  0  3  0  0  0  0  0  0
  181.2740  178.8770  142.2390 C   0  0  0  0  0  0  0  0  0  0  0  0
  184.4700  179.7410  143.2280 O   0  0  0  0  0  0  0  0  0  0  0  0
  179.3200  178.0930  142.8820 O   0  0  0  0  0  0  0  0  0  0  0  0
  180.0300  178.4390  141.8280 C   0  0  0  0  0  3  0  0  0  0  0  0
  182.4240  178.8980  144.3390 C   0  0  0  0  0  2  0  0  0  0  0  0
  181.1790  178.6950  143.6250 C   0  0  0  0  0  0  0  0  0  0  0  0
  182.6730  178.6390  141.8080 C   0  0  2  0  0  3  0  0  0  0  0  0
  183.2940  178.9940  143.1080 C   0  0  2  0  0  0  0  0  0  0  0  0
  186.0860  178.2240  143.7410 C   0  0  1  0  0  3  0  0  0  0  0  0
  186.2240  177.7190  145.1360 C   0  0  2  0  0  3  0  0  0  0  0  0
  185.5930  178.5550  146.0870 O   0  0  0  0  0  1  0  0  0  0  0  0
  188.4280  176.7530  144.4100 C   0  0  0  0  0  2  0  0  0  0  0  0
  186.8950  177.8780  142.6540 O   0  0  0  0  0  0  0  0  0  0  0  0
  187.7290  177.6030  145.4550 C   0  0  0  0  0  2  0  0  0  0  0  0
  188.2200  177.3170  143.0240 C   0  0  0  0  0  2  0  0  0  0  0  0
  184.9750  177.6040  137.6740 N   0  0  0  0  0  0  0  0  0  0  0  0
  182.5220  177.1930  138.0600 C   0  0  0  0  0  2  0  0  0  0  0  0
  185.1740  178.3240  138.8880 C   0  0  0  0  0  2  0  0  0  0  0  0
  183.0320  176.9330  139.4350 C   0  0  0  0  0  2  0  0  0  0  0  0
  184.0390  178.0030  139.8970 C   0  0  2  0  0  3  0  0  0  0  0  0
  183.6160  177.5030  137.0620 C   0  0  0  0  0  2  0  0  0  0  0  0
  185.4250  175.4680  136.7890 O   0  0  0  0  0  1  0  0  0  0  0  0
  186.0040  176.6470  137.2420 C   0  0  1  0  0  3  0  0  0  0  0  0
  186.8950  177.3150  136.1610 C   0  0  0  0  0  2  0  0  0  0  0  0
  187.8930  178.3280  136.7580 C   0  0  0  0  0  2  0  0  0  0  0  0
  190.6980  176.1210  137.4070 C   0  0  2  0  0  3  0  0  0  0  0  0
  189.8060  177.9400  138.5020 C   0  0  1  0  0  3  0  0  0  0  0  0
  191.1270  174.6430  137.2170 C   0  0  0  0  0  1  0  0  0  0  0  0
  188.6790  178.2520  139.4790 C   0  0  0  0  0  1  0  0  0  0  0  0
  190.4080  176.5960  138.8230 C   0  0  0  0  0  2  0  0  0  0  0  0
  189.5320  176.4500  136.6290 N   0  0  0  0  0  2  0  0  0  0  0  0
  189.3080  177.8280  137.0460 C   0  0  1  0  0  3  0  0  0  0  0  0
  2  5  1  6  0  0  0
  2 12  1  0  0  0  0
  4  9  1  0  0  0  0
  6  3  1  0  0  0  0
  7  4  2  0  0  0  0
  7  6  1  0  0  0  0
  9  3  2  0  0  0  0
  9  8  1  0  0  0  0
 10  1  1  6  0  0  0
 10  4  1  0  0  0  0
 10 11  1  0  0  0  0
 11  5  1  0  0  0  0
 11  2  1  0  0  0  0
 11  8  1  1  0  0  0
 12 16  1  6  0  0  0
 12 13  1  0  0  0  0
 13 17  1  0  0  0  0
 13 14  1  1  0  0  0
 15 17  1  0  0  0  0
 16 18  1  0  0  0  0
 18 15  1  0  0  0  0
 19 21  1  0  0  0  0
 20 22  1  0  0  0  0
 21 23  1  0  0  0  0
 22 23  1  0  0  0  0
 23  1  1  6  0  0  0
 24 19  1  0  0  0  0
 24 20  1  0  0  0  0
 26 25  1  6  0  0  0
 26 19  1  0  0  0  0
 27 28  1  0  0  0  0
 27 26  1  0  0  0  0
 29 31  1  1  0  0  0
 29 33  1  0  0  0  0
 30 33  1  0  0  0  0
 30 32  1  1  0  0  0
 34 35  1  0  0  0  0
 34 29  1  0  0  0  0
 35 28  1  1  0  0  0
 35 30  1  0  0  0  0
M  END
>  <MODEL>
9

>  <REMARK>
 VINA RESULT:      -7.7      2.247      6.436
  Name = 
  7 active torsions:
  status: ('A' for Active; 'I' for Inactive)
    1  A    between atoms: C_1  and  C_8
    2  A    between atoms: N_2  and  C_34
    3  A    between atoms: C_22  and  C_25
    4  A    between atoms: C_25  and  C_27
    5  A    between atoms: C_32  and  C_33
    6  A    between atoms: C_32  and  C_34
    7  A    between atoms: C_33  and  C_35
                            x       y       z     vdW  Elec       q    Type
                         _______ _______ _______ _____ _____    ______ ____

>  <TORSDO>
F 7

$$$$
