=
 OpenBabel11062416003D

 36 38  0  0  1  0  0  0  0  0999 V2000
  190.1800  177.2660  141.8200 C   0  0  0  0  0  0  0  0  0  0  0  0
  188.8610  177.1590  141.4810 N   0  0  0  0  0  0  0  0  0  0  0  0
  191.6990  177.5850  143.8180 C   0  0  0  0  0  3  0  0  0  0  0  0
  189.9900  177.7910  145.3090 N   0  0  0  0  0  0  0  0  0  0  0  0
  189.4940  177.5770  144.0790 C   0  0  0  0  0  0  0  0  0  0  0  0
  187.8720  177.2560  142.4230 C   0  0  0  0  0  3  0  0  0  0  0  0
  188.1870  177.4690  143.7360 N   0  0  0  0  0  0  0  0  0  0  0  0
  190.4900  177.4670  143.1620 C   0  0  0  0  0  0  0  0  0  0  0  0
  191.3420  177.7710  145.1570 C   0  0  0  0  0  3  0  0  0  0  0  0
  189.2620  177.8960  146.5850 C   0  0  2  0  0  3  0  0  0  0  0  0
  189.9150  177.0720  147.6880 C   0  0  0  0  0  1  0  0  0  0  0  0
  187.8010  177.4700  146.4440 C   0  0  0  0  0  2  0  0  0  0  0  0
  186.9150  178.5900  146.7500 N   0  0  0  0  0  2  0  0  0  0  0  0
  185.5990  177.1810  145.4560 F   0  0  0  0  0  0  0  0  0  0  0  0
  184.6130  178.2800  147.1740 O   0  0  0  0  0  1  0  0  0  0  0  0
  185.5880  178.3690  146.1680 C   0  0  1  0  0  0  0  0  0  0  0  0
  185.2730  179.4160  145.2690 O   0  0  0  0  0  0  0  0  0  0  0  0
  182.4350  178.9260  142.8450 C   0  0  0  0  0  2  0  0  0  0  0  0
  183.2910  178.1760  141.8250 C   0  0  0  0  0  2  0  0  0  0  0  0
  183.1350  179.0490  144.2080 C   0  0  0  0  0  2  0  0  0  0  0  0
  184.6360  178.8860  141.6010 C   0  0  0  0  0  2  0  0  0  0  0  0
  185.2040  179.5440  142.8690 C   0  0  0  0  0  2  0  0  0  0  0  0
  184.6590  178.8730  144.1260 C   0  0  0  0  0  3  0  0  0  0  0  0
  191.2360  177.1530  140.7680 C   0  0  0  0  0  2  0  0  0  0  0  0
  190.9580  175.3360  138.5580 O   0  0  0  0  0  0  0  0  0  0  0  0
  190.5980  176.5310  138.3880 C   0  0  0  0  0  0  0  0  0  0  0  0
  190.6980  177.4800  139.4530 N   0  0  0  0  0  2  0  0  0  0  0  0
  190.0880  176.9680  137.0520 C   0  0  0  0  0  2  0  0  0  0  0  0
  188.5660  177.1250  137.0230 C   0  0  2  0  0  3  0  0  0  0  0  0
  188.7700  179.5000  137.2820 O   0  0  0  0  0  0  0  0  0  0  0  0
  187.0100  178.5310  138.3800 O   0  0  0  0  0  1  0  0  0  0  0  0
  188.1340  178.4510  137.5690 C   0  0  0  0  0  0  0  0  0  0  0  0
  187.9340  176.0760  137.7010 O   0  0  0  0  0  0  0  0  0  0  0  0
  187.2980  175.3360  136.7010 C   0  0  0  0  0  2  0  0  0  0  0  0
  186.0140  174.9830  137.1250 O   0  0  0  0  0  0  0  0  0  0  0  0
  185.1610  175.6250  136.2250 C   0  0  0  0  0  1  0  0  0  0  0  0
  1  8  1  0  0  0  0
  2  1  2  0  0  0  0
  2  6  1  0  0  0  0
  3  9  2  0  0  0  0
  4 10  1  0  0  0  0
  5  4  1  0  0  0  0
  6  7  2  0  0  0  0
  7  5  1  0  0  0  0
  8  3  1  0  0  0  0
  8  5  2  0  0  0  0
  9  4  1  0  0  0  0
 10 11  1  1  0  0  0
 12 10  1  0  0  0  0
 12 13  1  0  0  0  0
 16 14  1  6  0  0  0
 16 13  1  0  0  0  0
 16 15  1  0  0  0  0
 17 16  1  0  0  0  0
 18 20  1  0  0  0  0
 19 18  1  0  0  0  0
 21 19  1  0  0  0  0
 21 22  1  0  0  0  0
 22 23  1  0  0  0  0
 23 20  1  0  0  0  0
 23 17  1  0  0  0  0
 24  1  1  0  0  0  0
 26 25  2  0  0  0  0
 26 27  1  0  0  0  0
 27 24  1  0  0  0  0
 28 26  1  0  0  0  0
 29 28  1  1  0  0  0
 29 32  1  0  0  0  0
 29 33  1  0  0  0  0
 30 32  2  0  0  0  0
 32 31  1  0  0  0  0
 34 35  1  0  0  0  0
 34 33  1  0  0  0  0
 36 35  1  0  0  0  0
M  END
>  <MODEL>
1

>  <REMARK>
 VINA RESULT:      -7.5      0.000      0.000
  Name = 
  14 active torsions:
  status: ('A' for Active; 'I' for Inactive)
    1  A    between atoms: O_2  and  C_25
    2  A    between atoms: O_2  and  C_31
    3  A    between atoms: C_4  and  C_10
    4  A    between atoms: O_5  and  C_12
    5  A    between atoms: C_10  and  N_23
    6  A    between atoms: C_11  and  C_20
    7  A    between atoms: C_12  and  O_36
    8  A    between atoms: N_14  and  C_21
    9  A    between atoms: C_20  and  C_22
   10  A    between atoms: C_21  and  C_35
   11  A    between atoms: C_22  and  C_33
   12  A    between atoms: C_22  and  O_36
   13  A    between atoms: C_31  and  N_34
   14  A    between atoms: N_34  and  C_35
                            x       y       z     vdW  Elec       q    Type
                         _______ _______ _______ _____ _____    ______ ____

>  <TORSDO>
F 14

$$$$
=
 OpenBabel11062416003D

 36 38  0  0  1  0  0  0  0  0999 V2000
  184.4260  178.8560  144.8920 C   0  0  0  0  0  0  0  0  0  0  0  0
  184.4010  178.8280  146.2570 N   0  0  0  0  0  0  0  0  0  0  0  0
  185.8750  178.2190  142.9180 C   0  0  0  0  0  3  0  0  0  0  0  0
  187.6030  177.4750  144.1990 N   0  0  0  0  0  0  0  0  0  0  0  0
  186.6000  177.8890  144.9900 C   0  0  0  0  0  0  0  0  0  0  0  0
  185.4540  178.3370  146.9800 C   0  0  0  0  0  3  0  0  0  0  0  0
  186.5680  177.8640  146.3450 N   0  0  0  0  0  0  0  0  0  0  0  0
  185.5580  178.3560  144.2540 C   0  0  0  0  0  0  0  0  0  0  0  0
  187.1530  177.6520  142.9280 C   0  0  0  0  0  3  0  0  0  0  0  0
  188.8750  176.8400  144.5880 C   0  0  2  0  0  3  0  0  0  0  0  0
  189.8730  177.8470  145.1440 C   0  0  0  0  0  1  0  0  0  0  0  0
  189.5190  176.0930  143.4200 C   0  0  0  0  0  2  0  0  0  0  0  0
  190.8090  176.6900  143.0870 N   0  0  0  0  0  2  0  0  0  0  0  0
  190.1070  178.5330  141.8600 F   0  0  0  0  0  0  0  0  0  0  0  0
  192.0550  177.5380  141.2690 O   0  0  0  0  0  1  0  0  0  0  0  0
  190.7590  177.3140  141.7610 C   0  0  1  0  0  0  0  0  0  0  0  0
  190.0270  176.4970  140.8680 O   0  0  0  0  0  0  0  0  0  0  0  0
  189.9240  176.6780  137.1090 C   0  0  0  0  0  2  0  0  0  0  0  0
  189.4540  178.1320  137.0830 C   0  0  0  0  0  2  0  0  0  0  0  0
  190.4310  176.2600  138.4990 C   0  0  0  0  0  2  0  0  0  0  0  0
  188.3150  178.3640  138.0880 C   0  0  0  0  0  2  0  0  0  0  0  0
  188.4530  177.5380  139.3770 C   0  0  0  0  0  2  0  0  0  0  0  0
  189.9080  177.1570  139.6310 C   0  0  0  0  0  3  0  0  0  0  0  0
  183.2580  179.3960  144.1310 C   0  0  0  0  0  2  0  0  0  0  0  0
  181.1310  179.8100  142.2420 O   0  0  0  0  0  0  0  0  0  0  0  0
  181.9870  178.9230  141.9820 C   0  0  0  0  0  0  0  0  0  0  0  0
  183.0770  178.6780  142.8750 N   0  0  0  0  0  2  0  0  0  0  0  0
  181.8480  178.0990  140.7420 C   0  0  0  0  0  2  0  0  0  0  0  0
  183.1470  178.0160  139.9380 C   0  0  2  0  0  3  0  0  0  0  0  0
  184.7920  179.7590  139.8820 O   0  0  0  0  0  1  0  0  0  0  0  0
  182.8400  180.2030  138.7710 O   0  0  0  0  0  0  0  0  0  0  0  0
  183.6430  179.3720  139.5410 C   0  0  0  0  0  0  0  0  0  0  0  0
  183.0000  177.1890  138.8180 O   0  0  0  0  0  0  0  0  0  0  0  0
  182.5830  175.9600  139.3330 C   0  0  0  0  0  2  0  0  0  0  0  0
  182.5510  175.0100  138.3090 O   0  0  0  0  0  0  0  0  0  0  0  0
  183.8390  175.0330  137.7720 C   0  0  0  0  0  1  0  0  0  0  0  0
  1  2  1  0  0  0  0
  2  6  2  0  0  0  0
  3  9  2  0  0  0  0
  3  8  1  0  0  0  0
  4 10  1  0  0  0  0
  4  5  1  0  0  0  0
  5  7  2  0  0  0  0
  7  6  1  0  0  0  0
  8  1  2  0  0  0  0
  8  5  1  0  0  0  0
  9  4  1  0  0  0  0
 10 11  1  6  0  0  0
 12 10  1  0  0  0  0
 13 12  1  0  0  0  0
 16 15  1  6  0  0  0
 16 14  1  0  0  0  0
 16 13  1  0  0  0  0
 17 16  1  0  0  0  0
 18 20  1  0  0  0  0
 19 18  1  0  0  0  0
 19 21  1  0  0  0  0
 20 23  1  0  0  0  0
 21 22  1  0  0  0  0
 22 23  1  0  0  0  0
 23 17  1  0  0  0  0
 24  1  1  0  0  0  0
 26 25  2  0  0  0  0
 26 27  1  0  0  0  0
 27 24  1  0  0  0  0
 28 26  1  0  0  0  0
 29 28  1  6  0  0  0
 31 32  2  0  0  0  0
 32 30  1  0  0  0  0
 32 29  1  0  0  0  0
 33 34  1  0  0  0  0
 33 29  1  0  0  0  0
 35 34  1  0  0  0  0
 36 35  1  0  0  0  0
M  END
>  <MODEL>
2

>  <REMARK>
 VINA RESULT:      -7.5      2.627      6.455
  Name = 
  14 active torsions:
  status: ('A' for Active; 'I' for Inactive)
    1  A    between atoms: O_2  and  C_25
    2  A    between atoms: O_2  and  C_31
    3  A    between atoms: C_4  and  C_10
    4  A    between atoms: O_5  and  C_12
    5  A    between atoms: C_10  and  N_23
    6  A    between atoms: C_11  and  C_20
    7  A    between atoms: C_12  and  O_36
    8  A    between atoms: N_14  and  C_21
    9  A    between atoms: C_20  and  C_22
   10  A    between atoms: C_21  and  C_35
   11  A    between atoms: C_22  and  C_33
   12  A    between atoms: C_22  and  O_36
   13  A    between atoms: C_31  and  N_34
   14  A    between atoms: N_34  and  C_35
                            x       y       z     vdW  Elec       q    Type
                         _______ _______ _______ _____ _____    ______ ____

>  <TORSDO>
F 14

$$$$
=
 OpenBabel11062416003D

 36 38  0  0  1  0  0  0  0  0999 V2000
  186.6060  178.3790  139.4160 C   0  0  0  0  0  0  0  0  0  0  0  0
  186.1480  178.7720  140.6410 N   0  0  0  0  0  0  0  0  0  0  0  0
  188.7010  177.5910  138.2360 C   0  0  0  0  0  3  0  0  0  0  0  0
  190.0280  177.7990  140.0740 N   0  0  0  0  0  0  0  0  0  0  0  0
  188.7670  178.1410  140.3860 C   0  0  0  0  0  0  0  0  0  0  0  0
  186.9830  178.8470  141.7240 C   0  0  0  0  0  3  0  0  0  0  0  0
  188.3060  178.5320  141.6000 N   0  0  0  0  0  0  0  0  0  0  0  0
  187.9520  178.0440  139.3040 C   0  0  0  0  0  0  0  0  0  0  0  0
  189.9870  177.4370  138.7640 C   0  0  0  0  0  3  0  0  0  0  0  0
  191.1980  177.6990  140.9650 C   0  0  2  0  0  3  0  0  0  0  0  0
  192.4450  177.2330  140.2240 C   0  0  0  0  0  1  0  0  0  0  0  0
  190.9380  176.7590  142.1430 C   0  0  0  0  0  2  0  0  0  0  0  0
  191.8170  177.0930  143.2600 N   0  0  0  0  0  2  0  0  0  0  0  0
  191.8280  177.6190  145.5220 F   0  0  0  0  0  0  0  0  0  0  0  0
  190.6430  178.9510  144.1240 O   0  0  0  0  0  1  0  0  0  0  0  0
  191.0400  177.6290  144.3820 C   0  0  1  0  0  0  0  0  0  0  0  0
  189.9100  176.8130  144.6230 O   0  0  0  0  0  0  0  0  0  0  0  0
  186.5990  177.6210  146.2230 C   0  0  0  0  0  2  0  0  0  0  0  0
  187.2280  178.3440  147.4140 C   0  0  0  0  0  2  0  0  0  0  0  0
  187.6110  177.3880  145.0890 C   0  0  0  0  0  2  0  0  0  0  0  0
  188.4050  177.5410  147.9910 C   0  0  0  0  0  2  0  0  0  0  0  0
  189.2200  176.7900  146.9270 C   0  0  0  0  0  2  0  0  0  0  0  0
  189.0730  177.4490  145.5580 C   0  0  0  0  0  3  0  0  0  0  0  0
  185.6680  178.3060  138.2540 C   0  0  0  0  0  2  0  0  0  0  0  0
  184.0360  180.5900  138.8740 O   0  0  0  0  0  0  0  0  0  0  0  0
  183.5260  179.4460  139.0100 C   0  0  0  0  0  0  0  0  0  0  0  0
  184.2820  178.2700  138.7040 N   0  0  0  0  0  2  0  0  0  0  0  0
  182.1280  179.3140  139.5210 C   0  0  0  0  0  2  0  0  0  0  0  0
  181.9780  178.1920  140.5510 C   0  0  2  0  0  3  0  0  0  0  0  0
  181.3180  176.3610  139.1500 O   0  0  0  0  0  0  0  0  0  0  0  0
  179.7840  177.0100  140.7220 O   0  0  0  0  0  1  0  0  0  0  0  0
  181.0140  177.1410  140.0910 C   0  0  0  0  0  0  0  0  0  0  0  0
  181.6080  178.6970  141.8030 O   0  0  0  0  0  0  0  0  0  0  0  0
  182.7990  178.7600  142.5290 C   0  0  0  0  0  2  0  0  0  0  0  0
  182.5950  179.4980  143.6980 O   0  0  0  0  0  0  0  0  0  0  0  0
  183.4440  178.9070  144.6360 C   0  0  0  0  0  1  0  0  0  0  0  0
  1  2  1  0  0  0  0
  2  6  2  0  0  0  0
  3  9  2  0  0  0  0
  3  8  1  0  0  0  0
  4  5  1  0  0  0  0
  4 10  1  0  0  0  0
  5  7  2  0  0  0  0
  7  6  1  0  0  0  0
  8  1  2  0  0  0  0
  8  5  1  0  0  0  0
  9  4  1  0  0  0  0
 10 11  1  6  0  0  0
 10 12  1  0  0  0  0
 12 13  1  0  0  0  0
 13 16  1  0  0  0  0
 16 15  1  6  0  0  0
 16 17  1  0  0  0  0
 16 14  1  0  0  0  0
 17 23  1  0  0  0  0
 18 19  1  0  0  0  0
 19 21  1  0  0  0  0
 20 23  1  0  0  0  0
 20 18  1  0  0  0  0
 22 21  1  0  0  0  0
 23 22  1  0  0  0  0
 24 27  1  0  0  0  0
 24  1  1  0  0  0  0
 25 26  2  0  0  0  0
 26 28  1  0  0  0  0
 27 26  1  0  0  0  0
 29 28  1  6  0  0  0
 29 33  1  0  0  0  0
 30 32  2  0  0  0  0
 32 29  1  0  0  0  0
 32 31  1  0  0  0  0
 33 34  1  0  0  0  0
 34 35  1  0  0  0  0
 35 36  1  0  0  0  0
M  END
>  <MODEL>
3

>  <REMARK>
 VINA RESULT:      -7.5      3.132      6.550
  Name = 
  14 active torsions:
  status: ('A' for Active; 'I' for Inactive)
    1  A    between atoms: O_2  and  C_25
    2  A    between atoms: O_2  and  C_31
    3  A    between atoms: C_4  and  C_10
    4  A    between atoms: O_5  and  C_12
    5  A    between atoms: C_10  and  N_23
    6  A    between atoms: C_11  and  C_20
    7  A    between atoms: C_12  and  O_36
    8  A    between atoms: N_14  and  C_21
    9  A    between atoms: C_20  and  C_22
   10  A    between atoms: C_21  and  C_35
   11  A    between atoms: C_22  and  C_33
   12  A    between atoms: C_22  and  O_36
   13  A    between atoms: C_31  and  N_34
   14  A    between atoms: N_34  and  C_35
                            x       y       z     vdW  Elec       q    Type
                         _______ _______ _______ _____ _____    ______ ____

>  <TORSDO>
F 14

$$$$
=
 OpenBabel11062416003D

 36 38  0  0  1  0  0  0  0  0999 V2000
  184.6390  178.8520  144.9650 C   0  0  0  0  0  0  0  0  0  0  0  0
  183.3160  178.9580  145.2880 N   0  0  0  0  0  0  0  0  0  0  0  0
  186.1870  178.6520  142.9740 C   0  0  0  0  0  3  0  0  0  0  0  0
  184.5030  178.5810  141.4440 N   0  0  0  0  0  0  0  0  0  0  0  0
  183.9880  178.7150  142.6780 C   0  0  0  0  0  0  0  0  0  0  0  0
  182.3420  178.9450  144.3250 C   0  0  0  0  0  3  0  0  0  0  0  0
  182.6770  178.8200  143.0060 N   0  0  0  0  0  0  0  0  0  0  0  0
  184.9690  178.7430  143.6170 C   0  0  0  0  0  0  0  0  0  0  0  0
  185.8510  178.5670  141.6190 C   0  0  0  0  0  3  0  0  0  0  0  0
  183.7960  178.5800  140.1520 C   0  0  2  0  0  3  0  0  0  0  0  0
  183.1390  177.2360  139.8580 C   0  0  0  0  0  1  0  0  0  0  0  0
  184.7260  178.9440  138.9940 C   0  0  0  0  0  2  0  0  0  0  0  0
  184.5480  178.0060  137.8880 N   0  0  0  0  0  2  0  0  0  0  0  0
  186.1350  176.3160  137.7540 F   0  0  0  0  0  0  0  0  0  0  0  0
  185.8220  177.6320  135.9360 O   0  0  0  0  0  1  0  0  0  0  0  0
  185.8480  177.6070  137.3390 C   0  0  1  0  0  0  0  0  0  0  0  0
  186.8640  178.4610  137.8290 O   0  0  0  0  0  0  0  0  0  0  0  0
  190.4080  177.2120  137.6060 C   0  0  0  0  0  2  0  0  0  0  0  0
  190.3520  176.4870  138.9510 C   0  0  0  0  0  2  0  0  0  0  0  0
  189.0110  177.6190  137.1120 C   0  0  0  0  0  2  0  0  0  0  0  0
  189.7100  177.3720  140.0310 C   0  0  0  0  0  2  0  0  0  0  0  0
  188.5800  178.2690  139.5020 C   0  0  0  0  0  2  0  0  0  0  0  0
  187.9640  177.6840  138.2340 C   0  0  0  0  0  3  0  0  0  0  0  0
  185.6770  178.8730  146.0400 C   0  0  0  0  0  2  0  0  0  0  0  0
  188.0130  178.4200  147.6520 O   0  0  0  0  0  0  0  0  0  0  0  0
  187.9100  177.7810  146.5710 C   0  0  0  0  0  0  0  0  0  0  0  0
  186.7640  177.9520  145.7310 N   0  0  0  0  0  2  0  0  0  0  0  0
  189.0060  176.8580  146.1480 C   0  0  0  0  0  2  0  0  0  0  0  0
  189.7240  177.3330  144.8830 C   0  0  2  0  0  3  0  0  0  0  0  0
  188.3570  176.0960  143.3510 O   0  0  0  0  0  1  0  0  0  0  0  0
  190.6170  175.8460  143.0850 O   0  0  0  0  0  0  0  0  0  0  0  0
  189.5190  176.3880  143.7390 C   0  0  0  0  0  0  0  0  0  0  0  0
  191.0880  177.5410  145.1200 O   0  0  0  0  0  0  0  0  0  0  0  0
  191.3170  177.0010  146.3880 C   0  0  0  0  0  2  0  0  0  0  0  0
  192.1480  175.8830  146.2770 O   0  0  0  0  0  0  0  0  0  0  0  0
  192.4950  175.5750  147.5930 C   0  0  0  0  0  1  0  0  0  0  0  0
  1  2  1  0  0  0  0
  1 24  1  0  0  0  0
  3  8  1  0  0  0  0
  4  9  1  0  0  0  0
  4  5  1  0  0  0  0
  5  7  2  0  0  0  0
  5  8  1  0  0  0  0
  6  2  2  0  0  0  0
  7  6  1  0  0  0  0
  8  1  2  0  0  0  0
  9  3  2  0  0  0  0
 10 11  1  6  0  0  0
 10  4  1  0  0  0  0
 12 10  1  0  0  0  0
 13 12  1  0  0  0  0
 16 15  1  6  0  0  0
 16 14  1  0  0  0  0
 16 17  1  0  0  0  0
 16 13  1  0  0  0  0
 17 23  1  0  0  0  0
 18 19  1  0  0  0  0
 19 21  1  0  0  0  0
 20 18  1  0  0  0  0
 20 23  1  0  0  0  0
 22 21  1  0  0  0  0
 23 22  1  0  0  0  0
 26 25  2  0  0  0  0
 27 24  1  0  0  0  0
 27 26  1  0  0  0  0
 28 26  1  0  0  0  0
 29 33  1  0  0  0  0
 29 28  1  1  0  0  0
 30 32  1  0  0  0  0
 31 32  2  0  0  0  0
 32 29  1  0  0  0  0
 33 34  1  0  0  0  0
 35 34  1  0  0  0  0
 35 36  1  0  0  0  0
M  END
>  <MODEL>
4

>  <REMARK>
 VINA RESULT:      -7.5      3.231      8.181
  Name = 
  14 active torsions:
  status: ('A' for Active; 'I' for Inactive)
    1  A    between atoms: O_2  and  C_25
    2  A    between atoms: O_2  and  C_31
    3  A    between atoms: C_4  and  C_10
    4  A    between atoms: O_5  and  C_12
    5  A    between atoms: C_10  and  N_23
    6  A    between atoms: C_11  and  C_20
    7  A    between atoms: C_12  and  O_36
    8  A    between atoms: N_14  and  C_21
    9  A    between atoms: C_20  and  C_22
   10  A    between atoms: C_21  and  C_35
   11  A    between atoms: C_22  and  C_33
   12  A    between atoms: C_22  and  O_36
   13  A    between atoms: C_31  and  N_34
   14  A    between atoms: N_34  and  C_35
                            x       y       z     vdW  Elec       q    Type
                         _______ _______ _______ _____ _____    ______ ____

>  <TORSDO>
F 14

$$$$
=
 OpenBabel11062416003D

 36 38  0  0  1  0  0  0  0  0999 V2000
  188.2650  177.7430  138.5470 C   0  0  0  0  0  0  0  0  0  0  0  0
  188.9700  176.9090  137.7270 N   0  0  0  0  0  0  0  0  0  0  0  0
  188.1740  178.5690  140.9370 C   0  0  0  0  0  3  0  0  0  0  0  0
  189.8850  177.2450  141.6480 N   0  0  0  0  0  0  0  0  0  0  0  0
  189.6800  177.0520  140.3340 C   0  0  0  0  0  0  0  0  0  0  0  0
  190.0140  176.1590  138.1980 C   0  0  0  0  0  3  0  0  0  0  0  0
  190.3740  176.2260  139.5140 N   0  0  0  0  0  0  0  0  0  0  0  0
  188.6520  177.8170  139.8830 C   0  0  0  0  0  0  0  0  0  0  0  0
  188.9810  178.1920  142.0160 C   0  0  0  0  0  3  0  0  0  0  0  0
  190.9360  176.6700  142.5050 C   0  0  2  0  0  3  0  0  0  0  0  0
  190.5480  175.3010  143.0500 C   0  0  0  0  0  1  0  0  0  0  0  0
  191.2830  177.5920  143.6750 C   0  0  0  0  0  2  0  0  0  0  0  0
  191.0950  176.8920  144.9430 N   0  0  0  0  0  2  0  0  0  0  0  0
  190.4150  177.5140  147.0750 F   0  0  0  0  0  0  0  0  0  0  0  0
  189.8850  178.8790  145.3460 O   0  0  0  0  0  1  0  0  0  0  0  0
  190.0490  177.5410  145.7380 C   0  0  1  0  0  0  0  0  0  0  0  0
  188.8300  176.8360  145.6040 O   0  0  0  0  0  0  0  0  0  0  0  0
  185.3690  178.0190  144.7110 C   0  0  0  0  0  2  0  0  0  0  0  0
  185.4270  179.2340  145.6380 C   0  0  0  0  0  2  0  0  0  0  0  0
  186.7550  177.3890  144.4980 C   0  0  0  0  0  2  0  0  0  0  0  0
  185.9880  178.8520  147.0170 C   0  0  0  0  0  2  0  0  0  0  0  0
  187.0800  177.7720  146.9620 C   0  0  0  0  0  2  0  0  0  0  0  0
  187.7640  177.7540  145.5980 C   0  0  0  0  0  3  0  0  0  0  0  0
  187.1320  178.5510  138.0010 C   0  0  0  0  0  2  0  0  0  0  0  0
  185.0230  179.6940  139.5840 O   0  0  0  0  0  0  0  0  0  0  0  0
  184.8450  178.5410  139.1100 C   0  0  0  0  0  0  0  0  0  0  0  0
  185.8520  177.9230  138.3020 N   0  0  0  0  0  2  0  0  0  0  0  0
  183.5840  177.8000  139.4160 C   0  0  0  0  0  2  0  0  0  0  0  0
  182.4300  178.7290  139.7950 C   0  0  2  0  0  3  0  0  0  0  0  0
  182.8780  178.6760  142.1500 O   0  0  0  0  0  1  0  0  0  0  0  0
  180.7020  178.2960  141.5470 O   0  0  0  0  0  0  0  0  0  0  0  0
  182.0280  178.5600  141.2290 C   0  0  0  0  0  0  0  0  0  0  0  0
  181.3330  178.5510  138.9440 O   0  0  0  0  0  0  0  0  0  0  0  0
  181.5420  177.3060  138.3460 C   0  0  0  0  0  2  0  0  0  0  0  0
  180.4150  176.5020  138.5320 O   0  0  0  0  0  0  0  0  0  0  0  0
  179.3360  177.3450  138.2590 C   0  0  0  0  0  1  0  0  0  0  0  0
  1  8  1  0  0  0  0
  2  6  1  0  0  0  0
  2  1  2  0  0  0  0
  3  9  2  0  0  0  0
  4  9  1  0  0  0  0
  4 10  1  0  0  0  0
  5  4  1  0  0  0  0
  6  7  2  0  0  0  0
  7  5  1  0  0  0  0
  8  5  2  0  0  0  0
  8  3  1  0  0  0  0
 10 11  1  1  0  0  0
 10 12  1  0  0  0  0
 12 13  1  0  0  0  0
 13 16  1  0  0  0  0
 16 15  1  6  0  0  0
 16 14  1  0  0  0  0
 17 16  1  0  0  0  0
 18 19  1  0  0  0  0
 19 21  1  0  0  0  0
 20 18  1  0  0  0  0
 20 23  1  0  0  0  0
 22 21  1  0  0  0  0
 23 17  1  0  0  0  0
 23 22  1  0  0  0  0
 24 27  1  0  0  0  0
 24  1  1  0  0  0  0
 26 28  1  0  0  0  0
 26 25  2  0  0  0  0
 27 26  1  0  0  0  0
 29 28  1  6  0  0  0
 29 32  1  0  0  0  0
 32 31  2  0  0  0  0
 32 30  1  0  0  0  0
 33 29  1  0  0  0  0
 34 35  1  0  0  0  0
 34 33  1  0  0  0  0
 36 35  1  0  0  0  0
M  END
>  <MODEL>
5

>  <REMARK>
 VINA RESULT:      -7.4      3.006      5.344
  Name = 
  14 active torsions:
  status: ('A' for Active; 'I' for Inactive)
    1  A    between atoms: O_2  and  C_25
    2  A    between atoms: O_2  and  C_31
    3  A    between atoms: C_4  and  C_10
    4  A    between atoms: O_5  and  C_12
    5  A    between atoms: C_10  and  N_23
    6  A    between atoms: C_11  and  C_20
    7  A    between atoms: C_12  and  O_36
    8  A    between atoms: N_14  and  C_21
    9  A    between atoms: C_20  and  C_22
   10  A    between atoms: C_21  and  C_35
   11  A    between atoms: C_22  and  C_33
   12  A    between atoms: C_22  and  O_36
   13  A    between atoms: C_31  and  N_34
   14  A    between atoms: N_34  and  C_35
                            x       y       z     vdW  Elec       q    Type
                         _______ _______ _______ _____ _____    ______ ____

>  <TORSDO>
F 14

$$$$
=
 OpenBabel11062416003D

 36 38  0  0  1  0  0  0  0  0999 V2000
  185.0390  178.4120  145.7420 C   0  0  0  0  0  0  0  0  0  0  0  0
  183.7990  178.9760  145.8440 N   0  0  0  0  0  0  0  0  0  0  0  0
  186.7940  177.7670  144.0370 C   0  0  0  0  0  3  0  0  0  0  0  0
  185.5420  178.3990  142.2440 N   0  0  0  0  0  0  0  0  0  0  0  0
  184.8640  178.6450  143.3780 C   0  0  0  0  0  0  0  0  0  0  0  0
  183.1010  179.3710  144.7340 C   0  0  0  0  0  3  0  0  0  0  0  0
  183.6340  179.2040  143.4870 N   0  0  0  0  0  0  0  0  0  0  0  0
  185.5800  178.2620  144.4680 C   0  0  0  0  0  0  0  0  0  0  0  0
  186.7350  177.8840  142.6450 C   0  0  0  0  0  3  0  0  0  0  0  0
  185.1590  178.7260  140.8590 C   0  0  2  0  0  3  0  0  0  0  0  0
  183.9790  177.8910  140.3770 C   0  0  0  0  0  1  0  0  0  0  0  0
  186.3270  178.5450  139.8890 C   0  0  0  0  0  2  0  0  0  0  0  0
  185.8790  178.7500  138.5140 N   0  0  0  0  0  2  0  0  0  0  0  0
  186.7680  176.6460  138.0920 F   0  0  0  0  0  0  0  0  0  0  0  0
  186.0580  177.8780  136.3270 O   0  0  0  0  0  1  0  0  0  0  0  0
  186.6710  177.9340  137.5890 C   0  0  1  0  0  0  0  0  0  0  0  0
  187.9790  178.4600  137.4770 O   0  0  0  0  0  0  0  0  0  0  0  0
  191.1050  176.4330  136.9360 C   0  0  0  0  0  2  0  0  0  0  0  0
  191.0240  175.7430  138.2990 C   0  0  0  0  0  2  0  0  0  0  0  0
  189.7940  177.1480  136.5730 C   0  0  0  0  0  2  0  0  0  0  0  0
  190.7140  176.7550  139.4140 C   0  0  0  0  0  2  0  0  0  0  0  0
  189.7700  177.8850  138.9760 C   0  0  0  0  0  2  0  0  0  0  0  0
  188.9100  177.4540  137.7910 C   0  0  0  0  0  3  0  0  0  0  0  0
  185.7760  177.9930  146.9730 C   0  0  0  0  0  2  0  0  0  0  0  0
  187.8140  177.8330  148.9940 O   0  0  0  0  0  0  0  0  0  0  0  0
  188.1800  177.9050  147.7910 C   0  0  0  0  0  0  0  0  0  0  0  0
  187.2140  177.9740  146.7380 N   0  0  0  0  0  2  0  0  0  0  0  0
  189.6380  177.9490  147.4620 C   0  0  0  0  0  2  0  0  0  0  0  0
  190.1210  176.6850  146.7480 C   0  0  2  0  0  3  0  0  0  0  0  0
  192.1890  175.5260  146.3910 O   0  0  0  0  0  0  0  0  0  0  0  0
  192.1970  177.0690  148.0820 O   0  0  0  0  0  1  0  0  0  0  0  0
  191.5540  176.3830  147.0610 C   0  0  0  0  0  0  0  0  0  0  0  0
  189.9180  176.7730  145.3660 O   0  0  0  0  0  0  0  0  0  0  0  0
  190.4460  178.0150  145.0050 C   0  0  0  0  0  2  0  0  0  0  0  0
  190.4080  178.1540  143.6150 O   0  0  0  0  0  0  0  0  0  0  0  0
  191.6700  177.7370  143.1880 C   0  0  0  0  0  1  0  0  0  0  0  0
  1  2  1  0  0  0  0
  1 24  1  0  0  0  0
  3  8  1  0  0  0  0
  4  9  1  0  0  0  0
  4  5  1  0  0  0  0
  5  7  2  0  0  0  0
  5  8  1  0  0  0  0
  6  2  2  0  0  0  0
  7  6  1  0  0  0  0
  8  1  2  0  0  0  0
  9  3  2  0  0  0  0
 10 11  1  6  0  0  0
 10  4  1  0  0  0  0
 12 10  1  0  0  0  0
 13 12  1  0  0  0  0
 16 15  1  6  0  0  0
 16 14  1  0  0  0  0
 16 13  1  0  0  0  0
 17 16  1  0  0  0  0
 17 23  1  0  0  0  0
 18 19  1  0  0  0  0
 19 21  1  0  0  0  0
 20 18  1  0  0  0  0
 20 23  1  0  0  0  0
 22 21  1  0  0  0  0
 23 22  1  0  0  0  0
 26 25  2  0  0  0  0
 27 24  1  0  0  0  0
 27 26  1  0  0  0  0
 28 26  1  0  0  0  0
 29 32  1  0  0  0  0
 29 28  1  1  0  0  0
 30 32  2  0  0  0  0
 32 31  1  0  0  0  0
 33 29  1  0  0  0  0
 34 33  1  0  0  0  0
 35 34  1  0  0  0  0
 36 35  1  0  0  0  0
M  END
>  <MODEL>
6

>  <REMARK>
 VINA RESULT:      -7.2      3.161      8.361
  Name = 
  14 active torsions:
  status: ('A' for Active; 'I' for Inactive)
    1  A    between atoms: O_2  and  C_25
    2  A    between atoms: O_2  and  C_31
    3  A    between atoms: C_4  and  C_10
    4  A    between atoms: O_5  and  C_12
    5  A    between atoms: C_10  and  N_23
    6  A    between atoms: C_11  and  C_20
    7  A    between atoms: C_12  and  O_36
    8  A    between atoms: N_14  and  C_21
    9  A    between atoms: C_20  and  C_22
   10  A    between atoms: C_21  and  C_35
   11  A    between atoms: C_22  and  C_33
   12  A    between atoms: C_22  and  O_36
   13  A    between atoms: C_31  and  N_34
   14  A    between atoms: N_34  and  C_35
                            x       y       z     vdW  Elec       q    Type
                         _______ _______ _______ _____ _____    ______ ____

>  <TORSDO>
F 14

$$$$
=
 OpenBabel11062416003D

 36 38  0  0  1  0  0  0  0  0999 V2000
  184.2820  179.0510  144.7170 C   0  0  0  0  0  0  0  0  0  0  0  0
  184.2110  178.9410  146.0760 N   0  0  0  0  0  0  0  0  0  0  0  0
  185.7490  178.4360  142.7480 C   0  0  0  0  0  3  0  0  0  0  0  0
  187.3800  177.4970  144.0280 N   0  0  0  0  0  0  0  0  0  0  0  0
  186.3820  177.9310  144.8160 C   0  0  0  0  0  0  0  0  0  0  0  0
  185.2050  178.3340  146.7970 C   0  0  0  0  0  3  0  0  0  0  0  0
  186.3040  177.8250  146.1650 N   0  0  0  0  0  0  0  0  0  0  0  0
  185.3980  178.5140  144.0810 C   0  0  0  0  0  0  0  0  0  0  0  0
  186.9850  177.7820  142.7590 C   0  0  0  0  0  3  0  0  0  0  0  0
  188.5920  176.7520  144.4120 C   0  0  2  0  0  3  0  0  0  0  0  0
  189.6400  177.6530  145.0540 C   0  0  0  0  0  1  0  0  0  0  0  0
  189.2190  176.0320  143.2180 C   0  0  0  0  0  2  0  0  0  0  0  0
  190.5910  176.4870  143.0160 N   0  0  0  0  0  2  0  0  0  0  0  0
  189.9830  178.3550  141.7770 F   0  0  0  0  0  0  0  0  0  0  0  0
  192.0600  177.5010  141.4690 O   0  0  0  0  0  1  0  0  0  0  0  0
  190.7180  177.1810  141.7300 C   0  0  1  0  0  0  0  0  0  0  0  0
  190.1930  176.3760  140.6920 O   0  0  0  0  0  0  0  0  0  0  0  0
  190.1280  177.1130  137.0010 C   0  0  0  0  0  2  0  0  0  0  0  0
  189.3470  178.4160  137.1640 C   0  0  0  0  0  2  0  0  0  0  0  0
  190.6870  176.6030  138.3390 C   0  0  0  0  0  2  0  0  0  0  0  0
  188.1650  178.2370  138.1300 C   0  0  0  0  0  2  0  0  0  0  0  0
  188.4570  177.2700  139.2880 C   0  0  0  0  0  2  0  0  0  0  0  0
  189.9560  177.1780  139.5610 C   0  0  0  0  0  3  0  0  0  0  0  0
  183.1790  179.7160  143.9590 C   0  0  0  0  0  2  0  0  0  0  0  0
  180.6860  180.1390  142.5920 O   0  0  0  0  0  0  0  0  0  0  0  0
  181.2800  179.0430  142.4100 C   0  0  0  0  0  0  0  0  0  0  0  0
  182.5310  178.7770  143.0510 N   0  0  0  0  0  2  0  0  0  0  0  0
  180.6590  177.9990  141.5390 C   0  0  0  0  0  2  0  0  0  0  0  0
  181.2000  178.0240  140.1080 C   0  0  2  0  0  3  0  0  0  0  0  0
  183.4150  177.1190  140.2740 O   0  0  0  0  0  1  0  0  0  0  0  0
  181.8660  175.7700  139.2620 O   0  0  0  0  0  0  0  0  0  0  0  0
  182.2280  176.9570  139.8840 C   0  0  0  0  0  0  0  0  0  0  0  0
  181.7100  179.2850  139.7790 O   0  0  0  0  0  0  0  0  0  0  0  0
  180.8680  179.7590  138.7710 C   0  0  0  0  0  2  0  0  0  0  0  0
  180.4750  181.0670  139.0650 O   0  0  0  0  0  0  0  0  0  0  0  0
  181.3710  181.8690  138.3560 C   0  0  0  0  0  1  0  0  0  0  0  0
  1  2  1  0  0  0  0
  2  6  2  0  0  0  0
  3  9  2  0  0  0  0
  3  8  1  0  0  0  0
  4 10  1  0  0  0  0
  4  5  1  0  0  0  0
  5  7  2  0  0  0  0
  7  6  1  0  0  0  0
  8  1  2  0  0  0  0
  8  5  1  0  0  0  0
  9  4  1  0  0  0  0
 10 11  1  6  0  0  0
 12 10  1  0  0  0  0
 13 12  1  0  0  0  0
 16 15  1  6  0  0  0
 16 14  1  0  0  0  0
 16 13  1  0  0  0  0
 17 16  1  0  0  0  0
 18 19  1  0  0  0  0
 18 20  1  0  0  0  0
 19 21  1  0  0  0  0
 20 23  1  0  0  0  0
 21 22  1  0  0  0  0
 22 23  1  0  0  0  0
 23 17  1  0  0  0  0
 24  1  1  0  0  0  0
 26 25  2  0  0  0  0
 26 27  1  0  0  0  0
 27 24  1  0  0  0  0
 28 26  1  0  0  0  0
 29 28  1  1  0  0  0
 31 32  2  0  0  0  0
 32 29  1  0  0  0  0
 32 30  1  0  0  0  0
 33 29  1  0  0  0  0
 34 35  1  0  0  0  0
 34 33  1  0  0  0  0
 36 35  1  0  0  0  0
M  END
>  <MODEL>
7

>  <REMARK>
 VINA RESULT:      -7.2      3.090      7.151
  Name = 
  14 active torsions:
  status: ('A' for Active; 'I' for Inactive)
    1  A    between atoms: O_2  and  C_25
    2  A    between atoms: O_2  and  C_31
    3  A    between atoms: C_4  and  C_10
    4  A    between atoms: O_5  and  C_12
    5  A    between atoms: C_10  and  N_23
    6  A    between atoms: C_11  and  C_20
    7  A    between atoms: C_12  and  O_36
    8  A    between atoms: N_14  and  C_21
    9  A    between atoms: C_20  and  C_22
   10  A    between atoms: C_21  and  C_35
   11  A    between atoms: C_22  and  C_33
   12  A    between atoms: C_22  and  O_36
   13  A    between atoms: C_31  and  N_34
   14  A    between atoms: N_34  and  C_35
                            x       y       z     vdW  Elec       q    Type
                         _______ _______ _______ _____ _____    ______ ____

>  <TORSDO>
F 14

$$$$
=
 OpenBabel11062416003D

 36 38  0  0  1  0  0  0  0  0999 V2000
  186.4230  178.0520  146.2610 C   0  0  0  0  0  0  0  0  0  0  0  0
  186.9960  178.1550  147.4970 N   0  0  0  0  0  0  0  0  0  0  0  0
  186.9790  177.5140  143.8520 C   0  0  0  0  0  3  0  0  0  0  0  0
  189.2060  177.2470  144.2380 N   0  0  0  0  0  0  0  0  0  0  0  0
  188.5790  177.5370  145.3900 C   0  0  0  0  0  0  0  0  0  0  0  0
  188.3380  177.9500  147.6810 C   0  0  0  0  0  3  0  0  0  0  0  0
  189.1410  177.6400  146.6200 N   0  0  0  0  0  0  0  0  0  0  0  0
  187.2480  177.7190  145.1900 C   0  0  0  0  0  0  0  0  0  0  0  0
  188.2250  177.2080  143.2970 C   0  0  0  0  0  3  0  0  0  0  0  0
  190.6250  176.9100  144.0270 C   0  0  2  0  0  3  0  0  0  0  0  0
  191.5450  178.0870  144.3270 C   0  0  0  0  0  1  0  0  0  0  0  0
  190.8880  176.4230  142.6010 C   0  0  0  0  0  2  0  0  0  0  0  0
  191.3790  177.5210  141.7740 N   0  0  0  0  0  2  0  0  0  0  0  0
  192.2660  177.3550  139.6340 F   0  0  0  0  0  0  0  0  0  0  0  0
  190.5480  175.9840  140.1850 O   0  0  0  0  0  1  0  0  0  0  0  0
  191.0880  177.2680  140.3590 C   0  0  1  0  0  0  0  0  0  0  0  0
  190.1960  178.2480  139.8650 O   0  0  0  0  0  0  0  0  0  0  0  0
  186.9680  177.9080  137.9580 C   0  0  0  0  0  2  0  0  0  0  0  0
  187.5260  176.8690  136.9850 C   0  0  0  0  0  2  0  0  0  0  0  0
  187.8860  178.1110  139.1740 C   0  0  0  0  0  2  0  0  0  0  0  0
  188.9110  177.2840  136.4650 C   0  0  0  0  0  2  0  0  0  0  0  0
  189.7680  178.0160  137.5100 C   0  0  0  0  0  2  0  0  0  0  0  0
  189.3320  177.6550  138.9270 C   0  0  0  0  0  3  0  0  0  0  0  0
  184.9550  178.2790  146.0940 C   0  0  0  0  0  2  0  0  0  0  0  0
  182.3560  178.4060  144.8740 O   0  0  0  0  0  0  0  0  0  0  0  0
  183.3400  178.8310  144.2120 C   0  0  0  0  0  0  0  0  0  0  0  0
  184.6570  178.8070  144.7690 N   0  0  0  0  0  2  0  0  0  0  0  0
  183.1330  179.3380  142.8210 C   0  0  0  0  0  2  0  0  0  0  0  0
  183.9020  178.5280  141.7760 C   0  0  2  0  0  3  0  0  0  0  0  0
  185.9530  179.7470  141.5400 O   0  0  0  0  0  1  0  0  0  0  0  0
  184.5810  179.7510  139.7070 O   0  0  0  0  0  0  0  0  0  0  0  0
  184.8690  179.3800  141.0130 C   0  0  0  0  0  0  0  0  0  0  0  0
  183.0300  177.8610  140.9070 O   0  0  0  0  0  0  0  0  0  0  0  0
  181.7900  178.4690  141.1090 C   0  0  0  0  0  2  0  0  0  0  0  0
  181.4500  179.2250  139.9840 O   0  0  0  0  0  0  0  0  0  0  0  0
  180.1500  179.6650  140.2400 C   0  0  0  0  0  1  0  0  0  0  0  0
  1  2  1  0  0  0  0
  2  6  2  0  0  0  0
  3  8  1  0  0  0  0
  4  5  1  0  0  0  0
  5  7  2  0  0  0  0
  7  6  1  0  0  0  0
  8  5  1  0  0  0  0
  8  1  2  0  0  0  0
  9  3  2  0  0  0  0
  9  4  1  0  0  0  0
 10  4  1  0  0  0  0
 10 11  1  6  0  0  0
 12 10  1  0  0  0  0
 13 12  1  0  0  0  0
 15 16  1  0  0  0  0
 16 14  1  6  0  0  0
 16 13  1  0  0  0  0
 17 16  1  0  0  0  0
 18 20  1  0  0  0  0
 19 18  1  0  0  0  0
 21 19  1  0  0  0  0
 21 22  1  0  0  0  0
 22 23  1  0  0  0  0
 23 20  1  0  0  0  0
 23 17  1  0  0  0  0
 24  1  1  0  0  0  0
 26 27  1  0  0  0  0
 26 25  2  0  0  0  0
 27 24  1  0  0  0  0
 28 26  1  0  0  0  0
 29 28  1  1  0  0  0
 31 32  2  0  0  0  0
 32 30  1  0  0  0  0
 32 29  1  0  0  0  0
 33 34  1  0  0  0  0
 33 29  1  0  0  0  0
 35 36  1  0  0  0  0
 35 34  1  0  0  0  0
M  END
>  <MODEL>
8

>  <REMARK>
 VINA RESULT:      -7.1      2.590      6.630
  Name = 
  14 active torsions:
  status: ('A' for Active; 'I' for Inactive)
    1  A    between atoms: O_2  and  C_25
    2  A    between atoms: O_2  and  C_31
    3  A    between atoms: C_4  and  C_10
    4  A    between atoms: O_5  and  C_12
    5  A    between atoms: C_10  and  N_23
    6  A    between atoms: C_11  and  C_20
    7  A    between atoms: C_12  and  O_36
    8  A    between atoms: N_14  and  C_21
    9  A    between atoms: C_20  and  C_22
   10  A    between atoms: C_21  and  C_35
   11  A    between atoms: C_22  and  C_33
   12  A    between atoms: C_22  and  O_36
   13  A    between atoms: C_31  and  N_34
   14  A    between atoms: N_34  and  C_35
                            x       y       z     vdW  Elec       q    Type
                         _______ _______ _______ _____ _____    ______ ____

>  <TORSDO>
F 14

$$$$
=
 OpenBabel11062416003D

 36 38  0  0  1  0  0  0  0  0999 V2000
  184.2500  178.9500  144.3410 C   0  0  0  0  0  0  0  0  0  0  0  0
  182.9330  178.8240  144.6790 N   0  0  0  0  0  0  0  0  0  0  0  0
  185.7820  179.0750  142.3300 C   0  0  0  0  0  3  0  0  0  0  0  0
  184.1090  178.7790  140.8140 N   0  0  0  0  0  0  0  0  0  0  0  0
  183.5980  178.7840  142.0560 C   0  0  0  0  0  0  0  0  0  0  0  0
  181.9610  178.6830  143.7250 C   0  0  0  0  0  3  0  0  0  0  0  0
  182.2920  178.6600  142.4000 N   0  0  0  0  0  0  0  0  0  0  0  0
  184.5750  178.9420  142.9870 C   0  0  0  0  0  0  0  0  0  0  0  0
  185.4440  178.9820  140.9760 C   0  0  0  0  0  3  0  0  0  0  0  0
  183.3940  178.7040  139.5290 C   0  0  2  0  0  3  0  0  0  0  0  0
  184.2620  178.1190  138.4210 C   0  0  0  0  0  1  0  0  0  0  0  0
  182.8760  180.0730  139.0850 C   0  0  0  0  0  2  0  0  0  0  0  0
  181.4340  180.1610  139.2950 N   0  0  0  0  0  2  0  0  0  0  0  0
  181.6200  180.1100  136.9810 F   0  0  0  0  0  0  0  0  0  0  0  0
  180.1240  178.7190  137.9610 O   0  0  0  0  0  1  0  0  0  0  0  0
  180.7180  179.9890  138.0270 C   0  0  1  0  0  0  0  0  0  0  0  0
  179.7400  181.0000  137.8820 O   0  0  0  0  0  0  0  0  0  0  0  0
  179.4170  183.5540  135.1350 C   0  0  0  0  0  2  0  0  0  0  0  0
  180.8210  184.1210  135.3480 C   0  0  0  0  0  2  0  0  0  0  0  0
  179.2200  182.2120  135.8580 C   0  0  0  0  0  2  0  0  0  0  0  0
  181.1060  184.3450  136.8420 C   0  0  0  0  0  2  0  0  0  0  0  0
  180.4690  183.2880  137.7570 C   0  0  0  0  0  2  0  0  0  0  0  0
  180.2210  181.9860  137.0010 C   0  0  0  0  0  3  0  0  0  0  0  0
  185.2870  179.1050  145.4060 C   0  0  0  0  0  2  0  0  0  0  0  0
  187.2370  178.2640  147.3440 O   0  0  0  0  0  0  0  0  0  0  0  0
  187.3770  177.8690  146.1560 C   0  0  0  0  0  0  0  0  0  0  0  0
  186.4330  178.2420  145.1480 N   0  0  0  0  0  2  0  0  0  0  0  0
  188.5570  177.0270  145.7900 C   0  0  0  0  0  2  0  0  0  0  0  0
  189.3320  177.5830  144.5940 C   0  0  2  0  0  3  0  0  0  0  0  0
  190.6100  176.1510  143.1570 O   0  0  0  0  0  1  0  0  0  0  0  0
  188.3400  176.0650  142.8760 O   0  0  0  0  0  0  0  0  0  0  0  0
  189.4730  176.5680  143.5010 C   0  0  0  0  0  0  0  0  0  0  0  0
  190.5830  178.0750  144.9830 O   0  0  0  0  0  0  0  0  0  0  0  0
  190.8360  177.4740  146.2180 C   0  0  0  0  0  2  0  0  0  0  0  0
  192.0350  176.7590  146.1540 O   0  0  0  0  0  0  0  0  0  0  0  0
  192.0380  175.9790  147.3120 C   0  0  0  0  0  1  0  0  0  0  0  0
  1  2  1  0  0  0  0
  1 24  1  0  0  0  0
  3  8  1  0  0  0  0
  4  9  1  0  0  0  0
  4  5  1  0  0  0  0
  5  7  2  0  0  0  0
  5  8  1  0  0  0  0
  6  2  2  0  0  0  0
  7  6  1  0  0  0  0
  8  1  2  0  0  0  0
  9  3  2  0  0  0  0
 10 11  1  6  0  0  0
 10  4  1  0  0  0  0
 12 13  1  0  0  0  0
 12 10  1  0  0  0  0
 15 16  1  0  0  0  0
 16 14  1  6  0  0  0
 16 13  1  0  0  0  0
 17 16  1  0  0  0  0
 18 19  1  0  0  0  0
 18 20  1  0  0  0  0
 19 21  1  0  0  0  0
 20 23  1  0  0  0  0
 21 22  1  0  0  0  0
 23 22  1  0  0  0  0
 23 17  1  0  0  0  0
 26 25  2  0  0  0  0
 27 24  1  0  0  0  0
 27 26  1  0  0  0  0
 28 26  1  0  0  0  0
 29 33  1  0  0  0  0
 29 28  1  1  0  0  0
 30 32  1  0  0  0  0
 31 32  2  0  0  0  0
 32 29  1  0  0  0  0
 33 34  1  0  0  0  0
 35 34  1  0  0  0  0
 35 36  1  0  0  0  0
M  END
>  <MODEL>
9

>  <REMARK>
 VINA RESULT:      -6.9      5.175      8.551
  Name = 
  14 active torsions:
  status: ('A' for Active; 'I' for Inactive)
    1  A    between atoms: O_2  and  C_25
    2  A    between atoms: O_2  and  C_31
    3  A    between atoms: C_4  and  C_10
    4  A    between atoms: O_5  and  C_12
    5  A    between atoms: C_10  and  N_23
    6  A    between atoms: C_11  and  C_20
    7  A    between atoms: C_12  and  O_36
    8  A    between atoms: N_14  and  C_21
    9  A    between atoms: C_20  and  C_22
   10  A    between atoms: C_21  and  C_35
   11  A    between atoms: C_22  and  C_33
   12  A    between atoms: C_22  and  O_36
   13  A    between atoms: C_31  and  N_34
   14  A    between atoms: N_34  and  C_35
                            x       y       z     vdW  Elec       q    Type
                         _______ _______ _______ _____ _____    ______ ____

>  <TORSDO>
F 14

$$$$
