=
 OpenBabel11062415173D

 41 44  0  0  1  0  0  0  0  0999 V2000
  187.0770  177.7190  143.9890 N   0  0  0  0  0  0  0  0  0  0  0  0
  183.7120  178.4520  142.4860 C   0  0  0  0  0  3  0  0  0  0  0  0
  185.0550  178.0910  142.6100 C   0  0  0  0  0  3  0  0  0  0  0  0
  184.9400  178.4640  144.9960 C   0  0  0  0  0  3  0  0  0  0  0  0
  183.5980  178.8310  144.8740 C   0  0  0  0  0  3  0  0  0  0  0  0
  182.9830  178.8290  143.6190 C   0  0  0  0  0  0  0  0  0  0  0  0
  185.6880  178.0940  143.8660 C   0  0  0  0  0  0  0  0  0  0  0  0
  181.5400  179.1880  143.4930 C   0  0  0  0  0  2  0  0  0  0  0  0
  181.1220  179.2750  142.0290 C   0  0  2  0  0  3  0  0  0  0  0  0
  180.3090  180.3920  141.8390 O   0  0  0  0  0  1  0  0  0  0  0  0
  180.4760  175.9490  138.5850 O   0  0  0  0  0  0  0  0  0  0  0  0
  179.5910  177.4840  142.3960 O   0  0  0  0  0  0  0  0  0  0  0  0
  180.3970  178.0390  141.6030 C   0  0  0  0  0  0  0  0  0  0  0  0
  180.6610  177.4950  140.3050 N   0  0  0  0  0  2  0  0  0  0  0  0
  179.1090  175.1510  140.6950 S   0  0  0  0  0  1  0  0  0  0  0  0
  180.1630  176.2660  139.7610 C   0  0  0  0  0  0  0  0  0  0  0  0
  187.9700  178.3720  144.9420 C   0  0  0  0  0  2  0  0  0  0  0  0
  188.6900  178.3340  147.3170 C   0  0  2  0  0  3  0  0  0  0  0  0
  191.3920  176.0730  146.1780 C   0  0  1  0  0  3  0  0  0  0  0  0
  188.2280  177.4690  146.1430 C   0  0  2  0  0  3  0  0  0  0  0  0
  190.1710  176.1330  147.0360 C   0  0  0  0  0  2  0  0  0  0  0  0
  191.7250  177.4030  145.8380 O   0  0  0  0  0  0  0  0  0  0  0  0
  189.6850  177.4580  146.5790 C   0  0  2  0  0  0  0  0  0  0  0  0
  190.5790  178.0710  145.6980 O   0  0  0  0  0  0  0  0  0  0  0  0
  188.2390  177.7080  148.6220 C   0  0  0  0  0  1  0  0  0  0  0  0
  192.5310  175.4240  146.9410 C   0  0  0  0  0  2  0  0  0  0  0  0
  192.6210  176.0120  148.3400 C   0  0  0  0  0  1  0  0  0  0  0  0
  187.6080  176.5860  143.2400 C   0  0  0  0  0  2  0  0  0  0  0  0
  188.9280  176.9610  142.5960 C   0  0  0  0  0  2  0  0  0  0  0  0
  188.6730  177.4830  141.1920 C   0  0  0  0  0  2  0  0  0  0  0  0
  189.9760  177.5950  140.4120 C   0  0  0  0  0  2  0  0  0  0  0  0
  189.7780  177.2960  138.9980 N   0  0  0  0  0  0  0  0  0  0  0  0
  190.1340  175.9710  138.5020 C   0  0  0  0  0  1  0  0  0  0  0  0
  189.2180  178.2870  138.1230 C   0  0  0  0  0  0  0  0  0  0  0  0
  189.0470  179.4650  138.5340 O   0  0  0  0  0  0  0  0  0  0  0  0
  188.7710  177.9310  136.7400 C   0  0  0  0  0  2  0  0  0  0  0  0
  185.6060  177.1740  135.2660 C   0  0  0  0  0  2  0  0  0  0  0  0
  185.3200  177.0090  136.6840 N   0  0  0  0  0  2  0  0  0  0  0  0
  186.8630  177.9900  135.1600 C   0  0  0  0  0  2  0  0  0  0  0  0
  187.2820  178.1850  136.5880 C   0  0  1  0  0  3  0  0  0  0  0  0
  186.5230  177.2300  137.3760 N   0  0  0  0  0  2  0  0  0  0  0  0
  1 17  1  0  0  0  0
  2  3  2  0  0  0  0
  2  6  1  0  0  0  0
  3  7  1  0  0  0  0
  5  4  1  0  0  0  0
  6  5  2  0  0  0  0
  7  1  1  0  0  0  0
  7  4  2  0  0  0  0
  8  6  1  0  0  0  0
  9 10  1  1  0  0  0
  9  8  1  0  0  0  0
 11 16  2  0  0  0  0
 13  9  1  0  0  0  0
 13 12  2  0  0  0  0
 14 13  1  0  0  0  0
 16 14  1  0  0  0  0
 16 15  1  0  0  0  0
 18 25  1  1  0  0  0
 19 26  1  1  0  0  0
 19 21  1  0  0  0  0
 20 17  1  6  0  0  0
 20 23  1  0  0  0  0
 20 18  1  0  0  0  0
 22 19  1  0  0  0  0
 23 21  1  1  0  0  0
 23 18  1  0  0  0  0
 24 22  1  0  0  0  0
 24 23  1  0  0  0  0
 26 27  1  0  0  0  0
 28  1  1  0  0  0  0
 29 28  1  0  0  0  0
 30 29  1  0  0  0  0
 31 30  1  0  0  0  0
 32 31  1  0  0  0  0
 33 32  1  0  0  0  0
 34 35  2  0  0  0  0
 34 32  1  0  0  0  0
 36 34  1  0  0  0  0
 37 38  1  0  0  0  0
 38 41  1  0  0  0  0
 39 37  1  0  0  0  0
 39 40  1  0  0  0  0
 40 36  1  6  0  0  0
 40 41  1  0  0  0  0
M  END
>  <MODEL>
1

>  <REMARK>
 VINA RESULT:      -8.2      0.000      0.000
  Name = 
  14 active torsions:
  status: ('A' for Active; 'I' for Inactive)
    1  A    between atoms: C_3  and  C_13
    2  A    between atoms: C_3  and  C_25
    3  A    between atoms: C_4  and  C_8
    4  A    between atoms: C_4  and  C_24
    5  A    between atoms: C_5  and  C_6
    6  A    between atoms: C_8  and  C_36
    7  A    between atoms: N_10  and  C_13
    8  A    between atoms: C_12  and  C_35
    9  A    between atoms: N_18  and  C_35
   10  A    between atoms: N_18  and  C_38
   11  A    between atoms: N_18  and  C_41
   12  A    between atoms: C_25  and  C_38
   13  A    between atoms: C_31  and  C_39
   14  A    between atoms: C_32  and  C_39
                            x       y       z     vdW  Elec       q    Type
                         _______ _______ _______ _____ _____    ______ ____

>  <TORSDO>
F 14

$$$$
=
 OpenBabel11062415173D

 41 44  0  0  1  0  0  0  0  0999 V2000
  187.7040  177.5440  137.9660 N   0  0  0  0  0  0  0  0  0  0  0  0
  190.8300  177.1820  140.0170 C   0  0  0  0  0  3  0  0  0  0  0  0
  189.9530  177.1770  138.9310 C   0  0  0  0  0  3  0  0  0  0  0  0
  188.1620  177.9320  140.3690 C   0  0  0  0  0  3  0  0  0  0  0  0
  189.0350  177.9330  141.4580 C   0  0  0  0  0  3  0  0  0  0  0  0
  190.3700  177.5560  141.2860 C   0  0  0  0  0  0  0  0  0  0  0  0
  188.6060  177.5500  139.0930 C   0  0  0  0  0  0  0  0  0  0  0  0
  191.3130  177.5890  142.4420 C   0  0  0  0  0  2  0  0  0  0  0  0
  191.2210  176.3060  143.2620 C   0  0  2  0  0  3  0  0  0  0  0  0
  190.4300  175.3750  142.5880 O   0  0  0  0  0  1  0  0  0  0  0  0
  192.0840  176.8050  147.9890 O   0  0  0  0  0  0  0  0  0  0  0  0
  189.4230  176.8380  144.7360 O   0  0  0  0  0  0  0  0  0  0  0  0
  190.6500  176.5750  144.6160 C   0  0  0  0  0  0  0  0  0  0  0  0
  191.5230  176.5580  145.7510 N   0  0  0  0  0  2  0  0  0  0  0  0
  189.5640  177.4730  147.5890 S   0  0  0  0  0  1  0  0  0  0  0  0
  191.1960  176.9020  147.1040 C   0  0  0  0  0  0  0  0  0  0  0  0
  187.8830  176.6330  136.8380 C   0  0  0  0  0  2  0  0  0  0  0  0
  188.2130  174.2780  136.1290 C   0  0  2  0  0  3  0  0  0  0  0  0
  184.6960  173.7610  137.1610 C   0  0  1  0  0  3  0  0  0  0  0  0
  187.8440  175.1830  137.3060 C   0  0  2  0  0  3  0  0  0  0  0  0
  186.1010  173.3710  137.4810 C   0  0  0  0  0  2  0  0  0  0  0  0
  184.7210  174.4050  135.9040 O   0  0  0  0  0  0  0  0  0  0  0  0
  186.7750  174.3600  136.6050 C   0  0  2  0  0  0  0  0  0  0  0  0
  185.8640  175.0880  135.8370 O   0  0  0  0  0  0  0  0  0  0  0  0
  188.9130  173.0340  136.6400 C   0  0  0  0  0  1  0  0  0  0  0  0
  183.8140  172.5280  137.1020 C   0  0  0  0  0  2  0  0  0  0  0  0
  184.3370  171.5660  136.0470 C   0  0  0  0  0  1  0  0  0  0  0  0
  186.5040  178.3740  137.9730 C   0  0  0  0  0  2  0  0  0  0  0  0
  185.2810  177.5190  138.2420 C   0  0  0  0  0  2  0  0  0  0  0  0
  184.0330  178.3800  138.1400 C   0  0  0  0  0  2  0  0  0  0  0  0
  184.0210  179.4440  139.2280 C   0  0  0  0  0  2  0  0  0  0  0  0
  183.6430  178.8800  140.5200 N   0  0  0  0  0  0  0  0  0  0  0  0
  182.3520  178.2120  140.6440 C   0  0  0  0  0  1  0  0  0  0  0  0
  184.5430  178.9650  141.6350 C   0  0  0  0  0  0  0  0  0  0  0  0
  185.5870  179.6640  141.5500 O   0  0  0  0  0  0  0  0  0  0  0  0
  184.2950  178.1830  142.8870 C   0  0  0  0  0  2  0  0  0  0  0  0
  185.0280  178.4290  146.3750 C   0  0  0  0  0  2  0  0  0  0  0  0
  186.3210  178.0460  145.8270 N   0  0  0  0  0  2  0  0  0  0  0  0
  184.2050  178.9640  145.2370 C   0  0  0  0  0  2  0  0  0  0  0  0
  185.0890  178.7730  144.0400 C   0  0  1  0  0  3  0  0  0  0  0  0
  186.1440  177.8620  144.4450 N   0  0  0  0  0  2  0  0  0  0  0  0
  1 28  1  0  0  0  0
  1  7  1  0  0  0  0
  2  6  1  0  0  0  0
  3  7  1  0  0  0  0
  3  2  2  0  0  0  0
  4  5  1  0  0  0  0
  6  5  2  0  0  0  0
  6  8  1  0  0  0  0
  7  4  2  0  0  0  0
  8  9  1  0  0  0  0
  9 10  1  6  0  0  0
  9 13  1  0  0  0  0
 13 12  2  0  0  0  0
 13 14  1  0  0  0  0
 14 16  1  0  0  0  0
 16 15  1  0  0  0  0
 16 11  2  0  0  0  0
 17  1  1  0  0  0  0
 18 23  1  0  0  0  0
 18 25  1  1  0  0  0
 18 20  1  0  0  0  0
 19 26  1  6  0  0  0
 19 21  1  0  0  0  0
 20 17  1  6  0  0  0
 22 19  1  0  0  0  0
 23 20  1  0  0  0  0
 23 21  1  1  0  0  0
 24 22  1  0  0  0  0
 24 23  1  0  0  0  0
 27 26  1  0  0  0  0
 28 29  1  0  0  0  0
 30 29  1  0  0  0  0
 30 31  1  0  0  0  0
 31 32  1  0  0  0  0
 32 33  1  0  0  0  0
 32 34  1  0  0  0  0
 34 36  1  0  0  0  0
 35 34  2  0  0  0  0
 38 37  1  0  0  0  0
 39 37  1  0  0  0  0
 40 36  1  6  0  0  0
 40 41  1  0  0  0  0
 40 39  1  0  0  0  0
 41 38  1  0  0  0  0
M  END
>  <MODEL>
2

>  <REMARK>
 VINA RESULT:      -8.0      3.584      9.747
  Name = 
  14 active torsions:
  status: ('A' for Active; 'I' for Inactive)
    1  A    between atoms: C_3  and  C_13
    2  A    between atoms: C_3  and  C_25
    3  A    between atoms: C_4  and  C_8
    4  A    between atoms: C_4  and  C_24
    5  A    between atoms: C_5  and  C_6
    6  A    between atoms: C_8  and  C_36
    7  A    between atoms: N_10  and  C_13
    8  A    between atoms: C_12  and  C_35
    9  A    between atoms: N_18  and  C_35
   10  A    between atoms: N_18  and  C_38
   11  A    between atoms: N_18  and  C_41
   12  A    between atoms: C_25  and  C_38
   13  A    between atoms: C_31  and  C_39
   14  A    between atoms: C_32  and  C_39
                            x       y       z     vdW  Elec       q    Type
                         _______ _______ _______ _____ _____    ______ ____

>  <TORSDO>
F 14

$$$$
=
 OpenBabel11062415173D

 41 44  0  0  1  0  0  0  0  0999 V2000
  187.4060  178.0920  141.6560 N   0  0  0  0  0  0  0  0  0  0  0  0
  183.7550  178.9770  141.6900 C   0  0  0  0  0  3  0  0  0  0  0  0
  185.0570  178.7500  141.2390 C   0  0  0  0  0  3  0  0  0  0  0  0
  185.7290  178.1320  143.4780 C   0  0  0  0  0  3  0  0  0  0  0  0
  184.4290  178.3640  143.9330 C   0  0  0  0  0  3  0  0  0  0  0  0
  183.4410  178.7890  143.0410 C   0  0  0  0  0  0  0  0  0  0  0  0
  186.0620  178.3270  142.1270 C   0  0  0  0  0  0  0  0  0  0  0  0
  182.0440  179.0050  143.5190 C   0  0  0  0  0  2  0  0  0  0  0  0
  181.1270  179.4090  142.3690 C   0  0  2  0  0  3  0  0  0  0  0  0
  180.2460  180.4010  142.8000 O   0  0  0  0  0  1  0  0  0  0  0  0
  180.4820  176.2640  138.7600 O   0  0  0  0  0  0  0  0  0  0  0  0
  179.4840  177.6940  142.5840 O   0  0  0  0  0  0  0  0  0  0  0  0
  180.3590  178.2340  141.8560 C   0  0  0  0  0  0  0  0  0  0  0  0
  180.6610  177.7280  140.5510 N   0  0  0  0  0  2  0  0  0  0  0  0
  178.9660  175.4610  140.7630 S   0  0  0  0  0  1  0  0  0  0  0  0
  180.1250  176.5510  139.9310 C   0  0  0  0  0  0  0  0  0  0  0  0
  188.2830  177.1070  142.2850 C   0  0  0  0  0  2  0  0  0  0  0  0
  190.4670  176.7650  143.4140 C   0  0  2  0  0  3  0  0  0  0  0  0
  188.7720  177.9910  146.4680 C   0  0  1  0  0  3  0  0  0  0  0  0
  189.3910  177.7980  143.0710 C   0  0  2  0  0  3  0  0  0  0  0  0
  189.8550  178.3180  145.4940 C   0  0  0  0  0  2  0  0  0  0  0  0
  188.3980  176.6490  146.2360 O   0  0  0  0  0  0  0  0  0  0  0  0
  189.5290  177.2740  144.4920 C   0  0  2  0  0  0  0  0  0  0  0  0
  188.5000  176.4340  144.9240 O   0  0  0  0  0  0  0  0  0  0  0  0
  191.8230  177.4400  143.4730 C   0  0  0  0  0  1  0  0  0  0  0  0
  189.2800  178.1580  147.8880 C   0  0  0  0  0  2  0  0  0  0  0  0
  188.1200  178.0820  148.8670 C   0  0  0  0  0  1  0  0  0  0  0  0
  187.8970  178.7550  140.4530 C   0  0  0  0  0  2  0  0  0  0  0  0
  188.3080  177.7220  139.4220 C   0  0  0  0  0  2  0  0  0  0  0  0
  189.7020  178.0470  138.9120 C   0  0  0  0  0  2  0  0  0  0  0  0
  190.7430  177.1650  139.5900 C   0  0  0  0  0  2  0  0  0  0  0  0
  191.4710  176.3580  138.6170 N   0  0  0  0  0  0  0  0  0  0  0  0
  190.7230  175.4470  137.7580 C   0  0  0  0  0  1  0  0  0  0  0  0
  192.8970  176.4850  138.4960 C   0  0  0  0  0  0  0  0  0  0  0  0
  193.5410  177.1690  139.3350 O   0  0  0  0  0  0  0  0  0  0  0  0
  193.6320  175.8670  137.3490 C   0  0  0  0  0  2  0  0  0  0  0  0
  195.4490  172.8390  136.8090 C   0  0  0  0  0  2  0  0  0  0  0  0
  196.5030  173.7430  137.2430 N   0  0  0  0  0  2  0  0  0  0  0  0
  194.1420  173.4440  137.2360 C   0  0  0  0  0  2  0  0  0  0  0  0
  194.5410  174.7560  137.8460 C   0  0  1  0  0  3  0  0  0  0  0  0
  195.9120  175.0030  137.4360 N   0  0  0  0  0  2  0  0  0  0  0  0
  1  7  1  0  0  0  0
  1 17  1  0  0  0  0
  2  6  1  0  0  0  0
  3  2  2  0  0  0  0
  3  7  1  0  0  0  0
  4  5  1  0  0  0  0
  6  8  1  0  0  0  0
  6  5  2  0  0  0  0
  7  4  2  0  0  0  0
  9 10  1  1  0  0  0
  9  8  1  0  0  0  0
 11 16  2  0  0  0  0
 13  9  1  0  0  0  0
 13 12  2  0  0  0  0
 14 13  1  0  0  0  0
 16 14  1  0  0  0  0
 16 15  1  0  0  0  0
 18 25  1  1  0  0  0
 18 23  1  0  0  0  0
 19 26  1  1  0  0  0
 20 17  1  6  0  0  0
 20 18  1  0  0  0  0
 20 23  1  0  0  0  0
 21 19  1  0  0  0  0
 22 19  1  0  0  0  0
 23 24  1  0  0  0  0
 23 21  1  1  0  0  0
 24 22  1  0  0  0  0
 26 27  1  0  0  0  0
 28  1  1  0  0  0  0
 29 28  1  0  0  0  0
 30 29  1  0  0  0  0
 30 31  1  0  0  0  0
 32 31  1  0  0  0  0
 33 32  1  0  0  0  0
 34 32  1  0  0  0  0
 34 35  2  0  0  0  0
 36 34  1  0  0  0  0
 37 39  1  0  0  0  0
 37 38  1  0  0  0  0
 38 41  1  0  0  0  0
 39 40  1  0  0  0  0
 40 36  1  6  0  0  0
 41 40  1  0  0  0  0
M  END
>  <MODEL>
3

>  <REMARK>
 VINA RESULT:      -7.7      2.721      4.373
  Name = 
  14 active torsions:
  status: ('A' for Active; 'I' for Inactive)
    1  A    between atoms: C_3  and  C_13
    2  A    between atoms: C_3  and  C_25
    3  A    between atoms: C_4  and  C_8
    4  A    between atoms: C_4  and  C_24
    5  A    between atoms: C_5  and  C_6
    6  A    between atoms: C_8  and  C_36
    7  A    between atoms: N_10  and  C_13
    8  A    between atoms: C_12  and  C_35
    9  A    between atoms: N_18  and  C_35
   10  A    between atoms: N_18  and  C_38
   11  A    between atoms: N_18  and  C_41
   12  A    between atoms: C_25  and  C_38
   13  A    between atoms: C_31  and  C_39
   14  A    between atoms: C_32  and  C_39
                            x       y       z     vdW  Elec       q    Type
                         _______ _______ _______ _____ _____    ______ ____

>  <TORSDO>
F 14

$$$$
=
 OpenBabel11062415173D

 41 44  0  0  1  0  0  0  0  0999 V2000
  183.7880  178.9670  143.2250 N   0  0  0  0  0  0  0  0  0  0  0  0
  186.7200  178.4690  140.9290 C   0  0  0  0  0  3  0  0  0  0  0  0
  185.9630  178.6410  142.0900 C   0  0  0  0  0  3  0  0  0  0  0  0
  183.9460  178.7580  140.7620 C   0  0  0  0  0  3  0  0  0  0  0  0
  184.7000  178.5910  139.5990 C   0  0  0  0  0  3  0  0  0  0  0  0
  186.0880  178.4500  139.6800 C   0  0  0  0  0  0  0  0  0  0  0  0
  184.5660  178.7900  142.0220 C   0  0  0  0  0  0  0  0  0  0  0  0
  186.8920  178.2380  138.4410 C   0  0  0  0  0  2  0  0  0  0  0  0
  188.3740  178.0870  138.7670 C   0  0  2  0  0  3  0  0  0  0  0  0
  189.0660  179.2200  138.3380 O   0  0  0  0  0  1  0  0  0  0  0  0
  192.3220  175.4440  137.8900 O   0  0  0  0  0  0  0  0  0  0  0  0
  188.1790  176.0540  137.5350 O   0  0  0  0  0  0  0  0  0  0  0  0
  188.9450  176.8670  138.1190 C   0  0  0  0  0  0  0  0  0  0  0  0
  190.3540  176.6330  138.2060 N   0  0  0  0  0  2  0  0  0  0  0  0
  190.2550  174.0570  137.0190 S   0  0  0  0  0  1  0  0  0  0  0  0
  191.0720  175.4740  137.7580 C   0  0  0  0  0  0  0  0  0  0  0  0
  182.5010  178.3030  143.4150 C   0  0  0  0  0  2  0  0  0  0  0  0
  180.0460  178.5830  143.6470 C   0  0  2  0  0  3  0  0  0  0  0  0
  180.1600  180.0050  140.2310 C   0  0  1  0  0  3  0  0  0  0  0  0
  181.3650  179.3180  143.3990 C   0  0  2  0  0  3  0  0  0  0  0  0
  179.8630  180.3460  141.6540 C   0  0  0  0  0  2  0  0  0  0  0  0
  180.2430  178.5980  140.1510 O   0  0  0  0  0  0  0  0  0  0  0  0
  180.3830  179.0960  142.2590 C   0  0  2  0  0  0  0  0  0  0  0  0
  180.7850  178.1710  141.2930 O   0  0  0  0  0  0  0  0  0  0  0  0
  179.0790  179.4980  144.3730 C   0  0  0  0  0  1  0  0  0  0  0  0
  179.0520  180.5180  139.3310 C   0  0  0  0  0  2  0  0  0  0  0  0
  179.2190  182.0120  139.1020 C   0  0  0  0  0  1  0  0  0  0  0  0
  184.3220  179.7290  144.3480 C   0  0  0  0  0  2  0  0  0  0  0  0
  184.2430  178.9060  145.6190 C   0  0  0  0  0  2  0  0  0  0  0  0
  185.6130  178.8600  146.2750 C   0  0  0  0  0  2  0  0  0  0  0  0
  186.3470  177.5780  145.9040 C   0  0  0  0  0  2  0  0  0  0  0  0
  187.7180  177.5870  146.4010 N   0  0  0  0  0  0  0  0  0  0  0  0
  187.9800  178.1140  147.7360 C   0  0  0  0  0  1  0  0  0  0  0  0
  188.7820  177.0600  145.5930 C   0  0  0  0  0  0  0  0  0  0  0  0
  188.5620  176.7390  144.3950 O   0  0  0  0  0  0  0  0  0  0  0  0
  190.1430  176.8250  146.1670 C   0  0  0  0  0  2  0  0  0  0  0  0
  191.6390  177.3320  142.9630 C   0  0  0  0  0  2  0  0  0  0  0  0
  191.3220  178.6960  143.3610 N   0  0  0  0  0  2  0  0  0  0  0  0
  191.6250  176.4920  144.2080 C   0  0  0  0  0  2  0  0  0  0  0  0
  191.2030  177.4540  145.2800 C   0  0  1  0  0  3  0  0  0  0  0  0
  190.6680  178.6210  144.6020 N   0  0  0  0  0  2  0  0  0  0  0  0
  1 17  1  0  0  0  0
  1 28  1  0  0  0  0
  2  3  1  0  0  0  0
  4  7  1  0  0  0  0
  5  6  1  0  0  0  0
  5  4  2  0  0  0  0
  6  2  2  0  0  0  0
  7  3  2  0  0  0  0
  7  1  1  0  0  0  0
  8  9  1  0  0  0  0
  8  6  1  0  0  0  0
  9 10  1  6  0  0  0
 12 13  2  0  0  0  0
 13 14  1  0  0  0  0
 13  9  1  0  0  0  0
 15 16  1  0  0  0  0
 16 11  2  0  0  0  0
 16 14  1  0  0  0  0
 18 25  1  1  0  0  0
 19 26  1  6  0  0  0
 19 21  1  0  0  0  0
 20 17  1  6  0  0  0
 20 18  1  0  0  0  0
 22 19  1  0  0  0  0
 22 24  1  0  0  0  0
 23 21  1  6  0  0  0
 23 20  1  0  0  0  0
 23 18  1  0  0  0  0
 24 23  1  0  0  0  0
 27 26  1  0  0  0  0
 28 29  1  0  0  0  0
 29 30  1  0  0  0  0
 31 30  1  0  0  0  0
 31 32  1  0  0  0  0
 32 33  1  0  0  0  0
 34 36  1  0  0  0  0
 34 32  1  0  0  0  0
 35 34  2  0  0  0  0
 37 38  1  0  0  0  0
 37 39  1  0  0  0  0
 38 41  1  0  0  0  0
 39 40  1  0  0  0  0
 40 36  1  1  0  0  0
 41 40  1  0  0  0  0
M  END
>  <MODEL>
4

>  <REMARK>
 VINA RESULT:      -7.5      2.983      9.243
  Name = 
  14 active torsions:
  status: ('A' for Active; 'I' for Inactive)
    1  A    between atoms: C_3  and  C_13
    2  A    between atoms: C_3  and  C_25
    3  A    between atoms: C_4  and  C_8
    4  A    between atoms: C_4  and  C_24
    5  A    between atoms: C_5  and  C_6
    6  A    between atoms: C_8  and  C_36
    7  A    between atoms: N_10  and  C_13
    8  A    between atoms: C_12  and  C_35
    9  A    between atoms: N_18  and  C_35
   10  A    between atoms: N_18  and  C_38
   11  A    between atoms: N_18  and  C_41
   12  A    between atoms: C_25  and  C_38
   13  A    between atoms: C_31  and  C_39
   14  A    between atoms: C_32  and  C_39
                            x       y       z     vdW  Elec       q    Type
                         _______ _______ _______ _____ _____    ______ ____

>  <TORSDO>
F 14

$$$$
=
 OpenBabel11062415173D

 41 44  0  0  1  0  0  0  0  0999 V2000
  186.4020  178.0720  144.2470 N   0  0  0  0  0  0  0  0  0  0  0  0
  188.9640  176.6980  141.8660 C   0  0  0  0  0  3  0  0  0  0  0  0
  188.1960  176.8910  143.0170 C   0  0  0  0  0  3  0  0  0  0  0  0
  186.9770  178.6630  141.9120 C   0  0  0  0  0  3  0  0  0  0  0  0
  187.7470  178.4760  140.7620 C   0  0  0  0  0  3  0  0  0  0  0  0
  188.7430  177.4960  140.7380 C   0  0  0  0  0  0  0  0  0  0  0  0
  187.1940  177.8770  143.0560 C   0  0  0  0  0  0  0  0  0  0  0  0
  189.5440  177.2730  139.4980 C   0  0  0  0  0  2  0  0  0  0  0  0
  190.8860  176.6250  139.8210 C   0  0  2  0  0  3  0  0  0  0  0  0
  191.7540  177.5830  140.3440 O   0  0  0  0  0  1  0  0  0  0  0  0
  194.3910  176.8030  136.5000 O   0  0  0  0  0  0  0  0  0  0  0  0
  190.9980  174.9400  138.1380 O   0  0  0  0  0  0  0  0  0  0  0  0
  191.4890  176.0030  138.6030 C   0  0  0  0  0  0  0  0  0  0  0  0
  192.6360  176.6170  138.0080 N   0  0  0  0  0  2  0  0  0  0  0  0
  193.0860  174.5410  136.1260 S   0  0  0  0  0  1  0  0  0  0  0  0
  193.4230  176.1170  136.9180 C   0  0  0  0  0  0  0  0  0  0  0  0
  186.9410  178.7350  145.4320 C   0  0  0  0  0  2  0  0  0  0  0  0
  188.1620  178.4580  147.5750 C   0  0  2  0  0  3  0  0  0  0  0  0
  190.6930  176.6330  145.5830 C   0  0  1  0  0  3  0  0  0  0  0  0
  187.5130  177.7130  146.4070 C   0  0  2  0  0  3  0  0  0  0  0  0
  189.6870  176.4640  146.6730 C   0  0  0  0  0  2  0  0  0  0  0  0
  190.8560  178.0210  145.3810 O   0  0  0  0  0  0  0  0  0  0  0  0
  189.0270  177.7840  146.5260 C   0  0  2  0  0  0  0  0  0  0  0  0
  189.6660  178.5890  145.5800 O   0  0  0  0  0  0  0  0  0  0  0  0
  188.0480  177.6280  148.8380 C   0  0  0  0  0  1  0  0  0  0  0  0
  192.0110  176.0010  145.9900 C   0  0  0  0  0  2  0  0  0  0  0  0
  192.0480  175.8030  147.4960 C   0  0  0  0  0  1  0  0  0  0  0  0
  184.9890  177.7130  144.2650 C   0  0  0  0  0  2  0  0  0  0  0  0
  184.1970  178.7570  145.0270 C   0  0  0  0  0  2  0  0  0  0  0  0
  182.9730  179.1510  144.2170 C   0  0  0  0  0  2  0  0  0  0  0  0
  183.1680  178.8140  142.7450 C   0  0  0  0  0  2  0  0  0  0  0  0
  181.9320  178.9890  141.9900 N   0  0  0  0  0  0  0  0  0  0  0  0
  180.7380  179.4440  142.6920 C   0  0  0  0  0  1  0  0  0  0  0  0
  181.9090  178.7410  140.5760 C   0  0  0  0  0  0  0  0  0  0  0  0
  182.9070  178.2180  140.0120 O   0  0  0  0  0  0  0  0  0  0  0  0
  180.7380  179.1510  139.7400 C   0  0  0  0  0  2  0  0  0  0  0  0
  180.5020  181.5430  137.0960 C   0  0  0  0  0  2  0  0  0  0  0  0
  179.7370  182.1910  138.1520 N   0  0  0  0  0  2  0  0  0  0  0  0
  181.3550  180.4930  137.7490 C   0  0  0  0  0  2  0  0  0  0  0  0
  180.9490  180.5520  139.1930 C   0  0  1  0  0  3  0  0  0  0  0  0
  179.7100  181.3070  139.2430 N   0  0  0  0  0  2  0  0  0  0  0  0
  1 28  1  0  0  0  0
  1 17  1  0  0  0  0
  2  3  1  0  0  0  0
  3  7  2  0  0  0  0
  4  7  1  0  0  0  0
  5  4  2  0  0  0  0
  6  5  1  0  0  0  0
  6  2  2  0  0  0  0
  7  1  1  0  0  0  0
  8  9  1  0  0  0  0
  8  6  1  0  0  0  0
  9 10  1  6  0  0  0
 11 16  2  0  0  0  0
 12 13  2  0  0  0  0
 13  9  1  0  0  0  0
 14 13  1  0  0  0  0
 15 16  1  0  0  0  0
 16 14  1  0  0  0  0
 18 25  1  1  0  0  0
 19 26  1  1  0  0  0
 19 21  1  0  0  0  0
 20 17  1  6  0  0  0
 20 23  1  0  0  0  0
 20 18  1  0  0  0  0
 22 24  1  0  0  0  0
 22 19  1  0  0  0  0
 23 21  1  1  0  0  0
 23 18  1  0  0  0  0
 24 23  1  0  0  0  0
 26 27  1  0  0  0  0
 28 29  1  0  0  0  0
 30 29  1  0  0  0  0
 31 30  1  0  0  0  0
 32 33  1  0  0  0  0
 32 31  1  0  0  0  0
 34 32  1  0  0  0  0
 35 34  2  0  0  0  0
 36 34  1  0  0  0  0
 37 39  1  0  0  0  0
 37 38  1  0  0  0  0
 38 41  1  0  0  0  0
 39 40  1  0  0  0  0
 40 41  1  0  0  0  0
 40 36  1  6  0  0  0
M  END
>  <MODEL>
5

>  <REMARK>
 VINA RESULT:      -7.5      3.463      7.482
  Name = 
  14 active torsions:
  status: ('A' for Active; 'I' for Inactive)
    1  A    between atoms: C_3  and  C_13
    2  A    between atoms: C_3  and  C_25
    3  A    between atoms: C_4  and  C_8
    4  A    between atoms: C_4  and  C_24
    5  A    between atoms: C_5  and  C_6
    6  A    between atoms: C_8  and  C_36
    7  A    between atoms: N_10  and  C_13
    8  A    between atoms: C_12  and  C_35
    9  A    between atoms: N_18  and  C_35
   10  A    between atoms: N_18  and  C_38
   11  A    between atoms: N_18  and  C_41
   12  A    between atoms: C_25  and  C_38
   13  A    between atoms: C_31  and  C_39
   14  A    between atoms: C_32  and  C_39
                            x       y       z     vdW  Elec       q    Type
                         _______ _______ _______ _____ _____    ______ ____

>  <TORSDO>
F 14

$$$$
=
 OpenBabel11062415173D

 41 44  0  0  1  0  0  0  0  0999 V2000
  189.1400  177.4580  140.1510 N   0  0  0  0  0  0  0  0  0  0  0  0
  185.8430  178.3560  138.5900 C   0  0  0  0  0  3  0  0  0  0  0  0
  187.1450  177.8780  138.7470 C   0  0  0  0  0  3  0  0  0  0  0  0
  187.1040  178.5200  141.0780 C   0  0  0  0  0  3  0  0  0  0  0  0
  185.8040  179.0040  140.9230 C   0  0  0  0  0  3  0  0  0  0  0  0
  185.1720  178.9260  139.6780 C   0  0  0  0  0  0  0  0  0  0  0  0
  187.7940  177.9550  139.9930 C   0  0  0  0  0  0  0  0  0  0  0  0
  183.7700  179.4120  139.5190 C   0  0  0  0  0  2  0  0  0  0  0  0
  182.7680  178.3610  139.9830 C   0  0  2  0  0  3  0  0  0  0  0  0
  182.4170  177.5420  138.9090 O   0  0  0  0  0  1  0  0  0  0  0  0
  179.3750  178.2450  143.4210 O   0  0  0  0  0  0  0  0  0  0  0  0
  181.1010  180.0650  140.0480 O   0  0  0  0  0  0  0  0  0  0  0  0
  181.5450  179.0010  140.5560 C   0  0  0  0  0  0  0  0  0  0  0  0
  180.9200  178.4010  141.6960 N   0  0  0  0  0  2  0  0  0  0  0  0
  179.0520  180.5000  142.0920 S   0  0  0  0  0  1  0  0  0  0  0  0
  179.8200  178.9190  142.4570 C   0  0  0  0  0  0  0  0  0  0  0  0
  189.4950  176.5150  141.2080 C   0  0  0  0  0  2  0  0  0  0  0  0
  190.5190  176.2360  143.4510 C   0  0  2  0  0  3  0  0  0  0  0  0
  187.4450  177.8380  144.7520 C   0  0  1  0  0  3  0  0  0  0  0  0
  189.9630  177.2560  142.4550 C   0  0  2  0  0  3  0  0  0  0  0  0
  188.9200  178.0250  144.6170 C   0  0  0  0  0  2  0  0  0  0  0  0
  187.1680  176.4900  144.4360 O   0  0  0  0  0  0  0  0  0  0  0  0
  189.1710  176.8870  143.7000 C   0  0  2  0  0  0  0  0  0  0  0  0
  188.0200  176.1290  143.4750 O   0  0  0  0  0  0  0  0  0  0  0  0
  191.6200  176.8750  144.2750 C   0  0  0  0  0  1  0  0  0  0  0  0
  187.0100  178.1450  146.1730 C   0  0  0  0  0  2  0  0  0  0  0  0
  185.4950  178.2570  146.2390 C   0  0  0  0  0  1  0  0  0  0  0  0
  190.1740  177.7960  139.1780 C   0  0  0  0  0  2  0  0  0  0  0  0
  191.0870  176.6050  138.9560 C   0  0  0  0  0  2  0  0  0  0  0  0
  191.7860  176.7510  137.6150 C   0  0  0  0  0  2  0  0  0  0  0  0
  191.5010  175.5500  136.7240 C   0  0  0  0  0  2  0  0  0  0  0  0
  190.1000  175.5090  136.3190 N   0  0  0  0  0  0  0  0  0  0  0  0
  189.5800  176.5770  135.4720 C   0  0  0  0  0  1  0  0  0  0  0  0
  189.2620  174.4180  136.7320 C   0  0  0  0  0  0  0  0  0  0  0  0
  189.6850  173.5820  137.5730 O   0  0  0  0  0  0  0  0  0  0  0  0
  187.9060  174.2170  136.1320 C   0  0  0  0  0  2  0  0  0  0  0  0
  184.4850  174.1950  137.1610 C   0  0  0  0  0  2  0  0  0  0  0  0
  185.0000  173.0030  137.8180 N   0  0  0  0  0  2  0  0  0  0  0  0
  185.6680  175.0470  136.7990 C   0  0  0  0  0  2  0  0  0  0  0  0
  186.8450  174.2170  137.2190 C   0  0  1  0  0  3  0  0  0  0  0  0
  186.3460  172.8710  137.4380 N   0  0  0  0  0  2  0  0  0  0  0  0
  1 17  1  0  0  0  0
  2  3  2  0  0  0  0
  2  6  1  0  0  0  0
  3  7  1  0  0  0  0
  5  4  1  0  0  0  0
  6  5  2  0  0  0  0
  7  1  1  0  0  0  0
  7  4  2  0  0  0  0
  8  6  1  0  0  0  0
  8  9  1  0  0  0  0
  9 10  1  6  0  0  0
  9 13  1  0  0  0  0
 12 13  2  0  0  0  0
 13 14  1  0  0  0  0
 14 16  1  0  0  0  0
 15 16  1  0  0  0  0
 16 11  2  0  0  0  0
 18 23  1  0  0  0  0
 18 25  1  1  0  0  0
 19 26  1  1  0  0  0
 20 17  1  6  0  0  0
 20 18  1  0  0  0  0
 20 23  1  0  0  0  0
 21 19  1  0  0  0  0
 22 19  1  0  0  0  0
 23 21  1  1  0  0  0
 24 23  1  0  0  0  0
 24 22  1  0  0  0  0
 26 27  1  0  0  0  0
 28  1  1  0  0  0  0
 29 28  1  0  0  0  0
 30 29  1  0  0  0  0
 31 30  1  0  0  0  0
 32 31  1  0  0  0  0
 32 34  1  0  0  0  0
 33 32  1  0  0  0  0
 34 35  2  0  0  0  0
 36 34  1  0  0  0  0
 37 38  1  0  0  0  0
 39 37  1  0  0  0  0
 39 40  1  0  0  0  0
 40 36  1  6  0  0  0
 40 41  1  0  0  0  0
 41 38  1  0  0  0  0
M  END
>  <MODEL>
6

>  <REMARK>
 VINA RESULT:      -7.2      2.798      4.431
  Name = 
  14 active torsions:
  status: ('A' for Active; 'I' for Inactive)
    1  A    between atoms: C_3  and  C_13
    2  A    between atoms: C_3  and  C_25
    3  A    between atoms: C_4  and  C_8
    4  A    between atoms: C_4  and  C_24
    5  A    between atoms: C_5  and  C_6
    6  A    between atoms: C_8  and  C_36
    7  A    between atoms: N_10  and  C_13
    8  A    between atoms: C_12  and  C_35
    9  A    between atoms: N_18  and  C_35
   10  A    between atoms: N_18  and  C_38
   11  A    between atoms: N_18  and  C_41
   12  A    between atoms: C_25  and  C_38
   13  A    between atoms: C_31  and  C_39
   14  A    between atoms: C_32  and  C_39
                            x       y       z     vdW  Elec       q    Type
                         _______ _______ _______ _____ _____    ______ ____

>  <TORSDO>
F 14

$$$$
=
 OpenBabel11062415173D

 41 44  0  0  1  0  0  0  0  0999 V2000
  187.1380  177.8700  144.0820 N   0  0  0  0  0  0  0  0  0  0  0  0
  188.7360  178.2550  140.7040 C   0  0  0  0  0  3  0  0  0  0  0  0
  187.8920  178.4540  141.7980 C   0  0  0  0  0  3  0  0  0  0  0  0
  189.0020  176.6630  142.9850 C   0  0  0  0  0  3  0  0  0  0  0  0
  189.8430  176.4580  141.8900 C   0  0  0  0  0  3  0  0  0  0  0  0
  189.7100  177.2510  140.7460 C   0  0  0  0  0  0  0  0  0  0  0  0
  188.0120  177.6590  142.9530 C   0  0  0  0  0  0  0  0  0  0  0  0
  190.6310  177.0550  139.5890 C   0  0  0  0  0  2  0  0  0  0  0  0
  190.1640  175.9040  138.7040 C   0  0  2  0  0  3  0  0  0  0  0  0
  191.2700  175.2010  138.2270 O   0  0  0  0  0  1  0  0  0  0  0  0
  185.7650  177.0640  137.0760 O   0  0  0  0  0  0  0  0  0  0  0  0
  189.9150  176.7510  136.4880 O   0  0  0  0  0  0  0  0  0  0  0  0
  189.3460  176.4060  137.5580 C   0  0  0  0  0  0  0  0  0  0  0  0
  187.9270  176.5120  137.7160 N   0  0  0  0  0  2  0  0  0  0  0  0
  187.4930  177.8020  135.2250 S   0  0  0  0  0  1  0  0  0  0  0  0
  186.9890  177.0750  136.7870 C   0  0  0  0  0  0  0  0  0  0  0  0
  187.5920  178.5470  145.2940 C   0  0  0  0  0  2  0  0  0  0  0  0
  188.5060  178.2880  147.5860 C   0  0  2  0  0  3  0  0  0  0  0  0
  191.1940  176.3000  145.9960 C   0  0  1  0  0  3  0  0  0  0  0  0
  187.9840  177.5340  146.3620 C   0  0  2  0  0  3  0  0  0  0  0  0
  190.0460  176.2060  146.9470 C   0  0  0  0  0  2  0  0  0  0  0  0
  191.4440  177.6730  145.7830 O   0  0  0  0  0  0  0  0  0  0  0  0
  189.4720  177.5470  146.6800 C   0  0  2  0  0  0  0  0  0  0  0  0
  190.2640  178.2950  145.8070 O   0  0  0  0  0  0  0  0  0  0  0  0
  188.1900  177.5030  148.8440 C   0  0  0  0  0  1  0  0  0  0  0  0
  192.4180  175.6290  146.5910 C   0  0  0  0  0  2  0  0  0  0  0  0
  192.4610  175.8650  148.0920 C   0  0  0  0  0  1  0  0  0  0  0  0
  185.7260  177.5120  144.0040 C   0  0  0  0  0  2  0  0  0  0  0  0
  184.8990  178.4740  144.8360 C   0  0  0  0  0  2  0  0  0  0  0  0
  183.7220  178.9680  144.0120 C   0  0  0  0  0  2  0  0  0  0  0  0
  183.9100  178.6250  142.5400 C   0  0  0  0  0  2  0  0  0  0  0  0
  182.6540  178.7220  141.8060 N   0  0  0  0  0  0  0  0  0  0  0  0
  181.4270  179.0030  142.5440 C   0  0  0  0  0  1  0  0  0  0  0  0
  182.6390  178.5690  140.3780 C   0  0  0  0  0  0  0  0  0  0  0  0
  183.6780  178.1900  139.7750 O   0  0  0  0  0  0  0  0  0  0  0  0
  181.4220  178.9110  139.5780 C   0  0  0  0  0  2  0  0  0  0  0  0
  180.5440  181.0310  136.8400 C   0  0  0  0  0  2  0  0  0  0  0  0
  180.6570  181.9880  137.9310 N   0  0  0  0  0  2  0  0  0  0  0  0
  181.2710  179.7870  137.2650 C   0  0  0  0  0  2  0  0  0  0  0  0
  181.7080  180.0930  138.6680 C   0  0  1  0  0  3  0  0  0  0  0  0
  180.9490  181.2550  139.0940 N   0  0  0  0  0  2  0  0  0  0  0  0
  1 17  1  0  0  0  0
  2  6  2  0  0  0  0
  2  3  1  0  0  0  0
  3  7  2  0  0  0  0
  5  4  2  0  0  0  0
  6  5  1  0  0  0  0
  7  4  1  0  0  0  0
  7  1  1  0  0  0  0
  8  6  1  0  0  0  0
  9 10  1  6  0  0  0
  9  8  1  0  0  0  0
 12 13  2  0  0  0  0
 13 14  1  0  0  0  0
 13  9  1  0  0  0  0
 15 16  1  0  0  0  0
 16 11  2  0  0  0  0
 16 14  1  0  0  0  0
 18 25  1  1  0  0  0
 19 26  1  1  0  0  0
 19 21  1  0  0  0  0
 20 17  1  6  0  0  0
 20 23  1  0  0  0  0
 20 18  1  0  0  0  0
 22 24  1  0  0  0  0
 22 19  1  0  0  0  0
 23 21  1  1  0  0  0
 23 18  1  0  0  0  0
 24 23  1  0  0  0  0
 26 27  1  0  0  0  0
 28  1  1  0  0  0  0
 28 29  1  0  0  0  0
 30 29  1  0  0  0  0
 31 30  1  0  0  0  0
 32 31  1  0  0  0  0
 32 33  1  0  0  0  0
 34 32  1  0  0  0  0
 35 34  2  0  0  0  0
 36 34  1  0  0  0  0
 37 39  1  0  0  0  0
 37 38  1  0  0  0  0
 38 41  1  0  0  0  0
 39 40  1  0  0  0  0
 40 41  1  0  0  0  0
 40 36  1  1  0  0  0
M  END
>  <MODEL>
7

>  <REMARK>
 VINA RESULT:      -7.2      2.784      6.386
  Name = 
  14 active torsions:
  status: ('A' for Active; 'I' for Inactive)
    1  A    between atoms: C_3  and  C_13
    2  A    between atoms: C_3  and  C_25
    3  A    between atoms: C_4  and  C_8
    4  A    between atoms: C_4  and  C_24
    5  A    between atoms: C_5  and  C_6
    6  A    between atoms: C_8  and  C_36
    7  A    between atoms: N_10  and  C_13
    8  A    between atoms: C_12  and  C_35
    9  A    between atoms: N_18  and  C_35
   10  A    between atoms: N_18  and  C_38
   11  A    between atoms: N_18  and  C_41
   12  A    between atoms: C_25  and  C_38
   13  A    between atoms: C_31  and  C_39
   14  A    between atoms: C_32  and  C_39
                            x       y       z     vdW  Elec       q    Type
                         _______ _______ _______ _____ _____    ______ ____

>  <TORSDO>
F 14

$$$$
=
 OpenBabel11062415173D

 41 44  0  0  1  0  0  0  0  0999 V2000
  189.2090  177.5430  140.6800 N   0  0  0  0  0  0  0  0  0  0  0  0
  185.7630  179.0050  141.0010 C   0  0  0  0  0  3  0  0  0  0  0  0
  187.0420  178.5500  141.3260 C   0  0  0  0  0  3  0  0  0  0  0  0
  187.4190  177.9440  139.0160 C   0  0  0  0  0  3  0  0  0  0  0  0
  186.1380  178.3930  138.6880 C   0  0  0  0  0  3  0  0  0  0  0  0
  185.3060  178.9210  139.6800 C   0  0  0  0  0  0  0  0  0  0  0  0
  187.8860  178.0110  140.3390 C   0  0  0  0  0  0  0  0  0  0  0  0
  183.9500  179.4330  139.3250 C   0  0  0  0  0  2  0  0  0  0  0  0
  182.8820  178.3740  139.5750 C   0  0  2  0  0  3  0  0  0  0  0  0
  182.2480  178.0560  138.3740 O   0  0  0  0  0  1  0  0  0  0  0  0
  181.6650  178.7410  144.2360 O   0  0  0  0  0  0  0  0  0  0  0  0
  180.8580  179.4830  140.1790 O   0  0  0  0  0  0  0  0  0  0  0  0
  181.8750  178.8510  140.5720 C   0  0  0  0  0  0  0  0  0  0  0  0
  182.1080  178.6030  141.9620 N   0  0  0  0  0  2  0  0  0  0  0  0
  179.8990  180.1400  142.8650 S   0  0  0  0  0  1  0  0  0  0  0  0
  181.3320  179.0770  143.0710 C   0  0  0  0  0  0  0  0  0  0  0  0
  189.4370  176.6110  141.7810 C   0  0  0  0  0  2  0  0  0  0  0  0
  190.2190  176.3450  144.1210 C   0  0  2  0  0  3  0  0  0  0  0  0
  187.1160  178.1260  145.0740 C   0  0  1  0  0  3  0  0  0  0  0  0
  189.8160  177.3620  143.0520 C   0  0  2  0  0  3  0  0  0  0  0  0
  188.6050  178.2390  145.0820 C   0  0  0  0  0  2  0  0  0  0  0  0
  186.8050  176.7850  144.7610 O   0  0  0  0  0  0  0  0  0  0  0  0
  188.8880  177.0660  144.2200 C   0  0  2  0  0  0  0  0  0  0  0  0
  187.7280  176.3580  143.8980 O   0  0  0  0  0  0  0  0  0  0  0  0
  191.2640  176.9520  145.0370 C   0  0  0  0  0  1  0  0  0  0  0  0
  186.5590  178.4920  146.4370 C   0  0  0  0  0  2  0  0  0  0  0  0
  185.0590  178.2480  146.4660 C   0  0  0  0  0  1  0  0  0  0  0  0
  190.3570  177.9000  139.8550 C   0  0  0  0  0  2  0  0  0  0  0  0
  191.1390  176.6540  139.4870 C   0  0  0  0  0  2  0  0  0  0  0  0
  190.5130  176.0100  138.2610 C   0  0  0  0  0  2  0  0  0  0  0  0
  191.3750  176.2450  137.0280 C   0  0  0  0  0  2  0  0  0  0  0  0
  192.3880  175.2050  136.8810 N   0  0  0  0  0  0  0  0  0  0  0  0
  191.9660  173.8090  136.8630 C   0  0  0  0  0  1  0  0  0  0  0  0
  193.7710  175.5620  136.7320 C   0  0  0  0  0  0  0  0  0  0  0  0
  194.1340  176.7580  136.8890 O   0  0  0  0  0  0  0  0  0  0  0  0
  194.7910  174.5440  136.3290 C   0  0  0  0  0  2  0  0  0  0  0  0
  197.5480  174.5550  138.6000 C   0  0  0  0  0  2  0  0  0  0  0  0
  196.4260  174.7910  139.4960 N   0  0  0  0  0  2  0  0  0  0  0  0
  196.9880  173.9820  137.3290 C   0  0  0  0  0  2  0  0  0  0  0  0
  195.5040  174.0020  137.5550 C   0  0  1  0  0  3  0  0  0  0  0  0
  195.2710  174.8650  138.6990 N   0  0  0  0  0  2  0  0  0  0  0  0
  1 17  1  0  0  0  0
  2  3  1  0  0  0  0
  4  7  1  0  0  0  0
  5  4  2  0  0  0  0
  5  6  1  0  0  0  0
  6  2  2  0  0  0  0
  7  1  1  0  0  0  0
  7  3  2  0  0  0  0
  8  9  1  0  0  0  0
  8  6  1  0  0  0  0
  9 10  1  6  0  0  0
  9 13  1  0  0  0  0
 12 13  2  0  0  0  0
 13 14  1  0  0  0  0
 14 16  1  0  0  0  0
 15 16  1  0  0  0  0
 16 11  2  0  0  0  0
 18 23  1  0  0  0  0
 18 25  1  1  0  0  0
 19 21  1  0  0  0  0
 19 26  1  1  0  0  0
 20 17  1  6  0  0  0
 20 18  1  0  0  0  0
 20 23  1  0  0  0  0
 22 19  1  0  0  0  0
 23 21  1  1  0  0  0
 24 23  1  0  0  0  0
 24 22  1  0  0  0  0
 26 27  1  0  0  0  0
 28  1  1  0  0  0  0
 29 28  1  0  0  0  0
 30 29  1  0  0  0  0
 31 30  1  0  0  0  0
 32 31  1  0  0  0  0
 33 32  1  0  0  0  0
 34 32  1  0  0  0  0
 34 35  2  0  0  0  0
 36 34  1  0  0  0  0
 37 38  1  0  0  0  0
 39 40  1  0  0  0  0
 39 37  1  0  0  0  0
 40 36  1  6  0  0  0
 40 41  1  0  0  0  0
 41 38  1  0  0  0  0
M  END
>  <MODEL>
8

>  <REMARK>
 VINA RESULT:      -7.2      3.513      5.787
  Name = 
  14 active torsions:
  status: ('A' for Active; 'I' for Inactive)
    1  A    between atoms: C_3  and  C_13
    2  A    between atoms: C_3  and  C_25
    3  A    between atoms: C_4  and  C_8
    4  A    between atoms: C_4  and  C_24
    5  A    between atoms: C_5  and  C_6
    6  A    between atoms: C_8  and  C_36
    7  A    between atoms: N_10  and  C_13
    8  A    between atoms: C_12  and  C_35
    9  A    between atoms: N_18  and  C_35
   10  A    between atoms: N_18  and  C_38
   11  A    between atoms: N_18  and  C_41
   12  A    between atoms: C_25  and  C_38
   13  A    between atoms: C_31  and  C_39
   14  A    between atoms: C_32  and  C_39
                            x       y       z     vdW  Elec       q    Type
                         _______ _______ _______ _____ _____    ______ ____

>  <TORSDO>
F 14

$$$$
=
 OpenBabel11062415173D

 41 44  0  0  1  0  0  0  0  0999 V2000
  189.6090  177.3740  139.8960 N   0  0  0  0  0  0  0  0  0  0  0  0
  193.2010  176.7630  138.9770 C   0  0  0  0  0  3  0  0  0  0  0  0
  192.0630  177.3020  139.5820 C   0  0  0  0  0  3  0  0  0  0  0  0
  190.6690  175.7700  138.3350 C   0  0  0  0  0  3  0  0  0  0  0  0
  191.8040  175.2320  137.7250 C   0  0  0  0  0  3  0  0  0  0  0  0
  193.0720  175.7290  138.0420 C   0  0  0  0  0  0  0  0  0  0  0  0
  190.7820  176.8140  139.2670 C   0  0  0  0  0  0  0  0  0  0  0  0
  194.2880  175.1330  137.4160 C   0  0  0  0  0  2  0  0  0  0  0  0
  195.0230  174.2270  138.3980 C   0  0  2  0  0  3  0  0  0  0  0  0
  196.1430  174.8890  138.8980 O   0  0  0  0  0  1  0  0  0  0  0  0
  198.6630  171.2720  137.2350 O   0  0  0  0  0  0  0  0  0  0  0  0
  194.5600  172.1800  137.2640 O   0  0  0  0  0  0  0  0  0  0  0  0
  195.4370  172.9490  137.7420 C   0  0  0  0  0  0  0  0  0  0  0  0
  196.8270  172.6130  137.6990 N   0  0  0  0  0  2  0  0  0  0  0  0
  196.4250  170.0190  136.6200 S   0  0  0  0  0  1  0  0  0  0  0  0
  197.4120  171.3920  137.2250 C   0  0  0  0  0  0  0  0  0  0  0  0
  189.0270  176.7900  141.1010 C   0  0  0  0  0  2  0  0  0  0  0  0
  190.3000  175.8530  143.0140 C   0  0  2  0  0  3  0  0  0  0  0  0
  187.9650  177.7710  145.1540 C   0  0  1  0  0  3  0  0  0  0  0  0
  189.8570  177.1470  142.3270 C   0  0  2  0  0  3  0  0  0  0  0  0
  189.3990  177.6660  144.7510 C   0  0  0  0  0  2  0  0  0  0  0  0
  187.3180  176.6050  144.6900 O   0  0  0  0  0  0  0  0  0  0  0  0
  189.2110  176.7100  143.6330 C   0  0  2  0  0  0  0  0  0  0  0  0
  187.8880  176.2740  143.5310 O   0  0  0  0  0  0  0  0  0  0  0  0
  191.6420  176.0640  143.6870 C   0  0  0  0  0  1  0  0  0  0  0  0
  187.8540  177.8700  146.6640 C   0  0  0  0  0  2  0  0  0  0  0  0
  189.1750  177.4820  147.3070 C   0  0  0  0  0  1  0  0  0  0  0  0
  189.0310  178.6220  139.4090 C   0  0  0  0  0  2  0  0  0  0  0  0
  188.5210  178.4410  137.9930 C   0  0  0  0  0  2  0  0  0  0  0  0
  187.3060  177.5270  138.0090 C   0  0  0  0  0  2  0  0  0  0  0  0
  186.0780  178.2540  137.4770 C   0  0  0  0  0  2  0  0  0  0  0  0
  184.8690  177.8420  138.1830 N   0  0  0  0  0  0  0  0  0  0  0  0
  184.1980  176.6140  137.7720 C   0  0  0  0  0  1  0  0  0  0  0  0
  184.3720  178.6260  139.2790 C   0  0  0  0  0  0  0  0  0  0  0  0
  184.8790  179.7510  139.5300 O   0  0  0  0  0  0  0  0  0  0  0  0
  183.2940  178.1020  140.1750 C   0  0  0  0  0  2  0  0  0  0  0  0
  185.3240  179.2150  142.8960 C   0  0  0  0  0  2  0  0  0  0  0  0
  184.0010  179.1930  143.5030 N   0  0  0  0  0  2  0  0  0  0  0  0
  185.2600  178.3600  141.6620 C   0  0  0  0  0  2  0  0  0  0  0  0
  183.8190  177.9470  141.5920 C   0  0  1  0  0  3  0  0  0  0  0  0
  183.0930  178.8180  142.4980 N   0  0  0  0  0  2  0  0  0  0  0  0
  1 17  1  0  0  0  0
  2  3  1  0  0  0  0
  4  7  1  0  0  0  0
  5  6  1  0  0  0  0
  5  4  2  0  0  0  0
  6  2  2  0  0  0  0
  7  3  2  0  0  0  0
  7  1  1  0  0  0  0
  8  6  1  0  0  0  0
  8  9  1  0  0  0  0
  9 10  1  6  0  0  0
 12 13  2  0  0  0  0
 13  9  1  0  0  0  0
 14 13  1  0  0  0  0
 15 16  1  0  0  0  0
 16 11  2  0  0  0  0
 16 14  1  0  0  0  0
 18 23  1  0  0  0  0
 18 25  1  1  0  0  0
 19 26  1  1  0  0  0
 20 17  1  6  0  0  0
 20 18  1  0  0  0  0
 20 23  1  0  0  0  0
 21 19  1  0  0  0  0
 22 19  1  0  0  0  0
 23 21  1  1  0  0  0
 24 23  1  0  0  0  0
 24 22  1  0  0  0  0
 26 27  1  0  0  0  0
 28  1  1  0  0  0  0
 29 30  1  0  0  0  0
 29 28  1  0  0  0  0
 31 30  1  0  0  0  0
 31 32  1  0  0  0  0
 32 34  1  0  0  0  0
 33 32  1  0  0  0  0
 34 35  2  0  0  0  0
 34 36  1  0  0  0  0
 37 38  1  0  0  0  0
 39 37  1  0  0  0  0
 40 36  1  6  0  0  0
 40 39  1  0  0  0  0
 40 41  1  0  0  0  0
 41 38  1  0  0  0  0
M  END
>  <MODEL>
9

>  <REMARK>
 VINA RESULT:      -7.2      5.061      9.720
  Name = 
  14 active torsions:
  status: ('A' for Active; 'I' for Inactive)
    1  A    between atoms: C_3  and  C_13
    2  A    between atoms: C_3  and  C_25
    3  A    between atoms: C_4  and  C_8
    4  A    between atoms: C_4  and  C_24
    5  A    between atoms: C_5  and  C_6
    6  A    between atoms: C_8  and  C_36
    7  A    between atoms: N_10  and  C_13
    8  A    between atoms: C_12  and  C_35
    9  A    between atoms: N_18  and  C_35
   10  A    between atoms: N_18  and  C_38
   11  A    between atoms: N_18  and  C_41
   12  A    between atoms: C_25  and  C_38
   13  A    between atoms: C_31  and  C_39
   14  A    between atoms: C_32  and  C_39
                            x       y       z     vdW  Elec       q    Type
                         _______ _______ _______ _____ _____    ______ ____

>  <TORSDO>
F 14

$$$$
