=
 OpenBabel11062415443D

 27 30  0  0  1  0  0  0  0  0999 V2000
  190.0950  177.6710  138.3200 C   0  0  2  0  0  3  0  0  0  0  0  0
  191.1170  177.3300  146.1280 O   0  0  0  0  0  0  0  0  0  0  0  0
  188.5880  177.7490  140.8100 C   0  0  2  0  0  3  0  0  0  0  0  0
  190.6260  177.3640  142.1070 C   0  0  2  0  0  3  0  0  0  0  0  0
  190.8640  177.4280  139.6220 C   0  0  1  0  0  3  0  0  0  0  0  0
  188.4920  178.8090  139.8580 O   0  0  0  0  0  0  0  0  0  0  0  0
  191.4380  176.2590  142.7390 C   0  0  0  0  0  3  0  0  0  0  0  0
  189.5340  177.8580  142.9870 C   0  0  0  0  0  0  0  0  0  0  0  0
  188.8010  179.5730  137.7070 O   0  0  0  0  0  0  0  0  0  0  0  0
  189.6820  177.8900  144.3170 C   0  0  0  0  0  3  0  0  0  0  0  0
  188.3300  178.3020  142.2190 C   0  0  2  0  0  3  0  0  0  0  0  0
  190.8400  177.1910  144.9080 C   0  0  0  0  0  0  0  0  0  0  0  0
  189.9590  177.0120  140.7950 C   0  0  2  0  0  3  0  0  0  0  0  0
  191.5930  176.2330  144.0700 C   0  0  0  0  0  3  0  0  0  0  0  0
  189.0820  178.7250  138.5950 C   0  0  0  0  0  0  0  0  0  0  0  0
  184.4200  178.3450  142.8360 C   0  0  0  0  0  2  0  0  0  0  0  0
  184.9500  178.4710  145.3350 C   0  0  0  0  0  0  0  0  0  0  0  0
  184.7390  178.9140  146.6720 N   0  0  0  0  0  1  0  0  0  0  0  0
  184.1010  179.0000  144.2090 C   0  0  0  0  0  2  0  0  0  0  0  0
  186.0890  177.9660  144.9870 C   0  0  0  0  0  0  0  0  0  0  0  0
  187.0770  177.5490  144.2630 C   0  0  0  0  0  3  0  0  0  0  0  0
  185.8280  178.7160  142.3220 C   0  0  0  0  0  2  0  0  0  0  0  0
  186.9900  177.7640  142.7630 C   0  0  1  0  0  3  0  0  0  0  0  0
  193.2610  177.2290  139.5840 O   0  0  0  0  0  1  0  0  0  0  0  0
  192.0720  176.5120  139.4390 C   0  0  0  0  0  2  0  0  0  0  0  0
  189.4540  176.5040  137.8910 O   0  0  0  0  0  0  0  0  0  0  0  0
  189.7520  176.4140  136.5320 C   0  0  0  0  0  1  0  0  0  0  0  0
  1 26  1  1  0  0  0
  1 15  1  0  0  0  0
  1  5  1  0  0  0  0
  3  6  1  6  0  0  0
  3 11  1  0  0  0  0
  4  7  1  1  0  0  0
  4  8  1  0  0  0  0
  5 25  1  6  0  0  0
  5 13  1  0  0  0  0
  7 14  2  0  0  0  0
  8 10  2  0  0  0  0
  9 15  2  0  0  0  0
 10 12  1  0  0  0  0
 11 23  1  0  0  0  0
 11  8  1  1  0  0  0
 12  2  2  0  0  0  0
 13  3  1  0  0  0  0
 13  4  1  0  0  0  0
 14 12  1  0  0  0  0
 15  6  1  0  0  0  0
 16 19  1  0  0  0  0
 17 18  1  0  0  0  0
 19 17  1  0  0  0  0
 20 17  2  0  0  0  0
 21 20  2  0  0  0  0
 22 23  1  0  0  0  0
 22 16  1  0  0  0  0
 23 21  1  0  0  0  0
 25 24  1  0  0  0  0
 27 26  1  0  0  0  0
M  END
>  <MODEL>
1

>  <REMARK>
 VINA RESULT:      -9.8      0.000      0.000
  Name = 
  3 active torsions:
  status: ('A' for Active; 'I' for Inactive)
    1  A    between atoms: C_5  and  O_8
    2  A    between atoms: C_11  and  C_14
    3  A    between atoms: C_20  and  C_26
                            x       y       z     vdW  Elec       q    Type
                         _______ _______ _______ _____ _____    ______ ____

>  <TORSDO>
F 3

$$$$
=
 OpenBabel11062415443D

 27 30  0  0  1  0  0  0  0  0999 V2000
  188.5880  177.3890  137.7580 C   0  0  2  0  0  3  0  0  0  0  0  0
  191.5970  178.1800  144.9990 O   0  0  0  0  0  0  0  0  0  0  0  0
  187.7670  177.6870  140.5350 C   0  0  2  0  0  3  0  0  0  0  0  0
  190.0970  177.6360  141.2760 C   0  0  2  0  0  3  0  0  0  0  0  0
  189.6850  177.3830  138.8270 C   0  0  1  0  0  3  0  0  0  0  0  0
  187.3170  178.5990  139.5320 O   0  0  0  0  0  0  0  0  0  0  0  0
  191.1590  176.6900  141.7870 C   0  0  0  0  0  3  0  0  0  0  0  0
  189.2180  178.1600  142.3550 C   0  0  0  0  0  0  0  0  0  0  0  0
  186.9820  179.0880  137.3060 O   0  0  0  0  0  0  0  0  0  0  0  0
  189.6960  178.3810  143.5860 C   0  0  0  0  0  3  0  0  0  0  0  0
  187.8170  178.4040  141.8920 C   0  0  2  0  0  3  0  0  0  0  0  0
  191.0350  177.8580  143.9210 C   0  0  0  0  0  0  0  0  0  0  0  0
  189.1600  177.0610  140.2370 C   0  0  2  0  0  3  0  0  0  0  0  0
  191.6500  176.8560  143.0230 C   0  0  0  0  0  3  0  0  0  0  0  0
  187.5710  178.3910  138.1750 C   0  0  0  0  0  0  0  0  0  0  0  0
  184.2660  178.3290  143.6400 C   0  0  0  0  0  2  0  0  0  0  0  0
  185.5030  178.6030  145.8620 C   0  0  0  0  0  0  0  0  0  0  0  0
  185.6720  179.1060  147.1840 N   0  0  0  0  0  1  0  0  0  0  0  0
  184.3330  179.0410  145.0200 C   0  0  0  0  0  2  0  0  0  0  0  0
  186.5120  178.1250  145.2110 C   0  0  0  0  0  0  0  0  0  0  0  0
  187.2630  177.7090  144.2420 C   0  0  0  0  0  3  0  0  0  0  0  0
  185.4390  178.7270  142.7180 C   0  0  0  0  0  2  0  0  0  0  0  0
  186.7270  177.8430  142.8290 C   0  0  1  0  0  3  0  0  0  0  0  0
  190.6770  175.1950  138.7060 O   0  0  0  0  0  1  0  0  0  0  0  0
  190.8990  176.5440  138.4300 C   0  0  0  0  0  2  0  0  0  0  0  0
  187.9890  176.1300  137.6460 O   0  0  0  0  0  0  0  0  0  0  0  0
  187.9650  175.8680  136.2760 C   0  0  0  0  0  1  0  0  0  0  0  0
  1 26  1  1  0  0  0
  1 15  1  0  0  0  0
  1  5  1  0  0  0  0
  3  6  1  6  0  0  0
  3 11  1  0  0  0  0
  4  7  1  1  0  0  0
  4  8  1  0  0  0  0
  5 25  1  6  0  0  0
  5 13  1  0  0  0  0
  7 14  2  0  0  0  0
  8 10  2  0  0  0  0
  9 15  2  0  0  0  0
 10 12  1  0  0  0  0
 11  8  1  1  0  0  0
 11 23  1  0  0  0  0
 12  2  2  0  0  0  0
 13  3  1  0  0  0  0
 13  4  1  0  0  0  0
 14 12  1  0  0  0  0
 15  6  1  0  0  0  0
 16 19  1  0  0  0  0
 17 18  1  0  0  0  0
 19 17  1  0  0  0  0
 20 17  2  0  0  0  0
 21 20  2  0  0  0  0
 22 23  1  0  0  0  0
 22 16  1  0  0  0  0
 23 21  1  0  0  0  0
 25 24  1  0  0  0  0
 27 26  1  0  0  0  0
M  END
>  <MODEL>
2

>  <REMARK>
 VINA RESULT:      -9.0      1.267      1.321
  Name = 
  3 active torsions:
  status: ('A' for Active; 'I' for Inactive)
    1  A    between atoms: C_5  and  O_8
    2  A    between atoms: C_11  and  C_14
    3  A    between atoms: C_20  and  C_26
                            x       y       z     vdW  Elec       q    Type
                         _______ _______ _______ _____ _____    ______ ____

>  <TORSDO>
F 3

$$$$
=
 OpenBabel11062415443D

 27 30  0  0  1  0  0  0  0  0999 V2000
  189.6640  177.6170  140.3970 C   0  0  2  0  0  3  0  0  0  0  0  0
  186.2710  178.4340  147.4640 O   0  0  0  0  0  0  0  0  0  0  0  0
  187.0430  177.8800  141.6380 C   0  0  2  0  0  3  0  0  0  0  0  0
  188.0490  177.8780  143.8680 C   0  0  2  0  0  3  0  0  0  0  0  0
  189.6010  177.6290  141.9280 C   0  0  1  0  0  3  0  0  0  0  0  0
  187.4710  178.7880  140.6210 O   0  0  0  0  0  0  0  0  0  0  0  0
  188.3960  176.9530  145.0100 C   0  0  0  0  0  3  0  0  0  0  0  0
  186.6490  178.3760  143.9280 C   0  0  0  0  0  0  0  0  0  0  0  0
  188.8950  179.2820  138.8790 O   0  0  0  0  0  0  0  0  0  0  0  0
  186.0490  178.6000  145.1030 C   0  0  0  0  0  3  0  0  0  0  0  0
  186.0540  178.5910  142.5730 C   0  0  2  0  0  3  0  0  0  0  0  0
  186.7040  178.1050  146.3300 C   0  0  0  0  0  0  0  0  0  0  0  0
  188.2070  177.2880  142.4830 C   0  0  2  0  0  3  0  0  0  0  0  0
  187.8020  177.1220  146.1990 C   0  0  0  0  0  3  0  0  0  0  0  0
  188.6550  178.5940  139.9060 C   0  0  0  0  0  0  0  0  0  0  0  0
  182.7130  177.7830  140.6090 C   0  0  0  0  0  2  0  0  0  0  0  0
  181.4960  179.1850  142.3680 C   0  0  0  0  0  0  0  0  0  0  0  0
  180.5100  180.1090  142.8170 N   0  0  0  0  0  1  0  0  0  0  0  0
  181.6420  178.8700  140.9020 C   0  0  0  0  0  2  0  0  0  0  0  0
  182.5320  178.9290  143.1000 C   0  0  0  0  0  0  0  0  0  0  0  0
  183.7070  178.5320  143.4690 C   0  0  0  0  0  3  0  0  0  0  0  0
  184.1430  178.2660  140.9340 C   0  0  0  0  0  2  0  0  0  0  0  0
  184.6390  178.0010  142.3960 C   0  0  1  0  0  3  0  0  0  0  0  0
  190.3830  175.4680  142.6390 O   0  0  0  0  0  1  0  0  0  0  0  0
  190.7230  176.8200  142.5760 C   0  0  0  0  0  2  0  0  0  0  0  0
  189.3710  176.3460  139.8930 O   0  0  0  0  0  0  0  0  0  0  0  0
  190.2950  176.1480  138.8680 C   0  0  0  0  0  1  0  0  0  0  0  0
  1 26  1  6  0  0  0
  1  5  1  0  0  0  0
  3  6  1  6  0  0  0
  3 13  1  0  0  0  0
  3 11  1  0  0  0  0
  4  8  1  0  0  0  0
  4  7  1  1  0  0  0
  5 13  1  0  0  0  0
  5 25  1  1  0  0  0
  7 14  2  0  0  0  0
  8 10  2  0  0  0  0
  9 15  2  0  0  0  0
 10 12  1  0  0  0  0
 11  8  1  1  0  0  0
 12  2  2  0  0  0  0
 13  4  1  0  0  0  0
 14 12  1  0  0  0  0
 15  1  1  0  0  0  0
 15  6  1  0  0  0  0
 16 19  1  0  0  0  0
 16 22  1  0  0  0  0
 17 18  1  0  0  0  0
 17 20  2  0  0  0  0
 19 17  1  0  0  0  0
 20 21  2  0  0  0  0
 22 23  1  0  0  0  0
 23 11  1  0  0  0  0
 23 21  1  0  0  0  0
 25 24  1  0  0  0  0
 27 26  1  0  0  0  0
M  END
>  <MODEL>
3

>  <REMARK>
 VINA RESULT:      -8.9      2.299      3.386
  Name = 
  3 active torsions:
  status: ('A' for Active; 'I' for Inactive)
    1  A    between atoms: C_5  and  O_8
    2  A    between atoms: C_11  and  C_14
    3  A    between atoms: C_20  and  C_26
                            x       y       z     vdW  Elec       q    Type
                         _______ _______ _______ _____ _____    ______ ____

>  <TORSDO>
F 3

$$$$
=
 OpenBabel11062415443D

 27 30  0  0  1  0  0  0  0  0999 V2000
  187.9340  177.9610  138.6680 C   0  0  2  0  0  3  0  0  0  0  0  0
  183.8040  178.3760  145.3690 O   0  0  0  0  0  0  0  0  0  0  0  0
  188.2950  177.9840  141.5570 C   0  0  2  0  0  3  0  0  0  0  0  0
  185.8940  178.3020  141.9000 C   0  0  2  0  0  3  0  0  0  0  0  0
  186.6940  178.1910  139.5370 C   0  0  1  0  0  3  0  0  0  0  0  0
  188.8060  176.9140  140.7590 O   0  0  0  0  0  0  0  0  0  0  0  0
  184.8600  179.3820  142.1120 C   0  0  0  0  0  3  0  0  0  0  0  0
  186.5480  177.8670  143.1630 C   0  0  0  0  0  0  0  0  0  0  0  0
  189.4260  176.1060  138.6940 O   0  0  0  0  0  0  0  0  0  0  0  0
  185.8710  177.8500  144.3170 C   0  0  0  0  0  3  0  0  0  0  0  0
  187.9740  177.4630  142.9650 C   0  0  2  0  0  3  0  0  0  0  0  0
  184.5500  178.5080  144.3640 C   0  0  0  0  0  0  0  0  0  0  0  0
  187.0270  178.6620  140.9630 C   0  0  2  0  0  3  0  0  0  0  0  0
  184.1740  179.4210  143.2630 C   0  0  0  0  0  3  0  0  0  0  0  0
  188.7800  176.9540  139.3640 C   0  0  0  0  0  0  0  0  0  0  0  0
  191.5390  178.3350  144.4500 C   0  0  0  0  0  2  0  0  0  0  0  0
  190.9010  176.9010  146.4700 C   0  0  0  0  0  0  0  0  0  0  0  0
  191.1600  175.9740  147.5190 N   0  0  0  0  0  1  0  0  0  0  0  0
  191.9750  177.2480  145.4710 C   0  0  0  0  0  2  0  0  0  0  0  0
  189.6880  177.1350  146.0890 C   0  0  0  0  0  0  0  0  0  0  0  0
  188.6760  177.5160  145.3780 C   0  0  0  0  0  3  0  0  0  0  0  0
  190.4270  177.8360  143.5020 C   0  0  0  0  0  2  0  0  0  0  0  0
  188.9570  178.0650  143.9910 C   0  0  1  0  0  3  0  0  0  0  0  0
  184.5580  178.2710  138.4320 O   0  0  0  0  0  1  0  0  0  0  0  0
  185.6360  179.0530  138.8490 C   0  0  0  0  0  2  0  0  0  0  0  0
  188.6570  179.1470  138.5020 O   0  0  0  0  0  0  0  0  0  0  0  0
  189.0030  179.1660  137.1510 C   0  0  0  0  0  1  0  0  0  0  0  0
  1 26  1  1  0  0  0
  1 15  1  0  0  0  0
  1  5  1  0  0  0  0
  3  6  1  6  0  0  0
  3 11  1  0  0  0  0
  4  7  1  1  0  0  0
  4  8  1  0  0  0  0
  5 25  1  6  0  0  0
  5 13  1  0  0  0  0
  7 14  2  0  0  0  0
  8 10  2  0  0  0  0
  9 15  2  0  0  0  0
 10 12  1  0  0  0  0
 11  8  1  1  0  0  0
 11 23  1  0  0  0  0
 12  2  2  0  0  0  0
 13  3  1  0  0  0  0
 13  4  1  0  0  0  0
 14 12  1  0  0  0  0
 15  6  1  0  0  0  0
 16 19  1  0  0  0  0
 17 18  1  0  0  0  0
 19 17  1  0  0  0  0
 20 17  2  0  0  0  0
 21 20  2  0  0  0  0
 22 23  1  0  0  0  0
 22 16  1  0  0  0  0
 23 21  1  0  0  0  0
 24 25  1  0  0  0  0
 27 26  1  0  0  0  0
M  END
>  <MODEL>
4

>  <REMARK>
 VINA RESULT:      -8.3      2.535      5.167
  Name = 
  3 active torsions:
  status: ('A' for Active; 'I' for Inactive)
    1  A    between atoms: C_5  and  O_8
    2  A    between atoms: C_11  and  C_14
    3  A    between atoms: C_20  and  C_26
                            x       y       z     vdW  Elec       q    Type
                         _______ _______ _______ _____ _____    ______ ____

>  <TORSDO>
F 3

$$$$
=
 OpenBabel11062415443D

 27 30  0  0  1  0  0  0  0  0999 V2000
  190.5590  177.7850  145.4420 C   0  0  2  0  0  3  0  0  0  0  0  0
  183.9930  179.0590  141.2740 O   0  0  0  0  0  0  0  0  0  0  0  0
  189.5190  177.5790  142.7310 C   0  0  2  0  0  3  0  0  0  0  0  0
  187.3010  178.2910  143.4800 C   0  0  2  0  0  3  0  0  0  0  0  0
  189.0730  178.0850  145.2280 C   0  0  1  0  0  3  0  0  0  0  0  0
  190.6900  178.3460  143.0140 O   0  0  0  0  0  0  0  0  0  0  0  0
  185.9710  177.7420  143.9350 C   0  0  0  0  0  3  0  0  0  0  0  0
  187.4110  178.3980  142.0010 C   0  0  0  0  0  0  0  0  0  0  0  0
  192.4360  178.8440  144.4310 O   0  0  0  0  0  0  0  0  0  0  0  0
  186.3400  178.6840  141.2510 C   0  0  0  0  0  3  0  0  0  0  0  0
  188.8040  178.1700  141.5070 C   0  0  2  0  0  3  0  0  0  0  0  0
  185.0080  178.6380  141.8850 C   0  0  0  0  0  0  0  0  0  0  0  0
  188.5160  177.5010  143.9180 C   0  0  2  0  0  3  0  0  0  0  0  0
  184.8740  177.9790  143.2030 C   0  0  0  0  0  3  0  0  0  0  0  0
  191.2950  178.3370  144.2730 C   0  0  0  0  0  0  0  0  0  0  0  0
  190.6910  176.0510  138.7470 C   0  0  0  0  0  2  0  0  0  0  0  0
  189.4530  177.4600  137.0080 C   0  0  0  0  0  0  0  0  0  0  0  0
  189.3320  178.1680  135.7780 N   0  0  0  0  0  1  0  0  0  0  0  0
  190.7690  176.8510  137.4170 C   0  0  0  0  0  2  0  0  0  0  0  0
  188.6140  177.6740  137.9690 C   0  0  0  0  0  0  0  0  0  0  0  0
  188.0780  177.7060  139.1470 C   0  0  0  0  0  3  0  0  0  0  0  0
  190.4160  176.9620  139.9630 C   0  0  0  0  0  2  0  0  0  0  0  0
  188.9080  177.2000  140.3110 C   0  0  1  0  0  3  0  0  0  0  0  0
  188.8700  178.1230  147.6250 O   0  0  0  0  0  1  0  0  0  0  0  0
  188.2160  177.7530  146.4490 C   0  0  0  0  0  2  0  0  0  0  0  0
  190.7850  176.4070  145.5310 O   0  0  0  0  0  0  0  0  0  0  0  0
  191.7390  176.2680  146.5390 C   0  0  0  0  0  1  0  0  0  0  0  0
  1 26  1  6  0  0  0
  2 12  2  0  0  0  0
  3  6  1  1  0  0  0
  3 13  1  0  0  0  0
  4 13  1  0  0  0  0
  4  7  1  6  0  0  0
  5  1  1  0  0  0  0
  5 25  1  1  0  0  0
  6 15  1  0  0  0  0
  8  4  1  0  0  0  0
 10 12  1  0  0  0  0
 10  8  2  0  0  0  0
 11  8  1  1  0  0  0
 11  3  1  0  0  0  0
 12 14  1  0  0  0  0
 13  5  1  0  0  0  0
 14  7  2  0  0  0  0
 15  9  2  0  0  0  0
 15  1  1  0  0  0  0
 16 22  1  0  0  0  0
 17 19  1  0  0  0  0
 17 20  2  0  0  0  0
 18 17  1  0  0  0  0
 19 16  1  0  0  0  0
 20 21  2  0  0  0  0
 21 23  1  0  0  0  0
 22 23  1  0  0  0  0
 23 11  1  0  0  0  0
 25 24  1  0  0  0  0
 26 27  1  0  0  0  0
M  END
>  <MODEL>
5

>  <REMARK>
 VINA RESULT:      -8.3      3.196      6.899
  Name = 
  3 active torsions:
  status: ('A' for Active; 'I' for Inactive)
    1  A    between atoms: C_5  and  O_8
    2  A    between atoms: C_11  and  C_14
    3  A    between atoms: C_20  and  C_26
                            x       y       z     vdW  Elec       q    Type
                         _______ _______ _______ _____ _____    ______ ____

>  <TORSDO>
F 3

$$$$
=
 OpenBabel11062415443D

 27 30  0  0  1  0  0  0  0  0999 V2000
  185.3410  178.6070  138.2060 C   0  0  2  0  0  3  0  0  0  0  0  0
  191.6240  177.7480  142.8860 O   0  0  0  0  0  0  0  0  0  0  0  0
  186.0540  178.3080  141.0130 C   0  0  2  0  0  3  0  0  0  0  0  0
  188.4170  178.0540  140.4320 C   0  0  2  0  0  3  0  0  0  0  0  0
  186.8130  178.3470  138.5400 C   0  0  1  0  0  3  0  0  0  0  0  0
  185.2850  179.4250  140.5630 O   0  0  0  0  0  0  0  0  0  0  0  0
  189.4610  177.0010  140.1480 C   0  0  0  0  0  3  0  0  0  0  0  0
  188.2650  178.3470  141.8820 C   0  0  0  0  0  0  0  0  0  0  0  0
  183.9540  180.3920  138.9520 O   0  0  0  0  0  0  0  0  0  0  0  0
  189.3150  178.2860  142.7090 C   0  0  0  0  0  3  0  0  0  0  0  0
  186.8630  178.7110  142.2540 C   0  0  2  0  0  3  0  0  0  0  0  0
  190.5650  177.6780  142.2110 C   0  0  0  0  0  0  0  0  0  0  0  0
  187.0220  177.7370  139.9370 C   0  0  2  0  0  3  0  0  0  0  0  0
  190.5180  176.8840  140.9640 C   0  0  0  0  0  3  0  0  0  0  0  0
  184.8020  179.5120  139.2560 C   0  0  0  0  0  0  0  0  0  0  0  0
  184.7570  178.3600  145.5880 C   0  0  0  0  0  2  0  0  0  0  0  0
  186.9800  177.9770  146.7940 C   0  0  0  0  0  0  0  0  0  0  0  0
  187.8890  178.1050  147.8830 N   0  0  0  0  0  1  0  0  0  0  0  0
  185.6480  178.6800  146.8210 C   0  0  0  0  0  2  0  0  0  0  0  0
  187.4080  177.6360  145.6220 C   0  0  0  0  0  0  0  0  0  0  0  0
  187.4690  177.4520  144.3430 C   0  0  0  0  0  3  0  0  0  0  0  0
  185.3450  178.9270  144.2770 C   0  0  0  0  0  2  0  0  0  0  0  0
  186.3220  177.9800  143.5010 C   0  0  1  0  0  3  0  0  0  0  0  0
  187.2150  178.1060  136.1810 O   0  0  0  0  0  1  0  0  0  0  0  0
  187.5510  177.5940  137.4360 C   0  0  0  0  0  2  0  0  0  0  0  0
  184.6110  177.4130  138.1950 O   0  0  0  0  0  0  0  0  0  0  0  0
  183.8010  177.5020  137.0640 C   0  0  0  0  0  1  0  0  0  0  0  0
  1 26  1  1  0  0  0
  1  5  1  0  0  0  0
  1 15  1  0  0  0  0
  3  6  1  6  0  0  0
  3 11  1  0  0  0  0
  4  7  1  1  0  0  0
  4  8  1  0  0  0  0
  5 25  1  6  0  0  0
  5 13  1  0  0  0  0
  7 14  2  0  0  0  0
  8 10  2  0  0  0  0
  9 15  2  0  0  0  0
 11  8  1  6  0  0  0
 11 23  1  0  0  0  0
 12 10  1  0  0  0  0
 12  2  2  0  0  0  0
 13  4  1  0  0  0  0
 13  3  1  0  0  0  0
 14 12  1  0  0  0  0
 15  6  1  0  0  0  0
 16 19  1  0  0  0  0
 17 19  1  0  0  0  0
 17 18  1  0  0  0  0
 20 17  2  0  0  0  0
 21 20  2  0  0  0  0
 22 16  1  0  0  0  0
 23 22  1  0  0  0  0
 23 21  1  0  0  0  0
 24 25  1  0  0  0  0
 27 26  1  0  0  0  0
M  END
>  <MODEL>
6

>  <REMARK>
 VINA RESULT:      -8.1      2.522      3.606
  Name = 
  3 active torsions:
  status: ('A' for Active; 'I' for Inactive)
    1  A    between atoms: C_5  and  O_8
    2  A    between atoms: C_11  and  C_14
    3  A    between atoms: C_20  and  C_26
                            x       y       z     vdW  Elec       q    Type
                         _______ _______ _______ _____ _____    ______ ____

>  <TORSDO>
F 3

$$$$
=
 OpenBabel11062415443D

 27 30  0  0  1  0  0  0  0  0999 V2000
  187.0610  177.4570  137.1380 C   0  0  2  0  0  3  0  0  0  0  0  0
  194.3180  177.2680  140.2090 O   0  0  0  0  0  0  0  0  0  0  0  0
  188.4380  177.1610  139.6850 C   0  0  2  0  0  3  0  0  0  0  0  0
  190.6140  177.2360  138.5690 C   0  0  2  0  0  3  0  0  0  0  0  0
  188.5910  177.3800  137.1130 C   0  0  1  0  0  3  0  0  0  0  0  0
  187.4590  178.1830  139.4920 O   0  0  0  0  0  0  0  0  0  0  0  0
  191.6810  176.3370  137.9910 C   0  0  0  0  0  3  0  0  0  0  0  0
  190.7700  177.4580  140.0310 C   0  0  0  0  0  0  0  0  0  0  0  0
  185.6840  179.0210  138.2880 O   0  0  0  0  0  0  0  0  0  0  0  0
  191.9840  177.5070  140.5940 C   0  0  0  0  0  3  0  0  0  0  0  0
  189.4600  177.6250  140.7330 C   0  0  2  0  0  3  0  0  0  0  0  0
  193.1460  177.0830  139.7890 C   0  0  0  0  0  0  0  0  0  0  0  0
  189.1900  176.7560  138.3850 C   0  0  2  0  0  3  0  0  0  0  0  0
  192.9050  176.3320  138.5370 C   0  0  0  0  0  3  0  0  0  0  0  0
  186.6780  178.2500  138.3370 C   0  0  0  0  0  0  0  0  0  0  0  0
  188.1570  176.8480  144.3900 C   0  0  0  0  0  2  0  0  0  0  0  0
  190.6080  176.8540  145.1210 C   0  0  0  0  0  0  0  0  0  0  0  0
  191.6800  177.1280  146.0180 N   0  0  0  0  0  1  0  0  0  0  0  0
  189.2070  177.3050  145.4420 C   0  0  0  0  0  2  0  0  0  0  0  0
  190.8460  176.6140  143.8730 C   0  0  0  0  0  0  0  0  0  0  0  0
  190.6810  176.4640  142.5980 C   0  0  0  0  0  3  0  0  0  0  0  0
  188.3640  177.5310  143.0210 C   0  0  0  0  0  2  0  0  0  0  0  0
  189.3150  176.7890  142.0230 C   0  0  1  0  0  3  0  0  0  0  0  0
  188.5160  177.3310  134.7090 O   0  0  0  0  0  1  0  0  0  0  0  0
  189.1360  176.7660  135.8250 C   0  0  0  0  0  2  0  0  0  0  0  0
  186.4960  176.1800  137.2190 O   0  0  0  0  0  0  0  0  0  0  0  0
  185.4270  176.2070  136.3240 C   0  0  0  0  0  1  0  0  0  0  0  0
  1 26  1  1  0  0  0
  1 15  1  0  0  0  0
  3  6  1  6  0  0  0
  3 11  1  0  0  0  0
  4  7  1  1  0  0  0
  4  8  1  0  0  0  0
  5 25  1  6  0  0  0
  5  1  1  0  0  0  0
  5 13  1  0  0  0  0
  7 14  2  0  0  0  0
  8 10  2  0  0  0  0
  9 15  2  0  0  0  0
 11  8  1  6  0  0  0
 11 23  1  0  0  0  0
 12  2  2  0  0  0  0
 12 10  1  0  0  0  0
 13  4  1  0  0  0  0
 13  3  1  0  0  0  0
 14 12  1  0  0  0  0
 15  6  1  0  0  0  0
 16 19  1  0  0  0  0
 17 19  1  0  0  0  0
 17 18  1  0  0  0  0
 20 17  2  0  0  0  0
 21 20  2  0  0  0  0
 22 16  1  0  0  0  0
 23 21  1  0  0  0  0
 23 22  1  0  0  0  0
 24 25  1  0  0  0  0
 27 26  1  0  0  0  0
M  END
>  <MODEL>
7

>  <REMARK>
 VINA RESULT:      -8.0      2.730      4.371
  Name = 
  3 active torsions:
  status: ('A' for Active; 'I' for Inactive)
    1  A    between atoms: C_5  and  O_8
    2  A    between atoms: C_11  and  C_14
    3  A    between atoms: C_20  and  C_26
                            x       y       z     vdW  Elec       q    Type
                         _______ _______ _______ _____ _____    ______ ____

>  <TORSDO>
F 3

$$$$
=
 OpenBabel11062415443D

 27 30  0  0  1  0  0  0  0  0999 V2000
  184.8270  178.5650  144.1000 C   0  0  2  0  0  3  0  0  0  0  0  0
  192.0580  175.5670  145.0170 O   0  0  0  0  0  0  0  0  0  0  0  0
  187.2750  178.0540  142.6100 C   0  0  2  0  0  3  0  0  0  0  0  0
  188.3820  177.2220  144.6270 C   0  0  2  0  0  3  0  0  0  0  0  0
  186.0320  178.0290  144.8780 C   0  0  1  0  0  3  0  0  0  0  0  0
  186.0220  177.5290  142.1700 O   0  0  0  0  0  0  0  0  0  0  0  0
  189.2730  177.6700  145.7610 C   0  0  0  0  0  3  0  0  0  0  0  0
  189.1420  176.8220  143.4130 C   0  0  0  0  0  0  0  0  0  0  0  0
  183.7200  177.5800  142.2370 O   0  0  0  0  0  0  0  0  0  0  0  0
  190.3440  176.2430  143.5140 C   0  0  0  0  0  3  0  0  0  0  0  0
  188.4080  177.1270  142.1460 C   0  0  2  0  0  3  0  0  0  0  0  0
  191.0120  176.2410  144.8310 C   0  0  0  0  0  0  0  0  0  0  0  0
  187.3710  178.2430  144.1520 C   0  0  2  0  0  3  0  0  0  0  0  0
  190.4960  177.1370  145.8880 C   0  0  0  0  0  3  0  0  0  0  0  0
  184.8160  177.8840  142.7780 C   0  0  0  0  0  0  0  0  0  0  0  0
  189.0550  178.9240  138.6780 C   0  0  0  0  0  2  0  0  0  0  0  0
  190.6280  176.9860  138.1190 C   0  0  0  0  0  0  0  0  0  0  0  0
  191.2290  176.0270  137.2530 N   0  0  0  0  0  1  0  0  0  0  0  0
  189.5320  177.8900  137.6200 C   0  0  0  0  0  2  0  0  0  0  0  0
  190.6850  176.8320  139.4020 C   0  0  0  0  0  0  0  0  0  0  0  0
  190.4310  176.9530  140.6660 C   0  0  0  0  0  3  0  0  0  0  0  0
  188.3420  178.2530  139.8720 C   0  0  0  0  0  2  0  0  0  0  0  0
  189.2600  177.8290  141.0680 C   0  0  1  0  0  3  0  0  0  0  0  0
  184.7570  178.6170  146.8310 O   0  0  0  0  0  1  0  0  0  0  0  0
  186.0550  178.4910  146.3340 C   0  0  0  0  0  2  0  0  0  0  0  0
  184.9240  179.9480  143.9150 O   0  0  0  0  0  0  0  0  0  0  0  0
  183.6090  180.4080  143.9700 C   0  0  0  0  0  1  0  0  0  0  0  0
  1 26  1  6  0  0  0
  1  5  1  0  0  0  0
  3  6  1  1  0  0  0
  3 13  1  0  0  0  0
  4  7  1  1  0  0  0
  5 25  1  1  0  0  0
  6 15  1  0  0  0  0
  7 14  2  0  0  0  0
  8 10  2  0  0  0  0
  8  4  1  0  0  0  0
  9 15  2  0  0  0  0
 10 12  1  0  0  0  0
 11  3  1  0  0  0  0
 11  8  1  1  0  0  0
 12  2  2  0  0  0  0
 12 14  1  0  0  0  0
 13  4  1  0  0  0  0
 13  5  1  0  0  0  0
 15  1  1  0  0  0  0
 16 22  1  0  0  0  0
 17 20  2  0  0  0  0
 18 17  1  0  0  0  0
 19 17  1  0  0  0  0
 19 16  1  0  0  0  0
 20 21  2  0  0  0  0
 21 23  1  0  0  0  0
 22 23  1  0  0  0  0
 23 11  1  0  0  0  0
 25 24  1  0  0  0  0
 26 27  1  0  0  0  0
M  END
>  <MODEL>
8

>  <REMARK>
 VINA RESULT:      -7.8      3.230      6.420
  Name = 
  3 active torsions:
  status: ('A' for Active; 'I' for Inactive)
    1  A    between atoms: C_5  and  O_8
    2  A    between atoms: C_11  and  C_14
    3  A    between atoms: C_20  and  C_26
                            x       y       z     vdW  Elec       q    Type
                         _______ _______ _______ _____ _____    ______ ____

>  <TORSDO>
F 3

$$$$
=
 OpenBabel11062415443D

 27 30  0  0  1  0  0  0  0  0999 V2000
  189.5520  177.0960  147.7180 C   0  0  2  0  0  3  0  0  0  0  0  0
  189.6010  176.7950  139.8420 O   0  0  0  0  0  0  0  0  0  0  0  0
  187.8900  177.7330  145.4140 C   0  0  2  0  0  3  0  0  0  0  0  0
  189.6740  177.0560  143.8840 C   0  0  2  0  0  3  0  0  0  0  0  0
  190.1680  176.9170  146.3270 C   0  0  1  0  0  3  0  0  0  0  0  0
  187.4160  176.8670  146.4470 O   0  0  0  0  0  0  0  0  0  0  0  0
  190.8310  177.6160  143.0900 C   0  0  0  0  0  3  0  0  0  0  0  0
  188.3760  177.1480  143.1630 C   0  0  0  0  0  0  0  0  0  0  0  0
  187.5910  176.0770  148.6030 O   0  0  0  0  0  0  0  0  0  0  0  0
  188.3200  177.0310  141.8310 C   0  0  0  0  0  3  0  0  0  0  0  0
  187.2180  177.3580  144.0850 C   0  0  2  0  0  3  0  0  0  0  0  0
  189.5840  177.0680  141.0700 C   0  0  0  0  0  0  0  0  0  0  0  0
  189.4340  177.7060  145.2290 C   0  0  2  0  0  3  0  0  0  0  0  0
  190.8070  177.5460  141.7520 C   0  0  0  0  0  3  0  0  0  0  0  0
  188.1300  176.6680  147.6300 C   0  0  0  0  0  0  0  0  0  0  0  0
  183.9790  179.6200  144.3500 C   0  0  0  0  0  2  0  0  0  0  0  0
  183.2750  178.6440  142.0930 C   0  0  0  0  0  0  0  0  0  0  0  0
  182.3350  178.1480  141.1450 N   0  0  0  0  0  1  0  0  0  0  0  0
  182.8360  179.0220  143.4830 C   0  0  0  0  0  2  0  0  0  0  0  0
  184.5370  178.3940  141.9550 C   0  0  0  0  0  0  0  0  0  0  0  0
  185.7960  178.2530  142.2160 C   0  0  0  0  0  3  0  0  0  0  0  0
  185.0720  178.5780  144.6770 C   0  0  0  0  0  2  0  0  0  0  0  0
  186.2470  178.4760  143.6470 C   0  0  1  0  0  3  0  0  0  0  0  0
  192.2910  176.3780  147.3200 O   0  0  0  0  0  1  0  0  0  0  0  0
  191.6800  177.1280  146.3140 C   0  0  0  0  0  2  0  0  0  0  0  0
  189.6150  178.4330  148.1260 O   0  0  0  0  0  0  0  0  0  0  0  0
  188.4630  178.6280  148.8870 C   0  0  0  0  0  1  0  0  0  0  0  0
  1 26  1  6  0  0  0
  2 12  2  0  0  0  0
  3  6  1  1  0  0  0
  4  7  1  6  0  0  0
  4 13  1  0  0  0  0
  5 25  1  1  0  0  0
  5  1  1  0  0  0  0
  6 15  1  0  0  0  0
  8  4  1  0  0  0  0
 10  8  2  0  0  0  0
 11  8  1  6  0  0  0
 11  3  1  0  0  0  0
 12 14  1  0  0  0  0
 12 10  1  0  0  0  0
 13  3  1  0  0  0  0
 13  5  1  0  0  0  0
 14  7  2  0  0  0  0
 15  1  1  0  0  0  0
 15  9  2  0  0  0  0
 16 22  1  0  0  0  0
 17 19  1  0  0  0  0
 18 17  1  0  0  0  0
 19 16  1  0  0  0  0
 20 17  2  0  0  0  0
 20 21  2  0  0  0  0
 21 23  1  0  0  0  0
 23 11  1  0  0  0  0
 23 22  1  0  0  0  0
 25 24  1  0  0  0  0
 26 27  1  0  0  0  0
M  END
>  <MODEL>
9

>  <REMARK>
 VINA RESULT:      -7.8      2.371      6.064
  Name = 
  3 active torsions:
  status: ('A' for Active; 'I' for Inactive)
    1  A    between atoms: C_5  and  O_8
    2  A    between atoms: C_11  and  C_14
    3  A    between atoms: C_20  and  C_26
                            x       y       z     vdW  Elec       q    Type
                         _______ _______ _______ _____ _____    ______ ____

>  <TORSDO>
F 3

$$$$
