=
 OpenBabel11062415513D

 44 50  0  0  1  0  0  0  0  0999 V2000
  188.3350  175.6910  137.3290 C   0  0  0  0  0  2  0  0  0  0  0  0
  185.1820  173.2790  135.7330 C   0  0  1  0  0  3  0  0  0  0  0  0
  184.1450  177.0800  135.7880 C   0  0  0  0  0  0  0  0  0  0  0  0
  182.9230  172.9280  136.3170 O   0  0  0  0  0  0  0  0  0  0  0  0
  185.9420  176.4870  137.4980 C   0  0  0  0  0  2  0  0  0  0  0  0
  182.9010  178.1090  140.2180 C   0  0  0  0  0  2  0  0  0  0  0  0
  180.9820  175.5600  137.3130 C   0  0  1  0  0  3  0  0  0  0  0  0
  179.1120  176.3140  138.7830 O   0  0  0  0  0  1  0  0  0  0  0  0
  178.9670  176.1340  136.1610 O   0  0  0  0  0  1  0  0  0  0  0  0
  185.4300  171.9740  135.0190 C   0  0  0  0  0  2  0  0  0  0  0  0
  183.2520  174.8420  134.9810 C   0  0  0  0  0  2  0  0  0  0  0  0
  184.0040  177.5100  139.3620 C   0  0  0  0  0  2  0  0  0  0  0  0
  188.0800  173.5080  136.9450 C   0  0  0  0  0  2  0  0  0  0  0  0
  183.0120  176.0810  135.8570 C   0  0  1  0  0  3  0  0  0  0  0  0
  187.0220  171.3570  135.6190 S   0  0  0  0  0  0  0  0  0  0  0  0
  181.5690  177.4200  139.9460 C   0  0  0  0  0  2  0  0  0  0  0  0
  187.9140  174.4940  137.9230 O   0  0  0  0  0  0  0  0  0  0  0  0
  184.4060  177.5730  134.7020 O   0  0  0  0  0  0  0  0  0  0  0  0
  184.1380  178.2720  138.0460 C   0  0  0  0  0  2  0  0  0  0  0  0
  183.7290  173.6310  135.7280 C   0  0  0  0  0  0  0  0  0  0  0  0
  186.9560  172.4830  137.0480 C   0  0  2  0  0  3  0  0  0  0  0  0
  182.4930  175.7920  137.2650 C   0  0  0  0  0  2  0  0  0  0  0  0
  180.2830  176.6660  138.0980 C   0  0  1  0  0  0  0  0  0  0  0  0
  181.0710  177.7850  138.6250 N   0  0  0  0  0  0  0  0  0  0  0  0
  184.9580  177.5350  136.9770 C   0  0  2  0  0  3  0  0  0  0  0  0
  187.1870  176.4170  136.6200 C   0  0  2  0  0  3  0  0  0  0  0  0
  185.6570  173.1470  137.1000 N   0  0  0  0  0  2  0  0  0  0  0  0
  180.1910  176.6550  136.5850 C   0  0  1  0  0  3  0  0  0  0  0  0
  180.2360  178.8440  138.7870 O   0  0  0  0  0  0  0  0  0  0  0  0
  181.8640  182.9630  138.1110 O   0  0  0  0  0  1  0  0  0  0  0  0
  180.6510  180.0980  136.8030 C   0  0  0  0  0  2  0  0  0  0  0  0
  180.6540  182.2990  137.8690 C   0  0  1  0  0  0  0  0  0  0  0  0
  180.9400  179.9400  138.2770 C   0  0  1  0  0  3  0  0  0  0  0  0
  180.7400  181.5870  136.5270 C   0  0  0  0  0  2  0  0  0  0  0  0
  180.4530  181.2190  138.9150 C   0  0  0  0  0  2  0  0  0  0  0  0
  179.2880  183.8490  136.6350 O   0  0  0  0  0  0  0  0  0  0  0  0
  179.4490  183.2520  137.8670 C   0  0  2  0  0  3  0  0  0  0  0  0
  179.8480  184.6860  137.6440 C   0  0  0  0  0  0  0  0  0  0  0  0
  178.9550  185.9220  137.4490 C   0  0  0  0  0  2  0  0  0  0  0  0
  178.9310  185.2390  138.7490 C   0  0  0  0  0  2  0  0  0  0  0  0
  186.8910  175.7810  135.4140 O   0  0  0  0  0  0  0  0  0  0  0  0
  187.9010  176.1100  134.5940 O   0  0  0  0  0  0  0  0  0  0  0  0
  188.4300  177.3840  134.5940 N   0  0  0  0  0  0  0  0  0  0  0  0
  189.7010  177.5940  134.7160 C   0  0  0  0  0  2  0  0  0  0  0  0
  1 17  1  0  0  0  0
  2 10  1  6  0  0  0
  2 27  1  0  0  0  0
  3 14  1  0  0  0  0
  3 25  1  0  0  0  0
  7 22  1  6  0  0  0
  7 23  1  0  0  0  0
 10 15  1  0  0  0  0
 11 20  1  0  0  0  0
 12  6  1  0  0  0  0
 13 17  1  0  0  0  0
 14 11  1  1  0  0  0
 14 22  1  0  0  0  0
 15 21  1  0  0  0  0
 16  6  1  0  0  0  0
 18  3  2  0  0  0  0
 19 12  1  0  0  0  0
 20  2  1  0  0  0  0
 20  4  2  0  0  0  0
 21 13  1  6  0  0  0
 21 27  1  0  0  0  0
 23 24  1  0  0  0  0
 23  8  1  1  0  0  0
 24 29  1  0  0  0  0
 24 16  1  0  0  0  0
 25  5  1  1  0  0  0
 25 19  1  0  0  0  0
 26 41  1  6  0  0  0
 26  1  1  0  0  0  0
 26  5  1  0  0  0  0
 28  9  1  1  0  0  0
 28  7  1  0  0  0  0
 28 23  1  0  0  0  0
 31 33  1  0  0  0  0
 32 30  1  1  0  0  0
 32 35  1  0  0  0  0
 33 29  1  1  0  0  0
 33 35  1  0  0  0  0
 34 31  1  0  0  0  0
 34 32  1  0  0  0  0
 36 38  1  0  0  0  0
 37 36  1  6  0  0  0
 37 32  1  0  0  0  0
 38 37  1  0  0  0  0
 38 40  1  0  0  0  0
 39 38  1  0  0  0  0
 39 40  1  0  0  0  0
 42 41  1  0  0  0  0
 43 42  1  0  0  0  0
 43 44  2  0  0  0  0
M  END
>  <MODEL>
1

>  <REMARK>
 VINA RESULT:      -4.8      0.000      0.000
  Name = 
  6 active torsions:
  status: ('A' for Active; 'I' for Inactive)
    1  A    between atoms: O_9  and  C_29
    2  A    between atoms: O_9  and  N_37
    3  A    between atoms: C_11  and  C_25
    4  A    between atoms: N_20  and  O_40
    5  A    between atoms: O_33  and  C_39
    6  A    between atoms: O_33  and  O_40
                            x       y       z     vdW  Elec       q    Type
                         _______ _______ _______ _____ _____    ______ ____

>  <TORSDO>
F 6

$$$$
=
 OpenBabel11062415513D

 44 50  0  0  1  0  0  0  0  0999 V2000
  180.0650  177.0320  135.7580 C   0  0  0  0  0  2  0  0  0  0  0  0
  181.3750  172.9860  136.2180 C   0  0  1  0  0  3  0  0  0  0  0  0
  183.8700  175.4730  137.9820 C   0  0  0  0  0  0  0  0  0  0  0  0
  183.3490  171.8220  135.6560 O   0  0  0  0  0  0  0  0  0  0  0  0
  182.5210  176.5430  136.1010 C   0  0  0  0  0  2  0  0  0  0  0  0
  186.5670  177.3530  134.6020 C   0  0  0  0  0  2  0  0  0  0  0  0
  186.3970  173.3080  136.0930 C   0  0  1  0  0  3  0  0  0  0  0  0
  188.7300  173.5380  135.2390 O   0  0  0  0  0  1  0  0  0  0  0  0
  188.0770  172.3270  137.4830 O   0  0  0  0  0  1  0  0  0  0  0  0
  180.4250  171.8130  136.2330 C   0  0  0  0  0  2  0  0  0  0  0  0
  183.5000  172.9740  137.7070 C   0  0  0  0  0  2  0  0  0  0  0  0
  185.1290  177.1000  135.0250 C   0  0  0  0  0  2  0  0  0  0  0  0
  179.2760  175.0510  135.1010 C   0  0  0  0  0  2  0  0  0  0  0  0
  184.4580  174.1600  137.5170 C   0  0  1  0  0  3  0  0  0  0  0  0
  178.9470  172.3410  135.3340 S   0  0  0  0  0  0  0  0  0  0  0  0
  187.3650  176.0550  134.5940 C   0  0  0  0  0  2  0  0  0  0  0  0
  180.0920  176.1130  134.7000 O   0  0  0  0  0  0  0  0  0  0  0  0
  183.5570  175.5740  139.1570 O   0  0  0  0  0  0  0  0  0  0  0  0
  184.9770  177.2620  136.5360 C   0  0  0  0  0  2  0  0  0  0  0  0
  182.7830  172.5450  136.4620 C   0  0  0  0  0  0  0  0  0  0  0  0
  179.8540  173.7350  134.5940 C   0  0  2  0  0  3  0  0  0  0  0  0
  185.1670  174.2130  136.1650 C   0  0  0  0  0  2  0  0  0  0  0  0
  187.6740  174.1280  135.9470 C   0  0  1  0  0  0  0  0  0  0  0  0
  187.5960  175.5920  135.9570 N   0  0  0  0  0  0  0  0  0  0  0  0
  183.6710  176.6820  137.0980 C   0  0  2  0  0  3  0  0  0  0  0  0
  181.1740  176.7670  136.7810 C   0  0  2  0  0  3  0  0  0  0  0  0
  181.2730  173.6360  134.9220 N   0  0  0  0  0  2  0  0  0  0  0  0
  187.3440  173.4990  137.2860 C   0  0  1  0  0  3  0  0  0  0  0  0
  188.8050  176.0740  136.3470 O   0  0  0  0  0  0  0  0  0  0  0  0
  189.1300  179.4790  139.2400 O   0  0  0  0  0  1  0  0  0  0  0  0
  187.3920  176.8120  138.1190 C   0  0  0  0  0  2  0  0  0  0  0  0
  189.1040  178.0800  139.3200 C   0  0  1  0  0  0  0  0  0  0  0  0
  188.5110  177.1660  137.1690 C   0  0  1  0  0  3  0  0  0  0  0  0
  187.6570  177.6150  139.3790 C   0  0  0  0  0  2  0  0  0  0  0  0
  189.6920  177.4910  138.0510 C   0  0  0  0  0  2  0  0  0  0  0  0
  189.0650  176.7200  141.3050 O   0  0  0  0  0  0  0  0  0  0  0  0
  189.8640  177.5440  140.5430 C   0  0  2  0  0  3  0  0  0  0  0  0
  189.2760  178.0240  141.8430 C   0  0  0  0  0  0  0  0  0  0  0  0
  189.6500  177.6290  143.2800 C   0  0  0  0  0  2  0  0  0  0  0  0
  190.6380  178.3590  142.4760 C   0  0  0  0  0  2  0  0  0  0  0  0
  180.8430  175.6640  137.5700 O   0  0  0  0  0  0  0  0  0  0  0  0
  179.8800  176.1050  138.3940 O   0  0  0  0  0  0  0  0  0  0  0  0
  180.1780  176.9360  139.4540 N   0  0  0  0  0  0  0  0  0  0  0  0
  179.4560  177.9730  139.7310 C   0  0  0  0  0  2  0  0  0  0  0  0
  1 26  1  0  0  0  0
  2 10  1  6  0  0  0
  2 20  1  0  0  0  0
  3 18  2  0  0  0  0
  4 20  2  0  0  0  0
  5 26  1  0  0  0  0
  6 12  1  0  0  0  0
  7 22  1  1  0  0  0
  7 28  1  0  0  0  0
 12 19  1  0  0  0  0
 14 22  1  6  0  0  0
 14 11  1  0  0  0  0
 14  3  1  0  0  0  0
 15 10  1  0  0  0  0
 16  6  1  0  0  0  0
 16 24  1  0  0  0  0
 17 13  1  0  0  0  0
 17  1  1  0  0  0  0
 19 25  1  0  0  0  0
 20 11  1  0  0  0  0
 21 27  1  0  0  0  0
 21 13  1  1  0  0  0
 21 15  1  0  0  0  0
 23  8  1  6  0  0  0
 23 24  1  0  0  0  0
 23  7  1  0  0  0  0
 23 28  1  0  0  0  0
 24 29  1  0  0  0  0
 25  5  1  6  0  0  0
 25  3  1  0  0  0  0
 26 41  1  6  0  0  0
 27  2  1  0  0  0  0
 28  9  1  6  0  0  0
 31 34  1  0  0  0  0
 32 30  1  6  0  0  0
 32 34  1  0  0  0  0
 32 37  1  0  0  0  0
 33 29  1  6  0  0  0
 33 35  1  0  0  0  0
 33 31  1  0  0  0  0
 35 32  1  0  0  0  0
 36 38  1  0  0  0  0
 37 36  1  1  0  0  0
 37 38  1  0  0  0  0
 38 40  1  0  0  0  0
 38 39  1  0  0  0  0
 40 39  1  0  0  0  0
 41 42  1  0  0  0  0
 42 43  1  0  0  0  0
 43 44  2  0  0  0  0
M  END
>  <MODEL>
2

>  <REMARK>
 VINA RESULT:      -4.3      3.669      8.074
  Name = 
  6 active torsions:
  status: ('A' for Active; 'I' for Inactive)
    1  A    between atoms: O_9  and  C_29
    2  A    between atoms: O_9  and  N_37
    3  A    between atoms: C_11  and  C_25
    4  A    between atoms: N_20  and  O_40
    5  A    between atoms: O_33  and  C_39
    6  A    between atoms: O_33  and  O_40
                            x       y       z     vdW  Elec       q    Type
                         _______ _______ _______ _____ _____    ______ ____

>  <TORSDO>
F 6

$$$$
=
 OpenBabel11062415513D

 44 50  0  0  1  0  0  0  0  0999 V2000
  179.9410  173.3870  137.2710 C   0  0  0  0  0  2  0  0  0  0  0  0
  181.1080  177.1910  138.8430 C   0  0  1  0  0  3  0  0  0  0  0  0
  183.0920  176.3750  135.5390 C   0  0  0  0  0  0  0  0  0  0  0  0
  183.1620  178.1270  139.5310 O   0  0  0  0  0  0  0  0  0  0  0  0
  182.2400  174.3020  136.7570 C   0  0  0  0  0  2  0  0  0  0  0  0
  186.5280  173.3620  136.6990 C   0  0  0  0  0  2  0  0  0  0  0  0
  186.0080  177.5170  137.7370 C   0  0  1  0  0  3  0  0  0  0  0  0
  188.4780  177.1780  137.8260 O   0  0  0  0  0  1  0  0  0  0  0  0
  187.3000  179.2970  136.8010 O   0  0  0  0  0  1  0  0  0  0  0  0
  180.1860  178.0550  139.6680 C   0  0  0  0  0  2  0  0  0  0  0  0
  182.8050  178.2710  137.2060 C   0  0  0  0  0  2  0  0  0  0  0  0
  185.0310  173.6090  136.7890 C   0  0  0  0  0  2  0  0  0  0  0  0
  179.3410  174.5930  139.0510 C   0  0  0  0  0  2  0  0  0  0  0  0
  183.7790  177.3050  136.5140 C   0  0  1  0  0  3  0  0  0  0  0  0
  178.9700  176.9410  140.4120 S   0  0  0  0  0  0  0  0  0  0  0  0
  187.3070  174.5490  137.2520 C   0  0  0  0  0  2  0  0  0  0  0  0
  180.2280  173.5980  138.6270 O   0  0  0  0  0  0  0  0  0  0  0  0
  182.5010  176.8730  134.5940 O   0  0  0  0  0  0  0  0  0  0  0  0
  184.5150  174.2550  135.5050 C   0  0  0  0  0  2  0  0  0  0  0  0
  182.4150  177.8750  138.5980 C   0  0  0  0  0  0  0  0  0  0  0  0
  180.0280  175.5010  140.0640 C   0  0  2  0  0  3  0  0  0  0  0  0
  184.7960  176.6350  137.4360 C   0  0  0  0  0  2  0  0  0  0  0  0
  187.2810  176.9210  137.1450 C   0  0  1  0  0  0  0  0  0  0  0  0
  187.1990  175.6900  136.3510 N   0  0  0  0  0  0  0  0  0  0  0  0
  183.1120  174.8670  135.6350 C   0  0  2  0  0  3  0  0  0  0  0  0
  180.7670  174.2990  136.3590 C   0  0  2  0  0  3  0  0  0  0  0  0
  181.3240  175.9450  139.5600 N   0  0  0  0  0  2  0  0  0  0  0  0
  186.6350  178.1150  136.4710 C   0  0  1  0  0  3  0  0  0  0  0  0
  188.2750  175.6540  135.5240 O   0  0  0  0  0  0  0  0  0  0  0  0
  191.8500  173.9170  137.5920 O   0  0  0  0  0  1  0  0  0  0  0  0
  189.4770  173.6190  135.2110 C   0  0  0  0  0  2  0  0  0  0  0  0
  191.5410  174.3530  136.2970 C   0  0  1  0  0  0  0  0  0  0  0  0
  189.1720  174.7730  136.1370 C   0  0  1  0  0  3  0  0  0  0  0  0
  190.9020  173.2070  135.5280 C   0  0  0  0  0  2  0  0  0  0  0  0
  190.5000  175.4540  136.3700 C   0  0  0  0  0  2  0  0  0  0  0  0
  193.7590  173.8910  135.4860 O   0  0  0  0  0  0  0  0  0  0  0  0
  192.7760  174.8560  135.5340 C   0  0  2  0  0  3  0  0  0  0  0  0
  193.9970  174.9510  136.4100 C   0  0  0  0  0  0  0  0  0  0  0  0
  195.4460  175.2840  136.0220 C   0  0  0  0  0  2  0  0  0  0  0  0
  194.4240  176.3280  135.8740 C   0  0  0  0  0  2  0  0  0  0  0  0
  180.2560  175.5970  136.3910 O   0  0  0  0  0  0  0  0  0  0  0  0
  179.4150  175.6620  135.3480 O   0  0  0  0  0  0  0  0  0  0  0  0
  179.0960  176.8720  134.7660 N   0  0  0  0  0  0  0  0  0  0  0  0
  179.2100  177.9890  135.4090 C   0  0  0  0  0  2  0  0  0  0  0  0
  1 17  1  0  0  0  0
  2 27  1  0  0  0  0
  2 10  1  1  0  0  0
  3 25  1  0  0  0  0
  3 14  1  0  0  0  0
  6 12  1  0  0  0  0
  6 16  1  0  0  0  0
  7 22  1  6  0  0  0
 10 15  1  0  0  0  0
 11 20  1  0  0  0  0
 14 11  1  1  0  0  0
 14 22  1  0  0  0  0
 17 13  1  0  0  0  0
 18  3  2  0  0  0  0
 19 12  1  0  0  0  0
 20  2  1  0  0  0  0
 20  4  2  0  0  0  0
 21 13  1  6  0  0  0
 21 15  1  0  0  0  0
 23  7  1  0  0  0  0
 23  8  1  1  0  0  0
 24 23  1  0  0  0  0
 24 16  1  0  0  0  0
 25 19  1  1  0  0  0
 25  5  1  0  0  0  0
 26 41  1  1  0  0  0
 26  5  1  0  0  0  0
 26  1  1  0  0  0  0
 27 21  1  0  0  0  0
 28  9  1  1  0  0  0
 28 23  1  0  0  0  0
 28  7  1  0  0  0  0
 29 24  1  0  0  0  0
 31 34  1  0  0  0  0
 31 33  1  0  0  0  0
 32 35  1  0  0  0  0
 32 30  1  1  0  0  0
 33 29  1  6  0  0  0
 33 35  1  0  0  0  0
 34 32  1  0  0  0  0
 36 38  1  0  0  0  0
 37 36  1  6  0  0  0
 37 32  1  0  0  0  0
 37 38  1  0  0  0  0
 39 38  1  0  0  0  0
 40 39  1  0  0  0  0
 40 38  1  0  0  0  0
 42 41  1  0  0  0  0
 43 42  1  0  0  0  0
 43 44  2  0  0  0  0
M  END
>  <MODEL>
3

>  <REMARK>
 VINA RESULT:      -4.3      3.623      9.650
  Name = 
  6 active torsions:
  status: ('A' for Active; 'I' for Inactive)
    1  A    between atoms: O_9  and  C_29
    2  A    between atoms: O_9  and  N_37
    3  A    between atoms: C_11  and  C_25
    4  A    between atoms: N_20  and  O_40
    5  A    between atoms: O_33  and  C_39
    6  A    between atoms: O_33  and  O_40
                            x       y       z     vdW  Elec       q    Type
                         _______ _______ _______ _____ _____    ______ ____

>  <TORSDO>
F 6

$$$$
=
 OpenBabel11062415513D

 44 50  0  0  1  0  0  0  0  0999 V2000
  181.6600  180.9720  138.7240 C   0  0  0  0  0  2  0  0  0  0  0  0
  180.8800  177.7710  135.9950 C   0  0  1  0  0  3  0  0  0  0  0  0
  183.3140  176.6020  138.8630 C   0  0  0  0  0  0  0  0  0  0  0  0
  182.2390  176.3940  134.6430 O   0  0  0  0  0  0  0  0  0  0  0  0
  183.3570  179.1180  138.4510 C   0  0  0  0  0  2  0  0  0  0  0  0
  187.6050  178.2340  137.7860 C   0  0  0  0  0  2  0  0  0  0  0  0
  185.2130  175.2110  135.8460 C   0  0  1  0  0  3  0  0  0  0  0  0
  187.5600  174.5690  135.2960 O   0  0  0  0  0  1  0  0  0  0  0  0
  185.6680  172.8680  135.9710 O   0  0  0  0  0  1  0  0  0  0  0  0
  179.6010  177.6620  135.2030 C   0  0  0  0  0  2  0  0  0  0  0  0
  182.0700  175.6370  136.8690 C   0  0  0  0  0  2  0  0  0  0  0  0
  186.1510  178.6350  137.9740 C   0  0  0  0  0  2  0  0  0  0  0  0
  180.4300  180.7610  136.8730 C   0  0  0  0  0  2  0  0  0  0  0  0
  183.4280  175.8580  137.5520 C   0  0  1  0  0  3  0  0  0  0  0  0
  178.9380  179.3400  135.0670 S   0  0  0  0  0  0  0  0  0  0  0  0
  187.7260  177.0930  136.7820 C   0  0  0  0  0  2  0  0  0  0  0  0
  181.6990  181.1280  137.3310 O   0  0  0  0  0  0  0  0  0  0  0  0
  182.6540  176.0910  139.7530 O   0  0  0  0  0  0  0  0  0  0  0  0
  185.5220  177.8560  139.1270 C   0  0  0  0  0  2  0  0  0  0  0  0
  181.7680  176.5920  135.7530 C   0  0  0  0  0  0  0  0  0  0  0  0
  180.5500  180.0490  135.5320 C   0  0  2  0  0  3  0  0  0  0  0  0
  184.5470  176.3430  136.6310 C   0  0  0  0  0  2  0  0  0  0  0  0
  186.6660  175.0310  136.2710 C   0  0  1  0  0  0  0  0  0  0  0  0
  187.2090  175.8560  137.3550 N   0  0  0  0  0  0  0  0  0  0  0  0
  183.9890  177.9200  139.1610 C   0  0  2  0  0  3  0  0  0  0  0  0
  182.0790  179.5640  139.1570 C   0  0  2  0  0  3  0  0  0  0  0  0
  181.5570  178.9940  135.5970 N   0  0  0  0  0  2  0  0  0  0  0  0
  185.6250  174.0330  136.7390 C   0  0  1  0  0  3  0  0  0  0  0  0
  188.2610  175.1930  137.9000 O   0  0  0  0  0  0  0  0  0  0  0  0
  192.1370  176.3680  135.9830 O   0  0  0  0  0  1  0  0  0  0  0  0
  190.1270  176.4470  138.6930 C   0  0  0  0  0  2  0  0  0  0  0  0
  191.7430  175.5820  137.0740 C   0  0  1  0  0  0  0  0  0  0  0  0
  189.3910  175.9100  137.4890 C   0  0  1  0  0  3  0  0  0  0  0  0
  191.5920  176.4740  138.2970 C   0  0  0  0  0  2  0  0  0  0  0  0
  190.3730  174.9910  136.8020 C   0  0  0  0  0  2  0  0  0  0  0  0
  193.8750  174.9500  137.9940 O   0  0  0  0  0  0  0  0  0  0  0  0
  192.7430  174.4570  137.3820 C   0  0  2  0  0  3  0  0  0  0  0  0
  194.0320  174.6060  136.6190 C   0  0  0  0  0  0  0  0  0  0  0  0
  195.3240  173.7810  136.7270 C   0  0  0  0  0  2  0  0  0  0  0  0
  194.1120  173.1210  136.2250 C   0  0  0  0  0  2  0  0  0  0  0  0
  181.0480  178.6590  138.9040 O   0  0  0  0  0  0  0  0  0  0  0  0
  180.1540  178.8720  139.8810 O   0  0  0  0  0  0  0  0  0  0  0  0
  180.0840  178.0350  140.9760 N   0  0  0  0  0  0  0  0  0  0  0  0
  179.4470  176.9100  140.9340 C   0  0  0  0  0  2  0  0  0  0  0  0
  1 26  1  0  0  0  0
  2 10  1  6  0  0  0
  3 25  1  0  0  0  0
  3 18  2  0  0  0  0
  4 20  2  0  0  0  0
  5 26  1  0  0  0  0
  6 12  1  0  0  0  0
  7 23  1  0  0  0  0
  7 22  1  1  0  0  0
  7 28  1  0  0  0  0
 11 14  1  0  0  0  0
 12 19  1  0  0  0  0
 13 17  1  0  0  0  0
 14 22  1  6  0  0  0
 14  3  1  0  0  0  0
 15 10  1  0  0  0  0
 15 21  1  0  0  0  0
 16 24  1  0  0  0  0
 16  6  1  0  0  0  0
 17  1  1  0  0  0  0
 19 25  1  0  0  0  0
 20  2  1  0  0  0  0
 20 11  1  0  0  0  0
 21 27  1  0  0  0  0
 21 13  1  1  0  0  0
 23  8  1  6  0  0  0
 23 28  1  0  0  0  0
 23 24  1  0  0  0  0
 24 29  1  0  0  0  0
 25  5  1  6  0  0  0
 26 41  1  6  0  0  0
 27  2  1  0  0  0  0
 28  9  1  6  0  0  0
 32 30  1  6  0  0  0
 32 37  1  0  0  0  0
 32 34  1  0  0  0  0
 33 29  1  1  0  0  0
 33 31  1  0  0  0  0
 34 31  1  0  0  0  0
 35 32  1  0  0  0  0
 35 33  1  0  0  0  0
 37 36  1  1  0  0  0
 38 39  1  0  0  0  0
 38 37  1  0  0  0  0
 38 36  1  0  0  0  0
 40 38  1  0  0  0  0
 40 39  1  0  0  0  0
 41 42  1  0  0  0  0
 42 43  1  0  0  0  0
 44 43  2  0  0  0  0
M  END
>  <MODEL>
4

>  <REMARK>
 VINA RESULT:      -3.9      3.260      9.676
  Name = 
  6 active torsions:
  status: ('A' for Active; 'I' for Inactive)
    1  A    between atoms: O_9  and  C_29
    2  A    between atoms: O_9  and  N_37
    3  A    between atoms: C_11  and  C_25
    4  A    between atoms: N_20  and  O_40
    5  A    between atoms: O_33  and  C_39
    6  A    between atoms: O_33  and  O_40
                            x       y       z     vdW  Elec       q    Type
                         _______ _______ _______ _____ _____    ______ ____

>  <TORSDO>
F 6

$$$$
=
 OpenBabel11062415513D

 44 50  0  0  1  0  0  0  0  0999 V2000
  196.2260  173.9410  138.3440 C   0  0  0  0  0  2  0  0  0  0  0  0
  193.4740  171.9290  135.7590 C   0  0  1  0  0  3  0  0  0  0  0  0
  192.7960  175.8100  135.7750 C   0  0  0  0  0  0  0  0  0  0  0  0
  191.1210  171.7870  135.6530 O   0  0  0  0  0  0  0  0  0  0  0  0
  193.9640  174.9700  137.8810 C   0  0  0  0  0  2  0  0  0  0  0  0
  190.4180  176.7820  139.7290 C   0  0  0  0  0  2  0  0  0  0  0  0
  189.2090  174.5610  136.2330 C   0  0  1  0  0  3  0  0  0  0  0  0
  187.0660  175.4420  137.1590 O   0  0  0  0  0  1  0  0  0  0  0  0
  187.6700  175.3830  134.5980 O   0  0  0  0  0  1  0  0  0  0  0  0
  193.8040  170.6350  135.0580 C   0  0  0  0  0  2  0  0  0  0  0  0
  191.9860  173.7090  134.5980 C   0  0  0  0  0  2  0  0  0  0  0  0
  191.6660  176.1080  139.1820 C   0  0  0  0  0  2  0  0  0  0  0  0
  195.9060  171.8120  137.7570 C   0  0  0  0  0  2  0  0  0  0  0  0
  191.6100  174.9300  135.4520 C   0  0  1  0  0  3  0  0  0  0  0  0
  195.0950  169.8350  136.0420 S   0  0  0  0  0  0  0  0  0  0  0  0
  189.1680  176.2440  139.0430 C   0  0  0  0  0  2  0  0  0  0  0  0
  195.5500  172.7700  138.7110 O   0  0  0  0  0  0  0  0  0  0  0  0
  193.4010  176.3170  134.8440 O   0  0  0  0  0  0  0  0  0  0  0  0
  192.2390  176.9060  138.0130 C   0  0  0  0  0  2  0  0  0  0  0  0
  192.1200  172.4280  135.3650 C   0  0  0  0  0  0  0  0  0  0  0  0
  194.7170  170.9040  137.4670 C   0  0  2  0  0  3  0  0  0  0  0  0
  190.6830  174.6390  136.6310 C   0  0  0  0  0  2  0  0  0  0  0  0
  188.4110  175.6990  136.8600 C   0  0  1  0  0  0  0  0  0  0  0  0
  189.1060  176.7100  137.6630 N   0  0  0  0  0  0  0  0  0  0  0  0
  193.2670  176.1320  137.1740 C   0  0  2  0  0  3  0  0  0  0  0  0
  195.3990  174.8080  137.3890 C   0  0  2  0  0  3  0  0  0  0  0  0
  193.5200  171.6940  137.1930 N   0  0  0  0  0  2  0  0  0  0  0  0
  188.7590  175.7590  135.3860 C   0  0  1  0  0  3  0  0  0  0  0  0
  188.3540  177.8420  137.6540 O   0  0  0  0  0  0  0  0  0  0  0  0
  184.1710  177.0880  139.0720 O   0  0  0  0  0  1  0  0  0  0  0  0
  187.2020  178.4570  139.6480 C   0  0  0  0  0  2  0  0  0  0  0  0
  184.9430  178.2100  138.7430 C   0  0  1  0  0  0  0  0  0  0  0  0
  187.2410  177.5420  138.4470 C   0  0  1  0  0  3  0  0  0  0  0  0
  185.7310  178.6450  139.9700 C   0  0  0  0  0  2  0  0  0  0  0  0
  185.9660  177.8280  137.6900 C   0  0  0  0  0  2  0  0  0  0  0  0
  184.1490  180.4520  139.1100 O   0  0  0  0  0  0  0  0  0  0  0  0
  184.0910  179.3850  138.2390 C   0  0  2  0  0  3  0  0  0  0  0  0
  182.9400  179.6980  139.1570 C   0  0  0  0  0  0  0  0  0  0  0  0
  181.9350  180.8590  139.0900 C   0  0  0  0  0  2  0  0  0  0  0  0
  181.9170  179.8550  138.0180 C   0  0  0  0  0  2  0  0  0  0  0  0
  195.4110  174.2540  136.1090 O   0  0  0  0  0  0  0  0  0  0  0  0
  196.3180  174.9740  135.4300 O   0  0  0  0  0  0  0  0  0  0  0  0
  196.5960  176.2790  135.7800 N   0  0  0  0  0  0  0  0  0  0  0  0
  196.8160  177.1910  134.8890 C   0  0  0  0  0  2  0  0  0  0  0  0
  1 17  1  0  0  0  0
  2 10  1  6  0  0  0
  2 27  1  0  0  0  0
  3 25  1  0  0  0  0
  7 22  1  1  0  0  0
  7 23  1  0  0  0  0
 10 15  1  0  0  0  0
 11 20  1  0  0  0  0
 12  6  1  0  0  0  0
 13 17  1  0  0  0  0
 14 11  1  1  0  0  0
 14  3  1  0  0  0  0
 14 22  1  0  0  0  0
 15 21  1  0  0  0  0
 16  6  1  0  0  0  0
 18  3  2  0  0  0  0
 19 12  1  0  0  0  0
 20  4  2  0  0  0  0
 20  2  1  0  0  0  0
 21 13  1  6  0  0  0
 23  8  1  1  0  0  0
 23 24  1  0  0  0  0
 24 16  1  0  0  0  0
 25  5  1  1  0  0  0
 25 19  1  0  0  0  0
 26 41  1  6  0  0  0
 26  5  1  0  0  0  0
 26  1  1  0  0  0  0
 27 21  1  0  0  0  0
 28  9  1  6  0  0  0
 28  7  1  0  0  0  0
 28 23  1  0  0  0  0
 29 24  1  0  0  0  0
 31 34  1  0  0  0  0
 32 30  1  1  0  0  0
 32 34  1  0  0  0  0
 33 29  1  6  0  0  0
 33 31  1  0  0  0  0
 35 33  1  0  0  0  0
 35 32  1  0  0  0  0
 36 38  1  0  0  0  0
 37 32  1  0  0  0  0
 37 36  1  1  0  0  0
 37 38  1  0  0  0  0
 39 38  1  0  0  0  0
 40 39  1  0  0  0  0
 40 38  1  0  0  0  0
 42 43  1  0  0  0  0
 42 41  1  0  0  0  0
 44 43  2  0  0  0  0
M  END
>  <MODEL>
5

>  <REMARK>
 VINA RESULT:      -3.5      4.935      7.869
  Name = 
  6 active torsions:
  status: ('A' for Active; 'I' for Inactive)
    1  A    between atoms: O_9  and  C_29
    2  A    between atoms: O_9  and  N_37
    3  A    between atoms: C_11  and  C_25
    4  A    between atoms: N_20  and  O_40
    5  A    between atoms: O_33  and  C_39
    6  A    between atoms: O_33  and  O_40
                            x       y       z     vdW  Elec       q    Type
                         _______ _______ _______ _____ _____    ______ ____

>  <TORSDO>
F 6

$$$$
=
 OpenBabel11062415513D

 44 50  0  0  1  0  0  0  0  0999 V2000
  179.7430  179.6290  140.9740 C   0  0  0  0  0  2  0  0  0  0  0  0
  181.0880  178.7050  137.0190 C   0  0  1  0  0  3  0  0  0  0  0  0
  183.0490  176.5820  139.6950 C   0  0  0  0  0  0  0  0  0  0  0  0
  183.1810  178.7820  135.9330 O   0  0  0  0  0  0  0  0  0  0  0  0
  182.0880  178.7540  140.6210 C   0  0  0  0  0  2  0  0  0  0  0  0
  186.3250  179.4070  141.5720 C   0  0  0  0  0  2  0  0  0  0  0  0
  186.0050  177.7870  137.5850 C   0  0  1  0  0  3  0  0  0  0  0  0
  188.4550  178.1430  137.8970 O   0  0  0  0  0  1  0  0  0  0  0  0
  187.3900  176.0290  136.7460 O   0  0  0  0  0  1  0  0  0  0  0  0
  180.2050  178.8320  135.8020 C   0  0  0  0  0  2  0  0  0  0  0  0
  182.8470  176.8040  137.1720 C   0  0  0  0  0  2  0  0  0  0  0  0
  184.8410  179.2830  141.2650 C   0  0  0  0  0  2  0  0  0  0  0  0
  179.1930  180.3390  138.9310 C   0  0  0  0  0  2  0  0  0  0  0  0
  183.7760  176.8460  138.3950 C   0  0  1  0  0  3  0  0  0  0  0  0
  178.9310  180.0470  136.2190 S   0  0  0  0  0  0  0  0  0  0  0  0
  187.1580  179.1840  140.3150 C   0  0  0  0  0  2  0  0  0  0  0  0
  180.0320  180.6110  140.0160 O   0  0  0  0  0  0  0  0  0  0  0  0
  182.4900  175.5040  139.8270 O   0  0  0  0  0  0  0  0  0  0  0  0
  184.3650  177.8480  141.4790 C   0  0  0  0  0  2  0  0  0  0  0  0
  182.4290  178.1500  136.6580 C   0  0  0  0  0  0  0  0  0  0  0  0
  179.9180  180.6480  137.6260 C   0  0  2  0  0  3  0  0  0  0  0  0
  184.7520  178.0210  138.4310 C   0  0  0  0  0  2  0  0  0  0  0  0
  187.2500  177.7030  138.4620 C   0  0  1  0  0  0  0  0  0  0  0  0
  187.1120  177.7810  139.9200 N   0  0  0  0  0  0  0  0  0  0  0  0
  182.9940  177.5450  140.8570 C   0  0  2  0  0  3  0  0  0  0  0  0
  180.6190  178.3840  140.8040 C   0  0  2  0  0  3  0  0  0  0  0  0
  181.2370  180.0240  137.6110 N   0  0  0  0  0  2  0  0  0  0  0  0
  186.6690  176.4330  137.8710 C   0  0  1  0  0  3  0  0  0  0  0  0
  188.1910  177.1700  140.4760 O   0  0  0  0  0  0  0  0  0  0  0  0
  189.8870  179.2840  144.0430 O   0  0  0  0  0  1  0  0  0  0  0  0
  187.9410  176.8130  142.8200 C   0  0  0  0  0  2  0  0  0  0  0  0
  189.9710  177.9990  143.4920 C   0  0  1  0  0  0  0  0  0  0  0  0
  188.3430  177.7760  141.7270 C   0  0  1  0  0  3  0  0  0  0  0  0
  188.8130  177.1610  144.0120 C   0  0  0  0  0  2  0  0  0  0  0  0
  189.7990  178.0830  141.9870 C   0  0  0  0  0  2  0  0  0  0  0  0
  191.6090  176.3450  142.8820 O   0  0  0  0  0  0  0  0  0  0  0  0
  191.2990  177.3010  143.8250 C   0  0  2  0  0  3  0  0  0  0  0  0
  191.1210  175.8350  144.1220 C   0  0  0  0  0  0  0  0  0  0  0  0
  192.1900  174.7610  144.3740 C   0  0  0  0  0  2  0  0  0  0  0  0
  192.0460  175.8480  145.3500 C   0  0  0  0  0  2  0  0  0  0  0  0
  180.1740  177.6290  139.7180 O   0  0  0  0  0  0  0  0  0  0  0  0
  179.1160  176.9480  140.1830 O   0  0  0  0  0  0  0  0  0  0  0  0
  179.2820  175.8270  140.9700 N   0  0  0  0  0  0  0  0  0  0  0  0
  179.0680  174.6360  140.5130 C   0  0  0  0  0  2  0  0  0  0  0  0
  2 10  1  6  0  0  0
  2 27  1  0  0  0  0
  3 18  2  0  0  0  0
  3 25  1  0  0  0  0
  4 20  2  0  0  0  0
  5 26  1  0  0  0  0
  7 28  1  0  0  0  0
  7 22  1  1  0  0  0
  7 23  1  0  0  0  0
 10 15  1  0  0  0  0
 12 19  1  0  0  0  0
 12  6  1  0  0  0  0
 13 17  1  0  0  0  0
 14 11  1  6  0  0  0
 14 22  1  0  0  0  0
 14  3  1  0  0  0  0
 15 21  1  0  0  0  0
 16  6  1  0  0  0  0
 17  1  1  0  0  0  0
 20  2  1  0  0  0  0
 20 11  1  0  0  0  0
 21 13  1  1  0  0  0
 23  8  1  6  0  0  0
 23 24  1  0  0  0  0
 24 16  1  0  0  0  0
 24 29  1  0  0  0  0
 25  5  1  6  0  0  0
 25 19  1  0  0  0  0
 26 41  1  6  0  0  0
 26  1  1  0  0  0  0
 27 21  1  0  0  0  0
 28  9  1  6  0  0  0
 28 23  1  0  0  0  0
 31 34  1  0  0  0  0
 32 37  1  0  0  0  0
 32 34  1  0  0  0  0
 32 30  1  1  0  0  0
 33 29  1  6  0  0  0
 33 35  1  0  0  0  0
 33 31  1  0  0  0  0
 35 32  1  0  0  0  0
 36 38  1  0  0  0  0
 37 36  1  6  0  0  0
 37 38  1  0  0  0  0
 38 39  1  0  0  0  0
 38 40  1  0  0  0  0
 39 40  1  0  0  0  0
 41 42  1  0  0  0  0
 42 43  1  0  0  0  0
 44 43  2  0  0  0  0
M  END
>  <MODEL>
6

>  <REMARK>
 VINA RESULT:      -3.3      4.425      9.512
  Name = 
  6 active torsions:
  status: ('A' for Active; 'I' for Inactive)
    1  A    between atoms: O_9  and  C_29
    2  A    between atoms: O_9  and  N_37
    3  A    between atoms: C_11  and  C_25
    4  A    between atoms: N_20  and  O_40
    5  A    between atoms: O_33  and  C_39
    6  A    between atoms: O_33  and  O_40
                            x       y       z     vdW  Elec       q    Type
                         _______ _______ _______ _____ _____    ______ ____

>  <TORSDO>
F 6

$$$$
=
 OpenBabel11062415513D

 44 50  0  0  1  0  0  0  0  0999 V2000
  180.9990  180.3610  137.3840 C   0  0  0  0  0  2  0  0  0  0  0  0
  181.1690  176.3550  135.8910 C   0  0  1  0  0  3  0  0  0  0  0  0
  183.7030  176.8480  138.8670 C   0  0  0  0  0  0  0  0  0  0  0  0
  182.8860  175.0020  135.0020 O   0  0  0  0  0  0  0  0  0  0  0  0
  183.1210  179.0140  137.6540 C   0  0  0  0  0  2  0  0  0  0  0  0
  187.4780  179.0650  137.1160 C   0  0  0  0  0  2  0  0  0  0  0  0
  186.0130  175.0730  136.3850 C   0  0  1  0  0  3  0  0  0  0  0  0
  188.4660  174.9010  135.9660 O   0  0  0  0  0  1  0  0  0  0  0  0
  187.0420  173.0960  137.2480 O   0  0  0  0  0  1  0  0  0  0  0  0
  179.9930  175.6730  135.2390 C   0  0  0  0  0  2  0  0  0  0  0  0
  182.8260  175.0010  137.3580 C   0  0  0  0  0  2  0  0  0  0  0  0
  185.9630  179.1250  137.2300 C   0  0  0  0  0  2  0  0  0  0  0  0
  179.9390  179.2510  135.7640 C   0  0  0  0  0  2  0  0  0  0  0  0
  184.0550  175.7690  137.8670 C   0  0  1  0  0  3  0  0  0  0  0  0
  178.9310  176.9880  134.5940 S   0  0  0  0  0  0  0  0  0  0  0  0
  187.9250  177.7290  136.5360 C   0  0  0  0  0  2  0  0  0  0  0  0
  181.0530  180.0570  136.0170 O   0  0  0  0  0  0  0  0  0  0  0  0
  183.1590  176.5070  139.9050 O   0  0  0  0  0  0  0  0  0  0  0  0
  185.5080  178.6340  138.6030 C   0  0  0  0  0  2  0  0  0  0  0  0
  182.3370  175.4280  136.0060 C   0  0  0  0  0  0  0  0  0  0  0  0
  180.2900  178.1930  134.7250 C   0  0  2  0  0  3  0  0  0  0  0  0
  185.0500  176.1920  136.7870 C   0  0  0  0  0  2  0  0  0  0  0  0
  187.4460  175.4160  136.7770 C   0  0  1  0  0  0  0  0  0  0  0  0
  187.7160  176.6600  137.5050 N   0  0  0  0  0  0  0  0  0  0  0  0
  184.0080  178.3160  138.6850 C   0  0  2  0  0  3  0  0  0  0  0  0
  181.7450  179.3270  138.2340 C   0  0  2  0  0  3  0  0  0  0  0  0
  181.5280  177.5100  135.0840 N   0  0  0  0  0  2  0  0  0  0  0  0
  186.6740  174.3980  137.5930 C   0  0  1  0  0  3  0  0  0  0  0  0
  188.8810  176.5010  138.1870 O   0  0  0  0  0  0  0  0  0  0  0  0
  189.8490  178.9860  141.7870 O   0  0  0  0  0  1  0  0  0  0  0  0
  187.5350  177.3320  139.9710 C   0  0  0  0  0  2  0  0  0  0  0  0
  189.3690  177.6920  141.5480 C   0  0  1  0  0  0  0  0  0  0  0  0
  188.8330  177.4550  139.2090 C   0  0  1  0  0  3  0  0  0  0  0  0
  187.8570  177.7460  141.3950 C   0  0  0  0  0  2  0  0  0  0  0  0
  189.9160  177.1860  140.2270 C   0  0  0  0  0  2  0  0  0  0  0  0
  189.3550  177.2000  143.9040 O   0  0  0  0  0  0  0  0  0  0  0  0
  189.7360  176.7110  142.6730 C   0  0  2  0  0  3  0  0  0  0  0  0
  190.7520  177.2800  143.6260 C   0  0  0  0  0  0  0  0  0  0  0  0
  191.2880  176.6870  144.9390 C   0  0  0  0  0  2  0  0  0  0  0  0
  191.5990  175.9970  143.6800 C   0  0  0  0  0  2  0  0  0  0  0  0
  180.9880  178.1590  138.3390 O   0  0  0  0  0  0  0  0  0  0  0  0
  180.3810  178.2490  139.5320 O   0  0  0  0  0  0  0  0  0  0  0  0
  180.8160  179.1450  140.4860 N   0  0  0  0  0  0  0  0  0  0  0  0
  180.7570  178.8770  141.7500 C   0  0  0  0  0  2  0  0  0  0  0  0
  1 26  1  0  0  0  0
  2 10  1  6  0  0  0
  2 20  1  0  0  0  0
  3 18  2  0  0  0  0
  4 20  2  0  0  0  0
  5 26  1  0  0  0  0
  6 12  1  0  0  0  0
  7 23  1  0  0  0  0
  7 22  1  1  0  0  0
  7 28  1  0  0  0  0
 11 14  1  0  0  0  0
 12 19  1  0  0  0  0
 13 17  1  0  0  0  0
 14 22  1  6  0  0  0
 14  3  1  0  0  0  0
 15 21  1  0  0  0  0
 15 10  1  0  0  0  0
 16  6  1  0  0  0  0
 16 24  1  0  0  0  0
 17  1  1  0  0  0  0
 19 25  1  0  0  0  0
 20 11  1  0  0  0  0
 21 27  1  0  0  0  0
 21 13  1  1  0  0  0
 23  8  1  6  0  0  0
 23 24  1  0  0  0  0
 23 28  1  0  0  0  0
 24 29  1  0  0  0  0
 25  5  1  6  0  0  0
 25  3  1  0  0  0  0
 26 41  1  6  0  0  0
 27  2  1  0  0  0  0
 28  9  1  6  0  0  0
 31 34  1  0  0  0  0
 32 30  1  1  0  0  0
 32 37  1  0  0  0  0
 33 29  1  6  0  0  0
 33 31  1  0  0  0  0
 33 35  1  0  0  0  0
 34 32  1  0  0  0  0
 35 32  1  0  0  0  0
 37 38  1  0  0  0  0
 37 36  1  1  0  0  0
 38 40  1  0  0  0  0
 38 36  1  0  0  0  0
 38 39  1  0  0  0  0
 40 39  1  0  0  0  0
 41 42  1  0  0  0  0
 42 43  1  0  0  0  0
 43 44  2  0  0  0  0
M  END
>  <MODEL>
7

>  <REMARK>
 VINA RESULT:      -3.3      3.620      8.584
  Name = 
  6 active torsions:
  status: ('A' for Active; 'I' for Inactive)
    1  A    between atoms: O_9  and  C_29
    2  A    between atoms: O_9  and  N_37
    3  A    between atoms: C_11  and  C_25
    4  A    between atoms: N_20  and  O_40
    5  A    between atoms: O_33  and  C_39
    6  A    between atoms: O_33  and  O_40
                            x       y       z     vdW  Elec       q    Type
                         _______ _______ _______ _____ _____    ______ ____

>  <TORSDO>
F 6

$$$$
=
 OpenBabel11062415513D

 44 50  0  0  1  0  0  0  0  0999 V2000
  185.5720  175.8060  135.2570 C   0  0  0  0  0  2  0  0  0  0  0  0
  182.5770  176.2360  138.2810 C   0  0  1  0  0  3  0  0  0  0  0  0
  185.3480  179.0120  138.6520 C   0  0  0  0  0  0  0  0  0  0  0  0
  182.6130  176.2590  140.6400 O   0  0  0  0  0  0  0  0  0  0  0  0
  186.1600  176.9140  137.4520 C   0  0  0  0  0  2  0  0  0  0  0  0
  189.0570  176.9930  140.7500 C   0  0  0  0  0  2  0  0  0  0  0  0
  185.1280  177.8770  142.2990 C   0  0  1  0  0  3  0  0  0  0  0  0
  186.5930  177.9050  144.3180 O   0  0  0  0  0  1  0  0  0  0  0  0
  184.6710  179.6410  143.8470 O   0  0  0  0  0  1  0  0  0  0  0  0
  181.1480  175.7940  138.0880 C   0  0  0  0  0  2  0  0  0  0  0  0
  183.1210  178.3510  139.6810 C   0  0  0  0  0  2  0  0  0  0  0  0
  188.0860  176.8670  139.5860 C   0  0  0  0  0  2  0  0  0  0  0  0
  183.7020  174.7030  135.7710 C   0  0  0  0  0  2  0  0  0  0  0  0
  184.6120  178.6350  139.9180 C   0  0  1  0  0  3  0  0  0  0  0  0
  181.1780  174.5070  136.8170 S   0  0  0  0  0  0  0  0  0  0  0  0
  188.3060  177.1150  142.0700 C   0  0  0  0  0  2  0  0  0  0  0  0
  185.0810  174.7270  136.0030 O   0  0  0  0  0  0  0  0  0  0  0  0
  184.9820  180.0120  138.0560 O   0  0  0  0  0  0  0  0  0  0  0  0
  187.7550  178.2420  139.0110 C   0  0  0  0  0  2  0  0  0  0  0  0
  182.7650  176.8960  139.6100 C   0  0  0  0  0  0  0  0  0  0  0  0
  182.9710  174.2820  137.0400 C   0  0  2  0  0  3  0  0  0  0  0  0
  185.3340  177.6220  140.8050 C   0  0  0  0  0  2  0  0  0  0  0  0
  186.4380  178.2690  142.9740 C   0  0  1  0  0  0  0  0  0  0  0  0
  187.6510  178.4140  142.1630 N   0  0  0  0  0  0  0  0  0  0  0  0
  186.5270  178.2540  138.0890 C   0  0  2  0  0  3  0  0  0  0  0  0
  185.5690  177.1110  136.0590 C   0  0  2  0  0  3  0  0  0  0  0  0
  183.4320  175.0640  138.1830 N   0  0  0  0  0  2  0  0  0  0  0  0
  185.3970  179.3350  142.6940 C   0  0  1  0  0  3  0  0  0  0  0  0
  188.4990  179.2460  142.8240 O   0  0  0  0  0  0  0  0  0  0  0  0
  191.0910  176.1650  144.7910 O   0  0  0  0  0  1  0  0  0  0  0  0
  190.7530  179.3040  143.5980 C   0  0  0  0  0  2  0  0  0  0  0  0
  190.5590  177.4150  145.1380 C   0  0  1  0  0  0  0  0  0  0  0  0
  189.5840  178.4410  143.1860 C   0  0  1  0  0  3  0  0  0  0  0  0
  191.5000  178.5050  144.6490 C   0  0  0  0  0  2  0  0  0  0  0  0
  189.2450  177.6240  144.4100 C   0  0  0  0  0  2  0  0  0  0  0  0
  189.9520  176.3710  147.2200 O   0  0  0  0  0  0  0  0  0  0  0  0
  190.3450  177.5640  146.6520 C   0  0  2  0  0  3  0  0  0  0  0  0
  188.9140  177.3350  147.0580 C   0  0  0  0  0  0  0  0  0  0  0  0
  188.3050  177.2650  148.4670 C   0  0  0  0  0  2  0  0  0  0  0  0
  188.8620  178.5440  148.0080 C   0  0  0  0  0  2  0  0  0  0  0  0
  184.2690  177.6110  136.1530 O   0  0  0  0  0  0  0  0  0  0  0  0
  183.8430  177.7050  134.8850 O   0  0  0  0  0  0  0  0  0  0  0  0
  182.5010  177.8410  134.5940 N   0  0  0  0  0  0  0  0  0  0  0  0
  181.6620  178.3210  135.4540 C   0  0  0  0  0  2  0  0  0  0  0  0
  1 17  1  0  0  0  0
  1 26  1  0  0  0  0
  2 10  1  1  0  0  0
  2 20  1  0  0  0  0
  3 14  1  0  0  0  0
  6 16  1  0  0  0  0
  7 22  1  6  0  0  0
  7 28  1  0  0  0  0
  7 23  1  0  0  0  0
 12  6  1  0  0  0  0
 13 17  1  0  0  0  0
 14 11  1  6  0  0  0
 14 22  1  0  0  0  0
 15 21  1  0  0  0  0
 15 10  1  0  0  0  0
 16 24  1  0  0  0  0
 18  3  2  0  0  0  0
 19 12  1  0  0  0  0
 20 11  1  0  0  0  0
 20  4  2  0  0  0  0
 21 13  1  6  0  0  0
 21 27  1  0  0  0  0
 23  8  1  1  0  0  0
 24 29  1  0  0  0  0
 24 23  1  0  0  0  0
 25  5  1  1  0  0  0
 25  3  1  0  0  0  0
 25 19  1  0  0  0  0
 26 41  1  1  0  0  0
 26  5  1  0  0  0  0
 27  2  1  0  0  0  0
 28 23  1  0  0  0  0
 28  9  1  1  0  0  0
 31 34  1  0  0  0  0
 32 30  1  6  0  0  0
 32 37  1  0  0  0  0
 33 29  1  1  0  0  0
 33 31  1  0  0  0  0
 33 35  1  0  0  0  0
 34 32  1  0  0  0  0
 35 32  1  0  0  0  0
 37 38  1  0  0  0  0
 37 36  1  1  0  0  0
 38 36  1  0  0  0  0
 38 40  1  0  0  0  0
 38 39  1  0  0  0  0
 40 39  1  0  0  0  0
 42 41  1  0  0  0  0
 43 42  1  0  0  0  0
 43 44  2  0  0  0  0
M  END
>  <MODEL>
8

>  <REMARK>
 VINA RESULT:      -2.7      5.362      8.651
  Name = 
  6 active torsions:
  status: ('A' for Active; 'I' for Inactive)
    1  A    between atoms: O_9  and  C_29
    2  A    between atoms: O_9  and  N_37
    3  A    between atoms: C_11  and  C_25
    4  A    between atoms: N_20  and  O_40
    5  A    between atoms: O_33  and  C_39
    6  A    between atoms: O_33  and  O_40
                            x       y       z     vdW  Elec       q    Type
                         _______ _______ _______ _____ _____    ______ ____

>  <TORSDO>
F 6

$$$$
=
 OpenBabel11062415513D

 44 50  0  0  1  0  0  0  0  0999 V2000
  183.0230  177.9390  138.7090 C   0  0  0  0  0  2  0  0  0  0  0  0
  186.4860  178.7380  141.0900 C   0  0  1  0  0  3  0  0  0  0  0  0
  187.4460  178.4430  137.2810 C   0  0  0  0  0  0  0  0  0  0  0  0
  188.5450  177.6340  141.4220 O   0  0  0  0  0  0  0  0  0  0  0  0
  185.3000  177.2070  137.8910 C   0  0  0  0  0  2  0  0  0  0  0  0
  187.5940  173.8460  136.2440 C   0  0  0  0  0  2  0  0  0  0  0  0
  190.1710  176.2090  138.7720 C   0  0  1  0  0  3  0  0  0  0  0  0
  191.6310  174.3390  138.0030 O   0  0  0  0  0  1  0  0  0  0  0  0
  192.3960  176.8510  138.1800 O   0  0  0  0  0  1  0  0  0  0  0  0
  186.4270  179.4880  142.3980 C   0  0  0  0  0  2  0  0  0  0  0  0
  188.5250  179.0120  139.5100 C   0  0  0  0  0  2  0  0  0  0  0  0
  186.7310  174.9390  136.8520 C   0  0  0  0  0  2  0  0  0  0  0  0
  183.3820  178.2480  140.8890 C   0  0  0  0  0  2  0  0  0  0  0  0
  188.5400  178.1060  138.2690 C   0  0  1  0  0  3  0  0  0  0  0  0
  184.7440  179.2820  143.0290 S   0  0  0  0  0  0  0  0  0  0  0  0
  188.9590  173.7940  136.9200 C   0  0  0  0  0  2  0  0  0  0  0  0
  183.3020  177.2600  139.9030 O   0  0  0  0  0  0  0  0  0  0  0  0
  187.4460  179.5610  136.7890 O   0  0  0  0  0  0  0  0  0  0  0  0
  186.9070  176.2500  136.0900 C   0  0  0  0  0  2  0  0  0  0  0  0
  187.8960  178.3990  140.7250 C   0  0  0  0  0  0  0  0  0  0  0  0
  184.4580  177.8800  141.9040 C   0  0  2  0  0  3  0  0  0  0  0  0
  188.7120  176.6150  138.5550 C   0  0  0  0  0  2  0  0  0  0  0  0
  190.6530  175.2820  137.6610 C   0  0  1  0  0  0  0  0  0  0  0  0
  189.7530  174.9590  136.5500 N   0  0  0  0  0  0  0  0  0  0  0  0
  186.3700  177.4820  136.8330 C   0  0  2  0  0  3  0  0  0  0  0  0
  184.2990  178.3560  137.9710 C   0  0  2  0  0  3  0  0  0  0  0  0
  185.7010  177.5220  141.2290 N   0  0  0  0  0  2  0  0  0  0  0  0
  191.1020  176.7300  137.6700 C   0  0  1  0  0  3  0  0  0  0  0  0
  190.5150  174.6040  135.4830 O   0  0  0  0  0  0  0  0  0  0  0  0
  193.5650  171.5800  136.7570 O   0  0  0  0  0  1  0  0  0  0  0  0
  190.8980  172.3420  134.8360 C   0  0  0  0  0  2  0  0  0  0  0  0
  193.2280  172.2410  135.5680 C   0  0  1  0  0  0  0  0  0  0  0  0
  191.1450  173.4160  135.8680 C   0  0  1  0  0  3  0  0  0  0  0  0
  192.1310  171.4590  134.8620 C   0  0  0  0  0  2  0  0  0  0  0  0
  192.6430  173.6010  135.8960 C   0  0  0  0  0  2  0  0  0  0  0  0
  195.2110  171.2700  134.6100 O   0  0  0  0  0  0  0  0  0  0  0  0
  194.4290  172.4050  134.6240 C   0  0  2  0  0  3  0  0  0  0  0  0
  195.7460  172.3630  135.3530 C   0  0  0  0  0  0  0  0  0  0  0  0
  197.1720  172.3630  134.7790 C   0  0  0  0  0  2  0  0  0  0  0  0
  196.3420  173.5610  134.5940 C   0  0  0  0  0  2  0  0  0  0  0  0
  184.8790  179.4570  138.6040 O   0  0  0  0  0  0  0  0  0  0  0  0
  183.8610  180.0750  139.2220 O   0  0  0  0  0  0  0  0  0  0  0  0
  183.3270  181.2430  138.7180 N   0  0  0  0  0  0  0  0  0  0  0  0
  182.0490  181.4230  138.6240 C   0  0  0  0  0  2  0  0  0  0  0  0
  1 17  1  0  0  0  0
  2 27  1  0  0  0  0
  2 10  1  1  0  0  0
  3 14  1  0  0  0  0
  5 26  1  0  0  0  0
  6 12  1  0  0  0  0
  6 16  1  0  0  0  0
  7 22  1  6  0  0  0
 10 15  1  0  0  0  0
 11 20  1  0  0  0  0
 14 22  1  1  0  0  0
 14 11  1  0  0  0  0
 17 13  1  0  0  0  0
 18  3  2  0  0  0  0
 19 12  1  0  0  0  0
 20  2  1  0  0  0  0
 20  4  2  0  0  0  0
 21 13  1  6  0  0  0
 21 15  1  0  0  0  0
 23 28  1  0  0  0  0
 23  8  1  1  0  0  0
 23  7  1  0  0  0  0
 24 16  1  0  0  0  0
 24 23  1  0  0  0  0
 25 19  1  1  0  0  0
 25  3  1  0  0  0  0
 25  5  1  0  0  0  0
 26 41  1  1  0  0  0
 26  1  1  0  0  0  0
 27 21  1  0  0  0  0
 28  9  1  1  0  0  0
 28  7  1  0  0  0  0
 29 24  1  0  0  0  0
 31 34  1  0  0  0  0
 31 33  1  0  0  0  0
 32 35  1  0  0  0  0
 32 30  1  1  0  0  0
 33 29  1  6  0  0  0
 33 35  1  0  0  0  0
 34 32  1  0  0  0  0
 36 38  1  0  0  0  0
 37 36  1  6  0  0  0
 37 38  1  0  0  0  0
 37 32  1  0  0  0  0
 39 38  1  0  0  0  0
 40 39  1  0  0  0  0
 40 38  1  0  0  0  0
 41 42  1  0  0  0  0
 43 42  1  0  0  0  0
 44 43  2  0  0  0  0
M  END
>  <MODEL>
9

>  <REMARK>
 VINA RESULT:      -2.5      4.521     11.286
  Name = 
  6 active torsions:
  status: ('A' for Active; 'I' for Inactive)
    1  A    between atoms: O_9  and  C_29
    2  A    between atoms: O_9  and  N_37
    3  A    between atoms: C_11  and  C_25
    4  A    between atoms: N_20  and  O_40
    5  A    between atoms: O_33  and  C_39
    6  A    between atoms: O_33  and  O_40
                            x       y       z     vdW  Elec       q    Type
                         _______ _______ _______ _____ _____    ______ ____

>  <TORSDO>
F 6

$$$$
