=
 OpenBabel11062413253D

 46 51  0  0  1  0  0  0  0  0999 V2000
  186.8020  178.6500  141.8790 C   0  0  0  0  0  0  0  0  0  0  0  0
  183.5080  177.5090  139.6210 O   0  0  0  0  0  0  0  0  0  0  0  0
  185.4500  179.3450  139.6280 O   0  0  0  0  0  1  0  0  0  0  0  0
  183.5380  178.2970  140.6030 C   0  0  0  0  0  0  0  0  0  0  0  0
  188.9610  177.2290  138.3430 C   0  0  0  0  0  2  0  0  0  0  0  0
  190.7400  177.0110  141.7210 N   0  0  0  0  0  2  0  0  0  0  0  0
  184.9190  178.6240  143.3320 C   0  0  0  0  0  3  0  0  0  0  0  0
  188.9280  175.5590  142.7110 C   0  0  0  0  0  1  0  0  0  0  0  0
  185.5120  178.8340  141.9930 C   0  0  0  0  0  0  0  0  0  0  0  0
  188.8830  178.1030  142.9860 C   0  0  1  0  0  3  0  0  0  0  0  0
  182.4910  178.2590  141.5710 N   0  0  0  0  0  2  0  0  0  0  0  0
  189.6810  176.1440  137.8210 O   0  0  0  0  0  0  0  0  0  0  0  0
  188.0870  178.4580  141.7670 C   0  0  0  0  0  0  0  0  0  0  0  0
  191.4770  176.6160  139.4230 C   0  0  0  0  0  2  0  0  0  0  0  0
  189.0060  177.1990  139.8710 C   0  0  1  0  0  3  0  0  0  0  0  0
  190.3030  176.5310  140.4040 C   0  0  2  0  0  3  0  0  0  0  0  0
  184.6850  179.2420  140.7960 C   0  0  1  0  0  3  0  0  0  0  0  0
  183.6260  178.7390  143.6650 C   0  0  0  0  0  3  0  0  0  0  0  0
  182.5170  179.1410  142.7330 C   0  0  2  0  0  3  0  0  0  0  0  0
  191.0380  176.4920  137.9510 C   0  0  1  0  0  3  0  0  0  0  0  0
  188.7330  178.5870  140.4270 C   0  0  0  0  0  2  0  0  0  0  0  0
  189.7420  176.8480  142.7900 C   0  0  2  0  0  3  0  0  0  0  0  0
  194.7300  174.3300  134.9410 C   0  0  0  0  0  2  0  0  0  0  0  0
  194.6010  172.8200  135.0990 C   0  0  0  0  0  2  0  0  0  0  0  0
  192.2390  173.9250  135.2800 C   0  0  1  0  0  3  0  0  0  0  0  0
  191.4530  174.9290  136.0900 C   0  0  0  0  0  3  0  0  0  0  0  0
  193.3160  175.3160  137.7140 C   0  0  0  0  0  2  0  0  0  0  0  0
  193.6550  173.7480  135.8280 C   0  0  0  0  0  0  0  0  0  0  0  0
  193.8920  173.9610  137.3130 C   0  0  0  0  0  2  0  0  0  0  0  0
  191.9050  175.5170  137.2170 C   0  0  0  0  0  0  0  0  0  0  0  0
  186.1120  175.2040  136.9520 Cl  0  0  0  0  0  0  0  0  0  0  0  0
  186.8410  171.3310  135.5730 C   0  0  0  0  0  3  0  0  0  0  0  0
  190.2230  172.6000  135.4880 C   0  0  0  0  0  0  0  0  0  0  0  0
  186.1410  172.5300  136.0700 C   0  0  0  0  0  0  0  0  0  0  0  0
  191.5110  172.6240  135.2960 C   0  0  0  0  0  3  0  0  0  0  0  0
  188.9340  172.5760  135.6760 C   0  0  0  0  0  0  0  0  0  0  0  0
  186.9130  173.7590  136.3620 C   0  0  0  0  0  0  0  0  0  0  0  0
  184.8940  172.4990  136.2430 O   0  0  0  0  0  0  0  0  0  0  0  0
  188.1640  171.3520  135.3860 C   0  0  0  0  0  3  0  0  0  0  0  0
  188.2360  173.7760  136.1730 C   0  0  0  0  0  3  0  0  0  0  0  0
  181.1710  179.1010  143.4570 C   0  0  1  0  0  3  0  0  0  0  0  0
  180.3690  180.2580  143.0930 N   0  0  0  0  0  1  0  0  0  0  0  0
  180.4050  177.8420  143.0920 C   0  0  0  0  0  1  0  0  0  0  0  0
  189.7300  179.2940  143.4230 C   0  0  0  0  0  2  0  0  0  0  0  0
  191.9960  179.2370  144.1880 O   0  0  0  0  0  1  0  0  0  0  0  0
  190.6870  178.9080  144.5390 C   0  0  0  0  0  2  0  0  0  0  0  0
  1  9  2  0  0  0  0
  2  4  2  0  0  0  0
  4 17  1  0  0  0  0
  4 11  1  0  0  0  0
  6 22  1  0  0  0  0
  7 18  2  0  0  0  0
  9  7  1  0  0  0  0
 10 44  1  6  0  0  0
 11 19  1  0  0  0  0
 12 20  1  0  0  0  0
 12  5  1  0  0  0  0
 13  1  2  0  0  0  0
 13 10  1  0  0  0  0
 15  5  1  6  0  0  0
 15 16  1  0  0  0  0
 15 21  1  0  0  0  0
 16 14  1  6  0  0  0
 16  6  1  0  0  0  0
 17  3  1  6  0  0  0
 17  9  1  0  0  0  0
 19 41  1  1  0  0  0
 19 18  1  0  0  0  0
 20 30  1  1  0  0  0
 20 14  1  0  0  0  0
 21 13  1  0  0  0  0
 22  8  1  6  0  0  0
 22 10  1  0  0  0  0
 23 24  1  0  0  0  0
 23 28  1  0  0  0  0
 24 28  1  0  0  0  0
 25 35  1  1  0  0  0
 25 28  1  0  0  0  0
 25 26  1  0  0  0  0
 26 30  2  0  0  0  0
 28 29  1  0  0  0  0
 29 27  1  0  0  0  0
 30 27  1  0  0  0  0
 32 34  1  0  0  0  0
 33 36  2  0  0  0  0
 34 38  2  0  0  0  0
 34 37  1  0  0  0  0
 35 33  2  0  0  0  0
 36 40  1  0  0  0  0
 37 31  1  0  0  0  0
 39 32  2  0  0  0  0
 39 36  1  0  0  0  0
 40 37  2  0  0  0  0
 41 43  1  6  0  0  0
 42 41  1  0  0  0  0
 44 46  1  0  0  0  0
 45 46  1  0  0  0  0
M  END
>  <MODEL>
1

>  <REMARK>
 VINA RESULT:      -8.2      0.000      0.000
  Name = 
  5 active torsions:
  status: ('A' for Active; 'I' for Inactive)
    1  A    between atoms: C_10  and  C_19
    2  A    between atoms: C_10  and  C_44
    3  A    between atoms: C_14  and  C_21
    4  A    between atoms: C_27  and  C_40
    5  A    between atoms: C_33  and  C_41
                            x       y       z     vdW  Elec       q    Type
                         _______ _______ _______ _____ _____    ______ ____

>  <TORSDO>
F 5

$$$$
=
 OpenBabel11062413253D

 46 51  0  0  1  0  0  0  0  0999 V2000
  190.7770  175.9320  138.1300 C   0  0  0  0  0  0  0  0  0  0  0  0
  191.3310  173.8240  134.5940 O   0  0  0  0  0  0  0  0  0  0  0  0
  190.3250  173.4820  137.0460 O   0  0  0  0  0  1  0  0  0  0  0  0
  192.1340  173.9450  135.5580 C   0  0  0  0  0  0  0  0  0  0  0  0
  186.5660  175.5620  136.9840 C   0  0  0  0  0  2  0  0  0  0  0  0
  187.5800  178.5950  139.0800 N   0  0  0  0  0  2  0  0  0  0  0  0
  193.0900  176.0460  137.5890 C   0  0  0  0  0  3  0  0  0  0  0  0
  189.2510  179.3720  137.3550 C   0  0  0  0  0  1  0  0  0  0  0  0
  191.7990  175.3260  137.5820 C   0  0  0  0  0  0  0  0  0  0  0  0
  189.9630  177.8810  139.3100 C   0  0  1  0  0  3  0  0  0  0  0  0
  193.5260  174.1250  135.2990 N   0  0  0  0  0  2  0  0  0  0  0  0
  185.4930  176.2470  136.3950 O   0  0  0  0  0  0  0  0  0  0  0  0
  189.7590  176.5410  138.6710 C   0  0  0  0  0  0  0  0  0  0  0  0
  185.4140  177.7250  138.3500 C   0  0  0  0  0  2  0  0  0  0  0  0
  187.5720  176.5610  137.5550 C   0  0  1  0  0  3  0  0  0  0  0  0
  186.8950  177.8890  137.9910 C   0  0  2  0  0  3  0  0  0  0  0  0
  191.6420  173.9520  136.9730 C   0  0  1  0  0  3  0  0  0  0  0  0
  194.2500  175.6220  137.0700 C   0  0  0  0  0  3  0  0  0  0  0  0
  194.4710  174.2960  136.3960 C   0  0  2  0  0  3  0  0  0  0  0  0
  184.6930  176.6910  137.4640 C   0  0  1  0  0  3  0  0  0  0  0  0
  188.4130  175.8950  138.6320 C   0  0  0  0  0  2  0  0  0  0  0  0
  188.9820  178.9410  138.7940 C   0  0  2  0  0  3  0  0  0  0  0  0
  181.0120  179.0670  134.6060 C   0  0  0  0  0  2  0  0  0  0  0  0
  179.6780  178.7920  135.2880 C   0  0  0  0  0  2  0  0  0  0  0  0
  181.5610  178.9750  137.0900 C   0  0  1  0  0  3  0  0  0  0  0  0
  182.8690  178.3490  137.5130 C   0  0  0  0  0  3  0  0  0  0  0  0
  182.7670  176.5670  135.7600 C   0  0  0  0  0  2  0  0  0  0  0  0
  180.9620  178.2580  135.8810 C   0  0  0  0  0  0  0  0  0  0  0  0
  181.2580  176.7800  135.6900 C   0  0  0  0  0  2  0  0  0  0  0  0
  183.3930  177.2350  136.9610 C   0  0  0  0  0  0  0  0  0  0  0  0
  185.1360  178.3320  142.4550 Cl  0  0  0  0  0  0  0  0  0  0  0  0
  181.0940  179.1800  143.0650 C   0  0  0  0  0  3  0  0  0  0  0  0
  181.0710  178.9170  139.4620 C   0  0  0  0  0  0  0  0  0  0  0  0
  182.5220  178.9160  143.3220 C   0  0  0  0  0  0  0  0  0  0  0  0
  180.6150  178.9250  138.2420 C   0  0  0  0  0  3  0  0  0  0  0  0
  181.5290  178.9110  140.6820 C   0  0  0  0  0  0  0  0  0  0  0  0
  183.4320  178.6480  142.1860 C   0  0  0  0  0  0  0  0  0  0  0  0
  182.9560  178.9190  144.5050 O   0  0  0  0  0  0  0  0  0  0  0  0
  180.6230  179.1780  141.8140 C   0  0  0  0  0  3  0  0  0  0  0  0
  182.9570  178.6470  140.9360 C   0  0  0  0  0  3  0  0  0  0  0  0
  195.9060  174.1940  135.8780 C   0  0  1  0  0  3  0  0  0  0  0  0
  196.7290  175.2420  136.4610 N   0  0  0  0  0  1  0  0  0  0  0  0
  196.5080  172.8460  136.2360 C   0  0  0  0  0  1  0  0  0  0  0  0
  189.8950  177.7520  140.8290 C   0  0  0  0  0  2  0  0  0  0  0  0
  191.3760  177.9890  142.6930 O   0  0  0  0  0  1  0  0  0  0  0  0
  191.2630  177.4410  141.4150 C   0  0  0  0  0  2  0  0  0  0  0  0
  1 13  2  0  0  0  0
  2  4  2  0  0  0  0
  4 17  1  0  0  0  0
  9  7  1  0  0  0  0
  9  1  2  0  0  0  0
 10 44  1  1  0  0  0
 11  4  1  0  0  0  0
 11 19  1  0  0  0  0
 12  5  1  0  0  0  0
 12 20  1  0  0  0  0
 13 10  1  0  0  0  0
 15  5  1  1  0  0  0
 15 16  1  0  0  0  0
 15 21  1  0  0  0  0
 16 14  1  1  0  0  0
 16  6  1  0  0  0  0
 17  3  1  6  0  0  0
 17  9  1  0  0  0  0
 18  7  2  0  0  0  0
 19 41  1  6  0  0  0
 19 18  1  0  0  0  0
 20 30  1  6  0  0  0
 20 14  1  0  0  0  0
 21 13  1  0  0  0  0
 22  8  1  6  0  0  0
 22  6  1  0  0  0  0
 22 10  1  0  0  0  0
 23 24  1  0  0  0  0
 23 28  1  0  0  0  0
 24 28  1  0  0  0  0
 25 26  1  0  0  0  0
 25 35  1  1  0  0  0
 27 30  1  0  0  0  0
 28 25  1  0  0  0  0
 29 27  1  0  0  0  0
 29 28  1  0  0  0  0
 30 26  2  0  0  0  0
 32 34  1  0  0  0  0
 33 36  2  0  0  0  0
 34 38  2  0  0  0  0
 35 33  2  0  0  0  0
 36 40  1  0  0  0  0
 36 39  1  0  0  0  0
 37 31  1  0  0  0  0
 37 34  1  0  0  0  0
 39 32  2  0  0  0  0
 40 37  2  0  0  0  0
 41 43  1  1  0  0  0
 41 42  1  0  0  0  0
 44 46  1  0  0  0  0
 46 45  1  0  0  0  0
M  END
>  <MODEL>
2

>  <REMARK>
 VINA RESULT:      -8.0      3.510     10.192
  Name = 
  5 active torsions:
  status: ('A' for Active; 'I' for Inactive)
    1  A    between atoms: C_10  and  C_19
    2  A    between atoms: C_10  and  C_44
    3  A    between atoms: C_14  and  C_21
    4  A    between atoms: C_27  and  C_40
    5  A    between atoms: C_33  and  C_41
                            x       y       z     vdW  Elec       q    Type
                         _______ _______ _______ _____ _____    ______ ____

>  <TORSDO>
F 5

$$$$
=
 OpenBabel11062413253D

 46 51  0  0  1  0  0  0  0  0999 V2000
  191.2760  176.3510  136.6160 C   0  0  0  0  0  0  0  0  0  0  0  0
  194.1050  175.0880  139.3820 O   0  0  0  0  0  0  0  0  0  0  0  0
  193.1710  177.3420  138.2920 O   0  0  0  0  0  1  0  0  0  0  0  0
  194.2420  175.2130  138.1360 C   0  0  0  0  0  0  0  0  0  0  0  0
  189.3790  177.9920  140.2070 C   0  0  0  0  0  2  0  0  0  0  0  0
  187.1120  177.0080  137.2890 N   0  0  0  0  0  2  0  0  0  0  0  0
  192.6770  174.7670  135.5270 C   0  0  0  0  0  3  0  0  0  0  0  0
  187.9210  174.6160  137.3190 C   0  0  0  0  0  1  0  0  0  0  0  0
  192.4780  175.8440  136.5220 C   0  0  0  0  0  0  0  0  0  0  0  0
  189.0030  176.3600  135.7890 C   0  0  1  0  0  3  0  0  0  0  0  0
  194.9830  174.2370  137.4060 N   0  0  0  0  0  2  0  0  0  0  0  0
  188.3690  177.7640  141.1530 O   0  0  0  0  0  0  0  0  0  0  0  0
  190.0750  176.8510  136.7120 C   0  0  0  0  0  0  0  0  0  0  0  0
  186.6970  178.1630  139.4040 C   0  0  0  0  0  2  0  0  0  0  0  0
  189.0560  177.2500  138.9100 C   0  0  1  0  0  3  0  0  0  0  0  0
  187.5270  177.0870  138.6960 C   0  0  2  0  0  3  0  0  0  0  0  0
  193.5980  176.3490  137.4020 C   0  0  1  0  0  3  0  0  0  0  0  0
  193.8120  174.1000  135.2810 C   0  0  0  0  0  3  0  0  0  0  0  0
  195.1320  174.3440  135.9590 C   0  0  2  0  0  3  0  0  0  0  0  0
  187.2930  178.5820  140.7620 C   0  0  1  0  0  3  0  0  0  0  0  0
  189.7950  177.8910  137.7460 C   0  0  0  0  0  2  0  0  0  0  0  0
  187.7380  175.9110  136.5320 C   0  0  2  0  0  3  0  0  0  0  0  0
  183.2890  179.9670  143.8310 C   0  0  0  0  0  2  0  0  0  0  0  0
  183.0310  178.7980  144.7740 C   0  0  0  0  0  2  0  0  0  0  0  0
  185.5860  178.9470  144.2430 C   0  0  1  0  0  3  0  0  0  0  0  0
  186.5680  178.9040  143.0960 C   0  0  0  0  0  3  0  0  0  0  0  0
  184.8030  178.4080  141.3940 C   0  0  0  0  0  2  0  0  0  0  0  0
  184.1520  178.7280  143.7610 C   0  0  0  0  0  0  0  0  0  0  0  0
  183.9220  177.8800  142.5220 C   0  0  0  0  0  2  0  0  0  0  0  0
  186.2360  178.6070  141.8230 C   0  0  0  0  0  0  0  0  0  0  0  0
  192.0390  178.4040  144.0570 Cl  0  0  0  0  0  0  0  0  0  0  0  0
  190.1450  176.4120  147.2000 C   0  0  0  0  0  3  0  0  0  0  0  0
  187.2200  177.6650  145.4900 C   0  0  0  0  0  0  0  0  0  0  0  0
  191.1960  176.9500  146.3160 C   0  0  0  0  0  0  0  0  0  0  0  0
  185.9640  177.8980  145.2340 C   0  0  0  0  0  3  0  0  0  0  0  0
  188.4760  177.4350  145.7480 C   0  0  0  0  0  0  0  0  0  0  0  0
  190.8150  177.7470  145.1280 C   0  0  0  0  0  0  0  0  0  0  0  0
  192.4080  176.7270  146.5780 O   0  0  0  0  0  0  0  0  0  0  0  0
  188.8560  176.6410  146.9310 C   0  0  0  0  0  3  0  0  0  0  0  0
  189.5250  177.9750  144.8630 C   0  0  0  0  0  3  0  0  0  0  0  0
  196.1800  173.3490  135.4600 C   0  0  1  0  0  3  0  0  0  0  0  0
  197.5170  173.8150  135.7900 N   0  0  0  0  0  1  0  0  0  0  0  0
  195.9680  171.9860  136.0970 C   0  0  0  0  0  1  0  0  0  0  0  0
  188.6850  177.4240  134.7430 C   0  0  0  0  0  2  0  0  0  0  0  0
  186.8640  178.9740  134.6600 O   0  0  0  0  0  1  0  0  0  0  0  0
  187.1850  177.6180  134.5950 C   0  0  0  0  0  2  0  0  0  0  0  0
  1 13  2  0  0  0  0
  4  2  2  0  0  0  0
  5 12  1  0  0  0  0
  6 16  1  0  0  0  0
  7  9  1  0  0  0  0
  9  1  2  0  0  0  0
  9 17  1  0  0  0  0
 10 44  1  6  0  0  0
 10 22  1  0  0  0  0
 10 13  1  0  0  0  0
 11  4  1  0  0  0  0
 13 21  1  0  0  0  0
 14 20  1  0  0  0  0
 15 21  1  6  0  0  0
 15  5  1  0  0  0  0
 16 15  1  0  0  0  0
 16 14  1  6  0  0  0
 17  4  1  0  0  0  0
 17  3  1  1  0  0  0
 18  7  2  0  0  0  0
 18 19  1  0  0  0  0
 19 41  1  6  0  0  0
 19 11  1  0  0  0  0
 20 12  1  0  0  0  0
 20 30  1  1  0  0  0
 22  6  1  0  0  0  0
 22  8  1  1  0  0  0
 23 24  1  0  0  0  0
 25 35  1  1  0  0  0
 26 25  1  0  0  0  0
 27 30  1  0  0  0  0
 27 29  1  0  0  0  0
 28 23  1  0  0  0  0
 28 25  1  0  0  0  0
 28 24  1  0  0  0  0
 29 28  1  0  0  0  0
 30 26  2  0  0  0  0
 31 37  1  0  0  0  0
 33 36  2  0  0  0  0
 34 38  2  0  0  0  0
 34 32  1  0  0  0  0
 35 33  2  0  0  0  0
 36 39  1  0  0  0  0
 37 34  1  0  0  0  0
 39 32  2  0  0  0  0
 40 37  2  0  0  0  0
 40 36  1  0  0  0  0
 41 42  1  0  0  0  0
 41 43  1  1  0  0  0
 46 45  1  0  0  0  0
 46 44  1  0  0  0  0
M  END
>  <MODEL>
3

>  <REMARK>
 VINA RESULT:      -7.9      3.352     10.973
  Name = 
  5 active torsions:
  status: ('A' for Active; 'I' for Inactive)
    1  A    between atoms: C_10  and  C_19
    2  A    between atoms: C_10  and  C_44
    3  A    between atoms: C_14  and  C_21
    4  A    between atoms: C_27  and  C_40
    5  A    between atoms: C_33  and  C_41
                            x       y       z     vdW  Elec       q    Type
                         _______ _______ _______ _____ _____    ______ ____

>  <TORSDO>
F 5

$$$$
=
 OpenBabel11062413253D

 46 51  0  0  1  0  0  0  0  0999 V2000
  187.0810  176.1170  135.9960 C   0  0  0  0  0  0  0  0  0  0  0  0
  190.3640  177.3970  138.1950 O   0  0  0  0  0  0  0  0  0  0  0  0
  188.4740  178.3750  136.5790 O   0  0  0  0  0  1  0  0  0  0  0  0
  190.3460  176.9580  137.0140 C   0  0  0  0  0  0  0  0  0  0  0  0
  184.9180  178.4720  138.9900 C   0  0  0  0  0  2  0  0  0  0  0  0
  183.1010  175.5020  137.4100 N   0  0  0  0  0  2  0  0  0  0  0  0
  188.9490  174.8150  135.3080 C   0  0  0  0  0  3  0  0  0  0  0  0
  184.8620  173.8670  138.1820 C   0  0  0  0  0  1  0  0  0  0  0  0
  188.3740  176.0850  135.8030 C   0  0  0  0  0  0  0  0  0  0  0  0
  184.9750  174.9340  135.8580 C   0  0  1  0  0  3  0  0  0  0  0  0
  191.3830  176.0840  136.5700 N   0  0  0  0  0  2  0  0  0  0  0  0
  184.1740  178.3800  140.1750 O   0  0  0  0  0  0  0  0  0  0  0  0
  185.7920  176.1440  136.1940 C   0  0  0  0  0  0  0  0  0  0  0  0
  182.3760  177.2890  138.9140 C   0  0  0  0  0  2  0  0  0  0  0  0
  184.8570  177.1470  138.2310 C   0  0  1  0  0  3  0  0  0  0  0  0
  183.5370  176.3760  138.5060 C   0  0  2  0  0  3  0  0  0  0  0  0
  189.2240  177.3030  136.0830 C   0  0  1  0  0  3  0  0  0  0  0  0
  190.2400  174.5590  135.0630 C   0  0  0  0  0  3  0  0  0  0  0  0
  191.3690  175.5400  135.2170 C   0  0  2  0  0  3  0  0  0  0  0  0
  182.8260  178.4780  139.7850 C   0  0  1  0  0  3  0  0  0  0  0  0
  185.1630  177.3750  136.7590 C   0  0  0  0  0  2  0  0  0  0  0  0
  184.0830  174.4780  137.0200 C   0  0  2  0  0  3  0  0  0  0  0  0
  179.0970  180.0270  143.1100 C   0  0  0  0  0  2  0  0  0  0  0  0
  179.1910  179.1220  144.3330 C   0  0  0  0  0  2  0  0  0  0  0  0
  181.5770  179.4920  143.3310 C   0  0  1  0  0  3  0  0  0  0  0  0
  182.3820  179.2920  142.0690 C   0  0  0  0  0  3  0  0  0  0  0  0
  180.5220  178.1190  140.8770 C   0  0  0  0  0  2  0  0  0  0  0  0
  180.1550  178.9510  143.1800 C   0  0  0  0  0  0  0  0  0  0  0  0
  179.9170  177.7840  142.2370 C   0  0  0  0  0  2  0  0  0  0  0  0
  181.9390  178.6280  140.9820 C   0  0  0  0  0  0  0  0  0  0  0  0
  187.6060  178.2250  141.3280 Cl  0  0  0  0  0  0  0  0  0  0  0  0
  186.8880  177.6280  145.3980 C   0  0  0  0  0  3  0  0  0  0  0  0
  183.5470  178.5390  144.3690 C   0  0  0  0  0  0  0  0  0  0  0  0
  187.5790  177.7190  144.0980 C   0  0  0  0  0  0  0  0  0  0  0  0
  182.2750  178.8050  144.4560 C   0  0  0  0  0  3  0  0  0  0  0  0
  184.8200  178.2750  144.2820 C   0  0  0  0  0  0  0  0  0  0  0  0
  186.8160  178.1040  142.8900 C   0  0  0  0  0  0  0  0  0  0  0  0
  188.8110  177.4690  144.0260 O   0  0  0  0  0  0  0  0  0  0  0  0
  185.5810  177.8910  145.4860 C   0  0  0  0  0  3  0  0  0  0  0  0
  185.5080  178.3670  142.9820 C   0  0  0  0  0  3  0  0  0  0  0  0
  192.7060  174.8680  134.9040 C   0  0  1  0  0  3  0  0  0  0  0  0
  193.7610  175.4330  135.7310 N   0  0  0  0  0  1  0  0  0  0  0  0
  192.6280  173.3740  135.1670 C   0  0  0  0  0  1  0  0  0  0  0  0
  184.1560  175.1890  134.5970 C   0  0  0  0  0  2  0  0  0  0  0  0
  181.7710  175.1870  134.7780 O   0  0  0  0  0  1  0  0  0  0  0  0
  182.8810  174.3630  134.5940 C   0  0  0  0  0  2  0  0  0  0  0  0
  1 13  2  0  0  0  0
  4  2  2  0  0  0  0
  5 12  1  0  0  0  0
  6 16  1  0  0  0  0
  7  9  1  0  0  0  0
  9  1  2  0  0  0  0
  9 17  1  0  0  0  0
 10 44  1  6  0  0  0
 10 13  1  0  0  0  0
 10 22  1  0  0  0  0
 11  4  1  0  0  0  0
 13 21  1  0  0  0  0
 14 20  1  0  0  0  0
 15 21  1  6  0  0  0
 15 16  1  0  0  0  0
 15  5  1  0  0  0  0
 16 14  1  6  0  0  0
 17  3  1  1  0  0  0
 17  4  1  0  0  0  0
 18 19  1  0  0  0  0
 18  7  2  0  0  0  0
 19 41  1  1  0  0  0
 19 11  1  0  0  0  0
 20 12  1  0  0  0  0
 20 30  1  1  0  0  0
 22  6  1  0  0  0  0
 22  8  1  1  0  0  0
 23 28  1  0  0  0  0
 23 24  1  0  0  0  0
 25 35  1  1  0  0  0
 26 25  1  0  0  0  0
 27 30  1  0  0  0  0
 27 29  1  0  0  0  0
 28 25  1  0  0  0  0
 28 24  1  0  0  0  0
 29 28  1  0  0  0  0
 30 26  2  0  0  0  0
 31 37  1  0  0  0  0
 32 39  2  0  0  0  0
 33 35  2  0  0  0  0
 34 32  1  0  0  0  0
 36 33  2  0  0  0  0
 36 39  1  0  0  0  0
 37 40  2  0  0  0  0
 37 34  1  0  0  0  0
 38 34  2  0  0  0  0
 40 36  1  0  0  0  0
 41 43  1  1  0  0  0
 41 42  1  0  0  0  0
 46 44  1  0  0  0  0
 46 45  1  0  0  0  0
M  END
>  <MODEL>
4

>  <REMARK>
 VINA RESULT:      -7.7      2.822     11.036
  Name = 
  5 active torsions:
  status: ('A' for Active; 'I' for Inactive)
    1  A    between atoms: C_10  and  C_19
    2  A    between atoms: C_10  and  C_44
    3  A    between atoms: C_14  and  C_21
    4  A    between atoms: C_27  and  C_40
    5  A    between atoms: C_33  and  C_41
                            x       y       z     vdW  Elec       q    Type
                         _______ _______ _______ _____ _____    ______ ____

>  <TORSDO>
F 5

$$$$
=
 OpenBabel11062413253D

 46 51  0  0  1  0  0  0  0  0999 V2000
  190.7350  176.0160  138.0800 C   0  0  0  0  0  0  0  0  0  0  0  0
  191.4730  173.7660  134.6670 O   0  0  0  0  0  0  0  0  0  0  0  0
  190.4110  173.5010  137.1050 O   0  0  0  0  0  1  0  0  0  0  0  0
  192.2420  173.9660  135.6440 C   0  0  0  0  0  0  0  0  0  0  0  0
  186.5760  175.4200  136.8430 C   0  0  0  0  0  2  0  0  0  0  0  0
  187.4090  178.5880  138.8140 N   0  0  0  0  0  2  0  0  0  0  0  0
  193.0560  176.1990  137.5960 C   0  0  0  0  0  3  0  0  0  0  0  0
  189.0960  179.3500  137.0980 C   0  0  0  0  0  1  0  0  0  0  0  0
  191.7950  175.4270  137.5900 C   0  0  0  0  0  0  0  0  0  0  0  0
  189.8110  177.9840  139.1420 C   0  0  1  0  0  3  0  0  0  0  0  0
  193.6320  174.1900  135.4140 N   0  0  0  0  0  2  0  0  0  0  0  0
  185.4940  176.0310  136.1920 O   0  0  0  0  0  0  0  0  0  0  0  0
  189.6780  176.6080  138.5640 C   0  0  0  0  0  0  0  0  0  0  0  0
  185.3010  177.5960  138.0710 C   0  0  0  0  0  2  0  0  0  0  0  0
  187.5250  176.4850  137.3900 C   0  0  1  0  0  3  0  0  0  0  0  0
  186.7830  177.8030  137.7430 C   0  0  2  0  0  3  0  0  0  0  0  0
  191.7100  174.0200  137.0440 C   0  0  1  0  0  3  0  0  0  0  0  0
  194.2460  175.7980  137.1290 C   0  0  0  0  0  3  0  0  0  0  0  0
  194.5390  174.4520  136.5260 C   0  0  2  0  0  3  0  0  0  0  0  0
  184.6470  176.4920  137.2170 C   0  0  1  0  0  3  0  0  0  0  0  0
  188.3610  175.9060  138.5200 C   0  0  0  0  0  2  0  0  0  0  0  0
  188.8030  178.9770  138.5490 C   0  0  2  0  0  3  0  0  0  0  0  0
  180.7700  179.4240  135.2860 C   0  0  0  0  0  2  0  0  0  0  0  0
  179.6440  178.4720  134.9030 C   0  0  0  0  0  2  0  0  0  0  0  0
  180.9040  177.5430  136.9960 C   0  0  1  0  0  3  0  0  0  0  0  0
  182.2690  177.0930  137.4620 C   0  0  0  0  0  3  0  0  0  0  0  0
  183.3070  177.3710  135.2030 C   0  0  0  0  0  2  0  0  0  0  0  0
  180.9180  177.9390  135.5200 C   0  0  0  0  0  0  0  0  0  0  0  0
  181.9120  177.2610  134.5940 C   0  0  0  0  0  2  0  0  0  0  0  0
  183.3410  176.9580  136.6540 C   0  0  0  0  0  0  0  0  0  0  0  0
  183.5750  172.1520  134.5940 Cl  0  0  0  0  0  0  0  0  0  0  0  0
  180.1330  171.5980  136.8900 C   0  0  0  0  0  3  0  0  0  0  0  0
  180.2640  175.2070  136.9440 C   0  0  0  0  0  0  0  0  0  0  0  0
  181.3300  171.3200  136.0740 C   0  0  0  0  0  0  0  0  0  0  0  0
  179.9330  176.4350  137.2260 C   0  0  0  0  0  3  0  0  0  0  0  0
  180.5980  173.9790  136.6650 C   0  0  0  0  0  0  0  0  0  0  0  0
  182.1450  172.4460  135.5660 C   0  0  0  0  0  0  0  0  0  0  0  0
  181.6470  170.1290  135.8150 O   0  0  0  0  0  0  0  0  0  0  0  0
  179.7860  172.8570  137.1710 C   0  0  0  0  0  3  0  0  0  0  0  0
  181.7950  173.7040  135.8490 C   0  0  0  0  0  3  0  0  0  0  0  0
  195.9910  174.3850  136.0520 C   0  0  1  0  0  3  0  0  0  0  0  0
  196.6060  175.7010  136.1200 N   0  0  0  0  0  1  0  0  0  0  0  0
  196.7910  173.4270  136.9180 C   0  0  0  0  0  1  0  0  0  0  0  0
  189.7050  177.9250  140.6620 C   0  0  0  0  0  2  0  0  0  0  0  0
  190.6920  176.3620  142.1820 O   0  0  0  0  0  1  0  0  0  0  0  0
  190.9850  177.3860  141.2810 C   0  0  0  0  0  2  0  0  0  0  0  0
  1 13  2  0  0  0  0
  2  4  2  0  0  0  0
  4 17  1  0  0  0  0
  9  7  1  0  0  0  0
  9  1  2  0  0  0  0
 10 44  1  1  0  0  0
 11  4  1  0  0  0  0
 11 19  1  0  0  0  0
 12  5  1  0  0  0  0
 12 20  1  0  0  0  0
 13 10  1  0  0  0  0
 15  5  1  1  0  0  0
 15 16  1  0  0  0  0
 15 21  1  0  0  0  0
 16 14  1  1  0  0  0
 16  6  1  0  0  0  0
 17  3  1  6  0  0  0
 17  9  1  0  0  0  0
 18  7  2  0  0  0  0
 19 41  1  6  0  0  0
 19 18  1  0  0  0  0
 20 30  1  6  0  0  0
 20 14  1  0  0  0  0
 21 13  1  0  0  0  0
 22  8  1  6  0  0  0
 22  6  1  0  0  0  0
 22 10  1  0  0  0  0
 23 28  1  0  0  0  0
 24 23  1  0  0  0  0
 24 28  1  0  0  0  0
 25 35  1  6  0  0  0
 25 26  1  0  0  0  0
 27 30  1  0  0  0  0
 28 25  1  0  0  0  0
 29 27  1  0  0  0  0
 29 28  1  0  0  0  0
 30 26  2  0  0  0  0
 31 37  1  0  0  0  0
 32 39  2  0  0  0  0
 33 35  2  0  0  0  0
 34 32  1  0  0  0  0
 36 33  2  0  0  0  0
 36 39  1  0  0  0  0
 37 40  2  0  0  0  0
 37 34  1  0  0  0  0
 38 34  2  0  0  0  0
 40 36  1  0  0  0  0
 41 42  1  0  0  0  0
 41 43  1  1  0  0  0
 44 46  1  0  0  0  0
 46 45  1  0  0  0  0
M  END
>  <MODEL>
5

>  <REMARK>
 VINA RESULT:      -6.8      4.113      9.591
  Name = 
  5 active torsions:
  status: ('A' for Active; 'I' for Inactive)
    1  A    between atoms: C_10  and  C_19
    2  A    between atoms: C_10  and  C_44
    3  A    between atoms: C_14  and  C_21
    4  A    between atoms: C_27  and  C_40
    5  A    between atoms: C_33  and  C_41
                            x       y       z     vdW  Elec       q    Type
                         _______ _______ _______ _____ _____    ______ ____

>  <TORSDO>
F 5

$$$$
=
 OpenBabel11062413253D

 46 51  0  0  1  0  0  0  0  0999 V2000
  190.8050  176.0810  137.8880 C   0  0  0  0  0  0  0  0  0  0  0  0
  191.7510  173.7310  134.5960 O   0  0  0  0  0  0  0  0  0  0  0  0
  190.7830  173.4890  137.0760 O   0  0  0  0  0  1  0  0  0  0  0  0
  192.5090  174.0870  135.5370 C   0  0  0  0  0  0  0  0  0  0  0  0
  186.7310  174.8910  136.8090 C   0  0  0  0  0  2  0  0  0  0  0  0
  187.1960  178.2570  138.5620 N   0  0  0  0  0  2  0  0  0  0  0  0
  193.0740  176.5230  137.3270 C   0  0  0  0  0  3  0  0  0  0  0  0
  188.7370  179.1140  136.7550 C   0  0  0  0  0  1  0  0  0  0  0  0
  191.9210  175.6000  137.4040 C   0  0  0  0  0  0  0  0  0  0  0  0
  189.6620  177.9810  138.8560 C   0  0  1  0  0  3  0  0  0  0  0  0
  193.8550  174.4690  135.2540 N   0  0  0  0  0  2  0  0  0  0  0  0
  185.5660  175.3200  136.1540 O   0  0  0  0  0  0  0  0  0  0  0  0
  189.6930  176.5650  138.3660 C   0  0  0  0  0  0  0  0  0  0  0  0
  185.2160  176.9640  137.9400 C   0  0  0  0  0  2  0  0  0  0  0  0
  187.5480  176.1000  137.2640 C   0  0  1  0  0  3  0  0  0  0  0  0
  186.6530  177.3340  137.5580 C   0  0  2  0  0  3  0  0  0  0  0  0
  192.0040  174.1620  136.9460 C   0  0  1  0  0  3  0  0  0  0  0  0
  194.2950  176.2460  136.8510 C   0  0  0  0  0  3  0  0  0  0  0  0
  194.7440  174.9120  136.3220 C   0  0  2  0  0  3  0  0  0  0  0  0
  184.6900  175.7350  137.1740 C   0  0  1  0  0  3  0  0  0  0  0  0
  188.4750  175.7030  138.4020 C   0  0  0  0  0  2  0  0  0  0  0  0
  188.5240  178.8010  138.2340 C   0  0  2  0  0  3  0  0  0  0  0  0
  180.1510  175.3380  134.6040 C   0  0  0  0  0  2  0  0  0  0  0  0
  179.3060  176.5390  135.0100 C   0  0  0  0  0  2  0  0  0  0  0  0
  181.8320  177.2130  134.9800 C   0  0  1  0  0  3  0  0  0  0  0  0
  183.1640  176.8680  135.6040 C   0  0  0  0  0  3  0  0  0  0  0  0
  182.1770  175.1750  137.1590 C   0  0  0  0  0  2  0  0  0  0  0  0
  180.7030  176.3640  135.5650 C   0  0  0  0  0  0  0  0  0  0  0  0
  180.8290  175.8710  136.9960 C   0  0  0  0  0  2  0  0  0  0  0  0
  183.3230  175.9960  136.6210 C   0  0  0  0  0  0  0  0  0  0  0  0
  179.8600  177.8420  141.1190 Cl  0  0  0  0  0  0  0  0  0  0  0  0
  180.7050  181.4050  139.1160 C   0  0  0  0  0  3  0  0  0  0  0  0
  181.2610  179.0920  136.3970 C   0  0  0  0  0  0  0  0  0  0  0  0
  180.3350  180.4530  140.1790 C   0  0  0  0  0  0  0  0  0  0  0  0
  181.5610  178.6620  135.2050 C   0  0  0  0  0  3  0  0  0  0  0  0
  180.9630  179.5220  137.5900 C   0  0  0  0  0  0  0  0  0  0  0  0
  180.2940  179.0040  139.8790 C   0  0  0  0  0  0  0  0  0  0  0  0
  180.0550  180.8780  141.3300 O   0  0  0  0  0  0  0  0  0  0  0  0
  181.0030  180.9660  137.8890 C   0  0  0  0  0  3  0  0  0  0  0  0
  180.5940  178.5670  138.6510 C   0  0  0  0  0  3  0  0  0  0  0  0
  196.1820  174.9970  135.8110 C   0  0  1  0  0  3  0  0  0  0  0  0
  196.6100  176.3850  135.7380 N   0  0  0  0  0  1  0  0  0  0  0  0
  197.1230  174.2450  136.7360 C   0  0  0  0  0  1  0  0  0  0  0  0
  189.5960  178.0050  140.3800 C   0  0  0  0  0  2  0  0  0  0  0  0
  190.5510  176.2570  141.7050 O   0  0  0  0  0  1  0  0  0  0  0  0
  190.8560  177.4170  140.9930 C   0  0  0  0  0  2  0  0  0  0  0  0
  1 13  2  0  0  0  0
  2  4  2  0  0  0  0
  4 17  1  0  0  0  0
  7  9  1  0  0  0  0
  9  1  2  0  0  0  0
 10 44  1  1  0  0  0
 11  4  1  0  0  0  0
 11 19  1  0  0  0  0
 12  5  1  0  0  0  0
 12 20  1  0  0  0  0
 13 21  1  0  0  0  0
 13 10  1  0  0  0  0
 15  5  1  1  0  0  0
 15 16  1  0  0  0  0
 15 21  1  0  0  0  0
 16 14  1  1  0  0  0
 16  6  1  0  0  0  0
 17  3  1  6  0  0  0
 17  9  1  0  0  0  0
 18  7  2  0  0  0  0
 19 41  1  6  0  0  0
 19 18  1  0  0  0  0
 20 30  1  6  0  0  0
 20 14  1  0  0  0  0
 22  8  1  6  0  0  0
 22  6  1  0  0  0  0
 22 10  1  0  0  0  0
 23 24  1  0  0  0  0
 23 28  1  0  0  0  0
 24 28  1  0  0  0  0
 25 35  1  1  0  0  0
 25 28  1  0  0  0  0
 25 26  1  0  0  0  0
 26 30  2  0  0  0  0
 28 29  1  0  0  0  0
 29 27  1  0  0  0  0
 30 27  1  0  0  0  0
 32 34  1  0  0  0  0
 33 36  2  0  0  0  0
 34 38  2  0  0  0  0
 35 33  2  0  0  0  0
 36 39  1  0  0  0  0
 36 40  1  0  0  0  0
 37 34  1  0  0  0  0
 37 31  1  0  0  0  0
 39 32  2  0  0  0  0
 40 37  2  0  0  0  0
 41 43  1  1  0  0  0
 42 41  1  0  0  0  0
 44 46  1  0  0  0  0
 46 45  1  0  0  0  0
M  END
>  <MODEL>
6

>  <REMARK>
 VINA RESULT:      -6.6      4.120     10.236
  Name = 
  5 active torsions:
  status: ('A' for Active; 'I' for Inactive)
    1  A    between atoms: C_10  and  C_19
    2  A    between atoms: C_10  and  C_44
    3  A    between atoms: C_14  and  C_21
    4  A    between atoms: C_27  and  C_40
    5  A    between atoms: C_33  and  C_41
                            x       y       z     vdW  Elec       q    Type
                         _______ _______ _______ _____ _____    ______ ____

>  <TORSDO>
F 5

$$$$
