=
 OpenBabel11062416373D

 62 69  0  0  1  0  0  0  0  0999 V2000
  181.7510  176.6060  139.3030 C   0  0  1  0  0  3  0  0  0  0  0  0
  183.9270  178.1200  135.5500 C   0  0  0  0  0  1  0  0  0  0  0  0
  181.3240  174.4130  136.0050 C   0  0  0  0  0  3  0  0  0  0  0  0
  182.2190  176.5490  137.8600 C   0  0  2  0  0  3  0  0  0  0  0  0
  182.8120  171.5800  136.6500 C   0  0  1  0  0  0  0  0  0  0  0  0
  183.4000  177.3050  137.7180 O   0  0  0  0  0  0  0  0  0  0  0  0
  184.3800  173.3330  136.3900 C   0  0  1  0  0  3  0  0  0  0  0  0
  181.9490  178.9260  139.9170 O   0  0  0  0  0  1  0  0  0  0  0  0
  185.4300  176.4920  136.7120 C   0  0  2  0  0  3  0  0  0  0  0  0
  181.5990  171.3490  137.3160 O   0  0  0  0  0  1  0  0  0  0  0  0
  180.5200  178.2820  138.0590 C   0  0  1  0  0  3  0  0  0  0  0  0
  182.6330  172.3380  135.3460 C   0  0  1  0  0  3  0  0  0  0  0  0
  182.8560  176.3400  140.3200 C   0  0  0  0  0  1  0  0  0  0  0  0
  181.3970  173.1970  135.3020 C   0  0  0  0  0  0  0  0  0  0  0  0
  185.8590  172.9840  136.3660 C   0  0  0  0  0  2  0  0  0  0  0  0
  186.4970  173.5100  135.2250 O   0  0  0  0  0  0  0  0  0  0  0  0
  180.0170  176.3370  136.7710 O   0  0  0  0  0  0  0  0  0  0  0  0
  183.7920  173.1110  135.1260 O   0  0  0  0  0  0  0  0  0  0  0  0
  183.9790  176.9290  136.4980 C   0  0  2  0  0  3  0  0  0  0  0  0
  183.6980  172.4830  137.4480 C   0  0  0  0  0  2  0  0  0  0  0  0
  181.0800  177.2330  137.1000 C   0  0  2  0  0  3  0  0  0  0  0  0
  179.0870  173.4770  134.6260 C   0  0  0  0  0  3  0  0  0  0  0  0
  186.0150  175.9170  135.4110 C   0  0  1  0  0  3  0  0  0  0  0  0
  180.2670  172.7320  134.6210 C   0  0  0  0  0  3  0  0  0  0  0  0
  185.4990  175.5880  137.7600 F   0  0  0  0  0  0  0  0  0  0  0  0
  179.0220  174.6820  135.3320 C   0  0  0  0  0  3  0  0  0  0  0  0
  186.5110  176.9300  134.5940 O   0  0  0  0  0  1  0  0  0  0  0  0
  181.0540  177.9510  139.4630 C   0  0  1  0  0  3  0  0  0  0  0  0
  187.0410  174.7800  135.5270 C   0  0  1  0  0  3  0  0  0  0  0  0
  180.1380  175.1540  136.0290 C   0  0  0  0  0  0  0  0  0  0  0  0
  189.8900  176.8120  136.8200 C   0  0  2  0  0  3  0  0  0  0  0  0
  190.8730  176.8240  138.0050 C   0  0  0  0  0  2  0  0  0  0  0  0
  191.9320  175.8970  136.1600 N   0  0  0  0  0  0  0  0  0  0  0  0
  192.1190  176.3340  137.3560 C   0  0  0  0  0  0  0  0  0  0  0  0
  189.9310  174.9260  135.1680 C   0  0  0  0  0  2  0  0  0  0  0  0
  189.3330  174.1510  136.1790 O   0  0  0  0  0  0  0  0  0  0  0  0
  188.4530  176.2780  137.1260 C   0  0  1  0  0  3  0  0  0  0  0  0
  188.1650  174.8310  136.6070 C   0  0  1  0  0  3  0  0  0  0  0  0
  190.5960  176.0440  135.7990 N   0  0  0  0  0  0  0  0  0  0  0  0
  190.5190  178.4890  140.9780 C   0  0  0  0  0  2  0  0  0  0  0  0
  187.9880  176.5170  138.5780 C   0  0  2  0  0  3  0  0  0  0  0  0
  187.0770  178.7560  141.1440 C   0  0  0  0  0  1  0  0  0  0  0  0
  188.2160  178.2480  140.2880 C   0  0  1  0  0  0  0  0  0  0  0  0
  187.7440  177.9840  138.8660 C   0  0  0  0  0  2  0  0  0  0  0  0
  189.0400  176.1010  139.5920 C   0  0  0  0  0  2  0  0  0  0  0  0
  189.3770  179.2250  140.3090 C   0  0  0  0  0  2  0  0  0  0  0  0
  190.9760  176.2470  141.5990 C   0  0  0  0  0  1  0  0  0  0  0  0
  189.9660  177.3010  141.6070 N   0  0  0  0  0  0  0  0  0  0  0  0
  188.7680  176.9510  140.8320 C   0  0  1  0  0  3  0  0  0  0  0  0
  193.3600  176.2970  138.0050 O   0  0  0  0  0  0  0  0  0  0  0  0
  194.2210  175.1590  137.9670 C   0  0  0  0  0  0  0  0  0  0  0  0
  193.4600  173.9990  137.9910 F   0  0  0  0  0  0  0  0  0  0  0  0
  195.0930  175.1710  139.0490 F   0  0  0  0  0  0  0  0  0  0  0  0
  194.9540  175.1950  136.7960 F   0  0  0  0  0  0  0  0  0  0  0  0
  183.5040  170.2540  136.3560 C   0  0  0  0  0  2  0  0  0  0  0  0
  183.0280  169.6940  135.1670 O   0  0  0  0  0  1  0  0  0  0  0  0
  180.8360  179.6990  137.5860 C   0  0  0  0  0  2  0  0  0  0  0  0
  180.7720  179.7910  136.0710 C   0  0  0  0  0  2  0  0  0  0  0  0
  179.5930  180.6550  135.6590 C   0  0  0  0  0  2  0  0  0  0  0  0
  179.8240  182.0760  136.0710 C   0  0  0  0  0  0  0  0  0  0  0  0
  178.9480  182.7090  136.9350 O   0  0  0  0  0  1  0  0  0  0  0  0
  180.8150  182.7160  135.6220 O   0  0  0  0  0  0  0  0  0  0  0  0
  1 28  1  0  0  0  0
  1 13  1  1  0  0  0
  3 30  1  0  0  0  0
  4  6  1  1  0  0  0
  4  1  1  0  0  0  0
  5 10  1  1  0  0  0
  5 20  1  0  0  0  0
  7 15  1  6  0  0  0
  7 20  1  0  0  0  0
  9 25  1  1  0  0  0
 11 57  1  6  0  0  0
 11 28  1  0  0  0  0
 12 18  1  1  0  0  0
 12  5  1  0  0  0  0
 14 12  1  0  0  0  0
 14  3  2  0  0  0  0
 16 15  1  0  0  0  0
 18  7  1  0  0  0  0
 19  2  1  6  0  0  0
 19  9  1  0  0  0  0
 19  6  1  0  0  0  0
 21 17  1  1  0  0  0
 21  4  1  0  0  0  0
 21 11  1  0  0  0  0
 22 26  1  0  0  0  0
 23 27  1  1  0  0  0
 23 29  1  0  0  0  0
 23  9  1  0  0  0  0
 24 22  2  0  0  0  0
 24 14  1  0  0  0  0
 26 30  2  0  0  0  0
 28  8  1  6  0  0  0
 29 16  1  1  0  0  0
 29 38  1  0  0  0  0
 30 17  1  0  0  0  0
 31 37  1  0  0  0  0
 31 32  1  1  0  0  0
 33 34  2  0  0  0  0
 34 32  1  0  0  0  0
 34 50  1  0  0  0  0
 35 39  1  0  0  0  0
 35 36  1  0  0  0  0
 37 41  1  1  0  0  0
 38 36  1  6  0  0  0
 38 37  1  0  0  0  0
 39 33  1  0  0  0  0
 39 31  1  0  0  0  0
 40 48  1  0  0  0  0
 41 44  1  6  0  0  0
 41 45  1  0  0  0  0
 43 46  1  0  0  0  0
 43 49  1  0  0  0  0
 43 42  1  1  0  0  0
 44 43  1  0  0  0  0
 46 40  1  0  0  0  0
 47 48  1  0  0  0  0
 49 45  1  6  0  0  0
 49 48  1  0  0  0  0
 51 52  1  0  0  0  0
 51 50  1  0  0  0  0
 51 53  1  0  0  0  0
 54 51  1  0  0  0  0
 55  5  1  0  0  0  0
 56 55  1  0  0  0  0
 58 57  1  0  0  0  0
 59 58  1  0  0  0  0
 59 60  1  0  0  0  0
 60 61  1  0  0  0  0
 62 60  2  0  0  0  0
M  END
>  <MODEL>
1

>  <REMARK>
 VINA RESULT:      -3.1      0.000      0.000
  Name = 
  9 active torsions:
  status: ('A' for Active; 'I' for Inactive)
    1  A    between atoms: C_7  and  C_43
    2  A    between atoms: C_8  and  C_36
    3  A    between atoms: C_8  and  C_44
    4  A    between atoms: C_9  and  C_17
    5  A    between atoms: C_20  and  O_31
    6  A    between atoms: C_23  and  C_61
    7  A    between atoms: C_29  and  O_31
    8  A    between atoms: C_44  and  C_61
    9  A    between atoms: C_53  and  C_59
                            x       y       z     vdW  Elec       q    Type
                         _______ _______ _______ _____ _____    ______ ____

>  <TORSDO>
F 9

$$$$
=
 OpenBabel11062416373D

 62 69  0  0  1  0  0  0  0  0999 V2000
  183.1190  177.3810  139.7090 C   0  0  1  0  0  3  0  0  0  0  0  0
  185.5360  178.9460  136.1280 C   0  0  0  0  0  1  0  0  0  0  0  0
  182.4430  175.6060  136.2080 C   0  0  0  0  0  3  0  0  0  0  0  0
  183.5960  177.4040  138.2680 C   0  0  2  0  0  3  0  0  0  0  0  0
  183.5180  172.5450  136.5650 C   0  0  1  0  0  0  0  0  0  0  0  0
  184.8720  178.0000  138.2030 O   0  0  0  0  0  0  0  0  0  0  0  0
  185.3150  174.0820  136.4830 C   0  0  1  0  0  3  0  0  0  0  0  0
  183.6250  179.5780  140.5530 O   0  0  0  0  0  1  0  0  0  0  0  0
  186.7850  177.0190  137.1220 C   0  0  2  0  0  3  0  0  0  0  0  0
  182.2750  172.4190  137.2040 O   0  0  0  0  0  1  0  0  0  0  0  0
  182.1480  179.3260  138.6390 C   0  0  1  0  0  3  0  0  0  0  0  0
  183.4640  173.4470  135.3440 C   0  0  1  0  0  3  0  0  0  0  0  0
  184.1630  176.8660  140.6950 C   0  0  0  0  0  1  0  0  0  0  0  0
  182.3580  174.4680  135.3860 C   0  0  0  0  0  0  0  0  0  0  0  0
  186.7330  173.5360  136.4250 C   0  0  0  0  0  2  0  0  0  0  0  0
  187.4530  174.0800  135.3430 O   0  0  0  0  0  0  0  0  0  0  0  0
  181.4010  177.6070  137.1620 O   0  0  0  0  0  0  0  0  0  0  0  0
  184.7210  174.0710  135.2030 O   0  0  0  0  0  0  0  0  0  0  0  0
  185.4110  177.6710  136.9520 C   0  0  2  0  0  3  0  0  0  0  0  0
  184.5080  173.2340  137.4500 C   0  0  0  0  0  2  0  0  0  0  0  0
  182.5730  178.3110  137.5800 C   0  0  2  0  0  3  0  0  0  0  0  0
  180.1180  175.1300  134.7400 C   0  0  0  0  0  3  0  0  0  0  0  0
  187.3030  176.5010  135.7700 C   0  0  1  0  0  3  0  0  0  0  0  0
  181.1850  174.2340  134.6610 C   0  0  0  0  0  3  0  0  0  0  0  0
  186.7130  176.0140  138.0740 F   0  0  0  0  0  0  0  0  0  0  0  0
  180.2090  176.2560  135.5630 C   0  0  0  0  0  3  0  0  0  0  0  0
  187.9460  177.5110  135.0590 O   0  0  0  0  0  1  0  0  0  0  0  0
  182.6110  178.7870  140.0030 C   0  0  1  0  0  3  0  0  0  0  0  0
  188.1620  175.2270  135.7720 C   0  0  1  0  0  3  0  0  0  0  0  0
  181.3690  176.4990  136.3050 C   0  0  0  0  0  0  0  0  0  0  0  0
  191.8450  174.9580  136.3050 C   0  0  2  0  0  3  0  0  0  0  0  0
  192.8540  174.8760  137.4650 C   0  0  0  0  0  2  0  0  0  0  0  0
  192.4760  172.7370  136.6460 N   0  0  0  0  0  0  0  0  0  0  0  0
  193.2180  173.4340  137.4340 C   0  0  0  0  0  0  0  0  0  0  0  0
  190.1710  173.1220  135.9600 C   0  0  0  0  0  2  0  0  0  0  0  0
  189.5100  173.6380  137.0890 O   0  0  0  0  0  0  0  0  0  0  0  0
  190.5720  175.8270  136.5630 C   0  0  1  0  0  3  0  0  0  0  0  0
  189.2670  175.0140  136.8520 C   0  0  1  0  0  3  0  0  0  0  0  0
  191.5490  173.5580  136.0120 N   0  0  0  0  0  0  0  0  0  0  0  0
  188.9450  176.7680  141.0860 C   0  0  0  0  0  2  0  0  0  0  0  0
  190.7980  177.0000  137.5410 C   0  0  2  0  0  3  0  0  0  0  0  0
  192.0590  178.1920  140.6090 C   0  0  0  0  0  1  0  0  0  0  0  0
  191.0060  177.3260  139.9540 C   0  0  1  0  0  0  0  0  0  0  0  0
  191.5890  176.5800  138.7640 C   0  0  0  0  0  2  0  0  0  0  0  0
  189.4930  177.5380  138.1000 C   0  0  0  0  0  2  0  0  0  0  0  0
  190.4010  176.3660  140.9610 C   0  0  0  0  0  2  0  0  0  0  0  0
  187.4550  178.1780  139.8980 C   0  0  0  0  0  1  0  0  0  0  0  0
  188.7970  178.0730  140.4630 N   0  0  0  0  0  0  0  0  0  0  0  0
  189.8540  178.1620  139.4470 C   0  0  1  0  0  3  0  0  0  0  0  0
  194.2300  172.8790  138.2290 O   0  0  0  0  0  0  0  0  0  0  0  0
  195.5760  173.3550  138.2140 C   0  0  0  0  0  0  0  0  0  0  0  0
  195.7760  174.1490  137.0940 F   0  0  0  0  0  0  0  0  0  0  0  0
  196.4700  172.2910  138.2020 F   0  0  0  0  0  0  0  0  0  0  0  0
  195.7920  174.1130  139.3500 F   0  0  0  0  0  0  0  0  0  0  0  0
  184.0250  171.1730  136.1400 C   0  0  0  0  0  2  0  0  0  0  0  0
  182.9780  170.2500  136.0750 O   0  0  0  0  0  1  0  0  0  0  0  0
  182.6620  180.7260  138.3110 C   0  0  0  0  0  2  0  0  0  0  0  0
  181.5420  181.7500  138.4050 C   0  0  0  0  0  2  0  0  0  0  0  0
  180.8410  181.8650  137.0630 C   0  0  0  0  0  2  0  0  0  0  0  0
  180.8470  183.2870  136.5950 C   0  0  0  0  0  0  0  0  0  0  0  0
  180.8290  184.3270  137.5060 O   0  0  0  0  0  1  0  0  0  0  0  0
  180.8550  183.5510  135.3600 O   0  0  0  0  0  0  0  0  0  0  0  0
  1 28  1  0  0  0  0
  1 13  1  1  0  0  0
  3 30  1  0  0  0  0
  4  6  1  1  0  0  0
  4  1  1  0  0  0  0
  5 10  1  1  0  0  0
  5 20  1  0  0  0  0
  7 15  1  6  0  0  0
  7 20  1  0  0  0  0
  9 25  1  1  0  0  0
 11 57  1  6  0  0  0
 11 28  1  0  0  0  0
 12 18  1  1  0  0  0
 12 14  1  0  0  0  0
 12  5  1  0  0  0  0
 14  3  2  0  0  0  0
 16 15  1  0  0  0  0
 18  7  1  0  0  0  0
 19  2  1  6  0  0  0
 19  9  1  0  0  0  0
 19  6  1  0  0  0  0
 21 17  1  1  0  0  0
 21  4  1  0  0  0  0
 21 11  1  0  0  0  0
 22 26  1  0  0  0  0
 23 27  1  1  0  0  0
 23 29  1  0  0  0  0
 23  9  1  0  0  0  0
 24 22  2  0  0  0  0
 24 14  1  0  0  0  0
 26 30  2  0  0  0  0
 28  8  1  6  0  0  0
 29 16  1  1  0  0  0
 29 38  1  0  0  0  0
 30 17  1  0  0  0  0
 31 37  1  0  0  0  0
 31 32  1  1  0  0  0
 33 34  2  0  0  0  0
 34 32  1  0  0  0  0
 34 50  1  0  0  0  0
 35 39  1  0  0  0  0
 35 36  1  0  0  0  0
 37 38  1  0  0  0  0
 37 41  1  1  0  0  0
 38 36  1  6  0  0  0
 39 31  1  0  0  0  0
 39 33  1  0  0  0  0
 41 45  1  1  0  0  0
 41 44  1  0  0  0  0
 43 42  1  1  0  0  0
 43 46  1  0  0  0  0
 44 43  1  0  0  0  0
 46 40  1  0  0  0  0
 47 48  1  0  0  0  0
 48 40  1  0  0  0  0
 49 45  1  6  0  0  0
 49 43  1  0  0  0  0
 49 48  1  0  0  0  0
 51 50  1  0  0  0  0
 51 54  1  0  0  0  0
 52 51  1  0  0  0  0
 53 51  1  0  0  0  0
 55  5  1  0  0  0  0
 56 55  1  0  0  0  0
 57 58  1  0  0  0  0
 59 58  1  0  0  0  0
 60 59  1  0  0  0  0
 60 61  1  0  0  0  0
 62 60  2  0  0  0  0
M  END
>  <MODEL>
2

>  <REMARK>
 VINA RESULT:      -2.8      1.647      2.246
  Name = 
  9 active torsions:
  status: ('A' for Active; 'I' for Inactive)
    1  A    between atoms: C_7  and  C_43
    2  A    between atoms: C_8  and  C_36
    3  A    between atoms: C_8  and  C_44
    4  A    between atoms: C_9  and  C_17
    5  A    between atoms: C_20  and  O_31
    6  A    between atoms: C_23  and  C_61
    7  A    between atoms: C_29  and  O_31
    8  A    between atoms: C_44  and  C_61
    9  A    between atoms: C_53  and  C_59
                            x       y       z     vdW  Elec       q    Type
                         _______ _______ _______ _____ _____    ______ ____

>  <TORSDO>
F 9

$$$$
=
 OpenBabel11062416373D

 62 69  0  0  1  0  0  0  0  0999 V2000
  180.8260  175.8510  140.1620 C   0  0  1  0  0  3  0  0  0  0  0  0
  182.8460  179.8680  141.1080 C   0  0  0  0  0  1  0  0  0  0  0  0
  182.5200  177.7440  137.0940 C   0  0  0  0  0  3  0  0  0  0  0  0
  181.6330  177.0990  139.8510 C   0  0  2  0  0  3  0  0  0  0  0  0
  185.0100  175.8450  136.1710 C   0  0  1  0  0  0  0  0  0  0  0  0
  182.2410  177.5730  141.0310 O   0  0  0  0  0  0  0  0  0  0  0  0
  185.4500  176.8870  138.2490 C   0  0  1  0  0  3  0  0  0  0  0  0
  179.6210  176.3910  142.1760 O   0  0  0  0  0  1  0  0  0  0  0  0
  184.5840  178.0740  141.2550 C   0  0  2  0  0  3  0  0  0  0  0  0
  183.9610  175.1530  135.5470 O   0  0  0  0  0  1  0  0  0  0  0  0
  179.3060  177.7390  140.1780 C   0  0  1  0  0  3  0  0  0  0  0  0
  184.8330  177.3530  136.1210 C   0  0  1  0  0  3  0  0  0  0  0  0
  181.5790  174.8230  141.0010 C   0  0  0  0  0  1  0  0  0  0  0  0
  183.4000  177.7970  135.9980 C   0  0  0  0  0  0  0  0  0  0  0  0
  186.8360  176.7390  138.8550 C   0  0  0  0  0  2  0  0  0  0  0  0
  187.3970  177.9910  139.1750 O   0  0  0  0  0  0  0  0  0  0  0  0
  180.2570  177.9700  138.0010 O   0  0  0  0  0  0  0  0  0  0  0  0
  185.4360  177.9040  137.2710 O   0  0  0  0  0  0  0  0  0  0  0  0
  183.2410  178.4730  140.6400 C   0  0  2  0  0  3  0  0  0  0  0  0
  185.0430  175.5570  137.6390 C   0  0  0  0  0  2  0  0  0  0  0  0
  180.5660  178.0940  139.3900 C   0  0  2  0  0  3  0  0  0  0  0  0
  181.5680  178.5350  134.5940 C   0  0  0  0  0  3  0  0  0  0  0  0
  185.7140  178.9530  140.6930 C   0  0  1  0  0  3  0  0  0  0  0  0
  182.9110  178.1870  134.7470 C   0  0  0  0  0  3  0  0  0  0  0  0
  184.8170  176.7250  141.0410 F   0  0  0  0  0  0  0  0  0  0  0  0
  180.7000  178.4740  135.6870 C   0  0  0  0  0  3  0  0  0  0  0  0
  185.8200  180.1470  141.4030 O   0  0  0  0  0  1  0  0  0  0  0  0
  179.5230  176.3410  140.7810 C   0  0  1  0  0  3  0  0  0  0  0  0
  187.1000  178.3150  140.5200 C   0  0  1  0  0  3  0  0  0  0  0  0
  181.1690  178.0740  136.9420 C   0  0  0  0  0  0  0  0  0  0  0  0
  189.2900  178.2170  143.5390 C   0  0  2  0  0  3  0  0  0  0  0  0
  189.7040  177.2350  144.6500 C   0  0  0  0  0  2  0  0  0  0  0  0
  191.3660  177.2810  143.0310 N   0  0  0  0  0  0  0  0  0  0  0  0
  191.0750  176.8590  144.2120 C   0  0  0  0  0  0  0  0  0  0  0  0
  189.8890  177.7420  141.1510 C   0  0  0  0  0  2  0  0  0  0  0  0
  188.8870  176.7560  141.1930 O   0  0  0  0  0  0  0  0  0  0  0  0
  187.8250  178.0800  143.0130 C   0  0  1  0  0  3  0  0  0  0  0  0
  187.6890  177.3800  141.6210 C   0  0  1  0  0  3  0  0  0  0  0  0
  190.3040  178.0130  142.5090 N   0  0  0  0  0  0  0  0  0  0  0  0
  187.0110  179.2270  147.7050 C   0  0  0  0  0  2  0  0  0  0  0  0
  186.8240  177.5610  144.0660 C   0  0  2  0  0  3  0  0  0  0  0  0
  184.0860  178.1580  146.2050 C   0  0  0  0  0  1  0  0  0  0  0  0
  185.5440  178.4610  145.9440 C   0  0  1  0  0  0  0  0  0  0  0  0
  185.8030  178.6120  144.4520 C   0  0  0  0  0  2  0  0  0  0  0  0
  187.5050  177.1950  145.3730 C   0  0  0  0  0  2  0  0  0  0  0  0
  185.9770  179.7010  146.7040 C   0  0  0  0  0  2  0  0  0  0  0  0
  188.2600  177.2440  148.0610 C   0  0  0  0  0  1  0  0  0  0  0  0
  186.9340  177.7770  147.7590 N   0  0  0  0  0  0  0  0  0  0  0  0
  186.4300  177.3460  146.4480 C   0  0  1  0  0  3  0  0  0  0  0  0
  191.9400  176.0710  144.9830 O   0  0  0  0  0  0  0  0  0  0  0  0
  191.8320  175.9640  146.4020 C   0  0  0  0  0  0  0  0  0  0  0  0
  192.8050  175.0960  146.8780 F   0  0  0  0  0  0  0  0  0  0  0  0
  190.5720  175.5000  146.7630 F   0  0  0  0  0  0  0  0  0  0  0  0
  192.0290  177.2140  146.9590 F   0  0  0  0  0  0  0  0  0  0  0  0
  186.3350  175.4830  135.5130 C   0  0  0  0  0  2  0  0  0  0  0  0
  186.7790  176.5150  134.6820 O   0  0  0  0  0  1  0  0  0  0  0  0
  178.9630  178.8170  141.2020 C   0  0  0  0  0  2  0  0  0  0  0  0
  179.4630  180.1770  140.7450 C   0  0  0  0  0  2  0  0  0  0  0  0
  178.9320  180.4780  139.3550 C   0  0  0  0  0  2  0  0  0  0  0  0
  179.8950  181.3480  138.6090 C   0  0  0  0  0  0  0  0  0  0  0  0
  179.7050  181.6170  137.2660 O   0  0  0  0  0  0  0  0  0  0  0  0
  180.9010  181.8340  139.1970 O   0  0  0  0  0  1  0  0  0  0  0  0
  1 28  1  0  0  0  0
  1 13  1  1  0  0  0
  4  1  1  0  0  0  0
  4  6  1  1  0  0  0
  5 10  1  6  0  0  0
  5 20  1  0  0  0  0
  7 20  1  6  0  0  0
  7 15  1  0  0  0  0
  9 25  1  6  0  0  0
 11 28  1  0  0  0  0
 11 57  1  1  0  0  0
 12 14  1  1  0  0  0
 12  5  1  0  0  0  0
 12 18  1  0  0  0  0
 14  3  2  0  0  0  0
 15 16  1  0  0  0  0
 18  7  1  0  0  0  0
 19  6  1  0  0  0  0
 19  2  1  1  0  0  0
 19  9  1  0  0  0  0
 21 17  1  6  0  0  0
 21  4  1  0  0  0  0
 21 11  1  0  0  0  0
 22 24  2  0  0  0  0
 22 26  1  0  0  0  0
 23  9  1  0  0  0  0
 23 27  1  1  0  0  0
 24 14  1  0  0  0  0
 26 30  2  0  0  0  0
 28  8  1  1  0  0  0
 29 16  1  6  0  0  0
 29 23  1  0  0  0  0
 29 38  1  0  0  0  0
 30  3  1  0  0  0  0
 30 17  1  0  0  0  0
 31 32  1  1  0  0  0
 33 34  2  0  0  0  0
 34 32  1  0  0  0  0
 34 50  1  0  0  0  0
 35 36  1  0  0  0  0
 35 39  1  0  0  0  0
 37 31  1  0  0  0  0
 37 41  1  1  0  0  0
 38 36  1  6  0  0  0
 38 37  1  0  0  0  0
 39 33  1  0  0  0  0
 39 31  1  0  0  0  0
 40 48  1  0  0  0  0
 41 44  1  1  0  0  0
 41 45  1  0  0  0  0
 43 42  1  1  0  0  0
 43 49  1  0  0  0  0
 43 46  1  0  0  0  0
 44 43  1  0  0  0  0
 46 40  1  0  0  0  0
 48 47  1  0  0  0  0
 49 45  1  6  0  0  0
 49 48  1  0  0  0  0
 50 51  1  0  0  0  0
 51 53  1  0  0  0  0
 51 52  1  0  0  0  0
 51 54  1  0  0  0  0
 55  5  1  0  0  0  0
 56 55  1  0  0  0  0
 58 57  1  0  0  0  0
 59 58  1  0  0  0  0
 60 62  1  0  0  0  0
 60 59  1  0  0  0  0
 61 60  2  0  0  0  0
M  END
>  <MODEL>
3

>  <REMARK>
 VINA RESULT:      -2.1      3.758      5.688
  Name = 
  9 active torsions:
  status: ('A' for Active; 'I' for Inactive)
    1  A    between atoms: C_7  and  C_43
    2  A    between atoms: C_8  and  C_36
    3  A    between atoms: C_8  and  C_44
    4  A    between atoms: C_9  and  C_17
    5  A    between atoms: C_20  and  O_31
    6  A    between atoms: C_23  and  C_61
    7  A    between atoms: C_29  and  O_31
    8  A    between atoms: C_44  and  C_61
    9  A    between atoms: C_53  and  C_59
                            x       y       z     vdW  Elec       q    Type
                         _______ _______ _______ _____ _____    ______ ____

>  <TORSDO>
F 9

$$$$
=
 OpenBabel11062416373D

 62 69  0  0  1  0  0  0  0  0999 V2000
  179.9810  177.5340  140.8590 C   0  0  1  0  0  3  0  0  0  0  0  0
  182.9200  180.7250  139.3440 C   0  0  0  0  0  1  0  0  0  0  0  0
  180.9610  177.3490  137.0020 C   0  0  0  0  0  3  0  0  0  0  0  0
  180.8730  178.2190  139.8380 C   0  0  2  0  0  3  0  0  0  0  0  0
  182.6300  174.5640  136.6640 C   0  0  1  0  0  0  0  0  0  0  0  0
  181.8970  178.9220  140.5030 O   0  0  0  0  0  0  0  0  0  0  0  0
  183.8860  176.1780  137.8530 C   0  0  1  0  0  3  0  0  0  0  0  0
  179.5910  179.2070  142.5450 O   0  0  0  0  0  1  0  0  0  0  0  0
  184.2430  178.7090  140.0110 C   0  0  2  0  0  3  0  0  0  0  0  0
  181.3270  174.0430  136.6620 O   0  0  0  0  0  1  0  0  0  0  0  0
  178.9310  179.6300  140.2440 C   0  0  1  0  0  3  0  0  0  0  0  0
  182.7360  175.8860  135.9240 C   0  0  1  0  0  3  0  0  0  0  0  0
  180.7490  176.7680  141.9310 C   0  0  0  0  0  1  0  0  0  0  0  0
  181.4480  176.6640  135.8740 C   0  0  0  0  0  0  0  0  0  0  0  0
  185.3370  175.8680  138.1820 C   0  0  0  0  0  2  0  0  0  0  0  0
  186.1970  176.8950  137.7450 O   0  0  0  0  0  0  0  0  0  0  0  0
  179.1800  178.6270  138.0930 O   0  0  0  0  0  0  0  0  0  0  0  0
  183.7610  176.6450  136.5280 O   0  0  0  0  0  0  0  0  0  0  0  0
  182.8770  179.2160  139.5450 C   0  0  2  0  0  3  0  0  0  0  0  0
  183.0640  174.9160  138.0520 C   0  0  0  0  0  2  0  0  0  0  0  0
  179.9250  179.2120  139.1630 C   0  0  2  0  0  3  0  0  0  0  0  0
  179.4450  177.2870  134.6610 C   0  0  0  0  0  3  0  0  0  0  0  0
  185.2870  178.8740  138.8940 C   0  0  1  0  0  3  0  0  0  0  0  0
  180.6760  176.6320  134.7080 C   0  0  0  0  0  3  0  0  0  0  0  0
  184.1370  177.3950  140.4370 F   0  0  0  0  0  0  0  0  0  0  0  0
  178.9660  177.9600  135.7880 C   0  0  0  0  0  3  0  0  0  0  0  0
  185.8340  180.1550  138.9030 O   0  0  0  0  0  1  0  0  0  0  0  0
  179.0550  178.6180  141.3950 C   0  0  1  0  0  3  0  0  0  0  0  0
  186.4020  177.8220  138.7940 C   0  0  1  0  0  3  0  0  0  0  0  0
  179.7180  177.9910  136.9670 C   0  0  0  0  0  0  0  0  0  0  0  0
  188.3860  178.8540  141.7800 C   0  0  2  0  0  3  0  0  0  0  0  0
  188.9390  178.2450  143.0820 C   0  0  0  0  0  2  0  0  0  0  0  0
  190.6410  178.3220  141.5050 N   0  0  0  0  0  0  0  0  0  0  0  0
  190.3820  178.1020  142.7470 C   0  0  0  0  0  0  0  0  0  0  0  0
  189.2080  178.0340  139.5570 C   0  0  0  0  0  2  0  0  0  0  0  0
  188.4430  176.8800  139.8040 O   0  0  0  0  0  0  0  0  0  0  0  0
  187.0180  178.2850  141.2840 C   0  0  1  0  0  3  0  0  0  0  0  0
  187.1160  177.2950  140.0760 C   0  0  1  0  0  3  0  0  0  0  0  0
  189.4770  178.6710  140.8280 N   0  0  0  0  0  0  0  0  0  0  0  0
  186.2550  179.7910  145.8820 C   0  0  0  0  0  2  0  0  0  0  0  0
  186.0950  177.7870  142.4170 C   0  0  2  0  0  3  0  0  0  0  0  0
  183.3830  178.3600  144.5950 C   0  0  0  0  0  1  0  0  0  0  0  0
  184.8030  178.7530  144.2530 C   0  0  1  0  0  0  0  0  0  0  0  0
  185.0040  178.7850  142.7450 C   0  0  0  0  0  2  0  0  0  0  0  0
  186.8430  177.5990  143.7240 C   0  0  0  0  0  2  0  0  0  0  0  0
  185.1550  180.0880  144.8830 C   0  0  0  0  0  2  0  0  0  0  0  0
  187.6730  177.9540  146.3660 C   0  0  0  0  0  1  0  0  0  0  0  0
  186.3000  178.3500  146.0680 N   0  0  0  0  0  0  0  0  0  0  0  0
  185.7930  177.7620  144.8210 C   0  0  1  0  0  3  0  0  0  0  0  0
  191.3520  177.7090  143.6780 O   0  0  0  0  0  0  0  0  0  0  0  0
  191.0480  176.9160  144.8260 C   0  0  0  0  0  0  0  0  0  0  0  0
  191.0210  177.7220  145.9540 F   0  0  0  0  0  0  0  0  0  0  0  0
  191.9950  175.9110  144.9890 F   0  0  0  0  0  0  0  0  0  0  0  0
  189.8040  176.3390  144.6510 F   0  0  0  0  0  0  0  0  0  0  0  0
  183.5890  173.5660  136.0270 C   0  0  0  0  0  2  0  0  0  0  0  0
  182.9070  172.4320  135.5790 O   0  0  0  0  0  1  0  0  0  0  0  0
  179.1350  181.0840  140.6630 C   0  0  0  0  0  2  0  0  0  0  0  0
  179.4940  181.9470  139.4650 C   0  0  0  0  0  2  0  0  0  0  0  0
  178.9340  183.3460  139.6560 C   0  0  0  0  0  2  0  0  0  0  0  0
  179.5800  184.2970  138.6970 C   0  0  0  0  0  0  0  0  0  0  0  0
  179.3150  185.6530  138.7650 O   0  0  0  0  0  1  0  0  0  0  0  0
  180.3640  183.8680  137.8060 O   0  0  0  0  0  0  0  0  0  0  0  0
  1 28  1  0  0  0  0
  1 13  1  1  0  0  0
  4  6  1  1  0  0  0
  4  1  1  0  0  0  0
  5 10  1  6  0  0  0
  5 20  1  0  0  0  0
  7 20  1  6  0  0  0
  7 15  1  0  0  0  0
  9 25  1  6  0  0  0
 11 57  1  1  0  0  0
 11 28  1  0  0  0  0
 12 14  1  1  0  0  0
 12 18  1  0  0  0  0
 12  5  1  0  0  0  0
 14  3  2  0  0  0  0
 16 15  1  0  0  0  0
 18  7  1  0  0  0  0
 19  2  1  1  0  0  0
 19  9  1  0  0  0  0
 19  6  1  0  0  0  0
 21 17  1  6  0  0  0
 21  4  1  0  0  0  0
 21 11  1  0  0  0  0
 22 24  2  0  0  0  0
 22 26  1  0  0  0  0
 23 27  1  1  0  0  0
 23  9  1  0  0  0  0
 24 14  1  0  0  0  0
 26 30  2  0  0  0  0
 28  8  1  1  0  0  0
 29 16  1  1  0  0  0
 29 23  1  0  0  0  0
 29 38  1  0  0  0  0
 30  3  1  0  0  0  0
 30 17  1  0  0  0  0
 31 32  1  1  0  0  0
 33 34  2  0  0  0  0
 34 32  1  0  0  0  0
 34 50  1  0  0  0  0
 35 36  1  0  0  0  0
 35 39  1  0  0  0  0
 37 31  1  0  0  0  0
 37 41  1  1  0  0  0
 38 36  1  6  0  0  0
 38 37  1  0  0  0  0
 39 33  1  0  0  0  0
 39 31  1  0  0  0  0
 40 48  1  0  0  0  0
 41 44  1  1  0  0  0
 41 45  1  0  0  0  0
 43 42  1  1  0  0  0
 43 49  1  0  0  0  0
 43 46  1  0  0  0  0
 44 43  1  0  0  0  0
 46 40  1  0  0  0  0
 48 47  1  0  0  0  0
 49 45  1  6  0  0  0
 49 48  1  0  0  0  0
 50 51  1  0  0  0  0
 51 53  1  0  0  0  0
 51 52  1  0  0  0  0
 54 51  1  0  0  0  0
 55  5  1  0  0  0  0
 56 55  1  0  0  0  0
 58 59  1  0  0  0  0
 58 57  1  0  0  0  0
 60 61  1  0  0  0  0
 60 59  1  0  0  0  0
 62 60  2  0  0  0  0
M  END
>  <MODEL>
4

>  <REMARK>
 VINA RESULT:      -0.9      3.302      4.694
  Name = 
  9 active torsions:
  status: ('A' for Active; 'I' for Inactive)
    1  A    between atoms: C_7  and  C_43
    2  A    between atoms: C_8  and  C_36
    3  A    between atoms: C_8  and  C_44
    4  A    between atoms: C_9  and  C_17
    5  A    between atoms: C_20  and  O_31
    6  A    between atoms: C_23  and  C_61
    7  A    between atoms: C_29  and  O_31
    8  A    between atoms: C_44  and  C_61
    9  A    between atoms: C_53  and  C_59
                            x       y       z     vdW  Elec       q    Type
                         _______ _______ _______ _____ _____    ______ ____

>  <TORSDO>
F 9

$$$$
