=
 OpenBabel11062416483D

 28 29  0  0  1  0  0  0  0  0999 V2000
  185.1510  179.2180  144.1190 C   0  0  2  0  0  3  0  0  0  0  0  0
  186.6920  178.0830  145.6310 C   0  0  0  0  0  0  0  0  0  0  0  0
  187.8160  177.4330  145.7890 C   0  0  0  0  0  0  0  0  0  0  0  0
  185.5710  178.7330  145.4700 C   0  0  0  0  0  3  0  0  0  0  0  0
  188.0500  178.2660  148.2190 C   0  0  0  0  0  1  0  0  0  0  0  0
  188.4480  177.3410  147.1210 C   0  0  0  0  0  0  0  0  0  0  0  0
  189.3340  176.4740  147.3490 O   0  0  0  0  0  0  0  0  0  0  0  0
  188.4570  176.7950  144.5940 C   0  0  0  0  0  2  0  0  0  0  0  0
  191.5190  177.5150  145.1320 N   0  0  0  0  0  1  0  0  0  0  0  0
  188.9670  178.0110  142.1780 S   0  0  0  0  0  0  0  0  0  0  0  0
  191.5440  177.6430  142.7630 N   0  0  0  0  0  2  0  0  0  0  0  0
  190.8210  177.1400  143.9160 C   0  0  2  0  0  3  0  0  0  0  0  0
  189.4340  177.7430  143.9110 C   0  0  2  0  0  3  0  0  0  0  0  0
  190.6320  177.5290  141.6390 C   0  0  0  0  0  2  0  0  0  0  0  0
  183.7350  179.7980  144.1530 C   0  0  0  0  0  2  0  0  0  0  0  0
  182.7040  178.7330  144.4990 C   0  0  0  0  0  2  0  0  0  0  0  0
  181.4410  178.9500  143.7370 C   0  0  0  0  0  0  0  0  0  0  0  0
  180.3080  178.2110  144.0500 O   0  0  0  0  0  1  0  0  0  0  0  0
  181.4080  179.7820  142.7930 O   0  0  0  0  0  0  0  0  0  0  0  0
  185.2990  178.1160  143.0650 C   0  0  0  0  0  2  0  0  0  0  0  0
  184.9310  179.5520  139.8070 N   0  0  0  0  0  0  0  0  0  0  0  0
  183.8180  178.0490  141.0440 N   0  0  0  0  0  0  0  0  0  0  0  0
  184.8820  178.5540  141.6960 C   0  0  0  0  0  0  0  0  0  0  0  0
  185.5640  179.4520  140.9620 N   0  0  0  0  0  2  0  0  0  0  0  0
  183.8830  178.7120  139.8730 C   0  0  0  0  0  0  0  0  0  0  0  0
  182.9350  178.4880  138.7470 C   0  0  0  0  0  2  0  0  0  0  0  0
  181.6950  179.3350  138.9450 C   0  0  0  0  0  2  0  0  0  0  0  0
  181.8790  180.6200  138.2940 N   0  0  0  0  0  1  0  0  0  0  0  0
  1 20  1  6  0  0  0
  1 15  1  0  0  0  0
  1  4  1  0  0  0  0
  2  3  2  0  0  0  0
  3  6  1  0  0  0  0
  4  2  2  0  0  0  0
  6  7  2  0  0  0  0
  6  5  1  0  0  0  0
  8  3  1  0  0  0  0
 10 13  1  0  0  0  0
 11 12  1  0  0  0  0
 12  9  1  1  0  0  0
 13 12  1  0  0  0  0
 13  8  1  6  0  0  0
 14 10  1  0  0  0  0
 14 11  1  0  0  0  0
 15 16  1  0  0  0  0
 17 18  1  0  0  0  0
 17 16  1  0  0  0  0
 19 17  2  0  0  0  0
 21 25  2  0  0  0  0
 21 24  1  0  0  0  0
 22 23  2  0  0  0  0
 23 20  1  0  0  0  0
 24 23  1  0  0  0  0
 25 22  1  0  0  0  0
 26 27  1  0  0  0  0
 26 25  1  0  0  0  0
 28 27  1  0  0  0  0
M  END
>  <MODEL>
1

>  <REMARK>
 VINA RESULT:      -7.6      0.000      0.000
  Name = 
  11 active torsions:
  status: ('A' for Active; 'I' for Inactive)
    1  A    between atoms: C_1  and  C_26
    2  A    between atoms: C_2  and  C_14
    3  A    between atoms: C_2  and  C_17
    4  A    between atoms: C_2  and  C_20
    5  A    between atoms: C_10  and  C_12
    6  A    between atoms: C_12  and  C_24
    7  A    between atoms: C_13  and  C_15
    8  A    between atoms: C_15  and  C_28
    9  A    between atoms: C_16  and  C_20
   10  A    between atoms: C_17  and  C_26
   11  A    between atoms: C_22  and  C_24
                            x       y       z     vdW  Elec       q    Type
                         _______ _______ _______ _____ _____    ______ ____

>  <TORSDO>
F 11

$$$$
=
 OpenBabel11062416483D

 28 29  0  0  1  0  0  0  0  0999 V2000
  184.9240  179.0470  144.5650 C   0  0  2  0  0  3  0  0  0  0  0  0
  182.5070  178.9140  144.2740 C   0  0  0  0  0  0  0  0  0  0  0  0
  181.4940  178.7230  143.4680 C   0  0  0  0  0  0  0  0  0  0  0  0
  183.5200  179.1030  145.0750 C   0  0  0  0  0  3  0  0  0  0  0  0
  179.1820  179.3810  144.4060 C   0  0  0  0  0  1  0  0  0  0  0  0
  180.1710  178.3410  144.0040 C   0  0  0  0  0  0  0  0  0  0  0  0
  179.8590  177.1260  144.1280 O   0  0  0  0  0  0  0  0  0  0  0  0
  181.7010  178.8870  141.9930 C   0  0  0  0  0  2  0  0  0  0  0  0
  179.5700  181.1640  141.3170 N   0  0  0  0  0  1  0  0  0  0  0  0
  180.3370  177.5260  140.0260 S   0  0  0  0  0  0  0  0  0  0  0  0
  179.3920  179.9170  139.3070 N   0  0  0  0  0  2  0  0  0  0  0  0
  180.2140  180.1730  140.4760 C   0  0  2  0  0  3  0  0  0  0  0  0
  180.3770  178.8770  141.2380 C   0  0  2  0  0  3  0  0  0  0  0  0
  179.9180  178.7030  138.7080 C   0  0  0  0  0  2  0  0  0  0  0  0
  185.0050  179.5100  143.1080 C   0  0  0  0  0  2  0  0  0  0  0  0
  185.4730  178.3890  142.1910 C   0  0  0  0  0  2  0  0  0  0  0  0
  185.7770  178.9110  140.8280 C   0  0  0  0  0  0  0  0  0  0  0  0
  184.8350  179.6750  140.1530 O   0  0  0  0  0  0  0  0  0  0  0  0
  186.8750  178.6350  140.2770 O   0  0  0  0  0  1  0  0  0  0  0  0
  185.5280  177.6530  144.7620 C   0  0  0  0  0  2  0  0  0  0  0  0
  188.1790  177.7990  147.1630 N   0  0  0  0  0  0  0  0  0  0  0  0
  188.0160  177.4120  144.9600 N   0  0  0  0  0  0  0  0  0  0  0  0
  186.8190  177.6750  145.5200 C   0  0  0  0  0  0  0  0  0  0  0  0
  186.9020  177.9010  146.8430 N   0  0  0  0  0  2  0  0  0  0  0  0
  188.8360  177.5140  146.0240 C   0  0  0  0  0  0  0  0  0  0  0  0
  190.3030  177.2690  145.9580 C   0  0  0  0  0  2  0  0  0  0  0  0
  190.7940  176.7340  147.2880 C   0  0  0  0  0  2  0  0  0  0  0  0
  192.1710  176.2960  147.1530 N   0  0  0  0  0  1  0  0  0  0  0  0
  1 15  1  6  0  0  0
  1 20  1  0  0  0  0
  1  4  1  0  0  0  0
  2  4  2  0  0  0  0
  3  6  1  0  0  0  0
  3  2  2  0  0  0  0
  6  7  2  0  0  0  0
  6  5  1  0  0  0  0
  8  3  1  0  0  0  0
 10 13  1  0  0  0  0
 11 12  1  0  0  0  0
 12 13  1  0  0  0  0
 12  9  1  1  0  0  0
 13  8  1  6  0  0  0
 14 11  1  0  0  0  0
 14 10  1  0  0  0  0
 16 15  1  0  0  0  0
 17 16  1  0  0  0  0
 18 17  2  0  0  0  0
 19 17  1  0  0  0  0
 20 23  1  0  0  0  0
 22 23  2  0  0  0  0
 22 25  1  0  0  0  0
 23 24  1  0  0  0  0
 24 21  1  0  0  0  0
 25 21  2  0  0  0  0
 26 25  1  0  0  0  0
 26 27  1  0  0  0  0
 28 27  1  0  0  0  0
M  END
>  <MODEL>
2

>  <REMARK>
 VINA RESULT:      -7.1      3.426      8.411
  Name = 
  11 active torsions:
  status: ('A' for Active; 'I' for Inactive)
    1  A    between atoms: C_1  and  C_26
    2  A    between atoms: C_2  and  C_14
    3  A    between atoms: C_2  and  C_17
    4  A    between atoms: C_2  and  C_20
    5  A    between atoms: C_10  and  C_12
    6  A    between atoms: C_12  and  C_24
    7  A    between atoms: C_13  and  C_15
    8  A    between atoms: C_15  and  C_28
    9  A    between atoms: C_16  and  C_20
   10  A    between atoms: C_17  and  C_26
   11  A    between atoms: C_22  and  C_24
                            x       y       z     vdW  Elec       q    Type
                         _______ _______ _______ _____ _____    ______ ____

>  <TORSDO>
F 11

$$$$
=
 OpenBabel11062416483D

 28 29  0  0  1  0  0  0  0  0999 V2000
  190.1790  177.3160  143.9810 C   0  0  2  0  0  3  0  0  0  0  0  0
  188.3120  178.0410  145.3720 C   0  0  0  0  0  0  0  0  0  0  0  0
  187.0340  177.9680  145.6420 C   0  0  0  0  0  0  0  0  0  0  0  0
  189.5870  178.1110  145.1010 C   0  0  0  0  0  3  0  0  0  0  0  0
  187.3820  178.2650  148.1820 C   0  0  0  0  0  1  0  0  0  0  0  0
  186.5240  178.3740  146.9680 C   0  0  0  0  0  0  0  0  0  0  0  0
  185.3520  178.8220  147.0910 O   0  0  0  0  0  0  0  0  0  0  0  0
  186.1000  177.4540  144.5900 C   0  0  0  0  0  2  0  0  0  0  0  0
  187.1500  178.6380  141.8180 N   0  0  0  0  0  1  0  0  0  0  0  0
  183.8210  178.8390  143.9070 S   0  0  0  0  0  0  0  0  0  0  0  0
  184.8210  178.8690  141.4330 N   0  0  0  0  0  2  0  0  0  0  0  0
  185.8300  178.2070  142.2390 C   0  0  2  0  0  3  0  0  0  0  0  0
  185.6040  178.5770  143.6870 C   0  0  2  0  0  3  0  0  0  0  0  0
  183.5590  178.6560  142.1200 C   0  0  0  0  0  2  0  0  0  0  0  0
  191.2980  176.4000  144.4810 C   0  0  0  0  0  2  0  0  0  0  0  0
  191.7270  176.7630  145.8960 C   0  0  0  0  0  2  0  0  0  0  0  0
  192.2720  175.5740  146.6080 C   0  0  0  0  0  0  0  0  0  0  0  0
  192.4180  175.5990  147.9890 O   0  0  0  0  0  1  0  0  0  0  0  0
  192.6280  174.5560  145.9580 O   0  0  0  0  0  0  0  0  0  0  0  0
  190.6450  178.2280  142.8420 C   0  0  0  0  0  2  0  0  0  0  0  0
  190.4060  176.2880  139.8440 N   0  0  0  0  0  0  0  0  0  0  0  0
  191.9530  177.6040  140.7970 N   0  0  0  0  0  0  0  0  0  0  0  0
  190.8400  177.5010  141.5480 C   0  0  0  0  0  0  0  0  0  0  0  0
  189.9010  176.7200  140.9850 N   0  0  0  0  0  2  0  0  0  0  0  0
  191.6390  176.8180  139.7480 C   0  0  0  0  0  0  0  0  0  0  0  0
  192.5340  176.6150  138.5760 C   0  0  0  0  0  2  0  0  0  0  0  0
  191.9340  175.5810  137.6450 C   0  0  0  0  0  2  0  0  0  0  0  0
  192.7890  174.4090  137.6090 N   0  0  0  0  0  1  0  0  0  0  0  0
  1 20  1  6  0  0  0
  1 15  1  0  0  0  0
  1  4  1  0  0  0  0
  2  3  2  0  0  0  0
  3  6  1  0  0  0  0
  4  2  2  0  0  0  0
  6  7  2  0  0  0  0
  6  5  1  0  0  0  0
  8  3  1  0  0  0  0
 11 14  1  0  0  0  0
 11 12  1  0  0  0  0
 12  9  1  6  0  0  0
 12 13  1  0  0  0  0
 13 10  1  0  0  0  0
 13  8  1  1  0  0  0
 14 10  1  0  0  0  0
 15 16  1  0  0  0  0
 16 17  1  0  0  0  0
 17 18  1  0  0  0  0
 19 17  2  0  0  0  0
 21 24  1  0  0  0  0
 22 23  2  0  0  0  0
 23 20  1  0  0  0  0
 24 23  1  0  0  0  0
 25 21  2  0  0  0  0
 25 22  1  0  0  0  0
 26 25  1  0  0  0  0
 27 26  1  0  0  0  0
 28 27  1  0  0  0  0
M  END
>  <MODEL>
3

>  <REMARK>
 VINA RESULT:      -7.0      2.833      7.439
  Name = 
  11 active torsions:
  status: ('A' for Active; 'I' for Inactive)
    1  A    between atoms: C_1  and  C_26
    2  A    between atoms: C_2  and  C_14
    3  A    between atoms: C_2  and  C_17
    4  A    between atoms: C_2  and  C_20
    5  A    between atoms: C_10  and  C_12
    6  A    between atoms: C_12  and  C_24
    7  A    between atoms: C_13  and  C_15
    8  A    between atoms: C_15  and  C_28
    9  A    between atoms: C_16  and  C_20
   10  A    between atoms: C_17  and  C_26
   11  A    between atoms: C_22  and  C_24
                            x       y       z     vdW  Elec       q    Type
                         _______ _______ _______ _____ _____    ______ ____

>  <TORSDO>
F 11

$$$$
=
 OpenBabel11062416483D

 28 29  0  0  1  0  0  0  0  0999 V2000
  184.1270  178.5650  143.5940 C   0  0  2  0  0  3  0  0  0  0  0  0
  186.1800  177.9550  144.7600 C   0  0  0  0  0  0  0  0  0  0  0  0
  187.3970  177.4810  144.6910 C   0  0  0  0  0  0  0  0  0  0  0  0
  184.9650  178.4280  144.8240 C   0  0  0  0  0  3  0  0  0  0  0  0
  188.0450  177.3980  147.1870 C   0  0  0  0  0  1  0  0  0  0  0  0
  188.3670  177.7450  145.7740 C   0  0  0  0  0  0  0  0  0  0  0  0
  189.4840  178.2680  145.5170 O   0  0  0  0  0  0  0  0  0  0  0  0
  187.7940  176.6760  143.4910 C   0  0  0  0  0  2  0  0  0  0  0  0
  190.8710  175.8370  143.3790 N   0  0  0  0  0  1  0  0  0  0  0  0
  188.5050  178.2170  141.3240 S   0  0  0  0  0  0  0  0  0  0  0  0
  190.6500  176.6370  141.1570 N   0  0  0  0  0  2  0  0  0  0  0  0
  189.9290  176.1710  142.3270 C   0  0  2  0  0  3  0  0  0  0  0  0
  189.0080  177.2770  142.7930 C   0  0  2  0  0  3  0  0  0  0  0  0
  189.6570  177.2590  140.2980 C   0  0  0  0  0  2  0  0  0  0  0  0
  184.9630  179.0380  142.4020 C   0  0  0  0  0  2  0  0  0  0  0  0
  184.6970  178.1950  141.1640 C   0  0  0  0  0  2  0  0  0  0  0  0
  185.0080  178.9600  139.9230 C   0  0  0  0  0  0  0  0  0  0  0  0
  184.2840  180.1040  139.6150 O   0  0  0  0  0  1  0  0  0  0  0  0
  185.9070  178.5560  139.1400 O   0  0  0  0  0  0  0  0  0  0  0  0
  182.9170  179.4700  143.8470 C   0  0  0  0  0  2  0  0  0  0  0  0
  179.6430  178.0960  143.3930 N   0  0  0  0  0  0  0  0  0  0  0  0
  181.3420  178.6960  142.0570 N   0  0  0  0  0  0  0  0  0  0  0  0
  181.6300  178.8800  143.3590 C   0  0  0  0  0  0  0  0  0  0  0  0
  180.6170  178.5310  144.1720 N   0  0  0  0  0  2  0  0  0  0  0  0
  180.0940  178.1930  142.1290 C   0  0  0  0  0  0  0  0  0  0  0  0
  179.2770  177.8460  140.9340 C   0  0  0  0  0  2  0  0  0  0  0  0
  179.5780  178.8130  139.8080 C   0  0  0  0  0  2  0  0  0  0  0  0
  180.2270  178.1030  138.7210 N   0  0  0  0  0  1  0  0  0  0  0  0
  1 15  1  6  0  0  0
  1 20  1  0  0  0  0
  1  4  1  0  0  0  0
  2  4  2  0  0  0  0
  3  2  2  0  0  0  0
  3  6  1  0  0  0  0
  6  5  1  0  0  0  0
  7  6  2  0  0  0  0
  8  3  1  0  0  0  0
 10 13  1  0  0  0  0
 11 12  1  0  0  0  0
 12 13  1  0  0  0  0
 12  9  1  1  0  0  0
 13  8  1  6  0  0  0
 14 11  1  0  0  0  0
 14 10  1  0  0  0  0
 16 15  1  0  0  0  0
 17 16  1  0  0  0  0
 18 17  1  0  0  0  0
 19 17  2  0  0  0  0
 21 24  1  0  0  0  0
 22 25  1  0  0  0  0
 22 23  2  0  0  0  0
 23 20  1  0  0  0  0
 23 24  1  0  0  0  0
 25 21  2  0  0  0  0
 26 25  1  0  0  0  0
 27 26  1  0  0  0  0
 28 27  1  0  0  0  0
M  END
>  <MODEL>
4

>  <REMARK>
 VINA RESULT:      -6.9      2.466      3.382
  Name = 
  11 active torsions:
  status: ('A' for Active; 'I' for Inactive)
    1  A    between atoms: C_1  and  C_26
    2  A    between atoms: C_2  and  C_14
    3  A    between atoms: C_2  and  C_17
    4  A    between atoms: C_2  and  C_20
    5  A    between atoms: C_10  and  C_12
    6  A    between atoms: C_12  and  C_24
    7  A    between atoms: C_13  and  C_15
    8  A    between atoms: C_15  and  C_28
    9  A    between atoms: C_16  and  C_20
   10  A    between atoms: C_17  and  C_26
   11  A    between atoms: C_22  and  C_24
                            x       y       z     vdW  Elec       q    Type
                         _______ _______ _______ _____ _____    ______ ____

>  <TORSDO>
F 11

$$$$
=
 OpenBabel11062416483D

 28 29  0  0  1  0  0  0  0  0999 V2000
  185.3370  178.2570  144.5070 C   0  0  2  0  0  3  0  0  0  0  0  0
  183.1270  178.9560  143.7520 C   0  0  0  0  0  0  0  0  0  0  0  0
  182.1410  178.8000  142.9060 C   0  0  0  0  0  0  0  0  0  0  0  0
  184.1120  179.1090  144.5950 C   0  0  0  0  0  3  0  0  0  0  0  0
  179.8490  178.4710  144.0430 C   0  0  0  0  0  1  0  0  0  0  0  0
  180.7880  179.2960  143.2310 C   0  0  0  0  0  0  0  0  0  0  0  0
  180.4080  180.4280  142.8270 O   0  0  0  0  0  0  0  0  0  0  0  0
  182.4060  178.0990  141.6080 C   0  0  0  0  0  2  0  0  0  0  0  0
  184.6630  179.6240  139.9460 N   0  0  0  0  0  1  0  0  0  0  0  0
  180.8460  178.8040  139.4510 S   0  0  0  0  0  0  0  0  0  0  0  0
  183.1520  179.1990  138.1670 N   0  0  0  0  0  2  0  0  0  0  0  0
  183.5320  178.8230  139.5160 C   0  0  2  0  0  3  0  0  0  0  0  0
  182.3520  179.0650  140.4310 C   0  0  2  0  0  3  0  0  0  0  0  0
  181.8410  178.6150  137.9450 C   0  0  0  0  0  2  0  0  0  0  0  0
  186.4160  178.7350  145.4820 C   0  0  0  0  0  2  0  0  0  0  0  0
  186.6280  177.7400  146.6130 C   0  0  0  0  0  2  0  0  0  0  0  0
  188.0800  177.4900  146.8350 C   0  0  0  0  0  0  0  0  0  0  0  0
  188.4950  176.7430  147.9300 O   0  0  0  0  0  1  0  0  0  0  0  0
  188.9330  177.9780  146.0490 O   0  0  0  0  0  0  0  0  0  0  0  0
  185.8540  178.1770  143.0680 C   0  0  0  0  0  2  0  0  0  0  0  0
  188.7930  176.1350  143.1200 N   0  0  0  0  0  0  0  0  0  0  0  0
  188.2580  178.1760  142.3580 N   0  0  0  0  0  0  0  0  0  0  0  0
  187.2190  177.5720  142.9660 C   0  0  0  0  0  0  0  0  0  0  0  0
  187.5240  176.3440  143.4210 N   0  0  0  0  0  2  0  0  0  0  0  0
  189.2220  177.2440  142.4900 C   0  0  0  0  0  0  0  0  0  0  0  0
  190.5960  177.3990  141.9380 C   0  0  0  0  0  2  0  0  0  0  0  0
  191.6170  177.1870  143.0370 C   0  0  0  0  0  2  0  0  0  0  0  0
  191.6460  178.3530  143.9010 N   0  0  0  0  0  1  0  0  0  0  0  0
  1 20  1  6  0  0  0
  1  4  1  0  0  0  0
  1 15  1  0  0  0  0
  2  4  2  0  0  0  0
  3  6  1  0  0  0  0
  3  2  2  0  0  0  0
  6  5  1  0  0  0  0
  7  6  2  0  0  0  0
  8  3  1  0  0  0  0
 10 13  1  0  0  0  0
 11 12  1  0  0  0  0
 12  9  1  1  0  0  0
 12 13  1  0  0  0  0
 13  8  1  1  0  0  0
 14 11  1  0  0  0  0
 14 10  1  0  0  0  0
 15 16  1  0  0  0  0
 16 17  1  0  0  0  0
 17 18  1  0  0  0  0
 19 17  2  0  0  0  0
 21 24  1  0  0  0  0
 22 25  1  0  0  0  0
 22 23  2  0  0  0  0
 23 20  1  0  0  0  0
 23 24  1  0  0  0  0
 25 21  2  0  0  0  0
 26 25  1  0  0  0  0
 26 27  1  0  0  0  0
 27 28  1  0  0  0  0
M  END
>  <MODEL>
5

>  <REMARK>
 VINA RESULT:      -6.8      2.337      7.451
  Name = 
  11 active torsions:
  status: ('A' for Active; 'I' for Inactive)
    1  A    between atoms: C_1  and  C_26
    2  A    between atoms: C_2  and  C_14
    3  A    between atoms: C_2  and  C_17
    4  A    between atoms: C_2  and  C_20
    5  A    between atoms: C_10  and  C_12
    6  A    between atoms: C_12  and  C_24
    7  A    between atoms: C_13  and  C_15
    8  A    between atoms: C_15  and  C_28
    9  A    between atoms: C_16  and  C_20
   10  A    between atoms: C_17  and  C_26
   11  A    between atoms: C_22  and  C_24
                            x       y       z     vdW  Elec       q    Type
                         _______ _______ _______ _____ _____    ______ ____

>  <TORSDO>
F 11

$$$$
=
 OpenBabel11062416483D

 28 29  0  0  1  0  0  0  0  0999 V2000
  189.8900  177.2940  143.7430 C   0  0  2  0  0  3  0  0  0  0  0  0
  188.1840  178.0380  145.3190 C   0  0  0  0  0  0  0  0  0  0  0  0
  186.9390  177.9830  145.7150 C   0  0  0  0  0  0  0  0  0  0  0  0
  189.4260  178.0890  144.9210 C   0  0  0  0  0  3  0  0  0  0  0  0
  187.5350  178.2340  148.2120 C   0  0  0  0  0  1  0  0  0  0  0  0
  186.5700  178.3870  147.0870 C   0  0  0  0  0  0  0  0  0  0  0  0
  185.4310  178.8700  147.3270 O   0  0  0  0  0  0  0  0  0  0  0  0
  185.8950  177.4920  144.7580 C   0  0  0  0  0  2  0  0  0  0  0  0
  186.6930  178.6400  141.8890 N   0  0  0  0  0  1  0  0  0  0  0  0
  183.5990  178.9400  144.3020 S   0  0  0  0  0  0  0  0  0  0  0  0
  184.3440  178.9370  141.7390 N   0  0  0  0  0  2  0  0  0  0  0  0
  185.4100  178.2470  142.4420 C   0  0  2  0  0  3  0  0  0  0  0  0
  185.3420  178.6270  143.9050 C   0  0  2  0  0  3  0  0  0  0  0  0
  183.1530  178.7620  142.5520 C   0  0  0  0  0  2  0  0  0  0  0  0
  191.0230  176.3400  144.1290 C   0  0  0  0  0  2  0  0  0  0  0  0
  191.6760  176.7500  145.4410 C   0  0  0  0  0  2  0  0  0  0  0  0
  192.0900  175.5520  146.2250 C   0  0  0  0  0  0  0  0  0  0  0  0
  192.0970  175.6000  147.6120 O   0  0  0  0  0  1  0  0  0  0  0  0
  192.4620  174.5060  145.6310 O   0  0  0  0  0  0  0  0  0  0  0  0
  190.2770  178.2090  142.5770 C   0  0  0  0  0  2  0  0  0  0  0  0
  190.3900  176.0600  139.7170 N   0  0  0  0  0  0  0  0  0  0  0  0
  189.4420  178.0290  140.2200 N   0  0  0  0  0  0  0  0  0  0  0  0
  190.1670  177.5380  141.2430 C   0  0  0  0  0  0  0  0  0  0  0  0
  190.7360  176.3530  140.9570 N   0  0  0  0  0  2  0  0  0  0  0  0
  189.6220  177.0760  139.2850 C   0  0  0  0  0  0  0  0  0  0  0  0
  188.9820  177.1120  137.9410 C   0  0  0  0  0  2  0  0  0  0  0  0
  188.8620  178.5470  137.4680 C   0  0  0  0  0  2  0  0  0  0  0  0
  187.4620  178.9290  137.4370 N   0  0  0  0  0  1  0  0  0  0  0  0
  1 20  1  6  0  0  0
  1 15  1  0  0  0  0
  1  4  1  0  0  0  0
  2  3  2  0  0  0  0
  3  6  1  0  0  0  0
  4  2  2  0  0  0  0
  6  7  2  0  0  0  0
  6  5  1  0  0  0  0
  8  3  1  0  0  0  0
 11 12  1  0  0  0  0
 11 14  1  0  0  0  0
 12  9  1  6  0  0  0
 12 13  1  0  0  0  0
 13 10  1  0  0  0  0
 13  8  1  1  0  0  0
 14 10  1  0  0  0  0
 15 16  1  0  0  0  0
 16 17  1  0  0  0  0
 17 18  1  0  0  0  0
 19 17  2  0  0  0  0
 21 24  1  0  0  0  0
 22 23  2  0  0  0  0
 23 20  1  0  0  0  0
 24 23  1  0  0  0  0
 25 21  2  0  0  0  0
 25 22  1  0  0  0  0
 26 25  1  0  0  0  0
 27 26  1  0  0  0  0
 28 27  1  0  0  0  0
M  END
>  <MODEL>
6

>  <REMARK>
 VINA RESULT:      -6.8      2.887      6.648
  Name = 
  11 active torsions:
  status: ('A' for Active; 'I' for Inactive)
    1  A    between atoms: C_1  and  C_26
    2  A    between atoms: C_2  and  C_14
    3  A    between atoms: C_2  and  C_17
    4  A    between atoms: C_2  and  C_20
    5  A    between atoms: C_10  and  C_12
    6  A    between atoms: C_12  and  C_24
    7  A    between atoms: C_13  and  C_15
    8  A    between atoms: C_15  and  C_28
    9  A    between atoms: C_16  and  C_20
   10  A    between atoms: C_17  and  C_26
   11  A    between atoms: C_22  and  C_24
                            x       y       z     vdW  Elec       q    Type
                         _______ _______ _______ _____ _____    ______ ____

>  <TORSDO>
F 11

$$$$
=
 OpenBabel11062416483D

 28 29  0  0  1  0  0  0  0  0999 V2000
  185.9550  178.9490  141.4090 C   0  0  2  0  0  3  0  0  0  0  0  0
  188.0500  177.9040  142.0940 C   0  0  0  0  0  0  0  0  0  0  0  0
  188.6730  177.1000  142.9160 C   0  0  0  0  0  0  0  0  0  0  0  0
  187.4240  178.7050  141.2740 C   0  0  0  0  0  3  0  0  0  0  0  0
  191.0300  177.3450  141.8970 C   0  0  0  0  0  1  0  0  0  0  0  0
  189.9770  176.5140  142.5460 C   0  0  0  0  0  0  0  0  0  0  0  0
  190.2200  175.2990  142.7770 O   0  0  0  0  0  0  0  0  0  0  0  0
  188.0360  176.7750  144.2330 C   0  0  0  0  0  2  0  0  0  0  0  0
  186.4580  178.4540  146.4410 N   0  0  0  0  0  1  0  0  0  0  0  0
  190.1930  177.3710  145.8360 S   0  0  0  0  0  0  0  0  0  0  0  0
  188.3850  177.9260  147.7190 N   0  0  0  0  0  2  0  0  0  0  0  0
  187.6090  177.5760  146.5440 C   0  0  2  0  0  3  0  0  0  0  0  0
  188.4890  177.7360  145.3250 C   0  0  2  0  0  3  0  0  0  0  0  0
  189.6630  177.2530  147.5680 C   0  0  0  0  0  2  0  0  0  0  0  0
  185.4290  178.4430  142.7540 C   0  0  0  0  0  2  0  0  0  0  0  0
  184.8640  179.5780  143.5950 C   0  0  0  0  0  2  0  0  0  0  0  0
  183.5470  179.2000  144.1810 C   0  0  0  0  0  0  0  0  0  0  0  0
  182.4690  178.9320  143.3480 O   0  0  0  0  0  0  0  0  0  0  0  0
  183.4020  179.1500  145.4310 O   0  0  0  0  0  1  0  0  0  0  0  0
  185.1850  178.3520  140.2270 C   0  0  0  0  0  2  0  0  0  0  0  0
  182.9540  180.7890  138.8490 N   0  0  0  0  0  0  0  0  0  0  0  0
  182.7440  178.8710  139.9920 N   0  0  0  0  0  0  0  0  0  0  0  0
  184.0330  179.2010  139.7870 C   0  0  0  0  0  0  0  0  0  0  0  0
  184.1740  180.3460  139.0960 N   0  0  0  0  0  2  0  0  0  0  0  0
  182.1080  179.8990  139.3980 C   0  0  0  0  0  0  0  0  0  0  0  0
  180.6260  180.0040  139.3010 C   0  0  0  0  0  2  0  0  0  0  0  0
  180.0310  180.1580  140.6860 C   0  0  0  0  0  2  0  0  0  0  0  0
  179.5120  181.5050  140.8420 N   0  0  0  0  0  1  0  0  0  0  0  0
  1 20  1  6  0  0  0
  1 15  1  0  0  0  0
  2  3  2  0  0  0  0
  3  8  1  0  0  0  0
  4  1  1  0  0  0  0
  4  2  2  0  0  0  0
  5  6  1  0  0  0  0
  6  7  2  0  0  0  0
  6  3  1  0  0  0  0
 10 14  1  0  0  0  0
 12  9  1  6  0  0  0
 12 11  1  0  0  0  0
 13  8  1  6  0  0  0
 13 10  1  0  0  0  0
 13 12  1  0  0  0  0
 14 11  1  0  0  0  0
 15 16  1  0  0  0  0
 16 17  1  0  0  0  0
 17 19  1  0  0  0  0
 18 17  2  0  0  0  0
 21 24  1  0  0  0  0
 21 25  2  0  0  0  0
 23 22  2  0  0  0  0
 23 20  1  0  0  0  0
 24 23  1  0  0  0  0
 25 22  1  0  0  0  0
 26 25  1  0  0  0  0
 26 27  1  0  0  0  0
 27 28  1  0  0  0  0
M  END
>  <MODEL>
7

>  <REMARK>
 VINA RESULT:      -6.7      2.308      3.681
  Name = 
  11 active torsions:
  status: ('A' for Active; 'I' for Inactive)
    1  A    between atoms: C_1  and  C_26
    2  A    between atoms: C_2  and  C_14
    3  A    between atoms: C_2  and  C_17
    4  A    between atoms: C_2  and  C_20
    5  A    between atoms: C_10  and  C_12
    6  A    between atoms: C_12  and  C_24
    7  A    between atoms: C_13  and  C_15
    8  A    between atoms: C_15  and  C_28
    9  A    between atoms: C_16  and  C_20
   10  A    between atoms: C_17  and  C_26
   11  A    between atoms: C_22  and  C_24
                            x       y       z     vdW  Elec       q    Type
                         _______ _______ _______ _____ _____    ______ ____

>  <TORSDO>
F 11

$$$$
=
 OpenBabel11062416483D

 28 29  0  0  1  0  0  0  0  0999 V2000
  189.2270  177.3870  143.5530 C   0  0  2  0  0  3  0  0  0  0  0  0
  190.1980  176.8140  141.3900 C   0  0  0  0  0  0  0  0  0  0  0  0
  190.3840  177.1370  140.1360 C   0  0  0  0  0  0  0  0  0  0  0  0
  190.0110  176.4970  142.6420 C   0  0  0  0  0  3  0  0  0  0  0  0
  192.8450  177.1420  139.3610 C   0  0  0  0  0  1  0  0  0  0  0  0
  191.4860  176.5300  139.3610 C   0  0  0  0  0  0  0  0  0  0  0  0
  191.2920  175.4810  138.6890 O   0  0  0  0  0  0  0  0  0  0  0  0
  189.4680  178.1400  139.5020 C   0  0  0  0  0  2  0  0  0  0  0  0
  186.5490  178.7010  140.6650 N   0  0  0  0  0  1  0  0  0  0  0  0
  188.0440  176.8700  137.5180 S   0  0  0  0  0  0  0  0  0  0  0  0
  185.9460  178.2550  138.4150 N   0  0  0  0  0  2  0  0  0  0  0  0
  187.0380  178.6100  139.3010 C   0  0  2  0  0  3  0  0  0  0  0  0
  188.1000  177.5380  139.2050 C   0  0  2  0  0  3  0  0  0  0  0  0
  186.5630  177.8580  137.1610 C   0  0  0  0  0  2  0  0  0  0  0  0
  190.1140  177.9770  144.6510 C   0  0  0  0  0  2  0  0  0  0  0  0
  191.1710  176.9840  145.1090 C   0  0  0  0  0  2  0  0  0  0  0  0
  191.0530  176.7190  146.5710 C   0  0  0  0  0  0  0  0  0  0  0  0
  189.7990  176.6640  147.1660 O   0  0  0  0  0  0  0  0  0  0  0  0
  192.0880  176.5740  147.2730 O   0  0  0  0  0  1  0  0  0  0  0  0
  188.0090  176.6560  144.1250 C   0  0  0  0  0  2  0  0  0  0  0  0
  185.9900  178.9820  145.9480 N   0  0  0  0  0  0  0  0  0  0  0  0
  185.8450  177.9140  143.9820 N   0  0  0  0  0  0  0  0  0  0  0  0
  186.9630  177.5850  144.6580 C   0  0  0  0  0  0  0  0  0  0  0  0
  187.0660  178.2240  145.8360 N   0  0  0  0  0  2  0  0  0  0  0  0
  185.2640  178.7800  144.8340 C   0  0  0  0  0  0  0  0  0  0  0  0
  183.9880  179.4890  144.5430 C   0  0  0  0  0  2  0  0  0  0  0  0
  183.4210  179.0040  143.2250 C   0  0  0  0  0  2  0  0  0  0  0  0
  181.9740  178.9390  143.3160 N   0  0  0  0  0  1  0  0  0  0  0  0
  1  4  1  1  0  0  0
  1 20  1  0  0  0  0
  1 15  1  0  0  0  0
  2  4  2  0  0  0  0
  3  2  2  0  0  0  0
  5  6  1  0  0  0  0
  6  3  1  0  0  0  0
  7  6  2  0  0  0  0
  8  3  1  0  0  0  0
 10 13  1  0  0  0  0
 11 12  1  0  0  0  0
 12  9  1  1  0  0  0
 13 12  1  0  0  0  0
 13  8  1  6  0  0  0
 14 10  1  0  0  0  0
 14 11  1  0  0  0  0
 15 16  1  0  0  0  0
 16 17  1  0  0  0  0
 17 18  2  0  0  0  0
 17 19  1  0  0  0  0
 20 23  1  0  0  0  0
 22 23  2  0  0  0  0
 22 25  1  0  0  0  0
 23 24  1  0  0  0  0
 24 21  1  0  0  0  0
 25 21  2  0  0  0  0
 26 25  1  0  0  0  0
 27 28  1  0  0  0  0
 27 26  1  0  0  0  0
M  END
>  <MODEL>
8

>  <REMARK>
 VINA RESULT:      -6.6      3.799      6.843
  Name = 
  11 active torsions:
  status: ('A' for Active; 'I' for Inactive)
    1  A    between atoms: C_1  and  C_26
    2  A    between atoms: C_2  and  C_14
    3  A    between atoms: C_2  and  C_17
    4  A    between atoms: C_2  and  C_20
    5  A    between atoms: C_10  and  C_12
    6  A    between atoms: C_12  and  C_24
    7  A    between atoms: C_13  and  C_15
    8  A    between atoms: C_15  and  C_28
    9  A    between atoms: C_16  and  C_20
   10  A    between atoms: C_17  and  C_26
   11  A    between atoms: C_22  and  C_24
                            x       y       z     vdW  Elec       q    Type
                         _______ _______ _______ _____ _____    ______ ____

>  <TORSDO>
F 11

$$$$
=
 OpenBabel11062416483D

 28 29  0  0  1  0  0  0  0  0999 V2000
  185.6670  178.7310  144.1470 C   0  0  2  0  0  3  0  0  0  0  0  0
  183.3390  179.1770  143.5720 C   0  0  0  0  0  0  0  0  0  0  0  0
  182.3110  178.9010  142.8130 C   0  0  0  0  0  0  0  0  0  0  0  0
  184.3680  179.4480  144.3290 C   0  0  0  0  0  3  0  0  0  0  0  0
  180.0870  178.2620  143.9540 C   0  0  0  0  0  1  0  0  0  0  0  0
  180.9430  179.2550  143.2460 C   0  0  0  0  0  0  0  0  0  0  0  0
  180.4810  180.4060  143.0230 O   0  0  0  0  0  0  0  0  0  0  0  0
  182.5420  178.2090  141.5040 C   0  0  0  0  0  2  0  0  0  0  0  0
  184.1420  180.0610  139.4560 N   0  0  0  0  0  1  0  0  0  0  0  0
  180.5500  178.4610  139.6190 S   0  0  0  0  0  0  0  0  0  0  0  0
  182.4930  179.2400  137.9620 N   0  0  0  0  0  2  0  0  0  0  0  0
  183.1500  179.0250  139.2380 C   0  0  2  0  0  3  0  0  0  0  0  0
  182.1040  179.0760  140.3290 C   0  0  2  0  0  3  0  0  0  0  0  0
  181.3140  178.3910  137.9740 C   0  0  0  0  0  2  0  0  0  0  0  0
  185.7800  178.1350  142.7420 C   0  0  0  0  0  2  0  0  0  0  0  0
  186.5200  179.0690  141.7960 C   0  0  0  0  0  2  0  0  0  0  0  0
  187.7500  178.4190  141.2610 C   0  0  0  0  0  0  0  0  0  0  0  0
  188.2510  177.2770  141.8710 O   0  0  0  0  0  1  0  0  0  0  0  0
  188.3510  178.9200  140.2750 O   0  0  0  0  0  0  0  0  0  0  0  0
  185.8740  177.6780  145.2400 C   0  0  0  0  0  2  0  0  0  0  0  0
  188.9100  177.8310  147.1310 N   0  0  0  0  0  0  0  0  0  0  0  0
  188.3230  177.1670  145.0700 N   0  0  0  0  0  0  0  0  0  0  0  0
  187.2750  177.6470  145.7680 C   0  0  0  0  0  0  0  0  0  0  0  0
  187.6120  178.0420  147.0080 N   0  0  0  0  0  2  0  0  0  0  0  0
  189.3240  177.3140  145.9600 C   0  0  0  0  0  0  0  0  0  0  0  0
  190.7260  176.8870  145.6980 C   0  0  0  0  0  2  0  0  0  0  0  0
  191.1260  177.2770  144.2900 C   0  0  0  0  0  2  0  0  0  0  0  0
  191.3820  178.7050  144.2380 N   0  0  0  0  0  1  0  0  0  0  0  0
  1 15  1  6  0  0  0
  1  4  1  0  0  0  0
  1 20  1  0  0  0  0
  2  4  2  0  0  0  0
  3  6  1  0  0  0  0
  3  2  2  0  0  0  0
  6  5  1  0  0  0  0
  7  6  2  0  0  0  0
  8  3  1  0  0  0  0
 10 13  1  0  0  0  0
 11 14  1  0  0  0  0
 11 12  1  0  0  0  0
 12  9  1  1  0  0  0
 12 13  1  0  0  0  0
 13  8  1  1  0  0  0
 14 10  1  0  0  0  0
 16 15  1  0  0  0  0
 17 16  1  0  0  0  0
 17 18  1  0  0  0  0
 19 17  2  0  0  0  0
 20 23  1  0  0  0  0
 22 23  2  0  0  0  0
 22 25  1  0  0  0  0
 23 24  1  0  0  0  0
 24 21  1  0  0  0  0
 25 21  2  0  0  0  0
 26 25  1  0  0  0  0
 27 26  1  0  0  0  0
 28 27  1  0  0  0  0
M  END
>  <MODEL>
9

>  <REMARK>
 VINA RESULT:      -6.6      2.967      7.843
  Name = 
  11 active torsions:
  status: ('A' for Active; 'I' for Inactive)
    1  A    between atoms: C_1  and  C_26
    2  A    between atoms: C_2  and  C_14
    3  A    between atoms: C_2  and  C_17
    4  A    between atoms: C_2  and  C_20
    5  A    between atoms: C_10  and  C_12
    6  A    between atoms: C_12  and  C_24
    7  A    between atoms: C_13  and  C_15
    8  A    between atoms: C_15  and  C_28
    9  A    between atoms: C_16  and  C_20
   10  A    between atoms: C_17  and  C_26
   11  A    between atoms: C_22  and  C_24
                            x       y       z     vdW  Elec       q    Type
                         _______ _______ _______ _____ _____    ______ ____

>  <TORSDO>
F 11

$$$$
