=
 OpenBabel11062414253D

 50 56  0  0  1  0  0  0  0  0999 V2000
  184.5790  177.0930  137.3410 N   0  0  0  0  0  0  0  0  0  0  0  0
  184.0790  178.3040  137.9250 C   0  0  0  0  0  3  0  0  0  0  0  0
  182.7700  178.4940  138.1000 C   0  0  0  0  0  0  0  0  0  0  0  0
  181.8070  177.4820  137.5310 C   0  0  0  0  0  2  0  0  0  0  0  0
  182.3840  176.0690  137.5810 C   0  0  0  0  0  2  0  0  0  0  0  0
  183.8220  176.0490  137.1380 C   0  0  0  0  0  0  0  0  0  0  0  0
  184.3710  174.8500  136.6760 O   0  0  0  0  0  0  0  0  0  0  0  0
  185.0450  173.9470  137.5470 C   0  0  0  0  0  2  0  0  0  0  0  0
  186.3530  173.5000  136.8980 C   0  0  0  0  0  2  0  0  0  0  0  0
  186.9430  174.5530  135.9620 C   0  0  0  0  0  2  0  0  0  0  0  0
  187.7470  175.5900  136.6740 C   0  0  0  0  0  0  0  0  0  0  0  0
  188.7540  175.2290  137.3440 O   0  0  0  0  0  0  0  0  0  0  0  0
  187.4080  176.9800  136.5630 N   0  0  0  0  0  2  0  0  0  0  0  0
  189.9930  177.5710  138.6340 C   0  0  0  0  0  0  0  0  0  0  0  0
  191.2400  177.2170  139.1460 C   0  0  0  0  0  3  0  0  0  0  0  0
  188.8980  177.6850  139.4420 C   0  0  0  0  0  0  0  0  0  0  0  0
  190.2110  177.0930  141.3610 C   0  0  0  0  0  0  0  0  0  0  0  0
  189.6300  177.8440  137.2230 C   0  0  0  0  0  2  0  0  0  0  0  0
  187.7550  179.2860  136.7670 O   0  0  0  0  0  1  0  0  0  0  0  0
  187.7300  177.9910  138.7100 N   0  0  0  0  0  2  0  0  0  0  0  0
  188.9660  177.4480  140.8170 C   0  0  0  0  0  3  0  0  0  0  0  0
  188.0980  178.0430  137.2940 C   0  0  1  0  0  0  0  0  0  0  0  0
  191.3430  176.9730  140.5280 C   0  0  0  0  0  3  0  0  0  0  0  0
  190.3190  176.6340  143.0820 S   0  0  0  0  0  0  0  0  0  0  0  0
  188.9950  177.7540  143.6120 C   0  0  0  0  0  2  0  0  0  0  0  0
  188.2010  177.0270  144.6890 C   0  0  0  0  0  2  0  0  0  0  0  0
  186.2950  177.2270  146.1830 O   0  0  0  0  0  0  0  0  0  0  0  0
  187.1220  177.9320  145.2820 C   0  0  1  0  0  3  0  0  0  0  0  0
  187.2360  178.0990  146.7700 C   0  0  2  0  0  3  0  0  0  0  0  0
  188.2700  177.2460  147.4920 C   0  0  0  0  0  2  0  0  0  0  0  0
  189.0060  178.0860  148.5190 C   0  0  0  0  0  1  0  0  0  0  0  0
  182.3390  179.6290  138.9940 C   0  0  0  0  0  2  0  0  0  0  0  0
  179.7530  177.1690  141.1580 C   0  0  0  0  0  2  0  0  0  0  0  0
  181.2800  179.2790  140.0650 C   0  0  2  0  0  0  0  0  0  0  0  0
  179.9650  179.0230  139.4370 C   0  0  2  0  0  3  0  0  0  0  0  0
  180.5270  177.9830  141.9910 O   0  0  0  0  0  0  0  0  0  0  0  0
  180.1410  180.2050  140.3090 N   0  0  2  0  0  0  0  0  0  0  0  0
  179.0130  178.0490  140.1610 C   0  0  0  0  0  2  0  0  0  0  0  0
  181.6560  178.3080  141.2250 C   0  0  2  0  0  3  0  0  0  0  0  0
  178.9920  182.2670  139.8180 C   0  0  0  0  0  2  0  0  0  0  0  0
  178.9520  181.4470  138.5490 C   0  0  0  0  0  2  0  0  0  0  0  0
  180.1750  181.3880  139.4460 C   0  0  0  0  0  3  0  0  0  0  0  0
  182.8000  178.8460  142.0950 C   0  0  2  0  0  3  0  0  0  0  0  0
  184.6950  177.5560  142.8830 O   0  0  0  0  0  1  0  0  0  0  0  0
  185.1120  179.1150  141.1130 C   0  0  0  0  0  1  0  0  0  0  0  0
  184.1300  178.1590  141.7590 C   0  0  2  0  0  3  0  0  0  0  0  0
  182.5480  178.9500  143.6210 C   0  0  0  0  0  2  0  0  0  0  0  0
  184.3760  180.4600  144.0370 O   0  0  0  0  0  0  0  0  0  0  0  0
  183.8350  179.0430  145.7500 O   0  0  0  0  0  1  0  0  0  0  0  0
  183.6580  179.5150  144.4560 C   0  0  0  0  0  0  0  0  0  0  0  0
  1  2  1  0  0  0  0
  2  3  2  0  0  0  0
  3 32  1  0  0  0  0
  4  5  1  0  0  0  0
  4  3  1  0  0  0  0
  6  1  2  0  0  0  0
  6  5  1  0  0  0  0
  7  6  1  0  0  0  0
  7  8  1  0  0  0  0
  9  8  1  0  0  0  0
 10 11  1  0  0  0  0
 10  9  1  0  0  0  0
 11 12  2  0  0  0  0
 13 11  1  0  0  0  0
 13 22  1  0  0  0  0
 14 15  2  0  0  0  0
 14 16  1  0  0  0  0
 15 23  1  0  0  0  0
 16 21  2  0  0  0  0
 17 24  1  0  0  0  0
 18 22  1  0  0  0  0
 18 14  1  0  0  0  0
 20 16  1  0  0  0  0
 21 17  1  0  0  0  0
 22 19  1  6  0  0  0
 22 20  1  0  0  0  0
 23 17  2  0  0  0  0
 24 25  1  0  0  0  0
 25 26  1  0  0  0  0
 27 29  1  0  0  0  0
 28 26  1  1  0  0  0
 28 27  1  0  0  0  0
 28 29  1  0  0  0  0
 29 30  1  1  0  0  0
 30 31  1  0  0  0  0
 33 36  1  0  0  0  0
 34 32  1  6  0  0  0
 34 37  1  0  0  0  0
 34 39  1  0  0  0  0
 35 34  1  0  0  0  0
 35 38  1  1  0  0  0
 35 37  1  0  0  0  0
 37 42  1  6  0  0  0
 38 33  1  0  0  0  0
 39 36  1  0  0  0  0
 39 43  1  1  0  0  0
 41 42  1  0  0  0  0
 41 40  1  0  0  0  0
 42 40  1  0  0  0  0
 43 47  1  1  0  0  0
 46 45  1  1  0  0  0
 46 43  1  0  0  0  0
 46 44  1  0  0  0  0
 47 50  1  0  0  0  0
 48 50  2  0  0  0  0
 50 49  1  0  0  0  0
M  END
>  <MODEL>
1

>  <REMARK>
 VINA RESULT:      -7.2      0.000      0.000
  Name = 
  18 active torsions:
  status: ('A' for Active; 'I' for Inactive)
    1  A    between atoms: C_2  and  C_26
    2  A    between atoms: C_2  and  C_32
    3  A    between atoms: C_2  and  C_47
    4  A    between atoms: C_5  and  C_49
    5  A    between atoms: C_6  and  C_17
    6  A    between atoms: C_6  and  C_35
    7  A    between atoms: C_7  and  C_17
    8  A    between atoms: C_7  and  O_50
    9  A    between atoms: C_10  and  S_31
   10  A    between atoms: C_15  and  C_27
   11  A    between atoms: C_19  and  C_20
   12  A    between atoms: C_24  and  C_49
   13  A    between atoms: C_27  and  C_34
   14  A    between atoms: S_31  and  C_34
   15  A    between atoms: C_32  and  C_36
   16  A    between atoms: N_41  and  C_44
   17  A    between atoms: N_42  and  C_45
   18  A    between atoms: C_43  and  O_50
                            x       y       z     vdW  Elec       q    Type
                         _______ _______ _______ _____ _____    ______ ____

>  <TORSDO>
F 18

$$$$
=
 OpenBabel11062414253D

 50 56  0  0  1  0  0  0  0  0999 V2000
  188.4570  177.7450  141.2090 N   0  0  0  0  0  0  0  0  0  0  0  0
  187.5980  177.4240  142.3110 C   0  0  0  0  0  3  0  0  0  0  0  0
  187.8780  176.4080  143.1290 C   0  0  0  0  0  0  0  0  0  0  0  0
  189.0310  175.4970  142.7850 C   0  0  0  0  0  2  0  0  0  0  0  0
  190.1650  176.2600  142.1030 C   0  0  0  0  0  2  0  0  0  0  0  0
  189.6360  177.2070  141.0600 C   0  0  0  0  0  0  0  0  0  0  0  0
  190.4900  177.6320  140.0390 O   0  0  0  0  0  0  0  0  0  0  0  0
  191.3040  176.7190  139.3080 C   0  0  0  0  0  2  0  0  0  0  0  0
  190.4640  176.0440  138.2280 C   0  0  0  0  0  2  0  0  0  0  0  0
  189.7250  177.0420  137.3380 C   0  0  0  0  0  2  0  0  0  0  0  0
  188.6560  176.4120  136.5090 C   0  0  0  0  0  0  0  0  0  0  0  0
  188.7150  176.5180  135.2520 O   0  0  0  0  0  0  0  0  0  0  0  0
  187.6020  175.6590  137.1260 N   0  0  0  0  0  2  0  0  0  0  0  0
  184.4830  176.3100  136.0430 C   0  0  0  0  0  0  0  0  0  0  0  0
  183.4970  177.2200  135.6690 C   0  0  0  0  0  3  0  0  0  0  0  0
  184.2920  175.4380  137.0770 C   0  0  0  0  0  0  0  0  0  0  0  0
  182.0940  176.3190  137.4580 C   0  0  0  0  0  0  0  0  0  0  0  0
  185.8360  176.1400  135.4620 C   0  0  0  0  0  2  0  0  0  0  0  0
  186.9100  173.9910  135.6360 O   0  0  0  0  0  1  0  0  0  0  0  0
  185.4390  174.6510  137.3250 N   0  0  0  0  0  2  0  0  0  0  0  0
  183.1070  175.4150  137.8160 C   0  0  0  0  0  3  0  0  0  0  0  0
  186.4790  175.0810  136.3880 C   0  0  1  0  0  0  0  0  0  0  0  0
  182.2900  177.2220  136.3920 C   0  0  0  0  0  3  0  0  0  0  0  0
  180.6230  176.4330  138.4630 S   0  0  0  0  0  0  0  0  0  0  0  0
  181.5260  176.7680  140.0000 C   0  0  0  0  0  2  0  0  0  0  0  0
  181.8840  178.2480  139.9930 C   0  0  0  0  0  2  0  0  0  0  0  0
  184.0160  177.7230  141.0340 O   0  0  0  0  0  0  0  0  0  0  0  0
  182.8930  178.5750  141.0930 C   0  0  1  0  0  3  0  0  0  0  0  0
  184.2210  179.0380  140.5660 C   0  0  2  0  0  3  0  0  0  0  0  0
  184.4390  178.9650  139.0610 C   0  0  0  0  0  2  0  0  0  0  0  0
  185.8040  178.3730  138.7660 C   0  0  0  0  0  1  0  0  0  0  0  0
  187.1230  176.3230  144.4300 C   0  0  0  0  0  2  0  0  0  0  0  0
  187.8440  178.0070  148.1810 C   0  0  0  0  0  2  0  0  0  0  0  0
  187.4010  177.4560  145.4470 C   0  0  2  0  0  0  0  0  0  0  0  0
  186.2010  177.7290  146.2670 C   0  0  2  0  0  3  0  0  0  0  0  0
  188.7460  178.4650  147.2150 O   0  0  0  0  0  0  0  0  0  0  0  0
  186.6880  178.7550  145.3190 N   0  0  2  0  0  0  0  0  0  0  0  0
  186.4270  178.2700  147.6930 C   0  0  0  0  0  2  0  0  0  0  0  0
  188.7500  177.4690  146.2280 C   0  0  2  0  0  3  0  0  0  0  0  0
  185.0110  180.1080  144.2360 C   0  0  0  0  0  2  0  0  0  0  0  0
  184.3180  178.8340  144.6610 C   0  0  0  0  0  2  0  0  0  0  0  0
  185.7590  178.7850  144.1870 C   0  0  0  0  0  3  0  0  0  0  0  0
  189.9670  177.5900  145.3010 C   0  0  2  0  0  3  0  0  0  0  0  0
  191.8040  176.0160  145.1510 O   0  0  0  0  0  1  0  0  0  0  0  0
  190.9500  176.4710  147.3420 C   0  0  0  0  0  1  0  0  0  0  0  0
  191.2270  177.0030  145.9510 C   0  0  2  0  0  3  0  0  0  0  0  0
  190.2210  178.9640  144.6330 C   0  0  0  0  0  2  0  0  0  0  0  0
  192.4160  179.9520  144.6110 O   0  0  0  0  0  1  0  0  0  0  0  0
  191.9590  178.4870  142.9150 O   0  0  0  0  0  0  0  0  0  0  0  0
  191.5830  179.1940  144.0490 C   0  0  0  0  0  0  0  0  0  0  0  0
  1  2  1  0  0  0  0
  2  3  2  0  0  0  0
  3 32  1  0  0  0  0
  4  3  1  0  0  0  0
  5  4  1  0  0  0  0
  6  1  2  0  0  0  0
  6  5  1  0  0  0  0
  7  6  1  0  0  0  0
  8  7  1  0  0  0  0
  9  8  1  0  0  0  0
 10  9  1  0  0  0  0
 11 13  1  0  0  0  0
 11 10  1  0  0  0  0
 12 11  2  0  0  0  0
 14 16  1  0  0  0  0
 15 14  2  0  0  0  0
 15 23  1  0  0  0  0
 16 20  1  0  0  0  0
 16 21  2  0  0  0  0
 17 21  1  0  0  0  0
 17 24  1  0  0  0  0
 18 14  1  0  0  0  0
 18 22  1  0  0  0  0
 22 19  1  6  0  0  0
 22 13  1  0  0  0  0
 22 20  1  0  0  0  0
 23 17  2  0  0  0  0
 24 25  1  0  0  0  0
 26 25  1  0  0  0  0
 27 28  1  0  0  0  0
 28 26  1  6  0  0  0
 29 30  1  6  0  0  0
 29 27  1  0  0  0  0
 29 28  1  0  0  0  0
 31 30  1  0  0  0  0
 34 32  1  6  0  0  0
 34 39  1  0  0  0  0
 34 35  1  0  0  0  0
 35 38  1  1  0  0  0
 36 33  1  0  0  0  0
 37 42  1  6  0  0  0
 37 34  1  0  0  0  0
 37 35  1  0  0  0  0
 38 33  1  0  0  0  0
 39 43  1  6  0  0  0
 39 36  1  0  0  0  0
 40 41  1  0  0  0  0
 42 40  1  0  0  0  0
 42 41  1  0  0  0  0
 43 47  1  1  0  0  0
 43 46  1  0  0  0  0
 44 46  1  0  0  0  0
 46 45  1  1  0  0  0
 49 50  2  0  0  0  0
 50 48  1  0  0  0  0
 50 47  1  0  0  0  0
M  END
>  <MODEL>
2

>  <REMARK>
 VINA RESULT:      -7.1      2.965      7.639
  Name = 
  18 active torsions:
  status: ('A' for Active; 'I' for Inactive)
    1  A    between atoms: C_2  and  C_26
    2  A    between atoms: C_2  and  C_32
    3  A    between atoms: C_2  and  C_47
    4  A    between atoms: C_5  and  C_49
    5  A    between atoms: C_6  and  C_17
    6  A    between atoms: C_6  and  C_35
    7  A    between atoms: C_7  and  C_17
    8  A    between atoms: C_7  and  O_50
    9  A    between atoms: C_10  and  S_31
   10  A    between atoms: C_15  and  C_27
   11  A    between atoms: C_19  and  C_20
   12  A    between atoms: C_24  and  C_49
   13  A    between atoms: C_27  and  C_34
   14  A    between atoms: S_31  and  C_34
   15  A    between atoms: C_32  and  C_36
   16  A    between atoms: N_41  and  C_44
   17  A    between atoms: N_42  and  C_45
   18  A    between atoms: C_43  and  O_50
                            x       y       z     vdW  Elec       q    Type
                         _______ _______ _______ _____ _____    ______ ____

>  <TORSDO>
F 18

$$$$
=
 OpenBabel11062414253D

 50 56  0  0  1  0  0  0  0  0999 V2000
  185.0920  178.4890  141.3280 N   0  0  0  0  0  0  0  0  0  0  0  0
  184.6230  179.0520  140.0940 C   0  0  0  0  0  3  0  0  0  0  0  0
  183.3210  179.2410  139.8760 C   0  0  0  0  0  0  0  0  0  0  0  0
  182.3310  178.7080  140.8810 C   0  0  0  0  0  2  0  0  0  0  0  0
  182.8820  178.7820  142.3040 C   0  0  0  0  0  2  0  0  0  0  0  0
  184.3130  178.3190  142.3610 C   0  0  0  0  0  0  0  0  0  0  0  0
  184.8330  177.8780  143.5800 O   0  0  0  0  0  0  0  0  0  0  0  0
  185.5430  178.7480  144.4560 C   0  0  0  0  0  2  0  0  0  0  0  0
  186.4510  177.9230  145.3640 C   0  0  0  0  0  2  0  0  0  0  0  0
  187.2110  176.8320  144.6110 C   0  0  0  0  0  2  0  0  0  0  0  0
  188.3600  177.3580  143.8150 C   0  0  0  0  0  0  0  0  0  0  0  0
  189.1430  178.1920  144.3500 O   0  0  0  0  0  0  0  0  0  0  0  0
  188.5980  176.8900  142.4800 N   0  0  0  0  0  2  0  0  0  0  0  0
  189.1810  178.1020  139.3960 C   0  0  0  0  0  0  0  0  0  0  0  0
  188.7300  178.7270  138.2350 C   0  0  0  0  0  3  0  0  0  0  0  0
  189.7340  176.8530  139.3630 C   0  0  0  0  0  0  0  0  0  0  0  0
  189.4270  176.7430  136.9860 C   0  0  0  0  0  0  0  0  0  0  0  0
  189.1290  178.6130  140.7860 C   0  0  0  0  0  2  0  0  0  0  0  0
  190.7490  177.8080  142.3770 O   0  0  0  0  0  1  0  0  0  0  0  0
  190.0640  176.3870  140.6550 N   0  0  0  0  0  2  0  0  0  0  0  0
  189.8700  176.1360  138.1730 C   0  0  0  0  0  3  0  0  0  0  0  0
  189.6530  177.4150  141.6130 C   0  0  1  0  0  0  0  0  0  0  0  0
  188.8540  178.0310  137.0180 C   0  0  0  0  0  3  0  0  0  0  0  0
  189.4400  175.8110  135.4650 S   0  0  0  0  0  0  0  0  0  0  0  0
  187.6370  175.8350  135.2660 C   0  0  0  0  0  2  0  0  0  0  0  0
  187.1680  174.3870  135.2730 C   0  0  0  0  0  2  0  0  0  0  0  0
  186.3820  174.1170  137.5560 O   0  0  0  0  0  0  0  0  0  0  0  0
  187.3890  173.7430  136.6400 C   0  0  1  0  0  3  0  0  0  0  0  0
  186.2860  172.8060  137.0430 C   0  0  2  0  0  3  0  0  0  0  0  0
  185.0560  172.7490  136.1470 C   0  0  0  0  0  2  0  0  0  0  0  0
  183.8450  172.3320  136.9610 C   0  0  0  0  0  1  0  0  0  0  0  0
  182.9240  180.1140  138.7130 C   0  0  0  0  0  2  0  0  0  0  0  0
  180.6080  179.1490  135.3770 C   0  0  0  0  0  2  0  0  0  0  0  0
  181.6520  179.6800  137.9470 C   0  0  2  0  0  0  0  0  0  0  0  0
  181.0580  180.8280  137.2270 C   0  0  2  0  0  3  0  0  0  0  0  0
  180.4840  178.2010  136.3980 O   0  0  0  0  0  0  0  0  0  0  0  0
  180.3250  180.2150  138.3560 N   0  0  2  0  0  0  0  0  0  0  0  0
  180.2680  180.5220  135.9390 C   0  0  0  0  0  2  0  0  0  0  0  0
  181.6550  178.3370  137.1570 C   0  0  2  0  0  3  0  0  0  0  0  0
  179.1860  180.9110  140.3640 C   0  0  0  0  0  2  0  0  0  0  0  0
  179.2600  182.1310  139.4740 C   0  0  0  0  0  2  0  0  0  0  0  0
  180.4080  181.1390  139.4890 C   0  0  0  0  0  3  0  0  0  0  0  0
  181.8910  177.1210  138.0630 C   0  0  2  0  0  3  0  0  0  0  0  0
  183.6830  175.5480  138.4960 O   0  0  0  0  0  1  0  0  0  0  0  0
  183.9070  176.9290  136.5520 C   0  0  0  0  0  1  0  0  0  0  0  0
  182.9680  176.1930  137.4870 C   0  0  2  0  0  3  0  0  0  0  0  0
  180.6430  176.3520  138.5650 C   0  0  0  0  0  2  0  0  0  0  0  0
  180.7010  173.9570  138.3340 O   0  0  0  0  0  1  0  0  0  0  0  0
  179.4950  175.0880  136.7530 O   0  0  0  0  0  0  0  0  0  0  0  0
  180.3150  175.0630  137.8730 C   0  0  0  0  0  0  0  0  0  0  0  0
  1  6  2  0  0  0  0
  2  1  1  0  0  0  0
  3  2  2  0  0  0  0
  3  4  1  0  0  0  0
  4  5  1  0  0  0  0
  5  6  1  0  0  0  0
  6  7  1  0  0  0  0
  7  8  1  0  0  0  0
  8  9  1  0  0  0  0
 10  9  1  0  0  0  0
 11 12  2  0  0  0  0
 11 10  1  0  0  0  0
 13 11  1  0  0  0  0
 14 18  1  0  0  0  0
 15 14  2  0  0  0  0
 16 14  1  0  0  0  0
 16 20  1  0  0  0  0
 17 23  2  0  0  0  0
 17 21  1  0  0  0  0
 18 22  1  0  0  0  0
 20 22  1  0  0  0  0
 21 16  2  0  0  0  0
 22 19  1  1  0  0  0
 22 13  1  0  0  0  0
 23 15  1  0  0  0  0
 24 17  1  0  0  0  0
 25 26  1  0  0  0  0
 25 24  1  0  0  0  0
 28 26  1  6  0  0  0
 28 29  1  0  0  0  0
 28 27  1  0  0  0  0
 29 30  1  6  0  0  0
 29 27  1  0  0  0  0
 30 31  1  0  0  0  0
 32  3  1  0  0  0  0
 33 38  1  0  0  0  0
 33 36  1  0  0  0  0
 34 37  1  0  0  0  0
 34 32  1  1  0  0  0
 35 38  1  6  0  0  0
 35 34  1  0  0  0  0
 35 37  1  0  0  0  0
 36 39  1  0  0  0  0
 37 42  1  1  0  0  0
 39 34  1  0  0  0  0
 39 43  1  1  0  0  0
 41 42  1  0  0  0  0
 41 40  1  0  0  0  0
 42 40  1  0  0  0  0
 43 47  1  6  0  0  0
 46 45  1  1  0  0  0
 46 43  1  0  0  0  0
 46 44  1  0  0  0  0
 49 50  2  0  0  0  0
 50 48  1  0  0  0  0
 50 47  1  0  0  0  0
M  END
>  <MODEL>
3

>  <REMARK>
 VINA RESULT:      -7.1      2.457      6.525
  Name = 
  18 active torsions:
  status: ('A' for Active; 'I' for Inactive)
    1  A    between atoms: C_2  and  C_26
    2  A    between atoms: C_2  and  C_32
    3  A    between atoms: C_2  and  C_47
    4  A    between atoms: C_5  and  C_49
    5  A    between atoms: C_6  and  C_17
    6  A    between atoms: C_6  and  C_35
    7  A    between atoms: C_7  and  C_17
    8  A    between atoms: C_7  and  O_50
    9  A    between atoms: C_10  and  S_31
   10  A    between atoms: C_15  and  C_27
   11  A    between atoms: C_19  and  C_20
   12  A    between atoms: C_24  and  C_49
   13  A    between atoms: C_27  and  C_34
   14  A    between atoms: S_31  and  C_34
   15  A    between atoms: C_32  and  C_36
   16  A    between atoms: N_41  and  C_44
   17  A    between atoms: N_42  and  C_45
   18  A    between atoms: C_43  and  O_50
                            x       y       z     vdW  Elec       q    Type
                         _______ _______ _______ _____ _____    ______ ____

>  <TORSDO>
F 18

$$$$
=
 OpenBabel11062414253D

 50 56  0  0  1  0  0  0  0  0999 V2000
  185.0850  178.6030  143.6570 N   0  0  0  0  0  0  0  0  0  0  0  0
  186.3280  177.9410  143.3840 C   0  0  0  0  0  3  0  0  0  0  0  0
  187.2030  177.6900  144.3590 C   0  0  0  0  0  0  0  0  0  0  0  0
  186.9390  178.2540  145.7340 C   0  0  0  0  0  2  0  0  0  0  0  0
  185.4450  178.2970  146.0440 C   0  0  0  0  0  2  0  0  0  0  0  0
  184.6570  178.8140  144.8710 C   0  0  0  0  0  0  0  0  0  0  0  0
  183.3890  179.3560  145.0950 O   0  0  0  0  0  0  0  0  0  0  0  0
  182.5220  179.7140  144.0220 C   0  0  0  0  0  2  0  0  0  0  0  0
  181.7140  178.4920  143.5950 C   0  0  0  0  0  2  0  0  0  0  0  0
  180.3910  178.8580  142.9250 C   0  0  0  0  0  2  0  0  0  0  0  0
  180.0920  178.0300  141.7200 C   0  0  0  0  0  0  0  0  0  0  0  0
  179.1530  177.1870  141.7760 O   0  0  0  0  0  0  0  0  0  0  0  0
  180.8290  178.2180  140.5030 N   0  0  0  0  0  2  0  0  0  0  0  0
  182.4120  176.0530  138.4720 C   0  0  0  0  0  0  0  0  0  0  0  0
  183.4150  175.1110  138.2510 C   0  0  0  0  0  3  0  0  0  0  0  0
  182.3350  177.1970  137.7290 C   0  0  0  0  0  0  0  0  0  0  0  0
  184.2750  176.5530  136.4740 C   0  0  0  0  0  0  0  0  0  0  0  0
  181.3350  176.0190  139.4900 C   0  0  0  0  0  2  0  0  0  0  0  0
  179.2900  177.2140  139.0530 O   0  0  0  0  0  1  0  0  0  0  0  0
  181.2840  178.0370  138.1600 N   0  0  0  0  0  2  0  0  0  0  0  0
  183.2550  177.4870  136.7200 C   0  0  0  0  0  3  0  0  0  0  0  0
  180.6470  177.3920  139.3100 C   0  0  1  0  0  0  0  0  0  0  0  0
  184.3580  175.3720  137.2400 C   0  0  0  0  0  3  0  0  0  0  0  0
  185.5600  176.9450  135.3000 S   0  0  0  0  0  0  0  0  0  0  0  0
  186.5390  177.9160  136.4790 C   0  0  0  0  0  2  0  0  0  0  0  0
  187.9920  177.8300  136.0310 C   0  0  0  0  0  2  0  0  0  0  0  0
  188.6900  176.0520  137.5330 O   0  0  0  0  0  0  0  0  0  0  0  0
  188.8990  177.4040  137.1830 C   0  0  1  0  0  3  0  0  0  0  0  0
  189.8710  176.3220  136.8090 C   0  0  2  0  0  3  0  0  0  0  0  0
  189.7210  175.6950  135.4290 C   0  0  0  0  0  2  0  0  0  0  0  0
  190.9530  175.9880  134.5940 C   0  0  0  0  0  1  0  0  0  0  0  0
  188.3240  176.7260  144.0670 C   0  0  0  0  0  2  0  0  0  0  0  0
  191.2470  179.6310  144.7310 C   0  0  0  0  0  2  0  0  0  0  0  0
  189.7500  177.3240  144.0860 C   0  0  2  0  0  0  0  0  0  0  0  0
  189.9110  178.3280  143.0110 C   0  0  2  0  0  3  0  0  0  0  0  0
  191.6130  178.3850  145.2510 O   0  0  0  0  0  0  0  0  0  0  0  0
  190.6770  177.0630  142.9510 N   0  0  2  0  0  0  0  0  0  0  0  0
  190.9190  179.4700  143.2540 C   0  0  0  0  0  2  0  0  0  0  0  0
  190.4010  177.7090  145.4490 C   0  0  2  0  0  3  0  0  0  0  0  0
  190.8520  176.4710  140.6200 C   0  0  0  0  0  2  0  0  0  0  0  0
  189.4840  177.0880  140.7990 C   0  0  0  0  0  2  0  0  0  0  0  0
  190.0750  176.2330  141.9050 C   0  0  0  0  0  3  0  0  0  0  0  0
  190.5670  176.5040  146.3840 C   0  0  2  0  0  3  0  0  0  0  0  0
  188.5890  175.9540  147.6740 O   0  0  0  0  0  1  0  0  0  0  0  0
  189.4950  178.1510  147.9720 C   0  0  0  0  0  1  0  0  0  0  0  0
  189.7740  176.6900  147.6850 C   0  0  2  0  0  3  0  0  0  0  0  0
  192.0050  175.9810  146.6270 C   0  0  0  0  0  2  0  0  0  0  0  0
  192.8380  174.8740  148.5950 O   0  0  0  0  0  0  0  0  0  0  0  0
  192.6290  177.1470  148.7370 O   0  0  0  0  0  1  0  0  0  0  0  0
  192.4860  175.9510  148.0470 C   0  0  0  0  0  0  0  0  0  0  0  0
  1  6  2  0  0  0  0
  2  1  1  0  0  0  0
  2  3  2  0  0  0  0
  3  4  1  0  0  0  0
  4  5  1  0  0  0  0
  6  7  1  0  0  0  0
  6  5  1  0  0  0  0
  8  7  1  0  0  0  0
  9  8  1  0  0  0  0
 10  9  1  0  0  0  0
 11 12  2  0  0  0  0
 11 10  1  0  0  0  0
 13 11  1  0  0  0  0
 14 18  1  0  0  0  0
 15 14  1  0  0  0  0
 16 20  1  0  0  0  0
 16 14  2  0  0  0  0
 17 21  2  0  0  0  0
 17 23  1  0  0  0  0
 20 22  1  0  0  0  0
 21 16  1  0  0  0  0
 22 19  1  6  0  0  0
 22 18  1  0  0  0  0
 22 13  1  0  0  0  0
 23 15  2  0  0  0  0
 24 17  1  0  0  0  0
 24 25  1  0  0  0  0
 26 25  1  0  0  0  0
 28 26  1  6  0  0  0
 28 27  1  0  0  0  0
 29 30  1  6  0  0  0
 29 28  1  0  0  0  0
 29 27  1  0  0  0  0
 31 30  1  0  0  0  0
 32  3  1  0  0  0  0
 33 36  1  0  0  0  0
 34 32  1  1  0  0  0
 34 39  1  0  0  0  0
 35 38  1  1  0  0  0
 35 34  1  0  0  0  0
 36 39  1  0  0  0  0
 37 42  1  6  0  0  0
 37 35  1  0  0  0  0
 37 34  1  0  0  0  0
 38 33  1  0  0  0  0
 39 43  1  1  0  0  0
 40 41  1  0  0  0  0
 40 42  1  0  0  0  0
 41 42  1  0  0  0  0
 43 47  1  1  0  0  0
 43 46  1  0  0  0  0
 44 46  1  0  0  0  0
 46 45  1  6  0  0  0
 47 50  1  0  0  0  0
 50 48  2  0  0  0  0
 50 49  1  0  0  0  0
M  END
>  <MODEL>
4

>  <REMARK>
 VINA RESULT:      -6.9      2.976      9.506
  Name = 
  18 active torsions:
  status: ('A' for Active; 'I' for Inactive)
    1  A    between atoms: C_2  and  C_26
    2  A    between atoms: C_2  and  C_32
    3  A    between atoms: C_2  and  C_47
    4  A    between atoms: C_5  and  C_49
    5  A    between atoms: C_6  and  C_17
    6  A    between atoms: C_6  and  C_35
    7  A    between atoms: C_7  and  C_17
    8  A    between atoms: C_7  and  O_50
    9  A    between atoms: C_10  and  S_31
   10  A    between atoms: C_15  and  C_27
   11  A    between atoms: C_19  and  C_20
   12  A    between atoms: C_24  and  C_49
   13  A    between atoms: C_27  and  C_34
   14  A    between atoms: S_31  and  C_34
   15  A    between atoms: C_32  and  C_36
   16  A    between atoms: N_41  and  C_44
   17  A    between atoms: N_42  and  C_45
   18  A    between atoms: C_43  and  O_50
                            x       y       z     vdW  Elec       q    Type
                         _______ _______ _______ _____ _____    ______ ____

>  <TORSDO>
F 18

$$$$
=
 OpenBabel11062414253D

 50 56  0  0  1  0  0  0  0  0999 V2000
  185.2970  178.5270  141.1770 N   0  0  0  0  0  0  0  0  0  0  0  0
  184.7480  179.1350  140.0000 C   0  0  0  0  0  3  0  0  0  0  0  0
  183.4320  179.3050  139.8630 C   0  0  0  0  0  0  0  0  0  0  0  0
  182.5110  178.7050  140.8960 C   0  0  0  0  0  2  0  0  0  0  0  0
  183.1400  178.7250  142.2870 C   0  0  0  0  0  2  0  0  0  0  0  0
  184.5810  178.2920  142.2420 C   0  0  0  0  0  0  0  0  0  0  0  0
  185.1770  177.8070  143.4090 O   0  0  0  0  0  0  0  0  0  0  0  0
  185.3340  178.6180  144.5690 C   0  0  0  0  0  2  0  0  0  0  0  0
  186.1400  177.8540  145.6170 C   0  0  0  0  0  2  0  0  0  0  0  0
  187.0880  176.8260  145.0030 C   0  0  0  0  0  2  0  0  0  0  0  0
  188.2420  177.4450  144.2850 C   0  0  0  0  0  0  0  0  0  0  0  0
  188.9560  178.2910  144.8910 O   0  0  0  0  0  0  0  0  0  0  0  0
  188.5610  177.0510  142.9420 N   0  0  0  0  0  2  0  0  0  0  0  0
  189.3390  178.0730  139.8320 C   0  0  0  0  0  0  0  0  0  0  0  0
  188.9490  178.5110  138.5680 C   0  0  0  0  0  3  0  0  0  0  0  0
  190.0790  176.9360  139.9940 C   0  0  0  0  0  0  0  0  0  0  0  0
  190.0980  176.5710  137.6230 C   0  0  0  0  0  0  0  0  0  0  0  0
  189.0310  178.6860  141.1460 C   0  0  0  0  0  2  0  0  0  0  0  0
  190.5400  178.3020  142.9850 O   0  0  0  0  0  1  0  0  0  0  0  0
  190.3090  176.6450  141.3570 N   0  0  0  0  0  2  0  0  0  0  0  0
  190.4750  176.1510  138.9100 C   0  0  0  0  0  3  0  0  0  0  0  0
  189.6240  177.6680  142.1490 C   0  0  1  0  0  0  0  0  0  0  0  0
  189.3330  177.7440  137.4540 C   0  0  0  0  0  3  0  0  0  0  0  0
  190.4500  175.5270  136.2200 S   0  0  0  0  0  0  0  0  0  0  0  0
  191.3680  174.2950  137.1850 C   0  0  0  0  0  2  0  0  0  0  0  0
  192.7420  174.1590  136.5440 C   0  0  0  0  0  2  0  0  0  0  0  0
  194.3100  175.7210  137.5460 O   0  0  0  0  0  0  0  0  0  0  0  0
  193.4430  175.5130  136.4530 C   0  0  1  0  0  3  0  0  0  0  0  0
  194.9350  175.4060  136.3210 C   0  0  2  0  0  3  0  0  0  0  0  0
  195.5500  174.0190  136.4590 C   0  0  0  0  0  2  0  0  0  0  0  0
  197.0460  174.0920  136.2160 C   0  0  0  0  0  1  0  0  0  0  0  0
  182.9520  180.2220  138.7670 C   0  0  0  0  0  2  0  0  0  0  0  0
  180.7350  179.2640  135.3630 C   0  0  0  0  0  2  0  0  0  0  0  0
  181.7220  179.7320  137.9670 C   0  0  2  0  0  0  0  0  0  0  0  0
  181.0420  180.8670  137.3070 C   0  0  2  0  0  3  0  0  0  0  0  0
  180.6820  178.2530  136.3280 O   0  0  0  0  0  0  0  0  0  0  0  0
  180.3550  180.1350  138.3940 N   0  0  2  0  0  0  0  0  0  0  0  0
  180.2830  180.5720  135.9970 C   0  0  0  0  0  2  0  0  0  0  0  0
  181.8360  178.4390  137.1040 C   0  0  2  0  0  3  0  0  0  0  0  0
  179.1920  180.5830  140.4580 C   0  0  0  0  0  2  0  0  0  0  0  0
  179.1060  181.8510  139.6390 C   0  0  0  0  0  2  0  0  0  0  0  0
  180.3600  180.9980  139.5770 C   0  0  0  0  0  3  0  0  0  0  0  0
  182.1650  177.1970  137.9430 C   0  0  2  0  0  3  0  0  0  0  0  0
  184.2330  177.4490  136.7040 O   0  0  0  0  0  1  0  0  0  0  0  0
  183.3640  175.2260  136.9120 C   0  0  0  0  0  1  0  0  0  0  0  0
  183.5180  176.5940  137.5440 C   0  0  2  0  0  3  0  0  0  0  0  0
  181.0550  176.1280  138.1010 C   0  0  0  0  0  2  0  0  0  0  0  0
  179.2910  177.1300  139.3970 O   0  0  0  0  0  0  0  0  0  0  0  0
  180.2770  175.2770  140.3080 O   0  0  0  0  0  1  0  0  0  0  0  0
  180.1730  176.2370  139.3100 C   0  0  0  0  0  0  0  0  0  0  0  0
  1  6  2  0  0  0  0
  2  1  1  0  0  0  0
  3  2  2  0  0  0  0
  3  4  1  0  0  0  0
  4  5  1  0  0  0  0
  6  5  1  0  0  0  0
  6  7  1  0  0  0  0
  7  8  1  0  0  0  0
  8  9  1  0  0  0  0
 10  9  1  0  0  0  0
 11 12  2  0  0  0  0
 11 10  1  0  0  0  0
 13 11  1  0  0  0  0
 14 16  1  0  0  0  0
 14 18  1  0  0  0  0
 15 14  2  0  0  0  0
 16 20  1  0  0  0  0
 17 21  1  0  0  0  0
 18 22  1  0  0  0  0
 20 22  1  0  0  0  0
 21 16  2  0  0  0  0
 22 13  1  0  0  0  0
 22 19  1  1  0  0  0
 23 17  2  0  0  0  0
 23 15  1  0  0  0  0
 24 25  1  0  0  0  0
 24 17  1  0  0  0  0
 26 25  1  0  0  0  0
 28 26  1  1  0  0  0
 28 27  1  0  0  0  0
 29 28  1  0  0  0  0
 29 30  1  1  0  0  0
 29 27  1  0  0  0  0
 31 30  1  0  0  0  0
 32  3  1  0  0  0  0
 33 38  1  0  0  0  0
 33 36  1  0  0  0  0
 34 37  1  0  0  0  0
 34 32  1  1  0  0  0
 35 38  1  6  0  0  0
 35 34  1  0  0  0  0
 35 37  1  0  0  0  0
 36 39  1  0  0  0  0
 37 42  1  1  0  0  0
 39 43  1  1  0  0  0
 39 34  1  0  0  0  0
 41 40  1  0  0  0  0
 42 41  1  0  0  0  0
 42 40  1  0  0  0  0
 43 47  1  6  0  0  0
 44 46  1  0  0  0  0
 46 45  1  6  0  0  0
 46 43  1  0  0  0  0
 47 50  1  0  0  0  0
 50 48  2  0  0  0  0
 50 49  1  0  0  0  0
M  END
>  <MODEL>
5

>  <REMARK>
 VINA RESULT:      -6.8      2.969      6.707
  Name = 
  18 active torsions:
  status: ('A' for Active; 'I' for Inactive)
    1  A    between atoms: C_2  and  C_26
    2  A    between atoms: C_2  and  C_32
    3  A    between atoms: C_2  and  C_47
    4  A    between atoms: C_5  and  C_49
    5  A    between atoms: C_6  and  C_17
    6  A    between atoms: C_6  and  C_35
    7  A    between atoms: C_7  and  C_17
    8  A    between atoms: C_7  and  O_50
    9  A    between atoms: C_10  and  S_31
   10  A    between atoms: C_15  and  C_27
   11  A    between atoms: C_19  and  C_20
   12  A    between atoms: C_24  and  C_49
   13  A    between atoms: C_27  and  C_34
   14  A    between atoms: S_31  and  C_34
   15  A    between atoms: C_32  and  C_36
   16  A    between atoms: N_41  and  C_44
   17  A    between atoms: N_42  and  C_45
   18  A    between atoms: C_43  and  O_50
                            x       y       z     vdW  Elec       q    Type
                         _______ _______ _______ _____ _____    ______ ____

>  <TORSDO>
F 18

$$$$
=
 OpenBabel11062414253D

 50 56  0  0  1  0  0  0  0  0999 V2000
  185.7060  176.3570  136.7420 N   0  0  0  0  0  0  0  0  0  0  0  0
  184.7320  177.2660  137.2750 C   0  0  0  0  0  3  0  0  0  0  0  0
  183.4830  176.8690  137.5220 C   0  0  0  0  0  0  0  0  0  0  0  0
  183.0600  175.4890  137.0850 C   0  0  0  0  0  2  0  0  0  0  0  0
  184.2100  174.4900  137.1910 C   0  0  0  0  0  2  0  0  0  0  0  0
  185.4910  175.0720  136.6580 C   0  0  0  0  0  0  0  0  0  0  0  0
  186.5060  174.2060  136.2430 O   0  0  0  0  0  0  0  0  0  0  0  0
  187.3640  173.5510  137.1720 C   0  0  0  0  0  2  0  0  0  0  0  0
  188.7330  173.3350  136.5320 C   0  0  0  0  0  2  0  0  0  0  0  0
  189.3060  174.6070  135.9110 C   0  0  0  0  0  2  0  0  0  0  0  0
  189.6010  175.6720  136.9160 C   0  0  0  0  0  0  0  0  0  0  0  0
  190.4350  175.4310  137.8330 O   0  0  0  0  0  0  0  0  0  0  0  0
  188.9830  176.9620  136.8150 N   0  0  0  0  0  2  0  0  0  0  0  0
  190.0940  177.5690  139.9330 C   0  0  0  0  0  0  0  0  0  0  0  0
  190.9010  177.2320  141.0170 C   0  0  0  0  0  3  0  0  0  0  0  0
  188.7350  177.6430  140.0520 C   0  0  0  0  0  0  0  0  0  0  0  0
  188.8740  177.0420  142.3710 C   0  0  0  0  0  0  0  0  0  0  0  0
  190.5110  177.8610  138.5400 C   0  0  0  0  0  2  0  0  0  0  0  0
  189.1070  179.2710  137.1830 O   0  0  0  0  0  1  0  0  0  0  0  0
  188.1110  177.9380  138.8200 N   0  0  0  0  0  2  0  0  0  0  0  0
  188.0840  177.3810  141.2590 C   0  0  0  0  0  3  0  0  0  0  0  0
  189.1610  178.0260  137.8040 C   0  0  1  0  0  0  0  0  0  0  0  0
  190.2770  176.9630  142.2490 C   0  0  0  0  0  3  0  0  0  0  0  0
  188.0830  176.5520  143.8940 S   0  0  0  0  0  0  0  0  0  0  0  0
  186.8130  177.8460  143.8180 C   0  0  0  0  0  2  0  0  0  0  0  0
  185.9180  177.6630  145.0360 C   0  0  0  0  0  2  0  0  0  0  0  0
  185.0750  178.7990  147.0110 O   0  0  0  0  0  0  0  0  0  0  0  0
  185.6910  178.9910  145.7560 C   0  0  1  0  0  3  0  0  0  0  0  0
  186.4510  179.1080  147.0460 C   0  0  2  0  0  3  0  0  0  0  0  0
  187.1900  177.8690  147.5350 C   0  0  0  0  0  2  0  0  0  0  0  0
  188.1430  178.2470  148.6540 C   0  0  0  0  0  1  0  0  0  0  0  0
  182.6140  177.7680  138.3640 C   0  0  0  0  0  2  0  0  0  0  0  0
  179.2190  176.9350  136.0830 C   0  0  0  0  0  2  0  0  0  0  0  0
  181.1480  177.9230  137.8940 C   0  0  2  0  0  0  0  0  0  0  0  0
  181.0910  178.5790  136.5690 C   0  0  2  0  0  3  0  0  0  0  0  0
  178.9320  177.0030  137.4510 O   0  0  0  0  0  0  0  0  0  0  0  0
  180.5550  179.2800  137.7570 N   0  0  2  0  0  0  0  0  0  0  0  0
  179.8960  178.2300  135.6590 C   0  0  0  0  0  2  0  0  0  0  0  0
  180.1540  176.7380  138.0860 C   0  0  2  0  0  3  0  0  0  0  0  0
  180.7250  181.4260  138.8450 C   0  0  0  0  0  2  0  0  0  0  0  0
  181.1280  181.6480  137.4040 C   0  0  0  0  0  2  0  0  0  0  0  0
  181.4970  180.3490  138.0980 C   0  0  0  0  0  3  0  0  0  0  0  0
  179.9600  176.3660  139.5620 C   0  0  2  0  0  3  0  0  0  0  0  0
  179.9420  174.3830  140.9570 O   0  0  0  0  0  1  0  0  0  0  0  0
  180.0800  174.0360  138.5900 C   0  0  0  0  0  1  0  0  0  0  0  0
  179.5490  174.8960  139.7200 C   0  0  2  0  0  3  0  0  0  0  0  0
  179.1090  177.3230  140.4330 C   0  0  0  0  0  2  0  0  0  0  0  0
  179.5150  177.7180  142.7730 O   0  0  0  0  0  1  0  0  0  0  0  0
  180.8430  178.8770  141.3150 O   0  0  0  0  0  0  0  0  0  0  0  0
  179.8030  177.9970  141.5800 C   0  0  0  0  0  0  0  0  0  0  0  0
  1  2  1  0  0  0  0
  2  3  2  0  0  0  0
  3 32  1  0  0  0  0
  4  5  1  0  0  0  0
  4  3  1  0  0  0  0
  6  1  2  0  0  0  0
  6  5  1  0  0  0  0
  7  6  1  0  0  0  0
  7  8  1  0  0  0  0
  9  8  1  0  0  0  0
 10  9  1  0  0  0  0
 10 11  1  0  0  0  0
 11 12  2  0  0  0  0
 13 11  1  0  0  0  0
 13 22  1  0  0  0  0
 14 16  2  0  0  0  0
 14 15  1  0  0  0  0
 15 23  2  0  0  0  0
 16 21  1  0  0  0  0
 17 24  1  0  0  0  0
 18 14  1  0  0  0  0
 20 16  1  0  0  0  0
 21 17  2  0  0  0  0
 22 19  1  6  0  0  0
 22 18  1  0  0  0  0
 22 20  1  0  0  0  0
 23 17  1  0  0  0  0
 25 24  1  0  0  0  0
 25 26  1  0  0  0  0
 27 29  1  0  0  0  0
 28 26  1  6  0  0  0
 28 27  1  0  0  0  0
 28 29  1  0  0  0  0
 29 30  1  6  0  0  0
 30 31  1  0  0  0  0
 33 36  1  0  0  0  0
 34 39  1  0  0  0  0
 34 32  1  1  0  0  0
 35 38  1  6  0  0  0
 35 37  1  0  0  0  0
 35 34  1  0  0  0  0
 36 39  1  0  0  0  0
 37 34  1  0  0  0  0
 37 42  1  1  0  0  0
 38 33  1  0  0  0  0
 39 43  1  1  0  0  0
 41 42  1  0  0  0  0
 41 40  1  0  0  0  0
 42 40  1  0  0  0  0
 43 46  1  0  0  0  0
 43 47  1  6  0  0  0
 46 45  1  6  0  0  0
 46 44  1  0  0  0  0
 47 50  1  0  0  0  0
 49 50  2  0  0  0  0
 50 48  1  0  0  0  0
M  END
>  <MODEL>
6

>  <REMARK>
 VINA RESULT:      -6.7      1.872      3.141
  Name = 
  18 active torsions:
  status: ('A' for Active; 'I' for Inactive)
    1  A    between atoms: C_2  and  C_26
    2  A    between atoms: C_2  and  C_32
    3  A    between atoms: C_2  and  C_47
    4  A    between atoms: C_5  and  C_49
    5  A    between atoms: C_6  and  C_17
    6  A    between atoms: C_6  and  C_35
    7  A    between atoms: C_7  and  C_17
    8  A    between atoms: C_7  and  O_50
    9  A    between atoms: C_10  and  S_31
   10  A    between atoms: C_15  and  C_27
   11  A    between atoms: C_19  and  C_20
   12  A    between atoms: C_24  and  C_49
   13  A    between atoms: C_27  and  C_34
   14  A    between atoms: S_31  and  C_34
   15  A    between atoms: C_32  and  C_36
   16  A    between atoms: N_41  and  C_44
   17  A    between atoms: N_42  and  C_45
   18  A    between atoms: C_43  and  O_50
                            x       y       z     vdW  Elec       q    Type
                         _______ _______ _______ _____ _____    ______ ____

>  <TORSDO>
F 18

$$$$
=
 OpenBabel11062414253D

 50 56  0  0  1  0  0  0  0  0999 V2000
  185.7470  178.6220  139.7920 N   0  0  0  0  0  0  0  0  0  0  0  0
  184.4720  179.1280  139.3710 C   0  0  0  0  0  3  0  0  0  0  0  0
  183.4080  179.0670  140.1740 C   0  0  0  0  0  0  0  0  0  0  0  0
  183.5230  178.3130  141.4760 C   0  0  0  0  0  2  0  0  0  0  0  0
  184.9220  178.4400  142.0750 C   0  0  0  0  0  2  0  0  0  0  0  0
  185.9850  178.2640  141.0240 C   0  0  0  0  0  0  0  0  0  0  0  0
  187.2710  177.8870  141.4200 O   0  0  0  0  0  0  0  0  0  0  0  0
  187.8290  178.3040  142.6630 C   0  0  0  0  0  2  0  0  0  0  0  0
  188.1890  177.0750  143.4940 C   0  0  0  0  0  2  0  0  0  0  0  0
  189.6600  176.6810  143.3680 C   0  0  0  0  0  2  0  0  0  0  0  0
  190.2740  177.1080  142.0750 C   0  0  0  0  0  0  0  0  0  0  0  0
  191.0480  178.1060  142.0670 O   0  0  0  0  0  0  0  0  0  0  0  0
  190.0250  176.3710  140.8700 N   0  0  0  0  0  2  0  0  0  0  0  0
  189.1220  177.8790  138.0010 C   0  0  0  0  0  0  0  0  0  0  0  0
  188.2970  178.7590  137.3030 C   0  0  0  0  0  3  0  0  0  0  0  0
  189.2030  176.5590  137.6610 C   0  0  0  0  0  0  0  0  0  0  0  0
  187.6260  176.8850  135.8830 C   0  0  0  0  0  0  0  0  0  0  0  0
  189.9820  178.1700  139.1720 C   0  0  0  0  0  2  0  0  0  0  0  0
  191.9180  176.7890  139.5580 O   0  0  0  0  0  1  0  0  0  0  0  0
  190.0470  175.8390  138.5350 N   0  0  0  0  0  2  0  0  0  0  0  0
  188.4630  176.0190  136.6070 C   0  0  0  0  0  3  0  0  0  0  0  0
  190.5260  176.7740  139.5560 C   0  0  1  0  0  0  0  0  0  0  0  0
  187.5390  178.2480  136.2330 C   0  0  0  0  0  3  0  0  0  0  0  0
  186.5490  176.2170  134.6260 S   0  0  0  0  0  0  0  0  0  0  0  0
  186.7660  174.4950  135.1520 C   0  0  0  0  0  2  0  0  0  0  0  0
  185.3820  173.9500  135.4770 C   0  0  0  0  0  2  0  0  0  0  0  0
  183.5680  174.2680  137.0620 O   0  0  0  0  0  0  0  0  0  0  0  0
  184.9700  174.3100  136.9030 C   0  0  1  0  0  3  0  0  0  0  0  0
  184.2800  173.1890  137.6260 C   0  0  2  0  0  3  0  0  0  0  0  0
  183.9420  171.9410  136.8200 C   0  0  0  0  0  2  0  0  0  0  0  0
  182.4700  171.9480  136.4520 C   0  0  0  0  0  1  0  0  0  0  0  0
  182.2010  179.8890  139.8030 C   0  0  0  0  0  2  0  0  0  0  0  0
  181.0430  177.3210  136.7230 C   0  0  0  0  0  2  0  0  0  0  0  0
  181.2340  179.2440  138.7820 C   0  0  2  0  0  0  0  0  0  0  0  0
  181.5310  179.7140  137.4110 C   0  0  2  0  0  3  0  0  0  0  0  0
  180.1460  177.2950  137.7960 O   0  0  0  0  0  0  0  0  0  0  0  0
  180.2530  180.0940  138.0540 N   0  0  2  0  0  0  0  0  0  0  0  0
  181.1990  178.7580  136.2480 C   0  0  0  0  0  2  0  0  0  0  0  0
  180.8960  177.7270  138.9000 C   0  0  2  0  0  3  0  0  0  0  0  0
  179.2270  182.2480  137.7020 C   0  0  0  0  0  2  0  0  0  0  0  0
  180.6490  182.3690  137.2030 C   0  0  0  0  0  2  0  0  0  0  0  0
  180.3480  181.5100  138.4170 C   0  0  0  0  0  3  0  0  0  0  0  0
  180.2110  177.3770  140.2270 C   0  0  2  0  0  3  0  0  0  0  0  0
  178.9370  175.6650  141.3770 O   0  0  0  0  0  1  0  0  0  0  0  0
  180.6760  174.9140  139.9110 C   0  0  0  0  0  1  0  0  0  0  0  0
  179.6200  175.9610  140.1970 C   0  0  2  0  0  3  0  0  0  0  0  0
  179.2350  178.4220  140.8230 C   0  0  0  0  0  2  0  0  0  0  0  0
  179.6500  178.2500  143.1880 O   0  0  0  0  0  1  0  0  0  0  0  0
  179.9200  180.3280  142.2720 O   0  0  0  0  0  0  0  0  0  0  0  0
  179.5820  178.9860  142.1700 C   0  0  0  0  0  0  0  0  0  0  0  0
  1  6  2  0  0  0  0
  2  1  1  0  0  0  0
  2  3  2  0  0  0  0
  3  4  1  0  0  0  0
  4  5  1  0  0  0  0
  6  7  1  0  0  0  0
  6  5  1  0  0  0  0
  7  8  1  0  0  0  0
  8  9  1  0  0  0  0
 10  9  1  0  0  0  0
 11 10  1  0  0  0  0
 12 11  2  0  0  0  0
 13 11  1  0  0  0  0
 14 18  1  0  0  0  0
 15 14  2  0  0  0  0
 16 14  1  0  0  0  0
 16 20  1  0  0  0  0
 17 23  2  0  0  0  0
 17 21  1  0  0  0  0
 18 22  1  0  0  0  0
 20 22  1  0  0  0  0
 21 16  2  0  0  0  0
 22 19  1  1  0  0  0
 22 13  1  0  0  0  0
 23 15  1  0  0  0  0
 24 25  1  0  0  0  0
 24 17  1  0  0  0  0
 25 26  1  0  0  0  0
 27 29  1  0  0  0  0
 28 26  1  6  0  0  0
 28 27  1  0  0  0  0
 28 29  1  0  0  0  0
 29 30  1  6  0  0  0
 31 30  1  0  0  0  0
 32  3  1  0  0  0  0
 33 36  1  0  0  0  0
 34 39  1  0  0  0  0
 34 32  1  1  0  0  0
 35 38  1  6  0  0  0
 35 37  1  0  0  0  0
 35 34  1  0  0  0  0
 36 39  1  0  0  0  0
 37 42  1  1  0  0  0
 37 34  1  0  0  0  0
 38 33  1  0  0  0  0
 39 43  1  1  0  0  0
 40 42  1  0  0  0  0
 41 40  1  0  0  0  0
 41 42  1  0  0  0  0
 43 47  1  6  0  0  0
 46 45  1  1  0  0  0
 46 43  1  0  0  0  0
 46 44  1  0  0  0  0
 47 50  1  0  0  0  0
 50 49  2  0  0  0  0
 50 48  1  0  0  0  0
M  END
>  <MODEL>
7

>  <REMARK>
 VINA RESULT:      -6.4      2.721      6.093
  Name = 
  18 active torsions:
  status: ('A' for Active; 'I' for Inactive)
    1  A    between atoms: C_2  and  C_26
    2  A    between atoms: C_2  and  C_32
    3  A    between atoms: C_2  and  C_47
    4  A    between atoms: C_5  and  C_49
    5  A    between atoms: C_6  and  C_17
    6  A    between atoms: C_6  and  C_35
    7  A    between atoms: C_7  and  C_17
    8  A    between atoms: C_7  and  O_50
    9  A    between atoms: C_10  and  S_31
   10  A    between atoms: C_15  and  C_27
   11  A    between atoms: C_19  and  C_20
   12  A    between atoms: C_24  and  C_49
   13  A    between atoms: C_27  and  C_34
   14  A    between atoms: S_31  and  C_34
   15  A    between atoms: C_32  and  C_36
   16  A    between atoms: N_41  and  C_44
   17  A    between atoms: N_42  and  C_45
   18  A    between atoms: C_43  and  O_50
                            x       y       z     vdW  Elec       q    Type
                         _______ _______ _______ _____ _____    ______ ____

>  <TORSDO>
F 18

$$$$
=
 OpenBabel11062414253D

 50 56  0  0  1  0  0  0  0  0999 V2000
  190.0680  176.4670  141.4800 N   0  0  0  0  0  0  0  0  0  0  0  0
  189.8560  176.8950  140.1270 C   0  0  0  0  0  3  0  0  0  0  0  0
  188.9050  177.7820  139.8270 C   0  0  0  0  0  0  0  0  0  0  0  0
  187.9460  178.2120  140.9100 C   0  0  0  0  0  2  0  0  0  0  0  0
  188.6280  178.2610  142.2760 C   0  0  0  0  0  2  0  0  0  0  0  0
  189.4960  177.0510  142.4970 C   0  0  0  0  0  0  0  0  0  0  0  0
  189.8180  176.6810  143.8050 O   0  0  0  0  0  0  0  0  0  0  0  0
  189.1220  177.2090  144.9310 C   0  0  0  0  0  2  0  0  0  0  0  0
  187.6770  176.7190  144.9090 C   0  0  0  0  0  2  0  0  0  0  0  0
  186.8460  177.2660  146.0680 C   0  0  0  0  0  2  0  0  0  0  0  0
  185.9430  178.3860  145.6670 C   0  0  0  0  0  0  0  0  0  0  0  0
  185.7460  179.3320  146.4790 O   0  0  0  0  0  0  0  0  0  0  0  0
  185.3460  178.4100  144.3620 N   0  0  0  0  0  2  0  0  0  0  0  0
  182.0940  178.9160  143.6600 C   0  0  0  0  0  0  0  0  0  0  0  0
  180.7530  178.5690  143.8140 C   0  0  0  0  0  3  0  0  0  0  0  0
  182.6940  178.9110  142.4330 C   0  0  0  0  0  0  0  0  0  0  0  0
  180.6480  178.2000  141.3990 C   0  0  0  0  0  0  0  0  0  0  0  0
  183.0640  179.3000  144.7120 C   0  0  0  0  0  2  0  0  0  0  0  0
  184.9310  180.7010  144.1110 O   0  0  0  0  0  1  0  0  0  0  0  0
  184.0670  179.2340  142.5130 N   0  0  0  0  0  2  0  0  0  0  0  0
  182.0030  178.5520  141.2730 C   0  0  0  0  0  3  0  0  0  0  0  0
  184.3910  179.4300  143.9280 C   0  0  1  0  0  0  0  0  0  0  0  0
  180.0280  178.2030  142.6650 C   0  0  0  0  0  3  0  0  0  0  0  0
  179.7630  177.5910  139.9740 S   0  0  0  0  0  0  0  0  0  0  0  0
  180.9900  178.1870  138.7780 C   0  0  0  0  0  2  0  0  0  0  0  0
  181.3050  177.0240  137.8470 C   0  0  0  0  0  2  0  0  0  0  0  0
  181.2210  174.6040  138.0350 O   0  0  0  0  0  0  0  0  0  0  0  0
  181.7140  175.7820  138.6350 C   0  0  1  0  0  3  0  0  0  0  0  0
  182.5990  174.8480  137.8610 C   0  0  2  0  0  3  0  0  0  0  0  0
  182.8300  175.1650  136.3890 C   0  0  0  0  0  2  0  0  0  0  0  0
  184.2640  175.6140  136.1780 C   0  0  0  0  0  1  0  0  0  0  0  0
  188.9440  178.4190  138.4620 C   0  0  0  0  0  2  0  0  0  0  0  0
  187.7190  177.4340  134.5950 C   0  0  0  0  0  2  0  0  0  0  0  0
  188.0630  177.7500  137.3800 C   0  0  2  0  0  0  0  0  0  0  0  0
  187.2140  178.7540  136.7030 C   0  0  2  0  0  3  0  0  0  0  0  0
  187.7890  176.3120  135.4280 O   0  0  0  0  0  0  0  0  0  0  0  0
  186.5850  177.7150  137.5480 N   0  0  2  0  0  0  0  0  0  0  0  0
  186.8110  178.4700  135.2420 C   0  0  0  0  0  2  0  0  0  0  0  0
  188.6880  176.6740  136.4410 C   0  0  2  0  0  3  0  0  0  0  0  0
  184.7410  177.8520  139.0960 C   0  0  0  0  0  2  0  0  0  0  0  0
  184.9260  179.2430  138.5330 C   0  0  0  0  0  2  0  0  0  0  0  0
  186.1380  178.3640  138.7830 C   0  0  0  0  0  3  0  0  0  0  0  0
  189.2050  175.4500  137.2090 C   0  0  2  0  0  3  0  0  0  0  0  0
  191.4970  175.1920  137.9530 O   0  0  0  0  0  1  0  0  0  0  0  0
  191.1710  176.0260  135.7310 C   0  0  0  0  0  1  0  0  0  0  0  0
  190.6590  175.1290  136.8390 C   0  0  2  0  0  3  0  0  0  0  0  0
  188.3010  174.1920  137.2370 C   0  0  0  0  0  2  0  0  0  0  0  0
  187.6780  173.1470  135.1590 O   0  0  0  0  0  0  0  0  0  0  0  0
  189.6090  172.3880  136.1240 O   0  0  0  0  0  1  0  0  0  0  0  0
  188.4820  173.2000  136.1260 C   0  0  0  0  0  0  0  0  0  0  0  0
  1  6  2  0  0  0  0
  2  1  1  0  0  0  0
  3  2  2  0  0  0  0
  3  4  1  0  0  0  0
  4  5  1  0  0  0  0
  5  6  1  0  0  0  0
  6  7  1  0  0  0  0
  7  8  1  0  0  0  0
  9  8  1  0  0  0  0
  9 10  1  0  0  0  0
 11 10  1  0  0  0  0
 11 12  2  0  0  0  0
 13 11  1  0  0  0  0
 14 15  1  0  0  0  0
 14 18  1  0  0  0  0
 16 20  1  0  0  0  0
 16 14  2  0  0  0  0
 17 23  1  0  0  0  0
 20 22  1  0  0  0  0
 21 17  2  0  0  0  0
 21 16  1  0  0  0  0
 22 19  1  1  0  0  0
 22 13  1  0  0  0  0
 22 18  1  0  0  0  0
 23 15  2  0  0  0  0
 24 17  1  0  0  0  0
 25 24  1  0  0  0  0
 26 25  1  0  0  0  0
 27 28  1  0  0  0  0
 28 26  1  6  0  0  0
 29 30  1  6  0  0  0
 29 27  1  0  0  0  0
 29 28  1  0  0  0  0
 31 30  1  0  0  0  0
 32  3  1  0  0  0  0
 33 38  1  0  0  0  0
 33 36  1  0  0  0  0
 34 37  1  0  0  0  0
 34 32  1  1  0  0  0
 35 38  1  6  0  0  0
 35 34  1  0  0  0  0
 35 37  1  0  0  0  0
 36 39  1  0  0  0  0
 37 42  1  1  0  0  0
 39 43  1  1  0  0  0
 39 34  1  0  0  0  0
 41 42  1  0  0  0  0
 41 40  1  0  0  0  0
 42 40  1  0  0  0  0
 43 47  1  6  0  0  0
 46 45  1  6  0  0  0
 46 43  1  0  0  0  0
 46 44  1  0  0  0  0
 48 50  2  0  0  0  0
 49 50  1  0  0  0  0
 50 47  1  0  0  0  0
M  END
>  <MODEL>
8

>  <REMARK>
 VINA RESULT:      -6.3      2.681      9.194
  Name = 
  18 active torsions:
  status: ('A' for Active; 'I' for Inactive)
    1  A    between atoms: C_2  and  C_26
    2  A    between atoms: C_2  and  C_32
    3  A    between atoms: C_2  and  C_47
    4  A    between atoms: C_5  and  C_49
    5  A    between atoms: C_6  and  C_17
    6  A    between atoms: C_6  and  C_35
    7  A    between atoms: C_7  and  C_17
    8  A    between atoms: C_7  and  O_50
    9  A    between atoms: C_10  and  S_31
   10  A    between atoms: C_15  and  C_27
   11  A    between atoms: C_19  and  C_20
   12  A    between atoms: C_24  and  C_49
   13  A    between atoms: C_27  and  C_34
   14  A    between atoms: S_31  and  C_34
   15  A    between atoms: C_32  and  C_36
   16  A    between atoms: N_41  and  C_44
   17  A    between atoms: N_42  and  C_45
   18  A    between atoms: C_43  and  O_50
                            x       y       z     vdW  Elec       q    Type
                         _______ _______ _______ _____ _____    ______ ____

>  <TORSDO>
F 18

$$$$
=
 OpenBabel11062414253D

 50 56  0  0  1  0  0  0  0  0999 V2000
  184.8940  174.2050  137.5080 N   0  0  0  0  0  0  0  0  0  0  0  0
  183.8380  175.1730  137.5570 C   0  0  0  0  0  3  0  0  0  0  0  0
  184.0970  176.4790  137.4780 C   0  0  0  0  0  0  0  0  0  0  0  0
  185.5350  176.9360  137.4940 C   0  0  0  0  0  2  0  0  0  0  0  0
  186.4490  175.9340  136.7920 C   0  0  0  0  0  2  0  0  0  0  0  0
  186.1200  174.5210  137.1890 C   0  0  0  0  0  0  0  0  0  0  0  0
  187.0950  173.5320  137.0380 O   0  0  0  0  0  0  0  0  0  0  0  0
  187.8530  173.3980  135.8400 C   0  0  0  0  0  2  0  0  0  0  0  0
  188.9780  174.4290  135.8340 C   0  0  0  0  0  2  0  0  0  0  0  0
  190.1150  174.0740  136.7900 C   0  0  0  0  0  2  0  0  0  0  0  0
  190.5240  175.2120  137.6660 C   0  0  0  0  0  0  0  0  0  0  0  0
  191.7490  175.3760  137.9220 O   0  0  0  0  0  0  0  0  0  0  0  0
  189.5450  176.1320  138.1720 N   0  0  0  0  0  2  0  0  0  0  0  0
  189.5890  176.9520  141.4350 C   0  0  0  0  0  0  0  0  0  0  0  0
  189.6610  176.5810  142.7760 C   0  0  0  0  0  3  0  0  0  0  0  0
  188.5160  177.6390  140.9420 C   0  0  0  0  0  0  0  0  0  0  0  0
  187.4810  177.6390  143.1070 C   0  0  0  0  0  0  0  0  0  0  0  0
  190.5690  176.6740  140.3570 C   0  0  0  0  0  2  0  0  0  0  0  0
  190.6660  178.1660  138.4680 O   0  0  0  0  0  1  0  0  0  0  0  0
  188.6210  177.8570  139.5510 N   0  0  0  0  0  2  0  0  0  0  0  0
  187.4350  177.9980  141.7490 C   0  0  0  0  0  3  0  0  0  0  0  0
  189.8590  177.2210  139.0970 C   0  0  1  0  0  0  0  0  0  0  0  0
  188.5880  176.9280  143.6170 C   0  0  0  0  0  3  0  0  0  0  0  0
  186.0610  177.9410  144.1450 S   0  0  0  0  0  0  0  0  0  0  0  0
  186.7840  177.1510  145.6100 C   0  0  0  0  0  2  0  0  0  0  0  0
  187.9380  178.0320  146.0680 C   0  0  0  0  0  2  0  0  0  0  0  0
  188.6600  176.4690  147.7820 O   0  0  0  0  0  0  0  0  0  0  0  0
  188.2540  177.8000  147.5440 C   0  0  1  0  0  3  0  0  0  0  0  0
  189.6890  177.4340  147.7960 C   0  0  2  0  0  3  0  0  0  0  0  0
  190.5710  177.1870  146.5790 C   0  0  0  0  0  2  0  0  0  0  0  0
  191.6730  176.2050  146.9320 C   0  0  0  0  0  1  0  0  0  0  0  0
  182.9410  177.4110  137.2180 C   0  0  0  0  0  2  0  0  0  0  0  0
  180.5410  175.4920  140.0430 C   0  0  0  0  0  2  0  0  0  0  0  0
  181.6720  177.1630  138.0670 C   0  0  2  0  0  0  0  0  0  0  0  0
  180.9440  175.9700  137.5830 C   0  0  2  0  0  3  0  0  0  0  0  0
  180.5530  176.8800  140.2170 O   0  0  0  0  0  0  0  0  0  0  0  0
  180.3270  177.3080  137.4460 N   0  0  2  0  0  0  0  0  0  0  0  0
  180.1140  175.1800  138.6160 C   0  0  0  0  0  2  0  0  0  0  0  0
  181.7470  177.3050  139.6170 C   0  0  2  0  0  3  0  0  0  0  0  0
  178.9910  177.5490  135.4530 C   0  0  0  0  0  2  0  0  0  0  0  0
  180.0380  176.5040  135.1380 C   0  0  0  0  0  2  0  0  0  0  0  0
  180.3920  177.6790  136.0310 C   0  0  0  0  0  3  0  0  0  0  0  0
  182.1360  178.7210  140.0610 C   0  0  2  0  0  3  0  0  0  0  0  0
  183.9630  177.6530  141.2430 O   0  0  0  0  0  1  0  0  0  0  0  0
  182.2270  178.6150  142.5840 C   0  0  0  0  0  1  0  0  0  0  0  0
  183.0340  178.6930  141.3050 C   0  0  2  0  0  3  0  0  0  0  0  0
  181.0020  179.7730  140.1640 C   0  0  0  0  0  2  0  0  0  0  0  0
  180.0140  181.6670  139.0560 O   0  0  0  0  0  1  0  0  0  0  0  0
  181.8290  180.7350  138.0220 O   0  0  0  0  0  0  0  0  0  0  0  0
  180.8900  180.7640  139.0440 C   0  0  0  0  0  0  0  0  0  0  0  0
  1  2  1  0  0  0  0
  3  4  1  0  0  0  0
  3  2  2  0  0  0  0
  5  6  1  0  0  0  0
  5  4  1  0  0  0  0
  6  1  2  0  0  0  0
  7  6  1  0  0  0  0
  8  7  1  0  0  0  0
  9  8  1  0  0  0  0
  9 10  1  0  0  0  0
 10 11  1  0  0  0  0
 11 12  2  0  0  0  0
 11 13  1  0  0  0  0
 13 22  1  0  0  0  0
 14 15  1  0  0  0  0
 15 23  2  0  0  0  0
 16 14  2  0  0  0  0
 16 21  1  0  0  0  0
 17 23  1  0  0  0  0
 17 24  1  0  0  0  0
 18 14  1  0  0  0  0
 20 16  1  0  0  0  0
 21 17  2  0  0  0  0
 22 19  1  6  0  0  0
 22 20  1  0  0  0  0
 22 18  1  0  0  0  0
 24 25  1  0  0  0  0
 25 26  1  0  0  0  0
 27 29  1  0  0  0  0
 28 26  1  6  0  0  0
 28 27  1  0  0  0  0
 28 29  1  0  0  0  0
 29 30  1  6  0  0  0
 30 31  1  0  0  0  0
 32  3  1  0  0  0  0
 33 36  1  0  0  0  0
 34 32  1  6  0  0  0
 34 39  1  0  0  0  0
 35 34  1  0  0  0  0
 35 38  1  1  0  0  0
 37 42  1  6  0  0  0
 37 35  1  0  0  0  0
 37 34  1  0  0  0  0
 38 33  1  0  0  0  0
 39 43  1  6  0  0  0
 39 36  1  0  0  0  0
 40 42  1  0  0  0  0
 41 40  1  0  0  0  0
 41 42  1  0  0  0  0
 43 47  1  1  0  0  0
 43 46  1  0  0  0  0
 44 46  1  0  0  0  0
 46 45  1  1  0  0  0
 49 50  2  0  0  0  0
 50 48  1  0  0  0  0
 50 47  1  0  0  0  0
M  END
>  <MODEL>
9

>  <REMARK>
 VINA RESULT:      -6.3      2.271      3.628
  Name = 
  18 active torsions:
  status: ('A' for Active; 'I' for Inactive)
    1  A    between atoms: C_2  and  C_26
    2  A    between atoms: C_2  and  C_32
    3  A    between atoms: C_2  and  C_47
    4  A    between atoms: C_5  and  C_49
    5  A    between atoms: C_6  and  C_17
    6  A    between atoms: C_6  and  C_35
    7  A    between atoms: C_7  and  C_17
    8  A    between atoms: C_7  and  O_50
    9  A    between atoms: C_10  and  S_31
   10  A    between atoms: C_15  and  C_27
   11  A    between atoms: C_19  and  C_20
   12  A    between atoms: C_24  and  C_49
   13  A    between atoms: C_27  and  C_34
   14  A    between atoms: S_31  and  C_34
   15  A    between atoms: C_32  and  C_36
   16  A    between atoms: N_41  and  C_44
   17  A    between atoms: N_42  and  C_45
   18  A    between atoms: C_43  and  O_50
                            x       y       z     vdW  Elec       q    Type
                         _______ _______ _______ _____ _____    ______ ____

>  <TORSDO>
F 18

$$$$
