=
 OpenBabel11062413033D

 38 43  0  0  1  0  0  0  0  0999 V2000
  180.7540  177.6190  138.7690 O   0  0  0  0  0  0  0  0  0  0  0  0
  179.1990  178.3940  136.5970 C   0  0  0  0  0  1  0  0  0  0  0  0
  188.9860  177.5840  140.4950 C   0  0  0  0  0  3  0  0  0  0  0  0
  187.9320  177.9250  141.2630 C   0  0  0  0  0  0  0  0  0  0  0  0
  187.0790  178.5360  134.8940 O   0  0  0  0  0  0  0  0  0  0  0  0
  184.2130  176.3850  138.1270 C   0  0  0  0  0  3  0  0  0  0  0  0
  188.7900  177.5460  139.0440 C   0  0  1  0  0  3  0  0  0  0  0  0
  183.1960  178.6360  140.7920 C   0  0  0  0  0  2  0  0  0  0  0  0
  183.0770  177.0270  138.8690 C   0  0  1  0  0  3  0  0  0  0  0  0
  181.9300  180.5890  139.1060 C   0  0  0  0  0  2  0  0  0  0  0  0
  187.4300  177.4190  138.4690 C   0  0  2  0  0  3  0  0  0  0  0  0
  183.4060  178.4620  139.2860 C   0  0  1  0  0  3  0  0  0  0  0  0
  184.7700  176.9380  137.0780 C   0  0  0  0  0  0  0  0  0  0  0  0
  181.5500  181.6510  138.0800 C   0  0  0  0  0  2  0  0  0  0  0  0
  188.9350  178.2410  136.9190 N   0  0  0  0  0  0  0  0  0  0  0  0
  189.6260  178.0320  138.1460 C   0  0  0  0  0  2  0  0  0  0  0  0
  185.5940  179.0710  141.4100 C   0  0  0  0  0  2  0  0  0  0  0  0
  186.6650  178.3950  140.6140 C   0  0  0  0  0  0  0  0  0  0  0  0
  180.3690  181.2260  137.2150 C   0  0  0  0  0  2  0  0  0  0  0  0
  186.7060  178.0160  135.9790 C   0  0  0  0  0  0  0  0  0  0  0  0
  181.8080  177.0500  138.0190 C   0  0  2  0  0  3  0  0  0  0  0  0
  185.3200  177.5060  136.0370 C   0  0  0  0  0  3  0  0  0  0  0  0
  180.6700  178.7860  136.5510 C   0  0  1  0  0  3  0  0  0  0  0  0
  180.8140  180.2510  136.1280 C   0  0  0  0  0  2  0  0  0  0  0  0
  187.6850  177.9440  137.0930 C   0  0  0  0  0  0  0  0  0  0  0  0
  186.4840  178.2510  139.2900 C   0  0  0  0  0  3  0  0  0  0  0  0
  182.5090  179.3510  138.4240 C   0  0  1  0  0  3  0  0  0  0  0  0
  181.4150  178.4620  137.8570 C   0  0  1  0  0  0  0  0  0  0  0  0
  184.3980  178.1420  141.5880 C   0  0  0  0  0  2  0  0  0  0  0  0
  188.0750  178.0050  142.7600 C   0  0  1  0  0  3  0  0  0  0  0  0
  187.5210  176.7820  143.4800 C   0  0  0  0  0  1  0  0  0  0  0  0
  189.4960  178.3530  143.2030 C   0  0  0  0  0  2  0  0  0  0  0  0
  189.8400  177.7810  144.5720 C   0  0  0  0  0  2  0  0  0  0  0  0
  191.2590  177.2400  144.5820 C   0  0  1  0  0  3  0  0  0  0  0  0
  191.7000  177.1340  145.9010 O   0  0  0  0  0  1  0  0  0  0  0  0
  192.0580  175.0290  144.3490 O   0  0  0  0  0  0  0  0  0  0  0  0
  191.3190  175.8980  143.9120 C   0  0  0  0  0  0  0  0  0  0  0  0
  190.5390  175.6300  142.8320 F   0  0  0  0  0  0  0  0  0  0  0  0
  3  4  2  0  0  0  0
  4 30  1  0  0  0  0
  5 20  2  0  0  0  0
  7 16  1  6  0  0  0
  7  3  1  0  0  0  0
  8 29  1  0  0  0  0
  9  6  1  6  0  0  0
  9 12  1  0  0  0  0
 11  7  1  0  0  0  0
 11 26  1  1  0  0  0
 12  8  1  1  0  0  0
 13  6  2  0  0  0  0
 14 10  1  0  0  0  0
 15 25  2  0  0  0  0
 15 16  1  0  0  0  0
 17 29  1  0  0  0  0
 18  4  1  0  0  0  0
 18 17  1  0  0  0  0
 19 14  1  0  0  0  0
 20 22  1  0  0  0  0
 20 25  1  0  0  0  0
 21  1  1  1  0  0  0
 21  9  1  0  0  0  0
 22 13  2  0  0  0  0
 23  2  1  1  0  0  0
 23 28  1  0  0  0  0
 24 23  1  0  0  0  0
 24 19  1  0  0  0  0
 25 11  1  0  0  0  0
 26 18  2  0  0  0  0
 27 10  1  1  0  0  0
 27 12  1  0  0  0  0
 28 21  1  0  0  0  0
 28 27  1  0  0  0  0
 28  1  1  1  0  0  0
 30 32  1  0  0  0  0
 30 31  1  1  0  0  0
 32 33  1  0  0  0  0
 33 34  1  0  0  0  0
 34 35  1  1  0  0  0
 37 36  2  0  0  0  0
 37 34  1  0  0  0  0
 38 37  1  0  0  0  0
M  END
>  <MODEL>
1

>  <REMARK>
 VINA RESULT:      -8.2      0.000      0.000
  Name = 
  5 active torsions:
  status: ('A' for Active; 'I' for Inactive)
    1  A    between atoms: C_4  and  C_6
    2  A    between atoms: C_6  and  C_28
    3  A    between atoms: C_11  and  C_22
    4  A    between atoms: C_11  and  C_24
    5  A    between atoms: C_24  and  C_28
                            x       y       z     vdW  Elec       q    Type
                         _______ _______ _______ _____ _____    ______ ____

>  <TORSDO>
F 5

$$$$
=
 OpenBabel11062413033D

 38 43  0  0  1  0  0  0  0  0999 V2000
  179.6590  178.0430  138.9450 O   0  0  0  0  0  0  0  0  0  0  0  0
  179.0810  178.6470  136.2910 C   0  0  0  0  0  1  0  0  0  0  0  0
  186.5630  178.2840  143.7430 C   0  0  0  0  0  3  0  0  0  0  0  0
  185.2950  178.6520  144.0140 C   0  0  0  0  0  0  0  0  0  0  0  0
  187.0010  178.8350  137.7910 O   0  0  0  0  0  0  0  0  0  0  0  0
  183.0860  176.8400  139.7860 C   0  0  0  0  0  3  0  0  0  0  0  0
  186.9490  178.1480  142.3350 C   0  0  1  0  0  3  0  0  0  0  0  0
  181.1240  179.2370  141.6860 C   0  0  0  0  0  2  0  0  0  0  0  0
  181.7540  177.5060  139.9810 C   0  0  1  0  0  3  0  0  0  0  0  0
  180.6310  181.0510  139.5140 C   0  0  0  0  0  2  0  0  0  0  0  0
  185.9210  177.9580  141.2860 C   0  0  2  0  0  3  0  0  0  0  0  0
  181.9040  178.9710  140.3970 C   0  0  1  0  0  3  0  0  0  0  0  0
  184.0120  177.3360  139.0030 C   0  0  0  0  0  0  0  0  0  0  0  0
  180.6880  182.0380  138.3520 C   0  0  0  0  0  2  0  0  0  0  0  0
  187.9170  178.7080  140.3950 N   0  0  0  0  0  0  0  0  0  0  0  0
  188.0730  178.5920  141.8050 C   0  0  0  0  0  2  0  0  0  0  0  0
  183.0940  179.7580  143.1610 C   0  0  0  0  0  2  0  0  0  0  0  0
  184.3850  179.0540  142.8920 C   0  0  0  0  0  0  0  0  0  0  0  0
  179.9360  181.5350  137.1250 C   0  0  0  0  0  2  0  0  0  0  0  0
  186.2310  178.3790  138.6770 C   0  0  0  0  0  0  0  0  0  0  0  0
  180.9190  177.4490  138.7040 C   0  0  2  0  0  3  0  0  0  0  0  0
  184.9280  177.8460  138.2240 C   0  0  0  0  0  3  0  0  0  0  0  0
  180.4560  179.0640  136.7960 C   0  0  1  0  0  3  0  0  0  0  0  0
  180.7630  180.5010  136.3660 C   0  0  0  0  0  2  0  0  0  0  0  0
  186.6960  178.3980  140.0860 C   0  0  0  0  0  0  0  0  0  0  0  0
  184.7350  178.8210  141.6150 C   0  0  0  0  0  3  0  0  0  0  0  0
  181.4210  179.7840  139.1950 C   0  0  1  0  0  3  0  0  0  0  0  0
  180.6300  178.8400  138.3080 C   0  0  1  0  0  0  0  0  0  0  0  0
  181.9170  178.8190  142.9190 C   0  0  0  0  0  2  0  0  0  0  0  0
  184.8430  178.8310  145.4390 C   0  0  1  0  0  3  0  0  0  0  0  0
  184.0820  177.6280  145.9810 C   0  0  0  0  0  1  0  0  0  0  0  0
  185.9720  179.2790  146.3680 C   0  0  0  0  0  2  0  0  0  0  0  0
  186.4630  178.1580  147.2750 C   0  0  0  0  0  2  0  0  0  0  0  0
  187.8960  178.4150  147.7090 C   0  0  1  0  0  3  0  0  0  0  0  0
  188.0650  177.9660  149.0190 O   0  0  0  0  0  1  0  0  0  0  0  0
  189.2670  176.5970  147.0830 O   0  0  0  0  0  0  0  0  0  0  0  0
  188.8600  177.7130  146.7990 C   0  0  0  0  0  0  0  0  0  0  0  0
  189.2710  178.2990  145.6430 F   0  0  0  0  0  0  0  0  0  0  0  0
  3  4  2  0  0  0  0
  4 30  1  0  0  0  0
  5 20  2  0  0  0  0
  7 16  1  6  0  0  0
  7  3  1  0  0  0  0
  8 29  1  0  0  0  0
  9  6  1  6  0  0  0
  9 12  1  0  0  0  0
 11 26  1  1  0  0  0
 11  7  1  0  0  0  0
 12  8  1  1  0  0  0
 13  6  2  0  0  0  0
 14 10  1  0  0  0  0
 15 16  1  0  0  0  0
 18 17  1  0  0  0  0
 18  4  1  0  0  0  0
 19 14  1  0  0  0  0
 20 25  1  0  0  0  0
 21  1  1  1  0  0  0
 21  9  1  0  0  0  0
 22 20  1  0  0  0  0
 22 13  2  0  0  0  0
 23  2  1  1  0  0  0
 23 28  1  0  0  0  0
 24 23  1  0  0  0  0
 24 19  1  0  0  0  0
 25 15  2  0  0  0  0
 25 11  1  0  0  0  0
 26 18  2  0  0  0  0
 27 10  1  1  0  0  0
 27 12  1  0  0  0  0
 28 21  1  0  0  0  0
 28  1  1  1  0  0  0
 28 27  1  0  0  0  0
 29 17  1  0  0  0  0
 30 31  1  1  0  0  0
 30 32  1  0  0  0  0
 32 33  1  0  0  0  0
 33 34  1  0  0  0  0
 34 35  1  1  0  0  0
 37 36  2  0  0  0  0
 37 34  1  0  0  0  0
 38 37  1  0  0  0  0
M  END
>  <MODEL>
2

>  <REMARK>
 VINA RESULT:      -7.5      2.360      3.093
  Name = 
  5 active torsions:
  status: ('A' for Active; 'I' for Inactive)
    1  A    between atoms: C_4  and  C_6
    2  A    between atoms: C_6  and  C_28
    3  A    between atoms: C_11  and  C_22
    4  A    between atoms: C_11  and  C_24
    5  A    between atoms: C_24  and  C_28
                            x       y       z     vdW  Elec       q    Type
                         _______ _______ _______ _____ _____    ______ ____

>  <TORSDO>
F 5

$$$$
=
 OpenBabel11062413033D

 38 43  0  0  1  0  0  0  0  0999 V2000
  180.7640  177.6390  138.5010 O   0  0  0  0  0  0  0  0  0  0  0  0
  179.4470  178.4890  136.2030 C   0  0  0  0  0  1  0  0  0  0  0  0
  188.7420  177.6940  141.1640 C   0  0  0  0  0  3  0  0  0  0  0  0
  187.5980  177.9740  141.8200 C   0  0  0  0  0  0  0  0  0  0  0  0
  187.4630  178.8830  135.4310 O   0  0  0  0  0  0  0  0  0  0  0  0
  184.3050  176.5130  138.2060 C   0  0  0  0  0  3  0  0  0  0  0  0
  188.7140  177.7240  139.6990 C   0  0  1  0  0  3  0  0  0  0  0  0
  182.9290  178.6070  140.8380 C   0  0  0  0  0  2  0  0  0  0  0  0
  183.0740  177.0930  138.8410 C   0  0  1  0  0  3  0  0  0  0  0  0
  181.8130  180.6130  139.1110 C   0  0  0  0  0  2  0  0  0  0  0  0
  187.4330  177.5970  138.9660 C   0  0  2  0  0  3  0  0  0  0  0  0
  183.3150  178.5120  139.3610 C   0  0  1  0  0  3  0  0  0  0  0  0
  184.9640  177.1290  137.2550 C   0  0  0  0  0  0  0  0  0  0  0  0
  181.5240  181.7170  138.0990 C   0  0  0  0  0  2  0  0  0  0  0  0
  189.0830  178.5270  137.6410 N   0  0  0  0  0  0  0  0  0  0  0  0
  189.6350  178.2710  138.9290 C   0  0  0  0  0  2  0  0  0  0  0  0
  185.2290  179.0600  141.7500 C   0  0  0  0  0  2  0  0  0  0  0  0
  186.4010  178.4480  141.0520 C   0  0  0  0  0  0  0  0  0  0  0  0
  180.4620  181.3110  137.0840 C   0  0  0  0  0  2  0  0  0  0  0  0
  186.9830  178.3010  136.4400 C   0  0  0  0  0  0  0  0  0  0  0  0
  181.9110  177.1320  137.8510 C   0  0  2  0  0  3  0  0  0  0  0  0
  185.6130  177.7600  136.3130 C   0  0  0  0  0  3  0  0  0  0  0  0
  180.9030  178.9140  136.3450 C   0  0  1  0  0  3  0  0  0  0  0  0
  181.0540  180.4000  136.0110 C   0  0  0  0  0  2  0  0  0  0  0  0
  187.8290  178.1940  137.6550 C   0  0  0  0  0  0  0  0  0  0  0  0
  186.3780  178.3660  139.7100 C   0  0  0  0  0  3  0  0  0  0  0  0
  182.4990  179.4240  138.4430 C   0  0  1  0  0  3  0  0  0  0  0  0
  181.5020  178.5410  137.7120 C   0  0  1  0  0  0  0  0  0  0  0  0
  184.0450  178.0980  141.7430 C   0  0  0  0  0  2  0  0  0  0  0  0
  187.5670  177.9820  143.3260 C   0  0  1  0  0  3  0  0  0  0  0  0
  186.6560  176.9100  143.9110 C   0  0  0  0  0  1  0  0  0  0  0  0
  188.9630  177.9700  143.9480 C   0  0  0  0  0  2  0  0  0  0  0  0
  189.0370  177.1090  145.2030 C   0  0  0  0  0  2  0  0  0  0  0  0
  188.7890  177.9530  146.4420 C   0  0  1  0  0  3  0  0  0  0  0  0
  187.4580  177.8110  146.8330 O   0  0  0  0  0  1  0  0  0  0  0  0
  190.4700  176.6010  147.4030 O   0  0  0  0  0  0  0  0  0  0  0  0
  189.6990  177.5350  147.5600 C   0  0  0  0  0  0  0  0  0  0  0  0
  189.6910  178.2030  148.7430 F   0  0  0  0  0  0  0  0  0  0  0  0
  3  4  2  0  0  0  0
  4 30  1  0  0  0  0
  5 20  2  0  0  0  0
  7 16  1  1  0  0  0
  7  3  1  0  0  0  0
  8 29  1  0  0  0  0
  9  6  1  6  0  0  0
  9 12  1  0  0  0  0
 11  7  1  0  0  0  0
 11 26  1  1  0  0  0
 12  8  1  1  0  0  0
 13  6  2  0  0  0  0
 14 10  1  0  0  0  0
 15 25  2  0  0  0  0
 15 16  1  0  0  0  0
 18 17  1  0  0  0  0
 18  4  1  0  0  0  0
 19 14  1  0  0  0  0
 20 25  1  0  0  0  0
 21  1  1  1  0  0  0
 21  9  1  0  0  0  0
 22 20  1  0  0  0  0
 22 13  2  0  0  0  0
 23  2  1  1  0  0  0
 23 28  1  0  0  0  0
 24 23  1  0  0  0  0
 24 19  1  0  0  0  0
 25 11  1  0  0  0  0
 26 18  2  0  0  0  0
 27 10  1  1  0  0  0
 27 12  1  0  0  0  0
 28 21  1  0  0  0  0
 28 27  1  0  0  0  0
 28  1  1  1  0  0  0
 29 17  1  0  0  0  0
 30 31  1  1  0  0  0
 30 32  1  0  0  0  0
 32 33  1  0  0  0  0
 33 34  1  0  0  0  0
 34 35  1  1  0  0  0
 34 37  1  0  0  0  0
 36 37  2  0  0  0  0
 37 38  1  0  0  0  0
M  END
>  <MODEL>
3

>  <REMARK>
 VINA RESULT:      -7.4      1.535      1.739
  Name = 
  5 active torsions:
  status: ('A' for Active; 'I' for Inactive)
    1  A    between atoms: C_4  and  C_6
    2  A    between atoms: C_6  and  C_28
    3  A    between atoms: C_11  and  C_22
    4  A    between atoms: C_11  and  C_24
    5  A    between atoms: C_24  and  C_28
                            x       y       z     vdW  Elec       q    Type
                         _______ _______ _______ _____ _____    ______ ____

>  <TORSDO>
F 5

$$$$
=
 OpenBabel11062413033D

 38 43  0  0  1  0  0  0  0  0999 V2000
  181.5220  179.5030  141.4800 O   0  0  0  0  0  0  0  0  0  0  0  0
  178.9400  180.5340  141.5710 C   0  0  0  0  0  1  0  0  0  0  0  0
  185.7640  174.5120  136.2040 C   0  0  0  0  0  3  0  0  0  0  0  0
  186.1440  175.6380  136.8400 C   0  0  0  0  0  0  0  0  0  0  0  0
  179.8130  175.0440  135.7310 O   0  0  0  0  0  0  0  0  0  0  0  0
  182.0580  176.1960  139.8440 C   0  0  0  0  0  3  0  0  0  0  0  0
  184.3270  174.2510  136.0760 C   0  0  1  0  0  3  0  0  0  0  0  0
  184.1700  179.1320  139.4960 C   0  0  0  0  0  2  0  0  0  0  0  0
  182.3750  177.5840  140.3220 C   0  0  1  0  0  3  0  0  0  0  0  0
  182.0930  180.9330  138.6610 C   0  0  0  0  0  2  0  0  0  0  0  0
  183.3570  174.9090  136.9830 C   0  0  2  0  0  3  0  0  0  0  0  0
  182.8170  178.4950  139.1740 C   0  0  1  0  0  3  0  0  0  0  0  0
  181.2170  175.9630  138.8670 C   0  0  0  0  0  0  0  0  0  0  0  0
  180.9570  181.6840  137.9740 C   0  0  0  0  0  2  0  0  0  0  0  0
  182.3320  174.1220  135.0670 N   0  0  0  0  0  0  0  0  0  0  0  0
  183.7220  173.8250  134.9840 C   0  0  0  0  0  2  0  0  0  0  0  0
  185.4980  178.0230  137.6700 C   0  0  0  0  0  2  0  0  0  0  0  0
  185.1090  176.6410  137.2510 C   0  0  0  0  0  0  0  0  0  0  0  0
  179.7800  181.9390  138.9080 C   0  0  0  0  0  2  0  0  0  0  0  0
  180.7450  175.1880  136.5660 C   0  0  0  0  0  0  0  0  0  0  0  0
  181.1670  178.2200  141.0060 C   0  0  2  0  0  3  0  0  0  0  0  0
  180.3820  175.7480  137.8850 C   0  0  0  0  0  3  0  0  0  0  0  0
  179.3460  179.8370  140.2790 C   0  0  1  0  0  3  0  0  0  0  0  0
  178.9310  180.6810  139.0700 C   0  0  0  0  0  2  0  0  0  0  0  0
  182.1130  174.7730  136.1670 C   0  0  0  0  0  0  0  0  0  0  0  0
  183.8030  176.3260  137.2120 C   0  0  0  0  0  3  0  0  0  0  0  0
  181.6790  179.5010  138.9950 C   0  0  1  0  0  3  0  0  0  0  0  0
  180.8320  179.4430  140.2540 C   0  0  1  0  0  0  0  0  0  0  0  0
  185.3250  178.1900  139.1760 C   0  0  0  0  0  2  0  0  0  0  0  0
  187.6050  175.9740  136.9840 C   0  0  1  0  0  3  0  0  0  0  0  0
  188.5180  174.7680  136.7990 C   0  0  0  0  0  1  0  0  0  0  0  0
  188.0270  177.1660  136.1250 C   0  0  0  0  0  2  0  0  0  0  0  0
  189.4460  177.6310  136.4260 C   0  0  0  0  0  2  0  0  0  0  0  0
  189.4310  178.7670  137.4350 C   0  0  1  0  0  3  0  0  0  0  0  0
  188.3020  179.5560  137.2190 O   0  0  0  0  0  1  0  0  0  0  0  0
  190.2690  177.4260  139.1890 O   0  0  0  0  0  0  0  0  0  0  0  0
  189.4220  178.2310  138.8370 C   0  0  0  0  0  0  0  0  0  0  0  0
  188.4870  178.6520  139.7300 F   0  0  0  0  0  0  0  0  0  0  0  0
  3  4  2  0  0  0  0
  4 30  1  0  0  0  0
  4 18  1  0  0  0  0
  5 20  2  0  0  0  0
  7 16  1  6  0  0  0
  7  3  1  0  0  0  0
  7 11  1  0  0  0  0
  9  6  1  6  0  0  0
  9 21  1  0  0  0  0
 11 26  1  6  0  0  0
 12  8  1  1  0  0  0
 12  9  1  0  0  0  0
 13  6  2  0  0  0  0
 14 10  1  0  0  0  0
 14 19  1  0  0  0  0
 15 25  2  0  0  0  0
 16 15  1  0  0  0  0
 17 29  1  0  0  0  0
 18 17  1  0  0  0  0
 19 24  1  0  0  0  0
 20 22  1  0  0  0  0
 21  1  1  1  0  0  0
 22 13  2  0  0  0  0
 23  2  1  1  0  0  0
 24 23  1  0  0  0  0
 25 20  1  0  0  0  0
 25 11  1  0  0  0  0
 26 18  2  0  0  0  0
 27 10  1  1  0  0  0
 27 12  1  0  0  0  0
 27 28  1  0  0  0  0
 28 23  1  0  0  0  0
 28 21  1  0  0  0  0
 28  1  1  1  0  0  0
 29  8  1  0  0  0  0
 30 31  1  6  0  0  0
 32 33  1  0  0  0  0
 32 30  1  0  0  0  0
 33 34  1  0  0  0  0
 34 35  1  6  0  0  0
 34 37  1  0  0  0  0
 37 36  2  0  0  0  0
 37 38  1  0  0  0  0
M  END
>  <MODEL>
4

>  <REMARK>
 VINA RESULT:      -6.0      3.375      5.301
  Name = 
  5 active torsions:
  status: ('A' for Active; 'I' for Inactive)
    1  A    between atoms: C_4  and  C_6
    2  A    between atoms: C_6  and  C_28
    3  A    between atoms: C_11  and  C_22
    4  A    between atoms: C_11  and  C_24
    5  A    between atoms: C_24  and  C_28
                            x       y       z     vdW  Elec       q    Type
                         _______ _______ _______ _____ _____    ______ ____

>  <TORSDO>
F 5

$$$$
=
 OpenBabel11062413033D

 38 43  0  0  1  0  0  0  0  0999 V2000
  180.9580  178.7830  138.0400 O   0  0  0  0  0  0  0  0  0  0  0  0
  178.9410  178.7550  139.9560 C   0  0  0  0  0  1  0  0  0  0  0  0
  189.2570  177.4150  138.1020 C   0  0  0  0  0  3  0  0  0  0  0  0
  188.3110  177.0230  137.2240 C   0  0  0  0  0  0  0  0  0  0  0  0
  186.2710  178.1030  143.2520 O   0  0  0  0  0  0  0  0  0  0  0  0
  184.4070  179.7170  139.1040 C   0  0  0  0  0  3  0  0  0  0  0  0
  188.8190  177.8320  139.4370 C   0  0  1  0  0  3  0  0  0  0  0  0
  183.5140  177.0170  136.8420 C   0  0  0  0  0  2  0  0  0  0  0  0
  183.3270  179.0520  138.3000 C   0  0  1  0  0  3  0  0  0  0  0  0
  181.6700  175.7030  138.6120 C   0  0  0  0  0  2  0  0  0  0  0  0
  187.4190  178.2570  139.6740 C   0  0  2  0  0  3  0  0  0  0  0  0
  183.4830  177.5300  138.2830 C   0  0  1  0  0  3  0  0  0  0  0  0
  184.6730  179.3770  140.3410 C   0  0  0  0  0  0  0  0  0  0  0  0
  180.9470  174.9790  139.7420 C   0  0  0  0  0  2  0  0  0  0  0  0
  188.4750  177.6680  141.6440 N   0  0  0  0  0  0  0  0  0  0  0  0
  189.3950  177.4860  140.5720 C   0  0  0  0  0  2  0  0  0  0  0  0
  185.8790  176.1620  136.8470 C   0  0  0  0  0  2  0  0  0  0  0  0
  186.8900  176.8810  137.6820 C   0  0  0  0  0  0  0  0  0  0  0  0
  179.7190  175.7400  140.2290 C   0  0  0  0  0  2  0  0  0  0  0  0
  186.1840  178.3810  142.0270 C   0  0  0  0  0  0  0  0  0  0  0  0
  181.9430  179.3890  138.8520 C   0  0  2  0  0  3  0  0  0  0  0  0
  184.9320  179.0210  141.5710 C   0  0  0  0  0  3  0  0  0  0  0  0
  180.2970  178.2150  140.3920 C   0  0  1  0  0  3  0  0  0  0  0  0
  180.1220  176.8930  141.1450 C   0  0  0  0  0  2  0  0  0  0  0  0
  187.3400  178.0600  141.1530 C   0  0  0  0  0  0  0  0  0  0  0  0
  186.5080  177.3670  138.8750 C   0  0  0  0  0  3  0  0  0  0  0  0
  182.3160  176.9930  139.1130 C   0  0  1  0  0  3  0  0  0  0  0  0
  181.3020  178.1170  139.2320 C   0  0  1  0  0  0  0  0  0  0  0  0
  184.9010  177.1540  136.2260 C   0  0  0  0  0  2  0  0  0  0  0  0
  188.6980  176.5610  135.8450 C   0  0  1  0  0  3  0  0  0  0  0  0
  188.6550  177.6750  134.8060 C   0  0  0  0  0  1  0  0  0  0  0  0
  190.0190  175.7920  135.8250 C   0  0  0  0  0  2  0  0  0  0  0  0
  189.8680  174.3810  135.2700 C   0  0  0  0  0  2  0  0  0  0  0  0
  189.7350  173.3770  136.4020 C   0  0  1  0  0  3  0  0  0  0  0  0
  190.1470  173.9720  137.5930 O   0  0  0  0  0  1  0  0  0  0  0  0
  187.5010  173.1790  135.6620 O   0  0  0  0  0  0  0  0  0  0  0  0
  188.3160  172.9050  136.5290 C   0  0  0  0  0  0  0  0  0  0  0  0
  187.9310  172.1520  137.5940 F   0  0  0  0  0  0  0  0  0  0  0  0
  4 18  1  0  0  0  0
  4  3  2  0  0  0  0
  6 13  2  0  0  0  0
  7  3  1  6  0  0  0
  7 11  1  0  0  0  0
  7 16  1  0  0  0  0
  9 21  1  0  0  0  0
  9  6  1  1  0  0  0
 10 14  1  0  0  0  0
 11 26  1  6  0  0  0
 11 25  1  0  0  0  0
 12  8  1  6  0  0  0
 12  9  1  0  0  0  0
 12 27  1  0  0  0  0
 13 22  2  0  0  0  0
 14 19  1  0  0  0  0
 16 15  1  0  0  0  0
 17 18  1  0  0  0  0
 18 26  2  0  0  0  0
 19 24  1  0  0  0  0
 20  5  2  0  0  0  0
 21  1  1  6  0  0  0
 21 28  1  0  0  0  0
 22 20  1  0  0  0  0
 23  2  1  6  0  0  0
 23 24  1  0  0  0  0
 25 15  2  0  0  0  0
 25 20  1  0  0  0  0
 27 10  1  6  0  0  0
 27 28  1  0  0  0  0
 28  1  1  6  0  0  0
 28 23  1  0  0  0  0
 29  8  1  0  0  0  0
 29 17  1  0  0  0  0
 30 31  1  6  0  0  0
 30  4  1  0  0  0  0
 32 30  1  0  0  0  0
 33 32  1  0  0  0  0
 33 34  1  0  0  0  0
 34 37  1  0  0  0  0
 34 35  1  1  0  0  0
 36 37  2  0  0  0  0
 37 38  1  0  0  0  0
M  END
>  <MODEL>
5

>  <REMARK>
 VINA RESULT:      -6.0      2.987      5.617
  Name = 
  5 active torsions:
  status: ('A' for Active; 'I' for Inactive)
    1  A    between atoms: C_4  and  C_6
    2  A    between atoms: C_6  and  C_28
    3  A    between atoms: C_11  and  C_22
    4  A    between atoms: C_11  and  C_24
    5  A    between atoms: C_24  and  C_28
                            x       y       z     vdW  Elec       q    Type
                         _______ _______ _______ _____ _____    ______ ____

>  <TORSDO>
F 5

$$$$
=
 OpenBabel11062413033D

 38 43  0  0  1  0  0  0  0  0999 V2000
  181.1460  178.7720  137.9250 O   0  0  0  0  0  0  0  0  0  0  0  0
  179.0760  178.7110  139.7830 C   0  0  0  0  0  1  0  0  0  0  0  0
  189.4480  177.4590  138.2090 C   0  0  0  0  0  3  0  0  0  0  0  0
  188.5310  177.0700  137.3010 C   0  0  0  0  0  0  0  0  0  0  0  0
  186.3130  178.0750  143.2790 O   0  0  0  0  0  0  0  0  0  0  0  0
  184.5560  179.7190  139.0960 C   0  0  0  0  0  3  0  0  0  0  0  0
  188.9700  177.8600  139.5350 C   0  0  1  0  0  3  0  0  0  0  0  0
  183.7470  177.0360  136.7830 C   0  0  0  0  0  2  0  0  0  0  0  0
  183.5040  179.0540  138.2550 C   0  0  1  0  0  3  0  0  0  0  0  0
  181.8630  175.6920  138.4860 C   0  0  0  0  0  2  0  0  0  0  0  0
  187.5610  178.2730  139.7370 C   0  0  2  0  0  3  0  0  0  0  0  0
  183.6720  177.5340  138.2270 C   0  0  1  0  0  3  0  0  0  0  0  0
  184.7900  179.3680  140.3370 C   0  0  0  0  0  0  0  0  0  0  0  0
  181.1130  174.9510  139.5880 C   0  0  0  0  0  2  0  0  0  0  0  0
  188.5650  177.6720  141.7300 N   0  0  0  0  0  0  0  0  0  0  0  0
  189.5160  177.5060  140.6830 C   0  0  0  0  0  2  0  0  0  0  0  0
  186.1170  176.1970  136.8460 C   0  0  0  0  0  2  0  0  0  0  0  0
  187.0990  176.9140  137.7160 C   0  0  0  0  0  0  0  0  0  0  0  0
  179.8670  175.6990  140.0470 C   0  0  0  0  0  2  0  0  0  0  0  0
  186.2590  178.3650  142.0550 C   0  0  0  0  0  0  0  0  0  0  0  0
  182.1030  179.3770  138.7700 C   0  0  2  0  0  3  0  0  0  0  0  0
  185.0160  179.0010  141.5700 C   0  0  0  0  0  3  0  0  0  0  0  0
  180.4220  178.1760  140.2520 C   0  0  1  0  0  3  0  0  0  0  0  0
  180.2350  176.8460  140.9860 C   0  0  0  0  0  2  0  0  0  0  0  0
  187.4420  178.0610  141.2110 C   0  0  0  0  0  0  0  0  0  0  0  0
  186.6790  177.3850  138.9040 C   0  0  0  0  0  3  0  0  0  0  0  0
  182.4850  176.9810  139.0180 C   0  0  1  0  0  3  0  0  0  0  0  0
  181.4600  178.0970  139.1190 C   0  0  1  0  0  0  0  0  0  0  0  0
  185.1500  177.1890  136.2080 C   0  0  0  0  0  2  0  0  0  0  0  0
  188.9610  176.6250  135.9290 C   0  0  1  0  0  3  0  0  0  0  0  0
  189.4400  177.7730  135.0500 C   0  0  0  0  0  1  0  0  0  0  0  0
  189.9510  175.4610  135.9650 C   0  0  0  0  0  2  0  0  0  0  0  0
  191.3770  175.8950  135.6540 C   0  0  0  0  0  2  0  0  0  0  0  0
  192.3490  175.2800  136.6470 C   0  0  1  0  0  3  0  0  0  0  0  0
  193.2790  174.5050  135.9560 O   0  0  0  0  0  1  0  0  0  0  0  0
  193.8950  177.0480  136.8930 O   0  0  0  0  0  0  0  0  0  0  0  0
  193.0530  176.3480  137.4320 C   0  0  0  0  0  0  0  0  0  0  0  0
  192.7450  176.5610  138.7380 F   0  0  0  0  0  0  0  0  0  0  0  0
  4 18  1  0  0  0  0
  4  3  2  0  0  0  0
  6 13  2  0  0  0  0
  7  3  1  6  0  0  0
  7 11  1  0  0  0  0
  7 16  1  0  0  0  0
  9 21  1  0  0  0  0
  9  6  1  1  0  0  0
 10 14  1  0  0  0  0
 11 26  1  6  0  0  0
 11 25  1  0  0  0  0
 12  8  1  6  0  0  0
 12  9  1  0  0  0  0
 12 27  1  0  0  0  0
 13 22  2  0  0  0  0
 14 19  1  0  0  0  0
 16 15  1  0  0  0  0
 17 18  1  0  0  0  0
 18 26  2  0  0  0  0
 19 24  1  0  0  0  0
 20  5  2  0  0  0  0
 21  1  1  6  0  0  0
 21 28  1  0  0  0  0
 22 20  1  0  0  0  0
 23  2  1  6  0  0  0
 23 24  1  0  0  0  0
 25 15  2  0  0  0  0
 25 20  1  0  0  0  0
 27 10  1  6  0  0  0
 27 28  1  0  0  0  0
 28  1  1  6  0  0  0
 28 23  1  0  0  0  0
 29  8  1  0  0  0  0
 29 17  1  0  0  0  0
 30 31  1  1  0  0  0
 30 32  1  0  0  0  0
 30  4  1  0  0  0  0
 33 32  1  0  0  0  0
 33 34  1  0  0  0  0
 34 35  1  6  0  0  0
 34 37  1  0  0  0  0
 36 37  2  0  0  0  0
 37 38  1  0  0  0  0
M  END
>  <MODEL>
6

>  <REMARK>
 VINA RESULT:      -5.9      2.949      5.391
  Name = 
  5 active torsions:
  status: ('A' for Active; 'I' for Inactive)
    1  A    between atoms: C_4  and  C_6
    2  A    between atoms: C_6  and  C_28
    3  A    between atoms: C_11  and  C_22
    4  A    between atoms: C_11  and  C_24
    5  A    between atoms: C_24  and  C_28
                            x       y       z     vdW  Elec       q    Type
                         _______ _______ _______ _____ _____    ______ ____

>  <TORSDO>
F 5

$$$$
=
 OpenBabel11062413033D

 38 43  0  0  1  0  0  0  0  0999 V2000
  190.1060  177.6590  135.1210 O   0  0  0  0  0  0  0  0  0  0  0  0
  192.3190  176.0290  134.6880 C   0  0  0  0  0  1  0  0  0  0  0  0
  182.1910  176.4050  137.6730 C   0  0  0  0  0  3  0  0  0  0  0  0
  183.0730  177.3710  137.9980 C   0  0  0  0  0  0  0  0  0  0  0  0
  185.6330  171.7540  136.1120 O   0  0  0  0  0  0  0  0  0  0  0  0
  186.7080  176.2120  134.6100 C   0  0  0  0  0  3  0  0  0  0  0  0
  182.7160  175.1710  137.0820 C   0  0  1  0  0  3  0  0  0  0  0  0
  187.7310  178.3850  137.3380 C   0  0  0  0  0  2  0  0  0  0  0  0
  187.7730  177.1060  135.1790 C   0  0  1  0  0  3  0  0  0  0  0  0
  189.9560  176.7910  138.2100 C   0  0  0  0  0  2  0  0  0  0  0  0
  184.0510  175.1510  136.4390 C   0  0  2  0  0  3  0  0  0  0  0  0
  187.8550  176.9990  136.7030 C   0  0  1  0  0  3  0  0  0  0  0  0
  186.6490  174.9310  134.8770 C   0  0  0  0  0  0  0  0  0  0  0  0
  190.9150  175.7200  138.7210 C   0  0  0  0  0  2  0  0  0  0  0  0
  183.3460  173.0230  137.0010 N   0  0  0  0  0  0  0  0  0  0  0  0
  182.3430  173.9480  137.4090 C   0  0  0  0  0  2  0  0  0  0  0  0
  185.5450  178.0090  138.5250 C   0  0  0  0  0  2  0  0  0  0  0  0
  184.5430  177.0980  137.8910 C   0  0  0  0  0  0  0  0  0  0  0  0
  192.0590  175.4530  137.7490 C   0  0  0  0  0  2  0  0  0  0  0  0
  185.5270  172.9960  135.9320 C   0  0  0  0  0  0  0  0  0  0  0  0
  189.1440  176.7670  134.5970 C   0  0  2  0  0  3  0  0  0  0  0  0
  186.6000  173.6560  135.1580 C   0  0  0  0  0  3  0  0  0  0  0  0
  191.1270  175.3820  135.3800 C   0  0  1  0  0  3  0  0  0  0  0  0
  191.5950  174.5710  136.5920 C   0  0  0  0  0  2  0  0  0  0  0  0
  184.3380  173.6850  136.4930 C   0  0  0  0  0  0  0  0  0  0  0  0
  184.9860  176.0010  137.2530 C   0  0  0  0  0  3  0  0  0  0  0  0
  189.1830  176.2960  136.9900 C   0  0  1  0  0  3  0  0  0  0  0  0
  190.0170  176.3890  135.7240 C   0  0  1  0  0  0  0  0  0  0  0  0
  186.2750  178.8190  137.4580 C   0  0  0  0  0  2  0  0  0  0  0  0
  182.5980  178.6530  138.6300 C   0  0  1  0  0  3  0  0  0  0  0  0
  181.7360  179.4960  137.6980 C   0  0  0  0  0  1  0  0  0  0  0  0
  181.9470  178.4360  139.9950 C   0  0  0  0  0  2  0  0  0  0  0  0
  182.9200  177.8800  141.0270 C   0  0  0  0  0  2  0  0  0  0  0  0
  183.4510  178.9940  141.9130 C   0  0  1  0  0  3  0  0  0  0  0  0
  182.8100  178.9390  143.1500 O   0  0  0  0  0  1  0  0  0  0  0  0
  185.6810  179.7350  141.6800 O   0  0  0  0  0  0  0  0  0  0  0  0
  184.9350  178.8640  142.0980 C   0  0  0  0  0  0  0  0  0  0  0  0
  185.4580  177.7920  142.7490 F   0  0  0  0  0  0  0  0  0  0  0  0
  3  4  2  0  0  0  0
  4 30  1  0  0  0  0
  6 13  2  0  0  0  0
  7 16  1  1  0  0  0
  7  3  1  0  0  0  0
  8 29  1  0  0  0  0
  9  6  1  6  0  0  0
  9 12  1  0  0  0  0
 10 14  1  0  0  0  0
 11 25  1  0  0  0  0
 11  7  1  0  0  0  0
 11 26  1  1  0  0  0
 12 27  1  0  0  0  0
 12  8  1  1  0  0  0
 13 22  2  0  0  0  0
 15 16  1  0  0  0  0
 18  4  1  0  0  0  0
 18 17  1  0  0  0  0
 19 14  1  0  0  0  0
 20  5  2  0  0  0  0
 20 25  1  0  0  0  0
 21  1  1  1  0  0  0
 21  9  1  0  0  0  0
 21 28  1  0  0  0  0
 22 20  1  0  0  0  0
 23  2  1  1  0  0  0
 23 28  1  0  0  0  0
 23 24  1  0  0  0  0
 24 19  1  0  0  0  0
 25 15  2  0  0  0  0
 26 18  2  0  0  0  0
 27 10  1  1  0  0  0
 28  1  1  1  0  0  0
 28 27  1  0  0  0  0
 29 17  1  0  0  0  0
 30 31  1  6  0  0  0
 30 32  1  0  0  0  0
 32 33  1  0  0  0  0
 33 34  1  0  0  0  0
 34 37  1  0  0  0  0
 34 35  1  1  0  0  0
 36 37  2  0  0  0  0
 37 38  1  0  0  0  0
M  END
>  <MODEL>
7

>  <REMARK>
 VINA RESULT:      -5.7      3.522      7.758
  Name = 
  5 active torsions:
  status: ('A' for Active; 'I' for Inactive)
    1  A    between atoms: C_4  and  C_6
    2  A    between atoms: C_6  and  C_28
    3  A    between atoms: C_11  and  C_22
    4  A    between atoms: C_11  and  C_24
    5  A    between atoms: C_24  and  C_28
                            x       y       z     vdW  Elec       q    Type
                         _______ _______ _______ _____ _____    ______ ____

>  <TORSDO>
F 5

$$$$
=
 OpenBabel11062413033D

 38 43  0  0  1  0  0  0  0  0999 V2000
  188.0370  178.2270  135.4350 O   0  0  0  0  0  0  0  0  0  0  0  0
  190.3770  176.9540  134.6350 C   0  0  0  0  0  1  0  0  0  0  0  0
  180.5850  175.6890  138.3970 C   0  0  0  0  0  3  0  0  0  0  0  0
  181.3730  176.7160  138.7730 C   0  0  0  0  0  0  0  0  0  0  0  0
  184.3940  171.7270  136.0070 O   0  0  0  0  0  0  0  0  0  0  0  0
  184.8000  176.4290  135.0030 C   0  0  0  0  0  3  0  0  0  0  0  0
  181.1960  174.6100  137.6170 C   0  0  1  0  0  3  0  0  0  0  0  0
  185.8020  178.3830  137.8980 C   0  0  0  0  0  2  0  0  0  0  0  0
  185.7990  177.3790  135.5980 C   0  0  1  0  0  3  0  0  0  0  0  0
  188.2690  176.9950  138.3920 C   0  0  0  0  0  2  0  0  0  0  0  0
  182.4610  174.8340  136.8780 C   0  0  2  0  0  3  0  0  0  0  0  0
  186.0300  177.1070  137.0860 C   0  0  1  0  0  3  0  0  0  0  0  0
  184.9150  175.1290  135.1090 C   0  0  0  0  0  0  0  0  0  0  0  0
  189.3880  176.0030  138.6900 C   0  0  0  0  0  2  0  0  0  0  0  0
  182.0630  172.5830  137.2180 N   0  0  0  0  0  0  0  0  0  0  0  0
  180.9990  173.3190  137.8130 C   0  0  0  0  0  2  0  0  0  0  0  0
  183.7920  177.5970  139.1890 C   0  0  0  0  0  2  0  0  0  0  0  0
  182.8500  176.6460  138.5220 C   0  0  0  0  0  0  0  0  0  0  0  0
  190.4630  175.9980  137.6090 C   0  0  0  0  0  2  0  0  0  0  0  0
  184.1270  172.9570  135.9940 C   0  0  0  0  0  0  0  0  0  0  0  0
  187.1430  177.2870  134.8760 C   0  0  2  0  0  3  0  0  0  0  0  0
  185.0410  173.8340  135.2300 C   0  0  0  0  0  3  0  0  0  0  0  0
  189.3360  176.0840  135.3270 C   0  0  1  0  0  3  0  0  0  0  0  0
  190.0030  175.2050  136.3880 C   0  0  0  0  0  2  0  0  0  0  0  0
  182.9200  173.4200  136.7240 C   0  0  0  0  0  0  0  0  0  0  0  0
  183.3590  175.6960  137.7190 C   0  0  0  0  0  3  0  0  0  0  0  0
  187.4520  176.5510  137.1810 C   0  0  1  0  0  3  0  0  0  0  0  0
  188.1510  176.8960  135.8780 C   0  0  1  0  0  0  0  0  0  0  0  0
  184.3220  178.6120  138.1810 C   0  0  0  0  0  2  0  0  0  0  0  0
  180.8110  177.8450  139.5950 C   0  0  1  0  0  3  0  0  0  0  0  0
  180.0870  178.8920  138.7580 C   0  0  0  0  0  1  0  0  0  0  0  0
  179.9740  177.3590  140.7780 C   0  0  0  0  0  2  0  0  0  0  0  0
  179.3410  178.5040  141.5580 C   0  0  0  0  0  2  0  0  0  0  0  0
  180.3800  179.1920  142.4280 C   0  0  1  0  0  3  0  0  0  0  0  0
  180.0470  180.5400  142.5570 O   0  0  0  0  0  1  0  0  0  0  0  0
  179.4200  178.2680  144.3780 O   0  0  0  0  0  0  0  0  0  0  0  0
  180.4480  178.5490  143.7820 C   0  0  0  0  0  0  0  0  0  0  0  0
  181.6490  178.2540  144.3460 F   0  0  0  0  0  0  0  0  0  0  0  0
  3  4  2  0  0  0  0
  4 30  1  0  0  0  0
  6 13  2  0  0  0  0
  7 16  1  1  0  0  0
  7  3  1  0  0  0  0
  8 29  1  0  0  0  0
  9  6  1  6  0  0  0
  9 12  1  0  0  0  0
 10 14  1  0  0  0  0
 11  7  1  0  0  0  0
 11 26  1  1  0  0  0
 12 27  1  0  0  0  0
 12  8  1  1  0  0  0
 13 22  2  0  0  0  0
 15 16  1  0  0  0  0
 18  4  1  0  0  0  0
 18 17  1  0  0  0  0
 19 14  1  0  0  0  0
 20  5  2  0  0  0  0
 20 25  1  0  0  0  0
 21  1  1  1  0  0  0
 21  9  1  0  0  0  0
 21 28  1  0  0  0  0
 22 20  1  0  0  0  0
 23  2  1  1  0  0  0
 23 28  1  0  0  0  0
 23 24  1  0  0  0  0
 24 19  1  0  0  0  0
 25 11  1  0  0  0  0
 25 15  2  0  0  0  0
 26 18  2  0  0  0  0
 27 10  1  1  0  0  0
 28  1  1  1  0  0  0
 28 27  1  0  0  0  0
 29 17  1  0  0  0  0
 30 31  1  6  0  0  0
 30 32  1  0  0  0  0
 32 33  1  0  0  0  0
 33 34  1  0  0  0  0
 34 35  1  1  0  0  0
 34 37  1  0  0  0  0
 37 38  1  0  0  0  0
 37 36  2  0  0  0  0
M  END
>  <MODEL>
8

>  <REMARK>
 VINA RESULT:      -5.6      4.336      8.112
  Name = 
  5 active torsions:
  status: ('A' for Active; 'I' for Inactive)
    1  A    between atoms: C_4  and  C_6
    2  A    between atoms: C_6  and  C_28
    3  A    between atoms: C_11  and  C_22
    4  A    between atoms: C_11  and  C_24
    5  A    between atoms: C_24  and  C_28
                            x       y       z     vdW  Elec       q    Type
                         _______ _______ _______ _____ _____    ______ ____

>  <TORSDO>
F 5

$$$$
=
 OpenBabel11062413033D

 38 43  0  0  1  0  0  0  0  0999 V2000
  190.4900  175.8230  143.0640 O   0  0  0  0  0  0  0  0  0  0  0  0
  192.2460  175.8970  145.2210 C   0  0  0  0  0  1  0  0  0  0  0  0
  182.8760  179.0190  141.4670 C   0  0  0  0  0  3  0  0  0  0  0  0
  183.9720  178.9370  140.6860 C   0  0  0  0  0  0  0  0  0  0  0  0
  185.0580  179.0610  147.0480 O   0  0  0  0  0  0  0  0  0  0  0  0
  186.8300  176.0200  143.7470 C   0  0  0  0  0  3  0  0  0  0  0  0
  183.0560  178.8830  142.9150 C   0  0  0  0  0  0  0  0  0  0  0  0
  188.6170  177.7440  141.0920 C   0  0  0  0  0  2  0  0  0  0  0  0
  188.1200  176.1830  142.9950 C   0  0  1  0  0  3  0  0  0  0  0  0
  190.5580  179.0220  142.7810 C   0  0  0  0  0  2  0  0  0  0  0  0
  184.2660  178.2280  143.4670 C   0  0  2  0  0  3  0  0  0  0  0  0
  188.3700  177.6390  142.5990 C   0  0  1  0  0  3  0  0  0  0  0  0
  186.5430  176.7280  144.8100 C   0  0  0  0  0  0  0  0  0  0  0  0
  191.3320  179.8360  143.8130 C   0  0  0  0  0  2  0  0  0  0  0  0
  183.2130  179.5440  145.0490 N   0  0  0  0  0  0  0  0  0  0  0  0
  182.4830  179.6410  143.8300 C   0  0  0  0  0  3  0  0  0  0  0  0
  186.5700  179.0860  140.5160 C   0  0  0  0  0  2  0  0  0  0  0  0
  185.3290  178.8660  141.3210 C   0  0  0  0  0  0  0  0  0  0  0  0
  192.2630  178.9710  144.6550 C   0  0  0  0  0  2  0  0  0  0  0  0
  185.1880  178.4550  145.9520 C   0  0  0  0  0  0  0  0  0  0  0  0
  189.3060  175.6970  143.8250 C   0  0  2  0  0  3  0  0  0  0  0  0
  186.2670  177.4480  145.8660 C   0  0  0  0  0  3  0  0  0  0  0  0
  191.0430  176.8290  145.2950 C   0  0  1  0  0  3  0  0  0  0  0  0
  191.4850  178.2270  145.7370 C   0  0  0  0  0  2  0  0  0  0  0  0
  184.2480  178.7870  144.8530 C   0  0  0  0  0  0  0  0  0  0  0  0
  185.4520  178.6410  142.6410 C   0  0  0  0  0  3  0  0  0  0  0  0
  189.5510  178.0950  143.4580 C   0  0  1  0  0  3  0  0  0  0  0  0
  190.2180  176.8420  143.9970 C   0  0  1  0  0  0  0  0  0  0  0  0
  187.3090  177.7680  140.3100 C   0  0  0  0  0  2  0  0  0  0  0  0
  183.8570  179.0910  139.1930 C   0  0  1  0  0  3  0  0  0  0  0  0
  183.5110  177.7890  138.4820 C   0  0  0  0  0  1  0  0  0  0  0  0
  182.9390  180.2440  138.7850 C   0  0  0  0  0  2  0  0  0  0  0  0
  181.7000  179.7690  138.0370 C   0  0  0  0  0  2  0  0  0  0  0  0
  180.5800  180.7880  138.1630 C   0  0  1  0  0  3  0  0  0  0  0  0
  180.5170  181.2370  139.4820 O   0  0  0  0  0  1  0  0  0  0  0  0
  180.9280  183.0750  137.6880 O   0  0  0  0  0  0  0  0  0  0  0  0
  180.8100  181.9470  137.2370 C   0  0  0  0  0  0  0  0  0  0  0  0
  180.9120  181.7490  135.8960 F   0  0  0  0  0  0  0  0  0  0  0  0
  3  7  1  0  0  0  0
  4 18  1  0  0  0  0
  4  3  2  0  0  0  0
  6 13  2  0  0  0  0
  7 11  1  0  0  0  0
  7 16  2  0  0  0  0
  9  6  1  1  0  0  0
  9 21  1  0  0  0  0
 10 14  1  0  0  0  0
 11 26  1  6  0  0  0
 11 25  1  0  0  0  0
 12  8  1  6  0  0  0
 12  9  1  0  0  0  0
 12 27  1  0  0  0  0
 13 22  2  0  0  0  0
 14 19  1  0  0  0  0
 16 15  1  0  0  0  0
 17 18  1  0  0  0  0
 18 26  2  0  0  0  0
 19 24  1  0  0  0  0
 20  5  2  0  0  0  0
 21  1  1  6  0  0  0
 21 28  1  0  0  0  0
 22 20  1  0  0  0  0
 23  2  1  6  0  0  0
 23 24  1  0  0  0  0
 25 15  2  0  0  0  0
 25 20  1  0  0  0  0
 27 10  1  6  0  0  0
 27 28  1  0  0  0  0
 28  1  1  6  0  0  0
 28 23  1  0  0  0  0
 29 17  1  0  0  0  0
 29  8  1  0  0  0  0
 30 31  1  6  0  0  0
 30  4  1  0  0  0  0
 32 30  1  0  0  0  0
 33 34  1  0  0  0  0
 33 32  1  0  0  0  0
 34 35  1  1  0  0  0
 37 36  2  0  0  0  0
 37 34  1  0  0  0  0
 38 37  1  0  0  0  0
M  END
>  <MODEL>
9

>  <REMARK>
 VINA RESULT:      -5.2      3.539      9.833
  Name = 
  5 active torsions:
  status: ('A' for Active; 'I' for Inactive)
    1  A    between atoms: C_4  and  C_6
    2  A    between atoms: C_6  and  C_28
    3  A    between atoms: C_11  and  C_22
    4  A    between atoms: C_11  and  C_24
    5  A    between atoms: C_24  and  C_28
                            x       y       z     vdW  Elec       q    Type
                         _______ _______ _______ _____ _____    ______ ____

>  <TORSDO>
F 5

$$$$
