=
 OpenBabel11062417453D

 39 46  0  0  1  0  0  0  0  0999 V2000
  190.8260  177.3250  139.3960 C   0  0  1  0  0  3  0  0  0  0  0  0
  189.4370  177.2680  140.0480 C   0  0  2  0  0  3  0  0  0  0  0  0
  186.8380  178.8760  140.6380 O   0  0  0  0  0  0  0  0  0  0  0  0
  186.0950  177.9970  138.4810 C   0  0  0  0  0  0  0  0  0  0  0  0
  187.0600  178.2890  139.5470 C   0  0  0  0  0  0  0  0  0  0  0  0
  186.4820  176.0820  137.0560 O   0  0  0  0  0  0  0  0  0  0  0  0
  186.8580  177.4240  137.3340 C   0  0  2  0  0  3  0  0  0  0  0  0
  188.3690  177.7990  139.1170 C   0  0  2  0  0  3  0  0  0  0  0  0
  190.1510  174.2770  137.6720 O   0  0  0  0  0  0  0  0  0  0  0  0
  191.4640  176.0810  139.5720 O   0  0  0  0  0  0  0  0  0  0  0  0
  184.8000  178.1940  138.4240 N   0  0  0  0  0  0  0  0  0  0  0  0
  188.6790  176.0780  137.4800 N   0  0  0  0  0  0  0  0  0  0  0  0
  189.9540  175.5150  137.8140 C   0  0  0  0  0  0  0  0  0  0  0  0
  188.2090  177.3240  137.8810 C   0  0  1  0  0  3  0  0  0  0  0  0
  191.0930  176.3960  138.2500 C   0  0  1  0  0  3  0  0  0  0  0  0
  187.6450  175.3600  136.8640 N   0  0  0  0  0  2  0  0  0  0  0  0
  183.5680  177.8230  140.5730 C   0  0  0  0  0  2  0  0  0  0  0  0
  182.6810  177.8650  139.3590 C   0  0  2  0  0  3  0  0  0  0  0  0
  183.7990  178.7030  139.3760 C   0  0  2  0  0  0  0  0  0  0  0  0
  182.5490  179.2390  138.7710 N   0  0  0  0  0  0  0  0  0  0  0  0
  179.7490  183.1370  135.9830 F   0  0  0  0  0  0  0  0  0  0  0  0
  180.4840  180.8770  136.2120 C   0  0  0  0  0  3  0  0  0  0  0  0
  181.8260  180.2470  138.0730 C   0  0  0  0  0  0  0  0  0  0  0  0
  180.4270  182.1940  136.6800 C   0  0  0  0  0  0  0  0  0  0  0  0
  181.1740  179.9380  136.9160 N   0  0  0  0  0  0  0  0  0  0  0  0
  181.8000  181.5570  138.5650 C   0  0  0  0  0  3  0  0  0  0  0  0
  181.0940  182.5340  137.8600 C   0  0  0  0  0  3  0  0  0  0  0  0
  189.4860  178.0460  141.3570 C   0  0  0  0  0  2  0  0  0  0  0  0
  189.5920  177.1010  142.5440 C   0  0  2  0  0  3  0  0  0  0  0  0
  190.1470  175.8900  142.1200 O   0  0  0  0  0  1  0  0  0  0  0  0
  188.2090  176.8710  143.1430 C   0  0  1  0  0  3  0  0  0  0  0  0
  187.9430  175.5050  143.2320 O   0  0  0  0  0  1  0  0  0  0  0  0
  188.1550  177.4730  144.5380 C   0  0  0  0  0  2  0  0  0  0  0  0
  184.1660  178.7660  145.4630 C   0  0  0  0  0  3  0  0  0  0  0  0
  186.3710  178.0600  146.2030 C   0  0  0  0  0  3  0  0  0  0  0  0
  185.0690  178.4840  146.4990 C   0  0  0  0  0  3  0  0  0  0  0  0
  184.5630  178.6190  144.1310 C   0  0  0  0  0  3  0  0  0  0  0  0
  186.7710  177.9180  144.8690 C   0  0  0  0  0  0  0  0  0  0  0  0
  185.8630  178.1940  143.8340 C   0  0  0  0  0  3  0  0  0  0  0  0
  1 10  1  1  0  0  0
  1  2  1  0  0  0  0
  2 28  1  1  0  0  0
  4  5  1  0  0  0  0
  5  3  2  0  0  0  0
  7  6  1  1  0  0  0
  7 14  1  0  0  0  0
  7  4  1  0  0  0  0
  8  5  1  1  0  0  0
  8  2  1  0  0  0  0
  9 13  2  0  0  0  0
 11  4  2  0  0  0  0
 12 13  1  0  0  0  0
 14 12  1  1  0  0  0
 14  8  1  0  0  0  0
 15 13  1  1  0  0  0
 15  1  1  0  0  0  0
 15 10  1  0  0  0  0
 16  6  1  0  0  0  0
 16 12  1  0  0  0  0
 18 19  1  0  0  0  0
 18 17  1  1  0  0  0
 19 11  1  6  0  0  0
 19 17  1  0  0  0  0
 20 18  1  0  0  0  0
 20 19  1  0  0  0  0
 21 24  1  0  0  0  0
 22 24  2  0  0  0  0
 22 25  1  0  0  0  0
 23 26  1  0  0  0  0
 23 20  1  0  0  0  0
 24 27  1  0  0  0  0
 25 23  2  0  0  0  0
 27 26  2  0  0  0  0
 28 29  1  0  0  0  0
 29 30  1  6  0  0  0
 29 31  1  0  0  0  0
 31 32  1  1  0  0  0
 31 33  1  0  0  0  0
 33 38  1  0  0  0  0
 34 36  1  0  0  0  0
 35 36  2  0  0  0  0
 37 34  2  0  0  0  0
 38 35  1  0  0  0  0
 39 37  1  0  0  0  0
 39 38  2  0  0  0  0
M  END
>  <MODEL>
1

>  <REMARK>
 VINA RESULT:      -9.5      0.000      0.000
  Name = 
  7 active torsions:
  status: ('A' for Active; 'I' for Inactive)
    1  A    between atoms: C_4  and  C_36
    2  A    between atoms: C_6  and  C_18
    3  A    between atoms: C_6  and  C_36
    4  A    between atoms: C_17  and  N_39
    5  A    between atoms: C_18  and  C_32
    6  A    between atoms: N_22  and  C_23
    7  A    between atoms: C_32  and  C_35
                            x       y       z     vdW  Elec       q    Type
                         _______ _______ _______ _____ _____    ______ ____

>  <TORSDO>
F 7

$$$$
=
 OpenBabel11062417453D

 39 46  0  0  1  0  0  0  0  0999 V2000
  182.6330  178.6370  142.9950 C   0  0  1  0  0  3  0  0  0  0  0  0
  183.8580  179.3560  142.4110 C   0  0  2  0  0  3  0  0  0  0  0  0
  186.8710  179.0660  141.6880 O   0  0  0  0  0  0  0  0  0  0  0  0
  186.0280  178.2940  139.5270 C   0  0  0  0  0  0  0  0  0  0  0  0
  185.9370  178.6780  140.9400 C   0  0  0  0  0  0  0  0  0  0  0  0
  184.0830  178.5730  138.1190 O   0  0  0  0  0  0  0  0  0  0  0  0
  184.6920  177.7700  139.1200 C   0  0  2  0  0  3  0  0  0  0  0  0
  184.5470  178.5090  141.3640 C   0  0  2  0  0  3  0  0  0  0  0  0
  180.6800  179.6690  140.1960 O   0  0  0  0  0  0  0  0  0  0  0  0
  181.5390  179.5240  142.9940 O   0  0  0  0  0  0  0  0  0  0  0  0
  187.0430  178.3260  138.6980 N   0  0  0  0  0  0  0  0  0  0  0  0
  182.6820  178.5170  139.8620 N   0  0  0  0  0  0  0  0  0  0  0  0
  181.5850  178.9370  140.6820 C   0  0  0  0  0  0  0  0  0  0  0  0
  183.8910  178.0040  140.3180 C   0  0  1  0  0  3  0  0  0  0  0  0
  181.4490  178.4420  142.0970 C   0  0  1  0  0  3  0  0  0  0  0  0
  182.7620  178.7550  138.4830 N   0  0  0  0  0  2  0  0  0  0  0  0
  189.0090  179.3400  137.5210 C   0  0  0  0  0  2  0  0  0  0  0  0
  189.2620  177.9550  138.0520 C   0  0  2  0  0  3  0  0  0  0  0  0
  188.4350  178.7970  138.8010 C   0  0  2  0  0  0  0  0  0  0  0  0
  189.3640  177.9050  139.5480 N   0  0  0  0  0  0  0  0  0  0  0  0
  191.4090  175.7530  144.2370 F   0  0  0  0  0  0  0  0  0  0  0  0
  191.7030  177.0290  142.2410 C   0  0  0  0  0  3  0  0  0  0  0  0
  189.8710  177.3560  140.7590 C   0  0  0  0  0  0  0  0  0  0  0  0
  190.8930  176.2810  143.1020 C   0  0  0  0  0  0  0  0  0  0  0  0
  191.1770  177.5500  141.0980 N   0  0  0  0  0  0  0  0  0  0  0  0
  189.0340  176.6040  141.5900 C   0  0  0  0  0  3  0  0  0  0  0  0
  189.5530  176.0650  142.7700 C   0  0  0  0  0  3  0  0  0  0  0  0
  184.7950  179.7180  143.5550 C   0  0  0  0  0  2  0  0  0  0  0  0
  184.5280  178.8450  144.7710 C   0  0  2  0  0  3  0  0  0  0  0  0
  183.3630  179.2850  145.4060 O   0  0  0  0  0  1  0  0  0  0  0  0
  185.7130  178.9170  145.7280 C   0  0  1  0  0  3  0  0  0  0  0  0
  185.3140  179.4540  146.9510 O   0  0  0  0  0  1  0  0  0  0  0  0
  186.2620  177.5190  145.9610 C   0  0  0  0  0  2  0  0  0  0  0  0
  190.0620  177.6680  147.9550 C   0  0  0  0  0  3  0  0  0  0  0  0
  187.6520  177.9830  147.9980 C   0  0  0  0  0  3  0  0  0  0  0  0
  188.8940  178.0280  148.6440 C   0  0  0  0  0  3  0  0  0  0  0  0
  189.9890  177.2680  146.6180 C   0  0  0  0  0  3  0  0  0  0  0  0
  187.5770  177.5770  146.6610 C   0  0  0  0  0  0  0  0  0  0  0  0
  188.7480  177.2250  145.9710 C   0  0  0  0  0  3  0  0  0  0  0  0
  1 10  1  1  0  0  0
  2  1  1  0  0  0  0
  2 28  1  1  0  0  0
  4  5  1  0  0  0  0
  5  3  2  0  0  0  0
  6 16  1  0  0  0  0
  7  6  1  6  0  0  0
  7  4  1  0  0  0  0
  7 14  1  0  0  0  0
  8  5  1  6  0  0  0
  8  2  1  0  0  0  0
  9 13  2  0  0  0  0
 11  4  2  0  0  0  0
 12 13  1  0  0  0  0
 14 12  1  6  0  0  0
 14  8  1  0  0  0  0
 15 13  1  6  0  0  0
 15 10  1  0  0  0  0
 15  1  1  0  0  0  0
 16 12  1  0  0  0  0
 17 19  1  0  0  0  0
 18 17  1  6  0  0  0
 18 19  1  0  0  0  0
 18 20  1  0  0  0  0
 19 11  1  1  0  0  0
 19 20  1  0  0  0  0
 20 23  1  0  0  0  0
 22 24  1  0  0  0  0
 23 25  1  0  0  0  0
 23 26  2  0  0  0  0
 24 21  1  0  0  0  0
 25 22  2  0  0  0  0
 26 27  1  0  0  0  0
 27 24  2  0  0  0  0
 28 29  1  0  0  0  0
 29 30  1  1  0  0  0
 29 31  1  0  0  0  0
 31 33  1  0  0  0  0
 31 32  1  1  0  0  0
 33 38  1  0  0  0  0
 34 36  1  0  0  0  0
 35 36  2  0  0  0  0
 37 34  2  0  0  0  0
 38 35  1  0  0  0  0
 39 37  1  0  0  0  0
 39 38  2  0  0  0  0
M  END
>  <MODEL>
2

>  <REMARK>
 VINA RESULT:      -9.4      3.808      7.600
  Name = 
  7 active torsions:
  status: ('A' for Active; 'I' for Inactive)
    1  A    between atoms: C_4  and  C_36
    2  A    between atoms: C_6  and  C_18
    3  A    between atoms: C_6  and  C_36
    4  A    between atoms: C_17  and  N_39
    5  A    between atoms: C_18  and  C_32
    6  A    between atoms: N_22  and  C_23
    7  A    between atoms: C_32  and  C_35
                            x       y       z     vdW  Elec       q    Type
                         _______ _______ _______ _____ _____    ______ ____

>  <TORSDO>
F 7

$$$$
=
 OpenBabel11062417453D

 39 46  0  0  1  0  0  0  0  0999 V2000
  187.9170  177.4480  144.8970 C   0  0  1  0  0  3  0  0  0  0  0  0
  187.6130  178.4140  143.7430 C   0  0  2  0  0  3  0  0  0  0  0  0
  186.7450  178.6180  140.7610 O   0  0  0  0  0  0  0  0  0  0  0  0
  184.4790  178.6670  141.6780 C   0  0  0  0  0  0  0  0  0  0  0  0
  185.9340  178.4810  141.7140 C   0  0  0  0  0  0  0  0  0  0  0  0
  183.3420  179.3290  143.7060 O   0  0  0  0  0  0  0  0  0  0  0  0
  183.9430  178.2490  143.0060 C   0  0  2  0  0  3  0  0  0  0  0  0
  186.3030  178.0730  143.0680 C   0  0  2  0  0  3  0  0  0  0  0  0
  185.7810  179.3310  147.0450 O   0  0  0  0  0  0  0  0  0  0  0  0
  188.2860  178.1950  146.0330 O   0  0  0  0  0  0  0  0  0  0  0  0
  183.6940  179.0760  140.7110 N   0  0  0  0  0  0  0  0  0  0  0  0
  184.9730  178.5250  145.0090 N   0  0  0  0  0  0  0  0  0  0  0  0
  185.9250  178.5300  146.0800 C   0  0  0  0  0  0  0  0  0  0  0  0
  185.1640  177.9580  143.7530 C   0  0  1  0  0  3  0  0  0  0  0  0
  187.0480  177.5290  146.1170 C   0  0  1  0  0  3  0  0  0  0  0  0
  183.7870  179.2720  145.0130 N   0  0  0  0  0  2  0  0  0  0  0  0
  182.8810  180.5170  138.8290 C   0  0  0  0  0  2  0  0  0  0  0  0
  182.9390  179.0500  138.4960 C   0  0  2  0  0  3  0  0  0  0  0  0
  183.9270  179.5650  139.3410 C   0  0  2  0  0  0  0  0  0  0  0  0
  184.3390  178.5320  138.3510 N   0  0  0  0  0  0  0  0  0  0  0  0
  188.0760  175.0490  136.1810 F   0  0  0  0  0  0  0  0  0  0  0  0
  185.8740  175.4830  136.9930 C   0  0  0  0  0  3  0  0  0  0  0  0
  185.3050  177.6540  137.7840 C   0  0  0  0  0  0  0  0  0  0  0  0
  187.1720  175.9140  136.7000 C   0  0  0  0  0  0  0  0  0  0  0  0
  184.9740  176.3580  137.5220 N   0  0  0  0  0  0  0  0  0  0  0  0
  186.5980  178.1160  137.5140 C   0  0  0  0  0  3  0  0  0  0  0  0
  187.5340  177.2360  136.9670 C   0  0  0  0  0  3  0  0  0  0  0  0
  188.7810  178.3770  142.7650 C   0  0  0  0  0  2  0  0  0  0  0  0
  189.9610  177.6240  143.3590 C   0  0  2  0  0  3  0  0  0  0  0  0
  190.9850  178.5290  143.6500 O   0  0  0  0  0  1  0  0  0  0  0  0
  190.4500  176.5710  142.3700 C   0  0  1  0  0  3  0  0  0  0  0  0
  190.0930  175.2960  142.8060 O   0  0  0  0  0  1  0  0  0  0  0  0
  189.8160  176.8200  141.0110 C   0  0  0  0  0  2  0  0  0  0  0  0
  192.7600  176.5390  137.8990 C   0  0  0  0  0  3  0  0  0  0  0  0
  190.5030  176.1280  138.6990 C   0  0  0  0  0  3  0  0  0  0  0  0
  191.4660  176.0400  137.6860 C   0  0  0  0  0  3  0  0  0  0  0  0
  193.0930  177.1210  139.1250 C   0  0  0  0  0  3  0  0  0  0  0  0
  190.8320  176.7150  139.9260 C   0  0  0  0  0  0  0  0  0  0  0  0
  192.1300  177.2070  140.1380 C   0  0  0  0  0  3  0  0  0  0  0  0
  1 10  1  1  0  0  0
  1 15  1  0  0  0  0
  2 28  1  6  0  0  0
  2  1  1  0  0  0  0
  3  5  2  0  0  0  0
  4  5  1  0  0  0  0
  6 16  1  0  0  0  0
  7  4  1  6  0  0  0
  7  6  1  0  0  0  0
  7 14  1  0  0  0  0
  8  5  1  6  0  0  0
  8  2  1  0  0  0  0
  8 14  1  0  0  0  0
 11  4  2  0  0  0  0
 12 16  1  0  0  0  0
 12 13  1  0  0  0  0
 13 15  1  0  0  0  0
 13  9  2  0  0  0  0
 14 12  1  1  0  0  0
 15 10  1  1  0  0  0
 17 19  1  0  0  0  0
 18 17  1  6  0  0  0
 18 19  1  0  0  0  0
 19 11  1  1  0  0  0
 20 18  1  0  0  0  0
 20 19  1  0  0  0  0
 21 24  1  0  0  0  0
 22 25  1  0  0  0  0
 23 20  1  0  0  0  0
 24 27  1  0  0  0  0
 24 22  2  0  0  0  0
 25 23  2  0  0  0  0
 26 23  1  0  0  0  0
 27 26  2  0  0  0  0
 28 29  1  0  0  0  0
 29 30  1  6  0  0  0
 31 32  1  1  0  0  0
 31 29  1  0  0  0  0
 33 31  1  0  0  0  0
 34 37  1  0  0  0  0
 35 38  2  0  0  0  0
 36 34  2  0  0  0  0
 36 35  1  0  0  0  0
 37 39  2  0  0  0  0
 38 39  1  0  0  0  0
 38 33  1  0  0  0  0
M  END
>  <MODEL>
3

>  <REMARK>
 VINA RESULT:      -9.4      3.022      6.815
  Name = 
  7 active torsions:
  status: ('A' for Active; 'I' for Inactive)
    1  A    between atoms: C_4  and  C_36
    2  A    between atoms: C_6  and  C_18
    3  A    between atoms: C_6  and  C_36
    4  A    between atoms: C_17  and  N_39
    5  A    between atoms: C_18  and  C_32
    6  A    between atoms: N_22  and  C_23
    7  A    between atoms: C_32  and  C_35
                            x       y       z     vdW  Elec       q    Type
                         _______ _______ _______ _____ _____    ______ ____

>  <TORSDO>
F 7

$$$$
=
 OpenBabel11062417453D

 39 46  0  0  1  0  0  0  0  0999 V2000
  190.8960  176.3540  142.5400 C   0  0  1  0  0  3  0  0  0  0  0  0
  189.9180  177.5320  142.4230 C   0  0  2  0  0  3  0  0  0  0  0  0
  187.0600  178.3850  141.5320 O   0  0  0  0  0  0  0  0  0  0  0  0
  186.4410  177.8240  143.8300 C   0  0  0  0  0  0  0  0  0  0  0  0
  187.3150  177.8700  142.6520 C   0  0  0  0  0  0  0  0  0  0  0  0
  187.4520  177.7280  146.0230 O   0  0  0  0  0  0  0  0  0  0  0  0
  187.1230  176.9860  144.8580 C   0  0  2  0  0  3  0  0  0  0  0  0
  188.5600  177.1790  142.9860 C   0  0  2  0  0  3  0  0  0  0  0  0
  191.5560  177.2270  145.9340 O   0  0  0  0  0  0  0  0  0  0  0  0
  192.1090  176.8190  143.0850 O   0  0  0  0  0  0  0  0  0  0  0  0
  185.2570  178.3460  144.0340 N   0  0  0  0  0  0  0  0  0  0  0  0
  189.3600  176.8770  145.2240 N   0  0  0  0  0  0  0  0  0  0  0  0
  190.7780  176.7470  145.0630 C   0  0  0  0  0  0  0  0  0  0  0  0
  188.4090  176.7050  144.2240 C   0  0  1  0  0  3  0  0  0  0  0  0
  191.3540  175.9660  143.9140 C   0  0  1  0  0  3  0  0  0  0  0  0
  188.7480  177.3960  146.3730 N   0  0  0  0  0  2  0  0  0  0  0  0
  183.4650  180.0980  144.0560 C   0  0  0  0  0  2  0  0  0  0  0  0
  183.0450  178.8010  143.4180 C   0  0  2  0  0  3  0  0  0  0  0  0
  184.3690  179.2130  143.2420 C   0  0  2  0  0  0  0  0  0  0  0  0
  183.6930  178.5600  142.0870 N   0  0  0  0  0  0  0  0  0  0  0  0
  183.7210  176.3990  136.9750 F   0  0  0  0  0  0  0  0  0  0  0  0
  182.9390  176.3770  139.2310 C   0  0  0  0  0  3  0  0  0  0  0  0
  183.7020  178.0240  140.7690 C   0  0  0  0  0  0  0  0  0  0  0  0
  183.7160  176.9440  138.2150 C   0  0  0  0  0  0  0  0  0  0  0  0
  182.9470  176.9270  140.4760 N   0  0  0  0  0  0  0  0  0  0  0  0
  184.4990  178.6110  139.7800 C   0  0  0  0  0  3  0  0  0  0  0  0
  184.5020  178.0640  138.4950 C   0  0  0  0  0  3  0  0  0  0  0  0
  189.8350  177.9450  140.9590 C   0  0  0  0  0  2  0  0  0  0  0  0
  190.7240  177.0630  140.0960 C   0  0  2  0  0  3  0  0  0  0  0  0
  191.9490  177.7050  139.8910 O   0  0  0  0  0  1  0  0  0  0  0  0
  190.0390  176.7910  138.7610 C   0  0  1  0  0  3  0  0  0  0  0  0
  190.2910  175.4840  138.3460 O   0  0  0  0  0  1  0  0  0  0  0  0
  188.5370  176.9760  138.9160 C   0  0  0  0  0  2  0  0  0  0  0  0
  186.6130  177.0570  135.0790 C   0  0  0  0  0  3  0  0  0  0  0  0
  187.8210  178.2040  136.8490 C   0  0  0  0  0  3  0  0  0  0  0  0
  187.1940  178.2240  135.5970 C   0  0  0  0  0  3  0  0  0  0  0  0
  186.6540  175.8700  135.8160 C   0  0  0  0  0  3  0  0  0  0  0  0
  187.8690  177.0140  137.5850 C   0  0  0  0  0  0  0  0  0  0  0  0
  187.2800  175.8490  137.0680 C   0  0  0  0  0  3  0  0  0  0  0  0
  1 10  1  6  0  0  0
  1 15  1  0  0  0  0
  2 28  1  6  0  0  0
  2  1  1  0  0  0  0
  2  8  1  0  0  0  0
  3  5  2  0  0  0  0
  4 11  2  0  0  0  0
  5  4  1  0  0  0  0
  6 16  1  0  0  0  0
  7  4  1  6  0  0  0
  7  6  1  0  0  0  0
  8  5  1  1  0  0  0
  8 14  1  0  0  0  0
 12 16  1  0  0  0  0
 13 12  1  0  0  0  0
 13  9  2  0  0  0  0
 14  7  1  0  0  0  0
 14 12  1  1  0  0  0
 15 10  1  6  0  0  0
 15 13  1  0  0  0  0
 18 17  1  6  0  0  0
 19 18  1  0  0  0  0
 19 11  1  1  0  0  0
 19 17  1  0  0  0  0
 20 19  1  0  0  0  0
 20 18  1  0  0  0  0
 21 24  1  0  0  0  0
 22 25  1  0  0  0  0
 23 20  1  0  0  0  0
 24 27  1  0  0  0  0
 24 22  2  0  0  0  0
 25 23  2  0  0  0  0
 26 23  1  0  0  0  0
 27 26  2  0  0  0  0
 29 30  1  6  0  0  0
 29 28  1  0  0  0  0
 31 32  1  1  0  0  0
 31 33  1  0  0  0  0
 31 29  1  0  0  0  0
 34 36  2  0  0  0  0
 34 37  1  0  0  0  0
 35 38  2  0  0  0  0
 36 35  1  0  0  0  0
 37 39  2  0  0  0  0
 38 33  1  0  0  0  0
 39 38  1  0  0  0  0
M  END
>  <MODEL>
4

>  <REMARK>
 VINA RESULT:      -9.3      3.166      6.274
  Name = 
  7 active torsions:
  status: ('A' for Active; 'I' for Inactive)
    1  A    between atoms: C_4  and  C_36
    2  A    between atoms: C_6  and  C_18
    3  A    between atoms: C_6  and  C_36
    4  A    between atoms: C_17  and  N_39
    5  A    between atoms: C_18  and  C_32
    6  A    between atoms: N_22  and  C_23
    7  A    between atoms: C_32  and  C_35
                            x       y       z     vdW  Elec       q    Type
                         _______ _______ _______ _____ _____    ______ ____

>  <TORSDO>
F 7

$$$$
=
 OpenBabel11062417453D

 39 46  0  0  1  0  0  0  0  0999 V2000
  190.8340  176.6130  142.2250 C   0  0  1  0  0  3  0  0  0  0  0  0
  189.8020  177.7490  142.2030 C   0  0  2  0  0  3  0  0  0  0  0  0
  186.8840  178.5180  141.4360 O   0  0  0  0  0  0  0  0  0  0  0  0
  186.3550  177.7950  143.7120 C   0  0  0  0  0  0  0  0  0  0  0  0
  187.1930  177.9510  142.5170 C   0  0  0  0  0  0  0  0  0  0  0  0
  187.4300  177.6190  145.8690 O   0  0  0  0  0  0  0  0  0  0  0  0
  187.1030  176.9310  144.6710 C   0  0  2  0  0  3  0  0  0  0  0  0
  188.4760  177.3000  142.7780 C   0  0  2  0  0  3  0  0  0  0  0  0
  191.5480  177.3160  145.6470 O   0  0  0  0  0  0  0  0  0  0  0  0
  192.0400  177.1020  142.7660 O   0  0  0  0  0  0  0  0  0  0  0  0
  185.1550  178.2490  143.9770 N   0  0  0  0  0  0  0  0  0  0  0  0
  189.3520  176.9060  144.9720 N   0  0  0  0  0  0  0  0  0  0  0  0
  190.7690  176.8520  144.7690 C   0  0  0  0  0  0  0  0  0  0  0  0
  188.3820  176.7480  143.9890 C   0  0  1  0  0  3  0  0  0  0  0  0
  191.3480  176.1670  143.5610 C   0  0  1  0  0  3  0  0  0  0  0  0
  188.7490  177.3270  146.1660 N   0  0  0  0  0  2  0  0  0  0  0  0
  183.2430  179.8600  144.1450 C   0  0  0  0  0  2  0  0  0  0  0  0
  182.9160  178.5990  143.3910 C   0  0  2  0  0  3  0  0  0  0  0  0
  184.2070  179.1190  143.2600 C   0  0  2  0  0  0  0  0  0  0  0  0
  183.5790  178.5260  142.0470 N   0  0  0  0  0  0  0  0  0  0  0  0
  183.7600  176.8410  136.7620 F   0  0  0  0  0  0  0  0  0  0  0  0
  183.0060  176.5440  139.0080 C   0  0  0  0  0  3  0  0  0  0  0  0
  183.6260  178.1120  140.6860 C   0  0  0  0  0  0  0  0  0  0  0  0
  183.7160  177.2700  138.0460 C   0  0  0  0  0  0  0  0  0  0  0  0
  182.9740  176.9800  140.2980 N   0  0  0  0  0  0  0  0  0  0  0  0
  184.3540  178.8580  139.7530 C   0  0  0  0  0  3  0  0  0  0  0  0
  184.3960  178.4310  138.4240 C   0  0  0  0  0  3  0  0  0  0  0  0
  189.6590  178.2430  140.7690 C   0  0  0  0  0  2  0  0  0  0  0  0
  189.7530  177.0860  139.7860 C   0  0  2  0  0  3  0  0  0  0  0  0
  190.9870  177.1390  139.1300 O   0  0  0  0  0  1  0  0  0  0  0  0
  188.6130  177.1740  138.7770 C   0  0  1  0  0  3  0  0  0  0  0  0
  188.2790  178.5060  138.5400 O   0  0  0  0  0  1  0  0  0  0  0  0
  189.0460  176.5360  137.4670 C   0  0  0  0  0  2  0  0  0  0  0  0
  186.8280  172.9310  136.7460 C   0  0  0  0  0  3  0  0  0  0  0  0
  188.9590  174.0800  136.9570 C   0  0  0  0  0  3  0  0  0  0  0  0
  188.2300  172.9070  136.7250 C   0  0  0  0  0  3  0  0  0  0  0  0
  186.1530  174.1290  136.9950 C   0  0  0  0  0  3  0  0  0  0  0  0
  188.2840  175.2800  137.2120 C   0  0  0  0  0  0  0  0  0  0  0  0
  186.8800  175.3030  137.2260 C   0  0  0  0  0  3  0  0  0  0  0  0
  1 10  1  6  0  0  0
  1 15  1  0  0  0  0
  2 28  1  6  0  0  0
  2  1  1  0  0  0  0
  2  8  1  0  0  0  0
  3  5  2  0  0  0  0
  4 11  2  0  0  0  0
  5  4  1  0  0  0  0
  6 16  1  0  0  0  0
  7  4  1  6  0  0  0
  7  6  1  0  0  0  0
  8  5  1  1  0  0  0
  8 14  1  0  0  0  0
 12 16  1  0  0  0  0
 13 12  1  0  0  0  0
 13  9  2  0  0  0  0
 14  7  1  0  0  0  0
 14 12  1  1  0  0  0
 15 10  1  6  0  0  0
 15 13  1  0  0  0  0
 18 17  1  6  0  0  0
 19 18  1  0  0  0  0
 19 11  1  1  0  0  0
 19 17  1  0  0  0  0
 20 19  1  0  0  0  0
 20 18  1  0  0  0  0
 21 24  1  0  0  0  0
 22 25  1  0  0  0  0
 23 20  1  0  0  0  0
 24 27  1  0  0  0  0
 24 22  2  0  0  0  0
 25 23  2  0  0  0  0
 26 23  1  0  0  0  0
 27 26  2  0  0  0  0
 29 30  1  6  0  0  0
 29 28  1  0  0  0  0
 31 32  1  6  0  0  0
 31 29  1  0  0  0  0
 33 31  1  0  0  0  0
 34 37  1  0  0  0  0
 35 38  2  0  0  0  0
 36 34  2  0  0  0  0
 36 35  1  0  0  0  0
 37 39  2  0  0  0  0
 38 39  1  0  0  0  0
 38 33  1  0  0  0  0
M  END
>  <MODEL>
5

>  <REMARK>
 VINA RESULT:      -9.1      3.097      6.262
  Name = 
  7 active torsions:
  status: ('A' for Active; 'I' for Inactive)
    1  A    between atoms: C_4  and  C_36
    2  A    between atoms: C_6  and  C_18
    3  A    between atoms: C_6  and  C_36
    4  A    between atoms: C_17  and  N_39
    5  A    between atoms: C_18  and  C_32
    6  A    between atoms: N_22  and  C_23
    7  A    between atoms: C_32  and  C_35
                            x       y       z     vdW  Elec       q    Type
                         _______ _______ _______ _____ _____    ______ ____

>  <TORSDO>
F 7

$$$$
=
 OpenBabel11062417453D

 39 46  0  0  1  0  0  0  0  0999 V2000
  190.7110  177.2550  139.3820 C   0  0  1  0  0  3  0  0  0  0  0  0
  189.3100  177.1820  140.0070 C   0  0  2  0  0  3  0  0  0  0  0  0
  186.7190  178.7890  140.6350 O   0  0  0  0  0  0  0  0  0  0  0  0
  186.0040  178.0310  138.4230 C   0  0  0  0  0  0  0  0  0  0  0  0
  186.9540  178.2560  139.5190 C   0  0  0  0  0  0  0  0  0  0  0  0
  186.3950  176.1880  136.9080 O   0  0  0  0  0  0  0  0  0  0  0  0
  186.7810  177.5090  137.2610 C   0  0  2  0  0  3  0  0  0  0  0  0
  188.2640  177.7720  139.0870 C   0  0  2  0  0  3  0  0  0  0  0  0
  190.0310  174.3090  137.4920 O   0  0  0  0  0  0  0  0  0  0  0  0
  191.3310  175.9960  139.5040 O   0  0  0  0  0  0  0  0  0  0  0  0
  184.7130  178.2470  138.3540 N   0  0  0  0  0  0  0  0  0  0  0  0
  188.5840  176.1350  137.3680 N   0  0  0  0  0  0  0  0  0  0  0  0
  189.8460  175.5400  137.6950 C   0  0  0  0  0  0  0  0  0  0  0  0
  188.1200  177.3640  137.8250 C   0  0  1  0  0  3  0  0  0  0  0  0
  190.9870  176.3830  138.1940 C   0  0  1  0  0  3  0  0  0  0  0  0
  187.5530  175.4620  136.6980 N   0  0  0  0  0  2  0  0  0  0  0  0
  183.4350  177.7780  140.4570 C   0  0  0  0  0  2  0  0  0  0  0  0
  182.5710  177.9000  139.2310 C   0  0  2  0  0  3  0  0  0  0  0  0
  183.7020  178.7190  139.3140 C   0  0  2  0  0  0  0  0  0  0  0  0
  182.4710  179.3060  138.7170 N   0  0  0  0  0  0  0  0  0  0  0  0
  179.7500  183.4550  136.2290 F   0  0  0  0  0  0  0  0  0  0  0  0
  181.1830  182.6640  137.9670 C   0  0  0  0  0  3  0  0  0  0  0  0
  181.7760  180.3610  138.0620 C   0  0  0  0  0  0  0  0  0  0  0  0
  180.4170  182.4350  136.8190 C   0  0  0  0  0  0  0  0  0  0  0  0
  181.8440  181.6300  138.5570 N   0  0  0  0  0  0  0  0  0  0  0  0
  181.0110  180.0930  136.9220 C   0  0  0  0  0  3  0  0  0  0  0  0
  180.3290  181.1410  136.2990 C   0  0  0  0  0  3  0  0  0  0  0  0
  189.3450  177.8910  141.3540 C   0  0  0  0  0  2  0  0  0  0  0  0
  189.7640  176.9320  142.4590 C   0  0  2  0  0  3  0  0  0  0  0  0
  188.8980  175.8350  142.4690 O   0  0  0  0  0  1  0  0  0  0  0  0
  189.7250  177.6500  143.8040 C   0  0  1  0  0  3  0  0  0  0  0  0
  190.3550  178.8900  143.7090 O   0  0  0  0  0  1  0  0  0  0  0  0
  188.2790  177.8650  144.2230 C   0  0  0  0  0  2  0  0  0  0  0  0
  187.9420  177.8760  148.5020 C   0  0  0  0  0  3  0  0  0  0  0  0
  186.9510  178.2520  146.3150 C   0  0  0  0  0  3  0  0  0  0  0  0
  186.8450  178.2530  147.7120 C   0  0  0  0  0  3  0  0  0  0  0  0
  189.1450  177.5040  147.8970 C   0  0  0  0  0  3  0  0  0  0  0  0
  188.1540  177.8750  145.7080 C   0  0  0  0  0  0  0  0  0  0  0  0
  189.2520  177.5050  146.5010 C   0  0  0  0  0  3  0  0  0  0  0  0
  1 10  1  1  0  0  0
  1  2  1  0  0  0  0
  2 28  1  1  0  0  0
  4  5  1  0  0  0  0
  5  3  2  0  0  0  0
  7  6  1  1  0  0  0
  7 14  1  0  0  0  0
  7  4  1  0  0  0  0
  8  5  1  1  0  0  0
  8  2  1  0  0  0  0
  9 13  2  0  0  0  0
 11  4  2  0  0  0  0
 12 13  1  0  0  0  0
 14 12  1  1  0  0  0
 14  8  1  0  0  0  0
 15 13  1  1  0  0  0
 15  1  1  0  0  0  0
 15 10  1  0  0  0  0
 16  6  1  0  0  0  0
 16 12  1  0  0  0  0
 18 19  1  0  0  0  0
 18 17  1  1  0  0  0
 19 11  1  6  0  0  0
 19 17  1  0  0  0  0
 20 18  1  0  0  0  0
 20 19  1  0  0  0  0
 21 24  1  0  0  0  0
 22 25  1  0  0  0  0
 23 25  2  0  0  0  0
 23 20  1  0  0  0  0
 24 22  2  0  0  0  0
 26 23  1  0  0  0  0
 27 24  1  0  0  0  0
 27 26  2  0  0  0  0
 28 29  1  0  0  0  0
 29 30  1  1  0  0  0
 29 31  1  0  0  0  0
 31 32  1  6  0  0  0
 31 33  1  0  0  0  0
 33 38  1  0  0  0  0
 35 36  1  0  0  0  0
 36 34  2  0  0  0  0
 37 34  1  0  0  0  0
 38 35  2  0  0  0  0
 38 39  1  0  0  0  0
 39 37  2  0  0  0  0
M  END
>  <MODEL>
6

>  <REMARK>
 VINA RESULT:      -9.0      1.153      1.856
  Name = 
  7 active torsions:
  status: ('A' for Active; 'I' for Inactive)
    1  A    between atoms: C_4  and  C_36
    2  A    between atoms: C_6  and  C_18
    3  A    between atoms: C_6  and  C_36
    4  A    between atoms: C_17  and  N_39
    5  A    between atoms: C_18  and  C_32
    6  A    between atoms: N_22  and  C_23
    7  A    between atoms: C_32  and  C_35
                            x       y       z     vdW  Elec       q    Type
                         _______ _______ _______ _____ _____    ______ ____

>  <TORSDO>
F 7

$$$$
=
 OpenBabel11062417453D

 39 46  0  0  1  0  0  0  0  0999 V2000
  181.7410  177.5810  139.7730 C   0  0  1  0  0  3  0  0  0  0  0  0
  182.9600  178.3900  139.3070 C   0  0  2  0  0  3  0  0  0  0  0  0
  186.0600  178.6270  139.4510 O   0  0  0  0  0  0  0  0  0  0  0  0
  186.0190  177.1600  137.4950 C   0  0  0  0  0  0  0  0  0  0  0  0
  185.4580  177.8580  138.6570 C   0  0  0  0  0  0  0  0  0  0  0  0
  184.5580  176.6190  135.6470 O   0  0  0  0  0  0  0  0  0  0  0  0
  184.9580  176.2580  136.9610 C   0  0  2  0  0  3  0  0  0  0  0  0
  184.0470  177.4880  138.7670 C   0  0  2  0  0  3  0  0  0  0  0  0
  180.5690  177.3940  136.4100 O   0  0  0  0  0  0  0  0  0  0  0  0
  180.5750  178.1640  139.2380 O   0  0  0  0  0  0  0  0  0  0  0  0
  187.2170  177.2130  136.9650 N   0  0  0  0  0  0  0  0  0  0  0  0
  182.7300  176.6860  136.9350 N   0  0  0  0  0  0  0  0  0  0  0  0
  181.3890  177.0370  137.3000 C   0  0  0  0  0  0  0  0  0  0  0  0
  183.8130  176.5970  137.8020 C   0  0  1  0  0  3  0  0  0  0  0  0
  180.9180  176.8990  138.7220 C   0  0  1  0  0  3  0  0  0  0  0  0
  183.1770  176.5790  135.6110 N   0  0  0  0  0  2  0  0  0  0  0  0
  189.2540  178.3370  136.0360 C   0  0  0  0  0  2  0  0  0  0  0  0
  189.5570  177.2170  136.9940 C   0  0  2  0  0  3  0  0  0  0  0  0
  188.4280  178.0020  137.2470 C   0  0  2  0  0  0  0  0  0  0  0  0
  189.2300  177.5530  138.4190 N   0  0  0  0  0  0  0  0  0  0  0  0
  190.0850  177.0480  143.8790 F   0  0  0  0  0  0  0  0  0  0  0  0
  190.5550  176.3780  141.6370 C   0  0  0  0  0  3  0  0  0  0  0  0
  189.4460  177.4430  139.8210 C   0  0  0  0  0  0  0  0  0  0  0  0
  189.8740  177.1910  142.5490 C   0  0  0  0  0  0  0  0  0  0  0  0
  190.3310  176.5230  140.3010 N   0  0  0  0  0  0  0  0  0  0  0  0
  188.7390  178.2650  140.7050 C   0  0  0  0  0  3  0  0  0  0  0  0
  188.9580  178.1350  142.0780 C   0  0  0  0  0  3  0  0  0  0  0  0
  183.4520  179.2360  140.4740 C   0  0  0  0  0  2  0  0  0  0  0  0
  183.2880  178.4910  141.7900 C   0  0  2  0  0  3  0  0  0  0  0  0
  182.1810  179.0030  142.4720 O   0  0  0  0  0  1  0  0  0  0  0  0
  184.5490  178.6480  142.6320 C   0  0  1  0  0  3  0  0  0  0  0  0
  185.2820  179.7530  142.2020 O   0  0  0  0  0  1  0  0  0  0  0  0
  184.1640  178.8520  144.0890 C   0  0  0  0  0  2  0  0  0  0  0  0
  187.4090  177.8250  146.7050 C   0  0  0  0  0  3  0  0  0  0  0  0
  186.3180  177.6470  144.5400 C   0  0  0  0  0  3  0  0  0  0  0  0
  187.3750  177.3170  145.3970 C   0  0  0  0  0  3  0  0  0  0  0  0
  186.3830  178.6590  147.1580 C   0  0  0  0  0  3  0  0  0  0  0  0
  185.2930  178.4870  144.9910 C   0  0  0  0  0  0  0  0  0  0  0  0
  185.3250  178.9880  146.3020 C   0  0  0  0  0  3  0  0  0  0  0  0
  1 10  1  6  0  0  0
  2  1  1  0  0  0  0
  2 28  1  1  0  0  0
  4  5  1  0  0  0  0
  5  3  2  0  0  0  0
  7  6  1  6  0  0  0
  7  4  1  0  0  0  0
  7 14  1  0  0  0  0
  8  5  1  6  0  0  0
  8  2  1  0  0  0  0
  9 13  2  0  0  0  0
 11  4  2  0  0  0  0
 12 13  1  0  0  0  0
 14 12  1  6  0  0  0
 14  8  1  0  0  0  0
 15 13  1  6  0  0  0
 15 10  1  0  0  0  0
 15  1  1  0  0  0  0
 16  6  1  0  0  0  0
 16 12  1  0  0  0  0
 17 19  1  0  0  0  0
 18 17  1  6  0  0  0
 18 19  1  0  0  0  0
 18 20  1  0  0  0  0
 19 11  1  6  0  0  0
 19 20  1  0  0  0  0
 20 23  1  0  0  0  0
 22 24  1  0  0  0  0
 23 25  1  0  0  0  0
 23 26  2  0  0  0  0
 24 21  1  0  0  0  0
 25 22  2  0  0  0  0
 26 27  1  0  0  0  0
 27 24  2  0  0  0  0
 28 29  1  0  0  0  0
 29 30  1  1  0  0  0
 29 31  1  0  0  0  0
 31 32  1  6  0  0  0
 31 33  1  0  0  0  0
 33 38  1  0  0  0  0
 34 37  1  0  0  0  0
 35 38  2  0  0  0  0
 35 36  1  0  0  0  0
 36 34  2  0  0  0  0
 38 39  1  0  0  0  0
 39 37  2  0  0  0  0
M  END
>  <MODEL>
7

>  <REMARK>
 VINA RESULT:      -8.8      3.587      7.060
  Name = 
  7 active torsions:
  status: ('A' for Active; 'I' for Inactive)
    1  A    between atoms: C_4  and  C_36
    2  A    between atoms: C_6  and  C_18
    3  A    between atoms: C_6  and  C_36
    4  A    between atoms: C_17  and  N_39
    5  A    between atoms: C_18  and  C_32
    6  A    between atoms: N_22  and  C_23
    7  A    between atoms: C_32  and  C_35
                            x       y       z     vdW  Elec       q    Type
                         _______ _______ _______ _____ _____    ______ ____

>  <TORSDO>
F 7

$$$$
=
 OpenBabel11062417453D

 39 46  0  0  1  0  0  0  0  0999 V2000
  189.6280  177.9710  139.9630 C   0  0  1  0  0  3  0  0  0  0  0  0
  188.1580  177.7540  140.3510 C   0  0  2  0  0  3  0  0  0  0  0  0
  185.3570  179.0970  140.5530 O   0  0  0  0  0  0  0  0  0  0  0  0
  185.0860  178.3130  138.2530 C   0  0  0  0  0  0  0  0  0  0  0  0
  185.8190  178.6090  139.4890 C   0  0  0  0  0  0  0  0  0  0  0  0
  185.8920  176.5420  136.8190 O   0  0  0  0  0  0  0  0  0  0  0  0
  186.0860  177.8870  137.2320 C   0  0  2  0  0  3  0  0  0  0  0  0
  187.2230  178.2590  139.2750 C   0  0  2  0  0  3  0  0  0  0  0  0
  189.5500  175.0070  137.9830 O   0  0  0  0  0  0  0  0  0  0  0  0
  190.3390  176.7750  140.1820 O   0  0  0  0  0  0  0  0  0  0  0  0
  183.8080  178.4070  137.9760 N   0  0  0  0  0  0  0  0  0  0  0  0
  187.9720  176.6890  137.6280 N   0  0  0  0  0  0  0  0  0  0  0  0
  189.2160  176.2110  138.1550 C   0  0  0  0  0  0  0  0  0  0  0  0
  187.3250  177.8600  138.0060 C   0  0  1  0  0  3  0  0  0  0  0  0
  190.1750  177.1500  138.8340 C   0  0  1  0  0  3  0  0  0  0  0  0
  187.1320  175.9330  136.7990 N   0  0  0  0  0  2  0  0  0  0  0  0
  182.0100  177.6260  139.5360 C   0  0  0  0  0  2  0  0  0  0  0  0
  181.4970  178.1260  138.2120 C   0  0  2  0  0  3  0  0  0  0  0  0
  182.6140  178.7640  138.7600 C   0  0  2  0  0  0  0  0  0  0  0  0
  181.6120  179.6130  138.0570 N   0  0  0  0  0  0  0  0  0  0  0  0
  179.8890  184.4640  135.9840 F   0  0  0  0  0  0  0  0  0  0  0  0
  179.9040  182.0780  135.9360 C   0  0  0  0  0  3  0  0  0  0  0  0
  181.1700  180.8650  137.5440 C   0  0  0  0  0  0  0  0  0  0  0  0
  180.3090  183.2880  136.5070 C   0  0  0  0  0  0  0  0  0  0  0  0
  180.3370  180.9000  136.4650 N   0  0  0  0  0  0  0  0  0  0  0  0
  181.6050  182.0560  138.1350 C   0  0  0  0  0  3  0  0  0  0  0  0
  181.1680  183.2740  137.6090 C   0  0  0  0  0  3  0  0  0  0  0  0
  187.9070  178.4400  141.6880 C   0  0  0  0  0  2  0  0  0  0  0  0
  187.1710  177.5120  142.6430 C   0  0  2  0  0  3  0  0  0  0  0  0
  186.2690  178.2590  143.4060 O   0  0  0  0  0  1  0  0  0  0  0  0
  188.1730  176.8050  143.5480 C   0  0  1  0  0  3  0  0  0  0  0  0
  188.7230  175.7040  142.8930 O   0  0  0  0  0  1  0  0  0  0  0  0
  189.2920  177.7670  143.9140 C   0  0  0  0  0  2  0  0  0  0  0  0
  191.1970  176.5710  147.5710 C   0  0  0  0  0  3  0  0  0  0  0  0
  191.2450  176.7920  145.1510 C   0  0  0  0  0  3  0  0  0  0  0  0
  191.8630  176.4050  146.3470 C   0  0  0  0  0  3  0  0  0  0  0  0
  189.9120  177.1180  147.5990 C   0  0  0  0  0  3  0  0  0  0  0  0
  189.9600  177.3460  145.1780 C   0  0  0  0  0  0  0  0  0  0  0  0
  189.2930  177.5040  146.4040 C   0  0  0  0  0  3  0  0  0  0  0  0
  1 10  1  1  0  0  0
  1  2  1  0  0  0  0
  2 28  1  1  0  0  0
  4  5  1  0  0  0  0
  5  3  2  0  0  0  0
  7  6  1  1  0  0  0
  7 14  1  0  0  0  0
  7  4  1  0  0  0  0
  8  5  1  1  0  0  0
  8  2  1  0  0  0  0
  9 13  2  0  0  0  0
 11  4  2  0  0  0  0
 12 13  1  0  0  0  0
 14 12  1  1  0  0  0
 14  8  1  0  0  0  0
 15 13  1  6  0  0  0
 15  1  1  0  0  0  0
 15 10  1  0  0  0  0
 16  6  1  0  0  0  0
 16 12  1  0  0  0  0
 18 19  1  0  0  0  0
 18 17  1  1  0  0  0
 19 11  1  6  0  0  0
 19 17  1  0  0  0  0
 20 18  1  0  0  0  0
 20 19  1  0  0  0  0
 21 24  1  0  0  0  0
 22 25  2  0  0  0  0
 22 24  1  0  0  0  0
 23 20  1  0  0  0  0
 23 26  2  0  0  0  0
 24 27  2  0  0  0  0
 25 23  1  0  0  0  0
 27 26  1  0  0  0  0
 28 29  1  0  0  0  0
 29 30  1  1  0  0  0
 29 31  1  0  0  0  0
 31 32  1  6  0  0  0
 31 33  1  0  0  0  0
 33 38  1  0  0  0  0
 34 37  1  0  0  0  0
 35 38  2  0  0  0  0
 35 36  1  0  0  0  0
 36 34  2  0  0  0  0
 38 39  1  0  0  0  0
 39 37  2  0  0  0  0
M  END
>  <MODEL>
8

>  <REMARK>
 VINA RESULT:      -8.7      1.715      2.691
  Name = 
  7 active torsions:
  status: ('A' for Active; 'I' for Inactive)
    1  A    between atoms: C_4  and  C_36
    2  A    between atoms: C_6  and  C_18
    3  A    between atoms: C_6  and  C_36
    4  A    between atoms: C_17  and  N_39
    5  A    between atoms: C_18  and  C_32
    6  A    between atoms: N_22  and  C_23
    7  A    between atoms: C_32  and  C_35
                            x       y       z     vdW  Elec       q    Type
                         _______ _______ _______ _____ _____    ______ ____

>  <TORSDO>
F 7

$$$$
=
 OpenBabel11062417453D

 39 46  0  0  1  0  0  0  0  0999 V2000
  181.1030  177.8590  138.0580 C   0  0  1  0  0  3  0  0  0  0  0  0
  182.4110  178.6460  137.8970 C   0  0  2  0  0  3  0  0  0  0  0  0
  185.2190  179.1900  139.1260 O   0  0  0  0  0  0  0  0  0  0  0  0
  185.9260  177.3150  137.7240 C   0  0  0  0  0  0  0  0  0  0  0  0
  184.9640  178.2080  138.3810 C   0  0  0  0  0  0  0  0  0  0  0  0
  185.2850  176.2330  135.6600 O   0  0  0  0  0  0  0  0  0  0  0  0
  185.1470  176.2220  137.0740 C   0  0  2  0  0  3  0  0  0  0  0  0
  183.6180  177.7460  138.0440 C   0  0  2  0  0  3  0  0  0  0  0  0
  181.3120  176.7980  134.6600 O   0  0  0  0  0  0  0  0  0  0  0  0
  180.2350  178.1950  137.0010 O   0  0  0  0  0  0  0  0  0  0  0  0
  187.2360  177.3530  137.6850 N   0  0  0  0  0  0  0  0  0  0  0  0
  183.1030  176.4280  136.1120 N   0  0  0  0  0  0  0  0  0  0  0  0
  181.7260  176.7310  135.8500 C   0  0  0  0  0  0  0  0  0  0  0  0
  183.7680  176.6400  137.3140 C   0  0  1  0  0  3  0  0  0  0  0  0
  180.7440  176.8810  136.9800 C   0  0  1  0  0  3  0  0  0  0  0  0
  184.0230  176.0610  135.1210 N   0  0  0  0  0  2  0  0  0  0  0  0
  189.0510  178.9880  137.1300 C   0  0  0  0  0  2  0  0  0  0  0  0
  189.5230  177.7920  137.9110 C   0  0  2  0  0  3  0  0  0  0  0  0
  188.2490  178.2910  138.1950 C   0  0  2  0  0  0  0  0  0  0  0  0
  189.0650  177.7990  139.3390 N   0  0  0  0  0  0  0  0  0  0  0  0
  189.7160  176.4890  144.6930 F   0  0  0  0  0  0  0  0  0  0  0  0
  190.2740  176.1590  142.3960 C   0  0  0  0  0  3  0  0  0  0  0  0
  189.2290  177.4820  140.7170 C   0  0  0  0  0  0  0  0  0  0  0  0
  189.5550  176.8280  143.3920 C   0  0  0  0  0  0  0  0  0  0  0  0
  190.0990  176.5010  141.0890 N   0  0  0  0  0  0  0  0  0  0  0  0
  188.4840  178.1650  141.6850 C   0  0  0  0  0  3  0  0  0  0  0  0
  188.6520  177.8320  143.0310 C   0  0  0  0  0  3  0  0  0  0  0  0
  182.4210  179.7790  138.9160 C   0  0  0  0  0  2  0  0  0  0  0  0
  181.0470  179.9540  139.5440 C   0  0  2  0  0  3  0  0  0  0  0  0
  180.4650  181.1280  139.0580 O   0  0  0  0  0  1  0  0  0  0  0  0
  181.1790  180.0160  141.0620 C   0  0  1  0  0  3  0  0  0  0  0  0
  180.0000  180.4970  141.6300 O   0  0  0  0  0  1  0  0  0  0  0  0
  181.4530  178.6230  141.6050 C   0  0  0  0  0  2  0  0  0  0  0  0
  184.7850  178.6560  144.3120 C   0  0  0  0  0  3  0  0  0  0  0  0
  182.4050  178.9380  143.9040 C   0  0  0  0  0  3  0  0  0  0  0  0
  183.4960  178.9460  144.7830 C   0  0  0  0  0  3  0  0  0  0  0  0
  184.9850  178.3640  142.9600 C   0  0  0  0  0  3  0  0  0  0  0  0
  182.6040  178.6400  142.5510 C   0  0  0  0  0  0  0  0  0  0  0  0
  183.8960  178.3570  142.0800 C   0  0  0  0  0  3  0  0  0  0  0  0
  1 10  1  6  0  0  0
  2  8  1  0  0  0  0
  2  1  1  0  0  0  0
  2 28  1  1  0  0  0
  4  5  1  0  0  0  0
  5  3  2  0  0  0  0
  7  6  1  6  0  0  0
  7 14  1  0  0  0  0
  7  4  1  0  0  0  0
  8  5  1  6  0  0  0
  9 13  2  0  0  0  0
 11  4  2  0  0  0  0
 13 12  1  0  0  0  0
 14 12  1  6  0  0  0
 14  8  1  0  0  0  0
 15 13  1  6  0  0  0
 15 10  1  0  0  0  0
 15  1  1  0  0  0  0
 16  6  1  0  0  0  0
 16 12  1  0  0  0  0
 17 19  1  0  0  0  0
 18 17  1  1  0  0  0
 18 19  1  0  0  0  0
 18 20  1  0  0  0  0
 19 11  1  6  0  0  0
 19 20  1  0  0  0  0
 20 23  1  0  0  0  0
 22 24  1  0  0  0  0
 23 25  1  0  0  0  0
 23 26  2  0  0  0  0
 24 21  1  0  0  0  0
 25 22  2  0  0  0  0
 26 27  1  0  0  0  0
 27 24  2  0  0  0  0
 28 29  1  0  0  0  0
 29 30  1  6  0  0  0
 29 31  1  0  0  0  0
 31 33  1  0  0  0  0
 31 32  1  1  0  0  0
 33 38  1  0  0  0  0
 34 36  1  0  0  0  0
 35 36  2  0  0  0  0
 37 34  2  0  0  0  0
 38 35  1  0  0  0  0
 39 38  2  0  0  0  0
 39 37  1  0  0  0  0
M  END
>  <MODEL>
9

>  <REMARK>
 VINA RESULT:      -8.7      3.758      7.641
  Name = 
  7 active torsions:
  status: ('A' for Active; 'I' for Inactive)
    1  A    between atoms: C_4  and  C_36
    2  A    between atoms: C_6  and  C_18
    3  A    between atoms: C_6  and  C_36
    4  A    between atoms: C_17  and  N_39
    5  A    between atoms: C_18  and  C_32
    6  A    between atoms: N_22  and  C_23
    7  A    between atoms: C_32  and  C_35
                            x       y       z     vdW  Elec       q    Type
                         _______ _______ _______ _____ _____    ______ ____

>  <TORSDO>
F 7

$$$$
