=
 OpenBabel11062413193D

 30 34  0  0  1  0  0  0  0  0999 V2000
  184.3950  179.1180  142.3300 C   0  0  1  0  0  3  0  0  0  0  0  0
  181.4550  177.9980  141.0840 C   0  0  1  0  0  3  0  0  0  0  0  0
  182.6650  179.5240  143.9850 C   0  0  0  0  0  2  0  0  0  0  0  0
  180.1570  178.4240  141.1350 N   0  0  0  0  0  0  0  0  0  0  0  0
  181.9670  178.1640  137.7950 C   0  0  0  0  0  2  0  0  0  0  0  0
  185.0850  178.9120  143.6820 C   0  0  1  0  0  3  0  0  0  0  0  0
  182.3280  178.9050  140.2070 C   0  0  1  0  0  3  0  0  0  0  0  0
  183.7300  178.3080  140.0640 C   0  0  0  0  0  0  0  0  0  0  0  0
  181.6450  179.2130  138.8600 C   0  0  1  0  0  3  0  0  0  0  0  0
  181.0540  178.6940  142.1890 C   0  0  0  0  0  0  0  0  0  0  0  0
  183.4720  178.0690  137.5840 C   0  0  0  0  0  2  0  0  0  0  0  0
  181.3210  179.2720  143.4710 N   0  0  0  0  0  2  0  0  0  0  0  0
  184.5900  178.0440  141.2680 C   0  0  0  0  0  2  0  0  0  0  0  0
  183.6460  178.4830  143.4830 C   0  0  2  0  0  3  0  0  0  0  0  0
  184.1960  177.8670  138.8830 C   0  0  0  0  0  3  0  0  0  0  0  0
  181.9320  180.6050  138.3930 C   0  0  0  0  0  0  0  0  0  0  0  0
  183.0690  181.2790  138.8220 O   0  0  0  0  0  1  0  0  0  0  0  0
  181.1470  181.1630  137.5830 O   0  0  0  0  0  0  0  0  0  0  0  0
  185.9860  177.6820  143.7380 C   0  0  0  0  0  2  0  0  0  0  0  0
  189.1420  178.0090  146.1660 C   0  0  2  0  0  3  0  0  0  0  0  0
  186.7800  178.1660  146.0250 C   0  0  0  0  0  3  0  0  0  0  0  0
  187.9060  178.2500  146.8250 O   0  0  0  0  0  0  0  0  0  0  0  0
  187.0450  177.8560  144.7720 C   0  0  0  0  0  0  0  0  0  0  0  0
  188.7730  177.5830  144.4250 S   0  0  0  0  0  0  0  0  0  0  0  0
  189.8770  176.8880  146.8310 C   0  0  0  0  0  0  0  0  0  0  0  0
  189.2610  176.1170  147.6160 O   0  0  0  0  0  0  0  0  0  0  0  0
  191.8990  177.3780  145.6970 O   0  0  0  0  0  0  0  0  0  0  0  0
  191.3050  176.6730  146.5550 C   0  0  0  0  0  0  0  0  0  0  0  0
  192.7920  176.2550  148.3390 O   0  0  0  0  0  1  0  0  0  0  0  0
  192.0770  175.6440  147.3090 C   0  0  0  0  0  2  0  0  0  0  0  0
  1 13  1  6  0  0  0
  1 14  1  0  0  0  0
  1  6  1  0  0  0  0
  2  4  1  6  0  0  0
  2 10  1  0  0  0  0
  4 10  2  0  0  0  0
  5  9  1  0  0  0  0
  6 19  1  6  0  0  0
  7  8  1  6  0  0  0
  7  2  1  0  0  0  0
  8 13  1  0  0  0  0
  9 16  1  6  0  0  0
  9  7  1  0  0  0  0
 10 12  1  0  0  0  0
 11  5  1  0  0  0  0
 11 15  1  0  0  0  0
 12  3  1  0  0  0  0
 14  6  1  0  0  0  0
 14  3  1  1  0  0  0
 15  8  2  0  0  0  0
 16 17  1  0  0  0  0
 18 16  2  0  0  0  0
 19 23  1  0  0  0  0
 20 22  1  0  0  0  0
 20 25  1  1  0  0  0
 21 22  1  0  0  0  0
 23 21  2  0  0  0  0
 24 23  1  0  0  0  0
 24 20  1  0  0  0  0
 25 26  2  0  0  0  0
 27 28  2  0  0  0  0
 28 25  1  0  0  0  0
 28 30  1  0  0  0  0
 30 29  1  0  0  0  0
M  END
>  <MODEL>
1

>  <REMARK>
 VINA RESULT:      -7.5      0.000      0.000
  Name = 
  6 active torsions:
  status: ('A' for Active; 'I' for Inactive)
    1  A    between atoms: C_1  and  C_21
    2  A    between atoms: C_2  and  C_8
    3  A    between atoms: C_8  and  C_28
    4  A    between atoms: C_9  and  C_16
    5  A    between atoms: C_9  and  C_17
    6  A    between atoms: C_18  and  C_28
                            x       y       z     vdW  Elec       q    Type
                         _______ _______ _______ _____ _____    ______ ____

>  <TORSDO>
F 6

$$$$
=
 OpenBabel11062413193D

 30 34  0  0  1  0  0  0  0  0999 V2000
  186.4820  178.9950  143.4640 C   0  0  1  0  0  3  0  0  0  0  0  0
  188.7490  176.6850  142.4780 C   0  0  1  0  0  3  0  0  0  0  0  0
  186.4930  178.9280  141.0360 C   0  0  0  0  0  2  0  0  0  0  0  0
  189.6490  176.5870  141.4540 N   0  0  0  0  0  0  0  0  0  0  0  0
  190.8420  176.5920  145.0700 C   0  0  0  0  0  2  0  0  0  0  0  0
  185.0280  179.2500  143.0550 C   0  0  1  0  0  3  0  0  0  0  0  0
  189.1680  177.7290  143.5200 C   0  0  1  0  0  3  0  0  0  0  0  0
  188.2100  177.6980  144.7140 C   0  0  0  0  0  0  0  0  0  0  0  0
  190.6510  177.5710  143.9120 C   0  0  1  0  0  3  0  0  0  0  0  0
  188.4510  177.3150  141.3040 C   0  0  0  0  0  0  0  0  0  0  0  0
  190.0490  177.0490  146.2870 C   0  0  0  0  0  2  0  0  0  0  0  0
  187.5820  178.1180  140.4980 N   0  0  0  0  0  2  0  0  0  0  0  0
  186.7380  177.9450  144.5360 C   0  0  0  0  0  2  0  0  0  0  0  0
  185.8870  178.2830  142.2670 C   0  0  2  0  0  3  0  0  0  0  0  0
  188.6130  177.3150  145.9370 C   0  0  0  0  0  3  0  0  0  0  0  0
  191.3060  178.8920  144.1690 C   0  0  0  0  0  0  0  0  0  0  0  0
  190.6360  180.0810  143.9050 O   0  0  0  0  0  0  0  0  0  0  0  0
  192.4670  178.9260  144.6520 O   0  0  0  0  0  1  0  0  0  0  0  0
  184.0050  178.4750  143.8810 C   0  0  0  0  0  2  0  0  0  0  0  0
  180.5560  178.8920  141.9080 C   0  0  2  0  0  3  0  0  0  0  0  0
  181.5670  178.8290  144.0520 C   0  0  0  0  0  3  0  0  0  0  0  0
  180.4050  178.9840  143.3190 O   0  0  0  0  0  0  0  0  0  0  0  0
  182.6390  178.6370  143.3090 C   0  0  0  0  0  0  0  0  0  0  0  0
  182.3360  178.6620  141.5510 S   0  0  0  0  0  0  0  0  0  0  0  0
  180.0490  180.1360  141.2490 C   0  0  0  0  0  0  0  0  0  0  0  0
  179.6490  181.1000  141.9570 O   0  0  0  0  0  0  0  0  0  0  0  0
  179.5020  179.3430  139.0840 O   0  0  0  0  0  0  0  0  0  0  0  0
  180.0380  180.2430  139.7820 C   0  0  0  0  0  0  0  0  0  0  0  0
  181.9000  181.1170  138.6250 O   0  0  0  0  0  1  0  0  0  0  0  0
  180.6280  181.4330  139.1040 C   0  0  0  0  0  2  0  0  0  0  0  0
  1 13  1  1  0  0  0
  2 10  1  6  0  0  0
  2  7  1  0  0  0  0
  4  2  1  0  0  0  0
  5 11  1  0  0  0  0
  6  1  1  0  0  0  0
  6 19  1  1  0  0  0
  7  9  1  0  0  0  0
  7  8  1  1  0  0  0
  8 15  2  0  0  0  0
  9 16  1  1  0  0  0
  9  5  1  0  0  0  0
 10  4  2  0  0  0  0
 12  3  1  0  0  0  0
 12 10  1  0  0  0  0
 13  8  1  0  0  0  0
 14  3  1  6  0  0  0
 14  6  1  0  0  0  0
 14  1  1  0  0  0  0
 15 11  1  0  0  0  0
 16 18  1  0  0  0  0
 17 16  2  0  0  0  0
 20 25  1  6  0  0  0
 20 22  1  0  0  0  0
 22 21  1  0  0  0  0
 23 19  1  0  0  0  0
 23 21  2  0  0  0  0
 24 20  1  0  0  0  0
 24 23  1  0  0  0  0
 25 26  2  0  0  0  0
 27 28  2  0  0  0  0
 28 25  1  0  0  0  0
 29 30  1  0  0  0  0
 30 28  1  0  0  0  0
M  END
>  <MODEL>
2

>  <REMARK>
 VINA RESULT:      -7.4      3.340      9.396
  Name = 
  6 active torsions:
  status: ('A' for Active; 'I' for Inactive)
    1  A    between atoms: C_1  and  C_21
    2  A    between atoms: C_2  and  C_8
    3  A    between atoms: C_8  and  C_28
    4  A    between atoms: C_9  and  C_16
    5  A    between atoms: C_9  and  C_17
    6  A    between atoms: C_18  and  C_28
                            x       y       z     vdW  Elec       q    Type
                         _______ _______ _______ _____ _____    ______ ____

>  <TORSDO>
F 6

$$$$
=
 OpenBabel11062413193D

 30 34  0  0  1  0  0  0  0  0999 V2000
  186.9140  177.4080  144.6710 C   0  0  1  0  0  3  0  0  0  0  0  0
  189.9880  178.1200  145.8900 C   0  0  1  0  0  3  0  0  0  0  0  0
  186.8690  177.0910  147.0780 C   0  0  0  0  0  2  0  0  0  0  0  0
  190.7820  177.6050  146.8760 N   0  0  0  0  0  0  0  0  0  0  0  0
  191.9460  177.5630  143.2510 C   0  0  0  0  0  2  0  0  0  0  0  0
  185.5100  177.8440  145.1010 C   0  0  1  0  0  3  0  0  0  0  0  0
  189.8750  177.1770  144.6860 C   0  0  1  0  0  3  0  0  0  0  0  0
  189.1000  177.8580  143.5540 C   0  0  0  0  0  0  0  0  0  0  0  0
  191.2550  176.6420  144.2570 C   0  0  1  0  0  3  0  0  0  0  0  0
  189.3760  177.5480  146.9680 C   0  0  0  0  0  0  0  0  0  0  0  0
  191.0750  177.7470  142.0160 C   0  0  0  0  0  2  0  0  0  0  0  0
  188.1950  177.1660  147.6830 N   0  0  0  0  0  2  0  0  0  0  0  0
  187.6930  178.3450  143.7580 C   0  0  0  0  0  2  0  0  0  0  0  0
  186.7040  178.1290  145.9860 C   0  0  2  0  0  3  0  0  0  0  0  0
  189.6840  178.1740  142.3860 C   0  0  0  0  0  3  0  0  0  0  0  0
  191.1820  175.2270  143.7760 C   0  0  0  0  0  0  0  0  0  0  0  0
  192.1130  174.2840  144.1950 O   0  0  0  0  0  1  0  0  0  0  0  0
  190.2510  174.8810  143.0040 O   0  0  0  0  0  0  0  0  0  0  0  0
  185.0320  179.1380  144.4470 C   0  0  0  0  0  2  0  0  0  0  0  0
  182.8710  178.2440  141.2080 C   0  0  2  0  0  3  0  0  0  0  0  0
  182.7800  179.0360  143.4400 C   0  0  0  0  0  3  0  0  0  0  0  0
  182.0820  178.7280  142.2870 O   0  0  0  0  0  0  0  0  0  0  0  0
  184.0800  178.8440  143.3390 C   0  0  0  0  0  0  0  0  0  0  0  0
  184.6220  178.2740  141.7390 S   0  0  0  0  0  0  0  0  0  0  0  0
  182.6800  179.1020  139.9970 C   0  0  0  0  0  0  0  0  0  0  0  0
  181.5450  179.5940  139.7540 O   0  0  0  0  0  0  0  0  0  0  0  0
  184.2570  180.5640  139.0010 O   0  0  0  0  0  0  0  0  0  0  0  0
  183.8150  179.3890  139.1070 C   0  0  0  0  0  0  0  0  0  0  0  0
  185.8080  178.6310  138.0970 O   0  0  0  0  0  1  0  0  0  0  0  0
  184.4780  178.2930  138.3450 C   0  0  0  0  0  2  0  0  0  0  0  0
  1 13  1  6  0  0  0
  1  6  1  0  0  0  0
  1 14  1  0  0  0  0
  2  4  1  1  0  0  0
  2 10  1  0  0  0  0
  3 12  1  0  0  0  0
  4 10  2  0  0  0  0
  5  9  1  0  0  0  0
  6 19  1  6  0  0  0
  6 14  1  0  0  0  0
  7  8  1  6  0  0  0
  7  2  1  0  0  0  0
  8 13  1  0  0  0  0
  9 16  1  6  0  0  0
  9  7  1  0  0  0  0
 10 12  1  0  0  0  0
 11 15  1  0  0  0  0
 11  5  1  0  0  0  0
 14  3  1  1  0  0  0
 15  8  2  0  0  0  0
 16 17  1  0  0  0  0
 18 16  2  0  0  0  0
 20 25  1  6  0  0  0
 20 24  1  0  0  0  0
 20 22  1  0  0  0  0
 22 21  1  0  0  0  0
 23 21  2  0  0  0  0
 23 19  1  0  0  0  0
 24 23  1  0  0  0  0
 26 25  2  0  0  0  0
 27 28  2  0  0  0  0
 28 25  1  0  0  0  0
 29 30  1  0  0  0  0
 30 28  1  0  0  0  0
M  END
>  <MODEL>
3

>  <REMARK>
 VINA RESULT:      -7.3      3.430      8.941
  Name = 
  6 active torsions:
  status: ('A' for Active; 'I' for Inactive)
    1  A    between atoms: C_1  and  C_21
    2  A    between atoms: C_2  and  C_8
    3  A    between atoms: C_8  and  C_28
    4  A    between atoms: C_9  and  C_16
    5  A    between atoms: C_9  and  C_17
    6  A    between atoms: C_18  and  C_28
                            x       y       z     vdW  Elec       q    Type
                         _______ _______ _______ _____ _____    ______ ____

>  <TORSDO>
F 6

$$$$
=
 OpenBabel11062413193D

 30 34  0  0  1  0  0  0  0  0999 V2000
  190.9840  175.9530  138.8570 C   0  0  1  0  0  3  0  0  0  0  0  0
  188.9160  178.4140  139.9130 C   0  0  1  0  0  3  0  0  0  0  0  0
  189.0930  176.0620  137.3360 C   0  0  0  0  0  2  0  0  0  0  0  0
  187.5610  178.5850  139.9650 N   0  0  0  0  0  0  0  0  0  0  0  0
  189.6240  178.5900  143.1660 C   0  0  0  0  0  2  0  0  0  0  0  0
  191.5640  175.6180  137.4790 C   0  0  1  0  0  3  0  0  0  0  0  0
  189.4090  177.3800  140.9330 C   0  0  1  0  0  3  0  0  0  0  0  0
  190.9390  177.3320  140.9380 C   0  0  0  0  0  0  0  0  0  0  0  0
  188.7930  177.6210  142.3250 C   0  0  1  0  0  3  0  0  0  0  0  0
  188.1570  177.7870  138.9670 C   0  0  0  0  0  0  0  0  0  0  0  0
  191.0440  178.0640  143.3310 C   0  0  0  0  0  2  0  0  0  0  0  0
  188.0340  176.9470  137.8140 N   0  0  0  0  0  2  0  0  0  0  0  0
  191.7110  176.9990  139.6910 C   0  0  0  0  0  2  0  0  0  0  0  0
  190.4630  176.6480  137.6160 C   0  0  2  0  0  3  0  0  0  0  0  0
  191.6580  177.7180  142.0050 C   0  0  0  0  0  3  0  0  0  0  0  0
  188.5140  176.3390  143.0430 C   0  0  0  0  0  0  0  0  0  0  0  0
  189.2470  175.1920  142.7620 O   0  0  0  0  0  0  0  0  0  0  0  0
  187.6230  176.3050  143.9300 O   0  0  0  0  0  1  0  0  0  0  0  0
  192.8870  176.3140  137.1750 C   0  0  0  0  0  2  0  0  0  0  0  0
  195.5520  173.5770  136.0060 C   0  0  2  0  0  3  0  0  0  0  0  0
  194.1880  175.3810  135.2960 C   0  0  0  0  0  3  0  0  0  0  0  0
  195.1260  174.4250  134.9490 O   0  0  0  0  0  0  0  0  0  0  0  0
  193.8560  175.3570  136.5710 C   0  0  0  0  0  0  0  0  0  0  0  0
  194.7180  174.1320  137.5380 S   0  0  0  0  0  0  0  0  0  0  0  0
  197.0380  173.6510  136.1670 C   0  0  0  0  0  0  0  0  0  0  0  0
  197.7660  172.7530  135.6640 O   0  0  0  0  0  0  0  0  0  0  0  0
  197.5950  175.9410  136.4110 O   0  0  0  0  0  0  0  0  0  0  0  0
  197.6490  174.7780  136.8890 C   0  0  0  0  0  0  0  0  0  0  0  0
  198.2290  175.7330  138.9670 O   0  0  0  0  0  1  0  0  0  0  0  0
  198.3080  174.5640  138.2090 C   0  0  0  0  0  2  0  0  0  0  0  0
  1 13  1  1  0  0  0
  2 10  1  6  0  0  0
  2  4  1  0  0  0  0
  2  7  1  0  0  0  0
  3 12  1  0  0  0  0
  5 11  1  0  0  0  0
  6 19  1  1  0  0  0
  6 14  1  0  0  0  0
  6  1  1  0  0  0  0
  7  8  1  1  0  0  0
  7  9  1  0  0  0  0
  8 15  2  0  0  0  0
  9 16  1  1  0  0  0
  9  5  1  0  0  0  0
 10  4  2  0  0  0  0
 12 10  1  0  0  0  0
 13  8  1  0  0  0  0
 14  3  1  6  0  0  0
 14  1  1  0  0  0  0
 15 11  1  0  0  0  0
 16 18  1  0  0  0  0
 17 16  2  0  0  0  0
 20 25  1  1  0  0  0
 20 24  1  0  0  0  0
 21 23  2  0  0  0  0
 22 21  1  0  0  0  0
 22 20  1  0  0  0  0
 23 19  1  0  0  0  0
 23 24  1  0  0  0  0
 25 28  1  0  0  0  0
 26 25  2  0  0  0  0
 27 28  2  0  0  0  0
 28 30  1  0  0  0  0
 30 29  1  0  0  0  0
M  END
>  <MODEL>
4

>  <REMARK>
 VINA RESULT:      -7.1      8.133     10.170
  Name = 
  6 active torsions:
  status: ('A' for Active; 'I' for Inactive)
    1  A    between atoms: C_1  and  C_21
    2  A    between atoms: C_2  and  C_8
    3  A    between atoms: C_8  and  C_28
    4  A    between atoms: C_9  and  C_16
    5  A    between atoms: C_9  and  C_17
    6  A    between atoms: C_18  and  C_28
                            x       y       z     vdW  Elec       q    Type
                         _______ _______ _______ _____ _____    ______ ____

>  <TORSDO>
F 6

$$$$
=
 OpenBabel11062413193D

 30 34  0  0  1  0  0  0  0  0999 V2000
  186.7790  177.4170  144.0250 C   0  0  1  0  0  3  0  0  0  0  0  0
  189.7930  178.3390  145.2540 C   0  0  1  0  0  3  0  0  0  0  0  0
  186.6480  177.3990  146.4500 C   0  0  0  0  0  2  0  0  0  0  0  0
  190.5570  177.9660  146.3240 N   0  0  0  0  0  0  0  0  0  0  0  0
  191.8580  177.5010  142.7760 C   0  0  0  0  0  2  0  0  0  0  0  0
  185.3520  177.8740  144.3470 C   0  0  1  0  0  3  0  0  0  0  0  0
  189.7410  177.2530  144.1730 C   0  0  1  0  0  3  0  0  0  0  0  0
  188.9980  177.7710  142.9390 C   0  0  0  0  0  0  0  0  0  0  0  0
  191.1450  176.6970  143.8630 C   0  0  1  0  0  3  0  0  0  0  0  0
  189.1500  177.8920  146.3730 C   0  0  0  0  0  0  0  0  0  0  0  0
  191.0310  177.5130  141.4980 C   0  0  0  0  0  2  0  0  0  0  0  0
  187.9500  177.5770  147.0870 N   0  0  0  0  0  2  0  0  0  0  0  0
  187.5760  178.2510  143.0310 C   0  0  0  0  0  2  0  0  0  0  0  0
  186.5080  178.2910  145.2320 C   0  0  2  0  0  3  0  0  0  0  0  0
  189.6200  177.9530  141.7620 C   0  0  0  0  0  3  0  0  0  0  0  0
  191.1130  175.2320  143.5600 C   0  0  0  0  0  0  0  0  0  0  0  0
  192.0830  174.3790  144.0710 O   0  0  0  0  0  1  0  0  0  0  0  0
  190.1820  174.7640  142.8550 O   0  0  0  0  0  0  0  0  0  0  0  0
  184.8790  179.0660  143.5210 C   0  0  0  0  0  2  0  0  0  0  0  0
  181.0780  178.8290  142.3150 C   0  0  2  0  0  3  0  0  0  0  0  0
  182.5090  178.9440  144.2020 C   0  0  0  0  0  3  0  0  0  0  0  0
  181.2110  178.8790  143.7290 O   0  0  0  0  0  0  0  0  0  0  0  0
  183.4180  178.9670  143.2470 C   0  0  0  0  0  0  0  0  0  0  0  0
  182.7550  178.9480  141.5920 S   0  0  0  0  0  0  0  0  0  0  0  0
  180.2220  179.9570  141.8320 C   0  0  0  0  0  0  0  0  0  0  0  0
  179.8970  180.8790  142.6290 O   0  0  0  0  0  0  0  0  0  0  0  0
  179.2230  179.0030  139.9070 O   0  0  0  0  0  0  0  0  0  0  0  0
  179.7800  180.0030  140.4300 C   0  0  0  0  0  0  0  0  0  0  0  0
  181.1650  181.1870  138.9300 O   0  0  0  0  0  1  0  0  0  0  0  0
  179.9550  181.2430  139.6210 C   0  0  0  0  0  2  0  0  0  0  0  0
  1 13  1  6  0  0  0
  1  6  1  0  0  0  0
  1 14  1  0  0  0  0
  2  4  1  1  0  0  0
  2 10  1  0  0  0  0
  3 12  1  0  0  0  0
  4 10  2  0  0  0  0
  5  9  1  0  0  0  0
  6 19  1  6  0  0  0
  6 14  1  0  0  0  0
  7  8  1  6  0  0  0
  7  2  1  0  0  0  0
  8 13  1  0  0  0  0
  9 16  1  6  0  0  0
  9  7  1  0  0  0  0
 10 12  1  0  0  0  0
 11 15  1  0  0  0  0
 11  5  1  0  0  0  0
 14  3  1  1  0  0  0
 15  8  2  0  0  0  0
 16 17  1  0  0  0  0
 18 16  2  0  0  0  0
 20 25  1  6  0  0  0
 20 22  1  0  0  0  0
 22 21  1  0  0  0  0
 23 19  1  0  0  0  0
 23 21  2  0  0  0  0
 24 20  1  0  0  0  0
 24 23  1  0  0  0  0
 25 26  2  0  0  0  0
 27 28  2  0  0  0  0
 28 25  1  0  0  0  0
 29 30  1  0  0  0  0
 30 28  1  0  0  0  0
M  END
>  <MODEL>
5

>  <REMARK>
 VINA RESULT:      -7.1      3.761      9.470
  Name = 
  6 active torsions:
  status: ('A' for Active; 'I' for Inactive)
    1  A    between atoms: C_1  and  C_21
    2  A    between atoms: C_2  and  C_8
    3  A    between atoms: C_8  and  C_28
    4  A    between atoms: C_9  and  C_16
    5  A    between atoms: C_9  and  C_17
    6  A    between atoms: C_18  and  C_28
                            x       y       z     vdW  Elec       q    Type
                         _______ _______ _______ _____ _____    ______ ____

>  <TORSDO>
F 6

$$$$
=
 OpenBabel11062413193D

 30 34  0  0  1  0  0  0  0  0999 V2000
  183.8630  178.0980  141.8450 C   0  0  1  0  0  3  0  0  0  0  0  0
  182.0980  180.1010  139.7660 C   0  0  1  0  0  3  0  0  0  0  0  0
  185.3650  178.9170  140.1220 C   0  0  0  0  0  2  0  0  0  0  0  0
  182.0920  180.3320  138.4190 N   0  0  0  0  0  0  0  0  0  0  0  0
  178.9900  178.9600  140.1480 C   0  0  0  0  0  2  0  0  0  0  0  0
  185.2110  178.2790  142.5490 C   0  0  1  0  0  3  0  0  0  0  0  0
  181.5270  178.7220  140.1180 C   0  0  1  0  0  3  0  0  0  0  0  0
  181.4200  178.5680  141.6380 C   0  0  0  0  0  0  0  0  0  0  0  0
  180.2050  178.4500  139.3740 C   0  0  1  0  0  3  0  0  0  0  0  0
  183.2720  179.9410  139.0850 C   0  0  0  0  0  0  0  0  0  0  0  0
  178.9310  178.3130  141.5250 C   0  0  0  0  0  2  0  0  0  0  0  0
  184.6660  179.6200  139.0500 N   0  0  0  0  0  2  0  0  0  0  0  0
  182.6320  178.6880  142.5190 C   0  0  0  0  0  2  0  0  0  0  0  0
  184.7720  179.2520  141.4750 C   0  0  2  0  0  3  0  0  0  0  0  0
  180.2330  178.4620  142.2580 C   0  0  0  0  0  3  0  0  0  0  0  0
  180.0690  177.0130  138.9810 C   0  0  0  0  0  0  0  0  0  0  0  0
  181.0500  176.0880  139.3170 O   0  0  0  0  0  1  0  0  0  0  0  0
  179.0420  176.6330  138.3610 O   0  0  0  0  0  0  0  0  0  0  0  0
  185.1130  178.9440  143.9190 C   0  0  0  0  0  2  0  0  0  0  0  0
  187.3410  177.4340  146.8720 C   0  0  2  0  0  3  0  0  0  0  0  0
  186.7440  177.2150  144.5880 C   0  0  0  0  0  3  0  0  0  0  0  0
  187.5070  176.7430  145.6400 O   0  0  0  0  0  0  0  0  0  0  0  0
  185.9930  178.2520  144.9020 C   0  0  0  0  0  0  0  0  0  0  0  0
  186.1720  178.8130  146.5850 S   0  0  0  0  0  0  0  0  0  0  0  0
  188.6550  177.9580  147.3560 C   0  0  0  0  0  0  0  0  0  0  0  0
  188.7140  178.5790  148.4520 O   0  0  0  0  0  0  0  0  0  0  0  0
  190.0990  178.4120  145.5330 O   0  0  0  0  0  0  0  0  0  0  0  0
  189.8770  177.7330  146.5700 C   0  0  0  0  0  0  0  0  0  0  0  0
  191.7450  176.4320  145.9480 O   0  0  0  0  0  1  0  0  0  0  0  0
  190.8850  176.7240  147.0060 C   0  0  0  0  0  2  0  0  0  0  0  0
  1 13  1  1  0  0  0
  1  6  1  0  0  0  0
  2  4  1  6  0  0  0
  2  7  1  0  0  0  0
  4 10  2  0  0  0  0
  5 11  1  0  0  0  0
  6 19  1  1  0  0  0
  7  8  1  1  0  0  0
  8 15  2  0  0  0  0
  8 13  1  0  0  0  0
  9 16  1  1  0  0  0
  9  7  1  0  0  0  0
  9  5  1  0  0  0  0
 10  2  1  0  0  0  0
 11 15  1  0  0  0  0
 12 10  1  0  0  0  0
 12  3  1  0  0  0  0
 14  3  1  6  0  0  0
 14  1  1  0  0  0  0
 14  6  1  0  0  0  0
 16 17  1  0  0  0  0
 18 16  2  0  0  0  0
 19 23  1  0  0  0  0
 20 25  1  6  0  0  0
 21 23  2  0  0  0  0
 21 22  1  0  0  0  0
 22 20  1  0  0  0  0
 23 24  1  0  0  0  0
 24 20  1  0  0  0  0
 25 26  2  0  0  0  0
 27 28  2  0  0  0  0
 28 30  1  0  0  0  0
 28 25  1  0  0  0  0
 29 30  1  0  0  0  0
M  END
>  <MODEL>
6

>  <REMARK>
 VINA RESULT:      -7.1      2.375      3.287
  Name = 
  6 active torsions:
  status: ('A' for Active; 'I' for Inactive)
    1  A    between atoms: C_1  and  C_21
    2  A    between atoms: C_2  and  C_8
    3  A    between atoms: C_8  and  C_28
    4  A    between atoms: C_9  and  C_16
    5  A    between atoms: C_9  and  C_17
    6  A    between atoms: C_18  and  C_28
                            x       y       z     vdW  Elec       q    Type
                         _______ _______ _______ _____ _____    ______ ____

>  <TORSDO>
F 6

$$$$
=
 OpenBabel11062413193D

 30 34  0  0  1  0  0  0  0  0999 V2000
  189.3790  176.6180  139.5400 C   0  0  1  0  0  3  0  0  0  0  0  0
  189.2970  177.4820  136.2700 C   0  0  1  0  0  3  0  0  0  0  0  0
  191.5070  176.0090  138.5390 C   0  0  0  0  0  2  0  0  0  0  0  0
  189.7710  176.9330  135.1110 N   0  0  0  0  0  0  0  0  0  0  0  0
  186.0310  177.4450  135.6070 C   0  0  0  0  0  2  0  0  0  0  0  0
  190.4170  176.8560  140.6410 C   0  0  1  0  0  3  0  0  0  0  0  0
  188.1220  176.6850  136.8490 C   0  0  1  0  0  3  0  0  0  0  0  0
  187.5340  177.4150  138.0590 C   0  0  0  0  0  0  0  0  0  0  0  0
  187.0800  176.3450  135.7650 C   0  0  1  0  0  3  0  0  0  0  0  0
  190.4320  176.7250  136.3390 C   0  0  0  0  0  0  0  0  0  0  0  0
  185.3160  177.6890  136.9290 C   0  0  0  0  0  2  0  0  0  0  0  0
  191.5070  176.1440  137.0850 N   0  0  0  0  0  2  0  0  0  0  0  0
  188.3780  177.7310  139.2630 C   0  0  0  0  0  2  0  0  0  0  0  0
  190.7550  177.1500  139.1950 C   0  0  2  0  0  3  0  0  0  0  0  0
  186.2920  177.9270  138.0440 C   0  0  0  0  0  3  0  0  0  0  0  0
  186.4660  174.9980  135.9810 C   0  0  0  0  0  0  0  0  0  0  0  0
  186.8890  174.1830  137.0240 O   0  0  0  0  0  1  0  0  0  0  0  0
  185.5370  174.6110  135.2260 O   0  0  0  0  0  0  0  0  0  0  0  0
  190.2260  178.1650  141.4030 C   0  0  0  0  0  2  0  0  0  0  0  0
  188.7770  177.1170  144.9750 C   0  0  2  0  0  3  0  0  0  0  0  0
  190.2460  178.5890  143.8350 C   0  0  0  0  0  3  0  0  0  0  0  0
  189.7000  178.1970  145.0440 O   0  0  0  0  0  0  0  0  0  0  0  0
  189.8000  177.8980  142.8050 C   0  0  0  0  0  0  0  0  0  0  0  0
  188.5820  176.6610  143.2140 S   0  0  0  0  0  0  0  0  0  0  0  0
  187.4600  177.5200  145.5580 C   0  0  0  0  0  0  0  0  0  0  0  0
  186.4320  177.5350  144.8260 O   0  0  0  0  0  0  0  0  0  0  0  0
  186.4820  178.6960  147.3680 O   0  0  0  0  0  0  0  0  0  0  0  0
  187.3570  177.8770  146.9810 C   0  0  0  0  0  0  0  0  0  0  0  0
  188.9090  178.2460  148.7190 O   0  0  0  0  0  1  0  0  0  0  0  0
  188.2620  177.2510  147.9870 C   0  0  0  0  0  2  0  0  0  0  0  0
  1 13  1  1  0  0  0
  1  6  1  0  0  0  0
  2  4  1  6  0  0  0
  2 10  1  0  0  0  0
  2  7  1  0  0  0  0
  4 10  2  0  0  0  0
  5  9  1  0  0  0  0
  5 11  1  0  0  0  0
  6 19  1  1  0  0  0
  7  8  1  1  0  0  0
  8 13  1  0  0  0  0
  9 16  1  1  0  0  0
  9  7  1  0  0  0  0
 10 12  1  0  0  0  0
 11 15  1  0  0  0  0
 12  3  1  0  0  0  0
 14  3  1  6  0  0  0
 14  1  1  0  0  0  0
 14  6  1  0  0  0  0
 15  8  2  0  0  0  0
 16 17  1  0  0  0  0
 18 16  2  0  0  0  0
 19 23  1  0  0  0  0
 20 22  1  0  0  0  0
 20 25  1  6  0  0  0
 21 22  1  0  0  0  0
 23 24  1  0  0  0  0
 23 21  2  0  0  0  0
 24 20  1  0  0  0  0
 25 28  1  0  0  0  0
 26 25  2  0  0  0  0
 28 27  2  0  0  0  0
 28 30  1  0  0  0  0
 30 29  1  0  0  0  0
M  END
>  <MODEL>
7

>  <REMARK>
 VINA RESULT:      -6.8      5.265      6.593
  Name = 
  6 active torsions:
  status: ('A' for Active; 'I' for Inactive)
    1  A    between atoms: C_1  and  C_21
    2  A    between atoms: C_2  and  C_8
    3  A    between atoms: C_8  and  C_28
    4  A    between atoms: C_9  and  C_16
    5  A    between atoms: C_9  and  C_17
    6  A    between atoms: C_18  and  C_28
                            x       y       z     vdW  Elec       q    Type
                         _______ _______ _______ _____ _____    ______ ____

>  <TORSDO>
F 6

$$$$
=
 OpenBabel11062413193D

 30 34  0  0  1  0  0  0  0  0999 V2000
  184.5610  179.0290  141.9920 C   0  0  1  0  0  3  0  0  0  0  0  0
  181.4510  178.1000  141.0370 C   0  0  1  0  0  3  0  0  0  0  0  0
  183.0380  179.4670  143.8330 C   0  0  0  0  0  2  0  0  0  0  0  0
  180.1910  178.5900  141.2370 N   0  0  0  0  0  0  0  0  0  0  0  0
  181.6240  178.3470  137.7180 C   0  0  0  0  0  2  0  0  0  0  0  0
  185.3770  178.7440  143.2570 C   0  0  1  0  0  3  0  0  0  0  0  0
  182.2750  178.9900  140.0970 C   0  0  1  0  0  3  0  0  0  0  0  0
  183.6210  178.3280  139.7890 C   0  0  0  0  0  0  0  0  0  0  0  0
  181.4720  179.3760  138.8380 C   0  0  1  0  0  3  0  0  0  0  0  0
  181.2060  178.7790  142.1970 C   0  0  0  0  0  0  0  0  0  0  0  0
  183.0910  178.1830  137.3450 C   0  0  0  0  0  2  0  0  0  0  0  0
  181.6370  179.3010  143.4580 N   0  0  0  0  0  2  0  0  0  0  0  0
  184.5860  177.9810  140.8880 C   0  0  0  0  0  2  0  0  0  0  0  0
  183.9050  178.3960  143.2010 C   0  0  2  0  0  3  0  0  0  0  0  0
  183.9360  177.9030  138.5540 C   0  0  0  0  0  3  0  0  0  0  0  0
  181.7830  180.7660  138.3810 C   0  0  0  0  0  0  0  0  0  0  0  0
  182.9640  181.3920  138.7610 O   0  0  0  0  0  1  0  0  0  0  0  0
  180.9770  181.3660  137.6240 O   0  0  0  0  0  0  0  0  0  0  0  0
  186.2120  177.4690  143.1850 C   0  0  0  0  0  2  0  0  0  0  0  0
  190.0630  178.2770  143.8740 C   0  0  2  0  0  3  0  0  0  0  0  0
  188.0280  177.5570  144.8550 C   0  0  0  0  0  3  0  0  0  0  0  0
  189.3720  177.8340  145.0350 O   0  0  0  0  0  0  0  0  0  0  0  0
  187.6130  177.7350  143.6170 C   0  0  0  0  0  0  0  0  0  0  0  0
  188.8830  178.2500  142.4760 S   0  0  0  0  0  0  0  0  0  0  0  0
  191.2280  177.3820  143.5900 C   0  0  0  0  0  0  0  0  0  0  0  0
  191.8810  177.5280  142.5200 O   0  0  0  0  0  0  0  0  0  0  0  0
  191.9750  175.2090  144.1650 O   0  0  0  0  0  0  0  0  0  0  0  0
  191.6250  176.3520  144.5610 C   0  0  0  0  0  0  0  0  0  0  0  0
  192.2480  175.5980  146.7080 O   0  0  0  0  0  1  0  0  0  0  0  0
  191.6520  176.6550  146.0200 C   0  0  0  0  0  2  0  0  0  0  0  0
  1 13  1  6  0  0  0
  1 14  1  0  0  0  0
  1  6  1  0  0  0  0
  2  4  1  6  0  0  0
  2 10  1  0  0  0  0
  4 10  2  0  0  0  0
  5  9  1  0  0  0  0
  6 19  1  6  0  0  0
  7  8  1  6  0  0  0
  7  2  1  0  0  0  0
  8 13  1  0  0  0  0
  9 16  1  6  0  0  0
  9  7  1  0  0  0  0
 10 12  1  0  0  0  0
 11  5  1  0  0  0  0
 11 15  1  0  0  0  0
 12  3  1  0  0  0  0
 14  6  1  0  0  0  0
 14  3  1  1  0  0  0
 15  8  2  0  0  0  0
 16 17  1  0  0  0  0
 18 16  2  0  0  0  0
 19 23  1  0  0  0  0
 20 25  1  6  0  0  0
 20 22  1  0  0  0  0
 21 22  1  0  0  0  0
 23 21  2  0  0  0  0
 24 23  1  0  0  0  0
 24 20  1  0  0  0  0
 25 28  1  0  0  0  0
 26 25  2  0  0  0  0
 27 28  2  0  0  0  0
 28 30  1  0  0  0  0
 30 29  1  0  0  0  0
M  END
>  <MODEL>
8

>  <REMARK>
 VINA RESULT:      -6.8      1.360      1.714
  Name = 
  6 active torsions:
  status: ('A' for Active; 'I' for Inactive)
    1  A    between atoms: C_1  and  C_21
    2  A    between atoms: C_2  and  C_8
    3  A    between atoms: C_8  and  C_28
    4  A    between atoms: C_9  and  C_16
    5  A    between atoms: C_9  and  C_17
    6  A    between atoms: C_18  and  C_28
                            x       y       z     vdW  Elec       q    Type
                         _______ _______ _______ _____ _____    ______ ____

>  <TORSDO>
F 6

$$$$
=
 OpenBabel11062413193D

 30 34  0  0  1  0  0  0  0  0999 V2000
  186.7170  178.8800  142.5160 C   0  0  1  0  0  3  0  0  0  0  0  0
  189.1380  176.5420  142.1770 C   0  0  1  0  0  3  0  0  0  0  0  0
  187.2040  178.6280  140.1500 C   0  0  0  0  0  2  0  0  0  0  0  0
  190.2220  176.3810  141.3600 N   0  0  0  0  0  0  0  0  0  0  0  0
  190.6830  176.6850  145.1270 C   0  0  0  0  0  2  0  0  0  0  0  0
  185.3710  179.0770  141.8110 C   0  0  1  0  0  3  0  0  0  0  0  0
  189.3430  177.6700  143.1950 C   0  0  1  0  0  3  0  0  0  0  0  0
  188.1690  177.7140  144.1770 C   0  0  0  0  0  0  0  0  0  0  0  0
  190.7200  177.5690  143.8810 C   0  0  1  0  0  3  0  0  0  0  0  0
  189.0750  177.0750  140.9220 C   0  0  0  0  0  0  0  0  0  0  0  0
  189.6650  177.2210  146.1250 C   0  0  0  0  0  2  0  0  0  0  0  0
  188.3790  177.7980  139.9000 N   0  0  0  0  0  2  0  0  0  0  0  0
  186.7600  177.9200  143.6960 C   0  0  0  0  0  2  0  0  0  0  0  0
  186.3700  178.0680  141.2850 C   0  0  2  0  0  3  0  0  0  0  0  0
  188.3250  177.4330  145.4820 C   0  0  0  0  0  3  0  0  0  0  0  0
  191.3090  178.9170  144.1560 C   0  0  0  0  0  0  0  0  0  0  0  0
  190.6180  180.0760  143.8220 O   0  0  0  0  0  0  0  0  0  0  0  0
  192.4300  179.0020  144.7180 O   0  0  0  0  0  1  0  0  0  0  0  0
  184.2070  178.3500  142.4800 C   0  0  0  0  0  2  0  0  0  0  0  0
  181.0770  179.1280  140.1230 C   0  0  2  0  0  3  0  0  0  0  0  0
  181.7580  178.6290  142.3380 C   0  0  0  0  0  3  0  0  0  0  0  0
  180.7120  178.9200  141.4810 O   0  0  0  0  0  0  0  0  0  0  0  0
  182.9360  178.6110  141.7480 C   0  0  0  0  0  0  0  0  0  0  0  0
  182.8990  179.0010  140.0080 S   0  0  0  0  0  0  0  0  0  0  0  0
  180.6190  180.4750  139.6610 C   0  0  0  0  0  0  0  0  0  0  0  0
  180.0480  181.2530  140.4740 O   0  0  0  0  0  0  0  0  0  0  0  0
  180.6810  180.0920  137.3240 O   0  0  0  0  0  0  0  0  0  0  0  0
  180.8530  180.9010  138.2730 C   0  0  0  0  0  0  0  0  0  0  0  0
  180.4490  182.8190  136.9600 O   0  0  0  0  0  1  0  0  0  0  0  0
  181.2620  182.3020  137.9690 C   0  0  0  0  0  2  0  0  0  0  0  0
  1 13  1  1  0  0  0
  2 10  1  6  0  0  0
  2  7  1  0  0  0  0
  4  2  1  0  0  0  0
  5 11  1  0  0  0  0
  6 19  1  1  0  0  0
  6  1  1  0  0  0  0
  7  9  1  0  0  0  0
  7  8  1  1  0  0  0
  8 15  2  0  0  0  0
  9 16  1  1  0  0  0
  9  5  1  0  0  0  0
 10  4  2  0  0  0  0
 12  3  1  0  0  0  0
 12 10  1  0  0  0  0
 13  8  1  0  0  0  0
 14  3  1  6  0  0  0
 14  6  1  0  0  0  0
 14  1  1  0  0  0  0
 15 11  1  0  0  0  0
 16 18  1  0  0  0  0
 17 16  2  0  0  0  0
 20 25  1  1  0  0  0
 20 22  1  0  0  0  0
 22 21  1  0  0  0  0
 23 21  2  0  0  0  0
 23 19  1  0  0  0  0
 24 20  1  0  0  0  0
 24 23  1  0  0  0  0
 25 26  2  0  0  0  0
 27 28  2  0  0  0  0
 28 25  1  0  0  0  0
 29 30  1  0  0  0  0
 30 28  1  0  0  0  0
M  END
>  <MODEL>
9

>  <REMARK>
 VINA RESULT:      -6.7      3.438      9.775
  Name = 
  6 active torsions:
  status: ('A' for Active; 'I' for Inactive)
    1  A    between atoms: C_1  and  C_21
    2  A    between atoms: C_2  and  C_8
    3  A    between atoms: C_8  and  C_28
    4  A    between atoms: C_9  and  C_16
    5  A    between atoms: C_9  and  C_17
    6  A    between atoms: C_18  and  C_28
                            x       y       z     vdW  Elec       q    Type
                         _______ _______ _______ _____ _____    ______ ____

>  <TORSDO>
F 6

$$$$
