=
 OpenBabel11062416203D

 29 32  0  0  1  0  0  0  0  0999 V2000
  182.0150  179.0590  140.8850 C   0  0  1  0  0  3  0  0  0  0  0  0
  188.0980  178.0300  142.1480 C   0  0  0  0  0  0  0  0  0  0  0  0
  184.3490  178.2950  145.3850 C   0  0  0  0  0  3  0  0  0  0  0  0
  186.5450  177.7500  146.2290 C   0  0  0  0  0  0  0  0  0  0  0  0
  185.8320  178.5770  141.4510 C   0  0  0  0  0  0  0  0  0  0  0  0
  186.7350  178.2520  142.5030 C   0  0  0  0  0  0  0  0  0  0  0  0
  185.1880  177.9770  146.4510 C   0  0  0  0  0  3  0  0  0  0  0  0
  188.4830  178.1230  140.8150 C   0  0  0  0  0  3  0  0  0  0  0  0
  180.5050  179.5160  142.6700 O   0  0  0  0  0  0  0  0  0  0  0  0
  189.1840  177.6900  143.1140 C   0  0  0  0  0  1  0  0  0  0  0  0
  184.8530  178.3920  144.0800 C   0  0  0  0  0  0  0  0  0  0  0  0
  183.4890  179.1970  140.6510 C   0  0  0  0  0  0  0  0  0  0  0  0
  181.5310  177.7120  140.3780 C   0  0  0  0  0  1  0  0  0  0  0  0
  184.4640  178.8200  141.7160 C   0  0  0  0  0  0  0  0  0  0  0  0
  182.6340  178.9660  143.3200 O   0  0  0  0  0  0  0  0  0  0  0  0
  183.8840  179.6310  139.4980 N   0  0  0  0  0  2  0  0  0  0  0  0
  186.2310  178.1630  143.8310 C   0  0  0  0  0  0  0  0  0  0  0  0
  187.0540  177.8470  144.9280 C   0  0  0  0  0  3  0  0  0  0  0  0
  181.6770  179.2090  142.3330 C   0  0  0  0  0  0  0  0  0  0  0  0
  186.2960  178.6420  140.1730 N   0  0  0  0  0  0  0  0  0  0  0  0
  183.9840  178.7200  143.0330 C   0  0  0  0  0  0  0  0  0  0  0  0
  187.5720  178.4260  139.8640 N   0  0  0  0  0  0  0  0  0  0  0  0
  187.3890  177.4250  147.3370 N   0  0  0  0  0  2  0  0  0  0  0  0
  188.0830  178.4180  148.1450 C   0  0  0  0  0  2  0  0  0  0  0  0
  189.5160  178.1730  148.1130 N   0  0  0  0  0  2  0  0  0  0  0  0
  189.7200  176.9290  147.3940 C   0  0  0  0  0  2  0  0  0  0  0  0
  190.7840  177.1130  146.3240 C   0  0  0  0  0  2  0  0  0  0  0  0
  192.2890  175.7850  147.7460 C   0  0  0  0  0  2  0  0  0  0  0  0
  191.9010  176.1410  146.5240 C   0  0  0  0  0  3  0  0  0  0  0  0
  1 13  1  1  0  0  0
  1 19  1  0  0  0  0
  2  6  1  0  0  0  0
  2 10  1  0  0  0  0
  3  7  1  0  0  0  0
  4  7  2  0  0  0  0
  4 23  1  0  0  0  0
  5 14  1  0  0  0  0
  5  6  2  0  0  0  0
  6 17  1  0  0  0  0
  8  2  2  0  0  0  0
 11  3  2  0  0  0  0
 12  1  1  0  0  0  0
 12 14  1  0  0  0  0
 14 21  2  0  0  0  0
 16 12  2  0  0  0  0
 17 11  1  0  0  0  0
 17 18  2  0  0  0  0
 18  4  1  0  0  0  0
 19  9  2  0  0  0  0
 19 15  1  0  0  0  0
 20  5  1  0  0  0  0
 21 15  1  0  0  0  0
 21 11  1  0  0  0  0
 22 20  2  0  0  0  0
 22  8  1  0  0  0  0
 23 24  1  0  0  0  0
 25 24  1  0  0  0  0
 26 25  1  0  0  0  0
 27 29  1  0  0  0  0
 27 26  1  0  0  0  0
 29 28  2  0  0  0  0
M  END
>  <MODEL>
1

>  <REMARK>
 VINA RESULT:      -9.3      0.000      0.000
  Name = 
  6 active torsions:
  status: ('A' for Active; 'I' for Inactive)
    1  A    between atoms: C_5  and  C_15
    2  A    between atoms: C_5  and  C_21
    3  A    between atoms: C_6  and  N_11
    4  A    between atoms: N_11  and  C_23
    5  A    between atoms: C_21  and  N_29
    6  A    between atoms: C_23  and  N_29
                            x       y       z     vdW  Elec       q    Type
                         _______ _______ _______ _____ _____    ______ ____

>  <TORSDO>
F 6

$$$$
=
 OpenBabel11062416203D

 29 32  0  0  1  0  0  0  0  0999 V2000
  183.4030  178.8570  141.0390 C   0  0  1  0  0  3  0  0  0  0  0  0
  189.4290  177.8670  139.5020 C   0  0  0  0  0  0  0  0  0  0  0  0
  187.3630  177.4900  143.9950 C   0  0  0  0  0  3  0  0  0  0  0  0
  189.6930  176.9010  143.7610 C   0  0  0  0  0  0  0  0  0  0  0  0
  187.0960  178.4320  139.8970 C   0  0  0  0  0  0  0  0  0  0  0  0
  188.3420  177.9820  140.4170 C   0  0  0  0  0  0  0  0  0  0  0  0
  188.5570  177.0410  144.5560 C   0  0  0  0  0  3  0  0  0  0  0  0
  189.2320  178.1800  138.1610 C   0  0  0  0  0  3  0  0  0  0  0  0
  182.7800  178.9750  143.3360 O   0  0  0  0  0  0  0  0  0  0  0  0
  190.8060  177.4210  139.8680 C   0  0  0  0  0  1  0  0  0  0  0  0
  187.2850  177.8070  142.6310 C   0  0  0  0  0  0  0  0  0  0  0  0
  184.6510  179.0830  140.2430 C   0  0  0  0  0  0  0  0  0  0  0  0
  182.7100  177.5870  140.5740 C   0  0  0  0  0  1  0  0  0  0  0  0
  185.9680  178.5820  140.7370 C   0  0  0  0  0  0  0  0  0  0  0  0
  184.9690  178.4100  142.9550 O   0  0  0  0  0  0  0  0  0  0  0  0
  184.5490  179.7050  139.1130 N   0  0  0  0  0  2  0  0  0  0  0  0
  188.4290  177.6700  141.8040 C   0  0  0  0  0  0  0  0  0  0  0  0
  189.6220  177.2170  142.3990 C   0  0  0  0  0  3  0  0  0  0  0  0
  183.6980  178.7680  142.5020 C   0  0  0  0  0  0  0  0  0  0  0  0
  186.9930  178.7120  138.5690 N   0  0  0  0  0  0  0  0  0  0  0  0
  186.0720  178.2600  142.1010 C   0  0  0  0  0  0  0  0  0  0  0  0
  188.0190  178.5930  137.7310 N   0  0  0  0  0  0  0  0  0  0  0  0
  190.9090  176.4390  144.3570 N   0  0  0  0  0  2  0  0  0  0  0  0
  191.6350  177.1700  145.3860 C   0  0  0  0  0  2  0  0  0  0  0  0
  191.9910  176.2760  146.4750 N   0  0  0  0  0  2  0  0  0  0  0  0
  191.3960  176.8190  147.6840 C   0  0  0  0  0  2  0  0  0  0  0  0
  189.8800  176.7470  147.5980 C   0  0  0  0  0  2  0  0  0  0  0  0
  187.9660  178.0900  148.3610 C   0  0  0  0  0  2  0  0  0  0  0  0
  189.2680  178.0160  148.0960 C   0  0  0  0  0  3  0  0  0  0  0  0
  1 13  1  6  0  0  0
  1 19  1  0  0  0  0
  2 10  1  0  0  0  0
  2  6  1  0  0  0  0
  3  7  1  0  0  0  0
  4 23  1  0  0  0  0
  4  7  2  0  0  0  0
  5  6  2  0  0  0  0
  5 14  1  0  0  0  0
  6 17  1  0  0  0  0
  8  2  2  0  0  0  0
 11  3  2  0  0  0  0
 12 14  1  0  0  0  0
 12  1  1  0  0  0  0
 14 21  2  0  0  0  0
 16 12  2  0  0  0  0
 17 18  2  0  0  0  0
 17 11  1  0  0  0  0
 18  4  1  0  0  0  0
 19 15  1  0  0  0  0
 19  9  2  0  0  0  0
 20  5  1  0  0  0  0
 21 11  1  0  0  0  0
 21 15  1  0  0  0  0
 22  8  1  0  0  0  0
 22 20  2  0  0  0  0
 23 24  1  0  0  0  0
 24 25  1  0  0  0  0
 25 26  1  0  0  0  0
 27 26  1  0  0  0  0
 27 29  1  0  0  0  0
 29 28  2  0  0  0  0
M  END
>  <MODEL>
2

>  <REMARK>
 VINA RESULT:      -9.1      1.827      2.955
  Name = 
  6 active torsions:
  status: ('A' for Active; 'I' for Inactive)
    1  A    between atoms: C_5  and  C_15
    2  A    between atoms: C_5  and  C_21
    3  A    between atoms: C_6  and  N_11
    4  A    between atoms: N_11  and  C_23
    5  A    between atoms: C_21  and  N_29
    6  A    between atoms: C_23  and  N_29
                            x       y       z     vdW  Elec       q    Type
                         _______ _______ _______ _____ _____    ______ ____

>  <TORSDO>
F 6

$$$$
=
 OpenBabel11062416203D

 29 32  0  0  1  0  0  0  0  0999 V2000
  182.9190  178.6770  139.3170 C   0  0  1  0  0  3  0  0  0  0  0  0
  188.3910  178.1170  142.3830 C   0  0  0  0  0  0  0  0  0  0  0  0
  183.8710  178.6570  144.3550 C   0  0  0  0  0  3  0  0  0  0  0  0
  185.7360  178.3370  145.8540 C   0  0  0  0  0  0  0  0  0  0  0  0
  186.4170  178.4550  141.0020 C   0  0  0  0  0  0  0  0  0  0  0  0
  186.9820  178.3230  142.3020 C   0  0  0  0  0  0  0  0  0  0  0  0
  184.3710  178.5290  145.6490 C   0  0  0  0  0  3  0  0  0  0  0  0
  189.1410  178.0410  141.2140 C   0  0  0  0  0  3  0  0  0  0  0  0
  180.9590  179.3070  140.5150 O   0  0  0  0  0  0  0  0  0  0  0  0
  189.1560  177.9650  143.6560 C   0  0  0  0  0  1  0  0  0  0  0  0
  184.7270  178.5940  143.2450 C   0  0  0  0  0  0  0  0  0  0  0  0
  184.3970  178.8490  139.4910 C   0  0  0  0  0  0  0  0  0  0  0  0
  182.6060  177.2510  138.8970 C   0  0  0  0  0  1  0  0  0  0  0  0
  185.0280  178.6700  140.8310 C   0  0  0  0  0  0  0  0  0  0  0  0
  182.8150  178.9530  141.8140 O   0  0  0  0  0  0  0  0  0  0  0  0
  185.1040  179.1360  138.4460 N   0  0  0  0  0  2  0  0  0  0  0  0
  186.1190  178.3970  143.4320 C   0  0  0  0  0  0  0  0  0  0  0  0
  186.5960  178.2750  144.7510 C   0  0  0  0  0  3  0  0  0  0  0  0
  182.1800  179.0110  140.5720 C   0  0  0  0  0  0  0  0  0  0  0  0
  187.2260  178.3630  139.9120 N   0  0  0  0  0  0  0  0  0  0  0  0
  184.1930  178.7310  141.9590 C   0  0  0  0  0  0  0  0  0  0  0  0
  188.5380  178.1650  140.0110 N   0  0  0  0  0  0  0  0  0  0  0  0
  186.2290  178.2090  147.1910 N   0  0  0  0  0  2  0  0  0  0  0  0
  187.3670  177.3790  147.5590 C   0  0  0  0  0  2  0  0  0  0  0  0
  188.1570  178.0410  148.5850 N   0  0  0  0  0  2  0  0  0  0  0  0
  189.5450  177.9770  148.1620 C   0  0  0  0  0  2  0  0  0  0  0  0
  189.7180  176.9040  147.1000 C   0  0  0  0  0  2  0  0  0  0  0  0
  191.9320  175.8860  147.4370 C   0  0  0  0  0  2  0  0  0  0  0  0
  191.1630  176.7340  146.7590 C   0  0  0  0  0  3  0  0  0  0  0  0
  1 13  1  1  0  0  0
  1 12  1  0  0  0  0
  1 19  1  0  0  0  0
  2 10  1  0  0  0  0
  3  7  1  0  0  0  0
  4 23  1  0  0  0  0
  5  6  2  0  0  0  0
  6  2  1  0  0  0  0
  6 17  1  0  0  0  0
  7  4  2  0  0  0  0
  8  2  2  0  0  0  0
  9 19  2  0  0  0  0
 11 17  1  0  0  0  0
 11  3  2  0  0  0  0
 12 14  1  0  0  0  0
 14  5  1  0  0  0  0
 14 21  2  0  0  0  0
 15 21  1  0  0  0  0
 16 12  2  0  0  0  0
 17 18  2  0  0  0  0
 18  4  1  0  0  0  0
 19 15  1  0  0  0  0
 20 22  2  0  0  0  0
 20  5  1  0  0  0  0
 21 11  1  0  0  0  0
 22  8  1  0  0  0  0
 23 24  1  0  0  0  0
 24 25  1  0  0  0  0
 26 25  1  0  0  0  0
 27 26  1  0  0  0  0
 29 27  1  0  0  0  0
 29 28  2  0  0  0  0
M  END
>  <MODEL>
3

>  <REMARK>
 VINA RESULT:      -8.8      1.088      1.247
  Name = 
  6 active torsions:
  status: ('A' for Active; 'I' for Inactive)
    1  A    between atoms: C_5  and  C_15
    2  A    between atoms: C_5  and  C_21
    3  A    between atoms: C_6  and  N_11
    4  A    between atoms: N_11  and  C_23
    5  A    between atoms: C_21  and  N_29
    6  A    between atoms: C_23  and  N_29
                            x       y       z     vdW  Elec       q    Type
                         _______ _______ _______ _____ _____    ______ ____

>  <TORSDO>
F 6

$$$$
=
 OpenBabel11062416203D

 29 32  0  0  1  0  0  0  0  0999 V2000
  189.9690  177.0070  147.3710 C   0  0  1  0  0  3  0  0  0  0  0  0
  184.6990  178.6760  144.3550 C   0  0  0  0  0  0  0  0  0  0  0  0
  189.1590  177.7980  142.3700 C   0  0  0  0  0  3  0  0  0  0  0  0
  187.3260  178.2890  140.8770 C   0  0  0  0  0  0  0  0  0  0  0  0
  186.6420  178.1750  145.7290 C   0  0  0  0  0  0  0  0  0  0  0  0
  186.0890  178.3710  144.4320 C   0  0  0  0  0  0  0  0  0  0  0  0
  188.6690  177.9750  141.0780 C   0  0  0  0  0  3  0  0  0  0  0  0
  183.9480  178.7540  145.5230 C   0  0  0  0  0  3  0  0  0  0  0  0
  192.0470  177.0290  146.2060 O   0  0  0  0  0  0  0  0  0  0  0  0
  183.9510  178.9210  143.0860 C   0  0  0  0  0  1  0  0  0  0  0  0
  188.3150  177.9310  143.4830 C   0  0  0  0  0  0  0  0  0  0  0  0
  188.6460  177.6970  147.2380 C   0  0  0  0  0  0  0  0  0  0  0  0
  189.7600  175.5280  147.6480 C   0  0  0  0  0  1  0  0  0  0  0  0
  188.0150  177.8770  145.8970 C   0  0  0  0  0  0  0  0  0  0  0  0
  190.2070  177.4660  144.9100 O   0  0  0  0  0  0  0  0  0  0  0  0
  188.0640  178.1120  148.3170 N   0  0  0  0  0  2  0  0  0  0  0  0
  186.9440  178.2480  143.3000 C   0  0  0  0  0  0  0  0  0  0  0  0
  186.4790  178.4250  141.9840 C   0  0  0  0  0  3  0  0  0  0  0  0
  190.8000  177.1820  146.1410 C   0  0  0  0  0  0  0  0  0  0  0  0
  185.8320  178.2670  146.8180 N   0  0  0  0  0  0  0  0  0  0  0  0
  188.8410  177.7520  144.7670 C   0  0  0  0  0  0  0  0  0  0  0  0
  184.5350  178.5470  146.7230 N   0  0  0  0  0  0  0  0  0  0  0  0
  186.8430  178.4680  139.5430 N   0  0  0  0  0  2  0  0  0  0  0  0
  187.5030  177.9260  138.3630 C   0  0  0  0  0  2  0  0  0  0  0  0
  188.1670  178.9910  137.6290 N   0  0  0  0  0  2  0  0  0  0  0  0
  189.3020  178.3950  136.9470 C   0  0  0  0  0  2  0  0  0  0  0  0
  189.5070  176.9660  137.4250 C   0  0  0  0  0  2  0  0  0  0  0  0
  191.4220  176.6520  138.9360 C   0  0  0  0  0  2  0  0  0  0  0  0
  190.9540  176.7060  137.6920 C   0  0  0  0  0  3  0  0  0  0  0  0
  1 13  1  6  0  0  0
  2  6  2  0  0  0  0
  2  8  1  0  0  0  0
  3 11  1  0  0  0  0
  4  7  1  0  0  0  0
  4 18  2  0  0  0  0
  5 14  1  0  0  0  0
  5 20  2  0  0  0  0
  6  5  1  0  0  0  0
  7  3  2  0  0  0  0
  8 22  2  0  0  0  0
 10  2  1  0  0  0  0
 11 21  1  0  0  0  0
 12  1  1  0  0  0  0
 12 16  2  0  0  0  0
 14 12  1  0  0  0  0
 15 19  1  0  0  0  0
 17 11  2  0  0  0  0
 17  6  1  0  0  0  0
 18 17  1  0  0  0  0
 19  9  2  0  0  0  0
 19  1  1  0  0  0  0
 21 15  1  0  0  0  0
 21 14  2  0  0  0  0
 22 20  1  0  0  0  0
 23  4  1  0  0  0  0
 24 23  1  0  0  0  0
 25 24  1  0  0  0  0
 26 27  1  0  0  0  0
 26 25  1  0  0  0  0
 27 29  1  0  0  0  0
 29 28  2  0  0  0  0
M  END
>  <MODEL>
4

>  <REMARK>
 VINA RESULT:      -8.7      3.034      7.744
  Name = 
  6 active torsions:
  status: ('A' for Active; 'I' for Inactive)
    1  A    between atoms: C_5  and  C_15
    2  A    between atoms: C_5  and  C_21
    3  A    between atoms: C_6  and  N_11
    4  A    between atoms: N_11  and  C_23
    5  A    between atoms: C_21  and  N_29
    6  A    between atoms: C_23  and  N_29
                            x       y       z     vdW  Elec       q    Type
                         _______ _______ _______ _____ _____    ______ ____

>  <TORSDO>
F 6

$$$$
=
 OpenBabel11062416203D

 29 32  0  0  1  0  0  0  0  0999 V2000
  189.9650  176.9900  147.3790 C   0  0  1  0  0  3  0  0  0  0  0  0
  184.7500  178.7270  144.3050 C   0  0  0  0  0  0  0  0  0  0  0  0
  189.2070  177.7410  142.3640 C   0  0  0  0  0  3  0  0  0  0  0  0
  187.3950  178.2510  140.8520 C   0  0  0  0  0  0  0  0  0  0  0  0
  186.6740  178.2040  145.7000 C   0  0  0  0  0  0  0  0  0  0  0  0
  186.1340  178.3960  144.3970 C   0  0  0  0  0  0  0  0  0  0  0  0
  188.7300  177.9140  141.0660 C   0  0  0  0  0  3  0  0  0  0  0  0
  183.9930  178.8330  145.4670 C   0  0  0  0  0  3  0  0  0  0  0  0
  192.0510  176.9590  146.2300 O   0  0  0  0  0  0  0  0  0  0  0  0
  184.0170  178.9720  143.0280 C   0  0  0  0  0  1  0  0  0  0  0  0
  188.3580  177.9030  143.4680 C   0  0  0  0  0  0  0  0  0  0  0  0
  188.6560  177.7040  147.2290 C   0  0  0  0  0  0  0  0  0  0  0  0
  189.7250  175.5180  147.6700 C   0  0  0  0  0  1  0  0  0  0  0  0
  188.0390  177.8810  145.8810 C   0  0  0  0  0  0  0  0  0  0  0  0
  190.2290  177.4170  144.9150 O   0  0  0  0  0  0  0  0  0  0  0  0
  188.0740  178.1410  148.2980 N   0  0  0  0  0  2  0  0  0  0  0  0
  186.9950  178.2440  143.2720 C   0  0  0  0  0  0  0  0  0  0  0  0
  186.5420  178.4160  141.9510 C   0  0  0  0  0  3  0  0  0  0  0  0
  190.8080  177.1350  146.1540 C   0  0  0  0  0  0  0  0  0  0  0  0
  185.8570  178.3230  146.7810 N   0  0  0  0  0  0  0  0  0  0  0  0
  188.8700  177.7270  144.7590 C   0  0  0  0  0  0  0  0  0  0  0  0
  184.5670  178.6270  146.6730 N   0  0  0  0  0  0  0  0  0  0  0  0
  186.9260  178.4250  139.5120 N   0  0  0  0  0  2  0  0  0  0  0  0
  185.5360  178.2560  139.1120 C   0  0  0  0  0  2  0  0  0  0  0  0
  184.8770  179.5510  139.0400 N   0  0  0  0  0  2  0  0  0  0  0  0
  183.4620  179.3220  139.2710 C   0  0  0  0  0  2  0  0  0  0  0  0
  183.1890  177.8330  139.4070 C   0  0  0  0  0  2  0  0  0  0  0  0
  181.2030  178.6160  140.6290 C   0  0  0  0  0  2  0  0  0  0  0  0
  181.9540  177.5990  140.2150 C   0  0  0  0  0  3  0  0  0  0  0  0
  1 13  1  6  0  0  0
  2  6  2  0  0  0  0
  2  8  1  0  0  0  0
  3 11  1  0  0  0  0
  4  7  1  0  0  0  0
  4 18  2  0  0  0  0
  5 14  1  0  0  0  0
  5 20  2  0  0  0  0
  6  5  1  0  0  0  0
  7  3  2  0  0  0  0
  8 22  2  0  0  0  0
 10  2  1  0  0  0  0
 11 21  1  0  0  0  0
 12  1  1  0  0  0  0
 12 16  2  0  0  0  0
 14 12  1  0  0  0  0
 15 19  1  0  0  0  0
 17 11  2  0  0  0  0
 17  6  1  0  0  0  0
 18 17  1  0  0  0  0
 19  9  2  0  0  0  0
 19  1  1  0  0  0  0
 21 15  1  0  0  0  0
 21 14  2  0  0  0  0
 22 20  1  0  0  0  0
 23  4  1  0  0  0  0
 24 23  1  0  0  0  0
 25 24  1  0  0  0  0
 25 26  1  0  0  0  0
 26 27  1  0  0  0  0
 27 29  1  0  0  0  0
 29 28  2  0  0  0  0
M  END
>  <MODEL>
5

>  <REMARK>
 VINA RESULT:      -8.6      2.671      8.122
  Name = 
  6 active torsions:
  status: ('A' for Active; 'I' for Inactive)
    1  A    between atoms: C_5  and  C_15
    2  A    between atoms: C_5  and  C_21
    3  A    between atoms: C_6  and  N_11
    4  A    between atoms: N_11  and  C_23
    5  A    between atoms: C_21  and  N_29
    6  A    between atoms: C_23  and  N_29
                            x       y       z     vdW  Elec       q    Type
                         _______ _______ _______ _____ _____    ______ ____

>  <TORSDO>
F 6

$$$$
=
 OpenBabel11062416203D

 29 32  0  0  1  0  0  0  0  0999 V2000
  191.7070  176.7990  143.5770 C   0  0  1  0  0  3  0  0  0  0  0  0
  186.5790  178.1380  146.9770 C   0  0  0  0  0  0  0  0  0  0  0  0
  186.9890  178.0790  142.0340 C   0  0  0  0  0  3  0  0  0  0  0  0
  184.8140  178.5110  142.9910 C   0  0  0  0  0  0  0  0  0  0  0  0
  188.7040  177.7250  145.8670 C   0  0  0  0  0  0  0  0  0  0  0  0
  187.3120  178.0050  145.7610 C   0  0  0  0  0  0  0  0  0  0  0  0
  185.6310  178.3480  141.8730 C   0  0  0  0  0  3  0  0  0  0  0  0
  187.2330  177.9790  148.1930 C   0  0  0  0  0  3  0  0  0  0  0  0
  191.7080  177.2250  141.2330 O   0  0  0  0  0  0  0  0  0  0  0  0
  185.1190  178.4380  147.0610 C   0  0  0  0  0  1  0  0  0  0  0  0
  187.5520  177.9690  143.3140 C   0  0  0  0  0  0  0  0  0  0  0  0
  190.9760  177.3260  144.7740 C   0  0  0  0  0  0  0  0  0  0  0  0
  191.7810  175.2830  143.6380 C   0  0  0  0  0  1  0  0  0  0  0  0
  189.5070  177.5860  144.7110 C   0  0  0  0  0  0  0  0  0  0  0  0
  189.6990  177.5780  142.2800 O   0  0  0  0  0  0  0  0  0  0  0  0
  191.6500  177.5300  145.8590 N   0  0  0  0  0  2  0  0  0  0  0  0
  186.7370  178.1290  144.4650 C   0  0  0  0  0  0  0  0  0  0  0  0
  185.3710  178.4040  144.2710 C   0  0  0  0  0  3  0  0  0  0  0  0
  191.0490  177.2250  142.3050 C   0  0  0  0  0  0  0  0  0  0  0  0
  189.2610  177.5810  147.1000 N   0  0  0  0  0  0  0  0  0  0  0  0
  188.9200  177.7040  143.4400 C   0  0  0  0  0  0  0  0  0  0  0  0
  188.5570  177.7040  148.2220 N   0  0  0  0  0  0  0  0  0  0  0  0
  183.4230  178.7880  142.8030 N   0  0  0  0  0  2  0  0  0  0  0  0
  182.4680  178.9120  143.8950 C   0  0  0  0  0  2  0  0  0  0  0  0
  181.1110  178.9290  143.3710 N   0  0  0  0  0  2  0  0  0  0  0  0
  181.2140  178.9610  141.9230 C   0  0  0  0  0  2  0  0  0  0  0  0
  180.3230  177.8910  141.3130 C   0  0  0  0  0  2  0  0  0  0  0  0
  182.1280  177.0370  139.8760 C   0  0  0  0  0  2  0  0  0  0  0  0
  180.8680  177.4470  139.9940 C   0  0  0  0  0  3  0  0  0  0  0  0
  1 13  1  1  0  0  0
  1 12  1  0  0  0  0
  2 10  1  0  0  0  0
  2  8  1  0  0  0  0
  3 11  1  0  0  0  0
  4 18  2  0  0  0  0
  5 20  2  0  0  0  0
  6  5  1  0  0  0  0
  6  2  2  0  0  0  0
  7  3  2  0  0  0  0
  7  4  1  0  0  0  0
  8 22  2  0  0  0  0
  9 19  2  0  0  0  0
 11 21  1  0  0  0  0
 11 17  2  0  0  0  0
 12 16  2  0  0  0  0
 14 12  1  0  0  0  0
 14  5  1  0  0  0  0
 15 19  1  0  0  0  0
 15 21  1  0  0  0  0
 17  6  1  0  0  0  0
 18 17  1  0  0  0  0
 19  1  1  0  0  0  0
 20 22  1  0  0  0  0
 21 14  2  0  0  0  0
 23  4  1  0  0  0  0
 23 24  1  0  0  0  0
 25 24  1  0  0  0  0
 26 25  1  0  0  0  0
 27 26  1  0  0  0  0
 28 29  2  0  0  0  0
 29 27  1  0  0  0  0
M  END
>  <MODEL>
6

>  <REMARK>
 VINA RESULT:      -8.6      2.913      7.995
  Name = 
  6 active torsions:
  status: ('A' for Active; 'I' for Inactive)
    1  A    between atoms: C_5  and  C_15
    2  A    between atoms: C_5  and  C_21
    3  A    between atoms: C_6  and  N_11
    4  A    between atoms: N_11  and  C_23
    5  A    between atoms: C_21  and  N_29
    6  A    between atoms: C_23  and  N_29
                            x       y       z     vdW  Elec       q    Type
                         _______ _______ _______ _____ _____    ______ ____

>  <TORSDO>
F 6

$$$$
=
 OpenBabel11062416203D

 29 32  0  0  1  0  0  0  0  0999 V2000
  185.8210  178.6020  147.2440 C   0  0  1  0  0  3  0  0  0  0  0  0
  191.1080  176.7460  144.3710 C   0  0  0  0  0  0  0  0  0  0  0  0
  186.8930  178.2630  142.2410 C   0  0  0  0  0  3  0  0  0  0  0  0
  188.7710  177.7520  140.8120 C   0  0  0  0  0  0  0  0  0  0  0  0
  189.1300  177.2890  145.6780 C   0  0  0  0  0  0  0  0  0  0  0  0
  189.7490  177.1760  144.4010 C   0  0  0  0  0  0  0  0  0  0  0  0
  187.4520  178.1740  140.9680 C   0  0  0  0  0  3  0  0  0  0  0  0
  191.7670  176.4710  145.5640 C   0  0  0  0  0  3  0  0  0  0  0  0
  183.8340  178.9080  145.9660 O   0  0  0  0  0  0  0  0  0  0  0  0
  191.9150  176.5620  143.1280 C   0  0  0  0  0  1  0  0  0  0  0  0
  187.6440  177.9310  143.3790 C   0  0  0  0  0  0  0  0  0  0  0  0
  187.0810  177.8020  147.1120 C   0  0  0  0  0  0  0  0  0  0  0  0
  186.1460  180.0160  147.6940 C   0  0  0  0  0  1  0  0  0  0  0  0
  187.7820  177.7020  145.7980 C   0  0  0  0  0  0  0  0  0  0  0  0
  185.7100  178.4290  144.7370 O   0  0  0  0  0  0  0  0  0  0  0  0
  187.5470  177.2220  148.1700 N   0  0  0  0  0  2  0  0  0  0  0  0
  188.9890  177.5010  143.2420 C   0  0  0  0  0  0  0  0  0  0  0  0
  189.5240  177.4180  141.9430 C   0  0  0  0  0  3  0  0  0  0  0  0
  185.0630  178.6400  145.9560 C   0  0  0  0  0  0  0  0  0  0  0  0
  189.8530  177.0040  146.7950 N   0  0  0  0  0  0  0  0  0  0  0  0
  187.0500  178.0270  144.6430 C   0  0  0  0  0  0  0  0  0  0  0  0
  191.1210  176.6090  146.7440 N   0  0  0  0  0  0  0  0  0  0  0  0
  189.3240  177.6670  139.4950 N   0  0  0  0  0  2  0  0  0  0  0  0
  188.6790  178.2090  138.3080 C   0  0  0  0  0  2  0  0  0  0  0  0
  188.3880  177.1390  137.3670 N   0  0  0  0  0  2  0  0  0  0  0  0
  186.9530  176.9190  137.4010 C   0  0  0  0  0  2  0  0  0  0  0  0
  186.2230  178.2490  137.5020 C   0  0  0  0  0  2  0  0  0  0  0  0
  184.4090  179.0800  138.9400 C   0  0  0  0  0  2  0  0  0  0  0  0
  184.9300  178.0820  138.2310 C   0  0  0  0  0  3  0  0  0  0  0  0
  1 13  1  6  0  0  0
  2  6  2  0  0  0  0
  2  8  1  0  0  0  0
  3 11  1  0  0  0  0
  4  7  1  0  0  0  0
  4 18  2  0  0  0  0
  5 14  1  0  0  0  0
  5 20  2  0  0  0  0
  6  5  1  0  0  0  0
  7  3  2  0  0  0  0
  8 22  2  0  0  0  0
 10  2  1  0  0  0  0
 11 21  1  0  0  0  0
 12  1  1  0  0  0  0
 12 16  2  0  0  0  0
 14 12  1  0  0  0  0
 15 19  1  0  0  0  0
 17 11  2  0  0  0  0
 17  6  1  0  0  0  0
 18 17  1  0  0  0  0
 19  9  2  0  0  0  0
 19  1  1  0  0  0  0
 21 15  1  0  0  0  0
 21 14  2  0  0  0  0
 22 20  1  0  0  0  0
 23  4  1  0  0  0  0
 24 23  1  0  0  0  0
 25 26  1  0  0  0  0
 25 24  1  0  0  0  0
 26 27  1  0  0  0  0
 27 29  1  0  0  0  0
 29 28  2  0  0  0  0
M  END
>  <MODEL>
7

>  <REMARK>
 VINA RESULT:      -8.5      2.395      7.171
  Name = 
  6 active torsions:
  status: ('A' for Active; 'I' for Inactive)
    1  A    between atoms: C_5  and  C_15
    2  A    between atoms: C_5  and  C_21
    3  A    between atoms: C_6  and  N_11
    4  A    between atoms: N_11  and  C_23
    5  A    between atoms: C_21  and  N_29
    6  A    between atoms: C_23  and  N_29
                            x       y       z     vdW  Elec       q    Type
                         _______ _______ _______ _____ _____    ______ ____

>  <TORSDO>
F 6

$$$$
=
 OpenBabel11062416203D

 29 32  0  0  1  0  0  0  0  0999 V2000
  190.2300  177.7160  139.6330 C   0  0  1  0  0  3  0  0  0  0  0  0
  187.5260  177.4940  145.3160 C   0  0  0  0  0  0  0  0  0  0  0  0
  185.4330  178.8640  141.0330 C   0  0  0  0  0  3  0  0  0  0  0  0
  184.0400  178.7760  143.0030 C   0  0  0  0  0  0  0  0  0  0  0  0
  188.8010  177.6390  143.2490 C   0  0  0  0  0  0  0  0  0  0  0  0
  187.5540  177.7860  143.9210 C   0  0  0  0  0  0  0  0  0  0  0  0
  184.1880  179.0210  141.6390 C   0  0  0  0  0  3  0  0  0  0  0  0
  188.6880  177.0730  145.9520 C   0  0  0  0  0  3  0  0  0  0  0  0
  189.0910  178.7780  137.8300 O   0  0  0  0  0  0  0  0  0  0  0  0
  186.3150  177.6010  146.1830 C   0  0  0  0  0  1  0  0  0  0  0  0
  186.5490  178.4610  141.7800 C   0  0  0  0  0  0  0  0  0  0  0  0
  190.2120  177.8070  141.1280 C   0  0  0  0  0  0  0  0  0  0  0  0
  190.2520  176.2600  139.1990 C   0  0  0  0  0  1  0  0  0  0  0  0
  188.9190  177.9150  141.8670 C   0  0  0  0  0  0  0  0  0  0  0  0
  187.8820  178.6070  139.7710 O   0  0  0  0  0  0  0  0  0  0  0  0
  191.3440  177.7690  141.7540 N   0  0  0  0  0  2  0  0  0  0  0  0
  186.4200  178.2060  143.1690 C   0  0  0  0  0  0  0  0  0  0  0  0
  185.1510  178.3760  143.7540 C   0  0  0  0  0  3  0  0  0  0  0  0
  189.0490  178.4080  139.0320 C   0  0  0  0  0  0  0  0  0  0  0  0
  189.8870  177.2160  143.9510 N   0  0  0  0  0  0  0  0  0  0  0  0
  187.7870  178.3190  141.1410 C   0  0  0  0  0  0  0  0  0  0  0  0
  189.8370  176.9440  145.2520 N   0  0  0  0  0  0  0  0  0  0  0  0
  182.7540  178.9440  143.6060 N   0  0  0  0  0  2  0  0  0  0  0  0
  181.4960  178.7770  142.8920 C   0  0  0  0  0  2  0  0  0  0  0  0
  180.8740  180.0720  142.6660 N   0  0  0  0  0  2  0  0  0  0  0  0
  179.9640  179.9180  141.5460 C   0  0  0  0  0  2  0  0  0  0  0  0
  180.6650  179.2120  140.3960 C   0  0  0  0  0  2  0  0  0  0  0  0
  182.1870  180.2450  138.7650 C   0  0  0  0  0  2  0  0  0  0  0  0
  180.9700  180.1770  139.2980 C   0  0  0  0  0  3  0  0  0  0  0  0
  1 13  1  1  0  0  0
  1 12  1  0  0  0  0
  2  8  1  0  0  0  0
  2 10  1  0  0  0  0
  3  7  2  0  0  0  0
  3 11  1  0  0  0  0
  4 23  1  0  0  0  0
  4 18  2  0  0  0  0
  5  6  1  0  0  0  0
  5 20  2  0  0  0  0
  6  2  2  0  0  0  0
  7  4  1  0  0  0  0
  9 19  2  0  0  0  0
 11 17  2  0  0  0  0
 12 16  2  0  0  0  0
 12 14  1  0  0  0  0
 14  5  1  0  0  0  0
 15 21  1  0  0  0  0
 17 18  1  0  0  0  0
 17  6  1  0  0  0  0
 19  1  1  0  0  0  0
 19 15  1  0  0  0  0
 20 22  1  0  0  0  0
 21 11  1  0  0  0  0
 21 14  2  0  0  0  0
 22  8  2  0  0  0  0
 24 23  1  0  0  0  0
 25 24  1  0  0  0  0
 26 25  1  0  0  0  0
 27 26  1  0  0  0  0
 28 29  2  0  0  0  0
 29 27  1  0  0  0  0
M  END
>  <MODEL>
8

>  <REMARK>
 VINA RESULT:      -8.4      2.909      7.444
  Name = 
  6 active torsions:
  status: ('A' for Active; 'I' for Inactive)
    1  A    between atoms: C_5  and  C_15
    2  A    between atoms: C_5  and  C_21
    3  A    between atoms: C_6  and  N_11
    4  A    between atoms: N_11  and  C_23
    5  A    between atoms: C_21  and  N_29
    6  A    between atoms: C_23  and  N_29
                            x       y       z     vdW  Elec       q    Type
                         _______ _______ _______ _____ _____    ______ ____

>  <TORSDO>
F 6

$$$$
=
 OpenBabel11062416203D

 29 32  0  0  1  0  0  0  0  0999 V2000
  185.9970  178.4020  147.1040 C   0  0  1  0  0  3  0  0  0  0  0  0
  190.7650  177.1570  143.1840 C   0  0  0  0  0  0  0  0  0  0  0  0
  186.1610  178.5560  141.9820 C   0  0  0  0  0  3  0  0  0  0  0  0
  187.7720  178.2950  140.2030 C   0  0  0  0  0  0  0  0  0  0  0  0
  189.0310  177.4530  144.8640 C   0  0  0  0  0  0  0  0  0  0  0  0
  189.4140  177.4900  143.4930 C   0  0  0  0  0  0  0  0  0  0  0  0
  186.4830  178.6120  140.6280 C   0  0  0  0  0  3  0  0  0  0  0  0
  191.6430  176.8290  144.2110 C   0  0  0  0  0  3  0  0  0  0  0  0
  183.7980  178.6770  146.2310 O   0  0  0  0  0  0  0  0  0  0  0  0
  191.3420  177.1330  141.8070 C   0  0  0  0  0  1  0  0  0  0  0  0
  187.1210  178.1820  142.9330 C   0  0  0  0  0  0  0  0  0  0  0  0
  187.2520  177.7040  146.6780 C   0  0  0  0  0  0  0  0  0  0  0  0
  186.3240  179.7920  147.6220 C   0  0  0  0  0  1  0  0  0  0  0  0
  187.7080  177.7620  145.2580 C   0  0  0  0  0  0  0  0  0  0  0  0
  185.4430  178.4320  144.6520 O   0  0  0  0  0  0  0  0  0  0  0  0
  187.9330  177.0700  147.5780 N   0  0  0  0  0  2  0  0  0  0  0  0
  188.4400  177.8580  142.5220 C   0  0  0  0  0  0  0  0  0  0  0  0
  188.7350  177.9200  141.1470 C   0  0  0  0  0  3  0  0  0  0  0  0
  185.0170  178.4950  145.9790 C   0  0  0  0  0  0  0  0  0  0  0  0
  189.9580  177.1260  145.8040 N   0  0  0  0  0  0  0  0  0  0  0  0
  186.7630  178.1310  144.2850 C   0  0  0  0  0  0  0  0  0  0  0  0
  191.2160  176.8240  145.4940 N   0  0  0  0  0  0  0  0  0  0  0  0
  188.0810  178.3580  138.8070 N   0  0  0  0  0  2  0  0  0  0  0  0
  189.4300  178.5230  138.2830 C   0  0  0  0  0  2  0  0  0  0  0  0
  189.7440  177.4410  137.3650 N   0  0  0  0  0  2  0  0  0  0  0  0
  189.8010  176.2190  138.1480 C   0  0  0  0  0  2  0  0  0  0  0  0
  191.2100  175.6500  138.1260 C   0  0  0  0  0  2  0  0  0  0  0  0
  193.2580  176.1230  136.8490 C   0  0  0  0  0  2  0  0  0  0  0  0
  191.9290  176.0810  136.8890 C   0  0  0  0  0  3  0  0  0  0  0  0
  1 13  1  6  0  0  0
  2  6  2  0  0  0  0
  2  8  1  0  0  0  0
  3 11  1  0  0  0  0
  4  7  1  0  0  0  0
  4 18  2  0  0  0  0
  5 14  1  0  0  0  0
  5 20  2  0  0  0  0
  6  5  1  0  0  0  0
  7  3  2  0  0  0  0
  8 22  2  0  0  0  0
 10  2  1  0  0  0  0
 11 21  1  0  0  0  0
 12  1  1  0  0  0  0
 12 16  2  0  0  0  0
 14 12  1  0  0  0  0
 15 19  1  0  0  0  0
 17 11  2  0  0  0  0
 17  6  1  0  0  0  0
 18 17  1  0  0  0  0
 19  9  2  0  0  0  0
 19  1  1  0  0  0  0
 21 15  1  0  0  0  0
 21 14  2  0  0  0  0
 22 20  1  0  0  0  0
 23  4  1  0  0  0  0
 24 23  1  0  0  0  0
 25 26  1  0  0  0  0
 25 24  1  0  0  0  0
 27 26  1  0  0  0  0
 28 29  2  0  0  0  0
 29 27  1  0  0  0  0
M  END
>  <MODEL>
9

>  <REMARK>
 VINA RESULT:      -8.3      2.604      6.724
  Name = 
  6 active torsions:
  status: ('A' for Active; 'I' for Inactive)
    1  A    between atoms: C_5  and  C_15
    2  A    between atoms: C_5  and  C_21
    3  A    between atoms: C_6  and  N_11
    4  A    between atoms: N_11  and  C_23
    5  A    between atoms: C_21  and  N_29
    6  A    between atoms: C_23  and  N_29
                            x       y       z     vdW  Elec       q    Type
                         _______ _______ _______ _____ _____    ______ ____

>  <TORSDO>
F 6

$$$$
