=
 OpenBabel11062417253D

 45 49  0  0  1  0  0  0  0  0999 V2000
  185.7490  179.0090  138.3590 O   0  0  0  0  0  1  0  0  0  0  0  0
  185.5160  177.7310  137.8530 C   0  0  0  0  0  0  0  0  0  0  0  0
  186.4800  177.0830  137.1550 C   0  0  0  0  0  0  0  0  0  0  0  0
  185.1210  175.7870  135.5120 C   0  0  0  0  0  2  0  0  0  0  0  0
  183.4260  176.9070  136.7460 C   0  0  0  0  0  2  0  0  0  0  0  0
  186.2230  175.7270  136.5660 C   0  0  0  0  0  2  0  0  0  0  0  0
  184.1580  177.1010  138.0710 C   0  0  2  0  0  3  0  0  0  0  0  0
  183.8130  175.6370  136.1420 N   0  0  0  0  0  2  0  0  0  0  0  0
  182.6200  179.0550  143.6250 C   0  0  0  0  0  0  0  0  0  0  0  0
  182.1650  178.3390  138.6440 N   0  0  0  0  0  0  0  0  0  0  0  0
  183.3150  177.8770  139.0350 C   0  0  0  0  0  0  0  0  0  0  0  0
  183.7310  178.0370  140.4000 N   0  0  0  0  0  0  0  0  0  0  0  0
  183.1920  179.1990  144.9900 C   0  0  0  0  0  1  0  0  0  0  0  0
  181.3070  179.1320  139.5310 C   0  0  2  0  0  3  0  0  0  0  0  0
  181.1610  179.3730  143.4020 C   0  0  1  0  0  3  0  0  0  0  0  0
  181.4560  178.6870  140.9900 C   0  0  2  0  0  3  0  0  0  0  0  0
  180.8840  179.7380  141.9410 C   0  0  0  0  0  2  0  0  0  0  0  0
  183.3800  178.6230  142.6620 N   0  0  0  0  0  0  0  0  0  0  0  0
  182.9120  178.4540  141.3170 C   0  0  0  0  0  0  0  0  0  0  0  0
  179.7500  179.3770  137.5840 C   0  0  0  0  0  1  0  0  0  0  0  0
  179.8480  179.0920  139.0700 C   0  0  0  0  0  3  0  0  0  0  0  0
  179.1820  177.7640  139.3860 C   0  0  0  0  0  1  0  0  0  0  0  0
  180.3190  178.2450  143.8220 C   0  0  0  0  0  0  0  0  0  0  0  0
  179.6550  177.3580  144.1530 N   0  0  0  0  0  0  0  0  0  0  0  0
  187.7760  177.6480  136.9000 N   0  0  0  0  0  2  0  0  0  0  0  0
  189.4800  177.5760  138.5680 C   0  0  0  0  0  3  0  0  0  0  0  0
  189.0190  177.1570  137.3990 C   0  0  0  0  0  3  0  0  0  0  0  0
  190.7860  177.0720  139.0880 C   0  0  2  0  0  3  0  0  0  0  0  0
  190.9930  175.7640  138.6500 O   0  0  0  0  0  1  0  0  0  0  0  0
  188.6990  176.4520  143.6950 C   0  0  0  0  0  0  0  0  0  0  0  0
  187.8830  175.5880  143.2730 O   0  0  0  0  0  0  0  0  0  0  0  0
  192.0400  177.6610  142.6350 C   0  0  0  0  0  3  0  0  0  0  0  0
  191.9370  177.5610  141.1760 C   0  0  0  0  0  3  0  0  0  0  0  0
  189.6060  176.7250  141.3820 C   0  0  0  0  0  2  0  0  0  0  0  0
  190.8250  177.1290  140.5830 C   0  0  0  0  0  0  0  0  0  0  0  0
  189.7680  176.8870  142.8340 N   0  0  0  0  0  0  0  0  0  0  0  0
  191.0080  177.3370  143.4060 C   0  0  0  0  0  3  0  0  0  0  0  0
  186.3310  177.9230  144.4890 O   0  0  0  0  0  1  0  0  0  0  0  0
  188.2590  178.1080  147.6330 C   0  0  0  0  0  3  0  0  0  0  0  0
  187.3610  177.7460  145.4060 C   0  0  0  0  0  0  0  0  0  0  0  0
  187.2380  178.2870  146.6970 C   0  0  0  0  0  0  0  0  0  0  0  0
  188.5170  177.0130  145.0570 C   0  0  0  0  0  0  0  0  0  0  0  0
  185.8030  179.1860  147.1610 Cl  0  0  0  0  0  0  0  0  0  0  0  0
  189.4040  177.3900  147.2910 C   0  0  0  0  0  3  0  0  0  0  0  0
  189.5320  176.8490  146.0110 C   0  0  0  0  0  3  0  0  0  0  0  0
  2  7  1  0  0  0  0
  2  1  1  0  0  0  0
  3  2  2  0  0  0  0
  4  8  1  0  0  0  0
  4  6  1  0  0  0  0
  5  7  1  0  0  0  0
  6  3  1  0  0  0  0
  7 11  1  1  0  0  0
  8  5  1  0  0  0  0
  9 13  1  0  0  0  0
 10 11  2  0  0  0  0
 10 14  1  0  0  0  0
 11 12  1  0  0  0  0
 12 19  2  0  0  0  0
 14 21  1  6  0  0  0
 14 16  1  0  0  0  0
 15  9  1  0  0  0  0
 15 23  1  6  0  0  0
 16 19  1  0  0  0  0
 16 17  1  1  0  0  0
 17 15  1  0  0  0  0
 18  9  2  0  0  0  0
 19 18  1  0  0  0  0
 20 21  1  0  0  0  0
 21 22  1  0  0  0  0
 23 24  3  0  0  0  0
 25  3  1  0  0  0  0
 25 27  1  0  0  0  0
 26 28  1  0  0  0  0
 27 26  2  0  0  0  0
 28 29  1  1  0  0  0
 28 35  1  0  0  0  0
 30 42  1  0  0  0  0
 31 30  2  0  0  0  0
 32 37  2  0  0  0  0
 33 32  1  0  0  0  0
 34 36  1  0  0  0  0
 35 33  2  0  0  0  0
 35 34  1  0  0  0  0
 36 37  1  0  0  0  0
 36 30  1  0  0  0  0
 38 40  1  0  0  0  0
 40 41  1  0  0  0  0
 41 43  1  0  0  0  0
 41 39  2  0  0  0  0
 42 40  2  0  0  0  0
 42 45  1  0  0  0  0
 44 39  1  0  0  0  0
 45 44  2  0  0  0  0
M  END
>  <MODEL>
1

>  <REMARK>
 VINA RESULT:      -9.7      0.000      0.000
  Name = 
  8 active torsions:
  status: ('A' for Active; 'I' for Inactive)
    1  A    between atoms: C_2  and  C_22
    2  A    between atoms: C_3  and  C_4
    3  A    between atoms: C_4  and  C_38
    4  A    between atoms: C_10  and  C_44
    5  A    between atoms: C_15  and  C_23
    6  A    between atoms: C_21  and  C_29
    7  A    between atoms: C_27  and  N_34
    8  A    between atoms: N_34  and  C_36
                            x       y       z     vdW  Elec       q    Type
                         _______ _______ _______ _____ _____    ______ ____

>  <TORSDO>
F 8

$$$$
=
 OpenBabel11062417253D

 45 49  0  0  1  0  0  0  0  0999 V2000
  186.4720  178.9970  137.8260 O   0  0  0  0  0  1  0  0  0  0  0  0
  186.3370  177.7020  137.3280 C   0  0  0  0  0  0  0  0  0  0  0  0
  187.4070  177.0480  136.8140 C   0  0  0  0  0  0  0  0  0  0  0  0
  186.3410  175.6840  135.0160 C   0  0  0  0  0  2  0  0  0  0  0  0
  184.4590  176.8140  135.9290 C   0  0  0  0  0  2  0  0  0  0  0  0
  187.2610  175.6720  136.2330 C   0  0  0  0  0  2  0  0  0  0  0  0
  184.9680  177.0570  137.3470 C   0  0  2  0  0  3  0  0  0  0  0  0
  184.9510  175.5330  135.4340 N   0  0  0  0  0  2  0  0  0  0  0  0
  182.2860  178.8360  142.5110 C   0  0  0  0  0  0  0  0  0  0  0  0
  182.9830  178.4230  137.5240 N   0  0  0  0  0  0  0  0  0  0  0  0
  183.9730  177.8480  138.1390 C   0  0  0  0  0  0  0  0  0  0  0  0
  184.0620  177.9010  139.5720 N   0  0  0  0  0  0  0  0  0  0  0  0
  182.5250  178.8610  143.9800 C   0  0  0  0  0  1  0  0  0  0  0  0
  181.9940  179.2350  138.2400 C   0  0  2  0  0  3  0  0  0  0  0  0
  180.9470  179.2830  141.9780 C   0  0  1  0  0  3  0  0  0  0  0  0
  181.7620  178.7030  139.6590 C   0  0  2  0  0  3  0  0  0  0  0  0
  181.0510  179.7460  140.5220 C   0  0  0  0  0  2  0  0  0  0  0  0
  183.2230  178.3940  141.7250 N   0  0  0  0  0  0  0  0  0  0  0  0
  183.0780  178.3350  140.3000 C   0  0  0  0  0  0  0  0  0  0  0  0
  180.3160  180.7910  137.2230 C   0  0  0  0  0  1  0  0  0  0  0  0
  180.6880  179.3390  137.4500 C   0  0  0  0  0  3  0  0  0  0  0  0
  180.7620  178.6100  136.1180 C   0  0  0  0  0  1  0  0  0  0  0  0
  179.9560  178.2080  142.1090 C   0  0  0  0  0  0  0  0  0  0  0  0
  179.1740  177.3610  142.2120 N   0  0  0  0  0  0  0  0  0  0  0  0
  188.7210  177.6260  136.7510 N   0  0  0  0  0  2  0  0  0  0  0  0
  189.7630  177.4790  138.8920 C   0  0  0  0  0  3  0  0  0  0  0  0
  189.8280  177.2840  137.5830 C   0  0  0  0  0  3  0  0  0  0  0  0
  190.9240  177.1340  139.7640 C   0  0  2  0  0  3  0  0  0  0  0  0
  191.2580  175.7900  139.5930 O   0  0  0  0  0  1  0  0  0  0  0  0
  187.9490  176.8310  143.8910 C   0  0  0  0  0  0  0  0  0  0  0  0
  187.3760  175.7880  143.4720 O   0  0  0  0  0  0  0  0  0  0  0  0
  191.2470  178.4310  143.3300 C   0  0  0  0  0  3  0  0  0  0  0  0
  191.4930  178.1070  141.9220 C   0  0  0  0  0  3  0  0  0  0  0  0
  189.3130  176.9220  141.7970 C   0  0  0  0  0  2  0  0  0  0  0  0
  190.6140  177.4100  141.2030 C   0  0  0  0  0  0  0  0  0  0  0  0
  189.1170  177.3150  143.2010 N   0  0  0  0  0  0  0  0  0  0  0  0
  190.1210  178.0480  143.9220 C   0  0  0  0  0  3  0  0  0  0  0  0
  189.1420  176.6980  146.5290 O   0  0  0  0  0  1  0  0  0  0  0  0
  186.2400  178.8580  147.2680 C   0  0  0  0  0  3  0  0  0  0  0  0
  187.9780  177.4380  146.3440 C   0  0  0  0  0  0  0  0  0  0  0  0
  187.4010  178.1020  147.4400 C   0  0  0  0  0  0  0  0  0  0  0  0
  187.3870  177.5410  145.0660 C   0  0  0  0  0  0  0  0  0  0  0  0
  188.1270  178.0030  149.0350 Cl  0  0  0  0  0  0  0  0  0  0  0  0
  185.6490  178.9590  146.0090 C   0  0  0  0  0  3  0  0  0  0  0  0
  186.2190  178.3030  144.9170 C   0  0  0  0  0  3  0  0  0  0  0  0
  2  7  1  0  0  0  0
  2  1  1  0  0  0  0
  3  2  2  0  0  0  0
  4  8  1  0  0  0  0
  4  6  1  0  0  0  0
  5  7  1  0  0  0  0
  6  3  1  0  0  0  0
  7 11  1  6  0  0  0
  8  5  1  0  0  0  0
  9 13  1  0  0  0  0
 10 11  2  0  0  0  0
 10 14  1  0  0  0  0
 11 12  1  0  0  0  0
 12 19  2  0  0  0  0
 14 21  1  6  0  0  0
 14 16  1  0  0  0  0
 15 23  1  6  0  0  0
 15  9  1  0  0  0  0
 16 19  1  0  0  0  0
 16 17  1  1  0  0  0
 17 15  1  0  0  0  0
 18  9  2  0  0  0  0
 19 18  1  0  0  0  0
 20 21  1  0  0  0  0
 22 21  1  0  0  0  0
 23 24  3  0  0  0  0
 25  3  1  0  0  0  0
 25 27  1  0  0  0  0
 26 28  1  0  0  0  0
 27 26  2  0  0  0  0
 28 29  1  1  0  0  0
 28 35  1  0  0  0  0
 30 42  1  0  0  0  0
 31 30  2  0  0  0  0
 32 37  2  0  0  0  0
 33 32  1  0  0  0  0
 34 36  1  0  0  0  0
 35 34  1  0  0  0  0
 35 33  2  0  0  0  0
 36 30  1  0  0  0  0
 36 37  1  0  0  0  0
 39 41  1  0  0  0  0
 40 38  1  0  0  0  0
 40 41  2  0  0  0  0
 41 43  1  0  0  0  0
 42 40  1  0  0  0  0
 44 39  2  0  0  0  0
 45 42  2  0  0  0  0
 45 44  1  0  0  0  0
M  END
>  <MODEL>
2

>  <REMARK>
 VINA RESULT:      -9.6      1.312      1.694
  Name = 
  8 active torsions:
  status: ('A' for Active; 'I' for Inactive)
    1  A    between atoms: C_2  and  C_22
    2  A    between atoms: C_3  and  C_4
    3  A    between atoms: C_4  and  C_38
    4  A    between atoms: C_10  and  C_44
    5  A    between atoms: C_15  and  C_23
    6  A    between atoms: C_21  and  C_29
    7  A    between atoms: C_27  and  N_34
    8  A    between atoms: N_34  and  C_36
                            x       y       z     vdW  Elec       q    Type
                         _______ _______ _______ _____ _____    ______ ____

>  <TORSDO>
F 8

$$$$
=
 OpenBabel11062417253D

 45 49  0  0  1  0  0  0  0  0999 V2000
  185.1060  177.8150  137.4000 O   0  0  0  0  0  1  0  0  0  0  0  0
  184.8380  176.4510  137.2970 C   0  0  0  0  0  0  0  0  0  0  0  0
  185.6880  175.6310  136.6320 C   0  0  0  0  0  0  0  0  0  0  0  0
  184.1120  173.9590  135.6610 C   0  0  0  0  0  2  0  0  0  0  0  0
  182.6200  175.3810  136.8440 C   0  0  0  0  0  2  0  0  0  0  0  0
  185.3840  174.1700  136.4760 C   0  0  0  0  0  2  0  0  0  0  0  0
  183.5660  175.9130  137.9160 C   0  0  2  0  0  3  0  0  0  0  0  0
  182.9430  173.9930  136.5340 N   0  0  0  0  0  2  0  0  0  0  0  0
  182.7130  178.9860  143.0980 C   0  0  0  0  0  0  0  0  0  0  0  0
  181.7310  177.4060  138.4010 N   0  0  0  0  0  0  0  0  0  0  0  0
  182.8770  176.9260  138.7780 C   0  0  0  0  0  0  0  0  0  0  0  0
  183.4330  177.2970  140.0490 N   0  0  0  0  0  0  0  0  0  0  0  0
  183.4230  179.3300  144.3600 C   0  0  0  0  0  1  0  0  0  0  0  0
  181.0210  178.4220  139.1860 C   0  0  2  0  0  3  0  0  0  0  0  0
  181.2670  179.3850  142.9380 C   0  0  1  0  0  3  0  0  0  0  0  0
  181.2780  178.2420  140.6860 C   0  0  2  0  0  3  0  0  0  0  0  0
  180.8760  179.4970  141.4620 C   0  0  0  0  0  2  0  0  0  0  0  0
  183.3440  178.3190  142.1770 N   0  0  0  0  0  0  0  0  0  0  0  0
  182.7380  177.9460  140.9330 C   0  0  0  0  0  0  0  0  0  0  0  0
  179.1030  179.7730  138.3090 C   0  0  0  0  0  1  0  0  0  0  0  0
  179.5250  178.4260  138.8610 C   0  0  0  0  0  3  0  0  0  0  0  0
  179.1460  177.3240  137.8850 C   0  0  0  0  0  1  0  0  0  0  0  0
  180.3910  178.4320  143.6340 C   0  0  0  0  0  0  0  0  0  0  0  0
  179.7010  177.6820  144.1810 N   0  0  0  0  0  0  0  0  0  0  0  0
  186.8950  176.0970  136.0070 N   0  0  0  0  0  2  0  0  0  0  0  0
  188.6670  175.8730  137.5900 C   0  0  0  0  0  3  0  0  0  0  0  0
  188.0450  176.6080  136.6790 C   0  0  0  0  0  3  0  0  0  0  0  0
  189.8630  176.4100  138.3030 C   0  0  2  0  0  3  0  0  0  0  0  0
  190.7500  175.3700  138.5830 O   0  0  0  0  0  1  0  0  0  0  0  0
  189.5810  176.7470  143.3800 C   0  0  0  0  0  0  0  0  0  0  0  0
  190.5790  175.9940  143.5430 O   0  0  0  0  0  0  0  0  0  0  0  0
  188.3870  178.9920  140.6820 C   0  0  0  0  0  3  0  0  0  0  0  0
  188.8230  178.2680  139.4840 C   0  0  0  0  0  3  0  0  0  0  0  0
  189.7710  176.4620  140.9040 C   0  0  0  0  0  2  0  0  0  0  0  0
  189.4650  177.1030  139.5690 C   0  0  0  0  0  0  0  0  0  0  0  0
  189.2710  177.2250  142.0570 N   0  0  0  0  0  0  0  0  0  0  0  0
  188.6070  178.4880  141.8910 C   0  0  0  0  0  3  0  0  0  0  0  0
  190.6950  177.4830  145.9530 O   0  0  0  0  0  1  0  0  0  0  0  0
  187.0960  177.6880  146.7540 C   0  0  0  0  0  3  0  0  0  0  0  0
  189.3130  177.4300  145.7990 C   0  0  0  0  0  0  0  0  0  0  0  0
  188.4840  177.7270  146.8950 C   0  0  0  0  0  0  0  0  0  0  0  0
  188.7410  177.0970  144.5520 C   0  0  0  0  0  0  0  0  0  0  0  0
  189.1730  178.1600  148.4510 Cl  0  0  0  0  0  0  0  0  0  0  0  0
  186.5250  177.3560  145.5260 C   0  0  0  0  0  3  0  0  0  0  0  0
  187.3430  177.0610  144.4330 C   0  0  0  0  0  3  0  0  0  0  0  0
  2  1  1  0  0  0  0
  2  7  1  0  0  0  0
  3  2  2  0  0  0  0
  4  6  1  0  0  0  0
  4  8  1  0  0  0  0
  5  7  1  0  0  0  0
  6  3  1  0  0  0  0
  7 11  1  6  0  0  0
  8  5  1  0  0  0  0
  9 13  1  0  0  0  0
 10 11  2  0  0  0  0
 10 14  1  0  0  0  0
 11 12  1  0  0  0  0
 12 19  2  0  0  0  0
 14 21  1  1  0  0  0
 14 16  1  0  0  0  0
 15  9  1  0  0  0  0
 15 23  1  6  0  0  0
 16 19  1  0  0  0  0
 16 17  1  1  0  0  0
 17 15  1  0  0  0  0
 18  9  2  0  0  0  0
 19 18  1  0  0  0  0
 20 21  1  0  0  0  0
 22 21  1  0  0  0  0
 23 24  3  0  0  0  0
 25  3  1  0  0  0  0
 25 27  1  0  0  0  0
 26 28  1  0  0  0  0
 27 26  2  0  0  0  0
 28 29  1  1  0  0  0
 28 35  1  0  0  0  0
 30 31  2  0  0  0  0
 30 42  1  0  0  0  0
 32 37  2  0  0  0  0
 33 35  2  0  0  0  0
 33 32  1  0  0  0  0
 34 36  1  0  0  0  0
 35 34  1  0  0  0  0
 36 30  1  0  0  0  0
 37 36  1  0  0  0  0
 39 41  1  0  0  0  0
 40 38  1  0  0  0  0
 40 41  2  0  0  0  0
 41 43  1  0  0  0  0
 42 40  1  0  0  0  0
 44 39  2  0  0  0  0
 45 42  2  0  0  0  0
 45 44  1  0  0  0  0
M  END
>  <MODEL>
3

>  <REMARK>
 VINA RESULT:      -9.1      1.505      1.907
  Name = 
  8 active torsions:
  status: ('A' for Active; 'I' for Inactive)
    1  A    between atoms: C_2  and  C_22
    2  A    between atoms: C_3  and  C_4
    3  A    between atoms: C_4  and  C_38
    4  A    between atoms: C_10  and  C_44
    5  A    between atoms: C_15  and  C_23
    6  A    between atoms: C_21  and  C_29
    7  A    between atoms: C_27  and  N_34
    8  A    between atoms: N_34  and  C_36
                            x       y       z     vdW  Elec       q    Type
                         _______ _______ _______ _____ _____    ______ ____

>  <TORSDO>
F 8

$$$$
=
 OpenBabel11062417253D

 45 49  0  0  1  0  0  0  0  0999 V2000
  185.7210  178.2310  137.4020 O   0  0  0  0  0  1  0  0  0  0  0  0
  185.6440  176.8400  137.3450 C   0  0  0  0  0  0  0  0  0  0  0  0
  186.7660  176.0960  137.1900 C   0  0  0  0  0  0  0  0  0  0  0  0
  185.9120  174.1820  135.8350 C   0  0  0  0  0  2  0  0  0  0  0  0
  183.9380  175.4750  136.1210 C   0  0  0  0  0  2  0  0  0  0  0  0
  186.6880  174.6010  137.0800 C   0  0  0  0  0  2  0  0  0  0  0  0
  184.2820  176.1850  137.4270 C   0  0  2  0  0  3  0  0  0  0  0  0
  184.4840  174.1220  136.1280 N   0  0  0  0  0  2  0  0  0  0  0  0
  180.2290  180.5670  136.2470 C   0  0  0  0  0  0  0  0  0  0  0  0
  182.9920  177.4090  139.0610 N   0  0  0  0  0  0  0  0  0  0  0  0
  183.2040  177.1530  137.8050 C   0  0  0  0  0  0  0  0  0  0  0  0
  182.4690  177.8550  136.7910 N   0  0  0  0  0  0  0  0  0  0  0  0
  179.5020  181.1810  135.1030 C   0  0  0  0  0  1  0  0  0  0  0  0
  181.9310  178.3240  139.4960 C   0  0  2  0  0  3  0  0  0  0  0  0
  180.0880  181.1790  137.6190 C   0  0  1  0  0  3  0  0  0  0  0  0
  181.7150  179.4470  138.4750 C   0  0  2  0  0  3  0  0  0  0  0  0
  180.3830  180.1560  138.7210 C   0  0  0  0  0  2  0  0  0  0  0  0
  180.9980  179.5410  136.0310 N   0  0  0  0  0  0  0  0  0  0  0  0
  181.7350  178.8880  137.0730 C   0  0  0  0  0  0  0  0  0  0  0  0
  181.0500  178.5940  141.8250 C   0  0  0  0  0  1  0  0  0  0  0  0
  182.2150  178.8740  140.8960 C   0  0  0  0  0  3  0  0  0  0  0  0
  183.4950  178.3080  141.4870 C   0  0  0  0  0  1  0  0  0  0  0  0
  180.9640  182.3500  137.7530 C   0  0  0  0  0  0  0  0  0  0  0  0
  181.6550  183.2720  137.8580 N   0  0  0  0  0  0  0  0  0  0  0  0
  188.0780  176.6710  137.0830 N   0  0  0  0  0  2  0  0  0  0  0  0
  189.6820  177.2850  138.7400 C   0  0  0  0  0  3  0  0  0  0  0  0
  189.1980  176.3690  137.9140 C   0  0  0  0  0  3  0  0  0  0  0  0
  190.8600  176.9750  139.6020 C   0  0  2  0  0  3  0  0  0  0  0  0
  191.1990  175.6280  139.4700 O   0  0  0  0  0  1  0  0  0  0  0  0
  187.9750  176.7630  143.7980 C   0  0  0  0  0  0  0  0  0  0  0  0
  187.4150  175.6950  143.4280 O   0  0  0  0  0  0  0  0  0  0  0  0
  191.2280  178.4060  143.1120 C   0  0  0  0  0  3  0  0  0  0  0  0
  191.4520  178.0360  141.7110 C   0  0  0  0  0  3  0  0  0  0  0  0
  189.2950  176.8050  141.6740 C   0  0  0  0  0  2  0  0  0  0  0  0
  190.5740  177.2960  141.0360 C   0  0  0  0  0  0  0  0  0  0  0  0
  189.1190  177.2440  143.0670 N   0  0  0  0  0  0  0  0  0  0  0  0
  190.1220  178.0220  143.7400 C   0  0  0  0  0  3  0  0  0  0  0  0
  189.2260  176.7520  146.4120 O   0  0  0  0  0  1  0  0  0  0  0  0
  186.2930  178.8770  147.1350 C   0  0  0  0  0  3  0  0  0  0  0  0
  188.0430  177.4610  146.2260 C   0  0  0  0  0  0  0  0  0  0  0  0
  187.4740  178.1520  147.3090 C   0  0  0  0  0  0  0  0  0  0  0  0
  187.4230  177.5040  144.9580 C   0  0  0  0  0  0  0  0  0  0  0  0
  188.2360  178.1280  148.8910 Cl  0  0  0  0  0  0  0  0  0  0  0  0
  185.6740  178.9200  145.8870 C   0  0  0  0  0  3  0  0  0  0  0  0
  186.2350  178.2350  144.8070 C   0  0  0  0  0  3  0  0  0  0  0  0
  2  1  1  0  0  0  0
  2  7  1  0  0  0  0
  3  2  2  0  0  0  0
  4  8  1  0  0  0  0
  4  6  1  0  0  0  0
  5  8  1  0  0  0  0
  5  7  1  0  0  0  0
  6  3  1  0  0  0  0
  7 11  1  6  0  0  0
  9 15  1  0  0  0  0
 10 14  1  0  0  0  0
 11 10  2  0  0  0  0
 12 19  2  0  0  0  0
 12 11  1  0  0  0  0
 13  9  1  0  0  0  0
 14 21  1  1  0  0  0
 15 23  1  6  0  0  0
 15 17  1  0  0  0  0
 16 17  1  1  0  0  0
 16 14  1  0  0  0  0
 18  9  2  0  0  0  0
 18 19  1  0  0  0  0
 19 16  1  0  0  0  0
 21 22  1  0  0  0  0
 21 20  1  0  0  0  0
 23 24  3  0  0  0  0
 25  3  1  0  0  0  0
 25 27  1  0  0  0  0
 26 28  1  0  0  0  0
 27 26  2  0  0  0  0
 28 29  1  1  0  0  0
 28 35  1  0  0  0  0
 30 42  1  0  0  0  0
 31 30  2  0  0  0  0
 32 37  2  0  0  0  0
 33 32  1  0  0  0  0
 34 36  1  0  0  0  0
 35 34  1  0  0  0  0
 35 33  2  0  0  0  0
 36 37  1  0  0  0  0
 36 30  1  0  0  0  0
 39 41  1  0  0  0  0
 40 38  1  0  0  0  0
 40 41  2  0  0  0  0
 41 43  1  0  0  0  0
 42 40  1  0  0  0  0
 44 39  2  0  0  0  0
 45 42  2  0  0  0  0
 45 44  1  0  0  0  0
M  END
>  <MODEL>
4

>  <REMARK>
 VINA RESULT:      -8.7      1.758      3.640
  Name = 
  8 active torsions:
  status: ('A' for Active; 'I' for Inactive)
    1  A    between atoms: C_2  and  C_22
    2  A    between atoms: C_3  and  C_4
    3  A    between atoms: C_4  and  C_38
    4  A    between atoms: C_10  and  C_44
    5  A    between atoms: C_15  and  C_23
    6  A    between atoms: C_21  and  C_29
    7  A    between atoms: C_27  and  N_34
    8  A    between atoms: N_34  and  C_36
                            x       y       z     vdW  Elec       q    Type
                         _______ _______ _______ _____ _____    ______ ____

>  <TORSDO>
F 8

$$$$
=
 OpenBabel11062417253D

 45 49  0  0  1  0  0  0  0  0999 V2000
  187.8540  177.3360  142.0870 O   0  0  0  0  0  1  0  0  0  0  0  0
  189.0510  177.0950  142.7600 C   0  0  0  0  0  0  0  0  0  0  0  0
  189.0580  176.8900  144.0990 C   0  0  0  0  0  0  0  0  0  0  0  0
  191.2400  177.9090  144.7500 C   0  0  0  0  0  2  0  0  0  0  0  0
  191.2420  178.2530  142.3980 C   0  0  0  0  0  2  0  0  0  0  0  0
  190.3460  176.6760  144.8390 C   0  0  0  0  0  2  0  0  0  0  0  0
  190.3410  177.0990  141.9680 C   0  0  2  0  0  3  0  0  0  0  0  0
  192.0550  177.8540  143.5410 N   0  0  0  0  0  2  0  0  0  0  0  0
  186.8150  177.2060  137.0100 C   0  0  0  0  0  0  0  0  0  0  0  0
  191.0900  176.8700  139.6830 N   0  0  0  0  0  0  0  0  0  0  0  0
  190.1050  177.1320  140.4900 C   0  0  0  0  0  0  0  0  0  0  0  0
  188.7870  177.3650  139.9690 N   0  0  0  0  0  0  0  0  0  0  0  0
  185.4200  177.5190  136.6000 C   0  0  0  0  0  1  0  0  0  0  0  0
  190.9290  176.9150  138.2260 C   0  0  2  0  0  3  0  0  0  0  0  0
  187.7680  176.6300  135.9920 C   0  0  1  0  0  3  0  0  0  0  0  0
  189.5140  176.4960  137.8110 C   0  0  2  0  0  3  0  0  0  0  0  0
  189.2260  176.9090  136.3670 C   0  0  0  0  0  2  0  0  0  0  0  0
  187.1710  177.4010  138.2460 N   0  0  0  0  0  0  0  0  0  0  0  0
  188.4940  177.1280  138.7270 C   0  0  0  0  0  0  0  0  0  0  0  0
  193.3670  176.3520  138.1190 C   0  0  0  0  0  1  0  0  0  0  0  0
  192.0000  176.0750  137.5260 C   0  0  0  0  0  3  0  0  0  0  0  0
  191.6990  174.5870  137.5940 C   0  0  0  0  0  1  0  0  0  0  0  0
  187.5420  175.1880  135.8340 C   0  0  0  0  0  0  0  0  0  0  0  0
  187.3640  174.0510  135.7110 N   0  0  0  0  0  0  0  0  0  0  0  0
  187.8630  176.9000  144.8980 N   0  0  0  0  0  2  0  0  0  0  0  0
  185.6780  177.8510  144.7840 C   0  0  0  0  0  3  0  0  0  0  0  0
  186.9670  177.9990  145.0530 C   0  0  0  0  0  3  0  0  0  0  0  0
  184.7400  179.0030  144.9340 C   0  0  2  0  0  3  0  0  0  0  0  0
  184.1860  178.9950  146.2140 O   0  0  0  0  0  1  0  0  0  0  0  0
  183.0810  178.6570  140.1280 C   0  0  0  0  0  0  0  0  0  0  0  0
  184.1300  178.0700  139.7470 O   0  0  0  0  0  0  0  0  0  0  0  0
  181.2770  179.0030  143.3490 C   0  0  0  0  0  3  0  0  0  0  0  0
  182.3880  179.0300  144.3050 C   0  0  0  0  0  3  0  0  0  0  0  0
  184.0180  178.8310  142.4390 C   0  0  0  0  0  2  0  0  0  0  0  0
  183.6560  178.9480  143.9020 C   0  0  0  0  0  0  0  0  0  0  0  0
  182.8560  178.8470  141.5370 N   0  0  0  0  0  0  0  0  0  0  0  0
  181.5130  178.9130  142.0450 C   0  0  0  0  0  3  0  0  0  0  0  0
  181.1000  176.9590  138.8650 O   0  0  0  0  0  1  0  0  0  0  0  0
  180.3750  180.1440  137.1440 C   0  0  0  0  0  3  0  0  0  0  0  0
  181.1830  178.2980  138.4970 C   0  0  0  0  0  0  0  0  0  0  0  0
  180.3110  178.8000  137.5160 C   0  0  0  0  0  0  0  0  0  0  0  0
  182.1220  179.1550  139.1110 C   0  0  0  0  0  0  0  0  0  0  0  0
  179.1230  177.7580  136.7510 Cl  0  0  0  0  0  0  0  0  0  0  0  0
  181.3030  180.9950  137.7440 C   0  0  0  0  0  3  0  0  0  0  0  0
  182.1720  180.5010  138.7190 C   0  0  0  0  0  3  0  0  0  0  0  0
  1  2  1  0  0  0  0
  2  3  2  0  0  0  0
  3  6  1  0  0  0  0
  3 25  1  0  0  0  0
  4  6  1  0  0  0  0
  5  8  1  0  0  0  0
  7 11  1  6  0  0  0
  7  5  1  0  0  0  0
  7  2  1  0  0  0  0
  8  4  1  0  0  0  0
  9 18  2  0  0  0  0
 10 11  2  0  0  0  0
 12 11  1  0  0  0  0
 13  9  1  0  0  0  0
 14 21  1  6  0  0  0
 14 10  1  0  0  0  0
 15 23  1  1  0  0  0
 15 17  1  0  0  0  0
 15  9  1  0  0  0  0
 16 17  1  6  0  0  0
 16 14  1  0  0  0  0
 16 19  1  0  0  0  0
 18 19  1  0  0  0  0
 19 12  2  0  0  0  0
 21 22  1  0  0  0  0
 21 20  1  0  0  0  0
 24 23  3  0  0  0  0
 25 27  1  0  0  0  0
 26 28  1  0  0  0  0
 26 27  2  0  0  0  0
 28 29  1  1  0  0  0
 30 36  1  0  0  0  0
 31 30  2  0  0  0  0
 32 33  1  0  0  0  0
 34 35  1  0  0  0  0
 35 33  2  0  0  0  0
 35 28  1  0  0  0  0
 36 37  1  0  0  0  0
 36 34  1  0  0  0  0
 37 32  2  0  0  0  0
 39 41  2  0  0  0  0
 39 44  1  0  0  0  0
 40 38  1  0  0  0  0
 40 42  2  0  0  0  0
 41 40  1  0  0  0  0
 42 30  1  0  0  0  0
 43 41  1  0  0  0  0
 44 45  2  0  0  0  0
 45 42  1  0  0  0  0
M  END
>  <MODEL>
5

>  <REMARK>
 VINA RESULT:      -8.7      2.676      9.507
  Name = 
  8 active torsions:
  status: ('A' for Active; 'I' for Inactive)
    1  A    between atoms: C_2  and  C_22
    2  A    between atoms: C_3  and  C_4
    3  A    between atoms: C_4  and  C_38
    4  A    between atoms: C_10  and  C_44
    5  A    between atoms: C_15  and  C_23
    6  A    between atoms: C_21  and  C_29
    7  A    between atoms: C_27  and  N_34
    8  A    between atoms: N_34  and  C_36
                            x       y       z     vdW  Elec       q    Type
                         _______ _______ _______ _____ _____    ______ ____

>  <TORSDO>
F 8

$$$$
=
 OpenBabel11062417253D

 45 49  0  0  1  0  0  0  0  0999 V2000
  186.2170  179.3090  141.2780 O   0  0  0  0  0  1  0  0  0  0  0  0
  185.0860  178.7820  141.9000 C   0  0  0  0  0  0  0  0  0  0  0  0
  183.8960  178.7530  141.2530 C   0  0  0  0  0  0  0  0  0  0  0  0
  182.2950  179.0910  143.1370 C   0  0  0  0  0  2  0  0  0  0  0  0
  184.3800  179.1210  144.2790 C   0  0  0  0  0  2  0  0  0  0  0  0
  182.6640  178.2310  141.9320 C   0  0  0  0  0  2  0  0  0  0  0  0
  185.2110  178.2740  143.3210 C   0  0  2  0  0  3  0  0  0  0  0  0
  183.0080  178.6280  144.3230 N   0  0  0  0  0  2  0  0  0  0  0  0
  191.1820  177.4840  142.4530 C   0  0  0  0  0  0  0  0  0  0  0  0
  186.8890  178.0950  145.0480 N   0  0  0  0  0  0  0  0  0  0  0  0
  186.6350  178.1970  143.7780 C   0  0  0  0  0  0  0  0  0  0  0  0
  187.7040  178.1480  142.8210 N   0  0  0  0  0  0  0  0  0  0  0  0
  192.1960  177.5030  141.3650 C   0  0  0  0  0  1  0  0  0  0  0  0
  188.2630  178.0450  145.5600 C   0  0  2  0  0  3  0  0  0  0  0  0
  191.6000  177.0590  143.8400 C   0  0  1  0  0  3  0  0  0  0  0  0
  189.1990  177.3430  144.5700 C   0  0  2  0  0  3  0  0  0  0  0  0
  190.6620  177.6310  144.9070 C   0  0  0  0  0  2  0  0  0  0  0  0
  189.9500  177.7970  142.1770 N   0  0  0  0  0  0  0  0  0  0  0  0
  188.9090  177.8050  143.1620 C   0  0  0  0  0  0  0  0  0  0  0  0
  189.5290  177.8780  147.7150 C   0  0  0  0  0  1  0  0  0  0  0  0
  188.3130  177.3990  146.9470 C   0  0  0  0  0  3  0  0  0  0  0  0
  187.0530  177.6690  147.7520 C   0  0  0  0  0  1  0  0  0  0  0  0
  191.6580  175.5950  143.9340 C   0  0  0  0  0  0  0  0  0  0  0  0
  191.7040  174.4410  144.0090 N   0  0  0  0  0  0  0  0  0  0  0  0
  183.7210  179.2460  139.9150 N   0  0  0  0  0  2  0  0  0  0  0  0
  184.9290  177.9240  138.3370 C   0  0  0  0  0  3  0  0  0  0  0  0
  183.7830  178.4680  138.7200 C   0  0  0  0  0  3  0  0  0  0  0  0
  184.9990  177.1200  137.0820 C   0  0  2  0  0  3  0  0  0  0  0  0
  184.4910  175.8410  137.3130 O   0  0  0  0  0  1  0  0  0  0  0  0
  189.6680  175.0770  137.0360 C   0  0  0  0  0  0  0  0  0  0  0  0
  189.2520  173.9730  137.4810 O   0  0  0  0  0  0  0  0  0  0  0  0
  188.1740  177.8770  135.1190 C   0  0  0  0  0  3  0  0  0  0  0  0
  186.8050  177.8920  135.6430 C   0  0  0  0  0  3  0  0  0  0  0  0
  187.3480  176.0010  137.1600 C   0  0  0  0  0  2  0  0  0  0  0  0
  186.4070  177.0330  136.5800 C   0  0  0  0  0  0  0  0  0  0  0  0
  188.7120  176.0690  136.6150 N   0  0  0  0  0  0  0  0  0  0  0  0
  189.0640  177.0090  135.5860 C   0  0  0  0  0  3  0  0  0  0  0  0
  191.3930  173.9370  135.0060 O   0  0  0  0  0  1  0  0  0  0  0  0
  193.9010  175.7980  136.9770 C   0  0  0  0  0  3  0  0  0  0  0  0
  191.9470  174.7420  135.9960 C   0  0  0  0  0  0  0  0  0  0  0  0
  193.3320  174.9820  135.9970 C   0  0  0  0  0  0  0  0  0  0  0  0
  191.1290  175.3310  136.9840 C   0  0  0  0  0  0  0  0  0  0  0  0
  194.3670  174.2750  134.7680 Cl  0  0  0  0  0  0  0  0  0  0  0  0
  193.0980  176.3780  137.9590 C   0  0  0  0  0  3  0  0  0  0  0  0
  191.7220  176.1440  137.9630 C   0  0  0  0  0  3  0  0  0  0  0  0
  1  2  1  0  0  0  0
  2  7  1  0  0  0  0
  3  2  2  0  0  0  0
  3  6  1  0  0  0  0
  4  8  1  0  0  0  0
  5  8  1  0  0  0  0
  6  4  1  0  0  0  0
  7 11  1  1  0  0  0
  7  5  1  0  0  0  0
  9 15  1  0  0  0  0
 10 14  1  0  0  0  0
 11 10  2  0  0  0  0
 12 19  2  0  0  0  0
 12 11  1  0  0  0  0
 13  9  1  0  0  0  0
 14 21  1  1  0  0  0
 15 23  1  6  0  0  0
 15 17  1  0  0  0  0
 16 17  1  1  0  0  0
 16 14  1  0  0  0  0
 18  9  2  0  0  0  0
 18 19  1  0  0  0  0
 19 16  1  0  0  0  0
 21 20  1  0  0  0  0
 21 22  1  0  0  0  0
 23 24  3  0  0  0  0
 25  3  1  0  0  0  0
 26 27  2  0  0  0  0
 27 25  1  0  0  0  0
 28 29  1  1  0  0  0
 28 26  1  0  0  0  0
 30 31  2  0  0  0  0
 32 37  2  0  0  0  0
 32 33  1  0  0  0  0
 33 35  2  0  0  0  0
 35 28  1  0  0  0  0
 35 34  1  0  0  0  0
 36 30  1  0  0  0  0
 36 34  1  0  0  0  0
 37 36  1  0  0  0  0
 38 40  1  0  0  0  0
 39 44  1  0  0  0  0
 40 41  1  0  0  0  0
 40 42  2  0  0  0  0
 41 39  2  0  0  0  0
 42 30  1  0  0  0  0
 42 45  1  0  0  0  0
 43 41  1  0  0  0  0
 44 45  2  0  0  0  0
M  END
>  <MODEL>
6

>  <REMARK>
 VINA RESULT:      -8.6      3.234      8.777
  Name = 
  8 active torsions:
  status: ('A' for Active; 'I' for Inactive)
    1  A    between atoms: C_2  and  C_22
    2  A    between atoms: C_3  and  C_4
    3  A    between atoms: C_4  and  C_38
    4  A    between atoms: C_10  and  C_44
    5  A    between atoms: C_15  and  C_23
    6  A    between atoms: C_21  and  C_29
    7  A    between atoms: C_27  and  N_34
    8  A    between atoms: N_34  and  C_36
                            x       y       z     vdW  Elec       q    Type
                         _______ _______ _______ _____ _____    ______ ____

>  <TORSDO>
F 8

$$$$
=
 OpenBabel11062417253D

 45 49  0  0  1  0  0  0  0  0999 V2000
  188.2810  178.6440  143.2510 O   0  0  0  0  0  1  0  0  0  0  0  0
  189.1440  177.6740  143.7580 C   0  0  0  0  0  0  0  0  0  0  0  0
  189.1320  177.3650  145.0780 C   0  0  0  0  0  0  0  0  0  0  0  0
  191.5330  176.8250  145.4860 C   0  0  0  0  0  2  0  0  0  0  0  0
  191.5550  177.3460  143.1670 C   0  0  0  0  0  2  0  0  0  0  0  0
  190.0900  176.3560  145.6410 C   0  0  0  0  0  2  0  0  0  0  0  0
  190.1130  176.9990  142.8110 C   0  0  2  0  0  3  0  0  0  0  0  0
  192.0550  176.4270  144.1830 N   0  0  0  0  0  2  0  0  0  0  0  0
  186.4320  178.2530  138.1310 C   0  0  0  0  0  0  0  0  0  0  0  0
  190.7610  177.1440  140.4890 N   0  0  0  0  0  0  0  0  0  0  0  0
  189.8280  177.3190  141.3770 C   0  0  0  0  0  0  0  0  0  0  0  0
  188.5140  177.7320  140.9710 N   0  0  0  0  0  0  0  0  0  0  0  0
  185.0500  178.7280  137.8530 C   0  0  0  0  0  1  0  0  0  0  0  0
  190.5530  177.4680  139.0740 C   0  0  2  0  0  3  0  0  0  0  0  0
  187.3020  177.8120  136.9800 C   0  0  1  0  0  3  0  0  0  0  0  0
  189.0970  177.2280  138.6580 C   0  0  2  0  0  3  0  0  0  0  0  0
  188.7900  177.9190  137.3300 C   0  0  0  0  0  2  0  0  0  0  0  0
  186.8450  178.1930  139.3630 N   0  0  0  0  0  0  0  0  0  0  0  0
  188.1600  177.7470  139.7220 C   0  0  0  0  0  0  0  0  0  0  0  0
  192.9330  176.7530  138.7610 C   0  0  0  0  0  1  0  0  0  0  0  0
  191.5330  176.7010  138.1820 C   0  0  0  0  0  3  0  0  0  0  0  0
  191.1120  175.2560  137.9750 C   0  0  0  0  0  1  0  0  0  0  0  0
  186.9640  176.4410  136.5750 C   0  0  0  0  0  0  0  0  0  0  0  0
  186.6970  175.3620  136.2560 N   0  0  0  0  0  0  0  0  0  0  0  0
  188.2490  177.9940  146.0200 N   0  0  0  0  0  2  0  0  0  0  0  0
  186.1180  179.0530  145.8390 C   0  0  0  0  0  3  0  0  0  0  0  0
  186.8230  177.9430  145.9980 C   0  0  0  0  0  3  0  0  0  0  0  0
  184.6260  179.0030  145.8280 C   0  0  2  0  0  3  0  0  0  0  0  0
  184.1850  177.9320  146.6060 O   0  0  0  0  0  1  0  0  0  0  0  0
  180.9530  179.3780  142.3150 C   0  0  0  0  0  0  0  0  0  0  0  0
  180.3310  180.2530  142.9750 O   0  0  0  0  0  0  0  0  0  0  0  0
  184.4800  178.2530  142.0970 C   0  0  0  0  0  3  0  0  0  0  0  0
  184.9270  178.4230  143.4830 C   0  0  0  0  0  3  0  0  0  0  0  0
  182.6660  179.2270  144.1300 C   0  0  0  0  0  2  0  0  0  0  0  0
  184.1050  178.8740  144.4300 C   0  0  0  0  0  0  0  0  0  0  0  0
  182.2780  178.9960  142.7300 N   0  0  0  0  0  0  0  0  0  0  0  0
  183.2260  178.5300  141.7560 C   0  0  0  0  0  3  0  0  0  0  0  0
  180.8070  180.6500  139.7150 O   0  0  0  0  0  1  0  0  0  0  0  0
  178.9660  177.5340  138.9850 C   0  0  0  0  0  3  0  0  0  0  0  0
  180.2160  179.4040  139.8970 C   0  0  0  0  0  0  0  0  0  0  0  0
  179.5540  178.7890  138.8210 C   0  0  0  0  0  0  0  0  0  0  0  0
  180.2910  178.7490  141.1460 C   0  0  0  0  0  0  0  0  0  0  0  0
  179.4630  179.5770  137.2540 Cl  0  0  0  0  0  0  0  0  0  0  0  0
  179.0330  176.8840  140.2170 C   0  0  0  0  0  3  0  0  0  0  0  0
  179.6890  177.4890  141.2900 C   0  0  0  0  0  3  0  0  0  0  0  0
  1  2  1  0  0  0  0
  2  3  2  0  0  0  0
  3  6  1  0  0  0  0
  3 25  1  0  0  0  0
  4  6  1  0  0  0  0
  5  8  1  0  0  0  0
  7 11  1  6  0  0  0
  7  5  1  0  0  0  0
  7  2  1  0  0  0  0
  8  4  1  0  0  0  0
  9 18  2  0  0  0  0
 10 11  2  0  0  0  0
 12 11  1  0  0  0  0
 13  9  1  0  0  0  0
 14 21  1  6  0  0  0
 14 10  1  0  0  0  0
 15 23  1  1  0  0  0
 15 17  1  0  0  0  0
 15  9  1  0  0  0  0
 16 17  1  6  0  0  0
 16 14  1  0  0  0  0
 16 19  1  0  0  0  0
 18 19  1  0  0  0  0
 19 12  2  0  0  0  0
 21 20  1  0  0  0  0
 22 21  1  0  0  0  0
 24 23  3  0  0  0  0
 26 27  2  0  0  0  0
 27 25  1  0  0  0  0
 28 26  1  0  0  0  0
 28 29  1  1  0  0  0
 30 36  1  0  0  0  0
 30 31  2  0  0  0  0
 32 33  1  0  0  0  0
 33 35  2  0  0  0  0
 34 35  1  0  0  0  0
 35 28  1  0  0  0  0
 36 34  1  0  0  0  0
 37 32  2  0  0  0  0
 37 36  1  0  0  0  0
 38 40  1  0  0  0  0
 39 44  1  0  0  0  0
 40 42  2  0  0  0  0
 41 39  2  0  0  0  0
 41 40  1  0  0  0  0
 42 45  1  0  0  0  0
 42 30  1  0  0  0  0
 43 41  1  0  0  0  0
 44 45  2  0  0  0  0
M  END
>  <MODEL>
7

>  <REMARK>
 VINA RESULT:      -8.3      2.737      9.283
  Name = 
  8 active torsions:
  status: ('A' for Active; 'I' for Inactive)
    1  A    between atoms: C_2  and  C_22
    2  A    between atoms: C_3  and  C_4
    3  A    between atoms: C_4  and  C_38
    4  A    between atoms: C_10  and  C_44
    5  A    between atoms: C_15  and  C_23
    6  A    between atoms: C_21  and  C_29
    7  A    between atoms: C_27  and  N_34
    8  A    between atoms: N_34  and  C_36
                            x       y       z     vdW  Elec       q    Type
                         _______ _______ _______ _____ _____    ______ ____

>  <TORSDO>
F 8

$$$$
=
 OpenBabel11062417253D

 45 49  0  0  1  0  0  0  0  0999 V2000
  183.4680  178.3090  141.0750 O   0  0  0  0  0  1  0  0  0  0  0  0
  182.1900  178.6310  141.5310 C   0  0  0  0  0  0  0  0  0  0  0  0
  182.0200  179.2220  142.7390 C   0  0  0  0  0  0  0  0  0  0  0  0
  179.8400  178.2520  143.4660 C   0  0  0  0  0  2  0  0  0  0  0  0
  180.1240  177.2300  141.3400 C   0  0  0  0  0  2  0  0  0  0  0  0
  180.6470  179.5300  143.2580 C   0  0  0  0  0  2  0  0  0  0  0  0
  181.0010  178.2800  140.6640 C   0  0  2  0  0  3  0  0  0  0  0  0
  179.1650  177.8750  142.2290 N   0  0  0  0  0  2  0  0  0  0  0  0
  184.4230  175.1250  136.7450 C   0  0  0  0  0  0  0  0  0  0  0  0
  180.9600  178.4790  138.2570 N   0  0  0  0  0  0  0  0  0  0  0  0
  181.4040  177.8320  139.2930 C   0  0  0  0  0  0  0  0  0  0  0  0
  182.3390  176.7550  139.1260 N   0  0  0  0  0  0  0  0  0  0  0  0
  185.3480  173.9610  136.7070 C   0  0  0  0  0  1  0  0  0  0  0  0
  181.2950  178.0720  136.8890 C   0  0  2  0  0  3  0  0  0  0  0  0
  184.2370  175.9550  135.4980 C   0  0  1  0  0  3  0  0  0  0  0  0
  182.6990  177.4600  136.8200 C   0  0  2  0  0  3  0  0  0  0  0  0
  182.8950  176.6930  135.5120 C   0  0  0  0  0  2  0  0  0  0  0  0
  183.8250  175.4230  137.8600 N   0  0  0  0  0  0  0  0  0  0  0  0
  182.9180  176.5270  137.9860 C   0  0  0  0  0  0  0  0  0  0  0  0
  180.0370  178.9420  134.9050 C   0  0  0  0  0  1  0  0  0  0  0  0
  181.1330  179.2370  135.9100 C   0  0  0  0  0  3  0  0  0  0  0  0
  180.8430  180.5480  136.6210 C   0  0  0  0  0  1  0  0  0  0  0  0
  185.3470  176.9030  135.3410 C   0  0  0  0  0  0  0  0  0  0  0  0
  186.2220  177.6500  135.2180 N   0  0  0  0  0  0  0  0  0  0  0  0
  183.1150  179.5530  143.6090 N   0  0  0  0  0  2  0  0  0  0  0  0
  185.3030  178.7440  144.1100 C   0  0  0  0  0  3  0  0  0  0  0  0
  183.9910  178.6250  144.2470 C   0  0  0  0  0  3  0  0  0  0  0  0
  186.2210  177.7680  144.7670 C   0  0  2  0  0  3  0  0  0  0  0  0
  186.6620  178.2830  145.9870 O   0  0  0  0  0  1  0  0  0  0  0  0
  188.7160  177.9460  140.3270 C   0  0  0  0  0  0  0  0  0  0  0  0
  188.1120  178.9920  139.9640 O   0  0  0  0  0  0  0  0  0  0  0  0
  189.5700  176.3940  143.5850 C   0  0  0  0  0  3  0  0  0  0  0  0
  188.4020  176.7530  144.3940 C   0  0  0  0  0  3  0  0  0  0  0  0
  187.3900  177.9170  142.4470 C   0  0  0  0  0  2  0  0  0  0  0  0
  187.3910  177.4560  143.8860 C   0  0  0  0  0  0  0  0  0  0  0  0
  188.5740  177.4900  141.6860 N   0  0  0  0  0  0  0  0  0  0  0  0
  189.6390  176.7520  142.3070 C   0  0  0  0  0  3  0  0  0  0  0  0
  187.5610  176.5090  138.0910 O   0  0  0  0  0  1  0  0  0  0  0  0
  191.1340  175.7600  137.5310 C   0  0  0  0  0  3  0  0  0  0  0  0
  188.9410  176.4930  138.2710 C   0  0  0  0  0  0  0  0  0  0  0  0
  189.7470  175.7770  137.3700 C   0  0  0  0  0  0  0  0  0  0  0  0
  189.5350  177.2030  139.3370 C   0  0  0  0  0  0  0  0  0  0  0  0
  189.0330  174.9000  136.0270 Cl  0  0  0  0  0  0  0  0  0  0  0  0
  191.7250  176.4560  138.5850 C   0  0  0  0  0  3  0  0  0  0  0  0
  190.9300  177.1700  139.4830 C   0  0  0  0  0  3  0  0  0  0  0  0
  1  2  1  0  0  0  0
  2  3  2  0  0  0  0
  3  6  1  0  0  0  0
  3 25  1  0  0  0  0
  5  8  1  0  0  0  0
  6  4  1  0  0  0  0
  7 11  1  6  0  0  0
  7  5  1  0  0  0  0
  7  2  1  0  0  0  0
  8  4  1  0  0  0  0
  9 18  2  0  0  0  0
 10 11  2  0  0  0  0
 12 11  1  0  0  0  0
 13  9  1  0  0  0  0
 14 21  1  6  0  0  0
 14 10  1  0  0  0  0
 15 23  1  1  0  0  0
 15 17  1  0  0  0  0
 15  9  1  0  0  0  0
 16 17  1  6  0  0  0
 16 14  1  0  0  0  0
 16 19  1  0  0  0  0
 18 19  1  0  0  0  0
 19 12  2  0  0  0  0
 20 21  1  0  0  0  0
 21 22  1  0  0  0  0
 24 23  3  0  0  0  0
 25 27  1  0  0  0  0
 26 27  2  0  0  0  0
 26 28  1  0  0  0  0
 28 29  1  1  0  0  0
 30 36  1  0  0  0  0
 31 30  2  0  0  0  0
 32 33  1  0  0  0  0
 34 35  1  0  0  0  0
 35 33  2  0  0  0  0
 35 28  1  0  0  0  0
 36 37  1  0  0  0  0
 36 34  1  0  0  0  0
 37 32  2  0  0  0  0
 38 40  1  0  0  0  0
 39 44  1  0  0  0  0
 40 42  2  0  0  0  0
 41 39  2  0  0  0  0
 41 40  1  0  0  0  0
 42 45  1  0  0  0  0
 42 30  1  0  0  0  0
 43 41  1  0  0  0  0
 44 45  2  0  0  0  0
M  END
>  <MODEL>
8

>  <REMARK>
 VINA RESULT:      -8.3      2.628      6.843
  Name = 
  8 active torsions:
  status: ('A' for Active; 'I' for Inactive)
    1  A    between atoms: C_2  and  C_22
    2  A    between atoms: C_3  and  C_4
    3  A    between atoms: C_4  and  C_38
    4  A    between atoms: C_10  and  C_44
    5  A    between atoms: C_15  and  C_23
    6  A    between atoms: C_21  and  C_29
    7  A    between atoms: C_27  and  N_34
    8  A    between atoms: N_34  and  C_36
                            x       y       z     vdW  Elec       q    Type
                         _______ _______ _______ _____ _____    ______ ____

>  <TORSDO>
F 8

$$$$
=
 OpenBabel11062417253D

 45 49  0  0  1  0  0  0  0  0999 V2000
  185.8750  175.8980  136.0650 O   0  0  0  0  0  1  0  0  0  0  0  0
  185.9620  174.5460  136.3940 C   0  0  0  0  0  0  0  0  0  0  0  0
  187.1230  173.8690  136.2220 C   0  0  0  0  0  0  0  0  0  0  0  0
  186.2910  171.5950  135.6200 C   0  0  0  0  0  2  0  0  0  0  0  0
  184.2520  172.7730  135.9410 C   0  0  0  0  0  2  0  0  0  0  0  0
  187.2120  172.4030  136.5290 C   0  0  0  0  0  2  0  0  0  0  0  0
  184.7250  173.8460  136.9170 C   0  0  2  0  0  3  0  0  0  0  0  0
  184.9530  171.5200  136.1970 N   0  0  0  0  0  2  0  0  0  0  0  0
  181.7770  177.7830  140.4990 C   0  0  0  0  0  0  0  0  0  0  0  0
  182.5540  174.8120  136.4870 N   0  0  0  0  0  0  0  0  0  0  0  0
  183.6170  174.8020  137.2330 C   0  0  0  0  0  0  0  0  0  0  0  0
  183.6900  175.6400  138.3980 N   0  0  0  0  0  0  0  0  0  0  0  0
  182.0010  178.6360  141.6970 C   0  0  0  0  0  1  0  0  0  0  0  0
  181.4480  175.7450  136.7270 C   0  0  2  0  0  3  0  0  0  0  0  0
  180.3880  177.6860  139.9170 C   0  0  1  0  0  3  0  0  0  0  0  0
  181.2930  176.0480  138.2220 C   0  0  2  0  0  3  0  0  0  0  0  0
  180.4260  177.2880  138.4380 C   0  0  0  0  0  2  0  0  0  0  0  0
  182.7740  177.1120  140.0030 N   0  0  0  0  0  0  0  0  0  0  0  0
  182.6470  176.2660  138.8520 C   0  0  0  0  0  0  0  0  0  0  0  0
  180.3340  174.9230  134.6400 C   0  0  0  0  0  1  0  0  0  0  0  0
  180.1450  175.2280  136.1130 C   0  0  0  0  0  3  0  0  0  0  0  0
  179.6190  173.9970  136.8320 C   0  0  0  0  0  1  0  0  0  0  0  0
  179.5730  176.7370  140.6860 C   0  0  0  0  0  0  0  0  0  0  0  0
  178.9310  175.9890  141.2930 N   0  0  0  0  0  0  0  0  0  0  0  0
  188.3160  174.4810  135.7060 N   0  0  0  0  0  2  0  0  0  0  0  0
  189.1230  175.7970  137.5270 C   0  0  0  0  0  3  0  0  0  0  0  0
  189.3840  175.0230  136.4830 C   0  0  0  0  0  3  0  0  0  0  0  0
  190.2380  176.3740  138.3340 C   0  0  2  0  0  3  0  0  0  0  0  0
  191.1280  175.3640  138.6970 O   0  0  0  0  0  1  0  0  0  0  0  0
  189.6790  176.8410  143.3780 C   0  0  0  0  0  0  0  0  0  0  0  0
  190.7370  176.1960  143.6120 O   0  0  0  0  0  0  0  0  0  0  0  0
  188.4030  178.8710  140.5490 C   0  0  0  0  0  3  0  0  0  0  0  0
  188.9660  178.1560  139.3990 C   0  0  0  0  0  3  0  0  0  0  0  0
  190.0150  176.4980  140.9240 C   0  0  0  0  0  2  0  0  0  0  0  0
  189.7130  177.0640  139.5550 C   0  0  0  0  0  0  0  0  0  0  0  0
  189.3880  177.2430  142.0260 N   0  0  0  0  0  0  0  0  0  0  0  0
  188.6130  178.4300  141.7840 C   0  0  0  0  0  3  0  0  0  0  0  0
  190.5960  177.4520  146.0580 O   0  0  0  0  0  1  0  0  0  0  0  0
  186.9460  177.6430  146.5920 C   0  0  0  0  0  3  0  0  0  0  0  0
  189.2290  177.4140  145.7980 C   0  0  0  0  0  0  0  0  0  0  0  0
  188.3200  177.6660  146.8400 C   0  0  0  0  0  0  0  0  0  0  0  0
  188.7530  177.1430  144.4970 C   0  0  0  0  0  0  0  0  0  0  0  0
  188.8890  178.0240  148.4620 Cl  0  0  0  0  0  0  0  0  0  0  0  0
  186.4700  177.3700  145.3100 C   0  0  0  0  0  3  0  0  0  0  0  0
  187.3680  177.1200  144.2710 C   0  0  0  0  0  3  0  0  0  0  0  0
  1  2  1  0  0  0  0
  2  7  1  0  0  0  0
  3  2  2  0  0  0  0
  3  6  1  0  0  0  0
  4  8  1  0  0  0  0
  4  6  1  0  0  0  0
  5  8  1  0  0  0  0
  5  7  1  0  0  0  0
  7 11  1  6  0  0  0
  9 13  1  0  0  0  0
 10 14  1  0  0  0  0
 10 11  2  0  0  0  0
 11 12  1  0  0  0  0
 12 19  2  0  0  0  0
 14 21  1  1  0  0  0
 14 16  1  0  0  0  0
 15  9  1  0  0  0  0
 15 23  1  1  0  0  0
 16 17  1  6  0  0  0
 16 19  1  0  0  0  0
 17 15  1  0  0  0  0
 18  9  2  0  0  0  0
 19 18  1  0  0  0  0
 20 21  1  0  0  0  0
 21 22  1  0  0  0  0
 23 24  3  0  0  0  0
 25  3  1  0  0  0  0
 25 27  1  0  0  0  0
 26 28  1  0  0  0  0
 27 26  2  0  0  0  0
 28 29  1  1  0  0  0
 28 35  1  0  0  0  0
 30 31  2  0  0  0  0
 30 42  1  0  0  0  0
 32 37  2  0  0  0  0
 33 35  2  0  0  0  0
 33 32  1  0  0  0  0
 34 36  1  0  0  0  0
 35 34  1  0  0  0  0
 36 30  1  0  0  0  0
 37 36  1  0  0  0  0
 39 41  1  0  0  0  0
 40 38  1  0  0  0  0
 40 41  2  0  0  0  0
 41 43  1  0  0  0  0
 42 40  1  0  0  0  0
 44 39  2  0  0  0  0
 45 42  2  0  0  0  0
 45 44  1  0  0  0  0
M  END
>  <MODEL>
9

>  <REMARK>
 VINA RESULT:      -8.2      2.444      3.363
  Name = 
  8 active torsions:
  status: ('A' for Active; 'I' for Inactive)
    1  A    between atoms: C_2  and  C_22
    2  A    between atoms: C_3  and  C_4
    3  A    between atoms: C_4  and  C_38
    4  A    between atoms: C_10  and  C_44
    5  A    between atoms: C_15  and  C_23
    6  A    between atoms: C_21  and  C_29
    7  A    between atoms: C_27  and  N_34
    8  A    between atoms: N_34  and  C_36
                            x       y       z     vdW  Elec       q    Type
                         _______ _______ _______ _____ _____    ______ ____

>  <TORSDO>
F 8

$$$$
