=
 OpenBabel11062417083D

 65 70  0  0  1  0  0  0  0  0999 V2000
  183.3710  176.9130  137.0640 O   0  0  0  0  0  0  0  0  0  0  0  0
  189.8290  176.9470  138.7440 C   0  0  1  0  0  3  0  0  0  0  0  0
  184.0110  175.0910  138.3430 O   0  0  0  0  0  0  0  0  0  0  0  0
  182.5610  178.3850  141.8050 N   0  0  0  0  0  0  0  0  0  0  0  0
  185.7010  174.5220  136.7580 C   0  0  0  0  0  3  0  0  0  0  0  0
  190.9840  177.4490  136.7040 O   0  0  0  0  0  0  0  0  0  0  0  0
  188.9610  178.4650  147.4770 C   0  0  0  0  0  3  0  0  0  0  0  0
  188.7680  178.1750  142.5950 N   0  0  0  0  0  2  0  0  0  0  0  0
  190.4180  176.9090  140.1690 C   0  0  2  0  0  3  0  0  0  0  0  0
  183.7370  177.8160  141.7420 C   0  0  0  0  0  0  0  0  0  0  0  0
  192.4340  176.5910  138.7510 P   0  0  2  0  0  0  0  0  0  0  0  0
  184.1030  177.0520  140.5200 C   0  0  0  0  0  3  0  0  0  0  0  0
  186.8790  178.9560  137.9280 C   0  0  0  0  0  2  0  0  0  0  0  0
  188.3550  178.1850  148.7840 C   0  0  0  0  0  3  0  0  0  0  0  0
  191.6630  176.2320  140.2290 O   0  0  0  0  0  0  0  0  0  0  0  0
  181.6140  178.3360  140.6820 C   0  0  0  0  0  2  0  0  0  0  0  0
  184.4600  174.3310  137.2400 C   0  0  0  0  0  0  0  0  0  0  0  0
  188.9380  178.0430  138.5870 O   0  0  0  0  0  0  0  0  0  0  0  0
  184.5670  177.7950  142.8920 N   0  0  0  0  0  2  0  0  0  0  0  0
  188.2910  177.2980  141.5200 C   0  0  0  0  0  2  0  0  0  0  0  0
  187.1040  176.6080  137.6270 C   0  0  0  0  0  0  0  0  0  0  0  0
  187.0290  177.3470  146.4140 C   0  0  1  0  0  3  0  0  0  0  0  0
  186.2380  177.6640  147.6990 C   0  0  0  0  0  2  0  0  0  0  0  0
  185.8840  178.4220  142.8740 C   0  0  2  0  0  3  0  0  0  0  0  0
  182.3670  178.3320  139.3450 C   0  0  0  0  0  2  0  0  0  0  0  0
  187.6560  177.8840  138.0380 C   0  0  0  0  0  0  0  0  0  0  0  0
  186.1730  177.7100  145.2290 C   0  0  0  0  0  3  0  0  0  0  0  0
  188.9840  178.4120  145.0330 C   0  0  0  0  0  2  0  0  0  0  0  0
  183.6420  176.4320  138.2020 C   0  0  0  0  0  0  0  0  0  0  0  0
  187.1250  177.7840  148.8710 N   0  0  0  0  0  0  0  0  0  0  0  0
  193.4340  177.7300  138.8900 O   0  0  0  0  0  1  0  0  0  0  0  0
  188.3300  178.1050  146.3570 C   0  0  0  0  0  0  0  0  0  0  0  0
  188.2370  177.7210  143.8740 C   0  0  1  0  0  3  0  0  0  0  0  0
  191.0070  177.1000  137.8820 C   0  0  0  0  0  0  0  0  0  0  0  0
  189.3690  176.2860  141.1010 C   0  0  2  0  0  3  0  0  0  0  0  0
  183.4080  177.2540  139.3880 C   0  0  0  0  0  0  0  0  0  0  0  0
  193.1780  175.2200  138.0570 O   0  0  0  0  0  0  0  0  0  0  0  0
  186.5350  175.6100  137.2490 C   0  0  0  0  0  0  0  0  0  0  0  0
  186.7330  177.9100  144.0160 C   0  0  0  0  0  0  0  0  0  0  0  0
  182.2910  173.7200  136.1230 C   0  0  0  0  0  0  0  0  0  0  0  0
  179.6390  175.1470  136.8580 C   0  0  0  0  0  2  0  0  0  0  0  0
  183.4790  173.3910  136.6360 C   0  0  0  0  0  3  0  0  0  0  0  0
  181.9230  175.0660  136.0410 O   0  0  0  0  0  0  0  0  0  0  0  0
  180.1050  172.5630  136.7340 C   0  0  2  0  0  3  0  0  0  0  0  0
  179.9440  173.8260  137.6220 C   0  0  2  0  0  3  0  0  0  0  0  0
  180.5870  175.4090  135.6880 C   0  0  2  0  0  3  0  0  0  0  0  0
  181.2890  172.6400  135.7670 C   0  0  0  0  0  2  0  0  0  0  0  0
  179.6890  173.9040  139.8450 C   0  0  0  0  0  1  0  0  0  0  0  0
  179.0070  173.6620  138.6520 O   0  0  0  0  0  0  0  0  0  0  0  0
  179.2810  172.2700  134.6840 C   0  0  0  0  0  1  0  0  0  0  0  0
  178.9310  172.2670  136.0380 O   0  0  0  0  0  0  0  0  0  0  0  0
  180.5150  176.8000  135.2520 N   0  0  0  0  0  2  0  0  0  0  0  0
  179.2470  177.3660  135.6910 C   0  0  0  0  0  2  0  0  0  0  0  0
  179.4240  178.7980  136.1950 C   0  0  0  0  0  2  0  0  0  0  0  0
  180.8050  179.2530  136.0900 N   0  0  0  0  0  2  0  0  0  0  0  0
  180.8500  180.7070  136.2550 C   0  0  0  0  0  1  0  0  0  0  0  0
  185.7230  179.8800  143.0230 C   0  0  0  0  0  0  0  0  0  0  0  0
  185.5620  181.0680  143.1570 C   0  0  0  0  0  3  0  0  0  0  0  0
  189.9590  175.5160  142.2830 C   0  0  0  0  0  2  0  0  0  0  0  0
  191.0750  176.2030  142.7750 O   0  0  0  0  0  0  0  0  0  0  0  0
  191.4840  175.4470  143.8920 C   0  0  0  0  0  2  0  0  0  0  0  0
  192.1250  177.5330  144.9550 O   0  0  0  0  0  1  0  0  0  0  0  0
  191.4800  176.3040  145.1600 C   0  0  2  0  0  3  0  0  0  0  0  0
  192.1330  175.5950  146.2280 N   0  0  0  0  0  0  0  0  0  0  0  0
  191.8480  175.8690  147.4500 C   0  0  0  0  0  2  0  0  0  0  0  0
  1 29  2  0  0  0  0
  2 34  1  6  0  0  0
  2  9  1  0  0  0  0
  5 17  2  0  0  0  0
  5 38  1  0  0  0  0
  6 34  2  0  0  0  0
  7 14  1  0  0  0  0
  8 33  1  0  0  0  0
  9 15  1  6  0  0  0
  9 35  1  0  0  0  0
 10  4  2  0  0  0  0
 10 19  1  0  0  0  0
 11 37  2  6  0  0  0
 11 31  1  0  0  0  0
 11 15  1  0  0  0  0
 12 10  1  0  0  0  0
 13 26  2  0  0  0  0
 14 30  2  0  0  0  0
 16  4  1  0  0  0  0
 17  3  1  0  0  0  0
 18  2  1  0  0  0  0
 20  8  1  0  0  0  0
 21 26  1  0  0  0  0
 22 27  1  6  0  0  0
 22 23  1  0  0  0  0
 23 30  1  0  0  0  0
 24 19  1  0  0  0  0
 24 57  1  1  0  0  0
 24 39  1  0  0  0  0
 25 36  1  0  0  0  0
 25 16  1  0  0  0  0
 26 18  1  0  0  0  0
 28 32  1  0  0  0  0
 29  3  1  0  0  0  0
 29 36  1  0  0  0  0
 32 22  1  0  0  0  0
 32  7  2  0  0  0  0
 33 39  1  0  0  0  0
 33 28  1  1  0  0  0
 34 11  1  0  0  0  0
 35 20  1  0  0  0  0
 35 59  1  1  0  0  0
 36 12  2  0  0  0  0
 38 21  3  0  0  0  0
 39 27  2  0  0  0  0
 40 42  2  0  0  0  0
 41 45  1  0  0  0  0
 42 17  1  0  0  0  0
 43 40  1  0  0  0  0
 44 51  1  6  0  0  0
 44 45  1  0  0  0  0
 45 49  1  1  0  0  0
 46 52  1  1  0  0  0
 46 43  1  0  0  0  0
 46 41  1  0  0  0  0
 47 40  1  0  0  0  0
 47 44  1  0  0  0  0
 49 48  1  0  0  0  0
 50 51  1  0  0  0  0
 52 53  1  0  0  0  0
 53 54  1  0  0  0  0
 55 54  1  0  0  0  0
 55 56  1  0  0  0  0
 57 58  3  0  0  0  0
 59 60  1  0  0  0  0
 60 61  1  0  0  0  0
 61 63  1  0  0  0  0
 63 62  1  6  0  0  0
 63 64  1  0  0  0  0
 64 65  2  0  0  0  0
M  END
>  <MODEL>
1

>  <REMARK>
 VINA RESULT:      -2.5      0.000      0.000
  Name = 
  13 active torsions:
  status: ('A' for Active; 'I' for Inactive)
    1  A    between atoms: N_1  and  C_52
    2  A    between atoms: N_1  and  C_61
    3  A    between atoms: N_3  and  C_44
    4  A    between atoms: O_4  and  C_13
    5  A    between atoms: O_4  and  C_49
    6  A    between atoms: N_10  and  C_47
    7  A    between atoms: C_12  and  C_40
    8  A    between atoms: C_13  and  C_47
    9  A    between atoms: C_19  and  C_29
   10  A    between atoms: O_39  and  C_46
   11  A    between atoms: C_44  and  C_61
   12  A    between atoms: C_49  and  C_58
   13  A    between atoms: C_50  and  O_62
                            x       y       z     vdW  Elec       q    Type
                         _______ _______ _______ _____ _____    ______ ____

>  <TORSDO>
F 13

$$$$
=
 OpenBabel11062417083D

 65 70  0  0  1  0  0  0  0  0999 V2000
  190.1730  176.7840  136.0200 O   0  0  0  0  0  0  0  0  0  0  0  0
  189.6270  178.2430  142.5090 C   0  0  1  0  0  3  0  0  0  0  0  0
  189.3000  175.0570  137.2930 O   0  0  0  0  0  0  0  0  0  0  0  0
  185.2000  177.5230  135.8650 N   0  0  0  0  0  0  0  0  0  0  0  0
  191.2160  175.0860  138.7160 C   0  0  0  0  0  3  0  0  0  0  0  0
  191.7390  179.2180  143.0910 O   0  0  0  0  0  0  0  0  0  0  0  0
  180.7480  178.6070  143.0870 C   0  0  0  0  0  3  0  0  0  0  0  0
  185.5150  178.7740  141.9910 N   0  0  0  0  0  2  0  0  0  0  0  0
  188.3450  178.2080  143.3640 C   0  0  2  0  0  3  0  0  0  0  0  0
  185.5430  177.2720  137.1020 C   0  0  0  0  0  0  0  0  0  0  0  0
  190.1160  178.5430  145.0750 P   0  0  2  0  0  0  0  0  0  0  0  0
  186.9090  176.7500  137.3780 C   0  0  0  0  0  3  0  0  0  0  0  0
  189.6280  179.5330  139.0820 C   0  0  0  0  0  2  0  0  0  0  0  0
  179.4120  178.0560  142.8320 C   0  0  0  0  0  3  0  0  0  0  0  0
  188.5960  177.8560  144.7150 O   0  0  0  0  0  0  0  0  0  0  0  0
  186.1400  177.3550  134.7480 C   0  0  0  0  0  2  0  0  0  0  0  0
  190.5620  174.5470  137.6710 C   0  0  0  0  0  0  0  0  0  0  0  0
  189.4700  179.0950  141.3820 O   0  0  0  0  0  0  0  0  0  0  0  0
  184.5670  177.3400  138.1290 N   0  0  0  0  0  2  0  0  0  0  0  0
  186.6090  177.9210  141.5180 C   0  0  0  0  0  2  0  0  0  0  0  0
  190.3030  177.3560  139.7610 C   0  0  0  0  0  0  0  0  0  0  0  0
  181.6180  177.1600  141.2810 C   0  0  1  0  0  3  0  0  0  0  0  0
  180.1860  177.1400  140.7130 C   0  0  0  0  0  2  0  0  0  0  0  0
  184.7170  178.2710  139.2410 C   0  0  2  0  0  3  0  0  0  0  0  0
  187.5710  177.6730  135.2010 C   0  0  0  0  0  2  0  0  0  0  0  0
  189.8100  178.6800  140.0850 C   0  0  0  0  0  0  0  0  0  0  0  0
  182.5750  177.4180  140.1460 C   0  0  0  0  0  3  0  0  0  0  0  0
  183.1410  178.8100  142.6310 C   0  0  0  0  0  2  0  0  0  0  0  0
  189.1790  176.2720  136.6140 C   0  0  0  0  0  0  0  0  0  0  0  0
  179.1770  177.3560  141.7660 N   0  0  0  0  0  0  0  0  0  0  0  0
  189.9840  179.8730  145.8020 O   0  0  0  0  0  0  0  0  0  0  0  0
  181.7840  178.2180  142.3410 C   0  0  0  0  0  0  0  0  0  0  0  0
  184.2450  178.0760  141.8420 C   0  0  1  0  0  3  0  0  0  0  0  0
  190.6460  178.7690  143.4260 C   0  0  0  0  0  0  0  0  0  0  0  0
  187.3490  177.2540  142.6890 C   0  0  2  0  0  3  0  0  0  0  0  0
  187.8640  176.8860  136.4430 C   0  0  0  0  0  0  0  0  0  0  0  0
  191.1180  177.4760  145.9520 O   0  0  0  0  0  1  0  0  0  0  0  0
  190.7190  176.2920  139.3670 C   0  0  0  0  0  0  0  0  0  0  0  0
  183.8230  177.8720  140.3930 C   0  0  0  0  0  0  0  0  0  0  0  0
  192.3530  172.9500  136.9160 C   0  0  0  0  0  0  0  0  0  0  0  0
  195.3370  173.7850  136.8520 C   0  0  0  0  0  2  0  0  0  0  0  0
  191.1210  173.4600  136.8250 C   0  0  0  0  0  3  0  0  0  0  0  0
  193.2040  173.3800  137.9370 O   0  0  0  0  0  0  0  0  0  0  0  0
  193.9280  172.6710  134.9330 C   0  0  2  0  0  3  0  0  0  0  0  0
  194.5440  173.9670  135.5260 C   0  0  2  0  0  3  0  0  0  0  0  0
  194.5750  172.9960  137.9170 C   0  0  2  0  0  3  0  0  0  0  0  0
  192.8750  172.0240  135.8370 C   0  0  0  0  0  2  0  0  0  0  0  0
  196.0330  175.6300  135.3450 C   0  0  0  0  0  1  0  0  0  0  0  0
  195.3340  174.6730  134.6080 O   0  0  0  0  0  0  0  0  0  0  0  0
  194.5360  170.5450  135.2170 C   0  0  0  0  0  1  0  0  0  0  0  0
  194.9120  171.7390  134.5940 O   0  0  0  0  0  0  0  0  0  0  0  0
  195.1740  173.1750  139.2350 N   0  0  0  0  0  2  0  0  0  0  0  0
  196.1770  174.2300  139.1580 C   0  0  0  0  0  2  0  0  0  0  0  0
  195.6690  175.5240  139.7920 C   0  0  0  0  0  2  0  0  0  0  0  0
  196.6800  176.1640  140.6260 N   0  0  0  0  0  2  0  0  0  0  0  0
  197.5640  175.1400  141.1860 C   0  0  0  0  0  1  0  0  0  0  0  0
  184.3320  179.6220  138.7910 C   0  0  0  0  0  0  0  0  0  0  0  0
  184.0230  180.7370  138.4510 C   0  0  0  0  0  3  0  0  0  0  0  0
  186.4100  176.5380  143.6600 C   0  0  0  0  0  2  0  0  0  0  0  0
  185.7250  177.4860  144.4290 O   0  0  0  0  0  0  0  0  0  0  0  0
  186.1010  177.1950  145.7560 C   0  0  0  0  0  2  0  0  0  0  0  0
  185.6980  179.5610  146.1190 O   0  0  0  0  0  1  0  0  0  0  0  0
  185.6220  178.2910  146.7110 C   0  0  2  0  0  3  0  0  0  0  0  0
  186.4180  178.2740  147.9080 N   0  0  0  0  0  0  0  0  0  0  0  0
  187.6890  178.1060  147.8330 C   0  0  0  0  0  2  0  0  0  0  0  0
  1 29  2  0  0  0  0
  2 18  1  6  0  0  0
  2  9  1  0  0  0  0
  2 34  1  0  0  0  0
  3 17  1  0  0  0  0
  4 10  2  0  0  0  0
  5 38  1  0  0  0  0
  6 34  2  0  0  0  0
  9 15  1  1  0  0  0
 10 12  1  0  0  0  0
 10 19  1  0  0  0  0
 11 31  2  1  0  0  0
 11 37  1  0  0  0  0
 13 26  2  0  0  0  0
 14  7  1  0  0  0  0
 15 11  1  0  0  0  0
 16 25  1  0  0  0  0
 16  4  1  0  0  0  0
 17  5  2  0  0  0  0
 19 24  1  0  0  0  0
 20  8  1  0  0  0  0
 20 35  1  0  0  0  0
 21 26  1  0  0  0  0
 22 27  1  6  0  0  0
 22 32  1  0  0  0  0
 23 22  1  0  0  0  0
 23 30  1  0  0  0  0
 24 57  1  6  0  0  0
 24 39  1  0  0  0  0
 25 36  1  0  0  0  0
 26 18  1  0  0  0  0
 27 39  2  0  0  0  0
 29  3  1  0  0  0  0
 30 14  2  0  0  0  0
 32 28  1  0  0  0  0
 32  7  2  0  0  0  0
 33  8  1  0  0  0  0
 33 28  1  1  0  0  0
 34 11  1  0  0  0  0
 35  9  1  0  0  0  0
 35 59  1  1  0  0  0
 36 29  1  0  0  0  0
 36 12  2  0  0  0  0
 38 21  3  0  0  0  0
 39 33  1  0  0  0  0
 40 43  1  0  0  0  0
 41 46  1  0  0  0  0
 42 40  2  0  0  0  0
 42 17  1  0  0  0  0
 44 51  1  1  0  0  0
 44 45  1  0  0  0  0
 44 47  1  0  0  0  0
 45 49  1  6  0  0  0
 45 41  1  0  0  0  0
 46 43  1  0  0  0  0
 46 52  1  1  0  0  0
 47 40  1  0  0  0  0
 49 48  1  0  0  0  0
 51 50  1  0  0  0  0
 53 52  1  0  0  0  0
 53 54  1  0  0  0  0
 54 55  1  0  0  0  0
 55 56  1  0  0  0  0
 58 57  3  0  0  0  0
 59 60  1  0  0  0  0
 60 61  1  0  0  0  0
 61 63  1  0  0  0  0
 63 62  1  6  0  0  0
 63 64  1  0  0  0  0
 65 64  2  0  0  0  0
M  END
>  <MODEL>
2

>  <REMARK>
 VINA RESULT:       0.3      3.955      9.273
  Name = 
  13 active torsions:
  status: ('A' for Active; 'I' for Inactive)
    1  A    between atoms: N_1  and  C_52
    2  A    between atoms: N_1  and  C_61
    3  A    between atoms: N_3  and  C_44
    4  A    between atoms: O_4  and  C_13
    5  A    between atoms: O_4  and  C_49
    6  A    between atoms: N_10  and  C_47
    7  A    between atoms: C_12  and  C_40
    8  A    between atoms: C_13  and  C_47
    9  A    between atoms: C_19  and  C_29
   10  A    between atoms: O_39  and  C_46
   11  A    between atoms: C_44  and  C_61
   12  A    between atoms: C_49  and  C_58
   13  A    between atoms: C_50  and  O_62
                            x       y       z     vdW  Elec       q    Type
                         _______ _______ _______ _____ _____    ______ ____

>  <TORSDO>
F 13

$$$$
