=
 OpenBabel11062413483D

 52 55  0  0  1  0  0  0  0  0999 V2000
  191.8050  177.2630  140.2140 C   0  0  0  0  0  2  0  0  0  0  0  0
  191.0060  176.3530  140.9280 O   0  0  0  0  0  0  0  0  0  0  0  0
  189.7040  176.5680  140.5530 N   0  0  0  0  0  0  0  0  0  0  0  0
  191.1450  177.5040  138.8970 C   0  0  0  0  0  2  0  0  0  0  0  0
  189.7210  177.1900  139.2270 C   0  0  1  0  0  3  0  0  0  0  0  0
  187.9540  177.1610  134.7330 C   0  0  0  0  0  3  0  0  0  0  0  0
  189.4910  175.5780  135.9080 C   0  0  0  0  0  2  0  0  0  0  0  0
  190.0330  175.5040  137.3230 C   0  0  2  0  0  3  0  0  0  0  0  0
  187.1880  178.1610  134.7630 O   0  0  0  0  0  0  0  0  0  0  0  0
  188.1290  177.0530  137.2760 C   0  0  1  0  0  3  0  0  0  0  0  0
  190.0930  174.1740  137.7360 O   0  0  0  0  0  1  0  0  0  0  0  0
  189.0490  176.2760  138.1990 C   0  0  2  0  0  3  0  0  0  0  0  0
  188.4330  176.5650  135.9410 N   0  0  0  0  0  0  0  0  0  0  0  0
  186.6890  176.7180  137.6520 C   0  0  0  0  0  2  0  0  0  0  0  0
  185.9220  177.9530  137.9930 C   0  0  0  0  0  0  0  0  0  0  0  0
  186.3920  179.0530  137.7480 O   0  0  0  0  0  0  0  0  0  0  0  0
  184.5820  177.8350  138.6400 C   0  0  0  0  0  2  0  0  0  0  0  0
  182.4790  179.2410  139.1050 C   0  0  1  0  0  0  0  0  0  0  0  0
  181.9290  180.5040  138.9840 F   0  0  0  0  0  0  0  0  0  0  0  0
  182.2800  178.3310  137.9040 C   0  0  2  0  0  3  0  0  0  0  0  0
  183.6510  178.9440  138.1650 C   0  0  2  0  0  3  0  0  0  0  0  0
  181.6560  179.0200  136.8630 O   0  0  0  0  0  1  0  0  0  0  0  0
  181.1630  178.0470  140.9480 N   0  0  0  0  0  2  0  0  0  0  0  0
  183.3980  178.6730  141.2620 N   0  0  0  0  0  2  0  0  0  0  0  0
  182.3990  178.5700  140.4510 C   0  0  0  0  0  0  0  0  0  0  0  0
  179.6180  176.6910  139.7630 N   0  0  0  0  0  1  0  0  0  0  0  0
  179.9270  178.0460  140.1790 C   0  0  0  0  0  2  0  0  0  0  0  0
  189.0700  177.4570  141.5540 C   0  0  1  0  0  3  0  0  0  0  0  0
  187.6620  177.9420  141.1440 C   0  0  1  0  0  3  0  0  0  0  0  0
  186.6850  177.4880  142.0290 O   0  0  0  0  0  1  0  0  0  0  0  0
  187.5720  179.4510  140.9810 C   0  0  0  0  0  1  0  0  0  0  0  0
  189.3050  175.4320  142.9260 O   0  0  0  0  0  1  0  0  0  0  0  0
  188.9340  176.7790  142.9310 C   0  0  1  0  0  3  0  0  0  0  0  0
  189.6870  177.5840  144.0160 C   0  0  1  0  0  3  0  0  0  0  0  0
  190.2670  178.7750  143.5190 O   0  0  0  0  0  0  0  0  0  0  0  0
  191.5870  178.8660  143.9940 C   0  0  0  0  0  1  0  0  0  0  0  0
  189.0120  177.7160  145.4070 C   0  0  1  0  0  3  0  0  0  0  0  0
  186.6890  176.6290  145.2980 C   0  0  0  0  0  1  0  0  0  0  0  0
  187.4910  177.9200  145.3310 C   0  0  1  0  0  3  0  0  0  0  0  0
  186.9170  179.0000  146.2610 C   0  0  0  0  0  2  0  0  0  0  0  0
  185.3950  179.1280  146.1950 C   0  0  2  0  0  3  0  0  0  0  0  0
  184.7850  178.0910  147.1300 C   0  0  0  0  0  1  0  0  0  0  0  0
  183.4070  178.6760  144.7160 C   0  0  0  0  0  1  0  0  0  0  0  0
  185.2070  180.1430  143.9120 C   0  0  0  0  0  1  0  0  0  0  0  0
  184.9070  178.9190  144.7570 C   0  0  0  0  0  3  0  0  0  0  0  0
  189.2800  176.5160  146.3140 C   0  0  0  0  0  2  0  0  0  0  0  0
  189.7220  178.3480  148.7930 C   0  0  0  0  0  1  0  0  0  0  0  0
  190.5440  176.6990  147.0860 C   0  0  0  0  0  0  0  0  0  0  0  0
  190.7110  177.4940  148.1550 N   0  0  0  0  0  0  0  0  0  0  0  0
  191.9560  177.3580  148.5730 N   0  0  0  0  0  0  0  0  0  0  0  0
  191.7400  176.0480  146.8600 C   0  0  0  0  0  3  0  0  0  0  0  0
  192.6000  176.4910  147.8040 N   0  0  0  0  0  0  0  0  0  0  0  0
  1  2  1  0  0  0  0
  3  2  1  0  0  0  0
  3 28  1  0  0  0  0
  4  1  1  0  0  0  0
  5  4  1  6  0  0  0
  5  3  1  0  0  0  0
  6  9  2  0  0  0  0
  6 13  1  0  0  0  0
  7 13  1  0  0  0  0
  7  8  1  0  0  0  0
  8 11  1  1  0  0  0
  8 12  1  0  0  0  0
 10 14  1  1  0  0  0
 10 12  1  0  0  0  0
 12  5  1  1  0  0  0
 13 10  1  0  0  0  0
 14 15  1  0  0  0  0
 15 17  1  0  0  0  0
 16 15  2  0  0  0  0
 18 19  1  6  0  0  0
 18 25  1  0  0  0  0
 20 22  1  6  0  0  0
 20 21  1  0  0  0  0
 20 18  1  0  0  0  0
 21 17  1  1  0  0  0
 21 18  1  0  0  0  0
 25 23  1  0  0  0  0
 25 24  2  0  0  0  0
 26 27  1  0  0  0  0
 27 23  1  0  0  0  0
 28 29  1  6  0  0  0
 28 33  1  0  0  0  0
 29 31  1  1  0  0  0
 29 30  1  0  0  0  0
 33 32  1  6  0  0  0
 33 34  1  0  0  0  0
 34 35  1  6  0  0  0
 34 37  1  0  0  0  0
 35 36  1  0  0  0  0
 37 46  1  1  0  0  0
 39 38  1  1  0  0  0
 39 37  1  0  0  0  0
 39 40  1  0  0  0  0
 41 40  1  0  0  0  0
 41 42  1  1  0  0  0
 43 45  1  0  0  0  0
 44 45  1  0  0  0  0
 45 41  1  0  0  0  0
 46 48  1  0  0  0  0
 48 49  1  0  0  0  0
 49 50  1  0  0  0  0
 49 47  1  0  0  0  0
 51 48  2  0  0  0  0
 51 52  1  0  0  0  0
 52 50  2  0  0  0  0
M  END
>  <MODEL>
1

>  <REMARK>
 VINA RESULT:      -5.0      0.000      0.000
  Name = 
  19 active torsions:
  status: ('A' for Active; 'I' for Inactive)
    1  A    between atoms: C_3  and  C_48
    2  A    between atoms: C_4  and  C_7
    3  A    between atoms: C_4  and  C_33
    4  A    between atoms: C_4  and  N_43
    5  A    between atoms: C_5  and  C_15
    6  A    between atoms: C_5  and  C_25
    7  A    between atoms: C_8  and  C_28
    8  A    between atoms: C_8  and  C_45
    9  A    between atoms: O_12  and  C_17
   10  A    between atoms: C_15  and  C_17
   11  A    between atoms: C_15  and  C_45
   12  A    between atoms: C_17  and  C_33
   13  A    between atoms: C_18  and  C_30
   14  A    between atoms: C_18  and  C_38
   15  A    between atoms: C_23  and  C_38
   16  A    between atoms: C_28  and  C_47
   17  A    between atoms: C_29  and  C_30
   18  A    between atoms: N_31  and  C_36
   19  A    between atoms: C_40  and  C_51
                            x       y       z     vdW  Elec       q    Type
                         _______ _______ _______ _____ _____    ______ ____

>  <TORSDO>
F 19

$$$$
=
 OpenBabel11062413483D

 52 55  0  0  1  0  0  0  0  0999 V2000
  192.2860  176.7880  140.1410 C   0  0  0  0  0  2  0  0  0  0  0  0
  191.0580  176.1890  140.4720 O   0  0  0  0  0  0  0  0  0  0  0  0
  190.1010  176.7400  139.6590 N   0  0  0  0  0  0  0  0  0  0  0  0
  192.2460  177.1230  138.6870 C   0  0  0  0  0  2  0  0  0  0  0  0
  190.7730  177.2480  138.4610 C   0  0  1  0  0  3  0  0  0  0  0  0
  187.2000  174.4110  136.8770 C   0  0  0  0  0  3  0  0  0  0  0  0
  188.2540  176.4450  135.8770 C   0  0  0  0  0  2  0  0  0  0  0  0
  189.4060  177.3390  136.2960 C   0  0  2  0  0  3  0  0  0  0  0  0
  187.1790  173.5210  137.7680 O   0  0  0  0  0  0  0  0  0  0  0  0
  189.5010  175.2530  137.5860 C   0  0  1  0  0  3  0  0  0  0  0  0
  190.1330  177.7280  135.1720 O   0  0  0  0  0  1  0  0  0  0  0  0
  190.2870  176.4990  137.2180 C   0  0  2  0  0  3  0  0  0  0  0  0
  188.3260  175.2800  136.7320 N   0  0  0  0  0  0  0  0  0  0  0  0
  190.3660  174.0380  137.2670 C   0  0  0  0  0  2  0  0  0  0  0  0
  191.0310  174.1860  135.9380 C   0  0  0  0  0  0  0  0  0  0  0  0
  190.4000  173.9870  134.9110 O   0  0  0  0  0  0  0  0  0  0  0  0
  192.4710  174.5740  135.8720 C   0  0  0  0  0  2  0  0  0  0  0  0
  194.6440  174.6260  137.2470 C   0  0  1  0  0  0  0  0  0  0  0  0
  195.1560  174.6110  138.5320 F   0  0  0  0  0  0  0  0  0  0  0  0
  194.4180  173.2580  136.6250 C   0  0  2  0  0  3  0  0  0  0  0  0
  193.2230  174.0760  137.1010 C   0  0  2  0  0  3  0  0  0  0  0  0
  194.6840  172.2470  137.5490 O   0  0  0  0  0  1  0  0  0  0  0  0
  196.5070  175.7240  135.8760 N   0  0  0  0  0  2  0  0  0  0  0  0
  194.3980  176.7220  136.0780 N   0  0  0  0  0  2  0  0  0  0  0  0
  195.1430  175.6940  136.3100 C   0  0  0  0  0  0  0  0  0  0  0  0
  197.6530  173.7900  135.1160 N   0  0  0  0  0  1  0  0  0  0  0  0
  197.4820  174.7030  136.2300 C   0  0  0  0  0  2  0  0  0  0  0  0
  189.4310  177.8350  140.4010 C   0  0  1  0  0  3  0  0  0  0  0  0
  188.3740  178.5880  139.5660 C   0  0  1  0  0  3  0  0  0  0  0  0
  188.9630  179.3370  138.5470 O   0  0  0  0  0  1  0  0  0  0  0  0
  187.2970  177.6760  138.9990 C   0  0  0  0  0  1  0  0  0  0  0  0
  188.6000  175.9370  141.7240 O   0  0  0  0  0  1  0  0  0  0  0  0
  188.7290  177.3280  141.6750 C   0  0  1  0  0  3  0  0  0  0  0  0
  189.4140  177.8920  142.9410 C   0  0  1  0  0  3  0  0  0  0  0  0
  189.9590  179.1830  142.7470 O   0  0  0  0  0  0  0  0  0  0  0  0
  190.8910  179.4370  143.7680 C   0  0  0  0  0  1  0  0  0  0  0  0
  188.6920  177.6830  144.3000 C   0  0  1  0  0  3  0  0  0  0  0  0
  186.4410  177.3150  145.4750 C   0  0  0  0  0  1  0  0  0  0  0  0
  187.1610  177.6470  144.1780 C   0  0  1  0  0  3  0  0  0  0  0  0
  186.5290  178.7960  143.3770 C   0  0  0  0  0  2  0  0  0  0  0  0
  185.2680  178.3960  142.6120 C   0  0  2  0  0  3  0  0  0  0  0  0
  185.1930  179.2300  141.3390 C   0  0  0  0  0  1  0  0  0  0  0  0
  184.1760  179.8600  144.3470 C   0  0  0  0  0  1  0  0  0  0  0  0
  182.7950  178.8000  142.6130 C   0  0  0  0  0  1  0  0  0  0  0  0
  184.0260  178.6190  143.4820 C   0  0  0  0  0  3  0  0  0  0  0  0
  189.1360  176.4120  145.0200 C   0  0  0  0  0  2  0  0  0  0  0  0
  188.8440  177.6030  147.8820 C   0  0  0  0  0  1  0  0  0  0  0  0
  190.2310  176.7000  145.9920 C   0  0  0  0  0  0  0  0  0  0  0  0
  190.0810  177.2130  147.2240 N   0  0  0  0  0  0  0  0  0  0  0  0
  191.2750  177.2890  147.7810 N   0  0  0  0  0  0  0  0  0  0  0  0
  191.5750  176.4470  145.8070 C   0  0  0  0  0  3  0  0  0  0  0  0
  192.1960  176.8340  146.9430 N   0  0  0  0  0  0  0  0  0  0  0  0
  1  2  1  0  0  0  0
  3 28  1  0  0  0  0
  3  2  1  0  0  0  0
  4  1  1  0  0  0  0
  5  4  1  1  0  0  0
  5  3  1  0  0  0  0
  6  9  2  0  0  0  0
  7  8  1  0  0  0  0
  7 13  1  0  0  0  0
  8 11  1  6  0  0  0
  8 12  1  0  0  0  0
 10 14  1  6  0  0  0
 12 10  1  0  0  0  0
 12  5  1  1  0  0  0
 13  6  1  0  0  0  0
 13 10  1  0  0  0  0
 15 14  1  0  0  0  0
 16 15  2  0  0  0  0
 17 15  1  0  0  0  0
 18 19  1  1  0  0  0
 20 21  1  0  0  0  0
 20 18  1  0  0  0  0
 20 22  1  1  0  0  0
 21 17  1  6  0  0  0
 21 18  1  0  0  0  0
 23 27  1  0  0  0  0
 23 25  1  0  0  0  0
 24 25  2  0  0  0  0
 25 18  1  0  0  0  0
 26 27  1  0  0  0  0
 28 29  1  6  0  0  0
 28 33  1  0  0  0  0
 29 31  1  6  0  0  0
 30 29  1  0  0  0  0
 33 32  1  1  0  0  0
 33 34  1  0  0  0  0
 34 35  1  6  0  0  0
 34 37  1  0  0  0  0
 35 36  1  0  0  0  0
 37 46  1  6  0  0  0
 39 37  1  0  0  0  0
 39 38  1  1  0  0  0
 40 39  1  0  0  0  0
 41 42  1  6  0  0  0
 41 40  1  0  0  0  0
 41 45  1  0  0  0  0
 44 45  1  0  0  0  0
 45 43  1  0  0  0  0
 46 48  1  0  0  0  0
 48 49  1  0  0  0  0
 49 50  1  0  0  0  0
 49 47  1  0  0  0  0
 51 48  2  0  0  0  0
 51 52  1  0  0  0  0
 52 50  2  0  0  0  0
M  END
>  <MODEL>
2

>  <REMARK>
 VINA RESULT:      -4.3      3.627      7.058
  Name = 
  19 active torsions:
  status: ('A' for Active; 'I' for Inactive)
    1  A    between atoms: C_3  and  C_48
    2  A    between atoms: C_4  and  C_7
    3  A    between atoms: C_4  and  C_33
    4  A    between atoms: C_4  and  N_43
    5  A    between atoms: C_5  and  C_15
    6  A    between atoms: C_5  and  C_25
    7  A    between atoms: C_8  and  C_28
    8  A    between atoms: C_8  and  C_45
    9  A    between atoms: O_12  and  C_17
   10  A    between atoms: C_15  and  C_17
   11  A    between atoms: C_15  and  C_45
   12  A    between atoms: C_17  and  C_33
   13  A    between atoms: C_18  and  C_30
   14  A    between atoms: C_18  and  C_38
   15  A    between atoms: C_23  and  C_38
   16  A    between atoms: C_28  and  C_47
   17  A    between atoms: C_29  and  C_30
   18  A    between atoms: N_31  and  C_36
   19  A    between atoms: C_40  and  C_51
                            x       y       z     vdW  Elec       q    Type
                         _______ _______ _______ _____ _____    ______ ____

>  <TORSDO>
F 19

$$$$
=
 OpenBabel11062413483D

 52 55  0  0  1  0  0  0  0  0999 V2000
  185.0530  178.1740  143.1940 C   0  0  0  0  0  2  0  0  0  0  0  0
  184.9860  177.4490  141.9910 O   0  0  0  0  0  0  0  0  0  0  0  0
  185.5710  178.2170  141.0160 N   0  0  0  0  0  0  0  0  0  0  0  0
  186.2930  179.0040  143.1500 C   0  0  0  0  0  2  0  0  0  0  0  0
  186.4930  179.1440  141.6750 C   0  0  1  0  0  3  0  0  0  0  0  0
  190.0550  175.9090  142.0790 C   0  0  0  0  0  3  0  0  0  0  0  0
  189.1090  177.0750  140.0810 C   0  0  0  0  0  2  0  0  0  0  0  0
  188.0380  178.1330  139.8980 C   0  0  2  0  0  3  0  0  0  0  0  0
  190.1130  175.7610  143.3290 O   0  0  0  0  0  0  0  0  0  0  0  0
  188.6920  178.0570  142.2630 C   0  0  1  0  0  3  0  0  0  0  0  0
  188.4190  179.0220  138.8940 O   0  0  0  0  0  1  0  0  0  0  0  0
  187.9320  178.8710  141.2310 C   0  0  2  0  0  3  0  0  0  0  0  0
  189.3830  177.0290  141.5010 N   0  0  0  0  0  0  0  0  0  0  0  0
  189.6940  178.9800  142.9480 C   0  0  0  0  0  2  0  0  0  0  0  0
  190.0760  178.4550  144.2930 C   0  0  0  0  0  0  0  0  0  0  0  0
  191.2290  178.1200  144.5150 O   0  0  0  0  0  0  0  0  0  0  0  0
  189.0390  178.3370  145.3600 C   0  0  0  0  0  2  0  0  0  0  0  0
  188.7570  176.9450  147.5050 C   0  0  1  0  0  0  0  0  0  0  0  0
  188.3080  175.7360  148.0020 F   0  0  0  0  0  0  0  0  0  0  0  0
  190.2050  176.9560  147.0390 C   0  0  2  0  0  3  0  0  0  0  0  0
  189.0820  176.9580  146.0080 C   0  0  2  0  0  3  0  0  0  0  0  0
  190.7570  175.6770  147.1190 O   0  0  0  0  0  1  0  0  0  0  0  0
  186.9450  178.6790  148.0170 N   0  0  0  0  0  2  0  0  0  0  0  0
  189.1520  178.9770  148.7430 N   0  0  0  0  0  2  0  0  0  0  0  0
  188.2840  178.2000  148.1880 C   0  0  0  0  0  0  0  0  0  0  0  0
  185.0560  178.9210  146.6010 N   0  0  0  0  0  1  0  0  0  0  0  0
  185.9310  177.9660  147.2550 C   0  0  0  0  0  2  0  0  0  0  0  0
  184.5030  178.9480  140.2930 C   0  0  1  0  0  3  0  0  0  0  0  0
  184.6230  178.8540  138.7570 C   0  0  1  0  0  3  0  0  0  0  0  0
  185.3540  179.9200  138.2340 O   0  0  0  0  0  1  0  0  0  0  0  0
  185.2000  177.5300  138.2820 C   0  0  0  0  0  1  0  0  0  0  0  0
  182.5020  179.1770  141.7020 O   0  0  0  0  0  1  0  0  0  0  0  0
  183.0960  178.4440  140.6720 C   0  0  1  0  0  3  0  0  0  0  0  0
  182.1890  178.3580  139.4230 C   0  0  1  0  0  3  0  0  0  0  0  0
  181.7250  177.0470  139.1650 O   0  0  0  0  0  0  0  0  0  0  0  0
  182.4310  176.1500  139.9850 C   0  0  0  0  0  1  0  0  0  0  0  0
  181.1320  179.4780  139.2260 C   0  0  1  0  0  3  0  0  0  0  0  0
  181.2090  179.0840  136.6910 C   0  0  0  0  0  1  0  0  0  0  0  0
  181.1570  180.1000  137.8210 C   0  0  1  0  0  3  0  0  0  0  0  0
  180.1750  181.2590  137.5880 C   0  0  0  0  0  2  0  0  0  0  0  0
  180.8460  182.5560  137.1370 C   0  0  2  0  0  3  0  0  0  0  0  0
  181.9620  182.8870  138.1190 C   0  0  0  0  0  1  0  0  0  0  0  0
  180.4100  184.9950  137.5880 C   0  0  0  0  0  1  0  0  0  0  0  0
  179.3580  183.9140  135.6480 C   0  0  0  0  0  1  0  0  0  0  0  0
  179.8190  183.6910  137.0760 C   0  0  0  0  0  3  0  0  0  0  0  0
  179.7070  179.0070  139.5070 C   0  0  0  0  0  2  0  0  0  0  0  0
  179.0540  181.4430  141.3330 C   0  0  0  0  0  1  0  0  0  0  0  0
  179.4280  178.9860  140.9730 C   0  0  0  0  0  0  0  0  0  0  0  0
  179.1460  180.0500  141.7400 N   0  0  0  0  0  0  0  0  0  0  0  0
  178.9310  179.6200  142.9700 N   0  0  0  0  0  0  0  0  0  0  0  0
  179.3680  177.8650  141.7760 C   0  0  0  0  0  3  0  0  0  0  0  0
  179.0620  178.3010  143.0180 N   0  0  0  0  0  0  0  0  0  0  0  0
  2  1  1  0  0  0  0
  3  5  1  0  0  0  0
  3  2  1  0  0  0  0
  4  1  1  0  0  0  0
  5  4  1  1  0  0  0
  6  9  2  0  0  0  0
  7 13  1  0  0  0  0
  8 11  1  6  0  0  0
  8  7  1  0  0  0  0
  8 12  1  0  0  0  0
 10 14  1  6  0  0  0
 12  5  1  1  0  0  0
 12 10  1  0  0  0  0
 13  6  1  0  0  0  0
 13 10  1  0  0  0  0
 14 15  1  0  0  0  0
 15 16  2  0  0  0  0
 15 17  1  0  0  0  0
 18 19  1  1  0  0  0
 18 25  1  0  0  0  0
 20 22  1  6  0  0  0
 20 18  1  0  0  0  0
 21 17  1  1  0  0  0
 21 20  1  0  0  0  0
 21 18  1  0  0  0  0
 23 25  1  0  0  0  0
 25 24  2  0  0  0  0
 26 27  1  0  0  0  0
 27 23  1  0  0  0  0
 28 29  1  6  0  0  0
 28 33  1  0  0  0  0
 28  3  1  0  0  0  0
 29 31  1  1  0  0  0
 30 29  1  0  0  0  0
 33 32  1  1  0  0  0
 34 35  1  1  0  0  0
 34 33  1  0  0  0  0
 35 36  1  0  0  0  0
 37 34  1  0  0  0  0
 37 46  1  6  0  0  0
 39 38  1  6  0  0  0
 39 37  1  0  0  0  0
 40 39  1  0  0  0  0
 41 40  1  0  0  0  0
 41 42  1  1  0  0  0
 44 45  1  0  0  0  0
 45 41  1  0  0  0  0
 45 43  1  0  0  0  0
 46 48  1  0  0  0  0
 47 49  1  0  0  0  0
 48 49  1  0  0  0  0
 48 51  2  0  0  0  0
 49 50  1  0  0  0  0
 50 52  2  0  0  0  0
 51 52  1  0  0  0  0
M  END
>  <MODEL>
3

>  <REMARK>
 VINA RESULT:      -4.2      3.164      9.365
  Name = 
  19 active torsions:
  status: ('A' for Active; 'I' for Inactive)
    1  A    between atoms: C_3  and  C_48
    2  A    between atoms: C_4  and  C_7
    3  A    between atoms: C_4  and  C_33
    4  A    between atoms: C_4  and  N_43
    5  A    between atoms: C_5  and  C_15
    6  A    between atoms: C_5  and  C_25
    7  A    between atoms: C_8  and  C_28
    8  A    between atoms: C_8  and  C_45
    9  A    between atoms: O_12  and  C_17
   10  A    between atoms: C_15  and  C_17
   11  A    between atoms: C_15  and  C_45
   12  A    between atoms: C_17  and  C_33
   13  A    between atoms: C_18  and  C_30
   14  A    between atoms: C_18  and  C_38
   15  A    between atoms: C_23  and  C_38
   16  A    between atoms: C_28  and  C_47
   17  A    between atoms: C_29  and  C_30
   18  A    between atoms: N_31  and  C_36
   19  A    between atoms: C_40  and  C_51
                            x       y       z     vdW  Elec       q    Type
                         _______ _______ _______ _____ _____    ______ ____

>  <TORSDO>
F 19

$$$$
=
 OpenBabel11062413483D

 52 55  0  0  1  0  0  0  0  0999 V2000
  184.6960  176.8940  134.5940 C   0  0  0  0  0  2  0  0  0  0  0  0
  185.5110  175.9820  135.2870 O   0  0  0  0  0  0  0  0  0  0  0  0
  185.2720  176.1530  136.6270 N   0  0  0  0  0  0  0  0  0  0  0  0
  183.4510  177.0840  135.3970 C   0  0  0  0  0  2  0  0  0  0  0  0
  183.9390  176.7420  136.7680 C   0  0  1  0  0  3  0  0  0  0  0  0
  179.4670  176.3930  138.5590 C   0  0  0  0  0  3  0  0  0  0  0  0
  180.8030  174.8200  137.1490 C   0  0  0  0  0  2  0  0  0  0  0  0
  182.2190  174.8490  136.6060 C   0  0  2  0  0  3  0  0  0  0  0  0
  179.3920  177.4500  139.2400 O   0  0  0  0  0  0  0  0  0  0  0  0
  182.0080  176.5340  138.3780 C   0  0  1  0  0  3  0  0  0  0  0  0
  182.7680  173.5680  136.6520 O   0  0  0  0  0  1  0  0  0  0  0  0
  183.0090  175.7840  137.5180 C   0  0  2  0  0  3  0  0  0  0  0  0
  180.7310  175.8880  138.1230 N   0  0  0  0  0  0  0  0  0  0  0  0
  182.4130  176.3580  139.8380 C   0  0  0  0  0  2  0  0  0  0  0  0
  182.7400  177.6730  140.4670 C   0  0  0  0  0  0  0  0  0  0  0  0
  182.1010  178.6700  140.1670 O   0  0  0  0  0  0  0  0  0  0  0  0
  183.8520  177.7610  141.4580 C   0  0  0  0  0  2  0  0  0  0  0  0
  184.7510  179.1290  143.4420 C   0  0  1  0  0  0  0  0  0  0  0  0
  184.9270  180.4110  143.9290 F   0  0  0  0  0  0  0  0  0  0  0  0
  183.4130  178.4880  143.7750 C   0  0  2  0  0  3  0  0  0  0  0  0
  183.6810  178.9800  142.3570 C   0  0  2  0  0  3  0  0  0  0  0  0
  182.5820  179.3970  144.4300 O   0  0  0  0  0  1  0  0  0  0  0  0
  186.6290  177.9110  144.6860 N   0  0  0  0  0  2  0  0  0  0  0  0
  186.4850  177.8570  142.3480 N   0  0  0  0  0  2  0  0  0  0  0  0
  185.9390  178.2050  143.4650 C   0  0  0  0  0  0  0  0  0  0  0  0
  186.8460  177.6340  147.0320 N   0  0  0  0  0  1  0  0  0  0  0  0
  186.1990  178.4030  145.9860 C   0  0  0  0  0  2  0  0  0  0  0  0
  186.3150  177.0510  137.1770 C   0  0  1  0  0  3  0  0  0  0  0  0
  185.8510  177.8470  138.4160 C   0  0  1  0  0  3  0  0  0  0  0  0
  186.9230  178.1750  139.2460 O   0  0  0  0  0  1  0  0  0  0  0  0
  185.0520  179.0910  138.0640 C   0  0  0  0  0  1  0  0  0  0  0  0
  187.3710  174.9230  137.8060 O   0  0  0  0  0  1  0  0  0  0  0  0
  187.5890  176.2840  137.5790 C   0  0  1  0  0  3  0  0  0  0  0  0
  188.7220  176.5270  136.5560 C   0  0  1  0  0  3  0  0  0  0  0  0
  188.3520  177.4200  135.5220 O   0  0  0  0  0  0  0  0  0  0  0  0
  189.4050  177.4950  134.5940 C   0  0  0  0  0  1  0  0  0  0  0  0
  190.1580  176.7260  137.1110 C   0  0  1  0  0  3  0  0  0  0  0  0
  189.3510  178.9600  138.0840 C   0  0  0  0  0  1  0  0  0  0  0  0
  190.2310  177.7340  138.2690 C   0  0  1  0  0  3  0  0  0  0  0  0
  190.1900  177.1290  139.6800 C   0  0  0  0  0  2  0  0  0  0  0  0
  191.1900  177.7570  140.6510 C   0  0  2  0  0  3  0  0  0  0  0  0
  192.5870  177.2770  140.2780 C   0  0  0  0  0  1  0  0  0  0  0  0
  189.9430  178.4010  142.7420 C   0  0  0  0  0  1  0  0  0  0  0  0
  190.1290  176.0300  142.1240 C   0  0  0  0  0  1  0  0  0  0  0  0
  190.8470  177.3670  142.0930 C   0  0  0  0  0  3  0  0  0  0  0  0
  190.8010  175.4230  137.5800 C   0  0  0  0  0  2  0  0  0  0  0  0
  190.9170  173.9070  134.8630 C   0  0  0  0  0  1  0  0  0  0  0  0
  192.0170  175.1040  136.7770 C   0  0  0  0  0  0  0  0  0  0  0  0
  192.0430  174.4500  135.6050 N   0  0  0  0  0  0  0  0  0  0  0  0
  193.2980  174.3940  135.1970 N   0  0  0  0  0  0  0  0  0  0  0  0
  193.3150  175.4670  137.0800 C   0  0  0  0  0  3  0  0  0  0  0  0
  194.0860  175.0000  136.0740 N   0  0  0  0  0  0  0  0  0  0  0  0
  1  2  1  0  0  0  0
  1  4  1  0  0  0  0
  2  3  1  0  0  0  0
  3  5  1  0  0  0  0
  3 28  1  0  0  0  0
  5  4  1  6  0  0  0
  6  9  2  0  0  0  0
  7 13  1  0  0  0  0
  8 11  1  1  0  0  0
  8  7  1  0  0  0  0
  8 12  1  0  0  0  0
 10 14  1  1  0  0  0
 12  5  1  6  0  0  0
 12 10  1  0  0  0  0
 13 10  1  0  0  0  0
 13  6  1  0  0  0  0
 14 15  1  0  0  0  0
 15 17  1  0  0  0  0
 16 15  2  0  0  0  0
 18 25  1  0  0  0  0
 18 20  1  0  0  0  0
 18 19  1  1  0  0  0
 20 22  1  1  0  0  0
 21 17  1  6  0  0  0
 21 18  1  0  0  0  0
 21 20  1  0  0  0  0
 23 27  1  0  0  0  0
 24 25  2  0  0  0  0
 25 23  1  0  0  0  0
 27 26  1  0  0  0  0
 28 33  1  1  0  0  0
 28 29  1  0  0  0  0
 29 31  1  6  0  0  0
 29 30  1  0  0  0  0
 33 32  1  6  0  0  0
 34 35  1  1  0  0  0
 34 37  1  0  0  0  0
 34 33  1  0  0  0  0
 36 35  1  0  0  0  0
 37 46  1  1  0  0  0
 37 39  1  0  0  0  0
 39 38  1  1  0  0  0
 39 40  1  0  0  0  0
 40 41  1  0  0  0  0
 41 42  1  6  0  0  0
 41 45  1  0  0  0  0
 45 44  1  0  0  0  0
 45 43  1  0  0  0  0
 47 49  1  0  0  0  0
 48 51  2  0  0  0  0
 48 46  1  0  0  0  0
 49 48  1  0  0  0  0
 50 49  1  0  0  0  0
 50 52  2  0  0  0  0
 52 51  1  0  0  0  0
M  END
>  <MODEL>
4

>  <REMARK>
 VINA RESULT:      -4.2      2.926      7.847
  Name = 
  19 active torsions:
  status: ('A' for Active; 'I' for Inactive)
    1  A    between atoms: C_3  and  C_48
    2  A    between atoms: C_4  and  C_7
    3  A    between atoms: C_4  and  C_33
    4  A    between atoms: C_4  and  N_43
    5  A    between atoms: C_5  and  C_15
    6  A    between atoms: C_5  and  C_25
    7  A    between atoms: C_8  and  C_28
    8  A    between atoms: C_8  and  C_45
    9  A    between atoms: O_12  and  C_17
   10  A    between atoms: C_15  and  C_17
   11  A    between atoms: C_15  and  C_45
   12  A    between atoms: C_17  and  C_33
   13  A    between atoms: C_18  and  C_30
   14  A    between atoms: C_18  and  C_38
   15  A    between atoms: C_23  and  C_38
   16  A    between atoms: C_28  and  C_47
   17  A    between atoms: C_29  and  C_30
   18  A    between atoms: N_31  and  C_36
   19  A    between atoms: C_40  and  C_51
                            x       y       z     vdW  Elec       q    Type
                         _______ _______ _______ _____ _____    ______ ____

>  <TORSDO>
F 19

$$$$
=
 OpenBabel11062413483D

 52 55  0  0  1  0  0  0  0  0999 V2000
  183.7080  179.6670  144.1210 C   0  0  0  0  0  2  0  0  0  0  0  0
  184.8150  180.1620  143.4110 O   0  0  0  0  0  0  0  0  0  0  0  0
  185.2650  179.1530  142.5970 N   0  0  0  0  0  0  0  0  0  0  0  0
  183.0200  178.6730  143.2450 C   0  0  0  0  0  2  0  0  0  0  0  0
  184.1460  178.2390  142.3630 C   0  0  1  0  0  3  0  0  0  0  0  0
  180.7050  179.6260  139.2720 C   0  0  0  0  0  3  0  0  0  0  0  0
  183.1920  179.8670  139.1840 C   0  0  0  0  0  2  0  0  0  0  0  0
  184.3190  179.4070  140.0890 C   0  0  2  0  0  3  0  0  0  0  0  0
  179.6740  179.1590  139.8240 O   0  0  0  0  0  0  0  0  0  0  0  0
  182.2730  178.1840  140.6740 C   0  0  1  0  0  3  0  0  0  0  0  0
  185.4090  179.0070  139.3180 O   0  0  0  0  0  1  0  0  0  0  0  0
  183.7770  178.2170  140.8770 C   0  0  2  0  0  3  0  0  0  0  0  0
  182.0080  179.1690  139.6390 N   0  0  0  0  0  0  0  0  0  0  0  0
  181.8920  176.7870  140.1930 C   0  0  0  0  0  2  0  0  0  0  0  0
  182.0650  176.6630  138.7140 C   0  0  0  0  0  0  0  0  0  0  0  0
  181.1030  176.7910  137.9730 O   0  0  0  0  0  0  0  0  0  0  0  0
  183.4180  176.3790  138.1510 C   0  0  0  0  0  2  0  0  0  0  0  0
  184.4280  174.4250  136.8170 C   0  0  1  0  0  0  0  0  0  0  0  0
  185.0850  173.2150  136.9310 F   0  0  0  0  0  0  0  0  0  0  0  0
  182.9100  174.3430  136.8530 C   0  0  2  0  0  3  0  0  0  0  0  0
  183.6640  174.8780  138.0650 C   0  0  2  0  0  3  0  0  0  0  0  0
  182.4940  173.0350  137.1060 O   0  0  0  0  0  1  0  0  0  0  0  0
  186.2630  176.0730  136.1300 N   0  0  0  0  0  2  0  0  0  0  0  0
  184.2500  175.9310  134.9400 N   0  0  0  0  0  2  0  0  0  0  0  0
  185.0020  175.4450  135.8700 C   0  0  0  0  0  0  0  0  0  0  0  0
  188.1540  174.8150  136.8190 N   0  0  0  0  0  1  0  0  0  0  0  0
  187.1120  175.7250  137.2590 C   0  0  0  0  0  2  0  0  0  0  0  0
  186.3850  178.4640  143.2830 C   0  0  1  0  0  3  0  0  0  0  0  0
  185.9800  177.8120  144.6220 C   0  0  1  0  0  3  0  0  0  0  0  0
  186.4720  176.5120  144.7290 O   0  0  0  0  0  1  0  0  0  0  0  0
  186.3840  178.6350  145.8350 C   0  0  0  0  0  1  0  0  0  0  0  0
  187.0490  177.6820  141.0490 O   0  0  0  0  0  1  0  0  0  0  0  0
  187.0090  177.3600  142.4080 C   0  0  1  0  0  3  0  0  0  0  0  0
  188.3990  176.9520  142.9490 C   0  0  1  0  0  3  0  0  0  0  0  0
  188.7040  175.5890  142.7200 O   0  0  0  0  0  0  0  0  0  0  0  0
  189.9930  175.3260  143.2160 C   0  0  0  0  0  1  0  0  0  0  0  0
  189.5770  177.9350  142.7130 C   0  0  1  0  0  3  0  0  0  0  0  0
  191.1230  179.5530  143.9680 C   0  0  0  0  0  1  0  0  0  0  0  0
  190.4000  178.2160  143.9800 C   0  0  1  0  0  3  0  0  0  0  0  0
  189.7120  177.8770  145.3100 C   0  0  0  0  0  2  0  0  0  0  0  0
  190.6840  177.6320  146.4640 C   0  0  2  0  0  3  0  0  0  0  0  0
  191.6720  176.5530  146.0400 C   0  0  0  0  0  1  0  0  0  0  0  0
  189.4410  178.4120  148.5120 C   0  0  0  0  0  1  0  0  0  0  0  0
  188.7010  176.3800  147.3460 C   0  0  0  0  0  1  0  0  0  0  0  0
  189.9180  177.2050  147.7210 C   0  0  0  0  0  3  0  0  0  0  0  0
  190.5370  177.4630  141.6230 C   0  0  0  0  0  2  0  0  0  0  0  0
  191.1120  176.0510  138.9090 C   0  0  0  0  0  1  0  0  0  0  0  0
  190.0620  177.8810  140.2720 C   0  0  0  0  0  0  0  0  0  0  0  0
  190.3220  177.2540  139.1130 N   0  0  0  0  0  0  0  0  0  0  0  0
  189.7020  177.9090  138.1480 N   0  0  0  0  0  0  0  0  0  0  0  0
  189.2410  178.9540  139.9900 C   0  0  0  0  0  3  0  0  0  0  0  0
  189.0440  178.9430  138.6530 N   0  0  0  0  0  0  0  0  0  0  0  0
  2  1  1  0  0  0  0
  3 28  1  0  0  0  0
  3  2  1  0  0  0  0
  4  1  1  0  0  0  0
  5  3  1  0  0  0  0
  5  4  1  1  0  0  0
  6 13  1  0  0  0  0
  6  9  2  0  0  0  0
  7 13  1  0  0  0  0
  7  8  1  0  0  0  0
  8 11  1  6  0  0  0
  8 12  1  0  0  0  0
 10 14  1  6  0  0  0
 10 12  1  0  0  0  0
 12  5  1  1  0  0  0
 13 10  1  0  0  0  0
 15 14  1  0  0  0  0
 16 15  2  0  0  0  0
 17 15  1  0  0  0  0
 18 20  1  0  0  0  0
 18 19  1  1  0  0  0
 18 21  1  0  0  0  0
 20 22  1  1  0  0  0
 20 21  1  0  0  0  0
 21 17  1  6  0  0  0
 23 27  1  0  0  0  0
 24 25  2  0  0  0  0
 25 23  1  0  0  0  0
 25 18  1  0  0  0  0
 26 27  1  0  0  0  0
 28 33  1  6  0  0  0
 28 29  1  0  0  0  0
 29 30  1  0  0  0  0
 29 31  1  1  0  0  0
 33 32  1  6  0  0  0
 33 34  1  0  0  0  0
 34 35  1  6  0  0  0
 35 36  1  0  0  0  0
 37 46  1  6  0  0  0
 37 34  1  0  0  0  0
 37 39  1  0  0  0  0
 39 38  1  1  0  0  0
 39 40  1  0  0  0  0
 40 41  1  0  0  0  0
 41 42  1  6  0  0  0
 41 45  1  0  0  0  0
 44 45  1  0  0  0  0
 45 43  1  0  0  0  0
 47 49  1  0  0  0  0
 48 46  1  0  0  0  0
 49 48  1  0  0  0  0
 50 52  2  0  0  0  0
 50 49  1  0  0  0  0
 51 48  2  0  0  0  0
 52 51  1  0  0  0  0
M  END
>  <MODEL>
5

>  <REMARK>
 VINA RESULT:      -4.0      3.099      6.567
  Name = 
  19 active torsions:
  status: ('A' for Active; 'I' for Inactive)
    1  A    between atoms: C_3  and  C_48
    2  A    between atoms: C_4  and  C_7
    3  A    between atoms: C_4  and  C_33
    4  A    between atoms: C_4  and  N_43
    5  A    between atoms: C_5  and  C_15
    6  A    between atoms: C_5  and  C_25
    7  A    between atoms: C_8  and  C_28
    8  A    between atoms: C_8  and  C_45
    9  A    between atoms: O_12  and  C_17
   10  A    between atoms: C_15  and  C_17
   11  A    between atoms: C_15  and  C_45
   12  A    between atoms: C_17  and  C_33
   13  A    between atoms: C_18  and  C_30
   14  A    between atoms: C_18  and  C_38
   15  A    between atoms: C_23  and  C_38
   16  A    between atoms: C_28  and  C_47
   17  A    between atoms: C_29  and  C_30
   18  A    between atoms: N_31  and  C_36
   19  A    between atoms: C_40  and  C_51
                            x       y       z     vdW  Elec       q    Type
                         _______ _______ _______ _____ _____    ______ ____

>  <TORSDO>
F 19

$$$$
=
 OpenBabel11062413483D

 52 55  0  0  1  0  0  0  0  0999 V2000
  183.8560  179.6970  144.1010 C   0  0  0  0  0  2  0  0  0  0  0  0
  184.9280  180.2200  143.3560 O   0  0  0  0  0  0  0  0  0  0  0  0
  185.3790  179.2230  142.5300 N   0  0  0  0  0  0  0  0  0  0  0  0
  183.1680  178.6830  143.2470 C   0  0  0  0  0  2  0  0  0  0  0  0
  184.2780  178.2780  142.3310 C   0  0  1  0  0  3  0  0  0  0  0  0
  181.0030  180.0450  139.2530 C   0  0  0  0  0  3  0  0  0  0  0  0
  183.4920  179.8850  139.0950 C   0  0  0  0  0  2  0  0  0  0  0  0
  184.5610  179.2950  139.9950 C   0  0  2  0  0  3  0  0  0  0  0  0
  179.9290  179.7750  139.8530 O   0  0  0  0  0  0  0  0  0  0  0  0
  182.3680  178.4410  140.6920 C   0  0  1  0  0  3  0  0  0  0  0  0
  185.5510  178.6910  139.2210 O   0  0  0  0  0  1  0  0  0  0  0  0
  183.8640  178.2450  140.8570 C   0  0  2  0  0  3  0  0  0  0  0  0
  182.2290  179.4060  139.6130 N   0  0  0  0  0  0  0  0  0  0  0  0
  181.7570  177.1010  140.2920 C   0  0  0  0  0  2  0  0  0  0  0  0
  182.1590  176.7200  138.9050 C   0  0  0  0  0  0  0  0  0  0  0  0
  181.4520  177.0260  137.9570 O   0  0  0  0  0  0  0  0  0  0  0  0
  183.4260  175.9610  138.6860 C   0  0  0  0  0  2  0  0  0  0  0  0
  184.3400  174.8680  136.5450 C   0  0  1  0  0  0  0  0  0  0  0  0
  184.3270  174.9300  135.1640 F   0  0  0  0  0  0  0  0  0  0  0  0
  185.3970  175.7250  137.2210 C   0  0  2  0  0  3  0  0  0  0  0  0
  183.9360  176.1580  137.2640 C   0  0  2  0  0  3  0  0  0  0  0  0
  186.0810  176.4960  136.2810 O   0  0  0  0  0  1  0  0  0  0  0  0
  182.7760  172.9350  137.1570 N   0  0  0  0  0  2  0  0  0  0  0  0
  184.9720  173.0250  137.9670 N   0  0  0  0  0  2  0  0  0  0  0  0
  184.0780  173.5310  137.1860 C   0  0  0  0  0  0  0  0  0  0  0  0
  181.5440  172.9310  135.1290 N   0  0  0  0  0  1  0  0  0  0  0  0
  181.6450  173.5190  136.4520 C   0  0  0  0  0  2  0  0  0  0  0  0
  186.5370  178.5650  143.1810 C   0  0  1  0  0  3  0  0  0  0  0  0
  186.1400  177.6100  144.3260 C   0  0  1  0  0  3  0  0  0  0  0  0
  186.7460  176.3610  144.1860 O   0  0  0  0  0  1  0  0  0  0  0  0
  186.4160  178.1830  145.7070 C   0  0  0  0  0  1  0  0  0  0  0  0
  187.7540  178.4770  141.0460 O   0  0  0  0  0  1  0  0  0  0  0  0
  187.3800  177.7510  142.1800 C   0  0  1  0  0  3  0  0  0  0  0  0
  188.5970  177.1070  142.8840 C   0  0  1  0  0  3  0  0  0  0  0  0
  188.6160  175.6960  142.7770 O   0  0  0  0  0  0  0  0  0  0  0  0
  189.7790  175.2120  143.4010 C   0  0  0  0  0  1  0  0  0  0  0  0
  189.9770  177.7950  142.7020 C   0  0  1  0  0  3  0  0  0  0  0  0
  190.9700  179.7940  143.9690 C   0  0  0  0  0  1  0  0  0  0  0  0
  190.5700  178.3280  144.0160 C   0  0  1  0  0  3  0  0  0  0  0  0
  189.8330  177.9110  145.2970 C   0  0  0  0  0  2  0  0  0  0  0  0
  190.7610  177.5970  146.4700 C   0  0  2  0  0  3  0  0  0  0  0  0
  191.6790  176.4510  146.0640 C   0  0  0  0  0  1  0  0  0  0  0  0
  189.4260  178.4650  148.4220 C   0  0  0  0  0  1  0  0  0  0  0  0
  188.7450  176.3770  147.3200 C   0  0  0  0  0  1  0  0  0  0  0  0
  189.9420  177.2250  147.7110 C   0  0  0  0  0  3  0  0  0  0  0  0
  191.0160  176.8840  142.0520 C   0  0  0  0  0  2  0  0  0  0  0  0
  193.4260  177.2150  140.1090 C   0  0  0  0  0  1  0  0  0  0  0  0
  190.9660  176.9890  140.5640 C   0  0  0  0  0  0  0  0  0  0  0  0
  192.0210  177.1300  139.7460 N   0  0  0  0  0  0  0  0  0  0  0  0
  191.5720  177.1540  138.5040 N   0  0  0  0  0  0  0  0  0  0  0  0
  189.8350  176.9150  139.7770 C   0  0  0  0  0  3  0  0  0  0  0  0
  190.2520  177.0280  138.4970 N   0  0  0  0  0  0  0  0  0  0  0  0
  2  1  1  0  0  0  0
  3 28  1  0  0  0  0
  3  2  1  0  0  0  0
  4  1  1  0  0  0  0
  5  3  1  0  0  0  0
  5  4  1  1  0  0  0
  6 13  1  0  0  0  0
  6  9  2  0  0  0  0
  7 13  1  0  0  0  0
  7  8  1  0  0  0  0
  8 11  1  6  0  0  0
  8 12  1  0  0  0  0
 10 14  1  6  0  0  0
 10 12  1  0  0  0  0
 12  5  1  1  0  0  0
 13 10  1  0  0  0  0
 15 14  1  0  0  0  0
 16 15  2  0  0  0  0
 17 15  1  0  0  0  0
 18 19  1  6  0  0  0
 18 25  1  0  0  0  0
 18 20  1  0  0  0  0
 18 21  1  0  0  0  0
 20 22  1  6  0  0  0
 20 21  1  0  0  0  0
 21 17  1  1  0  0  0
 23 25  1  0  0  0  0
 25 24  2  0  0  0  0
 26 27  1  0  0  0  0
 27 23  1  0  0  0  0
 28 33  1  6  0  0  0
 28 29  1  0  0  0  0
 29 31  1  1  0  0  0
 30 29  1  0  0  0  0
 33 32  1  6  0  0  0
 33 34  1  0  0  0  0
 34 35  1  6  0  0  0
 35 36  1  0  0  0  0
 37 46  1  1  0  0  0
 37 34  1  0  0  0  0
 37 39  1  0  0  0  0
 39 38  1  6  0  0  0
 39 40  1  0  0  0  0
 40 41  1  0  0  0  0
 41 42  1  6  0  0  0
 41 45  1  0  0  0  0
 44 45  1  0  0  0  0
 45 43  1  0  0  0  0
 48 46  1  0  0  0  0
 49 47  1  0  0  0  0
 49 48  1  0  0  0  0
 50 49  1  0  0  0  0
 51 48  2  0  0  0  0
 52 50  2  0  0  0  0
 52 51  1  0  0  0  0
M  END
>  <MODEL>
6

>  <REMARK>
 VINA RESULT:      -3.9      3.015      6.241
  Name = 
  19 active torsions:
  status: ('A' for Active; 'I' for Inactive)
    1  A    between atoms: C_3  and  C_48
    2  A    between atoms: C_4  and  C_7
    3  A    between atoms: C_4  and  C_33
    4  A    between atoms: C_4  and  N_43
    5  A    between atoms: C_5  and  C_15
    6  A    between atoms: C_5  and  C_25
    7  A    between atoms: C_8  and  C_28
    8  A    between atoms: C_8  and  C_45
    9  A    between atoms: O_12  and  C_17
   10  A    between atoms: C_15  and  C_17
   11  A    between atoms: C_15  and  C_45
   12  A    between atoms: C_17  and  C_33
   13  A    between atoms: C_18  and  C_30
   14  A    between atoms: C_18  and  C_38
   15  A    between atoms: C_23  and  C_38
   16  A    between atoms: C_28  and  C_47
   17  A    between atoms: C_29  and  C_30
   18  A    between atoms: N_31  and  C_36
   19  A    between atoms: C_40  and  C_51
                            x       y       z     vdW  Elec       q    Type
                         _______ _______ _______ _____ _____    ______ ____

>  <TORSDO>
F 19

$$$$
=
 OpenBabel11062413483D

 52 55  0  0  1  0  0  0  0  0999 V2000
  187.5550  179.1530  136.8190 C   0  0  0  0  0  2  0  0  0  0  0  0
  186.6800  178.2310  137.4200 O   0  0  0  0  0  0  0  0  0  0  0  0
  187.3300  177.0250  137.4760 N   0  0  0  0  0  0  0  0  0  0  0  0
  188.9470  178.7550  137.1830 C   0  0  0  0  0  2  0  0  0  0  0  0
  188.7690  177.2930  137.4440 C   0  0  1  0  0  3  0  0  0  0  0  0
  192.8680  177.6380  139.9750 C   0  0  0  0  0  3  0  0  0  0  0  0
  190.4800  177.8930  140.6670 C   0  0  0  0  0  2  0  0  0  0  0  0
  189.1580  177.7430  139.9370 C   0  0  2  0  0  3  0  0  0  0  0  0
  193.7230  177.3340  139.1020 O   0  0  0  0  0  0  0  0  0  0  0  0
  190.9340  176.7050  138.5970 C   0  0  1  0  0  3  0  0  0  0  0  0
  188.2170  177.1560  140.7810 O   0  0  0  0  0  1  0  0  0  0  0  0
  189.4290  176.8270  138.7450 C   0  0  2  0  0  3  0  0  0  0  0  0
  191.4840  177.3360  139.7860 N   0  0  0  0  0  0  0  0  0  0  0  0
  191.2870  175.2210  138.5680 C   0  0  0  0  0  2  0  0  0  0  0  0
  192.0740  174.8800  137.3460 C   0  0  0  0  0  0  0  0  0  0  0  0
  191.5100  174.7600  136.2690 O   0  0  0  0  0  0  0  0  0  0  0  0
  193.5500  174.6820  137.4490 C   0  0  0  0  0  2  0  0  0  0  0  0
  195.3630  172.8580  137.4800 C   0  0  1  0  0  0  0  0  0  0  0  0
  195.7840  171.7110  138.1270 F   0  0  0  0  0  0  0  0  0  0  0  0
  194.3760  172.6360  136.3460 C   0  0  2  0  0  3  0  0  0  0  0  0
  193.8850  173.2120  137.6690 C   0  0  2  0  0  3  0  0  0  0  0  0
  194.0140  171.2900  136.2650 O   0  0  0  0  0  1  0  0  0  0  0  0
  196.8630  174.7460  138.3400 N   0  0  0  0  0  2  0  0  0  0  0  0
  196.6420  174.3180  136.0470 N   0  0  0  0  0  2  0  0  0  0  0  0
  196.3790  173.9460  137.2550 C   0  0  0  0  0  0  0  0  0  0  0  0
  197.2230  175.4390  140.5810 N   0  0  0  0  0  1  0  0  0  0  0  0
  196.4870  174.5250  139.7280 C   0  0  0  0  0  2  0  0  0  0  0  0
  186.9110  176.2130  136.3090 C   0  0  1  0  0  3  0  0  0  0  0  0
  188.0580  175.3850  135.6910 C   0  0  1  0  0  3  0  0  0  0  0  0
  187.6060  174.1520  135.2220 O   0  0  0  0  0  1  0  0  0  0  0  0
  188.8090  176.1270  134.5960 C   0  0  0  0  0  1  0  0  0  0  0  0
  185.8570  174.7360  137.9670 O   0  0  0  0  0  1  0  0  0  0  0  0
  185.7790  175.2290  136.6620 C   0  0  1  0  0  3  0  0  0  0  0  0
  184.3960  175.8520  136.3590 C   0  0  1  0  0  3  0  0  0  0  0  0
  184.1130  175.9240  134.9750 O   0  0  0  0  0  0  0  0  0  0  0  0
  184.0690  177.2770  134.5940 C   0  0  0  0  0  1  0  0  0  0  0  0
  183.2030  175.4160  137.2510 C   0  0  1  0  0  3  0  0  0  0  0  0
  180.9480  176.6350  137.1220 C   0  0  0  0  0  1  0  0  0  0  0  0
  182.3390  176.5920  137.7330 C   0  0  1  0  0  3  0  0  0  0  0  0
  182.3790  176.8720  139.2430 C   0  0  0  0  0  2  0  0  0  0  0  0
  182.2210  178.3490  139.6020 C   0  0  2  0  0  3  0  0  0  0  0  0
  182.7430  179.1850  138.4400 C   0  0  0  0  0  1  0  0  0  0  0  0
  182.0610  178.6840  142.0930 C   0  0  0  0  0  1  0  0  0  0  0  0
  184.0620  177.6230  141.1390 C   0  0  0  0  0  1  0  0  0  0  0  0
  182.9890  178.6670  140.8890 C   0  0  0  0  0  3  0  0  0  0  0  0
  182.2840  174.4090  136.5630 C   0  0  0  0  0  2  0  0  0  0  0  0
  180.6050  171.9070  137.3490 C   0  0  0  0  0  1  0  0  0  0  0  0
  182.7790  173.0140  136.7520 C   0  0  0  0  0  0  0  0  0  0  0  0
  182.0350  171.9490  137.0890 N   0  0  0  0  0  0  0  0  0  0  0  0
  182.8270  170.8930  137.1270 N   0  0  0  0  0  0  0  0  0  0  0  0
  184.0750  172.5750  136.5680 C   0  0  0  0  0  3  0  0  0  0  0  0
  184.0670  171.2470  136.8180 N   0  0  0  0  0  0  0  0  0  0  0  0
  1  4  1  0  0  0  0
  1  2  1  0  0  0  0
  2  3  1  0  0  0  0
  5  4  1  1  0  0  0
  5  3  1  0  0  0  0
  8  7  1  0  0  0  0
  8 11  1  1  0  0  0
  9  6  2  0  0  0  0
 10 14  1  1  0  0  0
 10 12  1  0  0  0  0
 10 13  1  0  0  0  0
 12  5  1  6  0  0  0
 12  8  1  0  0  0  0
 13  6  1  0  0  0  0
 13  7  1  0  0  0  0
 15 17  1  0  0  0  0
 15 14  1  0  0  0  0
 16 15  2  0  0  0  0
 18 21  1  0  0  0  0
 18 19  1  1  0  0  0
 20 22  1  1  0  0  0
 20 18  1  0  0  0  0
 20 21  1  0  0  0  0
 21 17  1  6  0  0  0
 23 27  1  0  0  0  0
 24 25  2  0  0  0  0
 25 18  1  0  0  0  0
 25 23  1  0  0  0  0
 27 26  1  0  0  0  0
 28 29  1  1  0  0  0
 28 33  1  0  0  0  0
 28  3  1  0  0  0  0
 29 31  1  6  0  0  0
 30 29  1  0  0  0  0
 33 32  1  1  0  0  0
 34 35  1  6  0  0  0
 34 33  1  0  0  0  0
 34 37  1  0  0  0  0
 36 35  1  0  0  0  0
 37 46  1  6  0  0  0
 37 39  1  0  0  0  0
 39 38  1  1  0  0  0
 39 40  1  0  0  0  0
 40 41  1  0  0  0  0
 41 42  1  6  0  0  0
 41 45  1  0  0  0  0
 45 44  1  0  0  0  0
 45 43  1  0  0  0  0
 46 48  1  0  0  0  0
 48 49  1  0  0  0  0
 49 50  1  0  0  0  0
 49 47  1  0  0  0  0
 51 48  2  0  0  0  0
 51 52  1  0  0  0  0
 52 50  2  0  0  0  0
M  END
>  <MODEL>
7

>  <REMARK>
 VINA RESULT:      -3.7      4.729     10.265
  Name = 
  19 active torsions:
  status: ('A' for Active; 'I' for Inactive)
    1  A    between atoms: C_3  and  C_48
    2  A    between atoms: C_4  and  C_7
    3  A    between atoms: C_4  and  C_33
    4  A    between atoms: C_4  and  N_43
    5  A    between atoms: C_5  and  C_15
    6  A    between atoms: C_5  and  C_25
    7  A    between atoms: C_8  and  C_28
    8  A    between atoms: C_8  and  C_45
    9  A    between atoms: O_12  and  C_17
   10  A    between atoms: C_15  and  C_17
   11  A    between atoms: C_15  and  C_45
   12  A    between atoms: C_17  and  C_33
   13  A    between atoms: C_18  and  C_30
   14  A    between atoms: C_18  and  C_38
   15  A    between atoms: C_23  and  C_38
   16  A    between atoms: C_28  and  C_47
   17  A    between atoms: C_29  and  C_30
   18  A    between atoms: N_31  and  C_36
   19  A    between atoms: C_40  and  C_51
                            x       y       z     vdW  Elec       q    Type
                         _______ _______ _______ _____ _____    ______ ____

>  <TORSDO>
F 19

$$$$
=
 OpenBabel11062413483D

 52 55  0  0  1  0  0  0  0  0999 V2000
  192.3930  177.1310  140.0840 C   0  0  0  0  0  2  0  0  0  0  0  0
  191.3630  176.2480  140.4540 O   0  0  0  0  0  0  0  0  0  0  0  0
  190.2940  176.4970  139.6320 N   0  0  0  0  0  0  0  0  0  0  0  0
  192.2640  177.3820  138.6170 C   0  0  0  0  0  2  0  0  0  0  0  0
  190.8090  177.1100  138.4060 C   0  0  1  0  0  3  0  0  0  0  0  0
  187.4400  174.2170  136.5080 C   0  0  0  0  0  3  0  0  0  0  0  0
  188.8110  176.0400  135.4850 C   0  0  0  0  0  2  0  0  0  0  0  0
  189.9140  176.9380  136.0110 C   0  0  2  0  0  3  0  0  0  0  0  0
  187.1780  173.4680  137.4860 O   0  0  0  0  0  0  0  0  0  0  0  0
  189.6040  175.0610  137.5610 C   0  0  1  0  0  3  0  0  0  0  0  0
  190.8780  177.1300  135.0220 O   0  0  0  0  0  1  0  0  0  0  0  0
  190.5310  176.2070  137.2010 C   0  0  2  0  0  3  0  0  0  0  0  0
  188.6290  175.0100  136.4850 N   0  0  0  0  0  0  0  0  0  0  0  0
  190.4290  173.7780  137.5960 C   0  0  0  0  0  2  0  0  0  0  0  0
  191.1990  173.6000  136.3280 C   0  0  0  0  0  0  0  0  0  0  0  0
  190.6900  173.0260  135.3790 O   0  0  0  0  0  0  0  0  0  0  0  0
  192.5930  174.1240  136.2320 C   0  0  0  0  0  2  0  0  0  0  0  0
  194.6420  174.7700  137.6480 C   0  0  1  0  0  0  0  0  0  0  0  0
  195.0560  175.1290  138.9170 F   0  0  0  0  0  0  0  0  0  0  0  0
  194.6060  173.2740  137.3780 C   0  0  2  0  0  3  0  0  0  0  0  0
  193.3000  174.0340  137.5790 C   0  0  2  0  0  3  0  0  0  0  0  0
  194.9080  172.5570  138.5370 O   0  0  0  0  0  1  0  0  0  0  0  0
  196.4230  175.5310  135.9740 N   0  0  0  0  0  2  0  0  0  0  0  0
  194.3560  176.6220  136.1290 N   0  0  0  0  0  2  0  0  0  0  0  0
  195.0930  175.6290  136.4970 C   0  0  0  0  0  0  0  0  0  0  0  0
  198.4640  175.2470  137.1500 N   0  0  0  0  0  1  0  0  0  0  0  0
  197.3980  174.5590  136.4440 C   0  0  0  0  0  2  0  0  0  0  0  0
  189.3640  177.4100  140.3370 C   0  0  1  0  0  3  0  0  0  0  0  0
  188.1910  177.8940  139.4580 C   0  0  1  0  0  3  0  0  0  0  0  0
  187.1050  178.3040  140.2320 O   0  0  0  0  0  1  0  0  0  0  0  0
  188.5880  178.9880  138.4790 C   0  0  0  0  0  1  0  0  0  0  0  0
  189.3410  175.5390  141.9300 O   0  0  0  0  0  1  0  0  0  0  0  0
  188.7530  176.7610  141.5940 C   0  0  1  0  0  3  0  0  0  0  0  0
  188.7570  177.7520  142.7810 C   0  0  1  0  0  3  0  0  0  0  0  0
  189.3360  179.0020  142.4570 O   0  0  0  0  0  0  0  0  0  0  0  0
  190.6590  179.0210  142.9320 C   0  0  0  0  0  1  0  0  0  0  0  0
  187.4740  177.8320  143.6520 C   0  0  1  0  0  3  0  0  0  0  0  0
  187.1350  176.4910  145.8140 C   0  0  0  0  0  1  0  0  0  0  0  0
  187.7520  177.7160  145.1590 C   0  0  1  0  0  3  0  0  0  0  0  0
  189.1960  178.0110  145.5940 C   0  0  0  0  0  2  0  0  0  0  0  0
  189.6930  177.1180  146.7310 C   0  0  2  0  0  3  0  0  0  0  0  0
  189.4540  177.8430  148.0500 C   0  0  0  0  0  1  0  0  0  0  0  0
  191.6090  175.6390  147.4270 C   0  0  0  0  0  1  0  0  0  0  0  0
  191.4660  176.4250  145.1040 C   0  0  0  0  0  1  0  0  0  0  0  0
  191.1800  176.8010  146.5460 C   0  0  0  0  0  3  0  0  0  0  0  0
  186.6740  179.1110  143.4180 C   0  0  0  0  0  2  0  0  0  0  0  0
  184.0430  178.2500  141.9930 C   0  0  0  0  0  1  0  0  0  0  0  0
  185.3130  179.0110  144.0220 C   0  0  0  0  0  0  0  0  0  0  0  0
  184.1920  178.6340  143.3870 N   0  0  0  0  0  0  0  0  0  0  0  0
  183.2050  178.6420  144.2650 N   0  0  0  0  0  0  0  0  0  0  0  0
  184.9860  179.2440  145.3430 C   0  0  0  0  0  3  0  0  0  0  0  0
  183.6600  179.0100  145.4540 N   0  0  0  0  0  0  0  0  0  0  0  0
  1  2  1  0  0  0  0
  3 28  1  0  0  0  0
  3  2  1  0  0  0  0
  4  1  1  0  0  0  0
  5  4  1  1  0  0  0
  5  3  1  0  0  0  0
  6  9  2  0  0  0  0
  7  8  1  0  0  0  0
  7 13  1  0  0  0  0
  8 11  1  6  0  0  0
  8 12  1  0  0  0  0
 10 14  1  6  0  0  0
 12 10  1  0  0  0  0
 12  5  1  1  0  0  0
 13  6  1  0  0  0  0
 13 10  1  0  0  0  0
 15 14  1  0  0  0  0
 16 15  2  0  0  0  0
 17 15  1  0  0  0  0
 18 19  1  1  0  0  0
 20 21  1  0  0  0  0
 20 18  1  0  0  0  0
 20 22  1  1  0  0  0
 21 17  1  6  0  0  0
 21 18  1  0  0  0  0
 23 27  1  0  0  0  0
 23 25  1  0  0  0  0
 24 25  2  0  0  0  0
 25 18  1  0  0  0  0
 27 26  1  0  0  0  0
 28 29  1  6  0  0  0
 28 33  1  0  0  0  0
 29 31  1  1  0  0  0
 29 30  1  0  0  0  0
 33 32  1  1  0  0  0
 33 34  1  0  0  0  0
 34 35  1  6  0  0  0
 34 37  1  0  0  0  0
 35 36  1  0  0  0  0
 37 46  1  1  0  0  0
 37 39  1  0  0  0  0
 39 40  1  0  0  0  0
 39 38  1  6  0  0  0
 40 41  1  0  0  0  0
 41 42  1  1  0  0  0
 44 45  1  0  0  0  0
 45 41  1  0  0  0  0
 45 43  1  0  0  0  0
 46 48  1  0  0  0  0
 47 49  1  0  0  0  0
 48 51  2  0  0  0  0
 49 48  1  0  0  0  0
 49 50  1  0  0  0  0
 50 52  2  0  0  0  0
 51 52  1  0  0  0  0
M  END
>  <MODEL>
8

>  <REMARK>
 VINA RESULT:      -3.7      3.660      7.849
  Name = 
  19 active torsions:
  status: ('A' for Active; 'I' for Inactive)
    1  A    between atoms: C_3  and  C_48
    2  A    between atoms: C_4  and  C_7
    3  A    between atoms: C_4  and  C_33
    4  A    between atoms: C_4  and  N_43
    5  A    between atoms: C_5  and  C_15
    6  A    between atoms: C_5  and  C_25
    7  A    between atoms: C_8  and  C_28
    8  A    between atoms: C_8  and  C_45
    9  A    between atoms: O_12  and  C_17
   10  A    between atoms: C_15  and  C_17
   11  A    between atoms: C_15  and  C_45
   12  A    between atoms: C_17  and  C_33
   13  A    between atoms: C_18  and  C_30
   14  A    between atoms: C_18  and  C_38
   15  A    between atoms: C_23  and  C_38
   16  A    between atoms: C_28  and  C_47
   17  A    between atoms: C_29  and  C_30
   18  A    between atoms: N_31  and  C_36
   19  A    between atoms: C_40  and  C_51
                            x       y       z     vdW  Elec       q    Type
                         _______ _______ _______ _____ _____    ______ ____

>  <TORSDO>
F 19

$$$$
=
 OpenBabel11062413483D

 52 55  0  0  1  0  0  0  0  0999 V2000
  187.8690  179.1410  136.1880 C   0  0  0  0  0  2  0  0  0  0  0  0
  186.9160  178.9510  137.2040 O   0  0  0  0  0  0  0  0  0  0  0  0
  186.9730  177.6330  137.5790 N   0  0  0  0  0  0  0  0  0  0  0  0
  188.9970  178.1970  136.4470 C   0  0  0  0  0  2  0  0  0  0  0  0
  188.3020  177.1280  137.2300 C   0  0  1  0  0  3  0  0  0  0  0  0
  192.6790  177.2850  139.2660 C   0  0  0  0  0  3  0  0  0  0  0  0
  190.4170  177.8290  140.1800 C   0  0  0  0  0  2  0  0  0  0  0  0
  189.0130  177.7480  139.6130 C   0  0  2  0  0  3  0  0  0  0  0  0
  193.3980  176.8260  138.3400 O   0  0  0  0  0  0  0  0  0  0  0  0
  190.5260  176.4320  138.1970 C   0  0  1  0  0  3  0  0  0  0  0  0
  188.1270  177.3290  140.6040 O   0  0  0  0  0  1  0  0  0  0  0  0
  189.0630  176.7120  138.4920 C   0  0  2  0  0  3  0  0  0  0  0  0
  191.2610  177.1050  139.2540 N   0  0  0  0  0  0  0  0  0  0  0  0
  190.7420  174.9230  138.2720 C   0  0  0  0  0  2  0  0  0  0  0  0
  191.3480  174.4040  137.0100 C   0  0  0  0  0  0  0  0  0  0  0  0
  190.8980  174.7490  135.9280 O   0  0  0  0  0  0  0  0  0  0  0  0
  192.5010  173.4590  137.0790 C   0  0  0  0  0  2  0  0  0  0  0  0
  194.8640  173.1710  136.1030 C   0  0  1  0  0  0  0  0  0  0  0  0
  195.5700  172.8590  134.9560 F   0  0  0  0  0  0  0  0  0  0  0  0
  194.5090  174.6400  136.2660 C   0  0  2  0  0  3  0  0  0  0  0  0
  193.4240  173.6420  135.8800 C   0  0  2  0  0  3  0  0  0  0  0  0
  194.8930  175.3660  135.1370 O   0  0  0  0  0  1  0  0  0  0  0  0
  196.1900  172.9930  138.2860 N   0  0  0  0  0  2  0  0  0  0  0  0
  194.8670  171.2180  137.5210 N   0  0  0  0  0  2  0  0  0  0  0  0
  195.2350  172.4460  137.3700 C   0  0  0  0  0  0  0  0  0  0  0  0
  197.0250  174.9060  139.4150 N   0  0  0  0  0  1  0  0  0  0  0  0
  196.8050  174.3010  138.1150 C   0  0  0  0  0  2  0  0  0  0  0  0
  185.9130  176.8950  136.8520 C   0  0  1  0  0  3  0  0  0  0  0  0
  186.3470  175.4860  136.3930 C   0  0  1  0  0  3  0  0  0  0  0  0
  186.0100  174.5130  137.3340 O   0  0  0  0  0  1  0  0  0  0  0  0
  185.8060  175.1090  135.0230 C   0  0  0  0  0  1  0  0  0  0  0  0
  184.7160  177.3400  138.9520 O   0  0  0  0  0  1  0  0  0  0  0  0
  184.6370  176.7240  137.7000 C   0  0  1  0  0  3  0  0  0  0  0  0
  183.3880  177.1750  136.9090 C   0  0  1  0  0  3  0  0  0  0  0  0
  183.4400  176.8170  135.5410 O   0  0  0  0  0  0  0  0  0  0  0  0
  182.9280  177.8800  134.7770 C   0  0  0  0  0  1  0  0  0  0  0  0
  182.0040  176.9820  137.5840 C   0  0  1  0  0  3  0  0  0  0  0  0
  180.6810  175.2540  138.9450 C   0  0  0  0  0  1  0  0  0  0  0  0
  181.6180  175.5070  137.7740 C   0  0  1  0  0  3  0  0  0  0  0  0
  181.2540  174.7430  136.4920 C   0  0  0  0  0  2  0  0  0  0  0  0
  182.3020  173.7170  136.0650 C   0  0  2  0  0  3  0  0  0  0  0  0
  182.0680  173.3710  134.6000 C   0  0  0  0  0  1  0  0  0  0  0  0
  180.7860  171.9260  136.9800 C   0  0  0  0  0  1  0  0  0  0  0  0
  183.1070  171.3680  136.4000 C   0  0  0  0  0  1  0  0  0  0  0  0
  182.2070  172.4630  136.9410 C   0  0  0  0  0  3  0  0  0  0  0  0
  181.9030  177.6730  138.9430 C   0  0  0  0  0  2  0  0  0  0  0  0
  179.0620  178.6750  139.7290 C   0  0  0  0  0  1  0  0  0  0  0  0
  181.3650  179.0580  138.8020 C   0  0  0  0  0  0  0  0  0  0  0  0
  180.1350  179.4680  139.1510 N   0  0  0  0  0  0  0  0  0  0  0  0
  180.0510  180.7620  138.9020 N   0  0  0  0  0  0  0  0  0  0  0  0
  182.0530  180.1580  138.3330 C   0  0  0  0  0  3  0  0  0  0  0  0
  181.1980  181.2020  138.4040 N   0  0  0  0  0  0  0  0  0  0  0  0
  1  4  1  0  0  0  0
  1  2  1  0  0  0  0
  2  3  1  0  0  0  0
  5  4  1  1  0  0  0
  5  3  1  0  0  0  0
  8  7  1  0  0  0  0
  8 11  1  1  0  0  0
  9  6  2  0  0  0  0
 10 14  1  1  0  0  0
 10 12  1  0  0  0  0
 10 13  1  0  0  0  0
 12  5  1  6  0  0  0
 12  8  1  0  0  0  0
 13  6  1  0  0  0  0
 13  7  1  0  0  0  0
 15 17  1  0  0  0  0
 15 14  1  0  0  0  0
 16 15  2  0  0  0  0
 18 19  1  6  0  0  0
 18 20  1  0  0  0  0
 18 25  1  0  0  0  0
 20 22  1  6  0  0  0
 21 18  1  0  0  0  0
 21 20  1  0  0  0  0
 21 17  1  1  0  0  0
 25 24  2  0  0  0  0
 25 23  1  0  0  0  0
 27 23  1  0  0  0  0
 27 26  1  0  0  0  0
 28 29  1  1  0  0  0
 28  3  1  0  0  0  0
 28 33  1  0  0  0  0
 29 31  1  6  0  0  0
 29 30  1  0  0  0  0
 33 32  1  1  0  0  0
 34 35  1  6  0  0  0
 34 37  1  0  0  0  0
 34 33  1  0  0  0  0
 36 35  1  0  0  0  0
 37 39  1  0  0  0  0
 37 46  1  1  0  0  0
 39 38  1  1  0  0  0
 40 39  1  0  0  0  0
 41 42  1  6  0  0  0
 41 40  1  0  0  0  0
 41 45  1  0  0  0  0
 44 45  1  0  0  0  0
 45 43  1  0  0  0  0
 48 46  1  0  0  0  0
 48 49  1  0  0  0  0
 49 47  1  0  0  0  0
 50 49  1  0  0  0  0
 51 52  1  0  0  0  0
 51 48  2  0  0  0  0
 52 50  2  0  0  0  0
M  END
>  <MODEL>
9

>  <REMARK>
 VINA RESULT:      -3.2      5.033     10.524
  Name = 
  19 active torsions:
  status: ('A' for Active; 'I' for Inactive)
    1  A    between atoms: C_3  and  C_48
    2  A    between atoms: C_4  and  C_7
    3  A    between atoms: C_4  and  C_33
    4  A    between atoms: C_4  and  N_43
    5  A    between atoms: C_5  and  C_15
    6  A    between atoms: C_5  and  C_25
    7  A    between atoms: C_8  and  C_28
    8  A    between atoms: C_8  and  C_45
    9  A    between atoms: O_12  and  C_17
   10  A    between atoms: C_15  and  C_17
   11  A    between atoms: C_15  and  C_45
   12  A    between atoms: C_17  and  C_33
   13  A    between atoms: C_18  and  C_30
   14  A    between atoms: C_18  and  C_38
   15  A    between atoms: C_23  and  C_38
   16  A    between atoms: C_28  and  C_47
   17  A    between atoms: C_29  and  C_30
   18  A    between atoms: N_31  and  C_36
   19  A    between atoms: C_40  and  C_51
                            x       y       z     vdW  Elec       q    Type
                         _______ _______ _______ _____ _____    ______ ____

>  <TORSDO>
F 19

$$$$
