=
 OpenBabel11062415483D

 44 48  0  0  1  0  0  0  0  0999 V2000
  183.9540  178.4190  138.5420 C   0  0  1  0  0  3  0  0  0  0  0  0
  183.0400  176.7980  140.0690 O   0  0  0  0  0  0  0  0  0  0  0  0
  183.5840  177.9250  139.9140 C   0  0  0  0  0  0  0  0  0  0  0  0
  183.8860  178.7440  141.0490 N   0  0  0  0  0  2  0  0  0  0  0  0
  183.6420  178.3120  142.4220 C   0  0  2  0  0  3  0  0  0  0  0  0
  182.3820  178.9700  142.9570 C   0  0  0  0  0  1  0  0  0  0  0  0
  184.8420  178.6010  143.3230 C   0  0  0  0  0  2  0  0  0  0  0  0
  184.4470  178.8940  144.7560 C   0  0  0  0  0  2  0  0  0  0  0  0
  185.4520  178.3010  146.9300 C   0  0  0  0  0  2  0  0  0  0  0  0
  185.6760  179.0400  145.6270 C   0  0  1  0  0  3  0  0  0  0  0  0
  186.2910  177.6730  145.8420 C   0  0  1  0  0  3  0  0  0  0  0  0
  187.7600  177.8480  146.1730 C   0  0  0  0  0  2  0  0  0  0  0  0
  190.0070  177.5480  145.0470 C   0  0  2  0  0  0  0  0  0  0  0  0
  190.6180  176.8490  146.5720 Cl  0  0  0  0  0  0  0  0  0  0  0  0
  188.5630  178.0190  144.8960 C   0  0  1  0  0  3  0  0  0  0  0  0
  188.9920  176.6500  144.3770 C   0  0  1  0  0  3  0  0  0  0  0  0
  191.2280  178.1790  143.8560 S   0  0  0  0  0  0  0  0  0  0  0  0
  189.2120  176.6640  142.8670 C   0  0  0  0  0  2  0  0  0  0  0  0
  190.1570  177.7760  142.4540 C   0  0  0  0  0  2  0  0  0  0  0  0
  185.0800  177.5500  137.9910 C   0  0  0  0  0  2  0  0  0  0  0  0
  187.5020  177.9070  138.7020 C   0  0  2  0  0  3  0  0  0  0  0  0
  187.3860  178.6100  139.8980 O   0  0  0  0  0  1  0  0  0  0  0  0
  186.9440  178.1270  136.3520 C   0  0  0  0  0  2  0  0  0  0  0  0
  188.7540  178.3410  137.9660 C   0  0  2  0  0  3  0  0  0  0  0  0
  186.3900  178.3010  137.7550 C   0  0  1  0  0  3  0  0  0  0  0  0
  188.4560  178.2550  136.4720 C   0  0  0  0  0  2  0  0  0  0  0  0
  189.9240  177.6710  138.3730 O   0  0  0  0  0  0  0  0  0  0  0  0
  189.7520  176.2860  138.2260 C   0  0  0  0  0  1  0  0  0  0  0  0
  182.8180  178.3640  137.6300 N   0  0  0  0  0  2  0  0  0  0  0  0
  180.5520  179.0050  138.0410 C   0  0  1  0  0  3  0  0  0  0  0  0
  181.9710  179.4500  137.9220 N   0  0  0  0  0  0  0  0  0  0  0  0
  181.0370  179.5870  136.7920 C   0  0  2  0  0  3  0  0  0  0  0  0
  180.5760  181.0400  136.6020 C   0  0  2  0  0  3  0  0  0  0  0  0
  180.9190  181.4670  135.3190 O   0  0  0  0  0  1  0  0  0  0  0  0
  181.0920  182.0440  137.6360 C   0  0  0  0  0  2  0  0  0  0  0  0
  180.3800  183.3830  137.5090 C   0  0  0  0  0  2  0  0  0  0  0  0
  182.4960  184.7010  137.6690 O   0  0  0  0  0  1  0  0  0  0  0  0
  181.0420  185.0430  135.9260 O   0  0  0  0  0  0  0  0  0  0  0  0
  181.3090  184.4320  136.9930 C   0  0  0  0  0  0  0  0  0  0  0  0
  180.3300  177.5050  137.8520 C   0  0  0  0  0  2  0  0  0  0  0  0
  179.9070  175.5470  139.3710 C   0  0  0  0  0  0  0  0  0  0  0  0
  179.4590  175.1020  140.4610 O   0  0  0  0  0  0  0  0  0  0  0  0
  180.5410  174.6570  138.4560 N   0  0  0  0  0  1  0  0  0  0  0  0
  179.7820  176.9350  139.0710 N   0  0  0  0  0  2  0  0  0  0  0  0
  1 20  1  6  0  0  0
  1  3  1  0  0  0  0
  3  2  2  0  0  0  0
  3  4  1  0  0  0  0
  4  5  1  0  0  0  0
  5  6  1  1  0  0  0
  5  7  1  0  0  0  0
  7  8  1  0  0  0  0
 10  8  1  6  0  0  0
 10 11  1  0  0  0  0
 10  9  1  0  0  0  0
 11 12  1  1  0  0  0
 11  9  1  0  0  0  0
 13 14  1  1  0  0  0
 15 13  1  0  0  0  0
 15 12  1  1  0  0  0
 16 18  1  6  0  0  0
 16 15  1  0  0  0  0
 16 13  1  0  0  0  0
 17 13  1  0  0  0  0
 19 18  1  0  0  0  0
 19 17  1  0  0  0  0
 21 22  1  1  0  0  0
 23 26  1  0  0  0  0
 23 25  1  0  0  0  0
 24 27  1  6  0  0  0
 24 21  1  0  0  0  0
 25 20  1  6  0  0  0
 25 21  1  0  0  0  0
 26 24  1  0  0  0  0
 28 27  1  0  0  0  0
 29 31  1  0  0  0  0
 29  1  1  0  0  0  0
 30 40  1  6  0  0  0
 31 30  1  0  0  0  0
 32 33  1  1  0  0  0
 32 31  1  0  0  0  0
 32 30  1  0  0  0  0
 33 34  1  6  0  0  0
 33 35  1  0  0  0  0
 36 35  1  0  0  0  0
 38 39  2  0  0  0  0
 39 36  1  0  0  0  0
 39 37  1  0  0  0  0
 40 44  1  0  0  0  0
 41 42  2  0  0  0  0
 43 41  1  0  0  0  0
 44 41  1  0  0  0  0
M  END
>  <MODEL>
1

>  <REMARK>
 VINA RESULT:      -7.8      0.000      0.000
  Name = 
  18 active torsions:
  status: ('A' for Active; 'I' for Inactive)
    1  A    between atoms: C_1  and  C_4
    2  A    between atoms: C_1  and  N_20
    3  A    between atoms: C_1  and  C_34
    4  A    between atoms: C_3  and  C_16
    5  A    between atoms: C_4  and  C_43
    6  A    between atoms: C_6  and  C_15
    7  A    between atoms: C_6  and  N_40
    8  A    between atoms: C_7  and  C_8
    9  A    between atoms: C_7  and  C_12
   10  A    between atoms: C_8  and  C_35
   11  A    between atoms: C_11  and  C_15
   12  A    between atoms: C_11  and  C_32
   13  A    between atoms: C_12  and  C_28
   14  A    between atoms: C_16  and  N_27
   15  A    between atoms: N_19  and  N_20
   16  A    between atoms: O_22  and  C_37
   17  A    between atoms: C_24  and  C_36
   18  A    between atoms: C_36  and  C_38
                            x       y       z     vdW  Elec       q    Type
                         _______ _______ _______ _____ _____    ______ ____

>  <TORSDO>
F 18

$$$$
=
 OpenBabel11062415483D

 44 48  0  0  1  0  0  0  0  0999 V2000
  182.6920  178.3820  139.3950 C   0  0  1  0  0  3  0  0  0  0  0  0
  184.6180  179.8200  139.5270 O   0  0  0  0  0  0  0  0  0  0  0  0
  183.8590  179.0020  140.1140 C   0  0  0  0  0  0  0  0  0  0  0  0
  184.0790  178.6700  141.4890 N   0  0  0  0  0  2  0  0  0  0  0  0
  185.1330  179.2860  142.2910 C   0  0  2  0  0  3  0  0  0  0  0  0
  186.3290  178.3540  142.3800 C   0  0  0  0  0  1  0  0  0  0  0  0
  184.6270  179.6710  143.6810 C   0  0  0  0  0  2  0  0  0  0  0  0
  184.8020  178.5630  144.7000 C   0  0  0  0  0  2  0  0  0  0  0  0
  185.6670  178.4500  147.0080 C   0  0  0  0  0  2  0  0  0  0  0  0
  186.0000  178.8380  145.5830 C   0  0  1  0  0  3  0  0  0  0  0  0
  186.5040  177.5290  146.1510 C   0  0  1  0  0  3  0  0  0  0  0  0
  187.9660  177.6890  146.5180 C   0  0  0  0  0  2  0  0  0  0  0  0
  190.2320  177.4920  145.4070 C   0  0  2  0  0  0  0  0  0  0  0  0
  190.8250  176.6790  146.8800 Cl  0  0  0  0  0  0  0  0  0  0  0  0
  188.7860  177.9660  145.2710 C   0  0  1  0  0  3  0  0  0  0  0  0
  189.2330  176.6440  144.6520 C   0  0  1  0  0  3  0  0  0  0  0  0
  191.4660  178.2230  144.2870 S   0  0  0  0  0  0  0  0  0  0  0  0
  189.4750  176.7790  143.1510 C   0  0  0  0  0  2  0  0  0  0  0  0
  190.4180  177.9250  142.8420 C   0  0  0  0  0  2  0  0  0  0  0  0
  182.2600  179.3090  138.2630 C   0  0  0  0  0  2  0  0  0  0  0  0
  181.5690  181.7470  137.9850 C   0  0  2  0  0  3  0  0  0  0  0  0
  182.6020  182.4470  138.6000 O   0  0  0  0  0  1  0  0  0  0  0  0
  179.8550  180.1130  138.5110 C   0  0  0  0  0  2  0  0  0  0  0  0
  180.2590  182.4890  138.1680 C   0  0  2  0  0  3  0  0  0  0  0  0
  181.3260  180.4370  138.7010 C   0  0  1  0  0  3  0  0  0  0  0  0
  179.1540  181.4420  138.2700 C   0  0  0  0  0  2  0  0  0  0  0  0
  180.0290  183.4980  137.2120 O   0  0  0  0  0  0  0  0  0  0  0  0
  180.2940  183.0010  135.9270 C   0  0  0  0  0  1  0  0  0  0  0  0
  183.0380  177.0790  138.8400 N   0  0  0  0  0  2  0  0  0  0  0  0
  183.6270  175.9660  136.8090 C   0  0  1  0  0  3  0  0  0  0  0  0
  183.4770  177.2700  137.5160 N   0  0  0  0  0  0  0  0  0  0  0  0
  184.7920  176.6200  137.3970 C   0  0  2  0  0  3  0  0  0  0  0  0
  185.6770  177.3050  136.3440 C   0  0  2  0  0  3  0  0  0  0  0  0
  186.1480  176.3470  135.4460 O   0  0  0  0  0  1  0  0  0  0  0  0
  186.8520  178.1220  136.8900 C   0  0  0  0  0  2  0  0  0  0  0  0
  187.0900  177.8290  138.3640 C   0  0  0  0  0  2  0  0  0  0  0  0
  189.2620  177.2470  139.4520 O   0  0  0  0  0  1  0  0  0  0  0  0
  188.9860  179.2780  138.4170 O   0  0  0  0  0  0  0  0  0  0  0  0
  188.4890  178.1710  138.7540 C   0  0  0  0  0  0  0  0  0  0  0  0
  183.2590  174.7380  137.6390 C   0  0  0  0  0  2  0  0  0  0  0  0
  184.5590  172.6710  137.0400 C   0  0  0  0  0  0  0  0  0  0  0  0
  184.6570  171.6150  136.3610 O   0  0  0  0  0  0  0  0  0  0  0  0
  185.5610  172.9820  138.0050 N   0  0  0  0  0  1  0  0  0  0  0  0
  183.4440  173.5370  136.8420 N   0  0  0  0  0  2  0  0  0  0  0  0
  1 20  1  6  0  0  0
  1  3  1  0  0  0  0
  2  3  2  0  0  0  0
  3  4  1  0  0  0  0
  4  5  1  0  0  0  0
  5  6  1  1  0  0  0
  5  7  1  0  0  0  0
  7  8  1  0  0  0  0
 10  8  1  6  0  0  0
 10 11  1  0  0  0  0
 10  9  1  0  0  0  0
 11 12  1  1  0  0  0
 11  9  1  0  0  0  0
 13 14  1  1  0  0  0
 15 13  1  0  0  0  0
 15 12  1  1  0  0  0
 16 18  1  6  0  0  0
 16 15  1  0  0  0  0
 16 13  1  0  0  0  0
 17 13  1  0  0  0  0
 19 18  1  0  0  0  0
 19 17  1  0  0  0  0
 21 24  1  0  0  0  0
 21 22  1  1  0  0  0
 21 25  1  0  0  0  0
 23 25  1  0  0  0  0
 24 27  1  6  0  0  0
 24 26  1  0  0  0  0
 25 20  1  6  0  0  0
 26 23  1  0  0  0  0
 28 27  1  0  0  0  0
 29  1  1  0  0  0  0
 30 32  1  0  0  0  0
 30 31  1  0  0  0  0
 30 40  1  1  0  0  0
 31 29  1  0  0  0  0
 32 33  1  6  0  0  0
 32 31  1  0  0  0  0
 33 34  1  6  0  0  0
 33 35  1  0  0  0  0
 35 36  1  0  0  0  0
 36 39  1  0  0  0  0
 38 39  2  0  0  0  0
 39 37  1  0  0  0  0
 41 43  1  0  0  0  0
 42 41  2  0  0  0  0
 44 41  1  0  0  0  0
 44 40  1  0  0  0  0
M  END
>  <MODEL>
2

>  <REMARK>
 VINA RESULT:      -7.7      2.204      5.704
  Name = 
  18 active torsions:
  status: ('A' for Active; 'I' for Inactive)
    1  A    between atoms: C_1  and  C_4
    2  A    between atoms: C_1  and  N_20
    3  A    between atoms: C_1  and  C_34
    4  A    between atoms: C_3  and  C_16
    5  A    between atoms: C_4  and  C_43
    6  A    between atoms: C_6  and  C_15
    7  A    between atoms: C_6  and  N_40
    8  A    between atoms: C_7  and  C_8
    9  A    between atoms: C_7  and  C_12
   10  A    between atoms: C_8  and  C_35
   11  A    between atoms: C_11  and  C_15
   12  A    between atoms: C_11  and  C_32
   13  A    between atoms: C_12  and  C_28
   14  A    between atoms: C_16  and  N_27
   15  A    between atoms: N_19  and  N_20
   16  A    between atoms: O_22  and  C_37
   17  A    between atoms: C_24  and  C_36
   18  A    between atoms: C_36  and  C_38
                            x       y       z     vdW  Elec       q    Type
                         _______ _______ _______ _____ _____    ______ ____

>  <TORSDO>
F 18

$$$$
=
 OpenBabel11062415483D

 44 48  0  0  1  0  0  0  0  0999 V2000
  184.5360  179.2010  139.5340 C   0  0  1  0  0  3  0  0  0  0  0  0
  183.5800  177.3450  140.7320 O   0  0  0  0  0  0  0  0  0  0  0  0
  184.1200  178.4840  140.7890 C   0  0  0  0  0  0  0  0  0  0  0  0
  184.3710  179.1020  142.0550 N   0  0  0  0  0  2  0  0  0  0  0  0
  184.0800  178.4450  143.3270 C   0  0  2  0  0  3  0  0  0  0  0  0
  183.2200  179.3490  144.1930 C   0  0  0  0  0  1  0  0  0  0  0  0
  185.3610  178.0370  144.0530 C   0  0  0  0  0  2  0  0  0  0  0  0
  185.3100  178.3200  145.5420 C   0  0  0  0  0  2  0  0  0  0  0  0
  186.6990  178.5060  147.5720 C   0  0  0  0  0  2  0  0  0  0  0  0
  186.6890  178.6570  146.0650 C   0  0  1  0  0  3  0  0  0  0  0  0
  187.2890  177.4220  146.7010 C   0  0  1  0  0  3  0  0  0  0  0  0
  188.7990  177.5530  146.6870 C   0  0  0  0  0  2  0  0  0  0  0  0
  190.6610  177.4140  144.9780 C   0  0  2  0  0  0  0  0  0  0  0  0
  191.5690  176.3940  146.1270 Cl  0  0  0  0  0  0  0  0  0  0  0  0
  189.2710  177.9570  145.3020 C   0  0  1  0  0  3  0  0  0  0  0  0
  189.4380  176.7110  144.4360 C   0  0  1  0  0  3  0  0  0  0  0  0
  191.5980  178.2360  143.6520 S   0  0  0  0  0  0  0  0  0  0  0  0
  189.2750  177.0300  142.9530 C   0  0  0  0  0  2  0  0  0  0  0  0
  190.1810  178.1700  142.5290 C   0  0  0  0  0  2  0  0  0  0  0  0
  184.7740  178.1740  138.4320 C   0  0  0  0  0  2  0  0  0  0  0  0
  187.2700  177.6690  138.5470 C   0  0  2  0  0  3  0  0  0  0  0  0
  187.7370  178.5690  139.5010 O   0  0  0  0  0  1  0  0  0  0  0  0
  186.1860  177.6520  136.3770 C   0  0  0  0  0  2  0  0  0  0  0  0
  188.3360  177.4280  137.4970 C   0  0  2  0  0  3  0  0  0  0  0  0
  186.1390  178.2870  137.7550 C   0  0  1  0  0  3  0  0  0  0  0  0
  187.6220  177.1920  136.1690 C   0  0  0  0  0  2  0  0  0  0  0  0
  189.2760  176.4380  137.8460 O   0  0  0  0  0  0  0  0  0  0  0  0
  190.5380  177.0240  138.0210 C   0  0  0  0  0  1  0  0  0  0  0  0
  183.5160  180.1460  139.0950 N   0  0  0  0  0  2  0  0  0  0  0  0
  181.3920  180.3200  138.0140 C   0  0  1  0  0  3  0  0  0  0  0  0
  182.4450  179.4120  138.5540 N   0  0  0  0  0  0  0  0  0  0  0  0
  181.2490  179.7400  139.3470 C   0  0  2  0  0  3  0  0  0  0  0  0
  180.2440  178.5780  139.3790 C   0  0  2  0  0  3  0  0  0  0  0  0
  180.2770  177.9760  140.6370 O   0  0  0  0  0  1  0  0  0  0  0  0
  180.4200  177.5150  138.2920 C   0  0  0  0  0  2  0  0  0  0  0  0
  179.4490  176.3590  138.4880 C   0  0  0  0  0  2  0  0  0  0  0  0
  179.7960  173.9310  138.9630 O   0  0  0  0  0  1  0  0  0  0  0  0
  180.9290  174.9550  137.2490 O   0  0  0  0  0  0  0  0  0  0  0  0
  180.1140  175.0530  138.2020 C   0  0  0  0  0  0  0  0  0  0  0  0
  181.7030  181.8110  138.1370 C   0  0  0  0  0  2  0  0  0  0  0  0
  181.2590  183.9190  136.8420 C   0  0  0  0  0  0  0  0  0  0  0  0
  180.6450  184.5070  135.9120 O   0  0  0  0  0  0  0  0  0  0  0  0
  182.2280  184.6320  137.6060 N   0  0  0  0  0  1  0  0  0  0  0  0
  180.9830  182.5460  137.1120 N   0  0  0  0  0  2  0  0  0  0  0  0
  1 20  1  6  0  0  0
  1  3  1  0  0  0  0
  2  3  2  0  0  0  0
  3  4  1  0  0  0  0
  4  5  1  0  0  0  0
  5  7  1  0  0  0  0
  5  6  1  1  0  0  0
  7  8  1  0  0  0  0
 10  8  1  6  0  0  0
 10 11  1  0  0  0  0
 10  9  1  0  0  0  0
 11 12  1  1  0  0  0
 11  9  1  0  0  0  0
 13 15  1  0  0  0  0
 13 14  1  1  0  0  0
 15 12  1  1  0  0  0
 16 18  1  6  0  0  0
 16 13  1  0  0  0  0
 16 15  1  0  0  0  0
 17 13  1  0  0  0  0
 19 18  1  0  0  0  0
 19 17  1  0  0  0  0
 21 22  1  1  0  0  0
 23 25  1  0  0  0  0
 24 27  1  1  0  0  0
 24 21  1  0  0  0  0
 25 20  1  1  0  0  0
 25 21  1  0  0  0  0
 26 23  1  0  0  0  0
 26 24  1  0  0  0  0
 27 28  1  0  0  0  0
 29  1  1  0  0  0  0
 30 40  1  1  0  0  0
 30 31  1  0  0  0  0
 30 32  1  0  0  0  0
 31 29  1  0  0  0  0
 31 32  1  0  0  0  0
 32 33  1  6  0  0  0
 33 34  1  1  0  0  0
 35 36  1  0  0  0  0
 35 33  1  0  0  0  0
 38 39  2  0  0  0  0
 39 36  1  0  0  0  0
 39 37  1  0  0  0  0
 41 44  1  0  0  0  0
 41 43  1  0  0  0  0
 42 41  2  0  0  0  0
 44 40  1  0  0  0  0
M  END
>  <MODEL>
3

>  <REMARK>
 VINA RESULT:      -7.5      1.557      4.373
  Name = 
  18 active torsions:
  status: ('A' for Active; 'I' for Inactive)
    1  A    between atoms: C_1  and  C_4
    2  A    between atoms: C_1  and  N_20
    3  A    between atoms: C_1  and  C_34
    4  A    between atoms: C_3  and  C_16
    5  A    between atoms: C_4  and  C_43
    6  A    between atoms: C_6  and  C_15
    7  A    between atoms: C_6  and  N_40
    8  A    between atoms: C_7  and  C_8
    9  A    between atoms: C_7  and  C_12
   10  A    between atoms: C_8  and  C_35
   11  A    between atoms: C_11  and  C_15
   12  A    between atoms: C_11  and  C_32
   13  A    between atoms: C_12  and  C_28
   14  A    between atoms: C_16  and  N_27
   15  A    between atoms: N_19  and  N_20
   16  A    between atoms: O_22  and  C_37
   17  A    between atoms: C_24  and  C_36
   18  A    between atoms: C_36  and  C_38
                            x       y       z     vdW  Elec       q    Type
                         _______ _______ _______ _____ _____    ______ ____

>  <TORSDO>
F 18

$$$$
=
 OpenBabel11062415483D

 44 48  0  0  1  0  0  0  0  0999 V2000
  183.8950  178.0560  138.1000 C   0  0  1  0  0  3  0  0  0  0  0  0
  184.5530  180.1150  139.1580 O   0  0  0  0  0  0  0  0  0  0  0  0
  184.4010  178.8670  139.2610 C   0  0  0  0  0  0  0  0  0  0  0  0
  184.6820  178.2040  140.4980 N   0  0  0  0  0  2  0  0  0  0  0  0
  185.0940  178.9200  141.7020 C   0  0  2  0  0  3  0  0  0  0  0  0
  186.5960  179.1490  141.6810 C   0  0  0  0  0  1  0  0  0  0  0  0
  184.6650  178.1810  142.9690 C   0  0  0  0  0  2  0  0  0  0  0  0
  184.2370  179.1170  144.0810 C   0  0  0  0  0  2  0  0  0  0  0  0
  184.9110  178.4740  146.3660 C   0  0  0  0  0  2  0  0  0  0  0  0
  185.3270  179.2350  145.1240 C   0  0  1  0  0  3  0  0  0  0  0  0
  185.8960  177.8600  145.3990 C   0  0  1  0  0  3  0  0  0  0  0  0
  187.3020  178.0160  145.9440 C   0  0  0  0  0  2  0  0  0  0  0  0
  189.6350  177.4350  145.1510 C   0  0  2  0  0  0  0  0  0  0  0  0
  189.9260  176.6690  146.7360 Cl  0  0  0  0  0  0  0  0  0  0  0  0
  188.2970  178.0830  144.8000 C   0  0  1  0  0  3  0  0  0  0  0  0
  188.6260  176.6700  144.3260 C   0  0  1  0  0  3  0  0  0  0  0  0
  191.0850  177.9080  144.1590 S   0  0  0  0  0  0  0  0  0  0  0  0
  189.0630  176.6540  142.8640 C   0  0  0  0  0  2  0  0  0  0  0  0
  190.1880  177.6390  142.6110 C   0  0  0  0  0  2  0  0  0  0  0  0
  185.0060  177.1260  137.6240 C   0  0  0  0  0  2  0  0  0  0  0  0
  187.4910  177.6160  137.3390 C   0  0  2  0  0  3  0  0  0  0  0  0
  187.7570  178.5360  138.3490 O   0  0  0  0  0  1  0  0  0  0  0  0
  186.1250  177.3780  135.3490 C   0  0  0  0  0  2  0  0  0  0  0  0
  188.3690  177.9010  136.1350 C   0  0  2  0  0  3  0  0  0  0  0  0
  186.0920  177.8190  136.8010 C   0  0  1  0  0  3  0  0  0  0  0  0
  187.5680  177.5290  134.8900 C   0  0  0  0  0  2  0  0  0  0  0  0
  189.6510  177.3230  136.2070 O   0  0  0  0  0  0  0  0  0  0  0  0
  189.5450  175.9810  136.6020 C   0  0  0  0  0  1  0  0  0  0  0  0
  182.7310  177.2600  138.4710 N   0  0  0  0  0  2  0  0  0  0  0  0
  180.8510  176.1920  137.4530 C   0  0  1  0  0  3  0  0  0  0  0  0
  182.2870  176.5750  137.3240 N   0  0  0  0  0  0  0  0  0  0  0  0
  181.9000  175.2210  137.7510 C   0  0  2  0  0  3  0  0  0  0  0  0
  182.0840  174.1900  136.6270 C   0  0  2  0  0  3  0  0  0  0  0  0
  181.8100  172.9150  137.1220 O   0  0  0  0  0  1  0  0  0  0  0  0
  183.4510  174.1930  135.9370 C   0  0  0  0  0  2  0  0  0  0  0  0
  184.2480  172.9440  136.2850 C   0  0  0  0  0  2  0  0  0  0  0  0
  185.9830  172.8330  138.0780 O   0  0  0  0  0  1  0  0  0  0  0  0
  186.3850  173.9970  136.1400 O   0  0  0  0  0  0  0  0  0  0  0  0
  185.5910  173.3040  136.8280 C   0  0  0  0  0  0  0  0  0  0  0  0
  180.1810  176.6340  138.7530 C   0  0  0  0  0  2  0  0  0  0  0  0
  179.2970  175.5800  140.8570 C   0  0  0  0  0  0  0  0  0  0  0  0
  178.9320  174.5460  141.4770 O   0  0  0  0  0  0  0  0  0  0  0  0
  179.1950  176.8520  141.4910 N   0  0  0  0  0  1  0  0  0  0  0  0
  179.7990  175.4660  139.5270 N   0  0  0  0  0  2  0  0  0  0  0  0
  1 20  1  1  0  0  0
  1 29  1  0  0  0  0
  1  3  1  0  0  0  0
  2  3  2  0  0  0  0
  3  4  1  0  0  0  0
  4  5  1  0  0  0  0
  5  6  1  1  0  0  0
  5  7  1  0  0  0  0
  7  8  1  0  0  0  0
 10  8  1  6  0  0  0
 10 11  1  0  0  0  0
 10  9  1  0  0  0  0
 11 12  1  1  0  0  0
 11  9  1  0  0  0  0
 13 14  1  1  0  0  0
 15 13  1  0  0  0  0
 15 12  1  1  0  0  0
 16 18  1  6  0  0  0
 16 15  1  0  0  0  0
 16 13  1  0  0  0  0
 17 13  1  0  0  0  0
 19 18  1  0  0  0  0
 19 17  1  0  0  0  0
 21 22  1  1  0  0  0
 23 25  1  0  0  0  0
 24 27  1  1  0  0  0
 24 21  1  0  0  0  0
 25 21  1  0  0  0  0
 25 20  1  1  0  0  0
 26 23  1  0  0  0  0
 26 24  1  0  0  0  0
 27 28  1  0  0  0  0
 30 32  1  0  0  0  0
 30 40  1  1  0  0  0
 31 30  1  0  0  0  0
 31 32  1  0  0  0  0
 31 29  1  0  0  0  0
 32 33  1  6  0  0  0
 33 34  1  1  0  0  0
 35 36  1  0  0  0  0
 35 33  1  0  0  0  0
 36 39  1  0  0  0  0
 38 39  2  0  0  0  0
 39 37  1  0  0  0  0
 40 44  1  0  0  0  0
 41 42  2  0  0  0  0
 41 43  1  0  0  0  0
 44 41  1  0  0  0  0
M  END
>  <MODEL>
4

>  <REMARK>
 VINA RESULT:      -7.3      2.680      4.520
  Name = 
  18 active torsions:
  status: ('A' for Active; 'I' for Inactive)
    1  A    between atoms: C_1  and  C_4
    2  A    between atoms: C_1  and  N_20
    3  A    between atoms: C_1  and  C_34
    4  A    between atoms: C_3  and  C_16
    5  A    between atoms: C_4  and  C_43
    6  A    between atoms: C_6  and  C_15
    7  A    between atoms: C_6  and  N_40
    8  A    between atoms: C_7  and  C_8
    9  A    between atoms: C_7  and  C_12
   10  A    between atoms: C_8  and  C_35
   11  A    between atoms: C_11  and  C_15
   12  A    between atoms: C_11  and  C_32
   13  A    between atoms: C_12  and  C_28
   14  A    between atoms: C_16  and  N_27
   15  A    between atoms: N_19  and  N_20
   16  A    between atoms: O_22  and  C_37
   17  A    between atoms: C_24  and  C_36
   18  A    between atoms: C_36  and  C_38
                            x       y       z     vdW  Elec       q    Type
                         _______ _______ _______ _____ _____    ______ ____

>  <TORSDO>
F 18

$$$$
=
 OpenBabel11062415483D

 44 48  0  0  1  0  0  0  0  0999 V2000
  186.4130  178.9690  141.9980 C   0  0  1  0  0  3  0  0  0  0  0  0
  186.9860  176.8800  143.0490 O   0  0  0  0  0  0  0  0  0  0  0  0
  187.3720  178.0150  142.6570 C   0  0  0  0  0  0  0  0  0  0  0  0
  188.7410  178.4050  142.8070 N   0  0  0  0  0  2  0  0  0  0  0  0
  189.7600  177.5140  143.3560 C   0  0  2  0  0  3  0  0  0  0  0  0
  190.9040  178.3280  143.9360 C   0  0  0  0  0  1  0  0  0  0  0  0
  190.2630  176.5240  142.3060 C   0  0  0  0  0  2  0  0  0  0  0  0
  190.7450  177.2020  141.0390 C   0  0  0  0  0  2  0  0  0  0  0  0
  189.2930  178.1500  139.2850 C   0  0  0  0  0  2  0  0  0  0  0  0
  189.8340  176.8670  139.8780 C   0  0  1  0  0  3  0  0  0  0  0  0
  190.4320  177.4270  138.6060 C   0  0  1  0  0  3  0  0  0  0  0  0
  189.8970  176.6370  137.4280 C   0  0  0  0  0  2  0  0  0  0  0  0
  187.7490  176.9220  136.1190 C   0  0  2  0  0  0  0  0  0  0  0  0
  188.7380  177.2550  134.6710 Cl  0  0  0  0  0  0  0  0  0  0  0  0
  188.3800  176.6040  137.4730 C   0  0  1  0  0  3  0  0  0  0  0  0
  187.8670  175.4840  136.5700 C   0  0  1  0  0  3  0  0  0  0  0  0
  186.0160  177.4770  136.1070 S   0  0  0  0  0  0  0  0  0  0  0  0
  186.5030  174.9750  137.0260 C   0  0  0  0  0  2  0  0  0  0  0  0
  185.5100  176.1110  137.1800 C   0  0  0  0  0  2  0  0  0  0  0  0
  185.7850  178.2830  140.7890 C   0  0  0  0  0  2  0  0  0  0  0  0
  184.0350  179.1700  139.1620 C   0  0  2  0  0  3  0  0  0  0  0  0
  184.3240  180.5300  139.0870 O   0  0  0  0  0  1  0  0  0  0  0  0
  183.3620  177.4960  140.7820 C   0  0  0  0  0  2  0  0  0  0  0  0
  182.5430  178.9490  139.0090 C   0  0  2  0  0  3  0  0  0  0  0  0
  184.3200  178.6510  140.5530 C   0  0  1  0  0  3  0  0  0  0  0  0
  182.1720  177.7410  139.8650 C   0  0  0  0  0  2  0  0  0  0  0  0
  182.1040  178.8810  137.6720 O   0  0  0  0  0  0  0  0  0  0  0  0
  181.8940  177.5420  137.3100 C   0  0  0  0  0  1  0  0  0  0  0  0
  185.3580  179.3830  142.9150 N   0  0  0  0  0  2  0  0  0  0  0  0
  184.0170  178.4300  144.6490 C   0  0  1  0  0  3  0  0  0  0  0  0
  185.3650  178.5050  144.0150 N   0  0  0  0  0  0  0  0  0  0  0  0
  185.0440  179.3030  145.2090 C   0  0  2  0  0  3  0  0  0  0  0  0
  185.6840  178.7200  146.4790 C   0  0  2  0  0  3  0  0  0  0  0  0
  185.6780  179.6880  147.4830 O   0  0  0  0  0  1  0  0  0  0  0  0
  187.0980  178.1560  146.3140 C   0  0  0  0  0  2  0  0  0  0  0  0
  187.5880  177.5100  147.6010 C   0  0  0  0  0  2  0  0  0  0  0  0
  189.9030  176.8150  146.9710 O   0  0  0  0  0  0  0  0  0  0  0  0
  189.5680  178.5090  148.4840 O   0  0  0  0  0  1  0  0  0  0  0  0
  189.0700  177.6350  147.7270 C   0  0  0  0  0  0  0  0  0  0  0  0
  182.9400  179.2770  143.9730 C   0  0  0  0  0  2  0  0  0  0  0  0
  180.5420  178.9600  143.2880 C   0  0  0  0  0  0  0  0  0  0  0  0
  179.4490  178.3490  143.4300 O   0  0  0  0  0  0  0  0  0  0  0  0
  180.6640  179.9570  142.2770 N   0  0  0  0  0  1  0  0  0  0  0  0
  181.6450  178.6400  144.1340 N   0  0  0  0  0  2  0  0  0  0  0  0
  1 20  1  6  0  0  0
  1  3  1  0  0  0  0
  1 29  1  0  0  0  0
  3  4  1  0  0  0  0
  3  2  2  0  0  0  0
  4  5  1  0  0  0  0
  5  6  1  6  0  0  0
  7  5  1  0  0  0  0
  8  7  1  0  0  0  0
  9 10  1  0  0  0  0
 10  8  1  1  0  0  0
 11 12  1  6  0  0  0
 11  9  1  0  0  0  0
 11 10  1  0  0  0  0
 13 14  1  6  0  0  0
 13 16  1  0  0  0  0
 13 15  1  0  0  0  0
 15 12  1  6  0  0  0
 16 18  1  1  0  0  0
 16 15  1  0  0  0  0
 17 13  1  0  0  0  0
 17 19  1  0  0  0  0
 18 19  1  0  0  0  0
 21 22  1  1  0  0  0
 21 25  1  0  0  0  0
 24 27  1  6  0  0  0
 24 21  1  0  0  0  0
 24 26  1  0  0  0  0
 25 23  1  0  0  0  0
 25 20  1  6  0  0  0
 26 23  1  0  0  0  0
 28 27  1  0  0  0  0
 29 31  1  0  0  0  0
 30 40  1  6  0  0  0
 30 32  1  0  0  0  0
 31 30  1  0  0  0  0
 31 32  1  0  0  0  0
 32 33  1  1  0  0  0
 33 34  1  1  0  0  0
 35 33  1  0  0  0  0
 35 36  1  0  0  0  0
 36 39  1  0  0  0  0
 37 39  2  0  0  0  0
 39 38  1  0  0  0  0
 40 44  1  0  0  0  0
 41 42  2  0  0  0  0
 41 44  1  0  0  0  0
 43 41  1  0  0  0  0
M  END
>  <MODEL>
5

>  <REMARK>
 VINA RESULT:      -7.1      3.872      8.426
  Name = 
  18 active torsions:
  status: ('A' for Active; 'I' for Inactive)
    1  A    between atoms: C_1  and  C_4
    2  A    between atoms: C_1  and  N_20
    3  A    between atoms: C_1  and  C_34
    4  A    between atoms: C_3  and  C_16
    5  A    between atoms: C_4  and  C_43
    6  A    between atoms: C_6  and  C_15
    7  A    between atoms: C_6  and  N_40
    8  A    between atoms: C_7  and  C_8
    9  A    between atoms: C_7  and  C_12
   10  A    between atoms: C_8  and  C_35
   11  A    between atoms: C_11  and  C_15
   12  A    between atoms: C_11  and  C_32
   13  A    between atoms: C_12  and  C_28
   14  A    between atoms: C_16  and  N_27
   15  A    between atoms: N_19  and  N_20
   16  A    between atoms: O_22  and  C_37
   17  A    between atoms: C_24  and  C_36
   18  A    between atoms: C_36  and  C_38
                            x       y       z     vdW  Elec       q    Type
                         _______ _______ _______ _____ _____    ______ ____

>  <TORSDO>
F 18

$$$$
=
 OpenBabel11062415483D

 44 48  0  0  1  0  0  0  0  0999 V2000
  184.0700  177.9780  138.4300 C   0  0  1  0  0  3  0  0  0  0  0  0
  184.5480  180.0930  139.4750 O   0  0  0  0  0  0  0  0  0  0  0  0
  184.4410  178.8430  139.6040 C   0  0  0  0  0  0  0  0  0  0  0  0
  184.6430  178.2270  140.8800 N   0  0  0  0  0  2  0  0  0  0  0  0
  184.9210  178.9930  142.0910 C   0  0  2  0  0  3  0  0  0  0  0  0
  186.3950  179.3540  142.1500 C   0  0  0  0  0  1  0  0  0  0  0  0
  184.4870  178.2360  143.3460 C   0  0  0  0  0  2  0  0  0  0  0  0
  184.2960  179.1430  144.5450 C   0  0  0  0  0  2  0  0  0  0  0  0
  185.1570  178.5730  146.7850 C   0  0  0  0  0  2  0  0  0  0  0  0
  185.5270  179.1260  145.4250 C   0  0  1  0  0  3  0  0  0  0  0  0
  185.8590  177.6920  145.7780 C   0  0  1  0  0  3  0  0  0  0  0  0
  187.3320  177.6050  146.1240 C   0  0  0  0  0  2  0  0  0  0  0  0
  189.6460  177.5550  145.0980 C   0  0  2  0  0  0  0  0  0  0  0  0
  190.2520  176.8660  146.6290 Cl  0  0  0  0  0  0  0  0  0  0  0  0
  188.1720  177.8940  144.8920 C   0  0  1  0  0  3  0  0  0  0  0  0
  188.7530  176.5890  144.3540 C   0  0  1  0  0  3  0  0  0  0  0  0
  190.8540  178.3390  143.9860 S   0  0  0  0  0  0  0  0  0  0  0  0
  189.0370  176.6760  142.8570 C   0  0  0  0  0  2  0  0  0  0  0  0
  189.8900  177.8850  142.5230 C   0  0  0  0  0  2  0  0  0  0  0  0
  185.2940  177.1750  138.0000 C   0  0  0  0  0  2  0  0  0  0  0  0
  187.7550  177.8130  138.1820 C   0  0  2  0  0  3  0  0  0  0  0  0
  187.8020  178.5900  139.3360 O   0  0  0  0  0  1  0  0  0  0  0  0
  186.7240  177.8000  135.9870 C   0  0  0  0  0  2  0  0  0  0  0  0
  188.7830  178.3070  137.1830 C   0  0  2  0  0  3  0  0  0  0  0  0
  186.4430  178.0270  137.4610 C   0  0  1  0  0  3  0  0  0  0  0  0
  188.2070  178.0800  135.7880 C   0  0  0  0  0  2  0  0  0  0  0  0
  190.0760  177.7840  137.3790 O   0  0  0  0  0  0  0  0  0  0  0  0
  190.2160  176.5860  136.6620 C   0  0  0  0  0  1  0  0  0  0  0  0
  182.9880  177.0590  138.7630 N   0  0  0  0  0  2  0  0  0  0  0  0
  180.8280  176.9240  139.7760 C   0  0  1  0  0  3  0  0  0  0  0  0
  182.0310  177.7660  139.5150 N   0  0  0  0  0  0  0  0  0  0  0  0
  180.8260  177.8870  138.6790 C   0  0  2  0  0  3  0  0  0  0  0  0
  180.0230  179.1550  139.0100 C   0  0  2  0  0  3  0  0  0  0  0  0
  180.9060  180.2030  139.2720 O   0  0  0  0  0  1  0  0  0  0  0  0
  179.0180  179.0260  140.1580 C   0  0  0  0  0  2  0  0  0  0  0  0
  179.3560  179.9780  141.2960 C   0  0  0  0  0  2  0  0  0  0  0  0
  179.0600  178.5410  143.3180 O   0  0  0  0  0  1  0  0  0  0  0  0
  181.1570  179.1940  142.6520 O   0  0  0  0  0  0  0  0  0  0  0  0
  179.9130  179.2330  142.4630 C   0  0  0  0  0  0  0  0  0  0  0  0
  180.9000  175.5070  139.2110 C   0  0  0  0  0  2  0  0  0  0  0  0
  179.6170  174.2080  137.4820 C   0  0  0  0  0  0  0  0  0  0  0  0
  178.9310  174.2000  136.4250 O   0  0  0  0  0  0  0  0  0  0  0  0
  179.8450  172.9880  138.1810 N   0  0  0  0  0  1  0  0  0  0  0  0
  180.1490  175.4380  137.9690 N   0  0  0  0  0  2  0  0  0  0  0  0
  1 20  1  1  0  0  0
  1 29  1  0  0  0  0
  1  3  1  0  0  0  0
  2  3  2  0  0  0  0
  3  4  1  0  0  0  0
  4  5  1  0  0  0  0
  5  6  1  1  0  0  0
  5  7  1  0  0  0  0
  7  8  1  0  0  0  0
 10  8  1  6  0  0  0
 10 11  1  0  0  0  0
 10  9  1  0  0  0  0
 11 12  1  1  0  0  0
 11  9  1  0  0  0  0
 13 14  1  1  0  0  0
 15 13  1  0  0  0  0
 15 12  1  1  0  0  0
 16 18  1  6  0  0  0
 16 15  1  0  0  0  0
 16 13  1  0  0  0  0
 17 13  1  0  0  0  0
 19 18  1  0  0  0  0
 19 17  1  0  0  0  0
 21 22  1  1  0  0  0
 23 25  1  0  0  0  0
 24 27  1  6  0  0  0
 24 21  1  0  0  0  0
 25 20  1  1  0  0  0
 25 21  1  0  0  0  0
 26 23  1  0  0  0  0
 26 24  1  0  0  0  0
 28 27  1  0  0  0  0
 29 31  1  0  0  0  0
 30 40  1  6  0  0  0
 31 30  1  0  0  0  0
 32 33  1  1  0  0  0
 32 31  1  0  0  0  0
 32 30  1  0  0  0  0
 33 34  1  1  0  0  0
 33 35  1  0  0  0  0
 35 36  1  0  0  0  0
 36 39  1  0  0  0  0
 39 38  2  0  0  0  0
 39 37  1  0  0  0  0
 41 44  1  0  0  0  0
 41 43  1  0  0  0  0
 42 41  2  0  0  0  0
 44 40  1  0  0  0  0
M  END
>  <MODEL>
6

>  <REMARK>
 VINA RESULT:      -7.1      2.252      2.998
  Name = 
  18 active torsions:
  status: ('A' for Active; 'I' for Inactive)
    1  A    between atoms: C_1  and  C_4
    2  A    between atoms: C_1  and  N_20
    3  A    between atoms: C_1  and  C_34
    4  A    between atoms: C_3  and  C_16
    5  A    between atoms: C_4  and  C_43
    6  A    between atoms: C_6  and  C_15
    7  A    between atoms: C_6  and  N_40
    8  A    between atoms: C_7  and  C_8
    9  A    between atoms: C_7  and  C_12
   10  A    between atoms: C_8  and  C_35
   11  A    between atoms: C_11  and  C_15
   12  A    between atoms: C_11  and  C_32
   13  A    between atoms: C_12  and  C_28
   14  A    between atoms: C_16  and  N_27
   15  A    between atoms: N_19  and  N_20
   16  A    between atoms: O_22  and  C_37
   17  A    between atoms: C_24  and  C_36
   18  A    between atoms: C_36  and  C_38
                            x       y       z     vdW  Elec       q    Type
                         _______ _______ _______ _____ _____    ______ ____

>  <TORSDO>
F 18

$$$$
=
 OpenBabel11062415483D

 44 48  0  0  1  0  0  0  0  0999 V2000
  186.3300  178.6480  141.9380 C   0  0  1  0  0  3  0  0  0  0  0  0
  184.9350  179.7240  140.2970 O   0  0  0  0  0  0  0  0  0  0  0  0
  185.0000  179.0020  141.3300 C   0  0  0  0  0  0  0  0  0  0  0  0
  183.8070  178.4840  141.9260 N   0  0  0  0  0  2  0  0  0  0  0  0
  182.4800  178.7040  141.3570 C   0  0  2  0  0  3  0  0  0  0  0  0
  181.4650  178.9030  142.4700 C   0  0  0  0  0  1  0  0  0  0  0  0
  182.0700  177.5600  140.4320 C   0  0  0  0  0  2  0  0  0  0  0  0
  180.8370  177.8800  139.6090 C   0  0  0  0  0  2  0  0  0  0  0  0
  181.1760  178.8790  137.3780 C   0  0  0  0  0  2  0  0  0  0  0  0
  181.0830  177.5770  138.1460 C   0  0  1  0  0  3  0  0  0  0  0  0
  182.4350  178.1310  137.7490 C   0  0  1  0  0  3  0  0  0  0  0  0
  182.9380  177.3630  136.5430 C   0  0  0  0  0  2  0  0  0  0  0  0
  183.6730  174.9430  136.6560 C   0  0  2  0  0  0  0  0  0  0  0  0
  182.1400  174.4950  135.8590 Cl  0  0  0  0  0  0  0  0  0  0  0  0
  184.0310  176.3960  136.9640 C   0  0  1  0  0  3  0  0  0  0  0  0
  184.5970  175.6990  135.7290 C   0  0  1  0  0  3  0  0  0  0  0  0
  184.5620  173.6460  137.5710 S   0  0  0  0  0  0  0  0  0  0  0  0
  186.0360  175.2420  135.9520 C   0  0  0  0  0  2  0  0  0  0  0  0
  186.1640  174.4080  137.2120 C   0  0  0  0  0  2  0  0  0  0  0  0
  186.0930  177.8400  143.2100 C   0  0  0  0  0  2  0  0  0  0  0  0
  186.1780  178.3110  145.7140 C   0  0  2  0  0  3  0  0  0  0  0  0
  185.4650  179.5000  145.8420 O   0  0  0  0  0  1  0  0  0  0  0  0
  188.1670  177.4400  144.6340 C   0  0  0  0  0  2  0  0  0  0  0  0
  187.2830  178.2550  146.7510 C   0  0  2  0  0  3  0  0  0  0  0  0
  186.9330  178.2940  144.4030 C   0  0  1  0  0  3  0  0  0  0  0  0
  188.4530  177.4990  146.1280 C   0  0  0  0  0  2  0  0  0  0  0  0
  186.8690  177.7720  148.0080 O   0  0  0  0  0  0  0  0  0  0  0  0
  187.9430  177.8180  148.9090 C   0  0  0  0  0  1  0  0  0  0  0  0
  187.1450  177.8630  141.0180 N   0  0  0  0  0  2  0  0  0  0  0  0
  189.2630  177.8780  139.9110 C   0  0  1  0  0  3  0  0  0  0  0  0
  188.4640  178.3510  141.0780 N   0  0  0  0  0  0  0  0  0  0  0  0
  189.3530  177.1840  141.1930 C   0  0  2  0  0  3  0  0  0  0  0  0
  190.6450  177.5190  141.9540 C   0  0  2  0  0  3  0  0  0  0  0  0
  191.7130  177.5510  141.0570 O   0  0  0  0  0  1  0  0  0  0  0  0
  190.9850  176.5980  143.1290 C   0  0  0  0  0  2  0  0  0  0  0  0
  191.6760  177.3630  144.2490 C   0  0  0  0  0  2  0  0  0  0  0  0
  191.7550  177.0480  146.7260 O   0  0  0  0  0  1  0  0  0  0  0  0
  192.0530  175.2610  145.3160 O   0  0  0  0  0  0  0  0  0  0  0  0
  191.8540  176.4970  145.4520 C   0  0  0  0  0  0  0  0  0  0  0  0
  188.4960  177.0110  138.9150 C   0  0  0  0  0  2  0  0  0  0  0  0
  187.6090  178.3790  137.0010 C   0  0  0  0  0  0  0  0  0  0  0  0
  187.7840  178.8810  135.8590 O   0  0  0  0  0  0  0  0  0  0  0  0
  186.3960  178.6360  137.7030 N   0  0  0  0  0  1  0  0  0  0  0  0
  188.6290  177.5670  137.5790 N   0  0  0  0  0  2  0  0  0  0  0  0
  1 20  1  1  0  0  0
  2  3  2  0  0  0  0
  3  4  1  0  0  0  0
  3  1  1  0  0  0  0
  5  4  1  0  0  0  0
  5  6  1  1  0  0  0
  7  5  1  0  0  0  0
  8  7  1  0  0  0  0
  9 11  1  0  0  0  0
  9 10  1  0  0  0  0
 10  8  1  1  0  0  0
 11 12  1  6  0  0  0
 11 10  1  0  0  0  0
 13 14  1  6  0  0  0
 13 15  1  0  0  0  0
 13 17  1  0  0  0  0
 15 12  1  6  0  0  0
 16 18  1  1  0  0  0
 16 13  1  0  0  0  0
 16 15  1  0  0  0  0
 18 19  1  0  0  0  0
 19 17  1  0  0  0  0
 21 22  1  1  0  0  0
 21 24  1  0  0  0  0
 23 26  1  0  0  0  0
 24 27  1  1  0  0  0
 25 20  1  6  0  0  0
 25 23  1  0  0  0  0
 25 21  1  0  0  0  0
 26 24  1  0  0  0  0
 27 28  1  0  0  0  0
 29 31  1  0  0  0  0
 29  1  1  0  0  0  0
 30 40  1  6  0  0  0
 30 31  1  0  0  0  0
 30 32  1  0  0  0  0
 31 32  1  0  0  0  0
 32 33  1  1  0  0  0
 33 34  1  6  0  0  0
 33 35  1  0  0  0  0
 35 36  1  0  0  0  0
 36 39  1  0  0  0  0
 38 39  2  0  0  0  0
 39 37  1  0  0  0  0
 41 44  1  0  0  0  0
 41 43  1  0  0  0  0
 42 41  2  0  0  0  0
 44 40  1  0  0  0  0
M  END
>  <MODEL>
7

>  <REMARK>
 VINA RESULT:      -6.9      4.124      9.426
  Name = 
  18 active torsions:
  status: ('A' for Active; 'I' for Inactive)
    1  A    between atoms: C_1  and  C_4
    2  A    between atoms: C_1  and  N_20
    3  A    between atoms: C_1  and  C_34
    4  A    between atoms: C_3  and  C_16
    5  A    between atoms: C_4  and  C_43
    6  A    between atoms: C_6  and  C_15
    7  A    between atoms: C_6  and  N_40
    8  A    between atoms: C_7  and  C_8
    9  A    between atoms: C_7  and  C_12
   10  A    between atoms: C_8  and  C_35
   11  A    between atoms: C_11  and  C_15
   12  A    between atoms: C_11  and  C_32
   13  A    between atoms: C_12  and  C_28
   14  A    between atoms: C_16  and  N_27
   15  A    between atoms: N_19  and  N_20
   16  A    between atoms: O_22  and  C_37
   17  A    between atoms: C_24  and  C_36
   18  A    between atoms: C_36  and  C_38
                            x       y       z     vdW  Elec       q    Type
                         _______ _______ _______ _____ _____    ______ ____

>  <TORSDO>
F 18

$$$$
=
 OpenBabel11062415483D

 44 48  0  0  1  0  0  0  0  0999 V2000
  185.8740  179.3910  141.3820 C   0  0  1  0  0  3  0  0  0  0  0  0
  185.4540  177.4960  142.8050 O   0  0  0  0  0  0  0  0  0  0  0  0
  185.0820  178.6360  142.4150 C   0  0  0  0  0  0  0  0  0  0  0  0
  183.9130  179.2460  142.9710 N   0  0  0  0  0  2  0  0  0  0  0  0
  183.1320  178.6270  144.0380 C   0  0  2  0  0  3  0  0  0  0  0  0
  181.6480  178.7740  143.7480 C   0  0  0  0  0  1  0  0  0  0  0  0
  183.4890  179.2100  145.4050 C   0  0  0  0  0  2  0  0  0  0  0  0
  184.3880  178.2990  146.2180 C   0  0  0  0  0  2  0  0  0  0  0  0
  186.6000  178.1680  147.3030 C   0  0  0  0  0  2  0  0  0  0  0  0
  185.8230  178.7740  146.1530 C   0  0  1  0  0  3  0  0  0  0  0  0
  186.7260  177.5820  145.9160 C   0  0  1  0  0  3  0  0  0  0  0  0
  188.0130  178.0680  145.2790 C   0  0  0  0  0  2  0  0  0  0  0  0
  190.4530  177.5000  144.9160 C   0  0  2  0  0  0  0  0  0  0  0  0
  190.6050  178.9990  143.9600 Cl  0  0  0  0  0  0  0  0  0  0  0  0
  189.1360  177.0870  145.5680 C   0  0  1  0  0  3  0  0  0  0  0  0
  190.2230  177.7820  146.3830 C   0  0  1  0  0  3  0  0  0  0  0  0
  191.7140  176.2110  144.6760 S   0  0  0  0  0  0  0  0  0  0  0  0
  191.0150  176.7890  147.2280 C   0  0  0  0  0  2  0  0  0  0  0  0
  191.5470  175.6450  146.3860 C   0  0  0  0  0  2  0  0  0  0  0  0
  187.3600  179.2440  141.6920 C   0  0  0  0  0  2  0  0  0  0  0  0
  189.1910  178.5430  140.0630 C   0  0  2  0  0  3  0  0  0  0  0  0
  188.7100  178.9770  138.8310 O   0  0  0  0  0  1  0  0  0  0  0  0
  188.6020  177.0270  141.8620 C   0  0  0  0  0  2  0  0  0  0  0  0
  190.0000  177.2730  139.8840 C   0  0  2  0  0  3  0  0  0  0  0  0
  188.0450  178.1000  140.9450 C   0  0  1  0  0  3  0  0  0  0  0  0
  189.7970  176.4240  141.1360 C   0  0  0  0  0  2  0  0  0  0  0  0
  191.3470  177.4920  139.5320 O   0  0  0  0  0  0  0  0  0  0  0  0
  192.1420  177.5060  140.6880 C   0  0  0  0  0  1  0  0  0  0  0  0
  185.6140  178.8890  140.0380 N   0  0  0  0  0  2  0  0  0  0  0  0
  184.0690  177.6000  138.7480 C   0  0  1  0  0  3  0  0  0  0  0  0
  184.3200  178.3380  140.0200 N   0  0  0  0  0  0  0  0  0  0  0  0
  183.5940  178.9720  138.9070 C   0  0  2  0  0  3  0  0  0  0  0  0
  182.0820  179.0440  139.1740 C   0  0  2  0  0  3  0  0  0  0  0  0
  181.6110  177.7710  139.4980 O   0  0  0  0  0  1  0  0  0  0  0  0
  181.2340  179.6370  138.0460 C   0  0  0  0  0  2  0  0  0  0  0  0
  180.0700  180.4480  138.5990 C   0  0  0  0  0  2  0  0  0  0  0  0
  179.4530  182.8260  139.0470 O   0  0  0  0  0  1  0  0  0  0  0  0
  181.4210  182.3160  137.9820 O   0  0  0  0  0  0  0  0  0  0  0  0
  180.3520  181.9110  138.5080 C   0  0  0  0  0  0  0  0  0  0  0  0
  185.2470  177.5780  137.7750 C   0  0  0  0  0  2  0  0  0  0  0  0
  185.6280  176.2000  135.7070 C   0  0  0  0  0  0  0  0  0  0  0  0
  185.1910  175.7400  134.6190 O   0  0  0  0  0  0  0  0  0  0  0  0
  186.9370  175.8440  136.1460 N   0  0  0  0  0  1  0  0  0  0  0  0
  184.8080  177.0650  136.4890 N   0  0  0  0  0  2  0  0  0  0  0  0
  1 20  1  1  0  0  0
  1  3  1  0  0  0  0
  3  2  2  0  0  0  0
  3  4  1  0  0  0  0
  4  5  1  0  0  0  0
  5  6  1  6  0  0  0
  5  7  1  0  0  0  0
  7  8  1  0  0  0  0
 10  8  1  1  0  0  0
 10  9  1  0  0  0  0
 11 12  1  6  0  0  0
 11 10  1  0  0  0  0
 11  9  1  0  0  0  0
 13 14  1  6  0  0  0
 13 15  1  0  0  0  0
 13 16  1  0  0  0  0
 15 12  1  6  0  0  0
 15 16  1  0  0  0  0
 16 18  1  1  0  0  0
 17 13  1  0  0  0  0
 17 19  1  0  0  0  0
 19 18  1  0  0  0  0
 21 22  1  6  0  0  0
 21 25  1  0  0  0  0
 24 27  1  1  0  0  0
 24 21  1  0  0  0  0
 24 26  1  0  0  0  0
 25 20  1  1  0  0  0
 25 23  1  0  0  0  0
 26 23  1  0  0  0  0
 27 28  1  0  0  0  0
 29  1  1  0  0  0  0
 30 40  1  6  0  0  0
 30 32  1  0  0  0  0
 30 31  1  0  0  0  0
 31 29  1  0  0  0  0
 32 33  1  1  0  0  0
 32 31  1  0  0  0  0
 33 34  1  6  0  0  0
 35 36  1  0  0  0  0
 35 33  1  0  0  0  0
 38 39  2  0  0  0  0
 39 36  1  0  0  0  0
 39 37  1  0  0  0  0
 41 43  1  0  0  0  0
 41 44  1  0  0  0  0
 42 41  2  0  0  0  0
 44 40  1  0  0  0  0
M  END
>  <MODEL>
8

>  <REMARK>
 VINA RESULT:      -6.8      2.288      3.746
  Name = 
  18 active torsions:
  status: ('A' for Active; 'I' for Inactive)
    1  A    between atoms: C_1  and  C_4
    2  A    between atoms: C_1  and  N_20
    3  A    between atoms: C_1  and  C_34
    4  A    between atoms: C_3  and  C_16
    5  A    between atoms: C_4  and  C_43
    6  A    between atoms: C_6  and  C_15
    7  A    between atoms: C_6  and  N_40
    8  A    between atoms: C_7  and  C_8
    9  A    between atoms: C_7  and  C_12
   10  A    between atoms: C_8  and  C_35
   11  A    between atoms: C_11  and  C_15
   12  A    between atoms: C_11  and  C_32
   13  A    between atoms: C_12  and  C_28
   14  A    between atoms: C_16  and  N_27
   15  A    between atoms: N_19  and  N_20
   16  A    between atoms: O_22  and  C_37
   17  A    between atoms: C_24  and  C_36
   18  A    between atoms: C_36  and  C_38
                            x       y       z     vdW  Elec       q    Type
                         _______ _______ _______ _____ _____    ______ ____

>  <TORSDO>
F 18

$$$$
=
 OpenBabel11062415483D

 44 48  0  0  1  0  0  0  0  0999 V2000
  187.6750  178.5290  141.7150 C   0  0  1  0  0  3  0  0  0  0  0  0
  185.6780  179.7530  141.1600 O   0  0  0  0  0  0  0  0  0  0  0  0
  186.3060  179.0750  142.0180 C   0  0  0  0  0  0  0  0  0  0  0  0
  185.7130  178.7900  143.2890 N   0  0  0  0  0  2  0  0  0  0  0  0
  184.3570  179.2050  143.6390 C   0  0  2  0  0  3  0  0  0  0  0  0
  184.0560  178.8320  145.0800 C   0  0  0  0  0  1  0  0  0  0  0  0
  183.3240  178.6060  142.6850 C   0  0  0  0  0  2  0  0  0  0  0  0
  181.9020  179.0020  143.0330 C   0  0  0  0  0  2  0  0  0  0  0  0
  179.7560  179.4910  141.9190 C   0  0  0  0  0  2  0  0  0  0  0  0
  180.9470  178.5560  141.9470 C   0  0  1  0  0  3  0  0  0  0  0  0
  180.8570  179.6420  140.8950 C   0  0  1  0  0  3  0  0  0  0  0  0
  180.4180  179.0150  139.5870 C   0  0  0  0  0  2  0  0  0  0  0  0
  181.8770  178.5960  137.5620 C   0  0  2  0  0  0  0  0  0  0  0  0
  181.0090  179.9150  136.7290 Cl  0  0  0  0  0  0  0  0  0  0  0  0
  181.5520  178.1950  138.9990 C   0  0  1  0  0  3  0  0  0  0  0  0
  182.7370  179.1080  138.6950 C   0  0  1  0  0  3  0  0  0  0  0  0
  182.7760  177.3930  136.5350 S   0  0  0  0  0  0  0  0  0  0  0  0
  184.0570  178.3440  138.7240 C   0  0  0  0  0  2  0  0  0  0  0  0
  184.0100  177.1200  137.8300 C   0  0  0  0  0  2  0  0  0  0  0  0
  188.0240  177.4660  142.7520 C   0  0  0  0  0  2  0  0  0  0  0  0
  188.7750  177.2400  145.1770 C   0  0  2  0  0  3  0  0  0  0  0  0
  187.7280  177.8140  145.8930 O   0  0  0  0  0  1  0  0  0  0  0  0
  190.4300  177.8300  143.5050 C   0  0  0  0  0  2  0  0  0  0  0  0
  190.0890  177.4890  145.8920 C   0  0  2  0  0  3  0  0  0  0  0  0
  188.9590  177.9550  143.8570 C   0  0  1  0  0  3  0  0  0  0  0  0
  191.1680  177.6320  144.8220 C   0  0  0  0  0  2  0  0  0  0  0  0
  190.3820  176.5530  146.9030 O   0  0  0  0  0  0  0  0  0  0  0  0
  191.6780  176.0490  146.7210 C   0  0  0  0  0  1  0  0  0  0  0  0
  187.7300  177.9360  140.3840 N   0  0  0  0  0  2  0  0  0  0  0  0
  189.1490  178.0950  138.4680 C   0  0  1  0  0  3  0  0  0  0  0  0
  189.0690  177.9590  139.9510 N   0  0  0  0  0  0  0  0  0  0  0  0
  189.2670  176.7810  139.0910 C   0  0  2  0  0  3  0  0  0  0  0  0
  190.7190  176.2770  139.1330 C   0  0  2  0  0  3  0  0  0  0  0  0
  191.5280  177.2560  139.7110 O   0  0  0  0  0  1  0  0  0  0  0  0
  191.3120  175.8420  137.7910 C   0  0  0  0  0  2  0  0  0  0  0  0
  192.6970  175.2380  137.9690 C   0  0  0  0  0  2  0  0  0  0  0  0
  194.2450  175.1120  136.0130 O   0  0  0  0  0  0  0  0  0  0  0  0
  193.9540  177.0900  137.1390 O   0  0  0  0  0  1  0  0  0  0  0  0
  193.6750  175.8670  137.0330 C   0  0  0  0  0  0  0  0  0  0  0  0
  187.8000  178.2040  137.7580 C   0  0  0  0  0  2  0  0  0  0  0  0
  187.0680  177.0100  135.6710 C   0  0  0  0  0  0  0  0  0  0  0  0
  186.9000  175.9290  135.0460 O   0  0  0  0  0  0  0  0  0  0  0  0
  186.7910  178.2480  135.0200 N   0  0  0  0  0  1  0  0  0  0  0  0
  187.5400  176.9830  137.0150 N   0  0  0  0  0  2  0  0  0  0  0  0
  1  3  1  0  0  0  0
  1 20  1  1  0  0  0
  2  3  2  0  0  0  0
  3  4  1  0  0  0  0
  4  5  1  0  0  0  0
  5  6  1  1  0  0  0
  7  8  1  0  0  0  0
  7  5  1  0  0  0  0
  9 10  1  0  0  0  0
 10  8  1  1  0  0  0
 11 12  1  6  0  0  0
 11  9  1  0  0  0  0
 11 10  1  0  0  0  0
 13 14  1  6  0  0  0
 13 16  1  0  0  0  0
 13 15  1  0  0  0  0
 15 12  1  1  0  0  0
 16 18  1  6  0  0  0
 16 15  1  0  0  0  0
 17 13  1  0  0  0  0
 17 19  1  0  0  0  0
 19 18  1  0  0  0  0
 21 24  1  0  0  0  0
 21 22  1  1  0  0  0
 23 25  1  0  0  0  0
 23 26  1  0  0  0  0
 24 27  1  1  0  0  0
 25 20  1  6  0  0  0
 25 21  1  0  0  0  0
 26 24  1  0  0  0  0
 28 27  1  0  0  0  0
 29  1  1  0  0  0  0
 30 40  1  6  0  0  0
 30 32  1  0  0  0  0
 30 31  1  0  0  0  0
 31 29  1  0  0  0  0
 32 33  1  1  0  0  0
 32 31  1  0  0  0  0
 33 34  1  6  0  0  0
 35 36  1  0  0  0  0
 35 33  1  0  0  0  0
 37 39  2  0  0  0  0
 39 38  1  0  0  0  0
 39 36  1  0  0  0  0
 41 44  1  0  0  0  0
 42 41  2  0  0  0  0
 43 41  1  0  0  0  0
 44 40  1  0  0  0  0
M  END
>  <MODEL>
9

>  <REMARK>
 VINA RESULT:      -6.8      4.534      8.891
  Name = 
  18 active torsions:
  status: ('A' for Active; 'I' for Inactive)
    1  A    between atoms: C_1  and  C_4
    2  A    between atoms: C_1  and  N_20
    3  A    between atoms: C_1  and  C_34
    4  A    between atoms: C_3  and  C_16
    5  A    between atoms: C_4  and  C_43
    6  A    between atoms: C_6  and  C_15
    7  A    between atoms: C_6  and  N_40
    8  A    between atoms: C_7  and  C_8
    9  A    between atoms: C_7  and  C_12
   10  A    between atoms: C_8  and  C_35
   11  A    between atoms: C_11  and  C_15
   12  A    between atoms: C_11  and  C_32
   13  A    between atoms: C_12  and  C_28
   14  A    between atoms: C_16  and  N_27
   15  A    between atoms: N_19  and  N_20
   16  A    between atoms: O_22  and  C_37
   17  A    between atoms: C_24  and  C_36
   18  A    between atoms: C_36  and  C_38
                            x       y       z     vdW  Elec       q    Type
                         _______ _______ _______ _____ _____    ______ ____

>  <TORSDO>
F 18

$$$$
