=
 OpenBabel11062415013D

 31 33  0  0  1  0  0  0  0  0999 V2000
  191.7450  177.3730  141.4910 C   0  0  0  0  0  2  0  0  0  0  0  0
  190.7260  177.7100  140.4110 C   0  0  2  0  0  3  0  0  0  0  0  0
  187.4170  176.1840  136.0500 C   0  0  0  0  0  2  0  0  0  0  0  0
  190.3410  176.6870  136.8070 C   0  0  0  0  0  2  0  0  0  0  0  0
  187.0340  177.0260  137.1270 O   0  0  0  0  0  0  0  0  0  0  0  0
  187.7750  178.1630  137.4440 C   0  0  0  0  0  0  0  0  0  0  0  0
  189.8080  175.3540  136.2670 C   0  0  0  0  0  2  0  0  0  0  0  0
  188.3320  175.0830  136.5620 C   0  0  0  0  0  2  0  0  0  0  0  0
  188.9650  176.5970  141.6640 O   0  0  0  0  0  1  0  0  0  0  0  0
  189.8850  175.9500  139.0910 O   0  0  0  0  0  0  0  0  0  0  0  0
  187.5350  179.2750  136.8320 N   0  0  0  0  0  2  0  0  0  0  0  0
  188.8380  178.1150  138.4930 C   0  0  1  0  0  3  0  0  0  0  0  0
  188.2280  178.0220  139.8900 C   0  0  0  0  0  2  0  0  0  0  0  0
  189.2820  177.7680  140.9700 C   0  0  2  0  0  3  0  0  0  0  0  0
  190.9350  176.8540  139.2210 N   0  0  1  0  0  0  0  0  0  0  0  0
  189.8830  177.0070  138.2290 C   0  0  2  0  0  0  0  0  0  0  0  0
  191.4380  178.0570  142.6690 O   0  0  0  0  0  0  0  0  0  0  0  0
  191.7380  177.1620  143.6990 C   0  0  0  0  0  2  0  0  0  0  0  0
  191.7670  176.8670  146.1170 N   0  0  0  0  0  1  0  0  0  0  0  0
  191.4310  177.7940  145.0500 C   0  0  2  0  0  3  0  0  0  0  0  0
  189.9730  178.2330  145.1640 C   0  0  0  0  0  2  0  0  0  0  0  0
  189.0080  177.0540  145.1210 C   0  0  0  0  0  2  0  0  0  0  0  0
  187.5970  177.5110  145.3310 C   0  0  0  0  0  0  0  0  0  0  0  0
  186.8420  177.7870  144.2560 C   0  0  0  0  0  3  0  0  0  0  0  0
  186.4520  178.9270  147.1230 C   0  0  0  0  0  1  0  0  0  0  0  0
  187.0190  177.5650  146.7280 C   0  0  2  0  0  3  0  0  0  0  0  0
  187.8470  176.9800  147.7130 O   0  0  0  0  0  0  0  0  0  0  0  0
  188.0310  177.8970  148.7610 C   0  0  0  0  0  1  0  0  0  0  0  0
  185.4010  178.1880  144.3280 C   0  0  0  0  0  2  0  0  0  0  0  0
  184.4970  178.1830  142.0570 C   0  0  0  0  0  2  0  0  0  0  0  0
  184.9970  178.8810  143.0700 C   0  0  0  0  0  3  0  0  0  0  0  0
  1 17  1  0  0  0  0
  2 14  1  0  0  0  0
  2  1  1  1  0  0  0
  3  8  1  0  0  0  0
  3  5  1  0  0  0  0
  5  6  1  0  0  0  0
  6 12  1  0  0  0  0
  7  8  1  0  0  0  0
  7  4  1  0  0  0  0
 11  6  2  0  0  0  0
 12 13  1  1  0  0  0
 13 14  1  0  0  0  0
 14  9  1  6  0  0  0
 15 10  1  1  0  0  0
 15  2  1  0  0  0  0
 16  4  1  6  0  0  0
 16 12  1  0  0  0  0
 16 10  1  0  0  0  0
 16 15  1  0  0  0  0
 17 18  1  0  0  0  0
 18 20  1  0  0  0  0
 20 21  1  0  0  0  0
 20 19  1  1  0  0  0
 22 21  1  0  0  0  0
 22 23  1  0  0  0  0
 23 26  1  0  0  0  0
 24 29  1  0  0  0  0
 24 23  2  0  0  0  0
 26 25  1  1  0  0  0
 26 27  1  0  0  0  0
 27 28  1  0  0  0  0
 30 31  2  0  0  0  0
 31 29  1  0  0  0  0
M  END
>  <MODEL>
1

>  <REMARK>
 VINA RESULT:      -7.6      0.000      0.000
  Name = 
  11 active torsions:
  status: ('A' for Active; 'I' for Inactive)
    1  A    between atoms: O_1  and  C_4
    2  A    between atoms: O_1  and  C_18
    3  A    between atoms: C_2  and  C_4
    4  A    between atoms: O_6  and  C_17
    5  A    between atoms: C_10  and  C_19
    6  A    between atoms: C_10  and  C_24
    7  A    between atoms: C_12  and  C_17
    8  A    between atoms: C_12  and  C_29
    9  A    between atoms: C_18  and  C_31
   10  A    between atoms: C_26  and  C_29
   11  A    between atoms: C_26  and  C_31
                            x       y       z     vdW  Elec       q    Type
                         _______ _______ _______ _____ _____    ______ ____

>  <TORSDO>
F 11

$$$$
=
 OpenBabel11062415013D

 31 33  0  0  1  0  0  0  0  0999 V2000
  188.6430  178.2710  138.5520 C   0  0  0  0  0  2  0  0  0  0  0  0
  187.2420  177.7650  138.2370 C   0  0  2  0  0  3  0  0  0  0  0  0
  181.6310  178.5840  137.8530 C   0  0  0  0  0  2  0  0  0  0  0  0
  183.8900  178.2300  139.8910 C   0  0  0  0  0  2  0  0  0  0  0  0
  182.4380  177.9100  136.9000 O   0  0  0  0  0  0  0  0  0  0  0  0
  183.2490  176.8410  137.2760 C   0  0  0  0  0  0  0  0  0  0  0  0
  182.9770  179.4610  139.8210 C   0  0  0  0  0  2  0  0  0  0  0  0
  182.4010  179.7580  138.4360 C   0  0  0  0  0  2  0  0  0  0  0  0
  187.2010  179.0370  136.1660 O   0  0  0  0  0  1  0  0  0  0  0  0
  185.4570  179.2980  138.3500 O   0  0  0  0  0  0  0  0  0  0  0  0
  182.7570  175.6470  137.3170 N   0  0  0  0  0  2  0  0  0  0  0  0
  184.6860  177.0570  137.6250 C   0  0  1  0  0  3  0  0  0  0  0  0
  185.5160  177.3530  136.3770 C   0  0  0  0  0  2  0  0  0  0  0  0
  186.9460  177.7780  136.7160 C   0  0  2  0  0  3  0  0  0  0  0  0
  186.2450  178.4340  139.1040 N   0  0  1  0  0  0  0  0  0  0  0  0
  184.8760  178.1230  138.7280 C   0  0  2  0  0  0  0  0  0  0  0  0
  188.7730  178.4990  139.9240 O   0  0  0  0  0  0  0  0  0  0  0  0
  189.6340  177.4980  140.3790 C   0  0  0  0  0  2  0  0  0  0  0  0
  190.2750  176.1930  142.3340 N   0  0  0  0  0  1  0  0  0  0  0  0
  189.5070  177.3430  141.8890 C   0  0  2  0  0  3  0  0  0  0  0  0
  188.0520  177.2200  142.3370 C   0  0  0  0  0  2  0  0  0  0  0  0
  187.9190  176.5050  143.6770 C   0  0  0  0  0  2  0  0  0  0  0  0
  187.3530  177.4240  144.7170 C   0  0  0  0  0  0  0  0  0  0  0  0
  186.0870  177.8500  144.5810 C   0  0  0  0  0  3  0  0  0  0  0  0
  189.6750  177.8690  145.6840 C   0  0  0  0  0  1  0  0  0  0  0  0
  188.1720  177.7790  145.9390 C   0  0  2  0  0  3  0  0  0  0  0  0
  187.8290  177.0400  147.0930 O   0  0  0  0  0  0  0  0  0  0  0  0
  187.9650  177.8640  148.2220 C   0  0  0  0  0  1  0  0  0  0  0  0
  185.3850  178.7140  145.5820 C   0  0  0  0  0  2  0  0  0  0  0  0
  183.6330  178.6800  143.8770 C   0  0  0  0  0  2  0  0  0  0  0  0
  184.0370  179.1000  145.0710 C   0  0  0  0  0  3  0  0  0  0  0  0
  1 17  1  0  0  0  0
  2  1  1  6  0  0  0
  2 15  1  0  0  0  0
  3  8  1  0  0  0  0
  5  6  1  0  0  0  0
  5  3  1  0  0  0  0
  6 11  2  0  0  0  0
  6 12  1  0  0  0  0
  7  4  1  0  0  0  0
  8  7  1  0  0  0  0
 10 16  1  0  0  0  0
 12 13  1  6  0  0  0
 12 16  1  0  0  0  0
 13 14  1  0  0  0  0
 14  9  1  1  0  0  0
 14  2  1  0  0  0  0
 15 10  1  6  0  0  0
 16 15  1  0  0  0  0
 16  4  1  1  0  0  0
 17 18  1  0  0  0  0
 18 20  1  0  0  0  0
 20 19  1  6  0  0  0
 20 21  1  0  0  0  0
 21 22  1  0  0  0  0
 22 23  1  0  0  0  0
 23 26  1  0  0  0  0
 24 23  2  0  0  0  0
 24 29  1  0  0  0  0
 26 25  1  6  0  0  0
 26 27  1  0  0  0  0
 27 28  1  0  0  0  0
 30 31  2  0  0  0  0
 31 29  1  0  0  0  0
M  END
>  <MODEL>
2

>  <REMARK>
 VINA RESULT:      -7.6      2.687      4.543
  Name = 
  11 active torsions:
  status: ('A' for Active; 'I' for Inactive)
    1  A    between atoms: O_1  and  C_4
    2  A    between atoms: O_1  and  C_18
    3  A    between atoms: C_2  and  C_4
    4  A    between atoms: O_6  and  C_17
    5  A    between atoms: C_10  and  C_19
    6  A    between atoms: C_10  and  C_24
    7  A    between atoms: C_12  and  C_17
    8  A    between atoms: C_12  and  C_29
    9  A    between atoms: C_18  and  C_31
   10  A    between atoms: C_26  and  C_29
   11  A    between atoms: C_26  and  C_31
                            x       y       z     vdW  Elec       q    Type
                         _______ _______ _______ _____ _____    ______ ____

>  <TORSDO>
F 11

$$$$
=
 OpenBabel11062415013D

 31 33  0  0  1  0  0  0  0  0999 V2000
  184.7910  179.0640  142.0330 C   0  0  0  0  0  2  0  0  0  0  0  0
  184.0410  178.3030  140.9470 C   0  0  2  0  0  3  0  0  0  0  0  0
  179.4830  177.5740  137.6320 C   0  0  0  0  0  2  0  0  0  0  0  0
  180.4430  177.2720  140.5240 C   0  0  0  0  0  2  0  0  0  0  0  0
  180.8370  177.4800  137.2140 O   0  0  0  0  0  0  0  0  0  0  0  0
  181.7260  176.6230  137.8580 C   0  0  0  0  0  0  0  0  0  0  0  0
  179.2640  178.1540  140.0960 C   0  0  0  0  0  2  0  0  0  0  0  0
  179.3420  178.6830  138.6630 C   0  0  0  0  0  2  0  0  0  0  0  0
  184.4710  180.0790  139.3440 O   0  0  0  0  0  1  0  0  0  0  0  0
  181.9690  179.1560  140.2220 O   0  0  0  0  0  0  0  0  0  0  0  0
  181.8020  175.3860  137.4950 N   0  0  0  0  0  2  0  0  0  0  0  0
  182.6050  177.1210  138.9610 C   0  0  1  0  0  3  0  0  0  0  0  0
  183.7240  178.0060  138.4140 C   0  0  0  0  0  2  0  0  0  0  0  0
  184.5180  178.6940  139.5260 C   0  0  2  0  0  3  0  0  0  0  0  0
  182.5810  178.3650  141.1890 N   0  0  1  0  0  0  0  0  0  0  0  0
  181.8080  177.8080  140.0920 C   0  0  2  0  0  0  0  0  0  0  0  0
  184.0210  179.1200  143.1960 O   0  0  0  0  0  0  0  0  0  0  0  0
  184.9070  179.5230  144.2000 C   0  0  0  0  0  2  0  0  0  0  0  0
  184.5270  178.6770  146.4530 N   0  0  0  0  0  1  0  0  0  0  0  0
  185.1500  178.3790  145.1750 C   0  0  2  0  0  3  0  0  0  0  0  0
  186.6370  178.0850  145.3620 C   0  0  0  0  0  2  0  0  0  0  0  0
  187.2040  177.2320  144.2320 C   0  0  0  0  0  2  0  0  0  0  0  0
  188.6720  177.4830  144.0600 C   0  0  0  0  0  0  0  0  0  0  0  0
  189.4580  177.4790  145.1470 C   0  0  0  0  0  3  0  0  0  0  0  0
  188.3750  178.4370  141.7080 C   0  0  0  0  0  1  0  0  0  0  0  0
  189.2540  177.6410  142.6720 C   0  0  2  0  0  3  0  0  0  0  0  0
  189.7670  176.4440  142.1260 O   0  0  0  0  0  0  0  0  0  0  0  0
  190.3330  176.7180  140.8700 C   0  0  0  0  0  1  0  0  0  0  0  0
  190.9450  177.6500  145.1030 C   0  0  0  0  0  2  0  0  0  0  0  0
  191.2500  176.4740  147.2240 C   0  0  0  0  0  2  0  0  0  0  0  0
  191.6070  176.6170  145.9520 C   0  0  0  0  0  3  0  0  0  0  0  0
  1 17  1  0  0  0  0
  2 15  1  0  0  0  0
  2  1  1  1  0  0  0
  3  8  1  0  0  0  0
  5  3  1  0  0  0  0
  5  6  1  0  0  0  0
  6 12  1  0  0  0  0
  7  4  1  0  0  0  0
  8  7  1  0  0  0  0
 11  6  2  0  0  0  0
 12 13  1  6  0  0  0
 12 16  1  0  0  0  0
 13 14  1  0  0  0  0
 14  9  1  6  0  0  0
 14  2  1  0  0  0  0
 15 10  1  6  0  0  0
 16 10  1  0  0  0  0
 16  4  1  1  0  0  0
 16 15  1  0  0  0  0
 17 18  1  0  0  0  0
 18 20  1  0  0  0  0
 20 21  1  0  0  0  0
 20 19  1  1  0  0  0
 22 21  1  0  0  0  0
 23 22  1  0  0  0  0
 23 24  2  0  0  0  0
 26 25  1  6  0  0  0
 26 23  1  0  0  0  0
 27 26  1  0  0  0  0
 28 27  1  0  0  0  0
 29 24  1  0  0  0  0
 29 31  1  0  0  0  0
 31 30  2  0  0  0  0
M  END
>  <MODEL>
3

>  <REMARK>
 VINA RESULT:      -7.2      4.069      7.032
  Name = 
  11 active torsions:
  status: ('A' for Active; 'I' for Inactive)
    1  A    between atoms: O_1  and  C_4
    2  A    between atoms: O_1  and  C_18
    3  A    between atoms: C_2  and  C_4
    4  A    between atoms: O_6  and  C_17
    5  A    between atoms: C_10  and  C_19
    6  A    between atoms: C_10  and  C_24
    7  A    between atoms: C_12  and  C_17
    8  A    between atoms: C_12  and  C_29
    9  A    between atoms: C_18  and  C_31
   10  A    between atoms: C_26  and  C_29
   11  A    between atoms: C_26  and  C_31
                            x       y       z     vdW  Elec       q    Type
                         _______ _______ _______ _____ _____    ______ ____

>  <TORSDO>
F 11

$$$$
=
 OpenBabel11062415013D

 31 33  0  0  1  0  0  0  0  0999 V2000
  190.4320  176.1220  138.0650 C   0  0  0  0  0  2  0  0  0  0  0  0
  191.8260  176.0980  137.4520 C   0  0  2  0  0  3  0  0  0  0  0  0
  196.5940  173.3410  136.0510 C   0  0  0  0  0  2  0  0  0  0  0  0
  195.0680  174.4650  138.4560 C   0  0  0  0  0  2  0  0  0  0  0  0
  195.8960  174.2620  135.2270 O   0  0  0  0  0  0  0  0  0  0  0  0
  195.6040  175.5470  135.6790 C   0  0  0  0  0  0  0  0  0  0  0  0
  195.4590  172.9900  138.2970 C   0  0  0  0  0  2  0  0  0  0  0  0
  195.5990  172.5140  136.8500 C   0  0  0  0  0  2  0  0  0  0  0  0
  190.9960  174.9050  135.5040 O   0  0  0  0  0  1  0  0  0  0  0  0
  192.9470  174.0310  137.3230 O   0  0  0  0  0  0  0  0  0  0  0  0
  196.4780  176.4880  135.5420 N   0  0  0  0  0  2  0  0  0  0  0  0
  194.2850  175.8550  136.3120 C   0  0  1  0  0  3  0  0  0  0  0  0
  193.1680  175.8790  135.2700 C   0  0  0  0  0  2  0  0  0  0  0  0
  191.7810  175.9880  135.9070 C   0  0  2  0  0  3  0  0  0  0  0  0
  192.6810  175.1150  138.1540 N   0  0  1  0  0  0  0  0  0  0  0  0
  193.9650  174.9210  137.5010 C   0  0  2  0  0  0  0  0  0  0  0  0
  190.5210  176.0730  139.4580 O   0  0  0  0  0  0  0  0  0  0  0  0
  190.2840  177.3820  139.8840 C   0  0  0  0  0  2  0  0  0  0  0  0
  188.2300  178.6190  139.4500 N   0  0  0  0  0  1  0  0  0  0  0  0
  188.8160  177.5570  140.2500 C   0  0  2  0  0  3  0  0  0  0  0  0
  188.6210  177.8400  141.7390 C   0  0  0  0  0  2  0  0  0  0  0  0
  189.3000  176.7980  142.6190 C   0  0  0  0  0  2  0  0  0  0  0  0
  189.3400  177.2500  144.0470 C   0  0  0  0  0  0  0  0  0  0  0  0
  188.2160  177.1800  144.7770 C   0  0  0  0  0  3  0  0  0  0  0  0
  191.3020  178.8860  143.9810 C   0  0  0  0  0  1  0  0  0  0  0  0
  190.6500  177.6860  144.6660 C   0  0  2  0  0  3  0  0  0  0  0  0
  191.5410  176.6220  144.9310 O   0  0  0  0  0  0  0  0  0  0  0  0
  191.7200  176.5080  146.3190 C   0  0  0  0  0  1  0  0  0  0  0  0
  188.1380  177.5380  146.2290 C   0  0  0  0  0  2  0  0  0  0  0  0
  185.9330  178.4440  145.6880 C   0  0  0  0  0  2  0  0  0  0  0  0
  186.7380  177.9000  146.5950 C   0  0  0  0  0  3  0  0  0  0  0  0
  1 17  1  0  0  0  0
  2  1  1  1  0  0  0
  2 15  1  0  0  0  0
  3  8  1  0  0  0  0
  5  6  1  0  0  0  0
  5  3  1  0  0  0  0
  6 12  1  0  0  0  0
  7  4  1  0  0  0  0
  8  7  1  0  0  0  0
 10 16  1  0  0  0  0
 11  6  2  0  0  0  0
 12 13  1  6  0  0  0
 12 16  1  0  0  0  0
 13 14  1  0  0  0  0
 14  9  1  1  0  0  0
 14  2  1  0  0  0  0
 15 10  1  6  0  0  0
 16 15  1  0  0  0  0
 16  4  1  1  0  0  0
 17 18  1  0  0  0  0
 18 20  1  0  0  0  0
 20 19  1  6  0  0  0
 20 21  1  0  0  0  0
 21 22  1  0  0  0  0
 22 23  1  0  0  0  0
 23 26  1  0  0  0  0
 23 24  2  0  0  0  0
 24 29  1  0  0  0  0
 26 25  1  6  0  0  0
 26 27  1  0  0  0  0
 27 28  1  0  0  0  0
 29 31  1  0  0  0  0
 30 31  2  0  0  0  0
M  END
>  <MODEL>
4

>  <REMARK>
 VINA RESULT:      -7.1      3.658      5.687
  Name = 
  11 active torsions:
  status: ('A' for Active; 'I' for Inactive)
    1  A    between atoms: O_1  and  C_4
    2  A    between atoms: O_1  and  C_18
    3  A    between atoms: C_2  and  C_4
    4  A    between atoms: O_6  and  C_17
    5  A    between atoms: C_10  and  C_19
    6  A    between atoms: C_10  and  C_24
    7  A    between atoms: C_12  and  C_17
    8  A    between atoms: C_12  and  C_29
    9  A    between atoms: C_18  and  C_31
   10  A    between atoms: C_26  and  C_29
   11  A    between atoms: C_26  and  C_31
                            x       y       z     vdW  Elec       q    Type
                         _______ _______ _______ _____ _____    ______ ____

>  <TORSDO>
F 11

$$$$
=
 OpenBabel11062415013D

 31 33  0  0  1  0  0  0  0  0999 V2000
  188.3290  178.2890  139.4760 C   0  0  0  0  0  2  0  0  0  0  0  0
  187.0150  177.8520  138.8420 C   0  0  2  0  0  3  0  0  0  0  0  0
  181.5630  178.8020  137.5470 C   0  0  0  0  0  2  0  0  0  0  0  0
  183.4110  178.1380  139.8980 C   0  0  0  0  0  2  0  0  0  0  0  0
  182.5390  178.2510  136.6750 O   0  0  0  0  0  0  0  0  0  0  0  0
  183.2780  177.1290  137.0450 C   0  0  0  0  0  0  0  0  0  0  0  0
  182.5140  179.3810  139.8310 C   0  0  0  0  0  2  0  0  0  0  0  0
  182.2000  179.8730  138.4170 C   0  0  0  0  0  2  0  0  0  0  0  0
  187.3440  179.3950  136.9930 O   0  0  0  0  0  1  0  0  0  0  0  0
  185.2240  179.3820  138.8330 O   0  0  0  0  0  0  0  0  0  0  0  0
  182.8000  175.9490  136.8300 N   0  0  0  0  0  2  0  0  0  0  0  0
  184.6240  177.2740  137.6790 C   0  0  1  0  0  3  0  0  0  0  0  0
  185.6660  177.7250  136.6570 C   0  0  0  0  0  2  0  0  0  0  0  0
  187.0050  178.0770  137.3090 C   0  0  2  0  0  3  0  0  0  0  0  0
  185.8690  178.4120  139.5940 N   0  0  1  0  0  0  0  0  0  0  0  0
  184.5960  178.1760  138.9330 C   0  0  2  0  0  0  0  0  0  0  0  0
  188.7260  177.3610  140.4410 O   0  0  0  0  0  0  0  0  0  0  0  0
  188.8960  178.1040  141.6120 C   0  0  0  0  0  2  0  0  0  0  0  0
  190.1860  176.1260  142.2100 N   0  0  0  0  0  1  0  0  0  0  0  0
  189.3660  177.2000  142.7440 C   0  0  2  0  0  3  0  0  0  0  0  0
  188.2010  176.6310  143.5520 C   0  0  0  0  0  2  0  0  0  0  0  0
  186.9850  177.5480  143.5360 C   0  0  0  0  0  2  0  0  0  0  0  0
  186.6100  177.9630  144.9270 C   0  0  0  0  0  0  0  0  0  0  0  0
  187.4110  177.6050  145.9430 C   0  0  0  0  0  3  0  0  0  0  0  0
  184.3340  178.2320  146.0550 C   0  0  0  0  0  1  0  0  0  0  0  0
  185.4040  178.8470  145.1540 C   0  0  2  0  0  3  0  0  0  0  0  0
  184.8930  179.4330  143.9740 O   0  0  0  0  0  0  0  0  0  0  0  0
  183.4920  179.4900  144.0600 C   0  0  0  0  0  1  0  0  0  0  0  0
  187.1850  178.0110  147.3670 C   0  0  0  0  0  2  0  0  0  0  0  0
  189.5480  177.8680  147.9790 C   0  0  0  0  0  2  0  0  0  0  0  0
  188.2940  177.5040  148.2270 C   0  0  0  0  0  3  0  0  0  0  0  0
  1 17  1  0  0  0  0
  2  1  1  1  0  0  0
  2 15  1  0  0  0  0
  3  8  1  0  0  0  0
  5  6  1  0  0  0  0
  5  3  1  0  0  0  0
  6 12  1  0  0  0  0
  7  4  1  0  0  0  0
  8  7  1  0  0  0  0
 10 16  1  0  0  0  0
 11  6  2  0  0  0  0
 12 13  1  6  0  0  0
 12 16  1  0  0  0  0
 13 14  1  0  0  0  0
 14  9  1  1  0  0  0
 14  2  1  0  0  0  0
 15 10  1  6  0  0  0
 16 15  1  0  0  0  0
 16  4  1  1  0  0  0
 17 18  1  0  0  0  0
 18 20  1  0  0  0  0
 20 19  1  6  0  0  0
 20 21  1  0  0  0  0
 22 21  1  0  0  0  0
 22 23  1  0  0  0  0
 23 26  1  0  0  0  0
 23 24  2  0  0  0  0
 24 29  1  0  0  0  0
 26 25  1  6  0  0  0
 27 28  1  0  0  0  0
 27 26  1  0  0  0  0
 29 31  1  0  0  0  0
 30 31  2  0  0  0  0
M  END
>  <MODEL>
5

>  <REMARK>
 VINA RESULT:      -7.1      2.907      5.115
  Name = 
  11 active torsions:
  status: ('A' for Active; 'I' for Inactive)
    1  A    between atoms: O_1  and  C_4
    2  A    between atoms: O_1  and  C_18
    3  A    between atoms: C_2  and  C_4
    4  A    between atoms: O_6  and  C_17
    5  A    between atoms: C_10  and  C_19
    6  A    between atoms: C_10  and  C_24
    7  A    between atoms: C_12  and  C_17
    8  A    between atoms: C_12  and  C_29
    9  A    between atoms: C_18  and  C_31
   10  A    between atoms: C_26  and  C_29
   11  A    between atoms: C_26  and  C_31
                            x       y       z     vdW  Elec       q    Type
                         _______ _______ _______ _____ _____    ______ ____

>  <TORSDO>
F 11

$$$$
=
 OpenBabel11062415013D

 31 33  0  0  1  0  0  0  0  0999 V2000
  191.3920  177.3740  140.3610 C   0  0  0  0  0  2  0  0  0  0  0  0
  190.4450  176.6310  139.4280 C   0  0  2  0  0  3  0  0  0  0  0  0
  186.9570  176.5190  134.9420 C   0  0  0  0  0  2  0  0  0  0  0  0
  187.1570  177.5300  137.8260 C   0  0  0  0  0  2  0  0  0  0  0  0
  187.9310  175.5360  135.2610 O   0  0  0  0  0  0  0  0  0  0  0  0
  187.9420  174.9180  136.5090 C   0  0  0  0  0  0  0  0  0  0  0  0
  186.9280  178.4360  136.6100 C   0  0  0  0  0  2  0  0  0  0  0  0
  187.4900  177.8990  135.2920 C   0  0  0  0  0  2  0  0  0  0  0  0
  192.1200  176.6160  137.6670 O   0  0  0  0  0  1  0  0  0  0  0  0
  189.5730  177.7930  137.5740 O   0  0  0  0  0  0  0  0  0  0  0  0
  187.2040  173.8770  136.7150 N   0  0  0  0  0  2  0  0  0  0  0  0
  188.8050  175.4370  137.6130 C   0  0  1  0  0  3  0  0  0  0  0  0
  190.2780  175.1220  137.3530 C   0  0  0  0  0  2  0  0  0  0  0  0
  191.2060  175.8130  138.3550 C   0  0  2  0  0  3  0  0  0  0  0  0
  189.3900  177.5430  138.9310 N   0  0  1  0  0  0  0  0  0  0  0  0
  188.5630  176.9360  137.9010 C   0  0  2  0  0  0  0  0  0  0  0  0
  190.8790  177.3800  141.6590 O   0  0  0  0  0  0  0  0  0  0  0  0
  191.9560  177.7340  142.4750 C   0  0  0  0  0  2  0  0  0  0  0  0
  191.3480  176.1330  144.2080 N   0  0  0  0  0  1  0  0  0  0  0  0
  191.5900  177.5410  143.9410 C   0  0  2  0  0  3  0  0  0  0  0  0
  190.3800  178.3780  144.3500 C   0  0  0  0  0  2  0  0  0  0  0  0
  189.7400  177.8770  145.6390 C   0  0  0  0  0  2  0  0  0  0  0  0
  188.2640  177.6900  145.4650 C   0  0  0  0  0  0  0  0  0  0  0  0
  187.7650  177.6230  144.2200 C   0  0  0  0  0  3  0  0  0  0  0  0
  186.4700  178.6710  146.9960 C   0  0  0  0  0  1  0  0  0  0  0  0
  187.3790  177.4860  146.6750 C   0  0  2  0  0  3  0  0  0  0  0  0
  188.0560  176.9610  147.7980 O   0  0  0  0  0  0  0  0  0  0  0  0
  188.0960  177.9370  148.8070 C   0  0  0  0  0  1  0  0  0  0  0  0
  186.3220  177.3730  143.9110 C   0  0  0  0  0  2  0  0  0  0  0  0
  186.6870  178.5700  141.8110 C   0  0  0  0  0  2  0  0  0  0  0  0
  185.8670  178.2770  142.8150 C   0  0  0  0  0  3  0  0  0  0  0  0
  1 17  1  0  0  0  0
  2  1  1  6  0  0  0
  3  5  1  0  0  0  0
  3  8  1  0  0  0  0
  5  6  1  0  0  0  0
  6 11  2  0  0  0  0
  6 12  1  0  0  0  0
  7  4  1  0  0  0  0
  8  7  1  0  0  0  0
 10 16  1  0  0  0  0
 12 13  1  6  0  0  0
 12 16  1  0  0  0  0
 13 14  1  0  0  0  0
 14  9  1  6  0  0  0
 14  2  1  0  0  0  0
 15 10  1  6  0  0  0
 15  2  1  0  0  0  0
 16  4  1  6  0  0  0
 16 15  1  0  0  0  0
 17 18  1  0  0  0  0
 18 20  1  0  0  0  0
 20 19  1  6  0  0  0
 20 21  1  0  0  0  0
 21 22  1  0  0  0  0
 23 22  1  0  0  0  0
 23 26  1  0  0  0  0
 24 23  2  0  0  0  0
 26 25  1  1  0  0  0
 26 27  1  0  0  0  0
 27 28  1  0  0  0  0
 29 24  1  0  0  0  0
 30 31  2  0  0  0  0
 31 29  1  0  0  0  0
M  END
>  <MODEL>
6

>  <REMARK>
 VINA RESULT:      -7.0      1.671      2.485
  Name = 
  11 active torsions:
  status: ('A' for Active; 'I' for Inactive)
    1  A    between atoms: O_1  and  C_4
    2  A    between atoms: O_1  and  C_18
    3  A    between atoms: C_2  and  C_4
    4  A    between atoms: O_6  and  C_17
    5  A    between atoms: C_10  and  C_19
    6  A    between atoms: C_10  and  C_24
    7  A    between atoms: C_12  and  C_17
    8  A    between atoms: C_12  and  C_29
    9  A    between atoms: C_18  and  C_31
   10  A    between atoms: C_26  and  C_29
   11  A    between atoms: C_26  and  C_31
                            x       y       z     vdW  Elec       q    Type
                         _______ _______ _______ _____ _____    ______ ____

>  <TORSDO>
F 11

$$$$
=
 OpenBabel11062415013D

 31 33  0  0  1  0  0  0  0  0999 V2000
  185.3090  179.2490  141.7520 C   0  0  0  0  0  2  0  0  0  0  0  0
  184.3640  178.4600  140.8540 C   0  0  2  0  0  3  0  0  0  0  0  0
  179.3250  177.7830  138.3150 C   0  0  0  0  0  2  0  0  0  0  0  0
  180.6950  177.6320  141.0490 C   0  0  0  0  0  2  0  0  0  0  0  0
  180.5930  177.5720  137.7120 O   0  0  0  0  0  0  0  0  0  0  0  0
  181.5240  176.7100  138.2860 C   0  0  0  0  0  0  0  0  0  0  0  0
  179.5120  178.5540  140.7280 C   0  0  0  0  0  2  0  0  0  0  0  0
  179.4000  178.9710  139.2610 C   0  0  0  0  0  2  0  0  0  0  0  0
  184.6390  180.0820  139.0650 O   0  0  0  0  0  1  0  0  0  0  0  0
  182.2540  179.3880  140.3740 O   0  0  0  0  0  0  0  0  0  0  0  0
  181.4790  175.4470  138.0180 N   0  0  0  0  0  2  0  0  0  0  0  0
  182.5850  177.2300  139.2030 C   0  0  1  0  0  3  0  0  0  0  0  0
  183.6530  177.9990  138.4270 C   0  0  0  0  0  2  0  0  0  0  0  0
  184.6410  178.7150  139.3510 C   0  0  2  0  0  3  0  0  0  0  0  0
  182.9640  178.6320  141.3020 N   0  0  1  0  0  0  0  0  0  0  0  0
  182.0050  178.0470  140.3790 C   0  0  2  0  0  0  0  0  0  0  0  0
  186.3080  178.4100  142.2490 O   0  0  0  0  0  0  0  0  0  0  0  0
  187.3820  178.5620  141.3690 C   0  0  0  0  0  2  0  0  0  0  0  0
  189.3100  177.1120  141.0260 N   0  0  0  0  0  1  0  0  0  0  0  0
  188.6500  177.9840  141.9820 C   0  0  2  0  0  3  0  0  0  0  0  0
  188.3730  177.2340  143.2850 C   0  0  0  0  0  2  0  0  0  0  0  0
  189.0720  177.8730  144.4790 C   0  0  0  0  0  2  0  0  0  0  0  0
  188.2380  177.7430  145.7170 C   0  0  0  0  0  0  0  0  0  0  0  0
  186.9380  178.0690  145.6560 C   0  0  0  0  0  3  0  0  0  0  0  0
  189.0110  178.1720  148.1140 C   0  0  0  0  0  1  0  0  0  0  0  0
  188.8420  177.1650  146.9780 C   0  0  2  0  0  3  0  0  0  0  0  0
  189.9810  176.3590  146.7520 O   0  0  0  0  0  0  0  0  0  0  0  0
  191.0370  176.8220  147.5530 C   0  0  0  0  0  1  0  0  0  0  0  0
  185.9850  177.9220  146.8010 C   0  0  0  0  0  2  0  0  0  0  0  0
  184.2600  178.7160  145.2610 C   0  0  0  0  0  2  0  0  0  0  0  0
  184.7140  178.6460  146.5080 C   0  0  0  0  0  3  0  0  0  0  0  0
  1 17  1  0  0  0  0
  2 15  1  0  0  0  0
  2  1  1  1  0  0  0
  3  8  1  0  0  0  0
  5  6  1  0  0  0  0
  5  3  1  0  0  0  0
  6 12  1  0  0  0  0
  7  4  1  0  0  0  0
  8  7  1  0  0  0  0
 10 16  1  0  0  0  0
 11  6  2  0  0  0  0
 12 13  1  6  0  0  0
 12 16  1  0  0  0  0
 13 14  1  0  0  0  0
 14  9  1  1  0  0  0
 14  2  1  0  0  0  0
 15 10  1  6  0  0  0
 16  4  1  1  0  0  0
 16 15  1  0  0  0  0
 18 20  1  0  0  0  0
 18 17  1  0  0  0  0
 20 19  1  6  0  0  0
 20 21  1  0  0  0  0
 21 22  1  0  0  0  0
 22 23  1  0  0  0  0
 23 26  1  0  0  0  0
 24 23  2  0  0  0  0
 24 29  1  0  0  0  0
 26 25  1  1  0  0  0
 27 26  1  0  0  0  0
 27 28  1  0  0  0  0
 30 31  2  0  0  0  0
 31 29  1  0  0  0  0
M  END
>  <MODEL>
7

>  <REMARK>
 VINA RESULT:      -7.0      3.752      6.102
  Name = 
  11 active torsions:
  status: ('A' for Active; 'I' for Inactive)
    1  A    between atoms: O_1  and  C_4
    2  A    between atoms: O_1  and  C_18
    3  A    between atoms: C_2  and  C_4
    4  A    between atoms: O_6  and  C_17
    5  A    between atoms: C_10  and  C_19
    6  A    between atoms: C_10  and  C_24
    7  A    between atoms: C_12  and  C_17
    8  A    between atoms: C_12  and  C_29
    9  A    between atoms: C_18  and  C_31
   10  A    between atoms: C_26  and  C_29
   11  A    between atoms: C_26  and  C_31
                            x       y       z     vdW  Elec       q    Type
                         _______ _______ _______ _____ _____    ______ ____

>  <TORSDO>
F 11

$$$$
=
 OpenBabel11062415013D

 31 33  0  0  1  0  0  0  0  0999 V2000
  191.6200  177.5590  140.4190 C   0  0  0  0  0  2  0  0  0  0  0  0
  190.6060  176.8230  139.5520 C   0  0  2  0  0  3  0  0  0  0  0  0
  186.9950  176.6770  135.1660 C   0  0  0  0  0  2  0  0  0  0  0  0
  187.3310  177.8260  137.9850 C   0  0  0  0  0  2  0  0  0  0  0  0
  187.9200  175.6570  135.5140 O   0  0  0  0  0  0  0  0  0  0  0  0
  187.9300  175.1060  136.7930 C   0  0  0  0  0  0  0  0  0  0  0  0
  187.1200  178.6780  136.7270 C   0  0  0  0  0  2  0  0  0  0  0  0
  187.6140  178.0400  135.4270 C   0  0  0  0  0  2  0  0  0  0  0  0
  192.2280  176.6180  137.7530 O   0  0  0  0  0  1  0  0  0  0  0  0
  189.7500  177.9350  137.6600 O   0  0  0  0  0  0  0  0  0  0  0  0
  187.1410  174.1230  137.0740 N   0  0  0  0  0  2  0  0  0  0  0  0
  188.8520  175.6330  137.8460 C   0  0  1  0  0  3  0  0  0  0  0  0
  190.2960  175.2190  137.5670 C   0  0  0  0  0  2  0  0  0  0  0  0
  191.2900  175.9070  138.5060 C   0  0  2  0  0  3  0  0  0  0  0  0
  189.5910  177.7680  139.0320 N   0  0  1  0  0  0  0  0  0  0  0  0
  188.7030  177.1560  138.0580 C   0  0  2  0  0  0  0  0  0  0  0  0
  191.7770  176.8960  141.6370 O   0  0  0  0  0  0  0  0  0  0  0  0
  191.0940  177.6810  142.5700 C   0  0  0  0  0  2  0  0  0  0  0  0
  191.6700  175.7290  143.9090 N   0  0  0  0  0  1  0  0  0  0  0  0
  190.7590  176.8560  143.8050 C   0  0  2  0  0  3  0  0  0  0  0  0
  189.3100  176.3730  143.8020 C   0  0  0  0  0  2  0  0  0  0  0  0
  188.3250  177.5030  143.5300 C   0  0  0  0  0  2  0  0  0  0  0  0
  187.3850  177.6810  144.6840 C   0  0  0  0  0  0  0  0  0  0  0  0
  187.8820  177.6520  145.9310 C   0  0  0  0  0  3  0  0  0  0  0  0
  185.5050  177.8770  142.9650 C   0  0  0  0  0  1  0  0  0  0  0  0
  185.9240  177.9790  144.4310 C   0  0  2  0  0  3  0  0  0  0  0  0
  185.4550  179.1420  145.0820 O   0  0  0  0  0  0  0  0  0  0  0  0
  184.0890  178.9880  145.3690 C   0  0  0  0  0  1  0  0  0  0  0  0
  187.0630  177.8820  147.1630 C   0  0  0  0  0  2  0  0  0  0  0  0
  189.2150  178.1540  148.2900 C   0  0  0  0  0  2  0  0  0  0  0  0
  187.9310  177.8230  148.3750 C   0  0  0  0  0  3  0  0  0  0  0  0
  1 17  1  0  0  0  0
  2  1  1  6  0  0  0
  3  8  1  0  0  0  0
  3  5  1  0  0  0  0
  5  6  1  0  0  0  0
  6 11  2  0  0  0  0
  6 12  1  0  0  0  0
  7  4  1  0  0  0  0
  8  7  1  0  0  0  0
 10 16  1  0  0  0  0
 12 13  1  6  0  0  0
 12 16  1  0  0  0  0
 13 14  1  0  0  0  0
 14  9  1  6  0  0  0
 14  2  1  0  0  0  0
 15 10  1  6  0  0  0
 15  2  1  0  0  0  0
 16  4  1  6  0  0  0
 16 15  1  0  0  0  0
 17 18  1  0  0  0  0
 18 20  1  0  0  0  0
 20 19  1  6  0  0  0
 21 20  1  0  0  0  0
 22 21  1  0  0  0  0
 22 23  1  0  0  0  0
 23 24  2  0  0  0  0
 24 29  1  0  0  0  0
 26 25  1  6  0  0  0
 26 23  1  0  0  0  0
 26 27  1  0  0  0  0
 27 28  1  0  0  0  0
 29 31  1  0  0  0  0
 30 31  2  0  0  0  0
M  END
>  <MODEL>
8

>  <REMARK>
 VINA RESULT:      -7.0      1.868      3.448
  Name = 
  11 active torsions:
  status: ('A' for Active; 'I' for Inactive)
    1  A    between atoms: O_1  and  C_4
    2  A    between atoms: O_1  and  C_18
    3  A    between atoms: C_2  and  C_4
    4  A    between atoms: O_6  and  C_17
    5  A    between atoms: C_10  and  C_19
    6  A    between atoms: C_10  and  C_24
    7  A    between atoms: C_12  and  C_17
    8  A    between atoms: C_12  and  C_29
    9  A    between atoms: C_18  and  C_31
   10  A    between atoms: C_26  and  C_29
   11  A    between atoms: C_26  and  C_31
                            x       y       z     vdW  Elec       q    Type
                         _______ _______ _______ _____ _____    ______ ____

>  <TORSDO>
F 11

$$$$
=
 OpenBabel11062415013D

 31 33  0  0  1  0  0  0  0  0999 V2000
  184.7350  179.0130  142.2590 C   0  0  0  0  0  2  0  0  0  0  0  0
  184.0530  178.2380  141.1390 C   0  0  2  0  0  3  0  0  0  0  0  0
  179.6900  177.4450  137.5840 C   0  0  0  0  0  2  0  0  0  0  0  0
  180.4920  177.1720  140.5270 C   0  0  0  0  0  2  0  0  0  0  0  0
  181.0660  177.3600  137.2420 O   0  0  0  0  0  0  0  0  0  0  0  0
  181.9260  176.5160  137.9410 C   0  0  0  0  0  0  0  0  0  0  0  0
  179.3310  178.0400  140.0280 C   0  0  0  0  0  2  0  0  0  0  0  0
  179.4830  178.5600  138.5970 C   0  0  0  0  0  2  0  0  0  0  0  0
  184.5550  180.0060  139.5490 O   0  0  0  0  0  1  0  0  0  0  0  0
  182.0160  179.0680  140.2950 O   0  0  0  0  0  0  0  0  0  0  0  0
  182.0310  175.2770  137.5910 N   0  0  0  0  0  2  0  0  0  0  0  0
  182.7380  177.0290  139.0860 C   0  0  1  0  0  3  0  0  0  0  0  0
  183.8790  177.9200  138.5940 C   0  0  0  0  0  2  0  0  0  0  0  0
  184.6040  178.6230  139.7430 C   0  0  2  0  0  3  0  0  0  0  0  0
  182.5820  178.2880  141.3000 N   0  0  1  0  0  0  0  0  0  0  0  0
  181.8740  177.7170  140.1660 C   0  0  2  0  0  0  0  0  0  0  0  0
  184.2120  178.6300  143.4950 O   0  0  0  0  0  0  0  0  0  0  0  0
  184.9110  179.3880  144.4370 C   0  0  0  0  0  2  0  0  0  0  0  0
  185.6810  179.3810  146.7490 N   0  0  0  0  0  1  0  0  0  0  0  0
  185.2530  178.5320  145.6490 C   0  0  2  0  0  3  0  0  0  0  0  0
  186.3220  177.4860  145.3360 C   0  0  0  0  0  2  0  0  0  0  0  0
  187.6930  177.8830  145.8690 C   0  0  0  0  0  2  0  0  0  0  0  0
  188.7690  177.5350  144.8850 C   0  0  0  0  0  0  0  0  0  0  0  0
  188.4270  176.8960  143.7550 C   0  0  0  0  0  3  0  0  0  0  0  0
  190.7220  178.9860  144.1060 C   0  0  0  0  0  1  0  0  0  0  0  0
  190.1930  177.9840  145.1310 C   0  0  2  0  0  3  0  0  0  0  0  0
  191.0870  176.9270  145.4150 O   0  0  0  0  0  0  0  0  0  0  0  0
  191.1630  176.7530  146.8060 C   0  0  0  0  0  1  0  0  0  0  0  0
  189.3940  176.5510  142.6650 C   0  0  0  0  0  2  0  0  0  0  0  0
  188.2800  178.2860  141.3520 C   0  0  0  0  0  2  0  0  0  0  0  0
  188.9350  177.1300  141.3690 C   0  0  0  0  0  3  0  0  0  0  0  0
  1 17  1  0  0  0  0
  2 15  1  0  0  0  0
  2  1  1  1  0  0  0
  3  8  1  0  0  0  0
  5  3  1  0  0  0  0
  5  6  1  0  0  0  0
  6 12  1  0  0  0  0
  7  4  1  0  0  0  0
  8  7  1  0  0  0  0
 11  6  2  0  0  0  0
 12 13  1  6  0  0  0
 12 16  1  0  0  0  0
 13 14  1  0  0  0  0
 14  9  1  6  0  0  0
 14  2  1  0  0  0  0
 15 10  1  6  0  0  0
 16 10  1  0  0  0  0
 16  4  1  1  0  0  0
 16 15  1  0  0  0  0
 17 18  1  0  0  0  0
 18 20  1  0  0  0  0
 20 19  1  1  0  0  0
 21 20  1  0  0  0  0
 21 22  1  0  0  0  0
 23 26  1  0  0  0  0
 23 22  1  0  0  0  0
 24 23  2  0  0  0  0
 26 25  1  6  0  0  0
 26 27  1  0  0  0  0
 27 28  1  0  0  0  0
 29 24  1  0  0  0  0
 30 31  2  0  0  0  0
 31 29  1  0  0  0  0
M  END
>  <MODEL>
9

>  <REMARK>
 VINA RESULT:      -7.0      3.990      6.459
  Name = 
  11 active torsions:
  status: ('A' for Active; 'I' for Inactive)
    1  A    between atoms: O_1  and  C_4
    2  A    between atoms: O_1  and  C_18
    3  A    between atoms: C_2  and  C_4
    4  A    between atoms: O_6  and  C_17
    5  A    between atoms: C_10  and  C_19
    6  A    between atoms: C_10  and  C_24
    7  A    between atoms: C_12  and  C_17
    8  A    between atoms: C_12  and  C_29
    9  A    between atoms: C_18  and  C_31
   10  A    between atoms: C_26  and  C_29
   11  A    between atoms: C_26  and  C_31
                            x       y       z     vdW  Elec       q    Type
                         _______ _______ _______ _____ _____    ______ ____

>  <TORSDO>
F 11

$$$$
