=
 OpenBabel11062413193D

 30 32  0  0  1  0  0  0  0  0999 V2000
  183.0480  178.7800  143.5690 C   0  0  0  0  0  0  0  0  0  0  0  0
  184.9140  179.2540  145.1530 C   0  0  2  0  0  3  0  0  0  0  0  0
  184.0120  178.3570  142.5340 C   0  0  0  0  0  0  0  0  0  0  0  0
  187.1630  177.8620  146.2570 C   0  0  0  0  0  0  0  0  0  0  0  0
  186.8750  177.7740  144.7920 C   0  0  0  0  0  0  0  0  0  0  0  0
  183.4610  179.1620  144.7790 C   0  0  0  0  0  3  0  0  0  0  0  0
  185.7780  178.3720  144.2810 C   0  0  0  0  0  0  0  0  0  0  0  0
  185.4880  178.3460  142.8040 C   0  0  0  0  0  2  0  0  0  0  0  0
  181.6860  178.7570  143.2950 O   0  0  0  0  0  1  0  0  0  0  0  0
  183.5970  178.0190  141.3950 O   0  0  0  0  0  0  0  0  0  0  0  0
  185.0660  178.9550  146.5400 O   0  0  0  0  0  0  0  0  0  0  0  0
  186.2440  178.4130  147.0580 C   0  0  0  0  0  3  0  0  0  0  0  0
  188.3720  176.4350  147.7470 O   0  0  0  0  0  0  0  0  0  0  0  0
  188.4140  177.3330  146.8640 C   0  0  0  0  0  0  0  0  0  0  0  0
  189.7590  177.8170  146.4150 C   0  0  0  0  0  2  0  0  0  0  0  0
  191.5940  176.5790  145.3100 C   0  0  0  0  0  1  0  0  0  0  0  0
  190.8090  176.7340  146.5950 C   0  0  1  0  0  3  0  0  0  0  0  0
  191.6800  177.0820  147.6280 O   0  0  0  0  0  1  0  0  0  0  0  0
  187.7490  176.9420  143.8970 C   0  0  0  0  0  2  0  0  0  0  0  0
  188.6540  177.8390  143.0770 C   0  0  0  0  0  2  0  0  0  0  0  0
  189.5820  176.9850  142.2360 C   0  0  0  0  0  2  0  0  0  0  0  0
  187.9910  177.5830  140.3930 N   0  0  0  0  0  0  0  0  0  0  0  0
  186.2030  178.5780  139.2520 N   0  0  0  0  0  1  0  0  0  0  0  0
  189.3330  177.2370  140.7850 C   0  0  0  0  0  0  0  0  0  0  0  0
  191.5980  176.6950  140.3420 O   0  0  0  0  0  1  0  0  0  0  0  0
  187.5940  178.3080  139.3850 C   0  0  0  0  0  0  0  0  0  0  0  0
  190.3230  177.0350  139.9000 C   0  0  0  0  0  0  0  0  0  0  0  0
  188.5050  178.9750  138.4970 N   0  0  0  0  0  0  0  0  0  0  0  0
  189.6330  178.4960  138.0710 C   0  0  0  0  0  3  0  0  0  0  0  0
  190.0940  177.1280  138.4320 C   0  0  0  0  0  2  0  0  0  0  0  0
  1  6  2  0  0  0  0
  2  6  1  6  0  0  0
  2 11  1  0  0  0  0
  3  8  1  0  0  0  0
  3  1  1  0  0  0  0
  4 14  1  0  0  0  0
  4 12  2  0  0  0  0
  5  4  1  0  0  0  0
  7  5  2  0  0  0  0
  7  2  1  0  0  0  0
  8  7  1  0  0  0  0
  9  1  1  0  0  0  0
 10  3  2  0  0  0  0
 11 12  1  0  0  0  0
 14 13  2  0  0  0  0
 15 17  1  0  0  0  0
 15 14  1  0  0  0  0
 17 16  1  6  0  0  0
 17 18  1  0  0  0  0
 19  5  1  0  0  0  0
 20 19  1  0  0  0  0
 21 20  1  0  0  0  0
 22 24  1  0  0  0  0
 23 26  1  0  0  0  0
 24 21  1  0  0  0  0
 26 22  2  0  0  0  0
 27 25  1  0  0  0  0
 27 24  2  0  0  0  0
 28 26  1  0  0  0  0
 29 30  1  0  0  0  0
 29 28  2  0  0  0  0
 30 27  1  0  0  0  0
M  END
>  <MODEL>
1

>  <REMARK>
 VINA RESULT:      -9.4      0.000      0.000
  Name = 
  7 active torsions:
  status: ('A' for Active; 'I' for Inactive)
    1  A    between atoms: C_5  and  C_10
    2  A    between atoms: C_6  and  C_26
    3  A    between atoms: C_10  and  C_20
    4  A    between atoms: C_12  and  C_22
    5  A    between atoms: C_14  and  C_20
    6  A    between atoms: C_21  and  C_22
    7  A    between atoms: C_21  and  C_26
                            x       y       z     vdW  Elec       q    Type
                         _______ _______ _______ _____ _____    ______ ____

>  <TORSDO>
F 7

$$$$
=
 OpenBabel11062413193D

 30 32  0  0  1  0  0  0  0  0999 V2000
  183.1500  178.8530  143.5500 C   0  0  0  0  0  0  0  0  0  0  0  0
  185.0610  179.3150  145.0830 C   0  0  2  0  0  3  0  0  0  0  0  0
  184.0710  178.2800  142.5480 C   0  0  0  0  0  0  0  0  0  0  0  0
  187.2150  177.8560  146.2850 C   0  0  0  0  0  0  0  0  0  0  0  0
  186.9080  177.6720  144.8330 C   0  0  0  0  0  0  0  0  0  0  0  0
  183.6020  179.2990  144.7240 C   0  0  0  0  0  3  0  0  0  0  0  0
  185.8510  178.3060  144.2810 C   0  0  0  0  0  0  0  0  0  0  0  0
  185.5450  178.1830  142.8120 C   0  0  0  0  0  2  0  0  0  0  0  0
  181.7880  178.9060  143.2840 O   0  0  0  0  0  1  0  0  0  0  0  0
  183.6220  177.8830  141.4410 O   0  0  0  0  0  0  0  0  0  0  0  0
  185.2050  179.1170  146.4880 O   0  0  0  0  0  0  0  0  0  0  0  0
  186.3470  178.5340  147.0430 C   0  0  0  0  0  3  0  0  0  0  0  0
  188.3400  176.3430  147.7560 O   0  0  0  0  0  0  0  0  0  0  0  0
  188.4310  177.2880  146.9280 C   0  0  0  0  0  0  0  0  0  0  0  0
  189.7990  177.7880  146.5770 C   0  0  0  0  0  2  0  0  0  0  0  0
  191.6500  176.5270  145.5260 C   0  0  0  0  0  1  0  0  0  0  0  0
  190.8420  176.7040  146.7930 C   0  0  1  0  0  3  0  0  0  0  0  0
  191.6940  177.0650  147.8370 O   0  0  0  0  0  1  0  0  0  0  0  0
  187.7100  176.7110  144.0050 C   0  0  0  0  0  2  0  0  0  0  0  0
  188.7640  177.4610  143.2140 C   0  0  0  0  0  2  0  0  0  0  0  0
  189.6330  176.4700  142.4670 C   0  0  0  0  0  2  0  0  0  0  0  0
  191.4830  177.2080  140.9450 N   0  0  0  0  0  0  0  0  0  0  0  0
  193.5630  177.2860  139.8690 N   0  0  0  0  0  1  0  0  0  0  0  0
  190.0680  177.0540  141.1630 C   0  0  0  0  0  0  0  0  0  0  0  0
  187.7890  177.3300  140.5710 O   0  0  0  0  0  1  0  0  0  0  0  0
  192.1440  177.1940  139.8210 C   0  0  0  0  0  0  0  0  0  0  0  0
  189.1420  177.5030  140.2990 C   0  0  0  0  0  0  0  0  0  0  0  0
  191.5220  176.9320  138.5530 N   0  0  0  0  0  0  0  0  0  0  0  0
  190.3510  177.3510  138.1840 C   0  0  0  0  0  3  0  0  0  0  0  0
  189.5180  178.2260  139.0530 C   0  0  0  0  0  2  0  0  0  0  0  0
  1  6  2  0  0  0  0
  2  6  1  6  0  0  0
  2 11  1  0  0  0  0
  3  8  1  0  0  0  0
  3  1  1  0  0  0  0
  4 14  1  0  0  0  0
  4 12  2  0  0  0  0
  5  4  1  0  0  0  0
  7  5  2  0  0  0  0
  7  2  1  0  0  0  0
  8  7  1  0  0  0  0
  9  1  1  0  0  0  0
 10  3  2  0  0  0  0
 11 12  1  0  0  0  0
 14 13  2  0  0  0  0
 15 17  1  0  0  0  0
 15 14  1  0  0  0  0
 17 16  1  6  0  0  0
 17 18  1  0  0  0  0
 19  5  1  0  0  0  0
 20 19  1  0  0  0  0
 21 20  1  0  0  0  0
 22 24  1  0  0  0  0
 24 21  1  0  0  0  0
 26 23  1  0  0  0  0
 26 22  2  0  0  0  0
 27 25  1  0  0  0  0
 27 24  2  0  0  0  0
 28 26  1  0  0  0  0
 29 28  2  0  0  0  0
 29 30  1  0  0  0  0
 30 27  1  0  0  0  0
M  END
>  <MODEL>
2

>  <REMARK>
 VINA RESULT:      -8.9      1.637      2.053
  Name = 
  7 active torsions:
  status: ('A' for Active; 'I' for Inactive)
    1  A    between atoms: C_5  and  C_10
    2  A    between atoms: C_6  and  C_26
    3  A    between atoms: C_10  and  C_20
    4  A    between atoms: C_12  and  C_22
    5  A    between atoms: C_14  and  C_20
    6  A    between atoms: C_21  and  C_22
    7  A    between atoms: C_21  and  C_26
                            x       y       z     vdW  Elec       q    Type
                         _______ _______ _______ _____ _____    ______ ____

>  <TORSDO>
F 7

$$$$
=
 OpenBabel11062413193D

 30 32  0  0  1  0  0  0  0  0999 V2000
  189.3170  178.0240  137.7390 C   0  0  0  0  0  0  0  0  0  0  0  0
  190.5530  176.9480  139.6180 C   0  0  2  0  0  3  0  0  0  0  0  0
  188.1030  178.1260  138.5740 C   0  0  0  0  0  0  0  0  0  0  0  0
  191.1570  177.5200  142.3610 C   0  0  0  0  0  0  0  0  0  0  0  0
  189.7670  177.7160  141.8460 C   0  0  0  0  0  0  0  0  0  0  0  0
  190.4480  177.5120  138.2290 C   0  0  0  0  0  3  0  0  0  0  0  0
  189.4960  177.5140  140.5390 C   0  0  0  0  0  0  0  0  0  0  0  0
  188.0970  177.6530  139.9980 C   0  0  0  0  0  2  0  0  0  0  0  0
  189.2960  178.4920  136.4320 O   0  0  0  0  0  1  0  0  0  0  0  0
  187.0450  178.5950  138.0820 O   0  0  0  0  0  0  0  0  0  0  0  0
  191.8720  177.1630  140.1170 O   0  0  0  0  0  0  0  0  0  0  0  0
  192.1380  177.2850  141.4830 C   0  0  0  0  0  3  0  0  0  0  0  0
  191.8880  178.6910  144.3130 O   0  0  0  0  0  0  0  0  0  0  0  0
  191.4980  177.6050  143.8060 C   0  0  0  0  0  0  0  0  0  0  0  0
  191.3450  176.4200  144.7110 C   0  0  0  0  0  2  0  0  0  0  0  0
  190.2120  176.9080  146.8560 C   0  0  0  0  0  1  0  0  0  0  0  0
  191.5550  176.8190  146.1620 C   0  0  1  0  0  3  0  0  0  0  0  0
  192.3450  175.8670  146.8080 O   0  0  0  0  0  1  0  0  0  0  0  0
  188.6880  178.2320  142.7540 C   0  0  0  0  0  2  0  0  0  0  0  0
  187.8720  177.0760  143.2980 C   0  0  0  0  0  2  0  0  0  0  0  0
  187.0890  177.5390  144.5110 C   0  0  0  0  0  2  0  0  0  0  0  0
  185.8470  178.7840  142.7240 N   0  0  0  0  0  0  0  0  0  0  0  0
  185.0540  179.4120  140.6110 N   0  0  0  0  0  1  0  0  0  0  0  0
  185.8740  178.2910  144.0770 C   0  0  0  0  0  0  0  0  0  0  0  0
  185.0010  178.0680  146.2700 O   0  0  0  0  0  1  0  0  0  0  0  0
  184.8190  178.9970  141.9510 C   0  0  0  0  0  0  0  0  0  0  0  0
  184.9130  178.5680  144.9740 C   0  0  0  0  0  0  0  0  0  0  0  0
  183.4720  178.6800  142.3390 N   0  0  0  0  0  0  0  0  0  0  0  0
  182.9700  178.8380  143.5240 C   0  0  0  0  0  3  0  0  0  0  0  0
  183.7530  179.4370  144.6380 C   0  0  0  0  0  2  0  0  0  0  0  0
  1  6  2  0  0  0  0
  1  3  1  0  0  0  0
  2  6  1  6  0  0  0
  2 11  1  0  0  0  0
  2  7  1  0  0  0  0
  3  8  1  0  0  0  0
  4 14  1  0  0  0  0
  5  4  1  0  0  0  0
  5 19  1  0  0  0  0
  7  5  2  0  0  0  0
  8  7  1  0  0  0  0
  9  1  1  0  0  0  0
 10  3  2  0  0  0  0
 11 12  1  0  0  0  0
 12  4  2  0  0  0  0
 14 13  2  0  0  0  0
 14 15  1  0  0  0  0
 15 17  1  0  0  0  0
 17 18  1  0  0  0  0
 17 16  1  1  0  0  0
 19 20  1  0  0  0  0
 20 21  1  0  0  0  0
 22 24  1  0  0  0  0
 23 26  1  0  0  0  0
 24 21  1  0  0  0  0
 24 27  2  0  0  0  0
 26 28  1  0  0  0  0
 26 22  2  0  0  0  0
 27 25  1  0  0  0  0
 28 29  2  0  0  0  0
 29 30  1  0  0  0  0
 30 27  1  0  0  0  0
M  END
>  <MODEL>
3

>  <REMARK>
 VINA RESULT:      -8.6      1.980      6.102
  Name = 
  7 active torsions:
  status: ('A' for Active; 'I' for Inactive)
    1  A    between atoms: C_5  and  C_10
    2  A    between atoms: C_6  and  C_26
    3  A    between atoms: C_10  and  C_20
    4  A    between atoms: C_12  and  C_22
    5  A    between atoms: C_14  and  C_20
    6  A    between atoms: C_21  and  C_22
    7  A    between atoms: C_21  and  C_26
                            x       y       z     vdW  Elec       q    Type
                         _______ _______ _______ _____ _____    ______ ____

>  <TORSDO>
F 7

$$$$
=
 OpenBabel11062413193D

 30 32  0  0  1  0  0  0  0  0999 V2000
  190.9000  176.8010  146.7160 C   0  0  0  0  0  0  0  0  0  0  0  0
  191.1320  177.8070  144.4470 C   0  0  2  0  0  3  0  0  0  0  0  0
  189.4310  176.9240  146.6380 C   0  0  0  0  0  0  0  0  0  0  0  0
  190.1320  177.3300  141.8040 C   0  0  0  0  0  0  0  0  0  0  0  0
  189.1990  177.2990  142.9720 C   0  0  0  0  0  0  0  0  0  0  0  0
  191.6770  177.1780  145.6990 C   0  0  0  0  0  3  0  0  0  0  0  0
  189.6790  177.4550  144.2240 C   0  0  0  0  0  0  0  0  0  0  0  0
  188.7610  177.4810  145.4170 C   0  0  0  0  0  2  0  0  0  0  0  0
  191.4880  176.2590  147.8520 O   0  0  0  0  0  1  0  0  0  0  0  0
  188.7220  176.5790  147.6190 O   0  0  0  0  0  0  0  0  0  0  0  0
  191.9510  177.4410  143.3380 O   0  0  0  0  0  0  0  0  0  0  0  0
  191.4490  177.3670  142.0360 C   0  0  0  0  0  3  0  0  0  0  0  0
  189.8400  176.2640  139.6840 O   0  0  0  0  0  0  0  0  0  0  0  0
  189.6580  177.2880  140.3940 C   0  0  0  0  0  0  0  0  0  0  0  0
  188.9120  178.4390  139.7930 C   0  0  0  0  0  2  0  0  0  0  0  0
  187.3250  177.8670  137.9830 C   0  0  0  0  0  1  0  0  0  0  0  0
  188.7540  178.2560  138.2930 C   0  0  1  0  0  3  0  0  0  0  0  0
  189.0620  179.4460  137.6330 O   0  0  0  0  0  1  0  0  0  0  0  0
  187.7420  176.9990  142.7700 C   0  0  0  0  0  2  0  0  0  0  0  0
  186.9680  178.2890  142.5810 C   0  0  0  0  0  2  0  0  0  0  0  0
  185.7460  178.2800  143.4770 C   0  0  0  0  0  2  0  0  0  0  0  0
  184.7710  179.2650  141.3890 N   0  0  0  0  0  0  0  0  0  0  0  0
  184.4410  179.7600  139.1230 N   0  0  0  0  0  1  0  0  0  0  0  0
  184.5520  178.7530  142.7170 C   0  0  0  0  0  0  0  0  0  0  0  0
  183.2060  178.2780  144.6110 O   0  0  0  0  0  1  0  0  0  0  0  0
  183.9620  179.2650  140.3670 C   0  0  0  0  0  0  0  0  0  0  0  0
  183.3530  178.7820  143.3220 C   0  0  0  0  0  0  0  0  0  0  0  0
  182.6670  178.6440  140.3980 N   0  0  0  0  0  0  0  0  0  0  0  0
  181.8480  178.6520  141.4040 C   0  0  0  0  0  3  0  0  0  0  0  0
  182.1570  179.3790  142.6650 C   0  0  0  0  0  2  0  0  0  0  0  0
  1  9  1  0  0  0  0
  2  6  1  1  0  0  0
  3  1  1  0  0  0  0
  3 10  2  0  0  0  0
  4 12  2  0  0  0  0
  4  5  1  0  0  0  0
  5  7  2  0  0  0  0
  6  1  2  0  0  0  0
  7  2  1  0  0  0  0
  7  8  1  0  0  0  0
  8  3  1  0  0  0  0
 11  2  1  0  0  0  0
 12 11  1  0  0  0  0
 13 14  2  0  0  0  0
 14  4  1  0  0  0  0
 15 14  1  0  0  0  0
 17 16  1  1  0  0  0
 17 15  1  0  0  0  0
 18 17  1  0  0  0  0
 19  5  1  0  0  0  0
 20 19  1  0  0  0  0
 20 21  1  0  0  0  0
 22 24  1  0  0  0  0
 23 26  1  0  0  0  0
 24 27  2  0  0  0  0
 24 21  1  0  0  0  0
 26 28  1  0  0  0  0
 26 22  2  0  0  0  0
 27 25  1  0  0  0  0
 28 29  2  0  0  0  0
 29 30  1  0  0  0  0
 30 27  1  0  0  0  0
M  END
>  <MODEL>
4

>  <REMARK>
 VINA RESULT:      -8.5      1.847      6.988
  Name = 
  7 active torsions:
  status: ('A' for Active; 'I' for Inactive)
    1  A    between atoms: C_5  and  C_10
    2  A    between atoms: C_6  and  C_26
    3  A    between atoms: C_10  and  C_20
    4  A    between atoms: C_12  and  C_22
    5  A    between atoms: C_14  and  C_20
    6  A    between atoms: C_21  and  C_22
    7  A    between atoms: C_21  and  C_26
                            x       y       z     vdW  Elec       q    Type
                         _______ _______ _______ _____ _____    ______ ____

>  <TORSDO>
F 7

$$$$
=
 OpenBabel11062413193D

 30 32  0  0  1  0  0  0  0  0999 V2000
  189.7690  177.1510  145.1830 C   0  0  0  0  0  0  0  0  0  0  0  0
  187.4000  177.5280  145.8630 C   0  0  2  0  0  3  0  0  0  0  0  0
  189.3260  176.5730  143.8990 C   0  0  0  0  0  0  0  0  0  0  0  0
  185.0780  178.8420  144.8150 C   0  0  0  0  0  0  0  0  0  0  0  0
  185.9080  177.9710  143.9260 C   0  0  0  0  0  0  0  0  0  0  0  0
  188.8860  177.6170  146.0700 C   0  0  0  0  0  3  0  0  0  0  0  0
  187.0400  177.4070  144.3990 C   0  0  0  0  0  0  0  0  0  0  0  0
  187.8700  176.4840  143.5470 C   0  0  0  0  0  2  0  0  0  0  0  0
  191.1250  177.2400  145.4690 O   0  0  0  0  0  1  0  0  0  0  0  0
  190.1780  176.1240  143.0890 O   0  0  0  0  0  0  0  0  0  0  0  0
  186.7690  178.6480  146.4810 O   0  0  0  0  0  0  0  0  0  0  0  0
  185.5530  179.1620  146.0230 C   0  0  0  0  0  3  0  0  0  0  0  0
  183.6510  180.5930  144.0310 O   0  0  0  0  0  0  0  0  0  0  0  0
  183.7600  179.3930  144.3980 C   0  0  0  0  0  0  0  0  0  0  0  0
  182.5370  178.5290  144.3570 C   0  0  0  0  0  2  0  0  0  0  0  0
  181.8260  178.6320  141.9890 C   0  0  0  0  0  1  0  0  0  0  0  0
  181.5080  179.0970  143.3940 C   0  0  1  0  0  3  0  0  0  0  0  0
  180.2310  178.6580  143.7470 O   0  0  0  0  0  1  0  0  0  0  0  0
  185.5420  177.7970  142.4810 C   0  0  0  0  0  2  0  0  0  0  0  0
  185.9350  179.0310  141.6940 C   0  0  0  0  0  2  0  0  0  0  0  0
  185.1650  179.0640  140.3890 C   0  0  0  0  0  2  0  0  0  0  0  0
  187.4420  178.5670  139.4670 N   0  0  0  0  0  0  0  0  0  0  0  0
  189.7040  177.9640  139.3670 N   0  0  0  0  0  1  0  0  0  0  0  0
  186.0150  178.5330  139.2810 C   0  0  0  0  0  0  0  0  0  0  0  0
  184.0500  178.1410  138.0140 O   0  0  0  0  0  1  0  0  0  0  0  0
  188.3520  177.7760  138.9680 C   0  0  0  0  0  0  0  0  0  0  0  0
  185.4360  178.1450  138.1330 C   0  0  0  0  0  0  0  0  0  0  0  0
  188.0330  176.6300  138.1620 N   0  0  0  0  0  0  0  0  0  0  0  0
  187.0900  176.5700  137.2730 C   0  0  0  0  0  3  0  0  0  0  0  0
  186.2400  177.7460  136.9450 C   0  0  0  0  0  2  0  0  0  0  0  0
  1  9  1  0  0  0  0
  1  6  2  0  0  0  0
  2  6  1  6  0  0  0
  2 11  1  0  0  0  0
  3  1  1  0  0  0  0
  4 12  2  0  0  0  0
  5  7  2  0  0  0  0
  5  4  1  0  0  0  0
  7  2  1  0  0  0  0
  8  3  1  0  0  0  0
  8  7  1  0  0  0  0
 10  3  2  0  0  0  0
 12 11  1  0  0  0  0
 13 14  2  0  0  0  0
 14  4  1  0  0  0  0
 15 14  1  0  0  0  0
 17 16  1  6  0  0  0
 17 18  1  0  0  0  0
 17 15  1  0  0  0  0
 19  5  1  0  0  0  0
 20 19  1  0  0  0  0
 21 20  1  0  0  0  0
 24 22  1  0  0  0  0
 24 21  1  0  0  0  0
 25 27  1  0  0  0  0
 26 23  1  0  0  0  0
 26 22  2  0  0  0  0
 27 24  2  0  0  0  0
 28 26  1  0  0  0  0
 29 28  2  0  0  0  0
 30 29  1  0  0  0  0
 30 27  1  0  0  0  0
M  END
>  <MODEL>
5

>  <REMARK>
 VINA RESULT:      -8.4      1.832      5.791
  Name = 
  7 active torsions:
  status: ('A' for Active; 'I' for Inactive)
    1  A    between atoms: C_5  and  C_10
    2  A    between atoms: C_6  and  C_26
    3  A    between atoms: C_10  and  C_20
    4  A    between atoms: C_12  and  C_22
    5  A    between atoms: C_14  and  C_20
    6  A    between atoms: C_21  and  C_22
    7  A    between atoms: C_21  and  C_26
                            x       y       z     vdW  Elec       q    Type
                         _______ _______ _______ _____ _____    ______ ____

>  <TORSDO>
F 7

$$$$
=
 OpenBabel11062413193D

 30 32  0  0  1  0  0  0  0  0999 V2000
  187.8000  178.1550  147.6880 C   0  0  0  0  0  0  0  0  0  0  0  0
  185.8170  178.1520  146.1760 C   0  0  2  0  0  3  0  0  0  0  0  0
  188.5110  177.2300  146.7830 C   0  0  0  0  0  0  0  0  0  0  0  0
  185.2560  178.6740  143.4140 C   0  0  0  0  0  0  0  0  0  0  0  0
  186.4330  177.8310  143.7910 C   0  0  0  0  0  0  0  0  0  0  0  0
  186.5770  178.6010  147.3930 C   0  0  0  0  0  3  0  0  0  0  0  0
  186.7390  177.6400  145.0920 C   0  0  0  0  0  0  0  0  0  0  0  0
  187.8840  176.7550  145.5050 C   0  0  0  0  0  2  0  0  0  0  0  0
  188.4180  178.5940  148.8510 O   0  0  0  0  0  1  0  0  0  0  0  0
  189.6560  176.8100  147.0940 O   0  0  0  0  0  0  0  0  0  0  0  0
  184.9860  179.2160  145.7180 O   0  0  0  0  0  0  0  0  0  0  0  0
  184.6140  179.3440  144.3770 C   0  0  0  0  0  3  0  0  0  0  0  0
  185.2460  179.7410  141.2750 O   0  0  0  0  0  0  0  0  0  0  0  0
  184.7910  178.8240  142.0090 C   0  0  0  0  0  0  0  0  0  0  0  0
  183.8070  177.8660  141.4120 C   0  0  0  0  0  2  0  0  0  0  0  0
  181.6110  177.6270  140.2970 C   0  0  0  0  0  1  0  0  0  0  0  0
  182.5050  178.5710  141.0710 C   0  0  1  0  0  3  0  0  0  0  0  0
  181.8560  178.9640  142.2430 O   0  0  0  0  0  1  0  0  0  0  0  0
  187.3350  177.2720  142.7290 C   0  0  0  0  0  2  0  0  0  0  0  0
  188.2370  178.3630  142.1870 C   0  0  0  0  0  2  0  0  0  0  0  0
  189.4130  177.7330  141.4680 C   0  0  0  0  0  2  0  0  0  0  0  0
  187.7850  177.8590  139.5670 N   0  0  0  0  0  0  0  0  0  0  0  0
  185.9330  178.4950  138.2790 N   0  0  0  0  0  1  0  0  0  0  0  0
  189.1470  177.6850  139.9990 C   0  0  0  0  0  0  0  0  0  0  0  0
  191.4450  177.2230  139.6380 O   0  0  0  0  0  1  0  0  0  0  0  0
  187.3390  178.3490  138.4440 C   0  0  0  0  0  0  0  0  0  0  0  0
  190.1490  177.3850  139.1560 C   0  0  0  0  0  0  0  0  0  0  0  0
  188.2020  178.8930  137.4320 N   0  0  0  0  0  0  0  0  0  0  0  0
  189.3600  178.4180  137.0910 C   0  0  0  0  0  3  0  0  0  0  0  0
  189.9140  177.1800  137.7010 C   0  0  0  0  0  2  0  0  0  0  0  0
  1  9  1  0  0  0  0
  2  6  1  1  0  0  0
  3 10  2  0  0  0  0
  3  1  1  0  0  0  0
  4  5  1  0  0  0  0
  4 12  2  0  0  0  0
  5  7  2  0  0  0  0
  6  1  2  0  0  0  0
  7  8  1  0  0  0  0
  7  2  1  0  0  0  0
  8  3  1  0  0  0  0
 11  2  1  0  0  0  0
 12 11  1  0  0  0  0
 13 14  2  0  0  0  0
 14  4  1  0  0  0  0
 15 14  1  0  0  0  0
 17 16  1  1  0  0  0
 17 15  1  0  0  0  0
 17 18  1  0  0  0  0
 19  5  1  0  0  0  0
 20 19  1  0  0  0  0
 21 20  1  0  0  0  0
 22 24  1  0  0  0  0
 23 26  1  0  0  0  0
 24 21  1  0  0  0  0
 26 22  2  0  0  0  0
 27 25  1  0  0  0  0
 27 24  2  0  0  0  0
 28 26  1  0  0  0  0
 29 28  2  0  0  0  0
 29 30  1  0  0  0  0
 30 27  1  0  0  0  0
M  END
>  <MODEL>
6

>  <REMARK>
 VINA RESULT:      -8.4      1.355      5.231
  Name = 
  7 active torsions:
  status: ('A' for Active; 'I' for Inactive)
    1  A    between atoms: C_5  and  C_10
    2  A    between atoms: C_6  and  C_26
    3  A    between atoms: C_10  and  C_20
    4  A    between atoms: C_12  and  C_22
    5  A    between atoms: C_14  and  C_20
    6  A    between atoms: C_21  and  C_22
    7  A    between atoms: C_21  and  C_26
                            x       y       z     vdW  Elec       q    Type
                         _______ _______ _______ _____ _____    ______ ____

>  <TORSDO>
F 7

$$$$
=
 OpenBabel11062413193D

 30 32  0  0  1  0  0  0  0  0999 V2000
  190.3670  177.0750  145.8670 C   0  0  0  0  0  0  0  0  0  0  0  0
  187.9330  177.3480  146.3320 C   0  0  2  0  0  3  0  0  0  0  0  0
  190.0680  176.5720  144.5120 C   0  0  0  0  0  0  0  0  0  0  0  0
  185.6840  178.6710  145.1460 C   0  0  0  0  0  0  0  0  0  0  0  0
  186.6220  177.8810  144.2900 C   0  0  0  0  0  0  0  0  0  0  0  0
  189.3890  177.4590  146.6900 C   0  0  0  0  0  3  0  0  0  0  0  0
  187.7200  177.3150  144.8360 C   0  0  0  0  0  0  0  0  0  0  0  0
  188.6570  176.4710  144.0130 C   0  0  0  0  0  2  0  0  0  0  0  0
  191.6860  177.1780  146.2900 O   0  0  0  0  0  1  0  0  0  0  0  0
  191.0080  176.1990  143.7630 O   0  0  0  0  0  0  0  0  0  0  0  0
  187.2100  178.4090  146.9550 O   0  0  0  0  0  0  0  0  0  0  0  0
  186.0290  178.9220  146.4130 C   0  0  0  0  0  3  0  0  0  0  0  0
  184.2910  180.4310  144.3210 O   0  0  0  0  0  0  0  0  0  0  0  0
  184.3960  179.2160  144.6370 C   0  0  0  0  0  0  0  0  0  0  0  0
  183.2030  178.3310  144.4400 C   0  0  0  0  0  2  0  0  0  0  0  0
  182.3910  178.6280  142.1220 C   0  0  0  0  0  1  0  0  0  0  0  0
  182.1630  179.0130  143.5680 C   0  0  1  0  0  3  0  0  0  0  0  0
  180.8830  178.6150  143.9540 O   0  0  0  0  0  1  0  0  0  0  0  0
  186.4040  177.7940  142.8070 C   0  0  0  0  0  2  0  0  0  0  0  0
  187.4870  178.5630  142.0770 C   0  0  0  0  0  2  0  0  0  0  0  0
  187.1510  178.6280  140.6010 C   0  0  0  0  0  2  0  0  0  0  0  0
  189.6000  178.1280  140.4080 N   0  0  0  0  0  0  0  0  0  0  0  0
  191.7810  177.5020  140.9900 N   0  0  0  0  0  1  0  0  0  0  0  0
  188.2980  178.1150  139.7930 C   0  0  0  0  0  0  0  0  0  0  0  0
  186.8150  177.7780  137.9740 O   0  0  0  0  0  1  0  0  0  0  0  0
  190.6160  177.3400  140.1910 C   0  0  0  0  0  0  0  0  0  0  0  0
  188.0980  177.7630  138.5120 C   0  0  0  0  0  0  0  0  0  0  0  0
  190.5560  176.2180  139.2950 N   0  0  0  0  0  0  0  0  0  0  0  0
  189.9310  176.1910  138.1590 C   0  0  0  0  0  3  0  0  0  0  0  0
  189.2270  177.3850  137.6180 C   0  0  0  0  0  2  0  0  0  0  0  0
  1  9  1  0  0  0  0
  1  6  2  0  0  0  0
  2  6  1  6  0  0  0
  2 11  1  0  0  0  0
  3  1  1  0  0  0  0
  4 12  2  0  0  0  0
  5  7  2  0  0  0  0
  5  4  1  0  0  0  0
  7  2  1  0  0  0  0
  8  3  1  0  0  0  0
  8  7  1  0  0  0  0
 10  3  2  0  0  0  0
 12 11  1  0  0  0  0
 13 14  2  0  0  0  0
 14  4  1  0  0  0  0
 15 14  1  0  0  0  0
 17 16  1  6  0  0  0
 17 18  1  0  0  0  0
 17 15  1  0  0  0  0
 19  5  1  0  0  0  0
 20 19  1  0  0  0  0
 21 20  1  0  0  0  0
 24 22  1  0  0  0  0
 24 21  1  0  0  0  0
 25 27  1  0  0  0  0
 26 22  2  0  0  0  0
 26 23  1  0  0  0  0
 27 24  2  0  0  0  0
 28 26  1  0  0  0  0
 29 28  2  0  0  0  0
 30 29  1  0  0  0  0
 30 27  1  0  0  0  0
M  END
>  <MODEL>
7

>  <REMARK>
 VINA RESULT:      -8.1      1.837      5.567
  Name = 
  7 active torsions:
  status: ('A' for Active; 'I' for Inactive)
    1  A    between atoms: C_5  and  C_10
    2  A    between atoms: C_6  and  C_26
    3  A    between atoms: C_10  and  C_20
    4  A    between atoms: C_12  and  C_22
    5  A    between atoms: C_14  and  C_20
    6  A    between atoms: C_21  and  C_22
    7  A    between atoms: C_21  and  C_26
                            x       y       z     vdW  Elec       q    Type
                         _______ _______ _______ _____ _____    ______ ____

>  <TORSDO>
F 7

$$$$
=
 OpenBabel11062413193D

 30 32  0  0  1  0  0  0  0  0999 V2000
  190.6320  176.9560  146.3930 C   0  0  0  0  0  0  0  0  0  0  0  0
  191.2030  177.8090  144.1210 C   0  0  2  0  0  3  0  0  0  0  0  0
  189.2030  177.2440  146.1600 C   0  0  0  0  0  0  0  0  0  0  0  0
  190.4150  177.3130  141.4100 C   0  0  0  0  0  0  0  0  0  0  0  0
  189.3760  177.4520  142.4770 C   0  0  0  0  0  0  0  0  0  0  0  0
  191.5440  177.1870  145.4460 C   0  0  0  0  0  3  0  0  0  0  0  0
  189.7470  177.6160  143.7640 C   0  0  0  0  0  0  0  0  0  0  0  0
  188.7270  177.8100  144.8550 C   0  0  0  0  0  2  0  0  0  0  0  0
  191.0380  176.4100  147.6040 O   0  0  0  0  0  1  0  0  0  0  0  0
  188.3660  177.0340  147.0760 O   0  0  0  0  0  0  0  0  0  0  0  0
  192.0760  177.2930  143.1170 O   0  0  0  0  0  0  0  0  0  0  0  0
  191.6970  177.2100  141.7750 C   0  0  0  0  0  3  0  0  0  0  0  0
  190.2350  176.1880  139.3080 O   0  0  0  0  0  0  0  0  0  0  0  0
  190.0780  177.2530  139.9620 C   0  0  0  0  0  0  0  0  0  0  0  0
  189.5010  178.4380  139.2500 C   0  0  0  0  0  2  0  0  0  0  0  0
  187.4380  177.7250  138.0860 C   0  0  0  0  0  1  0  0  0  0  0  0
  188.9100  178.0280  137.9120 C   0  0  1  0  0  3  0  0  0  0  0  0
  189.0620  179.0630  136.9880 O   0  0  0  0  0  1  0  0  0  0  0  0
  187.9190  177.3120  142.1380 C   0  0  0  0  0  2  0  0  0  0  0  0
  187.2870  178.6820  141.9900 C   0  0  0  0  0  2  0  0  0  0  0  0
  185.9300  178.5420  141.3320 C   0  0  0  0  0  2  0  0  0  0  0  0
  185.2700  178.2960  143.7380 N   0  0  0  0  0  0  0  0  0  0  0  0
  185.3400  178.4370  146.0750 N   0  0  0  0  0  1  0  0  0  0  0  0
  184.8600  178.5030  142.3730 C   0  0  0  0  0  0  0  0  0  0  0  0
  183.2390  178.7520  140.6600 O   0  0  0  0  0  1  0  0  0  0  0  0
  184.6930  178.6980  144.8360 C   0  0  0  0  0  0  0  0  0  0  0  0
  183.5710  178.5570  141.9980 C   0  0  0  0  0  0  0  0  0  0  0  0
  183.5200  179.5280  144.8420 N   0  0  0  0  0  0  0  0  0  0  0  0
  182.5220  179.4320  144.0200 C   0  0  0  0  0  3  0  0  0  0  0  0
  182.4610  178.3760  142.9740 C   0  0  0  0  0  2  0  0  0  0  0  0
  1  9  1  0  0  0  0
  2  6  1  1  0  0  0
  3  1  1  0  0  0  0
  3 10  2  0  0  0  0
  4 12  2  0  0  0  0
  4  5  1  0  0  0  0
  5  7  2  0  0  0  0
  6  1  2  0  0  0  0
  7  2  1  0  0  0  0
  7  8  1  0  0  0  0
  8  3  1  0  0  0  0
 11  2  1  0  0  0  0
 12 11  1  0  0  0  0
 13 14  2  0  0  0  0
 14  4  1  0  0  0  0
 15 14  1  0  0  0  0
 17 16  1  1  0  0  0
 17 15  1  0  0  0  0
 18 17  1  0  0  0  0
 19  5  1  0  0  0  0
 20 19  1  0  0  0  0
 21 20  1  0  0  0  0
 21 24  1  0  0  0  0
 22 26  2  0  0  0  0
 24 22  1  0  0  0  0
 25 27  1  0  0  0  0
 26 28  1  0  0  0  0
 26 23  1  0  0  0  0
 27 24  2  0  0  0  0
 27 30  1  0  0  0  0
 29 28  2  0  0  0  0
 30 29  1  0  0  0  0
M  END
>  <MODEL>
8

>  <REMARK>
 VINA RESULT:      -8.0      2.358      7.198
  Name = 
  7 active torsions:
  status: ('A' for Active; 'I' for Inactive)
    1  A    between atoms: C_5  and  C_10
    2  A    between atoms: C_6  and  C_26
    3  A    between atoms: C_10  and  C_20
    4  A    between atoms: C_12  and  C_22
    5  A    between atoms: C_14  and  C_20
    6  A    between atoms: C_21  and  C_22
    7  A    between atoms: C_21  and  C_26
                            x       y       z     vdW  Elec       q    Type
                         _______ _______ _______ _____ _____    ______ ____

>  <TORSDO>
F 7

$$$$
=
 OpenBabel11062413193D

 30 32  0  0  1  0  0  0  0  0999 V2000
  187.9070  178.1410  147.3930 C   0  0  0  0  0  0  0  0  0  0  0  0
  185.9010  178.1160  145.9140 C   0  0  2  0  0  3  0  0  0  0  0  0
  188.6190  177.2350  146.4710 C   0  0  0  0  0  0  0  0  0  0  0  0
  185.2880  178.6490  143.1650 C   0  0  0  0  0  0  0  0  0  0  0  0
  186.4840  177.8230  143.5170 C   0  0  0  0  0  0  0  0  0  0  0  0
  186.6730  178.5690  147.1220 C   0  0  0  0  0  3  0  0  0  0  0  0
  186.8130  177.6280  144.8110 C   0  0  0  0  0  0  0  0  0  0  0  0
  187.9800  176.7590  145.2000 C   0  0  0  0  0  2  0  0  0  0  0  0
  188.5360  178.5820  148.5500 O   0  0  0  0  0  1  0  0  0  0  0  0
  189.7760  176.8320  146.7600 O   0  0  0  0  0  0  0  0  0  0  0  0
  185.0450  179.1700  145.4760 O   0  0  0  0  0  0  0  0  0  0  0  0
  184.6500  179.3010  144.1430 C   0  0  0  0  0  3  0  0  0  0  0  0
  185.2970  179.6680  141.0020 O   0  0  0  0  0  0  0  0  0  0  0  0
  184.7980  178.8020  141.7690 C   0  0  0  0  0  0  0  0  0  0  0  0
  183.7330  177.9030  141.2180 C   0  0  0  0  0  2  0  0  0  0  0  0
  181.8250  178.1210  139.6590 C   0  0  0  0  0  1  0  0  0  0  0  0
  182.4720  178.6900  140.9030 C   0  0  1  0  0  3  0  0  0  0  0  0
  181.5770  178.6010  141.9700 O   0  0  0  0  0  1  0  0  0  0  0  0
  187.3780  177.2860  142.4360 C   0  0  0  0  0  2  0  0  0  0  0  0
  188.5520  178.2220  142.2220 C   0  0  0  0  0  2  0  0  0  0  0  0
  188.3650  178.9750  140.9210 C   0  0  0  0  0  2  0  0  0  0  0  0
  190.3810  177.9220  139.8660 N   0  0  0  0  0  0  0  0  0  0  0  0
  192.4330  176.8150  139.6380 N   0  0  0  0  0  1  0  0  0  0  0  0
  188.9700  178.2040  139.7940 C   0  0  0  0  0  0  0  0  0  0  0  0
  186.8600  178.2020  138.7130 O   0  0  0  0  0  1  0  0  0  0  0  0
  191.0420  176.9200  139.3590 C   0  0  0  0  0  0  0  0  0  0  0  0
  188.2180  177.8960  138.7250 C   0  0  0  0  0  0  0  0  0  0  0  0
  190.4040  175.8340  138.6670 N   0  0  0  0  0  0  0  0  0  0  0  0
  189.3940  175.9410  137.8600 C   0  0  0  0  0  3  0  0  0  0  0  0
  188.8010  177.2600  137.5110 C   0  0  0  0  0  2  0  0  0  0  0  0
  1  9  1  0  0  0  0
  2  6  1  1  0  0  0
  3 10  2  0  0  0  0
  3  1  1  0  0  0  0
  4  5  1  0  0  0  0
  4 12  2  0  0  0  0
  5  7  2  0  0  0  0
  6  1  2  0  0  0  0
  7  8  1  0  0  0  0
  7  2  1  0  0  0  0
  8  3  1  0  0  0  0
 11  2  1  0  0  0  0
 12 11  1  0  0  0  0
 13 14  2  0  0  0  0
 14  4  1  0  0  0  0
 15 14  1  0  0  0  0
 17 16  1  6  0  0  0
 17 15  1  0  0  0  0
 17 18  1  0  0  0  0
 19  5  1  0  0  0  0
 20 19  1  0  0  0  0
 21 20  1  0  0  0  0
 24 22  1  0  0  0  0
 24 21  1  0  0  0  0
 25 27  1  0  0  0  0
 26 23  1  0  0  0  0
 26 22  2  0  0  0  0
 27 24  2  0  0  0  0
 28 26  1  0  0  0  0
 29 28  2  0  0  0  0
 30 29  1  0  0  0  0
 30 27  1  0  0  0  0
M  END
>  <MODEL>
9

>  <REMARK>
 VINA RESULT:      -7.9      1.987      5.646
  Name = 
  7 active torsions:
  status: ('A' for Active; 'I' for Inactive)
    1  A    between atoms: C_5  and  C_10
    2  A    between atoms: C_6  and  C_26
    3  A    between atoms: C_10  and  C_20
    4  A    between atoms: C_12  and  C_22
    5  A    between atoms: C_14  and  C_20
    6  A    between atoms: C_21  and  C_22
    7  A    between atoms: C_21  and  C_26
                            x       y       z     vdW  Elec       q    Type
                         _______ _______ _______ _____ _____    ______ ____

>  <TORSDO>
F 7

$$$$
