=
 OpenBabel11062416523D

 34 42  0  0  1  0  0  0  0  0999 V2000
  190.3070  177.4790  143.3830 C   0  0  1  0  0  3  0  0  0  0  0  0
  192.1010  176.9950  141.6060 C   0  0  0  0  0  3  0  0  0  0  0  0
  183.9610  178.7890  145.0360 C   0  0  1  0  0  0  0  0  0  0  0  0
  188.4360  177.9430  144.8480 C   0  0  0  0  0  0  0  0  0  0  0  0
  186.1290  178.1160  143.8410 C   0  0  0  0  0  0  0  0  0  0  0  0
  183.7020  178.6640  143.1020 C   0  0  1  0  0  3  0  0  0  0  0  0
  182.9090  179.1490  144.1400 O   0  0  0  0  0  0  0  0  0  0  0  0
  185.2570  178.1520  146.9530 C   0  0  0  0  0  3  0  0  0  0  0  0
  190.0220  177.6240  140.9150 C   0  0  0  0  0  0  0  0  0  0  0  0
  188.9970  176.5740  138.2680 C   0  0  0  0  0  3  0  0  0  0  0  0
  186.7200  177.7870  142.4970 C   0  0  0  0  0  2  0  0  0  0  0  0
  186.4690  177.9500  146.4010 C   0  0  0  0  0  3  0  0  0  0  0  0
  188.7410  178.0130  141.0000 C   0  0  0  0  0  0  0  0  0  0  0  0
  192.1520  177.0090  140.2750 C   0  0  0  0  0  3  0  0  0  0  0  0
  187.0060  178.3960  145.0520 C   0  0  1  0  0  3  0  0  0  0  0  0
  184.1010  178.7260  146.3170 N   0  0  0  0  0  2  0  0  0  0  0  0
  190.2300  176.4090  138.7720 C   0  0  0  0  0  0  0  0  0  0  0  0
  188.9790  177.8940  143.5520 C   0  0  0  0  0  0  0  0  0  0  0  0
  184.8530  178.4350  143.9150 C   0  0  0  0  0  0  0  0  0  0  0  0
  188.1410  178.3320  142.3620 C   0  0  0  0  0  0  0  0  0  0  0  0
  190.5220  177.2390  145.7660 C   0  0  0  0  0  3  0  0  0  0  0  0
  188.0480  177.6540  138.6090 C   0  0  0  0  0  3  0  0  0  0  0  0
  189.2270  177.6320  145.9160 N   0  0  0  0  0  0  0  0  0  0  0  0
  187.9350  178.2780  139.7880 C   0  0  0  0  0  3  0  0  0  0  0  0
  190.8320  177.4450  139.6800 C   0  0  1  0  0  3  0  0  0  0  0  0
  191.0860  177.1480  144.4930 C   0  0  0  0  0  3  0  0  0  0  0  0
  190.8150  177.3860  142.0550 N   0  0  0  0  0  0  0  0  0  0  0  0
  191.0020  175.2960  138.4050 O   0  0  0  0  0  0  0  0  0  0  0  0
  190.9750  174.7100  137.1070 C   0  0  0  0  0  2  0  0  0  0  0  0
  193.7370  176.4200  137.1530 O   0  0  0  0  0  0  0  0  0  0  0  0
  193.3290  174.1490  137.6530 C   0  0  0  0  0  2  0  0  0  0  0  0
  192.3870  174.5660  136.5610 C   0  0  2  0  0  3  0  0  0  0  0  0
  194.3190  175.2850  137.7360 C   0  0  0  0  0  2  0  0  0  0  0  0
  192.9030  175.9230  136.1410 C   0  0  0  0  0  2  0  0  0  0  0  0
  1 18  1  0  0  0  0
  1 26  1  6  0  0  0
  2 27  1  0  0  0  0
  3 19  1  6  0  0  0
  3 16  1  0  0  0  0
  4 15  1  0  0  0  0
  4 23  2  0  0  0  0
  5 19  2  0  0  0  0
  5 15  1  0  0  0  0
  6 19  1  6  0  0  0
  6  7  1  0  0  0  0
  6  3  1  0  0  0  0
  7  3  1  0  0  0  0
  9 13  2  0  0  0  0
  9 27  1  0  0  0  0
 10 22  1  0  0  0  0
 10 17  2  0  0  0  0
 11  5  1  0  0  0  0
 12  8  2  0  0  0  0
 13 20  1  0  0  0  0
 14  2  2  0  0  0  0
 15 12  1  1  0  0  0
 16  8  1  0  0  0  0
 17 25  1  0  0  0  0
 18  4  1  0  0  0  0
 20 11  1  0  0  0  0
 20 18  2  0  0  0  0
 21 23  1  0  0  0  0
 22 24  2  0  0  0  0
 24 13  1  0  0  0  0
 25 14  1  1  0  0  0
 25  9  1  0  0  0  0
 26 21  2  0  0  0  0
 27  1  1  0  0  0  0
 28 17  1  0  0  0  0
 29 28  1  0  0  0  0
 30 33  1  0  0  0  0
 31 33  1  0  0  0  0
 32 29  1  1  0  0  0
 32 31  1  0  0  0  0
 34 32  1  0  0  0  0
 34 30  1  0  0  0  0
M  END
>  <MODEL>
1

>  <REMARK>
 VINA RESULT:     -10.6      0.000      0.000
  Name = 
  3 active torsions:
  status: ('A' for Active; 'I' for Inactive)
    1  A    between atoms: C_1  and  O_14
    2  A    between atoms: C_1  and  C_18
    3  A    between atoms: O_14  and  C_23
                            x       y       z     vdW  Elec       q    Type
                         _______ _______ _______ _____ _____    ______ ____

>  <TORSDO>
F 3

$$$$
=
 OpenBabel11062416523D

 34 42  0  0  1  0  0  0  0  0999 V2000
  188.5480  177.8780  140.6630 C   0  0  1  0  0  3  0  0  0  0  0  0
  186.8870  178.2820  138.7420 C   0  0  0  0  0  3  0  0  0  0  0  0
  189.8440  177.2000  147.1890 C   0  0  1  0  0  0  0  0  0  0  0  0
  189.8960  177.5120  142.6400 C   0  0  0  0  0  0  0  0  0  0  0  0
  188.7400  177.3730  144.8790 C   0  0  0  0  0  0  0  0  0  0  0  0
  187.9170  177.4930  147.3390 C   0  0  1  0  0  3  0  0  0  0  0  0
  188.9580  177.5080  148.2650 O   0  0  0  0  0  0  0  0  0  0  0  0
  191.6800  176.4410  145.8420 C   0  0  0  0  0  3  0  0  0  0  0  0
  186.1620  178.5490  140.8880 C   0  0  0  0  0  0  0  0  0  0  0  0
  183.2610  177.9660  141.5190 C   0  0  0  0  0  3  0  0  0  0  0  0
  187.4180  177.5330  144.1770 C   0  0  0  0  0  2  0  0  0  0  0  0
  191.2140  176.6720  144.6000 C   0  0  0  0  0  3  0  0  0  0  0  0
  186.2110  178.5900  142.2270 C   0  0  0  0  0  0  0  0  0  0  0  0
  185.6050  178.6320  138.6490 C   0  0  0  0  0  3  0  0  0  0  0  0
  190.0610  177.5490  144.1450 C   0  0  1  0  0  3  0  0  0  0  0  0
  191.0850  176.8610  147.0830 N   0  0  0  0  0  2  0  0  0  0  0  0
  183.8290  177.9800  140.3030 C   0  0  0  0  0  0  0  0  0  0  0  0
  188.6800  177.9110  142.0580 C   0  0  0  0  0  0  0  0  0  0  0  0
  188.7620  177.3530  146.1970 C   0  0  0  0  0  0  0  0  0  0  0  0
  187.5470  178.4150  142.9360 C   0  0  0  0  0  0  0  0  0  0  0  0
  190.8240  177.1200  140.4780 C   0  0  0  0  0  3  0  0  0  0  0  0
  183.7470  178.6730  142.7220 C   0  0  0  0  0  3  0  0  0  0  0  0
  190.9350  177.1470  141.8350 N   0  0  0  0  0  0  0  0  0  0  0  0
  185.0210  178.9440  143.0310 C   0  0  0  0  0  3  0  0  0  0  0  0
  185.0020  178.8750  140.0160 C   0  0  1  0  0  3  0  0  0  0  0  0
  189.6230  177.4800  139.8650 C   0  0  0  0  0  3  0  0  0  0  0  0
  187.2880  178.2350  140.1010 N   0  0  0  0  0  0  0  0  0  0  0  0
  183.2940  177.2060  139.2620 O   0  0  0  0  0  0  0  0  0  0  0  0
  182.5610  176.0020  139.4700 C   0  0  0  0  0  2  0  0  0  0  0  0
  179.8990  177.5690  140.4750 O   0  0  0  0  0  0  0  0  0  0  0  0
  180.9370  177.5100  138.3560 C   0  0  0  0  0  2  0  0  0  0  0  0
  181.1220  176.1700  139.0070 C   0  0  2  0  0  3  0  0  0  0  0  0
  179.9130  178.2000  139.2230 C   0  0  0  0  0  2  0  0  0  0  0  0
  180.2120  176.2280  140.2120 C   0  0  0  0  0  2  0  0  0  0  0  0
  1 26  1  1  0  0  0
  1 18  1  0  0  0  0
  2 27  1  0  0  0  0
  3 19  1  6  0  0  0
  3  6  1  0  0  0  0
  3  7  1  0  0  0  0
  4 15  1  0  0  0  0
  5 19  2  0  0  0  0
  6 19  1  6  0  0  0
  6  7  1  0  0  0  0
  8 16  1  0  0  0  0
  9 13  2  0  0  0  0
 10 22  1  0  0  0  0
 11  5  1  0  0  0  0
 12  8  2  0  0  0  0
 13 20  1  0  0  0  0
 13 24  1  0  0  0  0
 14  2  2  0  0  0  0
 15 12  1  1  0  0  0
 15  5  1  0  0  0  0
 16  3  1  0  0  0  0
 17 10  2  0  0  0  0
 18  4  1  0  0  0  0
 18 20  2  0  0  0  0
 20 11  1  0  0  0  0
 21 23  1  0  0  0  0
 22 24  2  0  0  0  0
 23  4  2  0  0  0  0
 25 14  1  6  0  0  0
 25 17  1  0  0  0  0
 25  9  1  0  0  0  0
 26 21  2  0  0  0  0
 27  1  1  0  0  0  0
 27  9  1  0  0  0  0
 28 29  1  0  0  0  0
 28 17  1  0  0  0  0
 31 32  1  0  0  0  0
 31 33  1  0  0  0  0
 32 29  1  1  0  0  0
 32 34  1  0  0  0  0
 33 30  1  0  0  0  0
 34 30  1  0  0  0  0
M  END
>  <MODEL>
2

>  <REMARK>
 VINA RESULT:     -10.3      3.487      7.173
  Name = 
  3 active torsions:
  status: ('A' for Active; 'I' for Inactive)
    1  A    between atoms: C_1  and  O_14
    2  A    between atoms: C_1  and  C_18
    3  A    between atoms: O_14  and  C_23
                            x       y       z     vdW  Elec       q    Type
                         _______ _______ _______ _____ _____    ______ ____

>  <TORSDO>
F 3

$$$$
=
 OpenBabel11062416523D

 34 42  0  0  1  0  0  0  0  0999 V2000
  189.4840  177.5060  141.0660 C   0  0  1  0  0  3  0  0  0  0  0  0
  189.3910  177.4730  138.4970 C   0  0  0  0  0  3  0  0  0  0  0  0
  186.4650  178.2400  146.9890 C   0  0  1  0  0  0  0  0  0  0  0  0
  189.3000  177.5840  143.4790 C   0  0  0  0  0  0  0  0  0  0  0  0
  187.0180  177.9060  144.5050 C   0  0  0  0  0  0  0  0  0  0  0  0
  184.8940  178.5330  145.8620 C   0  0  1  0  0  3  0  0  0  0  0  0
  185.1530  178.7570  147.2130 O   0  0  0  0  0  0  0  0  0  0  0  0
  188.6340  177.2370  147.2230 C   0  0  0  0  0  3  0  0  0  0  0  0
  187.5520  178.1770  139.6480 C   0  0  0  0  0  0  0  0  0  0  0  0
  184.8190  177.7030  138.4410 C   0  0  0  0  0  3  0  0  0  0  0  0
  186.4230  177.8970  143.1230 C   0  0  0  0  0  2  0  0  0  0  0  0
  189.0480  177.1950  145.9420 C   0  0  0  0  0  3  0  0  0  0  0  0
  186.7840  178.5020  140.6980 C   0  0  0  0  0  0  0  0  0  0  0  0
  188.4810  177.7790  137.5730 C   0  0  0  0  0  3  0  0  0  0  0  0
  188.5220  177.9410  144.7280 C   0  0  1  0  0  3  0  0  0  0  0  0
  187.4640  177.9030  147.7330 N   0  0  0  0  0  2  0  0  0  0  0  0
  186.0040  177.4670  137.8560 C   0  0  0  0  0  0  0  0  0  0  0  0
  188.7460  177.8350  142.2120 C   0  0  0  0  0  0  0  0  0  0  0  0
  186.2340  178.1650  145.5330 C   0  0  0  0  0  0  0  0  0  0  0  0
  187.3840  178.4980  142.0980 C   0  0  0  0  0  0  0  0  0  0  0  0
  191.2930  176.7570  142.4630 C   0  0  0  0  0  3  0  0  0  0  0  0
  184.5570  178.6540  139.5400 C   0  0  0  0  0  3  0  0  0  0  0  0
  190.5610  177.0710  143.5670 N   0  0  0  0  0  0  0  0  0  0  0  0
  185.4040  179.0020  140.5170 C   0  0  0  0  0  3  0  0  0  0  0  0
  187.2080  178.2970  138.2060 C   0  0  1  0  0  3  0  0  0  0  0  0
  190.7640  176.9630  141.1880 C   0  0  0  0  0  3  0  0  0  0  0  0
  188.8770  177.7190  139.7950 N   0  0  0  0  0  0  0  0  0  0  0  0
  186.1210  176.4830  136.8620 O   0  0  0  0  0  0  0  0  0  0  0  0
  185.0130  175.7610  136.3330 C   0  0  0  0  0  2  0  0  0  0  0  0
  185.3220  173.0020  138.0190 O   0  0  0  0  0  0  0  0  0  0  0  0
  184.1860  173.4460  135.9990 C   0  0  0  0  0  2  0  0  0  0  0  0
  185.4060  174.3190  136.0530 C   0  0  2  0  0  3  0  0  0  0  0  0
  184.3910  172.4600  137.1230 C   0  0  0  0  0  2  0  0  0  0  0  0
  186.1850  173.7740  137.2280 C   0  0  0  0  0  2  0  0  0  0  0  0
  1 26  1  1  0  0  0
  1 18  1  0  0  0  0
  2 27  1  0  0  0  0
  3 19  1  6  0  0  0
  3  7  1  0  0  0  0
  3 16  1  0  0  0  0
  4 23  2  0  0  0  0
  4 15  1  0  0  0  0
  5 15  1  0  0  0  0
  5 19  2  0  0  0  0
  6 19  1  6  0  0  0
  6  3  1  0  0  0  0
  6  7  1  0  0  0  0
  8 16  1  0  0  0  0
  9 27  1  0  0  0  0
  9 13  2  0  0  0  0
 10 22  1  0  0  0  0
 11  5  1  0  0  0  0
 12  8  2  0  0  0  0
 13 20  1  0  0  0  0
 14  2  2  0  0  0  0
 15 12  1  1  0  0  0
 17 25  1  0  0  0  0
 17 10  2  0  0  0  0
 18  4  1  0  0  0  0
 20 18  2  0  0  0  0
 20 11  1  0  0  0  0
 21 23  1  0  0  0  0
 22 24  2  0  0  0  0
 24 13  1  0  0  0  0
 25 14  1  6  0  0  0
 25  9  1  0  0  0  0
 26 21  2  0  0  0  0
 27  1  1  0  0  0  0
 28 17  1  0  0  0  0
 29 28  1  0  0  0  0
 31 32  1  0  0  0  0
 31 33  1  0  0  0  0
 32 29  1  1  0  0  0
 32 34  1  0  0  0  0
 33 30  1  0  0  0  0
 34 30  1  0  0  0  0
M  END
>  <MODEL>
3

>  <REMARK>
 VINA RESULT:     -10.2      2.915      4.525
  Name = 
  3 active torsions:
  status: ('A' for Active; 'I' for Inactive)
    1  A    between atoms: C_1  and  O_14
    2  A    between atoms: C_1  and  C_18
    3  A    between atoms: O_14  and  C_23
                            x       y       z     vdW  Elec       q    Type
                         _______ _______ _______ _____ _____    ______ ____

>  <TORSDO>
F 3

$$$$
=
 OpenBabel11062416523D

 34 42  0  0  1  0  0  0  0  0999 V2000
  189.7180  177.5000  141.2400 C   0  0  1  0  0  3  0  0  0  0  0  0
  189.8220  177.4790  138.6710 C   0  0  0  0  0  3  0  0  0  0  0  0
  186.2560  178.2090  146.9180 C   0  0  1  0  0  0  0  0  0  0  0  0
  189.3510  177.5670  143.6320 C   0  0  0  0  0  0  0  0  0  0  0  0
  186.9970  177.8870  144.4820 C   0  0  0  0  0  0  0  0  0  0  0  0
  184.7760  178.5090  145.6760 C   0  0  1  0  0  3  0  0  0  0  0  0
  184.9310  178.7260  147.0430 O   0  0  0  0  0  0  0  0  0  0  0  0
  188.4000  177.2030  147.3120 C   0  0  0  0  0  3  0  0  0  0  0  0
  187.9010  178.1800  139.6810 C   0  0  0  0  0  0  0  0  0  0  0  0
  185.2680  177.7140  138.2660 C   0  0  0  0  0  3  0  0  0  0  0  0
  186.5100  177.8840  143.0590 C   0  0  0  0  0  2  0  0  0  0  0  0
  188.9110  177.1670  146.0670 C   0  0  0  0  0  3  0  0  0  0  0  0
  187.0550  178.5000  140.6710 C   0  0  0  0  0  0  0  0  0  0  0  0
  188.9860  177.7900  137.6810 C   0  0  0  0  0  3  0  0  0  0  0  0
  188.4800  177.9180  144.8200 C   0  0  1  0  0  3  0  0  0  0  0  0
  187.1950  177.8670  147.7350 N   0  0  0  0  0  2  0  0  0  0  0  0
  186.4940  177.4800  137.7730 C   0  0  0  0  0  0  0  0  0  0  0  0
  188.8950  177.8240  142.3280 C   0  0  0  0  0  0  0  0  0  0  0  0
  186.1370  178.1410  145.4490 C   0  0  0  0  0  0  0  0  0  0  0  0
  187.5460  178.4890  142.1120 C   0  0  0  0  0  0  0  0  0  0  0  0
  191.4150  176.7430  142.7670 C   0  0  0  0  0  3  0  0  0  0  0  0
  184.9230  178.6610  139.3470 C   0  0  0  0  0  3  0  0  0  0  0  0
  190.6010  177.0520  143.8140 N   0  0  0  0  0  0  0  0  0  0  0  0
  185.6930  179.0030  140.3880 C   0  0  0  0  0  3  0  0  0  0  0  0
  187.6690  178.3070  138.2180 C   0  0  1  0  0  3  0  0  0  0  0  0
  190.9850  176.9550  141.4570 C   0  0  0  0  0  3  0  0  0  0  0  0
  189.2100  177.7200  139.9270 N   0  0  0  0  0  0  0  0  0  0  0  0
  186.6870  176.5010  136.7870 O   0  0  0  0  0  0  0  0  0  0  0  0
  186.1070  175.2010  136.8420 C   0  0  0  0  0  2  0  0  0  0  0  0
  189.2510  174.5140  136.4000 O   0  0  0  0  0  0  0  0  0  0  0  0
  187.4270  173.1020  136.8990 C   0  0  0  0  0  2  0  0  0  0  0  0
  186.9310  174.2170  136.0260 C   0  0  2  0  0  3  0  0  0  0  0  0
  188.9300  173.2170  136.8220 C   0  0  0  0  0  2  0  0  0  0  0  0
  188.1970  174.8950  135.5560 C   0  0  0  0  0  2  0  0  0  0  0  0
  1 26  1  6  0  0  0
  1 18  1  0  0  0  0
  2 27  1  0  0  0  0
  3 19  1  6  0  0  0
  3  7  1  0  0  0  0
  3 16  1  0  0  0  0
  4 23  2  0  0  0  0
  4 15  1  0  0  0  0
  5 15  1  0  0  0  0
  5 19  2  0  0  0  0
  6 19  1  6  0  0  0
  6  3  1  0  0  0  0
  6  7  1  0  0  0  0
  8 16  1  0  0  0  0
  9 27  1  0  0  0  0
  9 13  2  0  0  0  0
 10 22  1  0  0  0  0
 11  5  1  0  0  0  0
 12  8  2  0  0  0  0
 13 20  1  0  0  0  0
 14  2  2  0  0  0  0
 15 12  1  1  0  0  0
 17 25  1  0  0  0  0
 17 10  2  0  0  0  0
 18  4  1  0  0  0  0
 20 18  2  0  0  0  0
 20 11  1  0  0  0  0
 21 23  1  0  0  0  0
 22 24  2  0  0  0  0
 24 13  1  0  0  0  0
 25 14  1  6  0  0  0
 25  9  1  0  0  0  0
 26 21  2  0  0  0  0
 27  1  1  0  0  0  0
 28 29  1  0  0  0  0
 28 17  1  0  0  0  0
 30 33  1  0  0  0  0
 32 29  1  1  0  0  0
 32 31  1  0  0  0  0
 33 31  1  0  0  0  0
 34 32  1  0  0  0  0
 34 30  1  0  0  0  0
M  END
>  <MODEL>
4

>  <REMARK>
 VINA RESULT:     -10.1      2.342      3.464
  Name = 
  3 active torsions:
  status: ('A' for Active; 'I' for Inactive)
    1  A    between atoms: C_1  and  O_14
    2  A    between atoms: C_1  and  C_18
    3  A    between atoms: O_14  and  C_23
                            x       y       z     vdW  Elec       q    Type
                         _______ _______ _______ _____ _____    ______ ____

>  <TORSDO>
F 3

$$$$
=
 OpenBabel11062416523D

 34 42  0  0  1  0  0  0  0  0999 V2000
  188.3840  177.8810  140.3180 C   0  0  1  0  0  3  0  0  0  0  0  0
  186.6710  178.3040  138.4480 C   0  0  0  0  0  3  0  0  0  0  0  0
  189.8670  177.1890  146.8020 C   0  0  1  0  0  0  0  0  0  0  0  0
  189.7860  177.5000  142.2540 C   0  0  0  0  0  0  0  0  0  0  0  0
  188.6960  177.3740  144.5260 C   0  0  0  0  0  0  0  0  0  0  0  0
  187.9490  177.5030  147.0100 C   0  0  1  0  0  3  0  0  0  0  0  0
  189.0170  177.5060  147.9040 O   0  0  0  0  0  0  0  0  0  0  0  0
  191.6540  176.4100  145.4010 C   0  0  0  0  0  3  0  0  0  0  0  0
  186.0130  178.5780  140.6140 C   0  0  0  0  0  0  0  0  0  0  0  0
  183.1260  178.0270  141.3320 C   0  0  0  0  0  3  0  0  0  0  0  0
  187.3560  177.5480  143.8650 C   0  0  0  0  0  2  0  0  0  0  0  0
  191.1540  176.6470  144.1730 C   0  0  0  0  0  3  0  0  0  0  0  0
  186.1030  178.6190  141.9510 C   0  0  0  0  0  0  0  0  0  0  0  0
  185.3900  178.6680  138.3930 C   0  0  0  0  0  3  0  0  0  0  0  0
  189.9960  177.5360  143.7530 C   0  0  1  0  0  3  0  0  0  0  0  0
  191.1010  176.8360  146.6590 N   0  0  0  0  0  2  0  0  0  0  0  0
  183.6570  178.0350  140.0990 C   0  0  0  0  0  0  0  0  0  0  0  0
  188.5580  177.9130  141.7080 C   0  0  0  0  0  0  0  0  0  0  0  0
  188.7580  177.3530  145.8430 C   0  0  0  0  0  0  0  0  0  0  0  0
  187.4580  178.4290  142.6200 C   0  0  0  0  0  0  0  0  0  0  0  0
  190.6440  177.0990  140.0650 C   0  0  0  0  0  3  0  0  0  0  0  0
  183.6560  178.7280  142.5200 C   0  0  0  0  0  3  0  0  0  0  0  0
  190.7960  177.1240  141.4180 N   0  0  0  0  0  0  0  0  0  0  0  0
  184.9410  178.9860  142.7900 C   0  0  0  0  0  3  0  0  0  0  0  0
  184.8310  178.9170  139.7770 C   0  0  1  0  0  3  0  0  0  0  0  0
  189.4300  177.4720  139.4880 C   0  0  0  0  0  3  0  0  0  0  0  0
  187.1120  178.2520  139.7940 N   0  0  0  0  0  0  0  0  0  0  0  0
  183.0830  177.2670  139.0740 O   0  0  0  0  0  0  0  0  0  0  0  0
  182.9450  175.8500  139.1340 C   0  0  0  0  0  2  0  0  0  0  0  0
  184.1790  176.4800  136.1960 O   0  0  0  0  0  0  0  0  0  0  0  0
  184.0700  174.4610  137.4140 C   0  0  0  0  0  2  0  0  0  0  0  0
  182.8450  175.2680  137.7320 C   0  0  2  0  0  3  0  0  0  0  0  0
  184.6770  175.1690  136.2280 C   0  0  0  0  0  2  0  0  0  0  0  0
  182.8820  176.3900  136.7210 C   0  0  0  0  0  2  0  0  0  0  0  0
  1 26  1  1  0  0  0
  1 18  1  0  0  0  0
  2 27  1  0  0  0  0
  3 19  1  6  0  0  0
  3  6  1  0  0  0  0
  3  7  1  0  0  0  0
  4 15  1  0  0  0  0
  5 19  2  0  0  0  0
  6 19  1  6  0  0  0
  6  7  1  0  0  0  0
  8 16  1  0  0  0  0
  9 13  2  0  0  0  0
 10 22  1  0  0  0  0
 11  5  1  0  0  0  0
 12  8  2  0  0  0  0
 13 20  1  0  0  0  0
 13 24  1  0  0  0  0
 14  2  2  0  0  0  0
 15 12  1  1  0  0  0
 15  5  1  0  0  0  0
 16  3  1  0  0  0  0
 17 10  2  0  0  0  0
 18  4  1  0  0  0  0
 18 20  2  0  0  0  0
 20 11  1  0  0  0  0
 21 23  1  0  0  0  0
 22 24  2  0  0  0  0
 23  4  2  0  0  0  0
 25 14  1  6  0  0  0
 25 17  1  0  0  0  0
 25  9  1  0  0  0  0
 26 21  2  0  0  0  0
 27  1  1  0  0  0  0
 27  9  1  0  0  0  0
 28 29  1  0  0  0  0
 28 17  1  0  0  0  0
 30 33  1  0  0  0  0
 30 34  1  0  0  0  0
 31 32  1  0  0  0  0
 32 29  1  1  0  0  0
 33 31  1  0  0  0  0
 34 32  1  0  0  0  0
M  END
>  <MODEL>
5

>  <REMARK>
 VINA RESULT:     -10.0      3.335      6.269
  Name = 
  3 active torsions:
  status: ('A' for Active; 'I' for Inactive)
    1  A    between atoms: C_1  and  O_14
    2  A    between atoms: C_1  and  C_18
    3  A    between atoms: O_14  and  C_23
                            x       y       z     vdW  Elec       q    Type
                         _______ _______ _______ _____ _____    ______ ____

>  <TORSDO>
F 3

$$$$
=
 OpenBabel11062416523D

 34 42  0  0  1  0  0  0  0  0999 V2000
  190.5190  177.3060  142.1280 C   0  0  1  0  0  3  0  0  0  0  0  0
  191.4230  177.0310  139.7360 C   0  0  0  0  0  3  0  0  0  0  0  0
  185.4580  178.4950  146.3340 C   0  0  1  0  0  0  0  0  0  0  0  0
  189.4210  177.6020  144.2650 C   0  0  0  0  0  0  0  0  0  0  0  0
  186.9220  177.9490  144.2980 C   0  0  0  0  0  0  0  0  0  0  0  0
  184.4450  178.6350  144.6670 C   0  0  1  0  0  3  0  0  0  0  0  0
  184.1650  178.9910  145.9850 O   0  0  0  0  0  0  0  0  0  0  0  0
  187.3600  177.5850  147.4790 C   0  0  0  0  0  3  0  0  0  0  0  0
  189.2890  177.7840  140.0180 C   0  0  0  0  0  0  0  0  0  0  0  0
  187.2280  177.1170  137.9050 C   0  0  0  0  0  3  0  0  0  0  0  0
  186.9060  177.7930  142.8020 C   0  0  0  0  0  2  0  0  0  0  0  0
  188.2360  177.4370  146.4670 C   0  0  0  0  0  3  0  0  0  0  0  0
  188.1780  178.1810  140.6550 C   0  0  0  0  0  0  0  0  0  0  0  0
  190.9420  177.2220  138.5080 C   0  0  0  0  0  3  0  0  0  0  0  0
  188.2240  178.0490  145.0780 C   0  0  1  0  0  3  0  0  0  0  0  0
  186.0900  178.2590  147.4340 N   0  0  0  0  0  2  0  0  0  0  0  0
  188.5450  176.8640  137.8470 C   0  0  0  0  0  0  0  0  0  0  0  0
  189.3990  177.7170  142.8640 C   0  0  0  0  0  0  0  0  0  0  0  0
  185.8050  178.2790  144.9160 C   0  0  0  0  0  0  0  0  0  0  0  0
  188.1920  178.3260  142.1710 C   0  0  0  0  0  0  0  0  0  0  0  0
  191.6450  176.7450  144.1780 C   0  0  0  0  0  3  0  0  0  0  0  0
  186.5700  178.1580  138.7220 C   0  0  0  0  0  3  0  0  0  0  0  0
  190.5460  177.1380  144.8800 N   0  0  0  0  0  0  0  0  0  0  0  0
  186.9780  178.6200  139.9100 C   0  0  0  0  0  3  0  0  0  0  0  0
  189.5280  177.7580  138.5500 C   0  0  1  0  0  3  0  0  0  0  0  0
  191.6490  176.8150  142.7840 C   0  0  0  0  0  3  0  0  0  0  0  0
  190.4500  177.3820  140.7060 N   0  0  0  0  0  0  0  0  0  0  0  0
  189.0280  175.7960  137.0760 O   0  0  0  0  0  0  0  0  0  0  0  0
  188.2200  174.7040  136.6460 C   0  0  0  0  0  2  0  0  0  0  0  0
  190.2360  173.1630  134.6180 O   0  0  0  0  0  0  0  0  0  0  0  0
  190.4780  173.7090  136.9020 C   0  0  0  0  0  2  0  0  0  0  0  0
  189.0290  173.4160  136.6400 C   0  0  2  0  0  3  0  0  0  0  0  0
  191.1790  173.2330  135.6540 C   0  0  0  0  0  2  0  0  0  0  0  0
  189.0270  172.8310  135.2470 C   0  0  0  0  0  2  0  0  0  0  0  0
  1 26  1  6  0  0  0
  1 18  1  0  0  0  0
  2 27  1  0  0  0  0
  3 19  1  6  0  0  0
  3 16  1  0  0  0  0
  4 23  2  0  0  0  0
  4 15  1  0  0  0  0
  5 19  2  0  0  0  0
  5 15  1  0  0  0  0
  6 19  1  6  0  0  0
  6  7  1  0  0  0  0
  6  3  1  0  0  0  0
  7  3  1  0  0  0  0
  9 13  2  0  0  0  0
  9 27  1  0  0  0  0
 10 22  1  0  0  0  0
 11  5  1  0  0  0  0
 12  8  2  0  0  0  0
 13 20  1  0  0  0  0
 14  2  2  0  0  0  0
 15 12  1  1  0  0  0
 16  8  1  0  0  0  0
 17 10  2  0  0  0  0
 17 25  1  0  0  0  0
 18  4  1  0  0  0  0
 20 11  1  0  0  0  0
 20 18  2  0  0  0  0
 21 23  1  0  0  0  0
 22 24  2  0  0  0  0
 24 13  1  0  0  0  0
 25 14  1  1  0  0  0
 25  9  1  0  0  0  0
 26 21  2  0  0  0  0
 27  1  1  0  0  0  0
 28 17  1  0  0  0  0
 29 28  1  0  0  0  0
 30 34  1  0  0  0  0
 30 33  1  0  0  0  0
 32 29  1  6  0  0  0
 32 31  1  0  0  0  0
 33 31  1  0  0  0  0
 34 32  1  0  0  0  0
M  END
>  <MODEL>
6

>  <REMARK>
 VINA RESULT:      -9.8      1.772      2.296
  Name = 
  3 active torsions:
  status: ('A' for Active; 'I' for Inactive)
    1  A    between atoms: C_1  and  O_14
    2  A    between atoms: C_1  and  C_18
    3  A    between atoms: O_14  and  C_23
                            x       y       z     vdW  Elec       q    Type
                         _______ _______ _______ _____ _____    ______ ____

>  <TORSDO>
F 3

$$$$
=
 OpenBabel11062416523D

 34 42  0  0  1  0  0  0  0  0999 V2000
  187.6580  178.2030  141.0110 C   0  0  1  0  0  3  0  0  0  0  0  0
  185.8520  178.6290  139.2310 C   0  0  0  0  0  3  0  0  0  0  0  0
  189.4630  177.4710  147.4090 C   0  0  1  0  0  0  0  0  0  0  0  0
  189.1560  177.8170  142.8730 C   0  0  0  0  0  0  0  0  0  0  0  0
  188.1800  177.6670  145.1950 C   0  0  0  0  0  0  0  0  0  0  0  0
  187.5550  177.7710  147.7130 C   0  0  1  0  0  3  0  0  0  0  0  0
  188.6670  177.7750  148.5540 O   0  0  0  0  0  0  0  0  0  0  0  0
  191.1840  176.7150  145.9150 C   0  0  0  0  0  3  0  0  0  0  0  0
  185.3000  178.8820  141.4290 C   0  0  0  0  0  0  0  0  0  0  0  0
  182.4560  178.3060  142.2840 C   0  0  0  0  0  3  0  0  0  0  0  0
  186.8080  177.8370  144.6020 C   0  0  0  0  0  2  0  0  0  0  0  0
  190.6220  176.9580  144.7160 C   0  0  0  0  0  3  0  0  0  0  0  0
  185.4560  178.9130  142.7610 C   0  0  0  0  0  0  0  0  0  0  0  0
  184.5680  178.9850  139.2430 C   0  0  0  0  0  3  0  0  0  0  0  0
  189.4400  177.8420  144.3610 C   0  0  1  0  0  3  0  0  0  0  0  0
  190.6910  177.1280  147.2030 N   0  0  0  0  0  2  0  0  0  0  0  0
  182.9250  178.3270  141.0270 C   0  0  0  0  0  0  0  0  0  0  0  0
  187.9000  178.2250  142.3920 C   0  0  0  0  0  0  0  0  0  0  0  0
  188.3070  177.6360  146.5070 C   0  0  0  0  0  0  0  0  0  0  0  0
  186.8430  178.7280  143.3610 C   0  0  0  0  0  0  0  0  0  0  0  0
  189.9080  177.4390  140.6420 C   0  0  0  0  0  3  0  0  0  0  0  0
  183.0390  179.0020  143.4500 C   0  0  0  0  0  3  0  0  0  0  0  0
  190.1260  177.4540  141.9860 N   0  0  0  0  0  0  0  0  0  0  0  0
  184.3340  179.2660  143.6590 C   0  0  0  0  0  3  0  0  0  0  0  0
  184.0760  179.2200  140.6540 C   0  0  1  0  0  3  0  0  0  0  0  0
  188.6640  177.8070  140.1280 C   0  0  0  0  0  3  0  0  0  0  0  0
  186.3590  178.5700  140.5540 N   0  0  0  0  0  0  0  0  0  0  0  0
  182.3060  177.5630  140.0260 O   0  0  0  0  0  0  0  0  0  0  0  0
  181.0160  176.9760  140.1670 C   0  0  0  0  0  2  0  0  0  0  0  0
  180.7570  176.0210  137.0730 O   0  0  0  0  0  0  0  0  0  0  0  0
  182.2670  175.3600  138.7610 C   0  0  0  0  0  2  0  0  0  0  0  0
  180.9450  175.6610  139.4060 C   0  0  2  0  0  3  0  0  0  0  0  0
  181.9560  175.3270  137.2850 C   0  0  0  0  0  2  0  0  0  0  0  0
  180.0010  175.8100  138.2350 C   0  0  0  0  0  2  0  0  0  0  0  0
  1 26  1  1  0  0  0
  1 18  1  0  0  0  0
  2 14  2  0  0  0  0
  2 27  1  0  0  0  0
  3 19  1  6  0  0  0
  3  6  1  0  0  0  0
  3  7  1  0  0  0  0
  4 15  1  0  0  0  0
  5 19  2  0  0  0  0
  6 19  1  6  0  0  0
  6  7  1  0  0  0  0
  8 16  1  0  0  0  0
  9 13  2  0  0  0  0
 10 22  1  0  0  0  0
 11  5  1  0  0  0  0
 12  8  2  0  0  0  0
 13 20  1  0  0  0  0
 13 24  1  0  0  0  0
 15 12  1  6  0  0  0
 15  5  1  0  0  0  0
 16  3  1  0  0  0  0
 17 10  2  0  0  0  0
 18  4  1  0  0  0  0
 18 20  2  0  0  0  0
 20 11  1  0  0  0  0
 21 23  1  0  0  0  0
 22 24  2  0  0  0  0
 23  4  2  0  0  0  0
 25 14  1  6  0  0  0
 25 17  1  0  0  0  0
 25  9  1  0  0  0  0
 26 21  2  0  0  0  0
 27  1  1  0  0  0  0
 27  9  1  0  0  0  0
 28 29  1  0  0  0  0
 28 17  1  0  0  0  0
 30 33  1  0  0  0  0
 30 34  1  0  0  0  0
 31 32  1  0  0  0  0
 32 29  1  6  0  0  0
 33 31  1  0  0  0  0
 34 32  1  0  0  0  0
M  END
>  <MODEL>
7

>  <REMARK>
 VINA RESULT:      -9.7      3.761      7.161
  Name = 
  3 active torsions:
  status: ('A' for Active; 'I' for Inactive)
    1  A    between atoms: C_1  and  O_14
    2  A    between atoms: C_1  and  C_18
    3  A    between atoms: O_14  and  C_23
                            x       y       z     vdW  Elec       q    Type
                         _______ _______ _______ _____ _____    ______ ____

>  <TORSDO>
F 3

$$$$
=
 OpenBabel11062416523D

 34 42  0  0  1  0  0  0  0  0999 V2000
  183.6010  178.6830  143.7650 C   0  0  1  0  0  3  0  0  0  0  0  0
  181.2120  179.3060  143.0490 C   0  0  0  0  0  3  0  0  0  0  0  0
  189.9460  177.2330  142.2270 C   0  0  1  0  0  0  0  0  0  0  0  0
  185.9170  178.1050  144.1730 C   0  0  0  0  0  0  0  0  0  0  0  0
  187.4980  178.0010  142.2100 C   0  0  0  0  0  0  0  0  0  0  0  0
  189.2950  177.5020  140.4030 C   0  0  1  0  0  3  0  0  0  0  0  0
  190.4560  176.9380  140.9270 O   0  0  0  0  0  0  0  0  0  0  0  0
  189.6960  177.7270  144.5630 C   0  0  0  0  0  3  0  0  0  0  0  0
  182.7190  178.7240  141.4390 C   0  0  0  0  0  0  0  0  0  0  0  0
  182.4560  179.9670  138.6930 C   0  0  0  0  0  3  0  0  0  0  0  0
  186.3700  178.4320  141.3120 C   0  0  0  0  0  2  0  0  0  0  0  0
  188.3750  177.9740  144.6440 C   0  0  0  0  0  3  0  0  0  0  0  0
  183.8800  178.3260  140.9000 C   0  0  0  0  0  0  0  0  0  0  0  0
  180.5560  179.3930  141.8910 C   0  0  0  0  0  3  0  0  0  0  0  0
  187.2630  177.6330  143.6670 C   0  0  1  0  0  3  0  0  0  0  0  0
  190.4110  177.1990  143.4310 N   0  0  0  0  0  2  0  0  0  0  0  0
  181.5970  180.0980  139.7160 C   0  0  0  0  0  0  0  0  0  0  0  0
  184.8430  178.2530  143.2780 C   0  0  0  0  0  0  0  0  0  0  0  0
  188.6530  177.6730  141.6670 C   0  0  0  0  0  0  0  0  0  0  0  0
  185.0250  177.9030  141.8110 C   0  0  0  0  0  0  0  0  0  0  0  0
  184.5110  178.7440  145.9910 C   0  0  0  0  0  3  0  0  0  0  0  0
  183.4150  178.8610  138.4880 C   0  0  0  0  0  3  0  0  0  0  0  0
  185.7150  178.3360  145.5030 N   0  0  0  0  0  0  0  0  0  0  0  0
  184.0320  178.1500  139.4390 C   0  0  0  0  0  3  0  0  0  0  0  0
  181.4410  178.9980  140.7290 C   0  0  1  0  0  3  0  0  0  0  0  0
  183.4300  178.9320  145.1280 C   0  0  0  0  0  3  0  0  0  0  0  0
  182.5450  178.8780  142.8290 N   0  0  0  0  0  0  0  0  0  0  0  0
  180.7860  181.2380  139.8200 O   0  0  0  0  0  0  0  0  0  0  0  0
  179.8410  181.6260  138.8260 C   0  0  0  0  0  2  0  0  0  0  0  0
  179.3200  182.8560  135.8650 O   0  0  0  0  0  0  0  0  0  0  0  0
  179.4720  183.9230  137.9650 C   0  0  0  0  0  2  0  0  0  0  0  0
  180.4050  182.7470  137.9680 C   0  0  2  0  0  3  0  0  0  0  0  0
  179.0760  184.0730  136.5170 C   0  0  0  0  0  2  0  0  0  0  0  0
  180.4310  182.3060  136.5220 C   0  0  0  0  0  2  0  0  0  0  0  0
  1 26  1  6  0  0  0
  3  7  1  1  0  0  0
  3 16  1  0  0  0  0
  4 23  2  0  0  0  0
  5 15  1  0  0  0  0
  6  7  1  6  0  0  0
  6 19  1  0  0  0  0
  6  3  1  0  0  0  0
  8 12  2  0  0  0  0
  9 27  1  0  0  0  0
 10 17  2  0  0  0  0
 11 20  1  0  0  0  0
 11  5  1  0  0  0  0
 13  9  2  0  0  0  0
 13 20  1  0  0  0  0
 14  2  2  0  0  0  0
 15  4  1  0  0  0  0
 15 12  1  1  0  0  0
 16  8  1  0  0  0  0
 17 28  1  0  0  0  0
 17 25  1  0  0  0  0
 18  1  1  0  0  0  0
 18  4  1  0  0  0  0
 19  5  2  0  0  0  0
 19  3  1  0  0  0  0
 20 18  2  0  0  0  0
 22 10  1  0  0  0  0
 22 24  2  0  0  0  0
 23 21  1  0  0  0  0
 24 13  1  0  0  0  0
 25  9  1  0  0  0  0
 25 14  1  1  0  0  0
 26 21  2  0  0  0  0
 27  2  1  0  0  0  0
 27  1  1  0  0  0  0
 29 28  1  0  0  0  0
 30 33  1  0  0  0  0
 30 34  1  0  0  0  0
 31 32  1  0  0  0  0
 32 29  1  1  0  0  0
 33 31  1  0  0  0  0
 34 32  1  0  0  0  0
M  END
>  <MODEL>
8

>  <REMARK>
 VINA RESULT:      -9.1      4.234      8.963
  Name = 
  3 active torsions:
  status: ('A' for Active; 'I' for Inactive)
    1  A    between atoms: C_1  and  O_14
    2  A    between atoms: C_1  and  C_18
    3  A    between atoms: O_14  and  C_23
                            x       y       z     vdW  Elec       q    Type
                         _______ _______ _______ _____ _____    ______ ____

>  <TORSDO>
F 3

$$$$
=
 OpenBabel11062416523D

 34 42  0  0  1  0  0  0  0  0999 V2000
  188.0310  177.8630  142.9410 C   0  0  1  0  0  3  0  0  0  0  0  0
  190.3630  177.3210  142.0040 C   0  0  0  0  0  3  0  0  0  0  0  0
  181.5360  179.1470  141.9980 C   0  0  1  0  0  0  0  0  0  0  0  0
  185.7460  178.3670  143.5630 C   0  0  0  0  0  0  0  0  0  0  0  0
  183.9940  178.4520  141.7500 C   0  0  0  0  0  0  0  0  0  0  0  0
  182.0290  178.9230  140.1190 C   0  0  1  0  0  3  0  0  0  0  0  0
  180.9030  179.4450  140.7530 O   0  0  0  0  0  0  0  0  0  0  0  0
  182.0080  178.6280  144.2930 C   0  0  0  0  0  3  0  0  0  0  0  0
  188.7030  177.8810  140.5440 C   0  0  0  0  0  0  0  0  0  0  0  0
  188.7540  176.6850  137.7660 C   0  0  0  0  0  3  0  0  0  0  0  0
  185.0480  178.0670  140.7480 C   0  0  0  0  0  2  0  0  0  0  0  0
  183.3370  178.4180  144.2520 C   0  0  0  0  0  3  0  0  0  0  0  0
  187.4870  178.2520  140.1180 C   0  0  0  0  0  0  0  0  0  0  0  0
  190.9150  177.2700  140.7910 C   0  0  0  0  0  3  0  0  0  0  0  0
  184.3470  178.8060  143.1860 C   0  0  1  0  0  3  0  0  0  0  0  0
  181.1800  179.1500  143.2380 N   0  0  0  0  0  2  0  0  0  0  0  0
  189.7040  176.5660  138.7060 C   0  0  0  0  0  0  0  0  0  0  0  0
  186.7390  178.2630  142.5730 C   0  0  0  0  0  0  0  0  0  0  0  0
  182.7850  178.7530  141.3180 C   0  0  0  0  0  0  0  0  0  0  0  0
  186.4160  178.6280  141.1340 C   0  0  0  0  0  0  0  0  0  0  0  0
  187.3260  177.7450  145.2370 C   0  0  0  0  0  3  0  0  0  0  0  0
  187.7500  177.7650  137.6650 C   0  0  0  0  0  3  0  0  0  0  0  0
  186.0730  178.1230  144.8650 N   0  0  0  0  0  0  0  0  0  0  0  0
  187.2010  178.4440  138.6800 C   0  0  0  0  0  3  0  0  0  0  0  0
  189.9200  177.6550  139.7190 C   0  0  1  0  0  3  0  0  0  0  0  0
  188.3300  177.6000  144.2790 C   0  0  0  0  0  3  0  0  0  0  0  0
  189.0040  177.7130  141.9100 N   0  0  0  0  0  0  0  0  0  0  0  0
  190.5530  175.4490  138.7180 O   0  0  0  0  0  0  0  0  0  0  0  0
  191.2110  174.9460  137.5590 C   0  0  0  0  0  2  0  0  0  0  0  0
  194.3700  175.6260  137.8860 O   0  0  0  0  0  0  0  0  0  0  0  0
  193.0500  175.3650  135.9470 C   0  0  0  0  0  2  0  0  0  0  0  0
  192.1940  175.9740  137.0200 C   0  0  2  0  0  3  0  0  0  0  0  0
  194.4520  175.4680  136.4950 C   0  0  0  0  0  2  0  0  0  0  0  0
  193.1820  176.3380  138.1030 C   0  0  0  0  0  2  0  0  0  0  0  0
  1 26  1  6  0  0  0
  3  7  1  1  0  0  0
  3 16  1  0  0  0  0
  4 23  2  0  0  0  0
  5 15  1  0  0  0  0
  6  7  1  6  0  0  0
  6 19  1  0  0  0  0
  6  3  1  0  0  0  0
  9 27  1  0  0  0  0
 10 17  2  0  0  0  0
 11 20  1  0  0  0  0
 11  5  1  0  0  0  0
 12  8  2  0  0  0  0
 13  9  2  0  0  0  0
 13 20  1  0  0  0  0
 14  2  2  0  0  0  0
 15  4  1  0  0  0  0
 15 12  1  1  0  0  0
 16  8  1  0  0  0  0
 17 28  1  0  0  0  0
 17 25  1  0  0  0  0
 18  1  1  0  0  0  0
 18  4  1  0  0  0  0
 19  5  2  0  0  0  0
 19  3  1  0  0  0  0
 20 18  2  0  0  0  0
 22 10  1  0  0  0  0
 22 24  2  0  0  0  0
 23 21  1  0  0  0  0
 24 13  1  0  0  0  0
 25  9  1  0  0  0  0
 25 14  1  1  0  0  0
 26 21  2  0  0  0  0
 27  2  1  0  0  0  0
 27  1  1  0  0  0  0
 29 28  1  0  0  0  0
 30 34  1  0  0  0  0
 31 33  1  0  0  0  0
 31 32  1  0  0  0  0
 32 29  1  1  0  0  0
 32 34  1  0  0  0  0
 33 30  1  0  0  0  0
M  END
>  <MODEL>
9

>  <REMARK>
 VINA RESULT:      -9.0      1.704      2.527
  Name = 
  3 active torsions:
  status: ('A' for Active; 'I' for Inactive)
    1  A    between atoms: C_1  and  O_14
    2  A    between atoms: C_1  and  C_18
    3  A    between atoms: O_14  and  C_23
                            x       y       z     vdW  Elec       q    Type
                         _______ _______ _______ _____ _____    ______ ____

>  <TORSDO>
F 3

$$$$
