=
 OpenBabel11062417183D

 26 30  0  0  1  0  0  0  0  0999 V2000
  189.4400  177.3100  142.9040 N   0  0  0  0  0  0  0  0  0  0  0  0
  184.6730  179.3790  139.8560 N   0  0  0  0  0  1  0  0  0  0  0  0
  188.8570  178.0050  139.3640 C   0  0  2  0  0  0  0  0  0  0  0  0
  185.5190  179.7420  141.9820 O   0  0  0  0  0  0  0  0  0  0  0  0
  190.0000  177.4370  141.6170 N   0  0  0  0  0  2  0  0  0  0  0  0
  188.0870  177.8840  142.7760 C   0  0  1  0  0  3  0  0  0  0  0  0
  188.5900  176.1140  137.6320 C   0  0  0  0  0  2  0  0  0  0  0  0
  187.3930  178.3640  139.1450 C   0  0  1  0  0  3  0  0  0  0  0  0
  187.3780  176.8560  137.2730 N   0  0  0  0  0  2  0  0  0  0  0  0
  188.0500  178.4890  141.4020 C   0  0  1  0  0  3  0  0  0  0  0  0
  189.8780  178.2390  138.2780 C   0  0  0  0  0  2  0  0  0  0  0  0
  185.6960  179.2510  140.8370 C   0  0  0  0  0  0  0  0  0  0  0  0
  189.4950  176.8060  138.6780 C   0  0  1  0  0  3  0  0  0  0  0  0
  186.6640  177.2030  138.4930 C   0  0  0  0  0  2  0  0  0  0  0  0
  189.1610  178.2140  140.7930 C   0  0  2  0  0  3  0  0  0  0  0  0
  186.9270  178.5890  140.5150 N   0  0  0  0  0  0  0  0  0  0  0  0
  187.7010  175.6000  143.3750 O   0  0  0  0  0  1  0  0  0  0  0  0
  187.0750  176.7540  142.9110 C   0  0  0  0  0  2  0  0  0  0  0  0
  190.1920  178.1830  143.7970 C   0  0  0  0  0  2  0  0  0  0  0  0
  192.0360  176.1680  146.4180 C   0  0  0  0  0  3  0  0  0  0  0  0
  191.1230  176.1670  147.4750 C   0  0  0  0  0  3  0  0  0  0  0  0
  189.8960  176.8200  147.3390 C   0  0  0  0  0  3  0  0  0  0  0  0
  190.4920  177.4780  145.0800 C   0  0  0  0  0  0  0  0  0  0  0  0
  189.5740  177.4780  146.1480 C   0  0  0  0  0  0  0  0  0  0  0  0
  191.7220  176.8230  145.2240 C   0  0  0  0  0  3  0  0  0  0  0  0
  188.0160  178.2810  146.0220 Cl  0  0  0  0  0  0  0  0  0  0  0  0
  1 19  1  0  0  0  0
  2 12  1  0  0  0  0
  3 11  1  6  0  0  0
  3 15  1  0  0  0  0
  5  1  1  0  0  0  0
  6  1  1  0  0  0  0
  6 18  1  6  0  0  0
  8 14  1  1  0  0  0
  8  3  1  0  0  0  0
  8 16  1  0  0  0  0
  9  7  1  0  0  0  0
  9 14  1  0  0  0  0
 10 16  1  6  0  0  0
 10  6  1  0  0  0  0
 11 13  1  0  0  0  0
 12  4  2  0  0  0  0
 13  7  1  6  0  0  0
 13  3  1  0  0  0  0
 15 10  1  0  0  0  0
 15  5  1  1  0  0  0
 16 12  1  0  0  0  0
 18 17  1  0  0  0  0
 19 23  1  0  0  0  0
 20 21  1  0  0  0  0
 22 21  2  0  0  0  0
 23 25  1  0  0  0  0
 23 24  2  0  0  0  0
 24 22  1  0  0  0  0
 25 20  2  0  0  0  0
 26 24  1  0  0  0  0
M  END
>  <MODEL>
1

>  <REMARK>
 VINA RESULT:      -7.2      0.000      0.000
  Name = 
  3 active torsions:
  status: ('A' for Active; 'I' for Inactive)
    1  A    between atoms: N_2  and  C_25
    2  A    between atoms: C_9  and  C_23
    3  A    between atoms: C_18  and  C_25
                            x       y       z     vdW  Elec       q    Type
                         _______ _______ _______ _____ _____    ______ ____

>  <TORSDO>
F 3

$$$$
=
 OpenBabel11062417183D

 26 30  0  0  1  0  0  0  0  0999 V2000
  183.2920  178.3950  142.7030 N   0  0  0  0  0  0  0  0  0  0  0  0
  178.9310  180.0860  138.9060 N   0  0  0  0  0  1  0  0  0  0  0  0
  182.5350  177.5280  139.2340 C   0  0  2  0  0  0  0  0  0  0  0  0
  180.0650  181.1270  140.6370 O   0  0  0  0  0  0  0  0  0  0  0  0
  183.7240  177.7570  141.5230 N   0  0  0  0  0  2  0  0  0  0  0  0
  182.1290  179.2000  142.2820 C   0  0  1  0  0  3  0  0  0  0  0  0
  181.6000  175.2160  138.5820 C   0  0  0  0  0  2  0  0  0  0  0  0
  181.2000  178.1420  138.8310 C   0  0  1  0  0  3  0  0  0  0  0  0
  180.5920  176.0180  137.8830 N   0  0  0  0  0  2  0  0  0  0  0  0
  182.1050  179.0940  140.7840 C   0  0  1  0  0  3  0  0  0  0  0  0
  183.4590  176.9440  138.1950 C   0  0  0  0  0  2  0  0  0  0  0  0
  179.9850  180.1390  139.8610 C   0  0  0  0  0  0  0  0  0  0  0  0
  182.7610  176.0240  139.2090 C   0  0  1  0  0  3  0  0  0  0  0  0
  180.1280  177.0680  138.7780 C   0  0  0  0  0  2  0  0  0  0  0  0
  183.0340  178.2720  140.4080 C   0  0  2  0  0  3  0  0  0  0  0  0
  180.9580  179.0890  139.9220 N   0  0  0  0  0  0  0  0  0  0  0  0
  181.0060  178.5370  144.2880 O   0  0  0  0  0  1  0  0  0  0  0  0
  180.8780  178.5930  142.9010 C   0  0  0  0  0  2  0  0  0  0  0  0
  184.3370  179.3290  143.1040 C   0  0  0  0  0  2  0  0  0  0  0  0
  185.2610  178.3730  146.6480 C   0  0  0  0  0  3  0  0  0  0  0  0
  186.4900  177.7350  146.4630 C   0  0  0  0  0  3  0  0  0  0  0  0
  187.0300  177.6170  145.1800 C   0  0  0  0  0  3  0  0  0  0  0  0
  185.1070  178.7790  144.2610 C   0  0  0  0  0  0  0  0  0  0  0  0
  186.3450  178.1330  144.0750 C   0  0  0  0  0  0  0  0  0  0  0  0
  184.5710  178.8920  145.5500 C   0  0  0  0  0  3  0  0  0  0  0  0
  187.0660  177.9640  142.4820 Cl  0  0  0  0  0  0  0  0  0  0  0  0
  1 19  1  0  0  0  0
  2 12  1  0  0  0  0
  3 11  1  6  0  0  0
  3 15  1  0  0  0  0
  5  1  1  0  0  0  0
  6  1  1  0  0  0  0
  6 18  1  1  0  0  0
  7 13  1  0  0  0  0
  8 14  1  1  0  0  0
  8  3  1  0  0  0  0
  8 16  1  0  0  0  0
  9  7  1  0  0  0  0
  9 14  1  0  0  0  0
 10 16  1  1  0  0  0
 10  6  1  0  0  0  0
 12 16  1  0  0  0  0
 12  4  2  0  0  0  0
 13 11  1  6  0  0  0
 13  3  1  0  0  0  0
 15 10  1  0  0  0  0
 15  5  1  1  0  0  0
 18 17  1  0  0  0  0
 19 23  1  0  0  0  0
 21 20  1  0  0  0  0
 22 21  2  0  0  0  0
 23 25  1  0  0  0  0
 24 23  2  0  0  0  0
 24 22  1  0  0  0  0
 25 20  2  0  0  0  0
 26 24  1  0  0  0  0
M  END
>  <MODEL>
2

>  <REMARK>
 VINA RESULT:      -6.8      4.594      6.119
  Name = 
  3 active torsions:
  status: ('A' for Active; 'I' for Inactive)
    1  A    between atoms: N_2  and  C_25
    2  A    between atoms: C_9  and  C_23
    3  A    between atoms: C_18  and  C_25
                            x       y       z     vdW  Elec       q    Type
                         _______ _______ _______ _____ _____    ______ ____

>  <TORSDO>
F 3

$$$$
=
 OpenBabel11062417183D

 26 30  0  0  1  0  0  0  0  0999 V2000
  190.6730  176.5950  143.2150 N   0  0  0  0  0  0  0  0  0  0  0  0
  186.4320  178.6170  139.4420 N   0  0  0  0  0  1  0  0  0  0  0  0
  190.6330  177.2160  139.6130 C   0  0  2  0  0  0  0  0  0  0  0  0
  186.9520  179.0230  141.6630 O   0  0  0  0  0  0  0  0  0  0  0  0
  191.4200  176.6920  142.0240 N   0  0  0  0  0  2  0  0  0  0  0  0
  189.3580  177.1720  142.8720 C   0  0  1  0  0  3  0  0  0  0  0  0
  190.6150  175.2890  137.9000 C   0  0  0  0  0  2  0  0  0  0  0  0
  189.2210  177.5760  139.1690 C   0  0  1  0  0  3  0  0  0  0  0  0
  189.4770  176.0280  137.3480 N   0  0  0  0  0  2  0  0  0  0  0  0
  189.5330  177.7470  141.4960 C   0  0  1  0  0  3  0  0  0  0  0  0
  191.8070  177.4220  138.6880 C   0  0  0  0  0  2  0  0  0  0  0  0
  187.2960  178.5060  140.5680 C   0  0  0  0  0  0  0  0  0  0  0  0
  191.3580  175.9990  139.0560 C   0  0  1  0  0  3  0  0  0  0  0  0
  188.5900  176.4040  138.4390 C   0  0  0  0  0  2  0  0  0  0  0  0
  190.7210  177.4540  141.0670 C   0  0  2  0  0  3  0  0  0  0  0  0
  188.5560  177.8320  140.4490 N   0  0  0  0  0  0  0  0  0  0  0  0
  187.2650  176.3770  143.7150 O   0  0  0  0  0  1  0  0  0  0  0  0
  188.3290  176.0500  142.8770 C   0  0  0  0  0  2  0  0  0  0  0  0
  191.2890  177.4850  144.1920 C   0  0  0  0  0  2  0  0  0  0  0  0
  188.6530  178.2290  146.8050 C   0  0  0  0  0  3  0  0  0  0  0  0
  189.0410  177.3910  147.8530 C   0  0  0  0  0  3  0  0  0  0  0  0
  190.1710  176.5800  147.7170 C   0  0  0  0  0  3  0  0  0  0  0  0
  190.5280  177.4470  145.4770 C   0  0  0  0  0  0  0  0  0  0  0  0
  190.9170  176.6010  146.5340 C   0  0  0  0  0  0  0  0  0  0  0  0
  189.3930  178.2550  145.6200 C   0  0  0  0  0  3  0  0  0  0  0  0
  192.3320  175.5670  146.4120 Cl  0  0  0  0  0  0  0  0  0  0  0  0
  1 19  1  0  0  0  0
  2 12  1  0  0  0  0
  3 11  1  6  0  0  0
  3 15  1  0  0  0  0
  5  1  1  0  0  0  0
  6 18  1  6  0  0  0
  6  1  1  0  0  0  0
  8 14  1  1  0  0  0
  8  3  1  0  0  0  0
  8 16  1  0  0  0  0
  9  7  1  0  0  0  0
  9 14  1  0  0  0  0
 10 16  1  6  0  0  0
 10  6  1  0  0  0  0
 11 13  1  0  0  0  0
 12  4  2  0  0  0  0
 13  7  1  6  0  0  0
 13  3  1  0  0  0  0
 15 10  1  0  0  0  0
 15  5  1  1  0  0  0
 16 12  1  0  0  0  0
 18 17  1  0  0  0  0
 19 23  1  0  0  0  0
 20 21  1  0  0  0  0
 22 21  2  0  0  0  0
 23 25  1  0  0  0  0
 23 24  2  0  0  0  0
 24 22  1  0  0  0  0
 25 20  2  0  0  0  0
 26 24  1  0  0  0  0
M  END
>  <MODEL>
3

>  <REMARK>
 VINA RESULT:      -6.6      1.723      2.151
  Name = 
  3 active torsions:
  status: ('A' for Active; 'I' for Inactive)
    1  A    between atoms: N_2  and  C_25
    2  A    between atoms: C_9  and  C_23
    3  A    between atoms: C_18  and  C_25
                            x       y       z     vdW  Elec       q    Type
                         _______ _______ _______ _____ _____    ______ ____

>  <TORSDO>
F 3

$$$$
=
 OpenBabel11062417183D

 26 30  0  0  1  0  0  0  0  0999 V2000
  189.5090  177.0350  140.8900 N   0  0  0  0  0  0  0  0  0  0  0  0
  188.7640  178.6160  135.1230 N   0  0  0  0  0  1  0  0  0  0  0  0
  191.0810  175.9310  137.7800 C   0  0  2  0  0  0  0  0  0  0  0  0
  188.6080  179.7380  137.1440 O   0  0  0  0  0  0  0  0  0  0  0  0
  190.5400  176.2860  140.2880 N   0  0  0  0  0  2  0  0  0  0  0  0
  188.9610  177.8560  139.7920 C   0  0  1  0  0  3  0  0  0  0  0  0
  190.5870  173.6190  136.7520 C   0  0  0  0  0  2  0  0  0  0  0  0
  190.3750  176.5700  136.5920 C   0  0  1  0  0  3  0  0  0  0  0  0
  190.3360  174.4080  135.5430 N   0  0  0  0  0  2  0  0  0  0  0  0
  189.8940  177.6320  138.6370 C   0  0  1  0  0  3  0  0  0  0  0  0
  192.4020  175.2240  137.6020 C   0  0  0  0  0  2  0  0  0  0  0  0
  188.9600  178.6970  136.5310 C   0  0  0  0  0  0  0  0  0  0  0  0
  191.1400  174.4200  137.9540 C   0  0  1  0  0  3  0  0  0  0  0  0
  189.4990  175.5460  135.8930 C   0  0  0  0  0  2  0  0  0  0  0  0
  190.7730  176.7420  138.9750 C   0  0  2  0  0  3  0  0  0  0  0  0
  189.5720  177.6110  137.2390 N   0  0  0  0  0  0  0  0  0  0  0  0
  186.6770  178.4320  139.3750 O   0  0  0  0  0  1  0  0  0  0  0  0
  187.5580  177.3570  139.4760 C   0  0  0  0  0  2  0  0  0  0  0  0
  190.1290  177.9490  141.8400 C   0  0  0  0  0  2  0  0  0  0  0  0
  187.6090  177.0860  144.5300 C   0  0  0  0  0  3  0  0  0  0  0  0
  188.2890  177.4560  145.6920 C   0  0  0  0  0  3  0  0  0  0  0  0
  189.5750  177.9960  145.6070 C   0  0  0  0  0  3  0  0  0  0  0  0
  189.5020  177.7970  143.1890 C   0  0  0  0  0  0  0  0  0  0  0  0
  190.1880  178.1670  144.3610 C   0  0  0  0  0  0  0  0  0  0  0  0
  188.2140  177.2550  143.2820 C   0  0  0  0  0  3  0  0  0  0  0  0
  191.8040  178.8550  144.3050 Cl  0  0  0  0  0  0  0  0  0  0  0  0
  1 19  1  0  0  0  0
  2 12  1  0  0  0  0
  3 11  1  6  0  0  0
  3 13  1  0  0  0  0
  3 15  1  0  0  0  0
  5  1  1  0  0  0  0
  6 18  1  6  0  0  0
  6  1  1  0  0  0  0
  8 14  1  1  0  0  0
  8 16  1  0  0  0  0
  8  3  1  0  0  0  0
  9 14  1  0  0  0  0
  9  7  1  0  0  0  0
 10 16  1  6  0  0  0
 10 15  1  0  0  0  0
 10  6  1  0  0  0  0
 11 13  1  0  0  0  0
 12  4  2  0  0  0  0
 12 16  1  0  0  0  0
 13  7  1  6  0  0  0
 15  5  1  1  0  0  0
 17 18  1  0  0  0  0
 19 23  1  0  0  0  0
 20 21  1  0  0  0  0
 22 21  2  0  0  0  0
 23 25  1  0  0  0  0
 23 24  2  0  0  0  0
 24 22  1  0  0  0  0
 25 20  2  0  0  0  0
 26 24  1  0  0  0  0
M  END
>  <MODEL>
4

>  <REMARK>
 VINA RESULT:      -6.5      2.477      3.847
  Name = 
  3 active torsions:
  status: ('A' for Active; 'I' for Inactive)
    1  A    between atoms: N_2  and  C_25
    2  A    between atoms: C_9  and  C_23
    3  A    between atoms: C_18  and  C_25
                            x       y       z     vdW  Elec       q    Type
                         _______ _______ _______ _____ _____    ______ ____

>  <TORSDO>
F 3

$$$$
=
 OpenBabel11062417183D

 26 30  0  0  1  0  0  0  0  0999 V2000
  190.3030  177.1840  141.2550 N   0  0  0  0  0  0  0  0  0  0  0  0
  192.0090  175.3810  135.7650 N   0  0  0  0  0  1  0  0  0  0  0  0
  188.5380  176.8960  138.0670 C   0  0  2  0  0  0  0  0  0  0  0  0
  192.6080  174.7890  137.9230 O   0  0  0  0  0  0  0  0  0  0  0  0
  189.0650  177.2210  140.5820 N   0  0  0  0  0  2  0  0  0  0  0  0
  191.2380  176.5990  140.2750 C   0  0  1  0  0  3  0  0  0  0  0  0
  187.8620  178.9710  136.6940 C   0  0  0  0  0  2  0  0  0  0  0  0
  189.5250  176.5330  136.9650 C   0  0  1  0  0  3  0  0  0  0  0  0
  188.5300  178.2500  135.6080 N   0  0  0  0  0  2  0  0  0  0  0  0
  190.3740  176.1590  139.1280 C   0  0  1  0  0  3  0  0  0  0  0  0
  187.0510  176.8150  137.8280 C   0  0  0  0  0  2  0  0  0  0  0  0
  191.8130  175.4160  137.1740 C   0  0  0  0  0  0  0  0  0  0  0  0
  187.7260  178.1820  138.0180 C   0  0  1  0  0  3  0  0  0  0  0  0
  189.8050  177.7460  136.0960 C   0  0  0  0  0  2  0  0  0  0  0  0
  189.1520  176.5280  139.3580 C   0  0  2  0  0  3  0  0  0  0  0  0
  190.7080  176.1380  137.7330 N   0  0  0  0  0  0  0  0  0  0  0  0
  193.5190  177.1790  139.8430 O   0  0  0  0  0  1  0  0  0  0  0  0
  192.2190  177.6810  139.8450 C   0  0  0  0  0  2  0  0  0  0  0  0
  190.1770  176.2280  142.3490 C   0  0  0  0  0  2  0  0  0  0  0  0
  187.2490  177.0440  144.6060 C   0  0  0  0  0  3  0  0  0  0  0  0
  187.8420  177.8780  145.5570 C   0  0  0  0  0  3  0  0  0  0  0  0
  189.2020  178.1850  145.4660 C   0  0  0  0  0  3  0  0  0  0  0  0
  189.3800  176.8220  143.4650 C   0  0  0  0  0  0  0  0  0  0  0  0
  189.9770  177.6610  144.4260 C   0  0  0  0  0  0  0  0  0  0  0  0
  188.0170  176.5170  143.5640 C   0  0  0  0  0  3  0  0  0  0  0  0
  191.6810  178.0800  144.3510 Cl  0  0  0  0  0  0  0  0  0  0  0  0
  1 19  1  0  0  0  0
  2 12  1  0  0  0  0
  3 11  1  6  0  0  0
  3 15  1  0  0  0  0
  5  1  1  0  0  0  0
  6 18  1  6  0  0  0
  6  1  1  0  0  0  0
  8 14  1  6  0  0  0
  8 16  1  0  0  0  0
  8  3  1  0  0  0  0
  9 14  1  0  0  0  0
  9  7  1  0  0  0  0
 10 16  1  6  0  0  0
 10 15  1  0  0  0  0
 10  6  1  0  0  0  0
 11 13  1  0  0  0  0
 12 16  1  0  0  0  0
 12  4  2  0  0  0  0
 13  7  1  6  0  0  0
 13  3  1  0  0  0  0
 15  5  1  1  0  0  0
 17 18  1  0  0  0  0
 19 23  1  0  0  0  0
 20 21  1  0  0  0  0
 22 21  2  0  0  0  0
 23 25  1  0  0  0  0
 23 24  2  0  0  0  0
 24 22  1  0  0  0  0
 25 20  2  0  0  0  0
 26 24  1  0  0  0  0
M  END
>  <MODEL>
5

>  <REMARK>
 VINA RESULT:      -6.5      3.138      4.642
  Name = 
  3 active torsions:
  status: ('A' for Active; 'I' for Inactive)
    1  A    between atoms: N_2  and  C_25
    2  A    between atoms: C_9  and  C_23
    3  A    between atoms: C_18  and  C_25
                            x       y       z     vdW  Elec       q    Type
                         _______ _______ _______ _____ _____    ______ ____

>  <TORSDO>
F 3

$$$$
=
 OpenBabel11062417183D

 26 30  0  0  1  0  0  0  0  0999 V2000
  183.5510  178.2610  142.2370 N   0  0  0  0  0  0  0  0  0  0  0  0
  179.0490  180.1040  138.6820 N   0  0  0  0  0  1  0  0  0  0  0  0
  182.4170  177.2340  138.9180 C   0  0  2  0  0  0  0  0  0  0  0  0
  180.4210  181.1460  140.2310 O   0  0  0  0  0  0  0  0  0  0  0  0
  183.8180  177.5030  141.0790 N   0  0  0  0  0  2  0  0  0  0  0  0
  182.4350  179.1450  141.8490 C   0  0  1  0  0  3  0  0  0  0  0  0
  181.2200  174.9840  138.5240 C   0  0  0  0  0  2  0  0  0  0  0  0
  181.1140  177.9460  138.5760 C   0  0  1  0  0  3  0  0  0  0  0  0
  180.2330  175.8310  137.8480 N   0  0  0  0  0  2  0  0  0  0  0  0
  182.2700  178.9380  140.3710 C   0  0  1  0  0  3  0  0  0  0  0  0
  183.1890  176.4900  137.8560 C   0  0  0  0  0  2  0  0  0  0  0  0
  180.1820  180.1190  139.5420 C   0  0  0  0  0  0  0  0  0  0  0  0
  182.5010  175.7160  138.9910 C   0  0  1  0  0  3  0  0  0  0  0  0
  179.9480  176.9810  138.6930 C   0  0  0  0  0  2  0  0  0  0  0  0
  183.0830  178.0040  139.9860 C   0  0  2  0  0  3  0  0  0  0  0  0
  181.0570  178.9850  139.6070 N   0  0  0  0  0  0  0  0  0  0  0  0
  180.5780  179.8100  143.2050 O   0  0  0  0  0  1  0  0  0  0  0  0
  181.1920  178.7080  142.6120 C   0  0  0  0  0  2  0  0  0  0  0  0
  184.7080  179.1140  142.4790 C   0  0  0  0  0  2  0  0  0  0  0  0
  187.7770  177.2480  143.6740 C   0  0  0  0  0  3  0  0  0  0  0  0
  187.5430  177.1590  145.0480 C   0  0  0  0  0  3  0  0  0  0  0  0
  186.3790  177.7030  145.5950 C   0  0  0  0  0  3  0  0  0  0  0  0
  185.6760  178.4270  143.3880 C   0  0  0  0  0  0  0  0  0  0  0  0
  185.4430  178.3390  144.7740 C   0  0  0  0  0  0  0  0  0  0  0  0
  186.8470  177.8820  142.8460 C   0  0  0  0  0  3  0  0  0  0  0  0
  183.9910  179.0030  145.5070 Cl  0  0  0  0  0  0  0  0  0  0  0  0
  1 19  1  0  0  0  0
  2 12  1  0  0  0  0
  3 11  1  6  0  0  0
  3 13  1  0  0  0  0
  3 15  1  0  0  0  0
  5  1  1  0  0  0  0
  6  1  1  0  0  0  0
  6 18  1  1  0  0  0
  7 13  1  0  0  0  0
  8 14  1  1  0  0  0
  8  3  1  0  0  0  0
  8 16  1  0  0  0  0
  9  7  1  0  0  0  0
  9 14  1  0  0  0  0
 10 16  1  1  0  0  0
 10  6  1  0  0  0  0
 12 16  1  0  0  0  0
 12  4  2  0  0  0  0
 13 11  1  6  0  0  0
 15 10  1  0  0  0  0
 15  5  1  1  0  0  0
 18 17  1  0  0  0  0
 19 23  1  0  0  0  0
 20 21  1  0  0  0  0
 21 22  2  0  0  0  0
 23 24  2  0  0  0  0
 24 26  1  0  0  0  0
 24 22  1  0  0  0  0
 25 23  1  0  0  0  0
 25 20  2  0  0  0  0
M  END
>  <MODEL>
6

>  <REMARK>
 VINA RESULT:      -6.4      4.251      6.029
  Name = 
  3 active torsions:
  status: ('A' for Active; 'I' for Inactive)
    1  A    between atoms: N_2  and  C_25
    2  A    between atoms: C_9  and  C_23
    3  A    between atoms: C_18  and  C_25
                            x       y       z     vdW  Elec       q    Type
                         _______ _______ _______ _____ _____    ______ ____

>  <TORSDO>
F 3

$$$$
=
 OpenBabel11062417183D

 26 30  0  0  1  0  0  0  0  0999 V2000
  184.7160  178.8880  142.1470 N   0  0  0  0  0  0  0  0  0  0  0  0
  180.8710  177.6160  137.6850 N   0  0  0  0  0  1  0  0  0  0  0  0
  181.0770  178.5720  142.0080 C   0  0  2  0  0  0  0  0  0  0  0  0
  183.0420  176.9790  138.1840 O   0  0  0  0  0  0  0  0  0  0  0  0
  183.5080  178.8150  142.8680 N   0  0  0  0  0  2  0  0  0  0  0  0
  184.3520  178.4750  140.7770 C   0  0  1  0  0  3  0  0  0  0  0  0
  179.5260  180.6250  142.1670 C   0  0  0  0  0  2  0  0  0  0  0  0
  180.6320  178.3930  140.5620 C   0  0  1  0  0  3  0  0  0  0  0  0
  178.9370  180.0520  140.9540 N   0  0  0  0  0  2  0  0  0  0  0  0
  182.9310  178.0010  140.8780 C   0  0  1  0  0  3  0  0  0  0  0  0
  180.1180  178.3270  143.1450 C   0  0  0  0  0  2  0  0  0  0  0  0
  181.9860  177.5470  138.5680 C   0  0  0  0  0  0  0  0  0  0  0  0
  180.6080  179.7520  142.8460 C   0  0  1  0  0  3  0  0  0  0  0  0
  180.0110  179.6780  140.0450 C   0  0  0  0  0  2  0  0  0  0  0  0
  182.5060  178.2080  142.0860 C   0  0  2  0  0  3  0  0  0  0  0  0
  181.8980  178.0990  139.8870 N   0  0  0  0  0  0  0  0  0  0  0  0
  185.2200  179.3750  138.7370 O   0  0  0  0  0  1  0  0  0  0  0  0
  184.4670  179.6900  139.8660 C   0  0  0  0  0  2  0  0  0  0  0  0
  185.6070  177.8640  142.6790 C   0  0  0  0  0  2  0  0  0  0  0  0
  185.0990  179.0050  146.2530 C   0  0  0  0  0  3  0  0  0  0  0  0
  186.2690  178.5540  146.8680 C   0  0  0  0  0  3  0  0  0  0  0  0
  187.2360  177.8790  146.1200 C   0  0  0  0  0  3  0  0  0  0  0  0
  185.8610  178.1050  144.1320 C   0  0  0  0  0  0  0  0  0  0  0  0
  187.0390  177.6490  144.7540 C   0  0  0  0  0  0  0  0  0  0  0  0
  184.8950  178.7790  144.8890 C   0  0  0  0  0  3  0  0  0  0  0  0
  188.2870  176.7990  143.8550 Cl  0  0  0  0  0  0  0  0  0  0  0  0
  1 19  1  0  0  0  0
  1  5  1  0  0  0  0
  2 12  1  0  0  0  0
  3 15  1  0  0  0  0
  3 13  1  0  0  0  0
  3 11  1  1  0  0  0
  4 12  2  0  0  0  0
  6 18  1  6  0  0  0
  6 10  1  0  0  0  0
  6  1  1  0  0  0  0
  8 14  1  6  0  0  0
  8  3  1  0  0  0  0
  9  7  1  0  0  0  0
 10 16  1  6  0  0  0
 10 15  1  0  0  0  0
 12 16  1  0  0  0  0
 13  7  1  6  0  0  0
 13 11  1  0  0  0  0
 14  9  1  0  0  0  0
 15  5  1  6  0  0  0
 16  8  1  0  0  0  0
 17 18  1  0  0  0  0
 19 23  1  0  0  0  0
 20 21  1  0  0  0  0
 22 21  2  0  0  0  0
 23 24  2  0  0  0  0
 23 25  1  0  0  0  0
 24 22  1  0  0  0  0
 25 20  2  0  0  0  0
 26 24  1  0  0  0  0
M  END
>  <MODEL>
7

>  <REMARK>
 VINA RESULT:      -6.1      4.156      6.633
  Name = 
  3 active torsions:
  status: ('A' for Active; 'I' for Inactive)
    1  A    between atoms: N_2  and  C_25
    2  A    between atoms: C_9  and  C_23
    3  A    between atoms: C_18  and  C_25
                            x       y       z     vdW  Elec       q    Type
                         _______ _______ _______ _____ _____    ______ ____

>  <TORSDO>
F 3

$$$$
=
 OpenBabel11062417183D

 26 30  0  0  1  0  0  0  0  0999 V2000
  187.6350  177.9000  141.8500 N   0  0  0  0  0  0  0  0  0  0  0  0
  182.3080  179.3630  144.2550 N   0  0  0  0  0  1  0  0  0  0  0  0
  184.4430  178.9280  140.3960 C   0  0  2  0  0  0  0  0  0  0  0  0
  184.5110  179.6030  144.9300 O   0  0  0  0  0  0  0  0  0  0  0  0
  186.9390  178.3050  140.6940 N   0  0  0  0  0  2  0  0  0  0  0  0
  186.7120  178.2050  142.9610 C   0  0  1  0  0  3  0  0  0  0  0  0
  182.9230  177.2680  139.1380 C   0  0  0  0  0  2  0  0  0  0  0  0
  183.3850  179.0130  141.4880 C   0  0  1  0  0  3  0  0  0  0  0  0
  181.8990  177.7940  140.0440 N   0  0  0  0  0  2  0  0  0  0  0  0
  185.5820  178.9670  142.3300 C   0  0  1  0  0  3  0  0  0  0  0  0
  184.1840  179.5020  139.0260 C   0  0  0  0  0  2  0  0  0  0  0  0
  183.7080  179.3130  144.0050 C   0  0  0  0  0  0  0  0  0  0  0  0
  184.2940  177.9810  139.2140 C   0  0  1  0  0  3  0  0  0  0  0  0
  182.4420  177.8270  141.3950 C   0  0  0  0  0  2  0  0  0  0  0  0
  185.7660  179.0010  141.0470 C   0  0  2  0  0  3  0  0  0  0  0  0
  184.1980  178.9580  142.7050 N   0  0  0  0  0  0  0  0  0  0  0  0
  186.6880  176.7540  144.8640 O   0  0  0  0  0  1  0  0  0  0  0  0
  186.2290  176.8890  143.5550 C   0  0  0  0  0  2  0  0  0  0  0  0
  188.7880  178.7800  141.9980 C   0  0  0  0  0  2  0  0  0  0  0  0
  190.7580  177.8770  145.1020 C   0  0  0  0  0  3  0  0  0  0  0  0
  191.6860  176.9620  144.5990 C   0  0  0  0  0  3  0  0  0  0  0  0
  191.6800  176.6370  143.2400 C   0  0  0  0  0  3  0  0  0  0  0  0
  189.8120  178.1460  142.8840 C   0  0  0  0  0  0  0  0  0  0  0  0
  190.7460  177.2220  142.3780 C   0  0  0  0  0  0  0  0  0  0  0  0
  189.8230  178.4660  144.2470 C   0  0  0  0  0  3  0  0  0  0  0  0
  190.7810  176.7850  140.6770 Cl  0  0  0  0  0  0  0  0  0  0  0  0
  1 19  1  0  0  0  0
  1  6  1  0  0  0  0
  3 11  1  6  0  0  0
  3 15  1  0  0  0  0
  3  8  1  0  0  0  0
  5  1  1  0  0  0  0
  6 18  1  6  0  0  0
  7 13  1  0  0  0  0
  7  9  1  0  0  0  0
  8 14  1  1  0  0  0
  8 16  1  0  0  0  0
  9 14  1  0  0  0  0
 10 16  1  6  0  0  0
 10  6  1  0  0  0  0
 12  2  1  0  0  0  0
 12  4  2  0  0  0  0
 13 11  1  6  0  0  0
 13  3  1  0  0  0  0
 15  5  1  6  0  0  0
 15 10  1  0  0  0  0
 16 12  1  0  0  0  0
 18 17  1  0  0  0  0
 19 23  1  0  0  0  0
 21 20  1  0  0  0  0
 22 21  2  0  0  0  0
 23 25  1  0  0  0  0
 24 23  2  0  0  0  0
 24 22  1  0  0  0  0
 25 20  2  0  0  0  0
 26 24  1  0  0  0  0
M  END
>  <MODEL>
8

>  <REMARK>
 VINA RESULT:      -5.7      2.703      4.018
  Name = 
  3 active torsions:
  status: ('A' for Active; 'I' for Inactive)
    1  A    between atoms: N_2  and  C_25
    2  A    between atoms: C_9  and  C_23
    3  A    between atoms: C_18  and  C_25
                            x       y       z     vdW  Elec       q    Type
                         _______ _______ _______ _____ _____    ______ ____

>  <TORSDO>
F 3

$$$$
=
 OpenBabel11062417183D

 26 30  0  0  1  0  0  0  0  0999 V2000
  185.1460  178.6630  142.2520 N   0  0  0  0  0  0  0  0  0  0  0  0
  187.3220  177.9050  147.8190 N   0  0  0  0  0  1  0  0  0  0  0  0
  188.2620  177.2500  143.5380 C   0  0  2  0  0  0  0  0  0  0  0  0
  185.1990  177.8760  146.8910 O   0  0  0  0  0  0  0  0  0  0  0  0
  186.3240  177.9450  141.9660 N   0  0  0  0  0  2  0  0  0  0  0  0
  185.0710  178.6770  143.7260 C   0  0  1  0  0  3  0  0  0  0  0  0
  190.5140  178.4820  143.3000 C   0  0  0  0  0  2  0  0  0  0  0  0
  188.3420  177.4690  145.0430 C   0  0  1  0  0  3  0  0  0  0  0  0
  190.6040  178.2250  144.7400 N   0  0  0  0  0  2  0  0  0  0  0  0
  186.1730  177.7620  144.1790 C   0  0  1  0  0  3  0  0  0  0  0  0
  189.2180  176.3130  142.8440 C   0  0  0  0  0  2  0  0  0  0  0  0
  186.4430  177.8900  146.6990 C   0  0  0  0  0  0  0  0  0  0  0  0
  189.3050  177.8260  142.5910 C   0  0  1  0  0  3  0  0  0  0  0  0
  189.3330  178.5760  145.3570 C   0  0  0  0  0  2  0  0  0  0  0  0
  186.8450  177.3690  143.1420 C   0  0  2  0  0  3  0  0  0  0  0  0
  186.9710  177.8690  145.3670 N   0  0  0  0  0  0  0  0  0  0  0  0
  184.0890  180.7690  144.3440 O   0  0  0  0  0  1  0  0  0  0  0  0
  185.3060  180.1040  144.2010 C   0  0  0  0  0  2  0  0  0  0  0  0
  184.0210  177.8660  141.7750 C   0  0  0  0  0  2  0  0  0  0  0  0
  182.9650  179.7940  138.6930 C   0  0  0  0  0  3  0  0  0  0  0  0
  181.6480  180.1400  139.0070 C   0  0  0  0  0  3  0  0  0  0  0  0
  181.0960  179.7510  140.2300 C   0  0  0  0  0  3  0  0  0  0  0  0
  183.1840  178.6670  140.8310 C   0  0  0  0  0  0  0  0  0  0  0  0
  181.8550  179.0130  141.1450 C   0  0  0  0  0  0  0  0  0  0  0  0
  183.7300  179.0590  139.6020 C   0  0  0  0  0  3  0  0  0  0  0  0
  181.1190  178.5510  142.6720 Cl  0  0  0  0  0  0  0  0  0  0  0  0
  1  6  1  0  0  0  0
  3 11  1  6  0  0  0
  3  8  1  0  0  0  0
  5  1  1  0  0  0  0
  6 10  1  0  0  0  0
  6 18  1  1  0  0  0
  7  9  1  0  0  0  0
  8 14  1  6  0  0  0
  8 16  1  0  0  0  0
  9 14  1  0  0  0  0
 10 16  1  1  0  0  0
 12  4  2  0  0  0  0
 12  2  1  0  0  0  0
 13 11  1  6  0  0  0
 13  7  1  0  0  0  0
 13  3  1  0  0  0  0
 15  5  1  6  0  0  0
 15  3  1  0  0  0  0
 15 10  1  0  0  0  0
 16 12  1  0  0  0  0
 18 17  1  0  0  0  0
 19  1  1  0  0  0  0
 20 21  2  0  0  0  0
 20 25  1  0  0  0  0
 21 22  1  0  0  0  0
 22 24  2  0  0  0  0
 23 24  1  0  0  0  0
 23 19  1  0  0  0  0
 24 26  1  0  0  0  0
 25 23  2  0  0  0  0
M  END
>  <MODEL>
9

>  <REMARK>
 VINA RESULT:      -5.7      3.420      7.282
  Name = 
  3 active torsions:
  status: ('A' for Active; 'I' for Inactive)
    1  A    between atoms: N_2  and  C_25
    2  A    between atoms: C_9  and  C_23
    3  A    between atoms: C_18  and  C_25
                            x       y       z     vdW  Elec       q    Type
                         _______ _______ _______ _____ _____    ______ ____

>  <TORSDO>
F 3

$$$$
