=
 OpenBabel11062417453D

 39 46  0  0  1  0  0  0  0  0999 V2000
  183.6360  179.3780  143.6500 C   0  0  0  0  0  3  0  0  0  0  0  0
  187.8500  177.4580  139.8920 C   0  0  2  0  0  3  0  0  0  0  0  0
  185.7090  178.5590  138.4850 C   0  0  0  0  0  2  0  0  0  0  0  0
  185.8720  175.8030  134.8620 C   0  0  0  0  0  2  0  0  0  0  0  0
  182.6910  175.9790  138.5690 C   0  0  0  0  0  0  0  0  0  0  0  0
  188.2750  177.8260  137.6460 C   0  0  2  0  0  3  0  0  0  0  0  0
  183.4080  175.8360  135.4610 C   0  0  0  0  0  0  0  0  0  0  0  0
  182.0400  177.4780  140.7500 C   0  0  1  0  0  3  0  0  0  0  0  0
  185.9640  177.5500  137.4600 C   0  0  1  0  0  0  0  0  0  0  0  0
  183.0530  178.4430  138.2130 O   0  0  0  0  0  0  0  0  0  0  0  0
  186.1090  176.2670  138.0000 O   0  0  0  0  0  1  0  0  0  0  0  0
  183.6300  177.1040  136.2670 C   0  0  2  0  0  3  0  0  0  0  0  0
  181.4550  175.3640  138.3540 O   0  0  0  0  0  1  0  0  0  0  0  0
  185.0670  177.7210  136.2190 C   0  0  2  0  0  3  0  0  0  0  0  0
  186.6460  179.3410  141.3140 C   0  0  0  0  0  2  0  0  0  0  0  0
  185.2570  179.1870  141.8560 C   0  0  0  0  0  0  0  0  0  0  0  0
  183.6820  175.0390  138.2870 O   0  0  0  0  0  1  0  0  0  0  0  0
  187.3190  177.9700  141.2580 C   0  0  2  0  0  3  0  0  0  0  0  0
  184.2970  178.5280  141.0910 C   0  0  0  0  0  3  0  0  0  0  0  0
  180.8090  177.8940  138.6660 O   0  0  0  0  0  0  0  0  0  0  0  0
  182.8480  177.1970  137.6020 C   0  0  1  0  0  0  0  0  0  0  0  0
  187.0530  178.6470  137.7530 C   0  0  2  0  0  0  0  0  0  0  0  0
  182.1620  175.4130  135.2530 C   0  0  0  0  0  2  0  0  0  0  0  0
  189.1460  176.8850  140.2360 N   0  0  0  0  0  0  0  0  0  0  0  0
  189.4400  177.1610  141.4580 C   0  0  0  0  0  0  0  0  0  0  0  0
  188.0470  178.5270  138.8930 N   0  0  1  0  0  0  0  0  0  0  0  0
  184.4840  175.2370  134.5940 C   0  0  0  0  0  2  0  0  0  0  0  0
  188.4540  177.8980  142.1560 N   0  0  0  0  0  2  0  0  0  0  0  0
  183.0150  178.2630  141.5870 C   0  0  0  0  0  0  0  0  0  0  0  0
  185.8210  177.3180  134.9560 C   0  0  0  0  0  2  0  0  0  0  0  0
  182.6830  178.7000  142.8740 C   0  0  0  0  0  3  0  0  0  0  0  0
  184.9240  179.6130  143.1460 C   0  0  0  0  0  3  0  0  0  0  0  0
  181.1880  178.4470  139.9020 C   0  0  0  0  0  2  0  0  0  0  0  0
  181.7650  178.2320  137.6710 C   0  0  2  0  0  3  0  0  0  0  0  0
  189.3110  178.5740  136.8320 C   0  0  0  0  0  1  0  0  0  0  0  0
  182.8190  176.3190  140.0630 C   0  0  0  0  0  2  0  0  0  0  0  0
  190.7430  176.7770  142.0730 C   0  0  0  0  0  2  0  0  0  0  0  0
  190.5420  175.6900  143.1150 C   0  0  0  0  0  2  0  0  0  0  0  0
  191.6820  175.5770  143.9130 O   0  0  0  0  0  1  0  0  0  0  0  0
  2 24  1  1  0  0  0
  2 18  1  0  0  0  0
  4 30  1  0  0  0  0
  5 36  1  0  0  0  0
  6 35  1  6  0  0  0
  6 22  1  0  0  0  0
  6 26  1  0  0  0  0
  8 33  1  6  0  0  0
  8 29  1  0  0  0  0
  9 22  1  0  0  0  0
  9 11  1  1  0  0  0
  9  3  1  0  0  0  0
 12  7  1  1  0  0  0
 12 21  1  0  0  0  0
 13  5  1  0  0  0  0
 14 30  1  6  0  0  0
 14 12  1  0  0  0  0
 14  9  1  0  0  0  0
 15 16  1  0  0  0  0
 16 32  2  0  0  0  0
 17  5  1  0  0  0  0
 18 15  1  6  0  0  0
 18 28  1  0  0  0  0
 19 29  2  0  0  0  0
 19 16  1  0  0  0  0
 20 33  1  0  0  0  0
 21 34  1  0  0  0  0
 21 10  1  1  0  0  0
 21  5  1  0  0  0  0
 22  3  1  6  0  0  0
 22 26  1  0  0  0  0
 23  7  2  0  0  0  0
 24 25  2  0  0  0  0
 25 37  1  0  0  0  0
 25 28  1  0  0  0  0
 26  2  1  0  0  0  0
 27  4  1  0  0  0  0
 27  7  1  0  0  0  0
 29 31  1  0  0  0  0
 31  1  2  0  0  0  0
 32  1  1  0  0  0  0
 34 10  1  0  0  0  0
 34 20  1  0  0  0  0
 36  8  1  0  0  0  0
 37 38  1  0  0  0  0
 38 39  1  0  0  0  0
M  END
>  <MODEL>
1

>  <REMARK>
 VINA RESULT:      -7.2      0.000      0.000
  Name = 
  2 active torsions:
  status: ('A' for Active; 'I' for Inactive)
    1  A    between atoms: C_12  and  C_28
    2  A    between atoms: C_26  and  C_28
                            x       y       z     vdW  Elec       q    Type
                         _______ _______ _______ _____ _____    ______ ____

>  <TORSDO>
F 2

$$$$
=
 OpenBabel11062417453D

 39 46  0  0  1  0  0  0  0  0999 V2000
  184.1060  178.8170  139.3380 C   0  0  0  0  0  3  0  0  0  0  0  0
  189.3460  176.9610  141.4970 C   0  0  2  0  0  3  0  0  0  0  0  0
  189.6030  177.7370  138.8310 C   0  0  0  0  0  2  0  0  0  0  0  0
  192.7690  174.6970  137.6100 C   0  0  0  0  0  2  0  0  0  0  0  0
  188.0030  174.9110  136.5430 C   0  0  0  0  0  0  0  0  0  0  0  0
  191.5350  177.1670  140.7720 C   0  0  2  0  0  3  0  0  0  0  0  0
  191.0710  174.5600  135.7310 C   0  0  0  0  0  0  0  0  0  0  0  0
  185.8300  176.5320  136.8130 C   0  0  1  0  0  3  0  0  0  0  0  0
  190.5900  176.6680  138.6950 C   0  0  1  0  0  0  0  0  0  0  0  0
  188.5740  177.3570  136.3940 O   0  0  0  0  0  0  0  0  0  0  0  0
  190.1390  175.4550  139.2320 O   0  0  0  0  0  1  0  0  0  0  0  0
  190.5130  175.9090  136.1490 C   0  0  2  0  0  3  0  0  0  0  0  0
  187.5840  174.1710  135.4350 O   0  0  0  0  0  1  0  0  0  0  0  0
  191.2600  176.6470  137.3090 C   0  0  2  0  0  3  0  0  0  0  0  0
  187.5900  178.8470  140.8820 C   0  0  0  0  0  2  0  0  0  0  0  0
  186.4470  178.6160  139.9390 C   0  0  0  0  0  0  0  0  0  0  0  0
  188.6900  174.0440  137.3920 O   0  0  0  0  0  1  0  0  0  0  0  0
  187.9110  177.5420  141.6100 C   0  0  2  0  0  3  0  0  0  0  0  0
  186.6400  177.8080  138.8200 C   0  0  0  0  0  3  0  0  0  0  0  0
  187.0900  176.6490  134.7090 O   0  0  0  0  0  0  0  0  0  0  0  0
  188.9710  176.0480  136.0790 C   0  0  1  0  0  0  0  0  0  0  0  0
  190.8890  177.8800  139.6530 C   0  0  2  0  0  0  0  0  0  0  0  0
  190.6470  174.0090  134.5940 C   0  0  0  0  0  2  0  0  0  0  0  0
  189.6410  176.5410  142.8620 N   0  0  0  0  0  0  0  0  0  0  0  0
  188.7160  176.9500  143.6590 C   0  0  0  0  0  0  0  0  0  0  0  0
  190.3550  177.9520  141.0710 N   0  0  1  0  0  0  0  0  0  0  0  0
  192.3240  173.9870  136.3380 C   0  0  0  0  0  2  0  0  0  0  0  0
  187.6590  177.6520  143.0330 N   0  0  0  0  0  2  0  0  0  0  0  0
  185.5850  177.4730  137.9630 C   0  0  0  0  0  0  0  0  0  0  0  0
  192.7150  176.2030  137.4250 C   0  0  0  0  0  2  0  0  0  0  0  0
  184.3110  177.9900  138.2230 C   0  0  0  0  0  3  0  0  0  0  0  0
  185.1700  179.1220  140.2010 C   0  0  0  0  0  3  0  0  0  0  0  0
  186.2030  177.3410  135.5530 C   0  0  0  0  0  2  0  0  0  0  0  0
  188.4310  176.9830  135.0380 C   0  0  2  0  0  3  0  0  0  0  0  0
  192.7700  177.9310  141.2050 C   0  0  0  0  0  1  0  0  0  0  0  0
  186.7630  175.3920  137.3140 C   0  0  0  0  0  2  0  0  0  0  0  0
  188.7820  176.7400  145.1330 C   0  0  0  0  0  2  0  0  0  0  0  0
  189.8020  177.6740  145.7610 C   0  0  0  0  0  2  0  0  0  0  0  0
  190.3560  177.0820  146.8970 O   0  0  0  0  0  1  0  0  0  0  0  0
  1 32  1  0  0  0  0
  2 18  1  0  0  0  0
  2 24  1  1  0  0  0
  5 36  1  0  0  0  0
  5 17  1  0  0  0  0
  6 26  1  0  0  0  0
  6 35  1  1  0  0  0
  7 27  1  0  0  0  0
  8 33  1  6  0  0  0
  8 36  1  0  0  0  0
  8 29  1  0  0  0  0
  9  3  1  0  0  0  0
  9 11  1  1  0  0  0
  9 22  1  0  0  0  0
 12  7  1  1  0  0  0
 12 14  1  0  0  0  0
 13  5  1  0  0  0  0
 14 30  1  1  0  0  0
 14  9  1  0  0  0  0
 16 32  2  0  0  0  0
 16 15  1  0  0  0  0
 18 15  1  6  0  0  0
 18 28  1  0  0  0  0
 19 16  1  0  0  0  0
 20 34  1  0  0  0  0
 20 33  1  0  0  0  0
 21 12  1  0  0  0  0
 21 10  1  1  0  0  0
 21  5  1  0  0  0  0
 22  3  1  6  0  0  0
 22  6  1  0  0  0  0
 22 26  1  0  0  0  0
 23  7  2  0  0  0  0
 24 25  2  0  0  0  0
 25 37  1  0  0  0  0
 26  2  1  0  0  0  0
 27  4  1  0  0  0  0
 28 25  1  0  0  0  0
 29 31  1  0  0  0  0
 29 19  2  0  0  0  0
 30  4  1  0  0  0  0
 31  1  2  0  0  0  0
 34 21  1  0  0  0  0
 34 10  1  0  0  0  0
 37 38  1  0  0  0  0
 38 39  1  0  0  0  0
M  END
>  <MODEL>
2

>  <REMARK>
 VINA RESULT:      -6.6      3.020      5.271
  Name = 
  2 active torsions:
  status: ('A' for Active; 'I' for Inactive)
    1  A    between atoms: C_12  and  C_28
    2  A    between atoms: C_26  and  C_28
                            x       y       z     vdW  Elec       q    Type
                         _______ _______ _______ _____ _____    ______ ____

>  <TORSDO>
F 2

$$$$
=
 OpenBabel11062417453D

 39 46  0  0  1  0  0  0  0  0999 V2000
  183.2590  179.2900  138.9160 C   0  0  0  0  0  3  0  0  0  0  0  0
  188.5250  176.4970  138.7140 C   0  0  2  0  0  3  0  0  0  0  0  0
  187.1050  176.0860  136.3490 C   0  0  0  0  0  2  0  0  0  0  0  0
  188.5470  171.8500  135.4960 C   0  0  0  0  0  2  0  0  0  0  0  0
  184.2080  173.4640  137.0640 C   0  0  0  0  0  0  0  0  0  0  0  0
  189.7770  175.5710  137.0000 C   0  0  2  0  0  3  0  0  0  0  0  0
  186.0410  171.6980  135.1380 C   0  0  0  0  0  0  0  0  0  0  0  0
  182.8240  175.7710  137.5040 C   0  0  1  0  0  3  0  0  0  0  0  0
  187.7000  174.7520  136.3150 C   0  0  1  0  0  0  0  0  0  0  0  0
  184.7460  175.2690  135.3960 O   0  0  0  0  0  0  0  0  0  0  0  0
  187.5950  174.0900  137.5440 O   0  0  0  0  0  1  0  0  0  0  0  0
  185.9780  173.2090  135.0020 C   0  0  2  0  0  3  0  0  0  0  0  0
  183.1290  172.5930  136.9030 O   0  0  0  0  0  1  0  0  0  0  0  0
  187.3430  173.9730  135.0340 C   0  0  2  0  0  3  0  0  0  0  0  0
  186.9270  178.5450  138.1960 C   0  0  0  0  0  2  0  0  0  0  0  0
  185.4310  178.4430  138.2490 C   0  0  0  0  0  0  0  0  0  0  0  0
  185.2060  172.7750  137.7530 O   0  0  0  0  0  1  0  0  0  0  0  0
  187.5320  177.5800  139.2140 C   0  0  2  0  0  3  0  0  0  0  0  0
  184.8140  177.2750  137.8040 C   0  0  0  0  0  3  0  0  0  0  0  0
  182.4830  174.6220  135.3610 O   0  0  0  0  0  0  0  0  0  0  0  0
  184.7520  173.8920  135.6630 C   0  0  1  0  0  0  0  0  0  0  0  0
  188.6280  176.0160  136.1870 C   0  0  2  0  0  0  0  0  0  0  0  0
  184.9550  170.9780  134.8600 C   0  0  0  0  0  2  0  0  0  0  0  0
  189.5790  176.5250  139.7210 N   0  0  0  0  0  0  0  0  0  0  0  0
  189.3980  177.5150  140.5220 C   0  0  0  0  0  0  0  0  0  0  0  0
  189.1140  176.7970  137.3930 N   0  0  1  0  0  0  0  0  0  0  0  0
  187.3480  170.9530  135.2190 C   0  0  0  0  0  2  0  0  0  0  0  0
  188.2420  178.2880  140.2610 N   0  0  0  0  0  2  0  0  0  0  0  0
  183.4320  177.0810  137.9260 C   0  0  0  0  0  0  0  0  0  0  0  0
  188.5060  173.0830  134.6100 C   0  0  0  0  0  2  0  0  0  0  0  0
  182.6520  178.1020  138.4800 C   0  0  0  0  0  3  0  0  0  0  0  0
  184.6480  179.4560  138.8100 C   0  0  0  0  0  3  0  0  0  0  0  0
  182.3820  175.8560  136.0270 C   0  0  0  0  0  2  0  0  0  0  0  0
  183.7520  174.5120  134.7330 C   0  0  2  0  0  3  0  0  0  0  0  0
  191.0630  175.9050  136.2740 C   0  0  0  0  0  1  0  0  0  0  0  0
  183.7730  174.6280  137.9710 C   0  0  0  0  0  2  0  0  0  0  0  0
  190.3610  177.8490  141.6100 C   0  0  0  0  0  2  0  0  0  0  0  0
  190.6020  176.6420  142.5000 C   0  0  0  0  0  2  0  0  0  0  0  0
  189.4250  176.2960  143.1670 O   0  0  0  0  0  1  0  0  0  0  0  0
  2 18  1  0  0  0  0
  2 24  1  1  0  0  0
  5 17  1  0  0  0  0
  5 36  1  0  0  0  0
  6 35  1  6  0  0  0
  6 26  1  0  0  0  0
  7 27  1  0  0  0  0
  8 33  1  6  0  0  0
  8 29  1  0  0  0  0
  8 36  1  0  0  0  0
  9  3  1  0  0  0  0
  9 11  1  1  0  0  0
 12 14  1  0  0  0  0
 12  7  1  1  0  0  0
 12 21  1  0  0  0  0
 13  5  1  0  0  0  0
 14 30  1  1  0  0  0
 14  9  1  0  0  0  0
 15 16  1  0  0  0  0
 16 32  2  0  0  0  0
 18 15  1  6  0  0  0
 18 28  1  0  0  0  0
 19 29  2  0  0  0  0
 19 16  1  0  0  0  0
 20 33  1  0  0  0  0
 21 10  1  1  0  0  0
 21  5  1  0  0  0  0
 22  9  1  0  0  0  0
 22  3  1  6  0  0  0
 22  6  1  0  0  0  0
 22 26  1  0  0  0  0
 23  7  2  0  0  0  0
 24 25  2  0  0  0  0
 25 37  1  0  0  0  0
 26  2  1  0  0  0  0
 27  4  1  0  0  0  0
 28 25  1  0  0  0  0
 29 31  1  0  0  0  0
 30  4  1  0  0  0  0
 31  1  2  0  0  0  0
 32  1  1  0  0  0  0
 34 20  1  0  0  0  0
 34 10  1  0  0  0  0
 34 21  1  0  0  0  0
 37 38  1  0  0  0  0
 38 39  1  0  0  0  0
M  END
>  <MODEL>
3

>  <REMARK>
 VINA RESULT:      -6.1      2.461      3.719
  Name = 
  2 active torsions:
  status: ('A' for Active; 'I' for Inactive)
    1  A    between atoms: C_12  and  C_28
    2  A    between atoms: C_26  and  C_28
                            x       y       z     vdW  Elec       q    Type
                         _______ _______ _______ _____ _____    ______ ____

>  <TORSDO>
F 2

$$$$
=
 OpenBabel11062417453D

 39 46  0  0  1  0  0  0  0  0999 V2000
  188.6370  178.0640  136.9370 C   0  0  0  0  0  3  0  0  0  0  0  0
  184.3180  177.6680  141.0300 C   0  0  2  0  0  3  0  0  0  0  0  0
  186.5430  178.9820  142.0770 C   0  0  0  0  0  2  0  0  0  0  0  0
  186.2010  177.4560  146.3550 C   0  0  0  0  0  2  0  0  0  0  0  0
  189.3620  176.2820  142.8160 C   0  0  0  0  0  0  0  0  0  0  0  0
  183.9360  178.7220  143.0560 C   0  0  2  0  0  3  0  0  0  0  0  0
  188.6570  177.1280  145.8130 C   0  0  0  0  0  0  0  0  0  0  0  0
  190.1070  177.0090  140.2970 C   0  0  1  0  0  3  0  0  0  0  0  0
  186.2220  178.3470  143.3530 C   0  0  1  0  0  0  0  0  0  0  0  0
  189.1850  178.7600  142.4130 O   0  0  0  0  0  0  0  0  0  0  0  0
  185.9780  176.9750  143.2190 O   0  0  0  0  0  1  0  0  0  0  0  0
  188.5240  178.1100  144.6610 C   0  0  2  0  0  3  0  0  0  0  0  0
  190.5500  175.6720  143.2250 O   0  0  0  0  0  1  0  0  0  0  0  0
  187.1370  178.8160  144.5000 C   0  0  2  0  0  3  0  0  0  0  0  0
  185.6480  178.9480  139.1290 C   0  0  0  0  0  2  0  0  0  0  0  0
  187.0190  178.5370  138.6800 C   0  0  0  0  0  0  0  0  0  0  0  0
  188.3060  175.5450  143.3500 O   0  0  0  0  0  1  0  0  0  0  0  0
  184.8760  177.7090  139.5820 C   0  0  2  0  0  3  0  0  0  0  0  0
  187.9320  178.0700  139.6230 C   0  0  0  0  0  3  0  0  0  0  0  0
  191.3800  177.9380  142.1810 O   0  0  0  0  0  0  0  0  0  0  0  0
  189.3020  177.7420  143.3720 C   0  0  1  0  0  0  0  0  0  0  0  0
  185.2150  179.3820  142.7280 C   0  0  2  0  0  0  0  0  0  0  0  0
  189.8690  176.6980  146.1580 C   0  0  0  0  0  2  0  0  0  0  0  0
  182.9800  177.1150  140.8530 N   0  0  0  0  0  0  0  0  0  0  0  0
  182.6990  177.0340  139.5990 C   0  0  0  0  0  0  0  0  0  0  0  0
  184.2070  178.9990  141.6610 N   0  0  1  0  0  0  0  0  0  0  0  0
  187.5450  176.8970  146.8020 C   0  0  0  0  0  2  0  0  0  0  0  0
  183.7330  177.4540  138.7290 N   0  0  0  0  0  2  0  0  0  0  0  0
  189.1870  177.5760  139.2490 C   0  0  0  0  0  0  0  0  0  0  0  0
  186.3640  178.8650  145.8140 C   0  0  0  0  0  2  0  0  0  0  0  0
  189.5420  177.5820  137.8950 C   0  0  0  0  0  3  0  0  0  0  0  0
  187.3730  178.5320  137.3270 C   0  0  0  0  0  3  0  0  0  0  0  0
  191.0340  178.1220  140.8300 C   0  0  0  0  0  2  0  0  0  0  0  0
  190.4580  178.6280  143.0140 C   0  0  2  0  0  3  0  0  0  0  0  0
  182.9640  179.7530  143.5930 C   0  0  0  0  0  1  0  0  0  0  0  0
  189.2490  176.1680  141.2870 C   0  0  0  0  0  2  0  0  0  0  0  0
  181.3680  176.5780  139.1070 C   0  0  0  0  0  2  0  0  0  0  0  0
  180.2840  176.9000  140.1220 C   0  0  0  0  0  2  0  0  0  0  0  0
  179.6870  175.7220  140.5730 O   0  0  0  0  0  1  0  0  0  0  0  0
  1 32  2  0  0  0  0
  1 31  1  0  0  0  0
  2 24  1  6  0  0  0
  2 26  1  0  0  0  0
  3  9  1  0  0  0  0
  4 27  1  0  0  0  0
  5 13  1  0  0  0  0
  5 17  1  0  0  0  0
  5 21  1  0  0  0  0
  6 35  1  1  0  0  0
  7 23  2  0  0  0  0
  7 27  1  0  0  0  0
  8 33  1  1  0  0  0
  8 36  1  0  0  0  0
  9 11  1  6  0  0  0
  9 14  1  0  0  0  0
 10 34  1  0  0  0  0
 12  7  1  6  0  0  0
 14 12  1  0  0  0  0
 14 30  1  1  0  0  0
 16 15  1  0  0  0  0
 16 19  2  0  0  0  0
 18 15  1  6  0  0  0
 18  2  1  0  0  0  0
 20 34  1  0  0  0  0
 21 10  1  6  0  0  0
 21 12  1  0  0  0  0
 22  3  1  1  0  0  0
 22  6  1  0  0  0  0
 22  9  1  0  0  0  0
 25 24  2  0  0  0  0
 26 22  1  0  0  0  0
 26  6  1  0  0  0  0
 28 18  1  0  0  0  0
 28 25  1  0  0  0  0
 29 19  1  0  0  0  0
 29  8  1  0  0  0  0
 30  4  1  0  0  0  0
 31 29  2  0  0  0  0
 32 16  1  0  0  0  0
 33 20  1  0  0  0  0
 34 21  1  0  0  0  0
 36  5  1  0  0  0  0
 37 25  1  0  0  0  0
 37 38  1  0  0  0  0
 38 39  1  0  0  0  0
M  END
>  <MODEL>
4

>  <REMARK>
 VINA RESULT:      -5.9      2.807      8.360
  Name = 
  2 active torsions:
  status: ('A' for Active; 'I' for Inactive)
    1  A    between atoms: C_12  and  C_28
    2  A    between atoms: C_26  and  C_28
                            x       y       z     vdW  Elec       q    Type
                         _______ _______ _______ _____ _____    ______ ____

>  <TORSDO>
F 2

$$$$
=
 OpenBabel11062417453D

 39 46  0  0  1  0  0  0  0  0999 V2000
  181.6890  178.5930  141.1000 C   0  0  0  0  0  3  0  0  0  0  0  0
  187.3620  177.6820  139.5020 C   0  0  2  0  0  3  0  0  0  0  0  0
  185.6750  177.4710  137.2920 C   0  0  0  0  0  2  0  0  0  0  0  0
  187.9820  174.2360  135.0650 C   0  0  0  0  0  2  0  0  0  0  0  0
  183.7540  174.0010  137.5070 C   0  0  0  0  0  0  0  0  0  0  0  0
  188.4610  177.6460  137.4650 C   0  0  2  0  0  3  0  0  0  0  0  0
  185.5820  173.4240  134.9530 C   0  0  0  0  0  0  0  0  0  0  0  0
  181.9260  175.5860  138.7610 C   0  0  1  0  0  3  0  0  0  0  0  0
  186.5790  176.4350  136.7970 C   0  0  1  0  0  0  0  0  0  0  0  0
  183.4730  176.2440  136.4020 O   0  0  0  0  0  0  0  0  0  0  0  0
  186.8870  175.4850  137.7780 O   0  0  0  0  0  1  0  0  0  0  0  0
  185.1020  174.8270  135.2820 C   0  0  2  0  0  3  0  0  0  0  0  0
  182.9290  172.9130  137.2120 O   0  0  0  0  0  1  0  0  0  0  0  0
  186.2010  175.9360  135.3900 C   0  0  2  0  0  3  0  0  0  0  0  0
  185.2160  179.2080  139.7950 C   0  0  0  0  0  2  0  0  0  0  0  0
  183.8380  178.6450  139.9780 C   0  0  0  0  0  0  0  0  0  0  0  0
  185.0090  173.4970  137.8450 O   0  0  0  0  0  1  0  0  0  0  0  0
  186.2360  178.2480  140.4080 C   0  0  2  0  0  3  0  0  0  0  0  0
  183.4730  177.4980  139.2760 C   0  0  0  0  0  3  0  0  0  0  0  0
  181.4940  174.9700  136.4230 O   0  0  0  0  0  0  0  0  0  0  0  0
  183.8900  174.9140  136.2450 C   0  0  1  0  0  0  0  0  0  0  0  0
  187.1030  177.9110  136.9510 C   0  0  2  0  0  0  0  0  0  0  0  0
  184.6890  172.5030  134.5950 C   0  0  0  0  0  2  0  0  0  0  0  0
  188.5450  177.7730  140.3510 N   0  0  0  0  0  0  0  0  0  0  0  0
  188.2670  178.4250  141.4250 C   0  0  0  0  0  0  0  0  0  0  0  0
  187.5890  178.4710  138.2750 N   0  0  1  0  0  0  0  0  0  0  0  0
  187.0280  173.1170  134.6660 C   0  0  0  0  0  2  0  0  0  0  0  0
  186.9220  178.8490  141.5330 N   0  0  0  0  0  2  0  0  0  0  0  0
  182.2400  176.8680  139.4850 C   0  0  0  0  0  0  0  0  0  0  0  0
  187.4520  175.5800  134.5960 C   0  0  0  0  0  2  0  0  0  0  0  0
  181.3400  177.4280  140.3990 C   0  0  0  0  0  3  0  0  0  0  0  0
  182.9400  179.1950  140.8970 C   0  0  0  0  0  3  0  0  0  0  0  0
  181.2040  175.9040  137.4340 C   0  0  0  0  0  2  0  0  0  0  0  0
  182.6040  175.4150  135.6570 C   0  0  2  0  0  3  0  0  0  0  0  0
  189.4530  178.5290  136.7350 C   0  0  0  0  0  1  0  0  0  0  0  0
  183.2110  174.7070  138.7600 C   0  0  0  0  0  2  0  0  0  0  0  0
  189.2990  178.7500  142.4510 C   0  0  0  0  0  2  0  0  0  0  0  0
  189.8510  177.4790  143.0740 C   0  0  0  0  0  2  0  0  0  0  0  0
  188.8930  176.8990  143.9070 O   0  0  0  0  0  1  0  0  0  0  0  0
  2 24  1  1  0  0  0
  2 18  1  0  0  0  0
  5 17  1  0  0  0  0
  5 36  1  0  0  0  0
  6 35  1  6  0  0  0
  6 26  1  0  0  0  0
  8 33  1  6  0  0  0
  8 29  1  0  0  0  0
  9 22  1  0  0  0  0
  9  3  1  0  0  0  0
  9 11  1  1  0  0  0
 12  7  1  1  0  0  0
 12 14  1  0  0  0  0
 12 21  1  0  0  0  0
 13  5  1  0  0  0  0
 14 30  1  1  0  0  0
 14  9  1  0  0  0  0
 15 16  1  0  0  0  0
 16 32  2  0  0  0  0
 18 15  1  6  0  0  0
 18 28  1  0  0  0  0
 19 29  2  0  0  0  0
 19 16  1  0  0  0  0
 20 33  1  0  0  0  0
 21 10  1  1  0  0  0
 21  5  1  0  0  0  0
 22  3  1  6  0  0  0
 22  6  1  0  0  0  0
 22 26  1  0  0  0  0
 23  7  2  0  0  0  0
 24 25  2  0  0  0  0
 25 28  1  0  0  0  0
 25 37  1  0  0  0  0
 26  2  1  0  0  0  0
 27  7  1  0  0  0  0
 27  4  1  0  0  0  0
 29 31  1  0  0  0  0
 30  4  1  0  0  0  0
 31  1  2  0  0  0  0
 32  1  1  0  0  0  0
 34 21  1  0  0  0  0
 34 10  1  0  0  0  0
 34 20  1  0  0  0  0
 36  8  1  0  0  0  0
 37 38  1  0  0  0  0
 38 39  1  0  0  0  0
M  END
>  <MODEL>
5

>  <REMARK>
 VINA RESULT:      -5.7      1.710      2.482
  Name = 
  2 active torsions:
  status: ('A' for Active; 'I' for Inactive)
    1  A    between atoms: C_12  and  C_28
    2  A    between atoms: C_26  and  C_28
                            x       y       z     vdW  Elec       q    Type
                         _______ _______ _______ _____ _____    ______ ____

>  <TORSDO>
F 2

$$$$
=
 OpenBabel11062417453D

 39 46  0  0  1  0  0  0  0  0999 V2000
  182.0680  179.0920  142.9140 C   0  0  0  0  0  3  0  0  0  0  0  0
  187.1310  177.6180  140.1300 C   0  0  2  0  0  3  0  0  0  0  0  0
  185.1320  178.2130  138.2800 C   0  0  0  0  0  2  0  0  0  0  0  0
  186.3660  175.2320  135.0630 C   0  0  0  0  0  2  0  0  0  0  0  0
  182.5850  175.1670  138.1610 C   0  0  0  0  0  0  0  0  0  0  0  0
  187.8890  177.8650  137.9560 C   0  0  2  0  0  3  0  0  0  0  0  0
  183.8590  174.8900  135.2470 C   0  0  0  0  0  0  0  0  0  0  0  0
  181.3300  176.7100  140.0250 C   0  0  1  0  0  3  0  0  0  0  0  0
  185.7190  177.1800  137.4290 C   0  0  1  0  0  0  0  0  0  0  0  0
  182.6180  177.6190  137.5950 O   0  0  0  0  0  0  0  0  0  0  0  0
  185.9630  175.9910  138.1260 O   0  0  0  0  0  1  0  0  0  0  0  0
  183.7340  176.2410  135.9310 C   0  0  2  0  0  3  0  0  0  0  0  0
  181.5180  174.3340  137.8180 O   0  0  0  0  0  1  0  0  0  0  0  0
  185.0430  177.0900  136.0470 C   0  0  2  0  0  3  0  0  0  0  0  0
  185.4160  179.3790  141.1170 C   0  0  0  0  0  2  0  0  0  0  0  0
  183.9930  179.0330  141.4410 C   0  0  0  0  0  0  0  0  0  0  0  0
  183.7440  174.3930  138.1510 O   0  0  0  0  0  1  0  0  0  0  0  0
  186.2920  178.1440  141.3250 C   0  0  2  0  0  3  0  0  0  0  0  0
  183.2990  178.1580  140.6080 C   0  0  0  0  0  3  0  0  0  0  0  0
  180.4420  176.7310  137.7360 O   0  0  0  0  0  0  0  0  0  0  0  0
  182.7210  176.3090  137.1020 C   0  0  1  0  0  0  0  0  0  0  0  0
  186.5550  178.4690  137.7700 C   0  0  2  0  0  0  0  0  0  0  0  0
  182.7510  174.2430  134.8880 C   0  0  0  0  0  2  0  0  0  0  0  0
  188.4190  177.3080  140.7420 N   0  0  0  0  0  0  0  0  0  0  0  0
  188.4430  177.7320  141.9570 C   0  0  0  0  0  0  0  0  0  0  0  0
  187.3350  178.6180  139.0620 N   0  0  1  0  0  0  0  0  0  0  0  0
  185.1520  174.4150  134.6380 C   0  0  0  0  0  2  0  0  0  0  0  0
  187.2460  178.3430  142.3980 N   0  0  0  0  0  2  0  0  0  0  0  0
  182.0060  177.7180  140.9160 C   0  0  0  0  0  0  0  0  0  0  0  0
  186.0640  176.7180  134.9770 C   0  0  0  0  0  2  0  0  0  0  0  0
  181.3860  178.1970  142.0750 C   0  0  0  0  0  3  0  0  0  0  0  0
  183.3730  179.5020  142.6030 C   0  0  0  0  0  3  0  0  0  0  0  0
  180.5030  177.4430  138.9470 C   0  0  0  0  0  2  0  0  0  0  0  0
  181.4960  177.1450  136.8770 C   0  0  2  0  0  3  0  0  0  0  0  0
  188.9250  178.7090  137.2420 C   0  0  0  0  0  1  0  0  0  0  0  0
  182.3900  175.6480  139.6090 C   0  0  0  0  0  2  0  0  0  0  0  0
  189.6580  177.6300  142.8140 C   0  0  0  0  0  2  0  0  0  0  0  0
  189.5980  178.6380  143.9490 C   0  0  0  0  0  2  0  0  0  0  0  0
  190.8900  178.9760  144.3560 O   0  0  0  0  0  1  0  0  0  0  0  0
  2 24  1  1  0  0  0
  2 18  1  0  0  0  0
  5 36  1  0  0  0  0
  6 35  1  6  0  0  0
  6 26  1  0  0  0  0
  8 33  1  6  0  0  0
  8 29  1  0  0  0  0
  9 22  1  0  0  0  0
  9 11  1  1  0  0  0
  9  3  1  0  0  0  0
 12  7  1  1  0  0  0
 12 14  1  0  0  0  0
 12 21  1  0  0  0  0
 13  5  1  0  0  0  0
 14 30  1  6  0  0  0
 14  9  1  0  0  0  0
 15 16  1  0  0  0  0
 16 32  2  0  0  0  0
 17  5  1  0  0  0  0
 18 15  1  6  0  0  0
 18 28  1  0  0  0  0
 19 29  2  0  0  0  0
 19 16  1  0  0  0  0
 20 33  1  0  0  0  0
 21 10  1  1  0  0  0
 21  5  1  0  0  0  0
 22  6  1  0  0  0  0
 22  3  1  6  0  0  0
 22 26  1  0  0  0  0
 23  7  2  0  0  0  0
 24 25  2  0  0  0  0
 25 28  1  0  0  0  0
 25 37  1  0  0  0  0
 26  2  1  0  0  0  0
 27  4  1  0  0  0  0
 27  7  1  0  0  0  0
 29 31  1  0  0  0  0
 30  4  1  0  0  0  0
 31  1  2  0  0  0  0
 32  1  1  0  0  0  0
 34 21  1  0  0  0  0
 34 10  1  0  0  0  0
 34 20  1  0  0  0  0
 36  8  1  0  0  0  0
 37 38  1  0  0  0  0
 38 39  1  0  0  0  0
M  END
>  <MODEL>
6

>  <REMARK>
 VINA RESULT:      -5.2      1.212      1.326
  Name = 
  2 active torsions:
  status: ('A' for Active; 'I' for Inactive)
    1  A    between atoms: C_12  and  C_28
    2  A    between atoms: C_26  and  C_28
                            x       y       z     vdW  Elec       q    Type
                         _______ _______ _______ _____ _____    ______ ____

>  <TORSDO>
F 2

$$$$
=
 OpenBabel11062417453D

 39 46  0  0  1  0  0  0  0  0999 V2000
  179.6340  176.7400  138.5790 C   0  0  0  0  0  3  0  0  0  0  0  0
  185.4630  177.8490  139.1740 C   0  0  2  0  0  3  0  0  0  0  0  0
  184.9140  176.8230  136.6400 C   0  0  0  0  0  2  0  0  0  0  0  0
  188.7790  174.4790  136.0750 C   0  0  0  0  0  2  0  0  0  0  0  0
  184.2340  172.9250  136.9840 C   0  0  0  0  0  0  0  0  0  0  0  0
  187.2160  178.0320  137.6710 C   0  0  2  0  0  3  0  0  0  0  0  0
  186.9860  172.8300  135.3680 C   0  0  0  0  0  0  0  0  0  0  0  0
  181.6720  173.8310  137.1830 C   0  0  1  0  0  3  0  0  0  0  0  0
  186.2110  176.1540  136.7130 C   0  0  1  0  0  0  0  0  0  0  0  0
  183.7220  174.7910  135.3770 O   0  0  0  0  0  0  0  0  0  0  0  0
  186.3950  175.4810  137.9270 O   0  0  0  0  0  1  0  0  0  0  0  0
  186.0080  173.9800  135.1980 C   0  0  2  0  0  3  0  0  0  0  0  0
  183.9670  171.5860  136.6880 O   0  0  0  0  0  1  0  0  0  0  0  0
  186.5790  175.4210  135.4090 C   0  0  2  0  0  3  0  0  0  0  0  0
  183.0130  178.4920  138.3990 C   0  0  0  0  0  2  0  0  0  0  0  0
  181.9190  177.4790  138.2410 C   0  0  0  0  0  0  0  0  0  0  0  0
  185.3510  172.9560  137.8190 O   0  0  0  0  0  1  0  0  0  0  0  0
  183.9600  178.0400  139.5100 C   0  0  2  0  0  3  0  0  0  0  0  0
  182.2270  176.2180  137.7350 C   0  0  0  0  0  3  0  0  0  0  0  0
  182.3870  172.8830  135.0340 O   0  0  0  0  0  0  0  0  0  0  0  0
  184.5560  173.7010  135.6660 C   0  0  1  0  0  0  0  0  0  0  0  0
  186.1510  177.7270  136.6960 C   0  0  2  0  0  0  0  0  0  0  0  0
  186.6320  171.6140  134.9520 C   0  0  0  0  0  2  0  0  0  0  0  0
  186.1370  178.4500  140.3190 N   0  0  0  0  0  0  0  0  0  0  0  0
  185.2800  179.0500  141.0690 C   0  0  0  0  0  0  0  0  0  0  0  0
  185.8900  178.5480  137.9450 N   0  0  1  0  0  0  0  0  0  0  0  0
  188.4480  173.0550  135.6470 C   0  0  0  0  0  2  0  0  0  0  0  0
  183.9370  178.9540  140.6330 N   0  0  0  0  0  2  0  0  0  0  0  0
  181.2690  175.2000  137.6630 C   0  0  0  0  0  0  0  0  0  0  0  0
  188.0830  175.4810  135.1700 C   0  0  0  0  0  2  0  0  0  0  0  0
  179.9610  175.4690  138.0830 C   0  0  0  0  0  3  0  0  0  0  0  0
  180.6130  177.7410  138.6680 C   0  0  0  0  0  3  0  0  0  0  0  0
  181.4570  173.7330  135.6570 C   0  0  0  0  0  2  0  0  0  0  0  0
  183.5100  173.6340  134.5940 C   0  0  2  0  0  3  0  0  0  0  0  0
  188.0860  179.1470  137.1280 C   0  0  0  0  0  1  0  0  0  0  0  0
  183.0610  173.4940  137.7990 C   0  0  0  0  0  2  0  0  0  0  0  0
  185.6810  179.8280  142.2760 C   0  0  0  0  0  2  0  0  0  0  0  0
  185.2360  179.1160  143.5430 C   0  0  0  0  0  2  0  0  0  0  0  0
  184.0370  179.6630  144.0020 O   0  0  0  0  0  1  0  0  0  0  0  0
  1 32  1  0  0  0  0
  2 18  1  0  0  0  0
  2 24  1  1  0  0  0
  3  9  1  0  0  0  0
  5 36  1  0  0  0  0
  5 17  1  0  0  0  0
  6 35  1  6  0  0  0
  6 26  1  0  0  0  0
  7 27  1  0  0  0  0
  8 33  1  6  0  0  0
  8 29  1  0  0  0  0
  8 36  1  0  0  0  0
  9 11  1  1  0  0  0
 12  7  1  1  0  0  0
 12 14  1  0  0  0  0
 12 21  1  0  0  0  0
 13  5  1  0  0  0  0
 14 30  1  1  0  0  0
 14  9  1  0  0  0  0
 16 15  1  0  0  0  0
 16 32  2  0  0  0  0
 18 15  1  6  0  0  0
 18 28  1  0  0  0  0
 19 16  1  0  0  0  0
 20 33  1  0  0  0  0
 21 10  1  1  0  0  0
 21  5  1  0  0  0  0
 22  3  1  6  0  0  0
 22  9  1  0  0  0  0
 22  6  1  0  0  0  0
 22 26  1  0  0  0  0
 23  7  2  0  0  0  0
 24 25  2  0  0  0  0
 25 37  1  0  0  0  0
 26  2  1  0  0  0  0
 27  4  1  0  0  0  0
 28 25  1  0  0  0  0
 29 19  2  0  0  0  0
 29 31  1  0  0  0  0
 30  4  1  0  0  0  0
 31  1  2  0  0  0  0
 34 20  1  0  0  0  0
 34 10  1  0  0  0  0
 34 21  1  0  0  0  0
 37 38  1  0  0  0  0
 38 39  1  0  0  0  0
M  END
>  <MODEL>
7

>  <REMARK>
 VINA RESULT:      -4.9      2.886      4.645
  Name = 
  2 active torsions:
  status: ('A' for Active; 'I' for Inactive)
    1  A    between atoms: C_12  and  C_28
    2  A    between atoms: C_26  and  C_28
                            x       y       z     vdW  Elec       q    Type
                         _______ _______ _______ _____ _____    ______ ____

>  <TORSDO>
F 2

$$$$
=
 OpenBabel11062417453D

 39 46  0  0  1  0  0  0  0  0999 V2000
  190.9580  176.8170  137.6480 C   0  0  0  0  0  3  0  0  0  0  0  0
  185.1510  177.3340  138.9020 C   0  0  2  0  0  3  0  0  0  0  0  0
  186.6680  178.9370  140.6060 C   0  0  0  0  0  2  0  0  0  0  0  0
  184.0600  178.5290  144.3190 C   0  0  0  0  0  2  0  0  0  0  0  0
  188.4310  176.5980  143.2900 C   0  0  0  0  0  0  0  0  0  0  0  0
  183.9120  178.8530  140.1360 C   0  0  2  0  0  3  0  0  0  0  0  0
  186.4050  178.1510  145.2080 C   0  0  0  0  0  0  0  0  0  0  0  0
  190.4150  176.6890  141.4240 C   0  0  1  0  0  3  0  0  0  0  0  0
  185.6840  178.6350  141.6420 C   0  0  1  0  0  0  0  0  0  0  0  0
  188.7410  178.8870  142.2930 O   0  0  0  0  0  0  0  0  0  0  0  0
  185.3990  177.2660  141.7240 O   0  0  0  0  0  1  0  0  0  0  0  0
  186.9730  178.8060  143.9600 C   0  0  2  0  0  3  0  0  0  0  0  0
  189.1800  176.1480  144.3790 O   0  0  0  0  0  1  0  0  0  0  0  0
  185.9390  179.4060  142.9510 C   0  0  2  0  0  3  0  0  0  0  0  0
  187.3820  178.1330  137.7190 C   0  0  0  0  0  2  0  0  0  0  0  0
  188.7410  177.6640  138.1470 C   0  0  0  0  0  0  0  0  0  0  0  0
  187.1800  175.9870  143.3590 O   0  0  0  0  0  1  0  0  0  0  0  0
  186.3630  177.0250  137.9840 C   0  0  2  0  0  3  0  0  0  0  0  0
  189.0010  177.4780  139.5030 C   0  0  0  0  0  3  0  0  0  0  0  0
  190.6540  178.1020  143.4180 O   0  0  0  0  0  0  0  0  0  0  0  0
  188.2520  178.1490  143.3800 C   0  0  1  0  0  0  0  0  0  0  0  0
  185.2430  179.4480  140.3690 C   0  0  2  0  0  0  0  0  0  0  0  0
  187.2260  177.8590  146.2150 C   0  0  0  0  0  2  0  0  0  0  0  0
  184.0350  176.7130  138.1970 N   0  0  0  0  0  0  0  0  0  0  0  0
  184.4180  176.3100  137.0360 C   0  0  0  0  0  0  0  0  0  0  0  0
  184.8770  178.7770  139.0590 N   0  0  1  0  0  0  0  0  0  0  0  0
  184.9290  178.1430  145.5080 C   0  0  0  0  0  2  0  0  0  0  0  0
  185.7860  176.5280  136.7510 N   0  0  0  0  0  2  0  0  0  0  0  0
  190.2140  176.9440  139.9540 C   0  0  0  0  0  0  0  0  0  0  0  0
  184.6190  179.7610  143.6280 C   0  0  0  0  0  2  0  0  0  0  0  0
  191.2010  176.6190  139.0160 C   0  0  0  0  0  3  0  0  0  0  0  0
  189.7260  177.3290  137.2130 C   0  0  0  0  0  3  0  0  0  0  0  0
  191.0580  177.9280  142.0820 C   0  0  0  0  0  2  0  0  0  0  0  0
  189.5160  178.9500  143.4740 C   0  0  2  0  0  3  0  0  0  0  0  0
  182.9150  179.9550  139.8420 C   0  0  0  0  0  1  0  0  0  0  0  0
  189.0930  176.0980  141.9950 C   0  0  0  0  0  2  0  0  0  0  0  0
  183.4760  175.7040  136.0520 C   0  0  0  0  0  2  0  0  0  0  0  0
  182.7900  174.4860  136.6460 C   0  0  0  0  0  2  0  0  0  0  0  0
  183.7370  173.5090  136.9580 O   0  0  0  0  0  1  0  0  0  0  0  0
  1 31  1  0  0  0  0
  2 24  1  6  0  0  0
  2 26  1  0  0  0  0
  3  9  1  0  0  0  0
  4 27  1  0  0  0  0
  5 17  1  0  0  0  0
  5 21  1  0  0  0  0
  5 13  1  0  0  0  0
  6 35  1  6  0  0  0
  6 22  1  0  0  0  0
  7 27  1  0  0  0  0
  7 23  2  0  0  0  0
  8 36  1  1  0  0  0
  8 33  1  0  0  0  0
  9 11  1  1  0  0  0
  9 14  1  0  0  0  0
 10 34  1  0  0  0  0
 12  7  1  6  0  0  0
 14 30  1  1  0  0  0
 14 12  1  0  0  0  0
 15 16  1  0  0  0  0
 16 19  2  0  0  0  0
 18 15  1  6  0  0  0
 18  2  1  0  0  0  0
 19 29  1  0  0  0  0
 20 34  1  0  0  0  0
 21 10  1  6  0  0  0
 21 34  1  0  0  0  0
 21 12  1  0  0  0  0
 22  3  1  1  0  0  0
 22  9  1  0  0  0  0
 25 24  2  0  0  0  0
 26  6  1  0  0  0  0
 26 22  1  0  0  0  0
 28 25  1  0  0  0  0
 28 18  1  0  0  0  0
 29  8  1  0  0  0  0
 30  4  1  0  0  0  0
 31 29  2  0  0  0  0
 32  1  2  0  0  0  0
 32 16  1  0  0  0  0
 33 20  1  0  0  0  0
 36  5  1  0  0  0  0
 37 38  1  0  0  0  0
 37 25  1  0  0  0  0
 38 39  1  0  0  0  0
M  END
>  <MODEL>
8

>  <REMARK>
 VINA RESULT:      -4.5      2.426      7.825
  Name = 
  2 active torsions:
  status: ('A' for Active; 'I' for Inactive)
    1  A    between atoms: C_12  and  C_28
    2  A    between atoms: C_26  and  C_28
                            x       y       z     vdW  Elec       q    Type
                         _______ _______ _______ _____ _____    ______ ____

>  <TORSDO>
F 2

$$$$
=
 OpenBabel11062417453D

 39 46  0  0  1  0  0  0  0  0999 V2000
  179.0910  172.1520  137.0140 C   0  0  0  0  0  3  0  0  0  0  0  0
  181.7410  176.9280  139.4070 C   0  0  2  0  0  3  0  0  0  0  0  0
  182.7700  176.4050  136.8680 C   0  0  0  0  0  2  0  0  0  0  0  0
  187.0550  177.7350  137.6560 C   0  0  0  0  0  2  0  0  0  0  0  0
  185.1770  173.2550  137.1140 C   0  0  0  0  0  0  0  0  0  0  0  0
  183.0500  178.6300  138.5400 C   0  0  2  0  0  3  0  0  0  0  0  0
  187.3410  175.5110  136.4700 C   0  0  0  0  0  0  0  0  0  0  0  0
  182.8610  171.9810  136.4470 C   0  0  1  0  0  3  0  0  0  0  0  0
  184.0570  176.8730  137.3780 C   0  0  1  0  0  0  0  0  0  0  0  0
  183.8480  174.4790  135.3620 O   0  0  0  0  0  0  0  0  0  0  0  0
  184.3850  176.2930  138.6090 O   0  0  0  0  0  1  0  0  0  0  0  0
  185.9160  175.6130  135.9550 C   0  0  2  0  0  3  0  0  0  0  0  0
  186.0810  172.2400  136.7940 O   0  0  0  0  0  1  0  0  0  0  0  0
  185.1440  176.9330  136.2870 C   0  0  2  0  0  3  0  0  0  0  0  0
  179.9240  175.7720  137.8650 C   0  0  0  0  0  2  0  0  0  0  0  0
  180.0390  174.3510  137.4000 C   0  0  0  0  0  0  0  0  0  0  0  0
  185.6480  173.8920  138.2610 O   0  0  0  0  0  1  0  0  0  0  0  0
  180.5850  175.9070  139.2360 C   0  0  2  0  0  3  0  0  0  0  0  0
  181.2920  173.8440  137.0640 C   0  0  0  0  0  3  0  0  0  0  0  0
  184.5260  172.3310  134.6760 O   0  0  0  0  0  0  0  0  0  0  0  0
  185.1110  174.2880  135.9420 C   0  0  1  0  0  0  0  0  0  0  0  0
  182.8500  177.8780  137.2860 C   0  0  2  0  0  0  0  0  0  0  0  0
  188.1290  174.5420  136.0060 C   0  0  0  0  0  2  0  0  0  0  0  0
  181.4380  177.5600  140.6860 N   0  0  0  0  0  0  0  0  0  0  0  0
  180.2790  177.1820  141.1000 C   0  0  0  0  0  0  0  0  0  0  0  0
  181.7770  177.9650  138.3560 N   0  0  1  0  0  0  0  0  0  0  0  0
  188.0150  176.6470  137.1950 C   0  0  0  0  0  2  0  0  0  0  0  0
  179.6210  176.2530  140.2600 N   0  0  0  0  0  2  0  0  0  0  0  0
  181.4750  172.4980  136.7250 C   0  0  0  0  0  0  0  0  0  0  0  0
  186.0900  178.1010  136.5410 C   0  0  0  0  0  2  0  0  0  0  0  0
  180.3620  171.6500  136.6930 C   0  0  0  0  0  3  0  0  0  0  0  0
  178.9310  173.4980  137.3770 C   0  0  0  0  0  3  0  0  0  0  0  0
  183.1640  172.0950  134.9380 C   0  0  0  0  0  2  0  0  0  0  0  0
  184.7670  173.7290  134.5940 C   0  0  2  0  0  3  0  0  0  0  0  0
  182.8880  180.1120  138.2670 C   0  0  0  0  0  1  0  0  0  0  0  0
  183.8290  172.6160  137.4890 C   0  0  0  0  0  2  0  0  0  0  0  0
  179.6600  177.7220  142.3430 C   0  0  0  0  0  2  0  0  0  0  0  0
  180.3620  178.9970  142.7800 C   0  0  0  0  0  2  0  0  0  0  0  0
  181.1700  178.7410  143.8890 O   0  0  0  0  0  1  0  0  0  0  0  0
  1 32  1  0  0  0  0
  2 24  1  1  0  0  0
  3  9  1  0  0  0  0
  5 36  1  0  0  0  0
  5 17  1  0  0  0  0
  6 35  1  6  0  0  0
  7 27  1  0  0  0  0
  8 33  1  6  0  0  0
  8 29  1  0  0  0  0
  8 36  1  0  0  0  0
  9 11  1  1  0  0  0
 12 14  1  0  0  0  0
 12  7  1  1  0  0  0
 13  5  1  0  0  0  0
 14 30  1  1  0  0  0
 14  9  1  0  0  0  0
 16 15  1  0  0  0  0
 18 15  1  6  0  0  0
 18  2  1  0  0  0  0
 18 28  1  0  0  0  0
 19 16  1  0  0  0  0
 20 33  1  0  0  0  0
 21 10  1  1  0  0  0
 21 12  1  0  0  0  0
 21  5  1  0  0  0  0
 22  3  1  6  0  0  0
 22  9  1  0  0  0  0
 22 26  1  0  0  0  0
 22  6  1  0  0  0  0
 23  7  2  0  0  0  0
 24 25  2  0  0  0  0
 25 37  1  0  0  0  0
 26  6  1  0  0  0  0
 26  2  1  0  0  0  0
 27  4  1  0  0  0  0
 28 25  1  0  0  0  0
 29 19  2  0  0  0  0
 30  4  1  0  0  0  0
 31 29  1  0  0  0  0
 31  1  2  0  0  0  0
 32 16  2  0  0  0  0
 34 20  1  0  0  0  0
 34 10  1  0  0  0  0
 34 21  1  0  0  0  0
 37 38  1  0  0  0  0
 38 39  1  0  0  0  0
M  END
>  <MODEL>
9

>  <REMARK>
 VINA RESULT:      -4.4      3.569      6.854
  Name = 
  2 active torsions:
  status: ('A' for Active; 'I' for Inactive)
    1  A    between atoms: C_12  and  C_28
    2  A    between atoms: C_26  and  C_28
                            x       y       z     vdW  Elec       q    Type
                         _______ _______ _______ _____ _____    ______ ____

>  <TORSDO>
F 2

$$$$
