=
 OpenBabel11062414313D

 31 36  0  0  1  0  0  0  0  0999 V2000
  184.3240  178.7400  141.0390 N   0  0  0  0  0  0  0  0  0  0  0  0
  182.7970  177.5890  140.1130 C   0  0  0  0  0  0  0  0  0  0  0  0
  184.6680  180.2020  139.2990 O   0  0  0  0  0  0  0  0  0  0  0  0
  183.1150  178.5160  139.1770 N   0  0  0  0  0  0  0  0  0  0  0  0
  184.0720  179.2160  139.8100 C   0  0  0  0  0  0  0  0  0  0  0  0
  183.5300  177.7060  141.2420 N   0  0  0  0  0  2  0  0  0  0  0  0
  180.3630  176.7750  140.3570 C   0  0  2  0  0  3  0  0  0  0  0  0
  181.8020  176.4840  139.8920 C   0  0  1  0  0  3  0  0  0  0  0  0
  180.7440  176.9170  138.8920 C   0  0  1  0  0  3  0  0  0  0  0  0
  179.7130  180.4440  140.8800 C   0  0  0  0  0  3  0  0  0  0  0  0
  180.1440  178.1770  142.4190 C   0  0  0  0  0  3  0  0  0  0  0  0
  179.9310  179.2390  140.2890 N   0  0  0  0  0  0  0  0  0  0  0  0
  180.1570  178.1100  141.0230 C   0  0  0  0  0  0  0  0  0  0  0  0
  179.7040  180.5490  142.2730 C   0  0  0  0  0  3  0  0  0  0  0  0
  179.9170  179.4050  143.0440 C   0  0  0  0  0  3  0  0  0  0  0  0
  180.2920  175.8020  138.1890 O   0  0  0  0  0  0  0  0  0  0  0  0
  180.3170  174.7650  139.1210 C   0  0  0  0  0  2  0  0  0  0  0  0
  179.6000  173.5590  138.5540 C   0  0  0  0  0  1  0  0  0  0  0  0
  185.3040  179.2300  141.9980 C   0  0  0  0  0  2  0  0  0  0  0  0
  186.1850  178.0940  142.4950 C   0  0  0  0  0  2  0  0  0  0  0  0
  187.5810  177.6660  144.5680 C   0  0  1  0  0  0  0  0  0  0  0  0
  186.2630  178.0980  144.0180 C   0  0  2  0  0  3  0  0  0  0  0  0
  186.4870  176.7820  144.4790 O   0  0  0  0  0  0  0  0  0  0  0  0
  188.7010  177.3130  143.6280 C   0  0  0  0  0  0  0  0  0  0  0  0
  190.0980  176.1090  142.3730 C   0  0  0  0  0  3  0  0  0  0  0  0
  188.9750  176.1000  143.2990 N   0  0  0  0  0  0  0  0  0  0  0  0
  189.5140  178.2520  143.0290 O   0  0  0  0  0  0  0  0  0  0  0  0
  190.4520  177.5890  142.2030 C   0  0  0  0  0  3  0  0  0  0  0  0
  189.2990  177.8140  146.4100 C   0  0  0  0  0  2  0  0  0  0  0  0
  188.1450  176.9920  146.9320 C   0  0  0  0  0  2  0  0  0  0  0  0
  187.8760  178.1570  145.9910 C   0  0  0  0  0  3  0  0  0  0  0  0
  1  6  1  0  0  0  0
  1 19  1  0  0  0  0
  2  6  1  0  0  0  0
  3  5  2  0  0  0  0
  4  5  1  0  0  0  0
  4  2  2  0  0  0  0
  5  1  1  0  0  0  0
  7 13  1  1  0  0  0
  8  2  1  1  0  0  0
  8  7  1  0  0  0  0
  9 16  1  6  0  0  0
  9  8  1  0  0  0  0
  9  7  1  0  0  0  0
 10 14  1  0  0  0  0
 11 15  1  0  0  0  0
 12 10  2  0  0  0  0
 12 13  1  0  0  0  0
 13 11  2  0  0  0  0
 14 15  2  0  0  0  0
 16 17  1  0  0  0  0
 18 17  1  0  0  0  0
 19 20  1  0  0  0  0
 21 24  1  6  0  0  0
 21 31  1  0  0  0  0
 22 20  1  6  0  0  0
 22 23  1  0  0  0  0
 22 21  1  0  0  0  0
 23 21  1  0  0  0  0
 25 26  1  0  0  0  0
 26 24  2  0  0  0  0
 27 24  1  0  0  0  0
 28 25  2  0  0  0  0
 28 27  1  0  0  0  0
 29 30  1  0  0  0  0
 31 29  1  0  0  0  0
 31 30  1  0  0  0  0
M  END
>  <MODEL>
1

>  <REMARK>
 VINA RESULT:      -6.6      0.000      0.000
  Name = 
  9 active torsions:
  status: ('A' for Active; 'I' for Inactive)
    1  A    between atoms: C_1  and  C_25
    2  A    between atoms: C_2  and  O_9
    3  A    between atoms: C_3  and  C_11
    4  A    between atoms: C_4  and  C_5
    5  A    between atoms: C_5  and  C_31
    6  A    between atoms: N_6  and  C_28
    7  A    between atoms: C_8  and  C_14
    8  A    between atoms: O_9  and  C_23
    9  A    between atoms: C_14  and  C_28
                            x       y       z     vdW  Elec       q    Type
                         _______ _______ _______ _____ _____    ______ ____

>  <TORSDO>
F 9

$$$$
=
 OpenBabel11062414313D

 31 36  0  0  1  0  0  0  0  0999 V2000
  187.6500  178.1850  141.1990 N   0  0  0  0  0  0  0  0  0  0  0  0
  187.1250  177.6040  143.1740 C   0  0  0  0  0  0  0  0  0  0  0  0
  185.9080  179.6460  140.8630 O   0  0  0  0  0  0  0  0  0  0  0  0
  186.1560  178.4860  142.8290 N   0  0  0  0  0  0  0  0  0  0  0  0
  186.5370  178.8250  141.5840 C   0  0  0  0  0  0  0  0  0  0  0  0
  188.0310  177.4030  142.1920 N   0  0  0  0  0  2  0  0  0  0  0  0
  188.5160  176.7430  145.1660 C   0  0  2  0  0  3  0  0  0  0  0  0
  187.1450  176.8520  144.4760 C   0  0  1  0  0  3  0  0  0  0  0  0
  187.5040  177.7830  145.6200 C   0  0  1  0  0  3  0  0  0  0  0  0
  191.0050  179.2540  143.8780 C   0  0  0  0  0  3  0  0  0  0  0  0
  190.4910  176.5380  143.6400 C   0  0  0  0  0  3  0  0  0  0  0  0
  189.9500  178.6910  144.5250 N   0  0  0  0  0  0  0  0  0  0  0  0
  189.6680  177.3600  144.4170 C   0  0  0  0  0  0  0  0  0  0  0  0
  191.8420  178.4640  143.0850 C   0  0  0  0  0  3  0  0  0  0  0  0
  191.5820  177.0970  142.9720 C   0  0  0  0  0  3  0  0  0  0  0  0
  186.8810  177.3400  146.7860 O   0  0  0  0  0  0  0  0  0  0  0  0
  187.0910  178.3650  147.7080 C   0  0  0  0  0  2  0  0  0  0  0  0
  188.4520  178.1950  148.3500 C   0  0  0  0  0  1  0  0  0  0  0  0
  188.3360  178.2850  139.9180 C   0  0  0  0  0  2  0  0  0  0  0  0
  188.9280  176.9440  139.5180 C   0  0  0  0  0  2  0  0  0  0  0  0
  191.0460  176.1810  138.3520 C   0  0  1  0  0  0  0  0  0  0  0  0
  190.4470  177.0300  139.4230 C   0  0  2  0  0  3  0  0  0  0  0  0
  191.0070  175.7630  139.6970 O   0  0  0  0  0  0  0  0  0  0  0  0
  190.1510  175.3680  137.4570 C   0  0  0  0  0  0  0  0  0  0  0  0
  189.0920  173.6220  136.5600 C   0  0  0  0  0  3  0  0  0  0  0  0
  190.0400  174.0910  137.5600 N   0  0  0  0  0  0  0  0  0  0  0  0
  189.3650  175.9200  136.4670 O   0  0  0  0  0  0  0  0  0  0  0  0
  188.6450  174.8860  135.8230 C   0  0  0  0  0  3  0  0  0  0  0  0
  192.7880  176.0020  136.5350 C   0  0  0  0  0  2  0  0  0  0  0  0
  193.4000  175.4560  137.8040 C   0  0  0  0  0  2  0  0  0  0  0  0
  192.4340  176.6300  137.8750 C   0  0  0  0  0  3  0  0  0  0  0  0
  1  5  1  0  0  0  0
  1  6  1  0  0  0  0
  3  5  2  0  0  0  0
  4  2  2  0  0  0  0
  5  4  1  0  0  0  0
  6  2  1  0  0  0  0
  7 13  1  6  0  0  0
  7  9  1  0  0  0  0
  8  2  1  6  0  0  0
  8  7  1  0  0  0  0
  8  9  1  0  0  0  0
  9 16  1  1  0  0  0
 10 12  1  0  0  0  0
 11 13  1  0  0  0  0
 13 12  2  0  0  0  0
 14 10  2  0  0  0  0
 15 14  1  0  0  0  0
 15 11  2  0  0  0  0
 16 17  1  0  0  0  0
 17 18  1  0  0  0  0
 19  1  1  0  0  0  0
 20 19  1  0  0  0  0
 21 24  1  6  0  0  0
 21 22  1  0  0  0  0
 21 23  1  0  0  0  0
 22 20  1  6  0  0  0
 22 23  1  0  0  0  0
 24 26  2  0  0  0  0
 25 26  1  0  0  0  0
 27 24  1  0  0  0  0
 28 27  1  0  0  0  0
 28 25  2  0  0  0  0
 29 30  1  0  0  0  0
 29 31  1  0  0  0  0
 30 31  1  0  0  0  0
 31 21  1  0  0  0  0
M  END
>  <MODEL>
2

>  <REMARK>
 VINA RESULT:      -6.5      4.792      8.514
  Name = 
  9 active torsions:
  status: ('A' for Active; 'I' for Inactive)
    1  A    between atoms: C_1  and  C_25
    2  A    between atoms: C_2  and  O_9
    3  A    between atoms: C_3  and  C_11
    4  A    between atoms: C_4  and  C_5
    5  A    between atoms: C_5  and  C_31
    6  A    between atoms: N_6  and  C_28
    7  A    between atoms: C_8  and  C_14
    8  A    between atoms: O_9  and  C_23
    9  A    between atoms: C_14  and  C_28
                            x       y       z     vdW  Elec       q    Type
                         _______ _______ _______ _____ _____    ______ ____

>  <TORSDO>
F 9

$$$$
=
 OpenBabel11062414313D

 31 36  0  0  1  0  0  0  0  0999 V2000
  189.4710  176.7750  141.6350 N   0  0  0  0  0  0  0  0  0  0  0  0
  189.5550  177.9870  139.8920 C   0  0  0  0  0  0  0  0  0  0  0  0
  191.7280  176.7450  142.0670 O   0  0  0  0  0  0  0  0  0  0  0  0
  190.8520  177.8730  140.2700 N   0  0  0  0  0  0  0  0  0  0  0  0
  190.7420  177.1100  141.3710 C   0  0  0  0  0  0  0  0  0  0  0  0
  188.7090  177.3170  140.7040 N   0  0  0  0  0  2  0  0  0  0  0  0
  189.4280  178.0000  137.3180 C   0  0  2  0  0  3  0  0  0  0  0  0
  189.1070  178.7030  138.6490 C   0  0  1  0  0  3  0  0  0  0  0  0
  188.0400  177.8970  137.9290 C   0  0  1  0  0  3  0  0  0  0  0  0
  190.2460  174.3350  137.5550 C   0  0  0  0  0  3  0  0  0  0  0  0
  191.5970  176.7550  137.4510 C   0  0  0  0  0  3  0  0  0  0  0  0
  189.5600  175.5060  137.4790 N   0  0  0  0  0  0  0  0  0  0  0  0
  190.1990  176.7110  137.4370 C   0  0  0  0  0  0  0  0  0  0  0  0
  191.6430  174.3420  137.5820 C   0  0  0  0  0  3  0  0  0  0  0  0
  192.3190  175.5620  137.5250 C   0  0  0  0  0  3  0  0  0  0  0  0
  187.1790  178.7660  137.2620 O   0  0  0  0  0  0  0  0  0  0  0  0
  186.5630  177.9760  136.2910 C   0  0  0  0  0  2  0  0  0  0  0  0
  185.9680  176.7470  136.9450 C   0  0  0  0  0  1  0  0  0  0  0  0
  188.9780  175.9450  142.7260 C   0  0  0  0  0  2  0  0  0  0  0  0
  188.2340  176.7890  143.7490 C   0  0  0  0  0  2  0  0  0  0  0  0
  188.2740  177.5150  146.1780 C   0  0  1  0  0  0  0  0  0  0  0  0
  189.0100  176.8560  145.0600 C   0  0  2  0  0  3  0  0  0  0  0  0
  189.2290  178.2070  145.4070 O   0  0  0  0  0  0  0  0  0  0  0  0
  186.8710  178.0080  145.9580 C   0  0  0  0  0  0  0  0  0  0  0  0
  184.6650  178.2610  146.1840 C   0  0  0  0  0  3  0  0  0  0  0  0
  185.8670  177.5750  146.6360 N   0  0  0  0  0  0  0  0  0  0  0  0
  186.5420  178.9720  145.0280 O   0  0  0  0  0  0  0  0  0  0  0  0
  185.1480  179.2100  145.0840 C   0  0  0  0  0  3  0  0  0  0  0  0
  188.0520  177.9500  148.6540 C   0  0  0  0  0  2  0  0  0  0  0  0
  189.4680  178.2980  148.2580 C   0  0  0  0  0  2  0  0  0  0  0  0
  188.7600  177.1320  147.5820 C   0  0  0  0  0  3  0  0  0  0  0  0
  1 19  1  0  0  0  0
  2  4  2  0  0  0  0
  2  6  1  0  0  0  0
  4  5  1  0  0  0  0
  5  1  1  0  0  0  0
  5  3  2  0  0  0  0
  6  1  1  0  0  0  0
  7 13  1  1  0  0  0
  7  9  1  0  0  0  0
  7  8  1  0  0  0  0
  8  2  1  1  0  0  0
  9 16  1  6  0  0  0
  9  8  1  0  0  0  0
 10 14  1  0  0  0  0
 11 15  1  0  0  0  0
 12 10  2  0  0  0  0
 13 11  2  0  0  0  0
 13 12  1  0  0  0  0
 15 14  2  0  0  0  0
 17 18  1  0  0  0  0
 17 16  1  0  0  0  0
 19 20  1  0  0  0  0
 21 24  1  6  0  0  0
 21 31  1  0  0  0  0
 22 20  1  6  0  0  0
 22 23  1  0  0  0  0
 22 21  1  0  0  0  0
 23 21  1  0  0  0  0
 24 26  2  0  0  0  0
 25 26  1  0  0  0  0
 27 28  1  0  0  0  0
 27 24  1  0  0  0  0
 28 25  2  0  0  0  0
 30 29  1  0  0  0  0
 31 30  1  0  0  0  0
 31 29  1  0  0  0  0
M  END
>  <MODEL>
3

>  <REMARK>
 VINA RESULT:      -6.2      4.760      7.655
  Name = 
  9 active torsions:
  status: ('A' for Active; 'I' for Inactive)
    1  A    between atoms: C_1  and  C_25
    2  A    between atoms: C_2  and  O_9
    3  A    between atoms: C_3  and  C_11
    4  A    between atoms: C_4  and  C_5
    5  A    between atoms: C_5  and  C_31
    6  A    between atoms: N_6  and  C_28
    7  A    between atoms: C_8  and  C_14
    8  A    between atoms: O_9  and  C_23
    9  A    between atoms: C_14  and  C_28
                            x       y       z     vdW  Elec       q    Type
                         _______ _______ _______ _____ _____    ______ ____

>  <TORSDO>
F 9

$$$$
=
 OpenBabel11062414313D

 31 36  0  0  1  0  0  0  0  0999 V2000
  188.7480  177.8250  139.0140 N   0  0  0  0  0  0  0  0  0  0  0  0
  189.5970  176.3950  137.6910 C   0  0  0  0  0  0  0  0  0  0  0  0
  188.9280  179.6420  137.6180 O   0  0  0  0  0  0  0  0  0  0  0  0
  189.6430  177.5530  136.9880 N   0  0  0  0  0  0  0  0  0  0  0  0
  189.0920  178.4160  137.8600 C   0  0  0  0  0  0  0  0  0  0  0  0
  189.0680  176.5480  138.9240 N   0  0  0  0  0  2  0  0  0  0  0  0
  189.2100  174.2340  136.3410 C   0  0  2  0  0  3  0  0  0  0  0  0
  190.1610  175.0930  137.1940 C   0  0  1  0  0  3  0  0  0  0  0  0
  190.2660  175.1050  135.6790 C   0  0  1  0  0  3  0  0  0  0  0  0
  185.6010  175.0990  136.9640 C   0  0  0  0  0  3  0  0  0  0  0  0
  187.5440  175.5770  135.0420 C   0  0  0  0  0  3  0  0  0  0  0  0
  186.8500  174.5780  137.0990 N   0  0  0  0  0  0  0  0  0  0  0  0
  187.8210  174.7880  136.1630 C   0  0  0  0  0  0  0  0  0  0  0  0
  185.2870  175.8830  135.8510 C   0  0  0  0  0  3  0  0  0  0  0  0
  186.2690  176.1240  134.8880 C   0  0  0  0  0  3  0  0  0  0  0  0
  191.3390  174.3080  135.2870 O   0  0  0  0  0  0  0  0  0  0  0  0
  191.7120  173.6250  136.4440 C   0  0  0  0  0  2  0  0  0  0  0  0
  192.6970  172.5320  136.0900 C   0  0  0  0  0  1  0  0  0  0  0  0
  188.1500  178.4460  140.1870 C   0  0  0  0  0  2  0  0  0  0  0  0
  188.6260  177.7630  141.4590 C   0  0  0  0  0  2  0  0  0  0  0  0
  188.0430  177.6470  143.9240 C   0  0  1  0  0  0  0  0  0  0  0  0
  187.5390  177.7920  142.5280 C   0  0  2  0  0  3  0  0  0  0  0  0
  187.5160  176.5540  143.2080 O   0  0  0  0  0  0  0  0  0  0  0  0
  189.5220  177.5290  144.1740 C   0  0  0  0  0  0  0  0  0  0  0  0
  191.6440  178.0920  144.5700 C   0  0  0  0  0  3  0  0  0  0  0  0
  190.2820  178.5530  144.3410 N   0  0  0  0  0  0  0  0  0  0  0  0
  190.1820  176.3220  144.2610 O   0  0  0  0  0  0  0  0  0  0  0  0
  191.5540  176.5650  144.5100 C   0  0  0  0  0  3  0  0  0  0  0  0
  187.6540  177.9280  146.4020 C   0  0  0  0  0  2  0  0  0  0  0  0
  186.5300  177.0760  145.8600 C   0  0  0  0  0  2  0  0  0  0  0  0
  187.1060  178.1970  145.0070 C   0  0  0  0  0  3  0  0  0  0  0  0
  1 19  1  0  0  0  0
  2  6  1  0  0  0  0
  3  5  2  0  0  0  0
  4  2  2  0  0  0  0
  4  5  1  0  0  0  0
  5  1  1  0  0  0  0
  6  1  1  0  0  0  0
  7 13  1  6  0  0  0
  7  8  1  0  0  0  0
  8  2  1  6  0  0  0
  9 16  1  1  0  0  0
  9  7  1  0  0  0  0
  9  8  1  0  0  0  0
 10 12  1  0  0  0  0
 11 13  1  0  0  0  0
 13 12  2  0  0  0  0
 14 10  2  0  0  0  0
 15 11  2  0  0  0  0
 15 14  1  0  0  0  0
 16 17  1  0  0  0  0
 18 17  1  0  0  0  0
 19 20  1  0  0  0  0
 21 24  1  1  0  0  0
 21 31  1  0  0  0  0
 22 20  1  6  0  0  0
 22 23  1  0  0  0  0
 22 21  1  0  0  0  0
 23 21  1  0  0  0  0
 24 27  1  0  0  0  0
 24 26  2  0  0  0  0
 26 25  1  0  0  0  0
 27 28  1  0  0  0  0
 28 25  2  0  0  0  0
 30 29  1  0  0  0  0
 31 30  1  0  0  0  0
 31 29  1  0  0  0  0
M  END
>  <MODEL>
4

>  <REMARK>
 VINA RESULT:      -6.0      5.169      7.177
  Name = 
  9 active torsions:
  status: ('A' for Active; 'I' for Inactive)
    1  A    between atoms: C_1  and  C_25
    2  A    between atoms: C_2  and  O_9
    3  A    between atoms: C_3  and  C_11
    4  A    between atoms: C_4  and  C_5
    5  A    between atoms: C_5  and  C_31
    6  A    between atoms: N_6  and  C_28
    7  A    between atoms: C_8  and  C_14
    8  A    between atoms: O_9  and  C_23
    9  A    between atoms: C_14  and  C_28
                            x       y       z     vdW  Elec       q    Type
                         _______ _______ _______ _____ _____    ______ ____

>  <TORSDO>
F 9

$$$$
=
 OpenBabel11062414313D

 31 36  0  0  1  0  0  0  0  0999 V2000
  187.4790  178.2840  141.3800 N   0  0  0  0  0  0  0  0  0  0  0  0
  187.0230  177.7180  143.3770 C   0  0  0  0  0  0  0  0  0  0  0  0
  185.7340  179.7520  141.0970 O   0  0  0  0  0  0  0  0  0  0  0  0
  186.0460  178.6030  143.0600 N   0  0  0  0  0  0  0  0  0  0  0  0
  186.3830  178.9330  141.8010 C   0  0  0  0  0  0  0  0  0  0  0  0
  187.8920  177.5070  142.3640 N   0  0  0  0  0  2  0  0  0  0  0  0
  188.4930  176.7780  145.2740 C   0  0  2  0  0  3  0  0  0  0  0  0
  187.0860  176.9740  144.6820 C   0  0  1  0  0  3  0  0  0  0  0  0
  187.5870  177.8860  145.7880 C   0  0  1  0  0  3  0  0  0  0  0  0
  191.0730  179.0970  143.8170 C   0  0  0  0  0  3  0  0  0  0  0  0
  190.3060  176.4420  143.5800 C   0  0  0  0  0  3  0  0  0  0  0  0
  190.0320  178.6110  144.5440 N   0  0  0  0  0  0  0  0  0  0  0  0
  189.6260  177.3120  144.4380 C   0  0  0  0  0  0  0  0  0  0  0  0
  191.7680  178.2580  142.9420 C   0  0  0  0  0  3  0  0  0  0  0  0
  191.3800  176.9210  142.8290 C   0  0  0  0  0  3  0  0  0  0  0  0
  187.0210  177.4930  146.9990 O   0  0  0  0  0  0  0  0  0  0  0  0
  188.1040  177.0760  147.7740 C   0  0  0  0  0  2  0  0  0  0  0  0
  188.6490  178.2530  148.5540 C   0  0  0  0  0  1  0  0  0  0  0  0
  188.1190  178.3730  140.0750 C   0  0  0  0  0  2  0  0  0  0  0  0
  188.8130  177.0660  139.7260 C   0  0  0  0  0  2  0  0  0  0  0  0
  189.2010  176.7030  137.2460 C   0  0  1  0  0  0  0  0  0  0  0  0
  189.7380  177.2490  138.5270 C   0  0  2  0  0  3  0  0  0  0  0  0
  190.1220  175.9830  138.0330 O   0  0  0  0  0  0  0  0  0  0  0  0
  187.8340  176.0760  137.2190 C   0  0  0  0  0  0  0  0  0  0  0  0
  186.2230  174.5330  137.2000 C   0  0  0  0  0  3  0  0  0  0  0  0
  187.6530  174.8030  137.2180 N   0  0  0  0  0  0  0  0  0  0  0  0
  186.6640  176.8070  137.2090 O   0  0  0  0  0  0  0  0  0  0  0  0
  185.5650  175.9160  137.1920 C   0  0  0  0  0  3  0  0  0  0  0  0
  189.0110  176.9340  134.7410 C   0  0  0  0  0  2  0  0  0  0  0  0
  190.3220  176.2440  135.0340 C   0  0  0  0  0  2  0  0  0  0  0  0
  189.8070  177.3200  135.9790 C   0  0  0  0  0  3  0  0  0  0  0  0
  1  5  1  0  0  0  0
  1  6  1  0  0  0  0
  3  5  2  0  0  0  0
  4  2  2  0  0  0  0
  5  4  1  0  0  0  0
  6  2  1  0  0  0  0
  7 13  1  6  0  0  0
  7  9  1  0  0  0  0
  8  2  1  6  0  0  0
  8  7  1  0  0  0  0
  8  9  1  0  0  0  0
  9 16  1  1  0  0  0
 10 12  1  0  0  0  0
 11 13  1  0  0  0  0
 13 12  2  0  0  0  0
 14 10  2  0  0  0  0
 15 14  1  0  0  0  0
 15 11  2  0  0  0  0
 16 17  1  0  0  0  0
 17 18  1  0  0  0  0
 19  1  1  0  0  0  0
 20 19  1  0  0  0  0
 21 31  1  6  0  0  0
 21 23  1  0  0  0  0
 21 22  1  0  0  0  0
 22 20  1  1  0  0  0
 23 22  1  0  0  0  0
 24 21  1  0  0  0  0
 25 26  1  0  0  0  0
 26 24  2  0  0  0  0
 27 24  1  0  0  0  0
 28 25  2  0  0  0  0
 28 27  1  0  0  0  0
 29 30  1  0  0  0  0
 29 31  1  0  0  0  0
 30 31  1  0  0  0  0
M  END
>  <MODEL>
5

>  <REMARK>
 VINA RESULT:      -6.0      4.349      8.722
  Name = 
  9 active torsions:
  status: ('A' for Active; 'I' for Inactive)
    1  A    between atoms: C_1  and  C_25
    2  A    between atoms: C_2  and  O_9
    3  A    between atoms: C_3  and  C_11
    4  A    between atoms: C_4  and  C_5
    5  A    between atoms: C_5  and  C_31
    6  A    between atoms: N_6  and  C_28
    7  A    between atoms: C_8  and  C_14
    8  A    between atoms: O_9  and  C_23
    9  A    between atoms: C_14  and  C_28
                            x       y       z     vdW  Elec       q    Type
                         _______ _______ _______ _____ _____    ______ ____

>  <TORSDO>
F 9

$$$$
=
 OpenBabel11062414313D

 31 36  0  0  1  0  0  0  0  0999 V2000
  188.2650  178.0990  138.7500 N   0  0  0  0  0  0  0  0  0  0  0  0
  187.9820  176.8050  137.0900 C   0  0  0  0  0  0  0  0  0  0  0  0
  189.1670  179.8620  137.5830 O   0  0  0  0  0  0  0  0  0  0  0  0
  188.5290  177.9170  136.5420 N   0  0  0  0  0  0  0  0  0  0  0  0
  188.6800  178.7000  137.6250 C   0  0  0  0  0  0  0  0  0  0  0  0
  187.8260  176.8970  138.4280 N   0  0  0  0  0  2  0  0  0  0  0  0
  188.8570  174.6300  136.0180 C   0  0  2  0  0  3  0  0  0  0  0  0
  187.6650  175.5590  136.3100 C   0  0  1  0  0  3  0  0  0  0  0  0
  187.9040  174.3250  137.1620 C   0  0  1  0  0  3  0  0  0  0  0  0
  191.7240  175.5230  138.2860 C   0  0  0  0  0  3  0  0  0  0  0  0
  191.1450  175.5440  135.5730 C   0  0  0  0  0  3  0  0  0  0  0  0
  190.5090  175.1100  137.8350 N   0  0  0  0  0  0  0  0  0  0  0  0
  190.1950  175.1210  136.5070 C   0  0  0  0  0  0  0  0  0  0  0  0
  192.6940  175.9610  137.3810 C   0  0  0  0  0  3  0  0  0  0  0  0
  192.4000  175.9670  136.0160 C   0  0  0  0  0  3  0  0  0  0  0  0
  187.0230  173.3190  136.7720 O   0  0  0  0  0  0  0  0  0  0  0  0
  185.7660  173.7790  137.1660 C   0  0  0  0  0  2  0  0  0  0  0  0
  184.9030  172.6030  137.5690 C   0  0  0  0  0  1  0  0  0  0  0  0
  188.2960  178.6310  140.1060 C   0  0  0  0  0  2  0  0  0  0  0  0
  188.5180  177.5170  141.1160 C   0  0  0  0  0  2  0  0  0  0  0  0
  188.1160  177.5820  143.6190 C   0  0  1  0  0  0  0  0  0  0  0  0
  187.5100  177.6110  142.2560 C   0  0  2  0  0  3  0  0  0  0  0  0
  187.5610  176.4290  143.0270 O   0  0  0  0  0  0  0  0  0  0  0  0
  189.6110  177.5050  143.7680 C   0  0  0  0  0  0  0  0  0  0  0  0
  191.6680  176.6680  143.9720 C   0  0  0  0  0  3  0  0  0  0  0  0
  190.2450  176.3890  143.8470 N   0  0  0  0  0  0  0  0  0  0  0  0
  190.4260  178.6160  143.8150 O   0  0  0  0  0  0  0  0  0  0  0  0
  191.7710  178.1950  143.9500 C   0  0  0  0  0  3  0  0  0  0  0  0
  187.8040  177.8860  146.1040 C   0  0  0  0  0  2  0  0  0  0  0  0
  186.6070  177.1230  145.5880 C   0  0  0  0  0  2  0  0  0  0  0  0
  187.2480  178.2000  144.7230 C   0  0  0  0  0  3  0  0  0  0  0  0
  1 19  1  0  0  0  0
  2  6  1  0  0  0  0
  3  5  2  0  0  0  0
  4  2  2  0  0  0  0
  4  5  1  0  0  0  0
  5  1  1  0  0  0  0
  6  1  1  0  0  0  0
  7  8  1  0  0  0  0
  7 13  1  1  0  0  0
  7  9  1  0  0  0  0
  8  2  1  1  0  0  0
  8  9  1  0  0  0  0
  9 16  1  6  0  0  0
 11 15  2  0  0  0  0
 11 13  1  0  0  0  0
 12 10  1  0  0  0  0
 13 12  2  0  0  0  0
 14 10  2  0  0  0  0
 15 14  1  0  0  0  0
 16 17  1  0  0  0  0
 17 18  1  0  0  0  0
 19 20  1  0  0  0  0
 21 24  1  1  0  0  0
 21 31  1  0  0  0  0
 22 20  1  6  0  0  0
 22 23  1  0  0  0  0
 22 21  1  0  0  0  0
 23 21  1  0  0  0  0
 24 27  1  0  0  0  0
 24 26  2  0  0  0  0
 26 25  1  0  0  0  0
 27 28  1  0  0  0  0
 28 25  2  0  0  0  0
 30 29  1  0  0  0  0
 31 30  1  0  0  0  0
 31 29  1  0  0  0  0
M  END
>  <MODEL>
6

>  <REMARK>
 VINA RESULT:      -5.9      4.993      7.168
  Name = 
  9 active torsions:
  status: ('A' for Active; 'I' for Inactive)
    1  A    between atoms: C_1  and  C_25
    2  A    between atoms: C_2  and  O_9
    3  A    between atoms: C_3  and  C_11
    4  A    between atoms: C_4  and  C_5
    5  A    between atoms: C_5  and  C_31
    6  A    between atoms: N_6  and  C_28
    7  A    between atoms: C_8  and  C_14
    8  A    between atoms: O_9  and  C_23
    9  A    between atoms: C_14  and  C_28
                            x       y       z     vdW  Elec       q    Type
                         _______ _______ _______ _____ _____    ______ ____

>  <TORSDO>
F 9

$$$$
=
 OpenBabel11062414313D

 31 36  0  0  1  0  0  0  0  0999 V2000
  189.3550  177.1400  142.7980 N   0  0  0  0  0  0  0  0  0  0  0  0
  187.7600  177.5820  144.1300 C   0  0  0  0  0  0  0  0  0  0  0  0
  190.6910  178.9250  143.3570 O   0  0  0  0  0  0  0  0  0  0  0  0
  188.6490  178.5820  144.3470 N   0  0  0  0  0  0  0  0  0  0  0  0
  189.6330  178.2530  143.4930 C   0  0  0  0  0  0  0  0  0  0  0  0
  188.1700  176.7080  143.1850 N   0  0  0  0  0  2  0  0  0  0  0  0
  186.4320  177.4580  146.3350 C   0  0  2  0  0  3  0  0  0  0  0  0
  186.4160  177.4990  144.7970 C   0  0  1  0  0  3  0  0  0  0  0  0
  186.1450  178.7580  145.6020 C   0  0  1  0  0  3  0  0  0  0  0  0
  189.9900  176.5370  147.1440 C   0  0  0  0  0  3  0  0  0  0  0  0
  188.1180  178.4380  147.9050 C   0  0  0  0  0  3  0  0  0  0  0  0
  188.7420  176.5340  146.6030 N   0  0  0  0  0  0  0  0  0  0  0  0
  187.7990  177.4510  146.9670 C   0  0  0  0  0  0  0  0  0  0  0  0
  190.3390  177.5030  148.0910 C   0  0  0  0  0  3  0  0  0  0  0  0
  189.3950  178.4600  148.4690 C   0  0  0  0  0  3  0  0  0  0  0  0
  184.7740  179.0040  145.6220 O   0  0  0  0  0  0  0  0  0  0  0  0
  184.4330  179.2100  144.2850 C   0  0  0  0  0  2  0  0  0  0  0  0
  182.9440  179.0010  144.1060 C   0  0  0  0  0  1  0  0  0  0  0  0
  190.1730  176.5030  141.7740 C   0  0  0  0  0  2  0  0  0  0  0  0
  189.9430  177.1540  140.4190 C   0  0  0  0  0  2  0  0  0  0  0  0
  190.4530  176.5440  138.0120 C   0  0  1  0  0  0  0  0  0  0  0  0
  190.9720  176.6680  139.4050 C   0  0  2  0  0  3  0  0  0  0  0  0
  190.5550  175.4300  138.8690 O   0  0  0  0  0  0  0  0  0  0  0  0
  189.0300  176.9250  137.7110 C   0  0  0  0  0  0  0  0  0  0  0  0
  186.8400  176.7560  137.3180 C   0  0  0  0  0  3  0  0  0  0  0  0
  188.0870  176.0580  137.5980 N   0  0  0  0  0  0  0  0  0  0  0  0
  188.6120  178.2290  137.5470 O   0  0  0  0  0  0  0  0  0  0  0  0
  187.2220  178.2380  137.2850 C   0  0  0  0  0  3  0  0  0  0  0  0
  190.9210  176.3780  135.5380 C   0  0  0  0  0  2  0  0  0  0  0  0
  191.6620  175.2490  136.2160 C   0  0  0  0  0  2  0  0  0  0  0  0
  191.5270  176.5930  136.9180 C   0  0  0  0  0  3  0  0  0  0  0  0
  1  6  1  0  0  0  0
  1  5  1  0  0  0  0
  2  4  2  0  0  0  0
  3  5  2  0  0  0  0
  5  4  1  0  0  0  0
  6  2  1  0  0  0  0
  7 13  1  6  0  0  0
  8  2  1  6  0  0  0
  8  9  1  0  0  0  0
  8  7  1  0  0  0  0
  9 16  1  1  0  0  0
  9  7  1  0  0  0  0
 10 14  1  0  0  0  0
 11 15  1  0  0  0  0
 12 13  1  0  0  0  0
 12 10  2  0  0  0  0
 13 11  2  0  0  0  0
 14 15  2  0  0  0  0
 17 16  1  0  0  0  0
 18 17  1  0  0  0  0
 19  1  1  0  0  0  0
 20 19  1  0  0  0  0
 21 31  1  6  0  0  0
 21 23  1  0  0  0  0
 21 22  1  0  0  0  0
 22 20  1  1  0  0  0
 23 22  1  0  0  0  0
 24 21  1  0  0  0  0
 25 26  1  0  0  0  0
 26 24  2  0  0  0  0
 27 24  1  0  0  0  0
 28 25  2  0  0  0  0
 28 27  1  0  0  0  0
 29 30  1  0  0  0  0
 29 31  1  0  0  0  0
 30 31  1  0  0  0  0
M  END
>  <MODEL>
7

>  <REMARK>
 VINA RESULT:      -5.9      4.443      8.314
  Name = 
  9 active torsions:
  status: ('A' for Active; 'I' for Inactive)
    1  A    between atoms: C_1  and  C_25
    2  A    between atoms: C_2  and  O_9
    3  A    between atoms: C_3  and  C_11
    4  A    between atoms: C_4  and  C_5
    5  A    between atoms: C_5  and  C_31
    6  A    between atoms: N_6  and  C_28
    7  A    between atoms: C_8  and  C_14
    8  A    between atoms: O_9  and  C_23
    9  A    between atoms: C_14  and  C_28
                            x       y       z     vdW  Elec       q    Type
                         _______ _______ _______ _____ _____    ______ ____

>  <TORSDO>
F 9

$$$$
=
 OpenBabel11062414313D

 31 36  0  0  1  0  0  0  0  0999 V2000
  188.6690  177.3170  141.7840 N   0  0  0  0  0  0  0  0  0  0  0  0
  187.5080  176.9820  143.5310 C   0  0  0  0  0  0  0  0  0  0  0  0
  190.1860  175.6240  142.1250 O   0  0  0  0  0  0  0  0  0  0  0  0
  188.4750  176.0340  143.5990 N   0  0  0  0  0  0  0  0  0  0  0  0
  189.1710  176.2840  142.4770 C   0  0  0  0  0  0  0  0  0  0  0  0
  187.6210  177.7730  142.4420 N   0  0  0  0  0  2  0  0  0  0  0  0
  187.0140  177.4990  146.0070 C   0  0  2  0  0  3  0  0  0  0  0  0
  186.4720  177.1970  144.5990 C   0  0  1  0  0  3  0  0  0  0  0  0
  186.5270  178.6260  145.1100 C   0  0  1  0  0  3  0  0  0  0  0  0
  190.6560  178.2760  145.4630 C   0  0  0  0  0  3  0  0  0  0  0  0
  189.1010  176.7080  147.1430 C   0  0  0  0  0  3  0  0  0  0  0  0
  189.3020  178.2560  145.3340 N   0  0  0  0  0  0  0  0  0  0  0  0
  188.5150  177.4860  146.1390 C   0  0  0  0  0  0  0  0  0  0  0  0
  191.2750  177.5030  146.4490 C   0  0  0  0  0  3  0  0  0  0  0  0
  190.4890  176.7180  147.2940 C   0  0  0  0  0  3  0  0  0  0  0  0
  185.2530  179.0180  145.5160 O   0  0  0  0  0  0  0  0  0  0  0  0
  184.6070  179.3870  144.3360 C   0  0  0  0  0  2  0  0  0  0  0  0
  183.1450  179.0020  144.4200 C   0  0  0  0  0  1  0  0  0  0  0  0
  189.1730  177.8810  140.5390 C   0  0  0  0  0  2  0  0  0  0  0  0
  188.0250  178.2530  139.6140 C   0  0  0  0  0  2  0  0  0  0  0  0
  187.2260  177.8160  137.2480 C   0  0  1  0  0  0  0  0  0  0  0  0
  188.3950  177.9870  138.1590 C   0  0  2  0  0  3  0  0  0  0  0  0
  187.9210  176.7120  137.7800 O   0  0  0  0  0  0  0  0  0  0  0  0
  185.8310  177.9510  137.7930 C   0  0  0  0  0  0  0  0  0  0  0  0
  183.7510  177.4340  138.4130 C   0  0  0  0  0  3  0  0  0  0  0  0
  184.9960  176.9730  137.8170 N   0  0  0  0  0  0  0  0  0  0  0  0
  185.3340  179.1220  138.3250 O   0  0  0  0  0  0  0  0  0  0  0  0
  184.0020  178.9060  138.7510 C   0  0  0  0  0  3  0  0  0  0  0  0
  186.3020  177.8000  134.9000 C   0  0  0  0  0  2  0  0  0  0  0  0
  187.4390  176.8080  134.9460 C   0  0  0  0  0  2  0  0  0  0  0  0
  187.5200  178.0870  135.7670 C   0  0  0  0  0  3  0  0  0  0  0  0
  1  6  1  0  0  0  0
  1  5  1  0  0  0  0
  2  4  2  0  0  0  0
  3  5  2  0  0  0  0
  5  4  1  0  0  0  0
  6  2  1  0  0  0  0
  7 13  1  6  0  0  0
  8  2  1  6  0  0  0
  8  9  1  0  0  0  0
  8  7  1  0  0  0  0
  9 16  1  1  0  0  0
  9  7  1  0  0  0  0
 10 14  1  0  0  0  0
 11 15  1  0  0  0  0
 12 10  2  0  0  0  0
 12 13  1  0  0  0  0
 13 11  2  0  0  0  0
 14 15  2  0  0  0  0
 17 18  1  0  0  0  0
 17 16  1  0  0  0  0
 19  1  1  0  0  0  0
 20 19  1  0  0  0  0
 21 31  1  6  0  0  0
 21 23  1  0  0  0  0
 21 24  1  0  0  0  0
 21 22  1  0  0  0  0
 22 20  1  1  0  0  0
 23 22  1  0  0  0  0
 24 26  2  0  0  0  0
 24 27  1  0  0  0  0
 25 28  2  0  0  0  0
 26 25  1  0  0  0  0
 27 28  1  0  0  0  0
 29 30  1  0  0  0  0
 29 31  1  0  0  0  0
 30 31  1  0  0  0  0
M  END
>  <MODEL>
8

>  <REMARK>
 VINA RESULT:      -5.9      3.256      8.462
  Name = 
  9 active torsions:
  status: ('A' for Active; 'I' for Inactive)
    1  A    between atoms: C_1  and  C_25
    2  A    between atoms: C_2  and  O_9
    3  A    between atoms: C_3  and  C_11
    4  A    between atoms: C_4  and  C_5
    5  A    between atoms: C_5  and  C_31
    6  A    between atoms: N_6  and  C_28
    7  A    between atoms: C_8  and  C_14
    8  A    between atoms: O_9  and  C_23
    9  A    between atoms: C_14  and  C_28
                            x       y       z     vdW  Elec       q    Type
                         _______ _______ _______ _____ _____    ______ ____

>  <TORSDO>
F 9

$$$$
=
 OpenBabel11062414313D

 31 36  0  0  1  0  0  0  0  0999 V2000
  184.8060  178.2500  142.0170 N   0  0  0  0  0  0  0  0  0  0  0  0
  183.0310  179.0090  141.1300 C   0  0  0  0  0  0  0  0  0  0  0  0
  186.2690  179.0090  140.4160 O   0  0  0  0  0  0  0  0  0  0  0  0
  184.0090  179.3850  140.2700 N   0  0  0  0  0  0  0  0  0  0  0  0
  185.1020  178.8900  140.8770 C   0  0  0  0  0  0  0  0  0  0  0  0
  183.4980  178.3110  142.1880 N   0  0  0  0  0  2  0  0  0  0  0  0
  180.9300  178.4550  139.7440 C   0  0  2  0  0  3  0  0  0  0  0  0
  181.5680  179.2580  140.8920 C   0  0  1  0  0  3  0  0  0  0  0  0
  180.7630  178.0040  141.1860 C   0  0  1  0  0  3  0  0  0  0  0  0
  183.0420  175.5060  138.7430 C   0  0  0  0  0  3  0  0  0  0  0  0
  182.3550  177.9980  137.7370 C   0  0  0  0  0  3  0  0  0  0  0  0
  182.2170  176.3300  139.4420 N   0  0  0  0  0  0  0  0  0  0  0  0
  181.8720  177.5660  138.9750 C   0  0  0  0  0  0  0  0  0  0  0  0
  183.5520  175.9110  137.5070 C   0  0  0  0  0  3  0  0  0  0  0  0
  183.2000  177.1640  137.0020 C   0  0  0  0  0  3  0  0  0  0  0  0
  179.4950  178.3670  141.6370 O   0  0  0  0  0  0  0  0  0  0  0  0
  179.7360  179.2480  142.6920 C   0  0  0  0  0  2  0  0  0  0  0  0
  179.7580  178.4800  143.9960 C   0  0  0  0  0  1  0  0  0  0  0  0
  185.7250  177.5740  142.9220 C   0  0  0  0  0  2  0  0  0  0  0  0
  186.5290  178.5840  143.7260 C   0  0  0  0  0  2  0  0  0  0  0  0
  187.6790  177.7840  145.8390 C   0  0  1  0  0  0  0  0  0  0  0  0
  186.4220  178.2950  145.2190 C   0  0  2  0  0  3  0  0  0  0  0  0
  186.6380  176.9180  145.4470 O   0  0  0  0  0  0  0  0  0  0  0  0
  188.9170  177.6340  144.9970 C   0  0  0  0  0  0  0  0  0  0  0  0
  190.4470  176.7440  143.6390 C   0  0  0  0  0  3  0  0  0  0  0  0
  189.1950  176.5530  144.3580 N   0  0  0  0  0  0  0  0  0  0  0  0
  189.8450  178.6390  144.8260 O   0  0  0  0  0  0  0  0  0  0  0  0
  190.8750  178.1750  143.9740 C   0  0  0  0  0  3  0  0  0  0  0  0
  189.2270  177.9180  147.8270 C   0  0  0  0  0  2  0  0  0  0  0  0
  188.3010  176.7450  148.0520 C   0  0  0  0  0  2  0  0  0  0  0  0
  187.7820  177.9950  147.3550 C   0  0  0  0  0  3  0  0  0  0  0  0
  1  6  1  0  0  0  0
  1 19  1  0  0  0  0
  2  6  1  0  0  0  0
  3  5  2  0  0  0  0
  4  5  1  0  0  0  0
  4  2  2  0  0  0  0
  5  1  1  0  0  0  0
  7 13  1  6  0  0  0
  7  8  1  0  0  0  0
  7  9  1  0  0  0  0
  8  2  1  6  0  0  0
  8  9  1  0  0  0  0
  9 16  1  1  0  0  0
 10 12  1  0  0  0  0
 11 13  1  0  0  0  0
 13 12  2  0  0  0  0
 14 10  2  0  0  0  0
 15 14  1  0  0  0  0
 15 11  2  0  0  0  0
 16 17  1  0  0  0  0
 17 18  1  0  0  0  0
 19 20  1  0  0  0  0
 21 24  1  6  0  0  0
 21 31  1  0  0  0  0
 22 20  1  6  0  0  0
 22 23  1  0  0  0  0
 22 21  1  0  0  0  0
 23 21  1  0  0  0  0
 25 28  2  0  0  0  0
 25 26  1  0  0  0  0
 26 24  2  0  0  0  0
 27 24  1  0  0  0  0
 28 27  1  0  0  0  0
 29 30  1  0  0  0  0
 31 29  1  0  0  0  0
 31 30  1  0  0  0  0
M  END
>  <MODEL>
9

>  <REMARK>
 VINA RESULT:      -5.8      1.859      3.449
  Name = 
  9 active torsions:
  status: ('A' for Active; 'I' for Inactive)
    1  A    between atoms: C_1  and  C_25
    2  A    between atoms: C_2  and  O_9
    3  A    between atoms: C_3  and  C_11
    4  A    between atoms: C_4  and  C_5
    5  A    between atoms: C_5  and  C_31
    6  A    between atoms: N_6  and  C_28
    7  A    between atoms: C_8  and  C_14
    8  A    between atoms: O_9  and  C_23
    9  A    between atoms: C_14  and  C_28
                            x       y       z     vdW  Elec       q    Type
                         _______ _______ _______ _____ _____    ______ ____

>  <TORSDO>
F 9

$$$$
