=
 OpenBabel11062412013D

 64 67  0  0  1  0  0  0  0  0999 V2000
  185.9940  178.1370  141.6490 C   0  0  0  0  0  3  0  0  0  0  0  0
  183.4980  179.8050  143.8260 C   0  0  0  0  0  2  0  0  0  0  0  0
  186.2720  178.3880  144.7290 C   0  0  1  0  0  3  0  0  0  0  0  0
  184.1750  178.4890  143.4950 C   0  0  0  0  0  0  0  0  0  0  0  0
  187.3270  177.8830  143.7820 C   0  0  2  0  0  3  0  0  0  0  0  0
  182.6820  178.5700  143.6130 C   0  0  0  0  0  2  0  0  0  0  0  0
  184.8870  177.7850  144.6080 C   0  0  0  0  0  2  0  0  0  0  0  0
  184.7490  178.4770  142.0610 C   0  0  0  0  0  0  0  0  0  0  0  0
  187.1600  177.4980  142.3140 C   0  0  2  0  0  3  0  0  0  0  0  0
  188.1330  176.9970  144.5070 O   0  0  0  0  0  1  0  0  0  0  0  0
  188.5580  177.5710  141.4200 C   0  0  1  0  0  0  0  0  0  0  0  0
  188.4800  176.2980  140.5370 C   0  0  0  0  0  1  0  0  0  0  0  0
  188.5240  178.6650  140.3740 C   0  0  0  0  0  2  0  0  0  0  0  0
  189.4080  178.5380  139.3390 O   0  0  0  0  0  0  0  0  0  0  0  0
  188.6720  177.1180  137.0680 O   0  0  0  0  0  1  0  0  0  0  0  0
  186.9780  178.5140  138.4210 O   0  0  0  0  0  1  0  0  0  0  0  0
  188.3870  178.5020  137.9450 P   0  0  0  0  0  0  0  0  0  0  0  0
  188.6600  179.8880  137.0210 O   0  0  0  0  0  0  0  0  0  0  0  0
  189.8350  177.5880  142.3230 N   0  0  0  0  0  0  0  0  0  0  0  0
  192.5780  176.7140  142.3280 O   0  0  0  0  0  1  0  0  0  0  0  0
  191.2420  176.2500  140.0570 O   0  0  0  0  0  1  0  0  0  0  0  0
  191.3990  177.2930  141.4920 P   0  0  0  0  0  0  0  0  0  0  0  0
  190.0850  178.8680  143.0660 C   0  0  0  0  0  2  0  0  0  0  0  0
  190.9690  178.8360  144.4650 C   0  0  2  0  0  3  0  0  0  0  0  0
  192.2600  179.4130  144.4820 O   0  0  0  0  0  1  0  0  0  0  0  0
  191.1250  177.4910  145.1500 C   0  0  0  0  0  2  0  0  0  0  0  0
  191.0130  177.6080  146.6750 C   0  0  1  0  0  3  0  0  0  0  0  0
  189.6860  177.8260  147.1210 O   0  0  0  0  0  1  0  0  0  0  0  0
  191.4590  176.3290  147.2520 C   0  0  0  0  0  0  0  0  0  0  0  0
  192.7580  176.0400  147.3830 O   0  0  0  0  0  0  0  0  0  0  0  0
  190.5620  175.4490  147.5530 O   0  0  0  0  0  1  0  0  0  0  0  0
  186.7410  178.3930  146.0800 O   0  0  0  0  0  0  0  0  0  0  0  0
  185.6860  178.6150  147.0040 C   0  0  0  0  0  1  0  0  0  0  0  0
  183.8390  178.9550  140.9970 C   0  0  1  0  0  3  0  0  0  0  0  0
  184.4890  179.9470  140.2030 O   0  0  0  0  0  0  0  0  0  0  0  0
  183.9150  180.1460  138.9110 C   0  0  0  0  0  1  0  0  0  0  0  0
  182.8010  177.9430  140.4060 C   0  0  1  0  0  3  0  0  0  0  0  0
  181.4770  178.5140  141.0330 C   0  0  2  0  0  3  0  0  0  0  0  0
  180.5070  177.5710  141.0830 O   0  0  0  0  0  1  0  0  0  0  0  0
  181.0300  179.7830  140.5980 O   0  0  0  0  0  0  0  0  0  0  0  0
  179.8330  179.8590  141.2970 C   0  0  0  0  0  2  0  0  0  0  0  0
  179.6950  180.5010  142.6140 C   0  0  0  0  0  1  0  0  0  0  0  0
  182.5910  177.8570  138.9970 O   0  0  0  0  0  0  0  0  0  0  0  0
  182.2550  175.4200  139.5490 C   0  0  0  0  0  1  0  0  0  0  0  0
  182.8350  176.5020  138.5860 C   0  0  1  0  0  3  0  0  0  0  0  0
  182.2420  176.3210  137.2130 C   0  0  1  0  0  3  0  0  0  0  0  0
  183.0540  176.6790  136.0040 C   0  0  0  0  0  1  0  0  0  0  0  0
  181.0020  172.8180  136.8710 C   0  0  1  0  0  3  0  0  0  0  0  0
  187.4400  172.6150  135.9550 C   0  0  0  0  0  3  0  0  0  0  0  0
  186.5370  172.6150  134.9430 C   0  0  0  0  0  3  0  0  0  0  0  0
  179.4180  175.8240  136.8280 O   0  0  0  0  0  1  0  0  0  0  0  0
  184.6670  173.0290  136.5490 C   0  0  0  0  0  0  0  0  0  0  0  0
  185.0220  172.6640  135.0690 C   0  0  2  0  0  3  0  0  0  0  0  0
  182.1650  173.7220  136.9680 C   0  0  0  0  0  0  0  0  0  0  0  0
  187.0030  172.6990  137.3640 C   0  0  0  0  0  3  0  0  0  0  0  0
  180.1600  174.7910  137.3390 C   0  0  1  0  0  3  0  0  0  0  0  0
  179.8160  173.5640  136.7900 O   0  0  0  0  0  0  0  0  0  0  0  0
  181.6280  174.9980  137.0500 N   0  0  0  0  0  0  0  0  0  0  0  0
  183.4870  173.3760  136.8050 C   0  0  0  0  0  0  0  0  0  0  0  0
  185.7170  172.9200  137.6090 C   0  0  0  0  0  3  0  0  0  0  0  0
  180.9640  171.3430  136.4770 C   0  0  0  0  0  2  0  0  0  0  0  0
  180.8150  171.2590  134.9480 C   0  0  0  0  0  1  0  0  0  0  0  0
  184.3970  171.4060  134.8400 O   0  0  0  0  0  0  0  0  0  0  0  0
  185.2460  170.3080  134.9670 C   0  0  0  0  0  1  0  0  0  0  0  0
  1  8  2  0  0  0  0
  1  9  1  0  0  0  0
  3 32  1  1  0  0  0
  4  6  1  0  0  0  0
  4  2  1  0  0  0  0
  4  7  1  0  0  0  0
  5 10  1  1  0  0  0
  5  3  1  0  0  0  0
  6  2  1  0  0  0  0
  7  3  1  0  0  0  0
  8  4  1  0  0  0  0
  9 11  1  6  0  0  0
  9  5  1  0  0  0  0
 11 12  1  6  0  0  0
 11 19  1  0  0  0  0
 13 11  1  0  0  0  0
 14 13  1  0  0  0  0
 15 17  1  0  0  0  0
 17 16  1  0  0  0  0
 17 14  1  0  0  0  0
 18 17  2  0  0  0  0
 19 23  1  0  0  0  0
 21 22  1  0  0  0  0
 22 19  1  0  0  0  0
 22 20  1  0  0  0  0
 23 24  1  0  0  0  0
 24 25  1  6  0  0  0
 24 26  1  0  0  0  0
 26 27  1  0  0  0  0
 27 28  1  6  0  0  0
 27 29  1  0  0  0  0
 29 30  2  0  0  0  0
 29 31  1  0  0  0  0
 32 33  1  0  0  0  0
 34 35  1  6  0  0  0
 34  8  1  0  0  0  0
 36 35  1  0  0  0  0
 37 43  1  6  0  0  0
 37 34  1  0  0  0  0
 37 38  1  0  0  0  0
 38 39  1  6  0  0  0
 40 38  1  0  0  0  0
 40 41  1  0  0  0  0
 41 42  1  0  0  0  0
 45 43  1  0  0  0  0
 45 44  1  1  0  0  0
 46 47  1  6  0  0  0
 46 45  1  0  0  0  0
 48 61  1  6  0  0  0
 48 54  1  0  0  0  0
 49 55  1  0  0  0  0
 50 53  1  0  0  0  0
 50 49  2  0  0  0  0
 52 59  2  0  0  0  0
 52 60  1  0  0  0  0
 53 63  1  1  0  0  0
 53 52  1  0  0  0  0
 54 58  1  0  0  0  0
 55 60  2  0  0  0  0
 56 51  1  6  0  0  0
 57 48  1  0  0  0  0
 57 56  1  0  0  0  0
 58 46  1  0  0  0  0
 58 56  1  0  0  0  0
 59 54  2  0  0  0  0
 62 61  1  0  0  0  0
 63 64  1  0  0  0  0
M  END
>  <MODEL>
1

>  <REMARK>
 VINA RESULT:      -5.1      0.000      0.000
  Name = 
  24 active torsions:
  status: ('A' for Active; 'I' for Inactive)
    1  A    between atoms: C_2  and  C_23
    2  A    between atoms: O_6  and  C_17
    3  A    between atoms: C_7  and  C_13
    4  A    between atoms: C_7  and  O_32
    5  A    between atoms: C_7  and  C_33
    6  A    between atoms: C_8  and  C_26
    7  A    between atoms: C_8  and  C_44
    8  A    between atoms: N_9  and  C_26
    9  A    between atoms: N_9  and  C_31
   10  A    between atoms: N_9  and  P_51
   11  A    between atoms: O_12  and  C_21
   12  A    between atoms: C_13  and  O_36
   13  A    between atoms: O_19  and  C_33
   14  A    between atoms: C_20  and  C_28
   15  A    between atoms: O_24  and  P_43
   16  A    between atoms: O_24  and  C_54
   17  A    between atoms: C_25  and  N_48
   18  A    between atoms: C_25  and  C_63
   19  A    between atoms: C_28  and  C_44
   20  A    between atoms: C_31  and  C_54
   21  A    between atoms: C_31  and  C_58
   22  A    between atoms: O_32  and  C_63
   23  A    between atoms: C_33  and  C_53
   24  A    between atoms: O_36  and  C_40
                            x       y       z     vdW  Elec       q    Type
                         _______ _______ _______ _____ _____    ______ ____

>  <TORSDO>
F 24

$$$$
=
 OpenBabel11062412013D

 64 67  0  0  1  0  0  0  0  0999 V2000
  186.6270  177.8420  141.7440 C   0  0  0  0  0  3  0  0  0  0  0  0
  187.7140  176.8050  145.1340 C   0  0  0  0  0  2  0  0  0  0  0  0
  185.0290  178.4410  144.3360 C   0  0  1  0  0  3  0  0  0  0  0  0
  187.4200  177.9880  144.2320 C   0  0  0  0  0  0  0  0  0  0  0  0
  184.5560  178.6800  142.9270 C   0  0  2  0  0  3  0  0  0  0  0  0
  188.6950  177.9270  145.0200 C   0  0  0  0  0  2  0  0  0  0  0  0
  186.3990  178.9750  144.7050 C   0  0  0  0  0  2  0  0  0  0  0  0
  187.5200  177.6150  142.7360 C   0  0  0  0  0  0  0  0  0  0  0  0
  185.3820  178.6490  141.6440 C   0  0  2  0  0  3  0  0  0  0  0  0
  183.6400  179.7370  142.9810 O   0  0  0  0  0  1  0  0  0  0  0  0
  184.5040  178.3500  140.2670 C   0  0  1  0  0  0  0  0  0  0  0  0
  184.3700  179.7540  139.6210 C   0  0  0  0  0  1  0  0  0  0  0  0
  185.3030  177.6100  139.2150 C   0  0  0  0  0  2  0  0  0  0  0  0
  185.1570  178.0470  137.9280 O   0  0  0  0  0  0  0  0  0  0  0  0
  185.9110  177.0900  135.4320 O   0  0  0  0  0  0  0  0  0  0  0  0
  186.6930  175.9750  137.6200 O   0  0  0  0  0  1  0  0  0  0  0  0
  185.5270  176.6450  136.9870 P   0  0  0  0  0  0  0  0  0  0  0  0
  184.2100  175.5890  137.0220 O   0  0  0  0  0  1  0  0  0  0  0  0
  183.1120  177.7090  140.5820 N   0  0  0  0  0  0  0  0  0  0  0  0
  181.0970  178.8280  138.8580 O   0  0  0  0  0  1  0  0  0  0  0  0
  180.3080  178.3540  141.3700 O   0  0  0  0  0  1  0  0  0  0  0  0
  181.6760  178.7490  140.3010 P   0  0  0  0  0  0  0  0  0  0  0  0
  182.7830  176.4650  139.8080 C   0  0  0  0  0  2  0  0  0  0  0  0
  181.2010  176.1090  139.4760 C   0  0  2  0  0  3  0  0  0  0  0  0
  180.4880  175.2480  140.3430 O   0  0  0  0  0  1  0  0  0  0  0  0
  180.8870  175.6140  138.0760 C   0  0  0  0  0  2  0  0  0  0  0  0
  180.9690  174.0860  137.9770 C   0  0  1  0  0  3  0  0  0  0  0  0
  179.7220  173.4460  138.1840 O   0  0  0  0  0  1  0  0  0  0  0  0
  181.4050  173.7530  136.6110 C   0  0  0  0  0  0  0  0  0  0  0  0
  182.1070  172.6450  136.3550 O   0  0  0  0  0  1  0  0  0  0  0  0
  181.1650  174.6050  135.6700 O   0  0  0  0  0  0  0  0  0  0  0  0
  184.0330  178.8090  145.2920 O   0  0  0  0  0  0  0  0  0  0  0  0
  184.4120  178.4550  146.6140 C   0  0  0  0  0  1  0  0  0  0  0  0
  188.7270  176.8560  142.3390 C   0  0  1  0  0  3  0  0  0  0  0  0
  188.5690  175.4750  142.6650 O   0  0  0  0  0  0  0  0  0  0  0  0
  189.7570  174.8330  143.1280 C   0  0  0  0  0  1  0  0  0  0  0  0
  189.5240  177.3450  141.0830 C   0  0  1  0  0  3  0  0  0  0  0  0
  190.7530  178.0270  141.7890 C   0  0  2  0  0  3  0  0  0  0  0  0
  191.8920  177.8490  141.0790 O   0  0  0  0  0  1  0  0  0  0  0  0
  190.9020  177.8450  143.1830 O   0  0  0  0  0  0  0  0  0  0  0  0
  191.8280  178.8440  143.4490 C   0  0  0  0  0  2  0  0  0  0  0  0
  191.8600  179.6180  144.7000 C   0  0  0  0  0  1  0  0  0  0  0  0
  190.0500  176.4060  140.1460 O   0  0  0  0  0  0  0  0  0  0  0  0
  189.2700  178.3690  138.7690 C   0  0  0  0  0  1  0  0  0  0  0  0
  189.8010  176.9020  138.8220 C   0  0  1  0  0  3  0  0  0  0  0  0
  191.0870  176.8070  138.0430 C   0  0  1  0  0  3  0  0  0  0  0  0
  192.3930  176.7440  138.7770 C   0  0  0  0  0  1  0  0  0  0  0  0
  191.2190  174.0180  135.5660 C   0  0  1  0  0  3  0  0  0  0  0  0
  197.1730  174.5040  138.1450 C   0  0  0  0  0  3  0  0  0  0  0  0
  196.8290  175.0300  136.9420 C   0  0  0  0  0  3  0  0  0  0  0  0
  188.9840  176.5280  136.0750 O   0  0  0  0  0  1  0  0  0  0  0  0
  194.4260  174.4610  137.3270 C   0  0  0  0  0  0  0  0  0  0  0  0
  195.4660  174.9650  136.2710 C   0  0  2  0  0  3  0  0  0  0  0  0
  191.9020  174.7540  136.6490 C   0  0  0  0  0  0  0  0  0  0  0  0
  196.1760  173.8010  138.9790 C   0  0  0  0  0  3  0  0  0  0  0  0
  189.7110  175.4010  136.3630 C   0  0  1  0  0  3  0  0  0  0  0  0
  190.0170  174.6590  135.2310 O   0  0  0  0  0  0  0  0  0  0  0  0
  191.0270  175.7680  137.0070 N   0  0  0  0  0  0  0  0  0  0  0  0
  193.2060  174.5840  137.0590 C   0  0  0  0  0  0  0  0  0  0  0  0
  194.9070  173.8220  138.5920 C   0  0  0  0  0  3  0  0  0  0  0  0
  191.7940  172.9910  134.5940 C   0  0  0  0  0  2  0  0  0  0  0  0
  191.6220  171.5940  135.2140 C   0  0  0  0  0  1  0  0  0  0  0  0
  195.4050  174.0160  135.2120 O   0  0  0  0  0  0  0  0  0  0  0  0
  196.4060  173.0480  135.2460 C   0  0  0  0  0  1  0  0  0  0  0  0
  1  8  2  0  0  0  0
  3  7  1  0  0  0  0
  3 32  1  1  0  0  0
  4  7  1  0  0  0  0
  4  6  1  0  0  0  0
  4  2  1  0  0  0  0
  5 10  1  1  0  0  0
  5  3  1  0  0  0  0
  6  2  1  0  0  0  0
  8  4  1  0  0  0  0
  9 11  1  6  0  0  0
  9  1  1  0  0  0  0
  9  5  1  0  0  0  0
 11 12  1  6  0  0  0
 11 19  1  0  0  0  0
 13 11  1  0  0  0  0
 14 13  1  0  0  0  0
 15 17  2  0  0  0  0
 17 18  1  0  0  0  0
 17 16  1  0  0  0  0
 17 14  1  0  0  0  0
 20 22  1  0  0  0  0
 22 19  1  0  0  0  0
 22 21  1  0  0  0  0
 23 19  1  0  0  0  0
 24 23  1  0  0  0  0
 24 25  1  1  0  0  0
 26 24  1  0  0  0  0
 27 26  1  0  0  0  0
 27 28  1  6  0  0  0
 29 27  1  0  0  0  0
 30 29  1  0  0  0  0
 31 29  2  0  0  0  0
 32 33  1  0  0  0  0
 34 35  1  6  0  0  0
 34  8  1  0  0  0  0
 35 36  1  0  0  0  0
 37 43  1  6  0  0  0
 37 38  1  0  0  0  0
 37 34  1  0  0  0  0
 38 39  1  6  0  0  0
 38 40  1  0  0  0  0
 40 41  1  0  0  0  0
 41 42  1  0  0  0  0
 45 44  1  1  0  0  0
 45 43  1  0  0  0  0
 46 47  1  1  0  0  0
 46 45  1  0  0  0  0
 48 61  1  6  0  0  0
 48 54  1  0  0  0  0
 49 55  1  0  0  0  0
 50 49  2  0  0  0  0
 52 60  1  0  0  0  0
 53 63  1  6  0  0  0
 53 50  1  0  0  0  0
 53 52  1  0  0  0  0
 54 58  1  0  0  0  0
 54 59  2  0  0  0  0
 56 51  1  6  0  0  0
 56 58  1  0  0  0  0
 57 48  1  0  0  0  0
 57 56  1  0  0  0  0
 58 46  1  0  0  0  0
 59 52  2  0  0  0  0
 60 55  2  0  0  0  0
 61 62  1  0  0  0  0
 63 64  1  0  0  0  0
M  END
>  <MODEL>
2

>  <REMARK>
 VINA RESULT:      -4.5      3.888      9.088
  Name = 
  24 active torsions:
  status: ('A' for Active; 'I' for Inactive)
    1  A    between atoms: C_2  and  C_23
    2  A    between atoms: O_6  and  C_17
    3  A    between atoms: C_7  and  C_13
    4  A    between atoms: C_7  and  O_32
    5  A    between atoms: C_7  and  C_33
    6  A    between atoms: C_8  and  C_26
    7  A    between atoms: C_8  and  C_44
    8  A    between atoms: N_9  and  C_26
    9  A    between atoms: N_9  and  C_31
   10  A    between atoms: N_9  and  P_51
   11  A    between atoms: O_12  and  C_21
   12  A    between atoms: C_13  and  O_36
   13  A    between atoms: O_19  and  C_33
   14  A    between atoms: C_20  and  C_28
   15  A    between atoms: O_24  and  P_43
   16  A    between atoms: O_24  and  C_54
   17  A    between atoms: C_25  and  N_48
   18  A    between atoms: C_25  and  C_63
   19  A    between atoms: C_28  and  C_44
   20  A    between atoms: C_31  and  C_54
   21  A    between atoms: C_31  and  C_58
   22  A    between atoms: O_32  and  C_63
   23  A    between atoms: C_33  and  C_53
   24  A    between atoms: O_36  and  C_40
                            x       y       z     vdW  Elec       q    Type
                         _______ _______ _______ _____ _____    ______ ____

>  <TORSDO>
F 24

$$$$
=
 OpenBabel11062412013D

 64 67  0  0  1  0  0  0  0  0999 V2000
  184.0490  178.2340  141.1610 C   0  0  0  0  0  3  0  0  0  0  0  0
  184.8730  178.2900  144.7760 C   0  0  0  0  0  2  0  0  0  0  0  0
  181.9830  178.8180  143.4010 C   0  0  1  0  0  3  0  0  0  0  0  0
  184.3920  179.1170  143.5990 C   0  0  0  0  0  0  0  0  0  0  0  0
  181.6750  178.6100  141.9420 C   0  0  2  0  0  3  0  0  0  0  0  0
  185.5000  179.6140  144.4780 C   0  0  0  0  0  2  0  0  0  0  0  0
  183.0740  179.8130  143.7420 C   0  0  0  0  0  2  0  0  0  0  0  0
  184.8140  178.5000  142.2470 C   0  0  0  0  0  0  0  0  0  0  0  0
  182.6560  178.5780  140.7730 C   0  0  2  0  0  3  0  0  0  0  0  0
  180.4990  179.3190  141.6710 O   0  0  0  0  0  1  0  0  0  0  0  0
  182.1120  177.7500  139.4400 C   0  0  1  0  0  0  0  0  0  0  0  0
  183.1960  176.6590  139.2350 C   0  0  0  0  0  1  0  0  0  0  0  0
  180.8890  176.9080  139.7360 C   0  0  0  0  0  2  0  0  0  0  0  0
  181.1240  175.6160  140.1150 O   0  0  0  0  0  0  0  0  0  0  0  0
  180.4660  173.4930  138.4490 O   0  0  0  0  0  1  0  0  0  0  0  0
  178.9730  174.1940  140.4310 O   0  0  0  0  0  1  0  0  0  0  0  0
  179.8420  174.7400  139.3550 P   0  0  0  0  0  0  0  0  0  0  0  0
  178.9310  175.7980  138.4070 O   0  0  0  0  0  0  0  0  0  0  0  0
  181.9630  178.6780  138.1890 N   0  0  0  0  0  0  0  0  0  0  0  0
  183.4870  177.9020  135.8740 O   0  0  0  0  0  1  0  0  0  0  0  0
  181.5770  176.1780  136.6070 O   0  0  0  0  0  1  0  0  0  0  0  0
  182.1040  177.8800  136.5870 P   0  0  0  0  0  0  0  0  0  0  0  0
  180.6610  179.4170  138.0840 C   0  0  0  0  0  2  0  0  0  0  0  0
  180.6120  181.0310  138.4480 C   0  0  2  0  0  3  0  0  0  0  0  0
  180.5610  181.4350  139.8030 O   0  0  0  0  0  1  0  0  0  0  0  0
  179.5550  181.8630  137.7450 C   0  0  0  0  0  2  0  0  0  0  0  0
  180.1060  183.2160  137.2800 C   0  0  1  0  0  3  0  0  0  0  0  0
  181.4820  183.3870  137.5710 O   0  0  0  0  0  1  0  0  0  0  0  0
  179.9620  183.2740  135.8160 C   0  0  0  0  0  0  0  0  0  0  0  0
  180.8090  183.9820  135.0610 O   0  0  0  0  0  0  0  0  0  0  0  0
  178.9420  182.6900  135.2800 O   0  0  0  0  0  1  0  0  0  0  0  0
  180.7930  179.0430  144.1600 O   0  0  0  0  0  0  0  0  0  0  0  0
  179.9640  177.8910  144.1970 C   0  0  0  0  0  1  0  0  0  0  0  0
  186.2310  178.0890  142.1390 C   0  0  1  0  0  3  0  0  0  0  0  0
  186.4810  176.9620  142.9770 O   0  0  0  0  0  0  0  0  0  0  0  0
  187.8540  176.5800  143.0670 C   0  0  0  0  0  1  0  0  0  0  0  0
  186.9570  178.3050  140.7680 C   0  0  1  0  0  3  0  0  0  0  0  0
  188.4060  178.6420  141.2780 C   0  0  2  0  0  3  0  0  0  0  0  0
  188.5020  179.9310  141.6800 O   0  0  0  0  0  1  0  0  0  0  0  0
  189.5020  178.1920  140.5060 O   0  0  0  0  0  0  0  0  0  0  0  0
  190.4650  178.1020  141.5020 C   0  0  0  0  0  2  0  0  0  0  0  0
  191.1500  176.8520  141.8670 C   0  0  0  0  0  1  0  0  0  0  0  0
  187.0840  177.2300  139.8370 O   0  0  0  0  0  0  0  0  0  0  0  0
  185.8470  179.0510  138.6040 C   0  0  0  0  0  1  0  0  0  0  0  0
  186.3480  177.5730  138.6510 C   0  0  1  0  0  3  0  0  0  0  0  0
  187.2360  177.3070  137.4630 C   0  0  1  0  0  3  0  0  0  0  0  0
  188.5940  177.9390  137.4000 C   0  0  0  0  0  1  0  0  0  0  0  0
  187.7780  173.6800  136.7760 C   0  0  1  0  0  3  0  0  0  0  0  0
  193.6620  176.4540  136.9030 C   0  0  0  0  0  3  0  0  0  0  0  0
  192.9920  176.1660  135.7590 C   0  0  0  0  0  3  0  0  0  0  0  0
  185.0190  175.6570  136.6070 O   0  0  0  0  0  1  0  0  0  0  0  0
  190.9540  175.5270  137.0600 C   0  0  0  0  0  0  0  0  0  0  0  0
  191.6180  175.5240  135.6420 C   0  0  2  0  0  3  0  0  0  0  0  0
  188.3810  174.9890  137.0990 C   0  0  0  0  0  0  0  0  0  0  0  0
  193.0630  176.1790  138.2250 C   0  0  0  0  0  3  0  0  0  0  0  0
  186.0800  175.0100  137.1870 C   0  0  1  0  0  3  0  0  0  0  0  0
  186.4030  173.8270  136.5370 O   0  0  0  0  0  0  0  0  0  0  0  0
  187.3170  175.8770  137.1470 N   0  0  0  0  0  0  0  0  0  0  0  0
  189.7250  175.2850  137.1360 C   0  0  0  0  0  0  0  0  0  0  0  0
  191.7980  175.7790  138.2700 C   0  0  0  0  0  3  0  0  0  0  0  0
  188.4650  172.3950  136.3190 C   0  0  0  0  0  2  0  0  0  0  0  0
  187.4400  171.5560  135.5340 C   0  0  0  0  0  1  0  0  0  0  0  0
  191.6680  174.1540  135.2620 O   0  0  0  0  0  0  0  0  0  0  0  0
  192.9550  173.6300  135.1560 C   0  0  0  0  0  1  0  0  0  0  0  0
  1  8  2  0  0  0  0
  3  7  1  0  0  0  0
  3 32  1  1  0  0  0
  4  7  1  0  0  0  0
  4  6  1  0  0  0  0
  4  2  1  0  0  0  0
  5 10  1  6  0  0  0
  5  3  1  0  0  0  0
  6  2  1  0  0  0  0
  8  4  1  0  0  0  0
  9 11  1  6  0  0  0
  9  1  1  0  0  0  0
  9  5  1  0  0  0  0
 11 12  1  6  0  0  0
 11 13  1  0  0  0  0
 13 14  1  0  0  0  0
 15 17  1  0  0  0  0
 17 14  1  0  0  0  0
 17 16  1  0  0  0  0
 18 17  2  0  0  0  0
 19 11  1  0  0  0  0
 20 22  1  0  0  0  0
 22 21  1  0  0  0  0
 22 19  1  0  0  0  0
 23 19  1  0  0  0  0
 23 24  1  0  0  0  0
 24 25  1  1  0  0  0
 26 24  1  0  0  0  0
 27 28  1  6  0  0  0
 27 26  1  0  0  0  0
 29 27  1  0  0  0  0
 30 29  2  0  0  0  0
 31 29  1  0  0  0  0
 32 33  1  0  0  0  0
 34  8  1  0  0  0  0
 34 35  1  6  0  0  0
 35 36  1  0  0  0  0
 37 43  1  6  0  0  0
 37 38  1  0  0  0  0
 37 34  1  0  0  0  0
 38 39  1  6  0  0  0
 40 38  1  0  0  0  0
 40 41  1  0  0  0  0
 41 42  1  0  0  0  0
 45 44  1  1  0  0  0
 45 43  1  0  0  0  0
 46 47  1  1  0  0  0
 46 45  1  0  0  0  0
 48 61  1  6  0  0  0
 48 54  1  0  0  0  0
 49 55  1  0  0  0  0
 50 49  2  0  0  0  0
 52 59  2  0  0  0  0
 52 60  1  0  0  0  0
 53 63  1  1  0  0  0
 53 50  1  0  0  0  0
 53 52  1  0  0  0  0
 54 59  2  0  0  0  0
 54 58  1  0  0  0  0
 55 60  2  0  0  0  0
 56 51  1  6  0  0  0
 57 48  1  0  0  0  0
 57 56  1  0  0  0  0
 58 56  1  0  0  0  0
 58 46  1  0  0  0  0
 62 61  1  0  0  0  0
 64 63  1  0  0  0  0
M  END
>  <MODEL>
3

>  <REMARK>
 VINA RESULT:      -4.5      3.574      8.671
  Name = 
  24 active torsions:
  status: ('A' for Active; 'I' for Inactive)
    1  A    between atoms: C_2  and  C_23
    2  A    between atoms: O_6  and  C_17
    3  A    between atoms: C_7  and  C_13
    4  A    between atoms: C_7  and  O_32
    5  A    between atoms: C_7  and  C_33
    6  A    between atoms: C_8  and  C_26
    7  A    between atoms: C_8  and  C_44
    8  A    between atoms: N_9  and  C_26
    9  A    between atoms: N_9  and  C_31
   10  A    between atoms: N_9  and  P_51
   11  A    between atoms: O_12  and  C_21
   12  A    between atoms: C_13  and  O_36
   13  A    between atoms: O_19  and  C_33
   14  A    between atoms: C_20  and  C_28
   15  A    between atoms: O_24  and  P_43
   16  A    between atoms: O_24  and  C_54
   17  A    between atoms: C_25  and  N_48
   18  A    between atoms: C_25  and  C_63
   19  A    between atoms: C_28  and  C_44
   20  A    between atoms: C_31  and  C_54
   21  A    between atoms: C_31  and  C_58
   22  A    between atoms: O_32  and  C_63
   23  A    between atoms: C_33  and  C_53
   24  A    between atoms: O_36  and  C_40
                            x       y       z     vdW  Elec       q    Type
                         _______ _______ _______ _____ _____    ______ ____

>  <TORSDO>
F 24

$$$$
=
 OpenBabel11062412013D

 64 68  0  0  1  0  0  0  0  0999 V2000
  186.2510  177.5810  137.8160 C   0  0  0  0  0  3  0  0  0  0  0  0
  186.6800  177.9810  141.4770 C   0  0  0  0  0  2  0  0  0  0  0  0
  183.8990  177.6660  139.8380 C   0  0  1  0  0  3  0  0  0  0  0  0
  186.1130  178.6070  140.2170 C   0  0  0  0  0  0  0  0  0  0  0  0
  183.7980  177.3320  138.3740 C   0  0  2  0  0  3  0  0  0  0  0  0
  186.9610  179.4140  141.1540 C   0  0  0  0  0  2  0  0  0  0  0  0
  184.6510  178.9280  140.2090 C   0  0  0  0  0  2  0  0  0  0  0  0
  186.8100  178.0790  138.9430 C   0  0  0  0  0  0  0  0  0  0  0  0
  184.8600  177.5240  137.2940 C   0  0  2  0  0  3  0  0  0  0  0  0
  182.5080  177.6900  137.9640 O   0  0  0  0  0  0  0  0  0  0  0  0
  184.6840  176.5350  135.9710 C   0  0  1  0  0  0  0  0  0  0  0  0
  185.6690  177.1460  134.9400 C   0  0  0  0  0  1  0  0  0  0  0  0
  185.2870  175.1630  136.1860 C   0  0  0  0  0  2  0  0  0  0  0  0
  186.3260  174.8250  135.3660 O   0  0  0  0  0  0  0  0  0  0  0  0
  188.1390  172.7360  135.1090 O   0  0  0  0  0  0  0  0  0  0  0  0
  187.2030  173.4640  137.3980 O   0  0  0  0  0  1  0  0  0  0  0  0
  186.8270  173.2850  135.9700 P   0  0  0  0  0  0  0  0  0  0  0  0
  185.5320  172.2060  135.8810 O   0  0  0  0  0  1  0  0  0  0  0  0
  183.2120  176.5120  135.4430 N   0  0  0  0  0  0  0  0  0  0  0  0
  183.0480  173.7340  134.7100 O   0  0  0  0  0  1  0  0  0  0  0  0
  182.0450  174.3350  137.1160 O   0  0  0  0  0  1  0  0  0  0  0  0
  182.3840  174.9200  135.4680 P   0  0  0  0  0  0  0  0  0  0  0  0
  182.2500  177.4040  136.1720 C   0  0  2  0  0  3  0  0  0  0  0  0
  181.3050  178.4570  135.3120 C   0  0  2  0  0  3  0  0  0  0  0  0
  181.9190  179.5100  134.5940 O   0  0  0  0  0  1  0  0  0  0  0  0
  180.1460  179.1010  136.0490 C   0  0  0  0  0  2  0  0  0  0  0  0
  178.9550  178.1450  136.1890 C   0  0  1  0  0  3  0  0  0  0  0  0
  179.0130  177.0470  135.2950 O   0  0  0  0  0  1  0  0  0  0  0  0
  178.9880  177.5930  137.5540 C   0  0  0  0  0  0  0  0  0  0  0  0
  178.9310  178.3890  138.6280 O   0  0  0  0  0  1  0  0  0  0  0  0
  179.1590  176.3210  137.6940 O   0  0  0  0  0  0  0  0  0  0  0  0
  182.6250  177.5900  140.4810 O   0  0  0  0  0  0  0  0  0  0  0  0
  182.0020  178.8620  140.5710 C   0  0  0  0  0  1  0  0  0  0  0  0
  188.2890  178.0610  138.9780 C   0  0  1  0  0  3  0  0  0  0  0  0
  188.8050  179.3550  138.6650 O   0  0  0  0  0  0  0  0  0  0  0  0
  189.0530  179.5770  137.2770 C   0  0  0  0  0  1  0  0  0  0  0  0
  188.9900  177.0900  139.9870 C   0  0  1  0  0  3  0  0  0  0  0  0
  189.8290  176.2150  138.9850 C   0  0  2  0  0  3  0  0  0  0  0  0
  191.1580  176.3880  139.1710 O   0  0  0  0  0  1  0  0  0  0  0  0
  189.4300  176.1930  137.6290 O   0  0  0  0  0  0  0  0  0  0  0  0
  190.5650  175.6290  137.0640 C   0  0  0  0  0  2  0  0  0  0  0  0
  190.7090  175.3480  135.6260 C   0  0  0  0  0  1  0  0  0  0  0  0
  189.9010  177.5930  140.9650 O   0  0  0  0  0  0  0  0  0  0  0  0
  189.4800  175.8000  142.6880 C   0  0  0  0  0  1  0  0  0  0  0  0
  189.3710  177.2990  142.2670 C   0  0  1  0  0  3  0  0  0  0  0  0
  190.1030  178.1550  143.2680 C   0  0  1  0  0  3  0  0  0  0  0  0
  190.0150  179.6480  143.1680 C   0  0  0  0  0  1  0  0  0  0  0  0
  189.1490  177.0100  146.6890 C   0  0  1  0  0  3  0  0  0  0  0  0
  183.7760  179.4950  143.9870 C   0  0  0  0  0  3  0  0  0  0  0  0
  184.5610  180.1740  144.8620 C   0  0  0  0  0  3  0  0  0  0  0  0
  192.1590  177.5920  145.2240 O   0  0  0  0  0  1  0  0  0  0  0  0
  186.2680  178.3480  144.8200 C   0  0  0  0  0  0  0  0  0  0  0  0
  185.8290  179.6700  145.5340 C   0  0  2  0  0  3  0  0  0  0  0  0
  188.7010  177.5220  145.3780 C   0  0  0  0  0  0  0  0  0  0  0  0
  184.1260  178.1250  143.5580 C   0  0  0  0  0  3  0  0  0  0  0  0
  190.9420  176.9930  145.4220 C   0  0  1  0  0  3  0  0  0  0  0  0
  190.5510  177.0070  146.7530 O   0  0  0  0  0  0  0  0  0  0  0  0
  189.8640  177.7150  144.6470 N   0  0  0  0  0  0  0  0  0  0  0  0
  187.4240  177.9120  145.0440 C   0  0  0  0  0  0  0  0  0  0  0  0
  185.2990  177.6300  143.9350 C   0  0  0  0  0  3  0  0  0  0  0  0
  188.3590  176.8840  147.9900 C   0  0  0  0  0  2  0  0  0  0  0  0
  188.4350  178.2320  148.7290 C   0  0  0  0  0  1  0  0  0  0  0  0
  185.6380  179.3080  146.8970 O   0  0  0  0  0  0  0  0  0  0  0  0
  184.8330  178.1870  147.0880 C   0  0  0  0  0  1  0  0  0  0  0  0
  1  8  2  0  0  0  0
  3  7  1  0  0  0  0
  3 32  1  6  0  0  0
  4  6  1  0  0  0  0
  4  2  1  0  0  0  0
  5 10  1  6  0  0  0
  5  3  1  0  0  0  0
  6  2  1  0  0  0  0
  7  4  1  0  0  0  0
  8 34  1  0  0  0  0
  8  4  1  0  0  0  0
  9  1  1  1  0  0  0
  9  5  1  0  0  0  0
 11 12  1  6  0  0  0
 11 13  1  0  0  0  0
 11  9  1  0  0  0  0
 14 17  1  0  0  0  0
 14 13  1  0  0  0  0
 15 17  2  0  0  0  0
 17 16  1  0  0  0  0
 18 17  1  0  0  0  0
 19 22  1  0  0  0  0
 19 11  1  0  0  0  0
 19 23  1  0  0  0  0
 20 22  1  0  0  0  0
 22 21  1  0  0  0  0
 23 24  1  6  0  0  0
 23 10  1  0  0  0  0
 24 25  1  1  0  0  0
 24 26  1  0  0  0  0
 26 27  1  0  0  0  0
 27 28  1  6  0  0  0
 27 29  1  0  0  0  0
 29 31  2  0  0  0  0
 29 30  1  0  0  0  0
 32 33  1  0  0  0  0
 34 35  1  1  0  0  0
 34 37  1  0  0  0  0
 36 35  1  0  0  0  0
 37 43  1  1  0  0  0
 38 39  1  6  0  0  0
 38 37  1  0  0  0  0
 40 38  1  0  0  0  0
 41 40  1  0  0  0  0
 42 41  1  0  0  0  0
 43 45  1  0  0  0  0
 45 44  1  1  0  0  0
 45 46  1  0  0  0  0
 46 47  1  1  0  0  0
 46 58  1  0  0  0  0
 48 57  1  0  0  0  0
 48 61  1  1  0  0  0
 49 50  2  0  0  0  0
 50 53  1  0  0  0  0
 52 59  2  0  0  0  0
 52 53  1  0  0  0  0
 53 63  1  1  0  0  0
 54 48  1  0  0  0  0
 55 60  2  0  0  0  0
 55 49  1  0  0  0  0
 56 51  1  1  0  0  0
 56 57  1  0  0  0  0
 58 54  1  0  0  0  0
 58 56  1  0  0  0  0
 59 54  2  0  0  0  0
 60 52  1  0  0  0  0
 61 62  1  0  0  0  0
 63 64  1  0  0  0  0
M  END
>  <MODEL>
4

>  <REMARK>
 VINA RESULT:      -4.2      2.668     10.524
  Name = 
  24 active torsions:
  status: ('A' for Active; 'I' for Inactive)
    1  A    between atoms: C_2  and  C_23
    2  A    between atoms: O_6  and  C_17
    3  A    between atoms: C_7  and  C_13
    4  A    between atoms: C_7  and  O_32
    5  A    between atoms: C_7  and  C_33
    6  A    between atoms: C_8  and  C_26
    7  A    between atoms: C_8  and  C_44
    8  A    between atoms: N_9  and  C_26
    9  A    between atoms: N_9  and  C_31
   10  A    between atoms: N_9  and  P_51
   11  A    between atoms: O_12  and  C_21
   12  A    between atoms: C_13  and  O_36
   13  A    between atoms: O_19  and  C_33
   14  A    between atoms: C_20  and  C_28
   15  A    between atoms: O_24  and  P_43
   16  A    between atoms: O_24  and  C_54
   17  A    between atoms: C_25  and  N_48
   18  A    between atoms: C_25  and  C_63
   19  A    between atoms: C_28  and  C_44
   20  A    between atoms: C_31  and  C_54
   21  A    between atoms: C_31  and  C_58
   22  A    between atoms: O_32  and  C_63
   23  A    between atoms: C_33  and  C_53
   24  A    between atoms: O_36  and  C_40
                            x       y       z     vdW  Elec       q    Type
                         _______ _______ _______ _____ _____    ______ ____

>  <TORSDO>
F 24

$$$$
=
 OpenBabel11062412013D

 64 67  0  0  1  0  0  0  0  0999 V2000
  185.4560  178.2130  141.8970 C   0  0  0  0  0  3  0  0  0  0  0  0
  185.6040  177.3960  145.5110 C   0  0  0  0  0  2  0  0  0  0  0  0
  183.1260  178.7130  143.8850 C   0  0  1  0  0  3  0  0  0  0  0  0
  185.4760  178.5150  144.4950 C   0  0  0  0  0  0  0  0  0  0  0  0
  183.0620  178.8600  142.3880 C   0  0  2  0  0  3  0  0  0  0  0  0
  186.4670  178.6130  145.6160 C   0  0  0  0  0  2  0  0  0  0  0  0
  184.2730  179.4000  144.5980 C   0  0  0  0  0  2  0  0  0  0  0  0
  186.0410  178.1110  143.1150 C   0  0  0  0  0  0  0  0  0  0  0  0
  184.2240  178.8790  141.3980 C   0  0  2  0  0  3  0  0  0  0  0  0
  182.0750  179.8140  142.1160 O   0  0  0  0  0  1  0  0  0  0  0  0
  183.8150  178.4480  139.8470 C   0  0  1  0  0  0  0  0  0  0  0  0
  183.8610  179.7970  139.0820 C   0  0  0  0  0  1  0  0  0  0  0  0
  184.9110  177.6700  139.1510 C   0  0  0  0  0  2  0  0  0  0  0  0
  185.5220  178.2960  138.1010 O   0  0  0  0  0  0  0  0  0  0  0  0
  185.4690  175.6500  137.2570 O   0  0  0  0  0  1  0  0  0  0  0  0
  183.8230  177.4130  136.3460 O   0  0  0  0  0  1  0  0  0  0  0  0
  185.2340  177.2250  136.7760 P   0  0  0  0  0  0  0  0  0  0  0  0
  186.2520  177.6390  135.4950 O   0  0  0  0  0  0  0  0  0  0  0  0
  182.4060  177.7740  139.7750 N   0  0  0  0  0  0  0  0  0  0  0  0
  179.6960  178.1320  138.8720 O   0  0  0  0  0  1  0  0  0  0  0  0
  181.1400  180.3770  139.0510 O   0  0  0  0  0  1  0  0  0  0  0  0
  181.1730  178.6180  138.7790 P   0  0  0  0  0  0  0  0  0  0  0  0
  182.3850  176.3780  139.2250 C   0  0  0  0  0  2  0  0  0  0  0  0
  180.9380  175.5900  139.0600 C   0  0  2  0  0  3  0  0  0  0  0  0
  180.5260  174.6810  140.0620 O   0  0  0  0  0  1  0  0  0  0  0  0
  180.6910  174.8730  137.7460 C   0  0  0  0  0  2  0  0  0  0  0  0
  181.9720  174.2370  137.1900 C   0  0  1  0  0  3  0  0  0  0  0  0
  182.0000  172.8280  137.3300 O   0  0  0  0  0  1  0  0  0  0  0  0
  182.0220  174.5310  135.7480 C   0  0  0  0  0  0  0  0  0  0  0  0
  180.9250  174.8830  135.0710 O   0  0  0  0  0  0  0  0  0  0  0  0
  183.1430  174.3570  135.1300 O   0  0  0  0  0  1  0  0  0  0  0  0
  181.8650  179.0000  144.4930 O   0  0  0  0  0  0  0  0  0  0  0  0
  180.8380  178.1480  144.0070 C   0  0  0  0  0  1  0  0  0  0  0  0
  187.3760  177.4750  143.1240 C   0  0  1  0  0  3  0  0  0  0  0  0
  187.2450  176.0590  143.2520 O   0  0  0  0  0  0  0  0  0  0  0  0
  188.4740  175.3650  143.4680 C   0  0  0  0  0  1  0  0  0  0  0  0
  188.5190  178.1490  142.2930 C   0  0  1  0  0  3  0  0  0  0  0  0
  189.6330  178.2560  143.3980 C   0  0  2  0  0  3  0  0  0  0  0  0
  189.1980  177.7760  144.5870 O   0  0  0  0  0  1  0  0  0  0  0  0
  190.3610  179.4650  143.4910 O   0  0  0  0  0  0  0  0  0  0  0  0
  191.5890  178.9640  143.9000 C   0  0  0  0  0  2  0  0  0  0  0  0
  191.7430  177.8690  144.8710 C   0  0  0  0  0  1  0  0  0  0  0  0
  189.1020  177.4740  141.1790 O   0  0  0  0  0  0  0  0  0  0  0  0
  191.0440  175.9920  141.8050 C   0  0  0  0  0  1  0  0  0  0  0  0
  190.5210  177.4020  141.3870 C   0  0  1  0  0  3  0  0  0  0  0  0
  191.1980  177.8300  140.1110 C   0  0  1  0  0  3  0  0  0  0  0  0
  192.6840  177.6790  139.9760 C   0  0  0  0  0  1  0  0  0  0  0  0
  189.7070  176.2250  137.0900 C   0  0  1  0  0  3  0  0  0  0  0  0
  195.8840  174.2050  137.4170 C   0  0  0  0  0  3  0  0  0  0  0  0
  195.4630  175.2090  136.6060 C   0  0  0  0  0  3  0  0  0  0  0  0
  188.7160  178.8400  139.0210 O   0  0  0  0  0  1  0  0  0  0  0  0
  193.1910  175.1610  137.6480 C   0  0  0  0  0  0  0  0  0  0  0  0
  194.0450  175.7420  136.4720 C   0  0  2  0  0  3  0  0  0  0  0  0
  190.8540  176.3080  138.0160 C   0  0  0  0  0  0  0  0  0  0  0  0
  194.9430  173.5170  138.3250 C   0  0  0  0  0  3  0  0  0  0  0  0
  189.0400  177.5430  138.7140 C   0  0  1  0  0  3  0  0  0  0  0  0
  188.7700  177.2250  137.3910 O   0  0  0  0  0  0  0  0  0  0  0  0
  190.5160  177.3010  138.9230 N   0  0  0  0  0  0  0  0  0  0  0  0
  192.0690  175.6770  137.8740 C   0  0  0  0  0  0  0  0  0  0  0  0
  193.7110  173.9980  138.4340 C   0  0  0  0  0  3  0  0  0  0  0  0
  189.6170  175.5250  135.7360 C   0  0  0  0  0  2  0  0  0  0  0  0
  188.7450  174.2680  135.9030 C   0  0  0  0  0  1  0  0  0  0  0  0
  193.3880  175.3040  135.2880 O   0  0  0  0  0  0  0  0  0  0  0  0
  192.6990  176.3050  134.6070 C   0  0  0  0  0  1  0  0  0  0  0  0
  1  8  2  0  0  0  0
  2  6  1  0  0  0  0
  3 32  1  1  0  0  0
  3  7  1  0  0  0  0
  4  7  1  0  0  0  0
  4  2  1  0  0  0  0
  4  6  1  0  0  0  0
  5 10  1  1  0  0  0
  5  3  1  0  0  0  0
  8 34  1  0  0  0  0
  8  4  1  0  0  0  0
  9 11  1  6  0  0  0
  9  1  1  0  0  0  0
  9  5  1  0  0  0  0
 11 12  1  6  0  0  0
 13 11  1  0  0  0  0
 14 13  1  0  0  0  0
 16 17  1  0  0  0  0
 17 15  1  0  0  0  0
 17 14  1  0  0  0  0
 18 17  2  0  0  0  0
 19 11  1  0  0  0  0
 22 20  1  0  0  0  0
 22 21  1  0  0  0  0
 22 19  1  0  0  0  0
 23 19  1  0  0  0  0
 24 23  1  0  0  0  0
 24 25  1  1  0  0  0
 26 24  1  0  0  0  0
 27 28  1  6  0  0  0
 27 26  1  0  0  0  0
 29 27  1  0  0  0  0
 30 29  2  0  0  0  0
 31 29  1  0  0  0  0
 33 32  1  0  0  0  0
 34 35  1  6  0  0  0
 35 36  1  0  0  0  0
 37 43  1  6  0  0  0
 37 34  1  0  0  0  0
 37 38  1  0  0  0  0
 38 40  1  0  0  0  0
 38 39  1  1  0  0  0
 40 41  1  0  0  0  0
 41 42  1  0  0  0  0
 43 45  1  0  0  0  0
 45 44  1  6  0  0  0
 46 47  1  1  0  0  0
 46 45  1  0  0  0  0
 48 61  1  6  0  0  0
 48 57  1  0  0  0  0
 48 54  1  0  0  0  0
 49 55  1  0  0  0  0
 50 49  2  0  0  0  0
 52 59  2  0  0  0  0
 52 60  1  0  0  0  0
 53 63  1  6  0  0  0
 53 50  1  0  0  0  0
 53 52  1  0  0  0  0
 54 58  1  0  0  0  0
 55 60  2  0  0  0  0
 56 58  1  0  0  0  0
 56 51  1  6  0  0  0
 57 56  1  0  0  0  0
 58 46  1  0  0  0  0
 59 54  2  0  0  0  0
 61 62  1  0  0  0  0
 64 63  1  0  0  0  0
M  END
>  <MODEL>
5

>  <REMARK>
 VINA RESULT:      -3.8      3.351      8.864
  Name = 
  24 active torsions:
  status: ('A' for Active; 'I' for Inactive)
    1  A    between atoms: C_2  and  C_23
    2  A    between atoms: O_6  and  C_17
    3  A    between atoms: C_7  and  C_13
    4  A    between atoms: C_7  and  O_32
    5  A    between atoms: C_7  and  C_33
    6  A    between atoms: C_8  and  C_26
    7  A    between atoms: C_8  and  C_44
    8  A    between atoms: N_9  and  C_26
    9  A    between atoms: N_9  and  C_31
   10  A    between atoms: N_9  and  P_51
   11  A    between atoms: O_12  and  C_21
   12  A    between atoms: C_13  and  O_36
   13  A    between atoms: O_19  and  C_33
   14  A    between atoms: C_20  and  C_28
   15  A    between atoms: O_24  and  P_43
   16  A    between atoms: O_24  and  C_54
   17  A    between atoms: C_25  and  N_48
   18  A    between atoms: C_25  and  C_63
   19  A    between atoms: C_28  and  C_44
   20  A    between atoms: C_31  and  C_54
   21  A    between atoms: C_31  and  C_58
   22  A    between atoms: O_32  and  C_63
   23  A    between atoms: C_33  and  C_53
   24  A    between atoms: O_36  and  C_40
                            x       y       z     vdW  Elec       q    Type
                         _______ _______ _______ _____ _____    ______ ____

>  <TORSDO>
F 24

$$$$
=
 OpenBabel11062412013D

 64 67  0  0  1  0  0  0  0  0999 V2000
  189.1060  175.8090  136.2550 C   0  0  0  0  0  3  0  0  0  0  0  0
  185.7490  174.5500  137.2020 C   0  0  0  0  0  2  0  0  0  0  0  0
  188.3740  172.8000  136.4470 C   0  0  1  0  0  3  0  0  0  0  0  0
  186.7860  174.6130  136.0970 C   0  0  0  0  0  0  0  0  0  0  0  0
  189.7530  173.3660  136.2410 C   0  0  2  0  0  3  0  0  0  0  0  0
  185.3520  174.9550  135.8190 C   0  0  0  0  0  2  0  0  0  0  0  0
  187.2740  173.3130  135.5390 C   0  0  0  0  0  2  0  0  0  0  0  0
  187.7520  175.8060  136.2750 C   0  0  0  0  0  0  0  0  0  0  0  0
  190.1330  174.8010  135.8840 C   0  0  2  0  0  3  0  0  0  0  0  0
  190.4880  172.3990  135.5440 O   0  0  0  0  0  1  0  0  0  0  0  0
  191.6770  175.2320  136.3190 C   0  0  1  0  0  0  0  0  0  0  0  0
  192.1830  176.0260  135.0850 C   0  0  0  0  0  1  0  0  0  0  0  0
  191.7040  176.2980  137.3940 C   0  0  0  0  0  2  0  0  0  0  0  0
  192.1150  175.8950  138.6330 O   0  0  0  0  0  0  0  0  0  0  0  0
  190.1370  176.0310  140.5790 O   0  0  0  0  0  1  0  0  0  0  0  0
  192.2090  177.5650  140.6210 O   0  0  0  0  0  1  0  0  0  0  0  0
  191.2300  176.9260  139.7020 P   0  0  0  0  0  0  0  0  0  0  0  0
  190.4640  178.1310  138.8020 O   0  0  0  0  0  0  0  0  0  0  0  0
  192.5730  173.9880  136.6290 N   0  0  0  0  0  0  0  0  0  0  0  0
  194.5560  173.5200  134.5960 O   0  0  0  0  0  1  0  0  0  0  0  0
  193.3120  171.3290  135.4960 O   0  0  0  0  0  1  0  0  0  0  0  0
  193.1930  173.0820  135.2080 P   0  0  0  0  0  0  0  0  0  0  0  0
  193.8170  174.2680  137.4200 C   0  0  0  0  0  2  0  0  0  0  0  0
  194.8630  173.0300  137.7550 C   0  0  2  0  0  3  0  0  0  0  0  0
  194.9290  172.5160  139.0710 O   0  0  0  0  0  1  0  0  0  0  0  0
  196.3080  173.2140  137.3270 C   0  0  0  0  0  2  0  0  0  0  0  0
  196.7850  174.6570  137.5280 C   0  0  1  0  0  3  0  0  0  0  0  0
  197.8350  174.7700  138.4730 O   0  0  0  0  0  1  0  0  0  0  0  0
  197.3110  175.1340  136.2380 C   0  0  0  0  0  0  0  0  0  0  0  0
  197.3120  176.4330  135.9250 O   0  0  0  0  0  1  0  0  0  0  0  0
  197.6960  174.2540  135.3740 O   0  0  0  0  0  0  0  0  0  0  0  0
  188.3980  171.3730  136.5100 O   0  0  0  0  0  0  0  0  0  0  0  0
  188.3020  170.7850  135.2220 C   0  0  0  0  0  1  0  0  0  0  0  0
  187.1190  177.1110  136.5650 C   0  0  1  0  0  3  0  0  0  0  0  0
  187.0940  177.9180  135.3880 O   0  0  0  0  0  0  0  0  0  0  0  0
  188.3710  178.4030  134.9720 C   0  0  0  0  0  1  0  0  0  0  0  0
  185.9900  177.1580  137.6490 C   0  0  1  0  0  3  0  0  0  0  0  0
  186.7220  177.9830  138.7700 C   0  0  2  0  0  3  0  0  0  0  0  0
  187.5620  178.9020  138.2390 O   0  0  0  0  0  1  0  0  0  0  0  0
  187.2560  177.2760  139.8720 O   0  0  0  0  0  0  0  0  0  0  0  0
  187.6640  178.3460  140.6570 C   0  0  0  0  0  2  0  0  0  0  0  0
  187.2530  178.5370  142.0570 C   0  0  0  0  0  1  0  0  0  0  0  0
  184.7550  177.8220  137.3820 O   0  0  0  0  0  0  0  0  0  0  0  0
  183.7320  179.5780  138.8760 C   0  0  0  0  0  1  0  0  0  0  0  0
  184.1030  178.0810  138.6360 C   0  0  1  0  0  3  0  0  0  0  0  0
  182.8540  177.2410  138.6900 C   0  0  1  0  0  3  0  0  0  0  0  0
  182.8230  176.0160  139.5550 C   0  0  0  0  0  1  0  0  0  0  0  0
  179.9690  179.4600  139.5160 C   0  0  1  0  0  3  0  0  0  0  0  0
  183.5250  178.9270  144.9390 C   0  0  0  0  0  3  0  0  0  0  0  0
  182.3970  178.2090  144.7060 C   0  0  0  0  0  3  0  0  0  0  0  0
  180.5530  177.3250  136.9370 O   0  0  0  0  0  1  0  0  0  0  0  0
  182.2780  179.0700  142.3620 C   0  0  0  0  0  0  0  0  0  0  0  0
  181.5140  178.2710  143.4700 C   0  0  2  0  0  3  0  0  0  0  0  0
  181.2630  178.8910  139.9430 C   0  0  0  0  0  0  0  0  0  0  0  0
  184.0460  179.8730  143.9300 C   0  0  0  0  0  3  0  0  0  0  0  0
  180.7480  178.4120  137.7500 C   0  0  1  0  0  3  0  0  0  0  0  0
  179.5650  178.8830  138.3020 O   0  0  0  0  0  0  0  0  0  0  0  0
  181.6520  178.0560  138.9060 N   0  0  0  0  0  0  0  0  0  0  0  0
  181.8420  179.0130  141.1860 C   0  0  0  0  0  0  0  0  0  0  0  0
  183.4670  179.8970  142.7360 C   0  0  0  0  0  3  0  0  0  0  0  0
  178.9340  180.2150  140.3460 C   0  0  0  0  0  2  0  0  0  0  0  0
  179.2190  181.7220  140.2130 C   0  0  0  0  0  1  0  0  0  0  0  0
  180.3050  178.9930  143.6770 O   0  0  0  0  0  0  0  0  0  0  0  0
  179.2980  178.2630  144.3060 C   0  0  0  0  0  1  0  0  0  0  0  0
  1  8  2  0  0  0  0
  3 32  1  6  0  0  0
  4  8  1  0  0  0  0
  4  2  1  0  0  0  0
  5 10  1  6  0  0  0
  5  3  1  0  0  0  0
  6  4  1  0  0  0  0
  6  2  1  0  0  0  0
  7  4  1  0  0  0  0
  7  3  1  0  0  0  0
  8 34  1  0  0  0  0
  9  5  1  0  0  0  0
  9  1  1  0  0  0  0
  9 11  1  1  0  0  0
 11 12  1  6  0  0  0
 11 19  1  0  0  0  0
 11 13  1  0  0  0  0
 13 14  1  0  0  0  0
 14 17  1  0  0  0  0
 17 15  1  0  0  0  0
 17 16  1  0  0  0  0
 18 17  2  0  0  0  0
 19 23  1  0  0  0  0
 20 22  1  0  0  0  0
 22 21  1  0  0  0  0
 22 19  1  0  0  0  0
 23 24  1  0  0  0  0
 24 25  1  1  0  0  0
 26 27  1  0  0  0  0
 26 24  1  0  0  0  0
 27 28  1  1  0  0  0
 29 27  1  0  0  0  0
 30 29  1  0  0  0  0
 31 29  2  0  0  0  0
 33 32  1  0  0  0  0
 34 35  1  6  0  0  0
 34 37  1  0  0  0  0
 36 35  1  0  0  0  0
 37 43  1  6  0  0  0
 37 38  1  0  0  0  0
 38 39  1  6  0  0  0
 38 40  1  0  0  0  0
 40 41  1  0  0  0  0
 41 42  1  0  0  0  0
 43 45  1  0  0  0  0
 45 46  1  0  0  0  0
 45 44  1  6  0  0  0
 46 58  1  0  0  0  0
 46 47  1  1  0  0  0
 48 54  1  0  0  0  0
 48 61  1  1  0  0  0
 50 49  2  0  0  0  0
 52 60  1  0  0  0  0
 52 53  1  0  0  0  0
 53 63  1  1  0  0  0
 53 50  1  0  0  0  0
 54 59  2  0  0  0  0
 55 49  1  0  0  0  0
 56 51  1  1  0  0  0
 56 57  1  0  0  0  0
 56 58  1  0  0  0  0
 57 48  1  0  0  0  0
 58 54  1  0  0  0  0
 59 52  2  0  0  0  0
 60 55  2  0  0  0  0
 62 61  1  0  0  0  0
 63 64  1  0  0  0  0
M  END
>  <MODEL>
6

>  <REMARK>
 VINA RESULT:      -3.3      4.189      8.456
  Name = 
  24 active torsions:
  status: ('A' for Active; 'I' for Inactive)
    1  A    between atoms: C_2  and  C_23
    2  A    between atoms: O_6  and  C_17
    3  A    between atoms: C_7  and  C_13
    4  A    between atoms: C_7  and  O_32
    5  A    between atoms: C_7  and  C_33
    6  A    between atoms: C_8  and  C_26
    7  A    between atoms: C_8  and  C_44
    8  A    between atoms: N_9  and  C_26
    9  A    between atoms: N_9  and  C_31
   10  A    between atoms: N_9  and  P_51
   11  A    between atoms: O_12  and  C_21
   12  A    between atoms: C_13  and  O_36
   13  A    between atoms: O_19  and  C_33
   14  A    between atoms: C_20  and  C_28
   15  A    between atoms: O_24  and  P_43
   16  A    between atoms: O_24  and  C_54
   17  A    between atoms: C_25  and  N_48
   18  A    between atoms: C_25  and  C_63
   19  A    between atoms: C_28  and  C_44
   20  A    between atoms: C_31  and  C_54
   21  A    between atoms: C_31  and  C_58
   22  A    between atoms: O_32  and  C_63
   23  A    between atoms: C_33  and  C_53
   24  A    between atoms: O_36  and  C_40
                            x       y       z     vdW  Elec       q    Type
                         _______ _______ _______ _____ _____    ______ ____

>  <TORSDO>
F 24

$$$$
=
 OpenBabel11062412013D

 64 67  0  0  1  0  0  0  0  0999 V2000
  182.8880  176.9290  137.6690 C   0  0  0  0  0  3  0  0  0  0  0  0
  179.7620  175.8700  139.3600 C   0  0  0  0  0  2  0  0  0  0  0  0
  180.9800  174.7410  136.5740 C   0  0  1  0  0  3  0  0  0  0  0  0
  180.3450  176.5140  138.1170 C   0  0  0  0  0  0  0  0  0  0  0  0
  182.3390  175.0860  136.0280 C   0  0  2  0  0  3  0  0  0  0  0  0
  179.2040  177.1580  138.8470 C   0  0  0  0  0  2  0  0  0  0  0  0
  180.0140  175.8860  136.7990 C   0  0  0  0  0  2  0  0  0  0  0  0
  181.7470  177.1100  138.3760 C   0  0  0  0  0  0  0  0  0  0  0  0
  183.1980  176.3050  136.3560 C   0  0  2  0  0  3  0  0  0  0  0  0
  182.3260  174.7570  134.6670 O   0  0  0  0  0  1  0  0  0  0  0  0
  184.8230  176.0950  136.0860 C   0  0  1  0  0  0  0  0  0  0  0  0
  184.8800  175.6560  134.5990 C   0  0  0  0  0  1  0  0  0  0  0  0
  185.5810  177.4050  136.0420 C   0  0  0  0  0  2  0  0  0  0  0  0
  186.4240  177.6500  137.0890 O   0  0  0  0  0  0  0  0  0  0  0  0
  189.1090  178.3600  137.1560 O   0  0  0  0  0  1  0  0  0  0  0  0
  187.7770  178.2430  134.9520 O   0  0  0  0  0  0  0  0  0  0  0  0
  187.6610  178.6300  136.3830 P   0  0  0  0  0  0  0  0  0  0  0  0
  187.2040  180.2520  136.4720 O   0  0  0  0  0  1  0  0  0  0  0  0
  185.4470  175.0270  137.0430 N   0  0  0  0  0  0  0  0  0  0  0  0
  186.2060  172.2650  136.7610 O   0  0  0  0  0  1  0  0  0  0  0  0
  183.7270  172.6740  137.6790 O   0  0  0  0  0  1  0  0  0  0  0  0
  185.0570  173.3120  136.6820 P   0  0  0  0  0  0  0  0  0  0  0  0
  186.9470  175.0220  137.1160 C   0  0  0  0  0  2  0  0  0  0  0  0
  187.8290  174.9380  135.7180 C   0  0  2  0  0  3  0  0  0  0  0  0
  187.6750  173.8180  134.8680 O   0  0  0  0  0  1  0  0  0  0  0  0
  189.3280  175.1430  135.8370 C   0  0  0  0  0  2  0  0  0  0  0  0
  189.8510  174.7570  137.2260 C   0  0  1  0  0  3  0  0  0  0  0  0
  190.1470  173.3770  137.3460 O   0  0  0  0  0  1  0  0  0  0  0  0
  191.1090  175.4910  137.4450 C   0  0  0  0  0  0  0  0  0  0  0  0
  192.1590  175.3280  136.6340 O   0  0  0  0  0  0  0  0  0  0  0  0
  191.2050  176.2370  138.4950 O   0  0  0  0  0  1  0  0  0  0  0  0
  180.3810  173.6670  135.8450 O   0  0  0  0  0  0  0  0  0  0  0  0
  179.5290  172.8820  136.6660 C   0  0  0  0  0  1  0  0  0  0  0  0
  181.8800  177.9450  139.5900 C   0  0  1  0  0  3  0  0  0  0  0  0
  181.2080  177.3270  140.6870 O   0  0  0  0  0  0  0  0  0  0  0  0
  180.7580  178.2320  141.6960 C   0  0  0  0  0  1  0  0  0  0  0  0
  183.1870  178.7890  139.7630 C   0  0  1  0  0  3  0  0  0  0  0  0
  182.8200  180.0410  138.8860 C   0  0  2  0  0  3  0  0  0  0  0  0
  183.8870  180.8580  138.7190 O   0  0  0  0  0  1  0  0  0  0  0  0
  181.6100  180.7170  139.1660 O   0  0  0  0  0  0  0  0  0  0  0  0
  181.2540  181.0970  137.8800 C   0  0  0  0  0  2  0  0  0  0  0  0
  181.1070  180.1530  136.7600 C   0  0  0  0  0  1  0  0  0  0  0  0
  183.5700  179.2790  141.0480 O   0  0  0  0  0  0  0  0  0  0  0  0
  184.9980  177.2400  140.6460 C   0  0  0  0  0  1  0  0  0  0  0  0
  184.5070  178.3530  141.6220 C   0  0  1  0  0  3  0  0  0  0  0  0
  185.6900  179.1410  142.1200 C   0  0  1  0  0  3  0  0  0  0  0  0
  185.6620  179.7230  143.5020 C   0  0  0  0  0  1  0  0  0  0  0  0
  188.8740  177.2160  141.8360 C   0  0  1  0  0  3  0  0  0  0  0  0
  187.6140  177.8080  148.1920 C   0  0  0  0  0  3  0  0  0  0  0  0
  188.4920  178.5970  147.5230 C   0  0  0  0  0  3  0  0  0  0  0  0
  187.1470  179.1290  139.6200 O   0  0  0  0  0  1  0  0  0  0  0  0
  187.7950  177.6010  145.3380 C   0  0  0  0  0  0  0  0  0  0  0  0
  188.8410  178.5280  146.0440 C   0  0  2  0  0  3  0  0  0  0  0  0
  187.7910  177.7060  142.7110 C   0  0  0  0  0  0  0  0  0  0  0  0
  186.8450  176.7610  147.4880 C   0  0  0  0  0  3  0  0  0  0  0  0
  187.3850  178.0840  140.4760 C   0  0  1  0  0  3  0  0  0  0  0  0
  188.7290  177.7450  140.5440 O   0  0  0  0  0  0  0  0  0  0  0  0
  186.9570  178.4400  141.8810 N   0  0  0  0  0  0  0  0  0  0  0  0
  187.7440  177.6180  144.0840 C   0  0  0  0  0  0  0  0  0  0  0  0
  186.9250  176.7070  146.1640 C   0  0  0  0  0  3  0  0  0  0  0  0
  190.2160  176.6000  142.2240 C   0  0  0  0  0  2  0  0  0  0  0  0
  189.9440  175.3930  143.1390 C   0  0  0  0  0  1  0  0  0  0  0  0
  190.1020  177.9190  145.7910 O   0  0  0  0  0  0  0  0  0  0  0  0
  190.5870  177.1400  146.8390 C   0  0  0  0  0  1  0  0  0  0  0  0
  1  8  2  0  0  0  0
  3 32  1  6  0  0  0
  3  7  1  0  0  0  0
  4  8  1  0  0  0  0
  4  6  1  0  0  0  0
  4  2  1  0  0  0  0
  5 10  1  6  0  0  0
  5  9  1  0  0  0  0
  5  3  1  0  0  0  0
  6  2  1  0  0  0  0
  7  4  1  0  0  0  0
  8 34  1  0  0  0  0
  9 11  1  1  0  0  0
  9  1  1  0  0  0  0
 11 12  1  6  0  0  0
 11 19  1  0  0  0  0
 13 11  1  0  0  0  0
 13 14  1  0  0  0  0
 16 17  2  0  0  0  0
 17 18  1  0  0  0  0
 17 14  1  0  0  0  0
 17 15  1  0  0  0  0
 19 23  1  0  0  0  0
 22 20  1  0  0  0  0
 22 19  1  0  0  0  0
 22 21  1  0  0  0  0
 24 25  1  1  0  0  0
 24 26  1  0  0  0  0
 24 23  1  0  0  0  0
 26 27  1  0  0  0  0
 27 28  1  6  0  0  0
 27 29  1  0  0  0  0
 29 31  1  0  0  0  0
 30 29  2  0  0  0  0
 32 33  1  0  0  0  0
 34 37  1  0  0  0  0
 34 35  1  1  0  0  0
 35 36  1  0  0  0  0
 37 43  1  1  0  0  0
 38 39  1  1  0  0  0
 38 40  1  0  0  0  0
 38 37  1  0  0  0  0
 41 40  1  0  0  0  0
 42 41  1  0  0  0  0
 43 45  1  0  0  0  0
 45 44  1  6  0  0  0
 45 46  1  0  0  0  0
 46 47  1  1  0  0  0
 48 61  1  1  0  0  0
 48 54  1  0  0  0  0
 50 49  2  0  0  0  0
 52 53  1  0  0  0  0
 52 60  1  0  0  0  0
 53 63  1  1  0  0  0
 53 50  1  0  0  0  0
 54 59  2  0  0  0  0
 55 49  1  0  0  0  0
 56 51  1  6  0  0  0
 56 57  1  0  0  0  0
 56 58  1  0  0  0  0
 57 48  1  0  0  0  0
 58 46  1  0  0  0  0
 58 54  1  0  0  0  0
 59 52  2  0  0  0  0
 60 55  2  0  0  0  0
 61 62  1  0  0  0  0
 63 64  1  0  0  0  0
M  END
>  <MODEL>
7

>  <REMARK>
 VINA RESULT:      -3.2      2.358      8.707
  Name = 
  24 active torsions:
  status: ('A' for Active; 'I' for Inactive)
    1  A    between atoms: C_2  and  C_23
    2  A    between atoms: O_6  and  C_17
    3  A    between atoms: C_7  and  C_13
    4  A    between atoms: C_7  and  O_32
    5  A    between atoms: C_7  and  C_33
    6  A    between atoms: C_8  and  C_26
    7  A    between atoms: C_8  and  C_44
    8  A    between atoms: N_9  and  C_26
    9  A    between atoms: N_9  and  C_31
   10  A    between atoms: N_9  and  P_51
   11  A    between atoms: O_12  and  C_21
   12  A    between atoms: C_13  and  O_36
   13  A    between atoms: O_19  and  C_33
   14  A    between atoms: C_20  and  C_28
   15  A    between atoms: O_24  and  P_43
   16  A    between atoms: O_24  and  C_54
   17  A    between atoms: C_25  and  N_48
   18  A    between atoms: C_25  and  C_63
   19  A    between atoms: C_28  and  C_44
   20  A    between atoms: C_31  and  C_54
   21  A    between atoms: C_31  and  C_58
   22  A    between atoms: O_32  and  C_63
   23  A    between atoms: C_33  and  C_53
   24  A    between atoms: O_36  and  C_40
                            x       y       z     vdW  Elec       q    Type
                         _______ _______ _______ _____ _____    ______ ____

>  <TORSDO>
F 24

$$$$
=
 OpenBabel11062412013D

 64 67  0  0  1  0  0  0  0  0999 V2000
  186.4430  177.8170  139.9850 C   0  0  0  0  0  3  0  0  0  0  0  0
  185.1330  179.2820  143.1300 C   0  0  0  0  0  2  0  0  0  0  0  0
  188.2110  178.5360  142.4310 C   0  0  1  0  0  3  0  0  0  0  0  0
  185.8210  178.0790  142.5120 C   0  0  0  0  0  0  0  0  0  0  0  0
  188.7050  178.1070  141.0750 C   0  0  2  0  0  3  0  0  0  0  0  0
  184.6330  177.9010  143.4100 C   0  0  0  0  0  2  0  0  0  0  0  0
  187.1450  177.6780  143.0820 C   0  0  0  0  0  2  0  0  0  0  0  0
  185.5530  177.9760  140.9940 C   0  0  0  0  0  0  0  0  0  0  0  0
  187.8940  177.5000  139.9330 C   0  0  2  0  0  3  0  0  0  0  0  0
  189.9480  177.4930  141.2720 O   0  0  0  0  0  1  0  0  0  0  0  0
  188.5660  177.7040  138.4280 C   0  0  1  0  0  0  0  0  0  0  0  0
  188.6270  179.2470  138.2740 C   0  0  0  0  0  1  0  0  0  0  0  0
  190.0360  177.3400  138.3910 C   0  0  0  0  0  2  0  0  0  0  0  0
  190.3630  176.1060  138.8760 O   0  0  0  0  0  0  0  0  0  0  0  0
  193.1140  175.8920  138.5540 O   0  0  0  0  0  1  0  0  0  0  0  0
  191.4830  174.1360  137.6040 O   0  0  0  0  0  1  0  0  0  0  0  0
  191.6450  175.5960  137.8340 P   0  0  0  0  0  0  0  0  0  0  0  0
  191.5090  176.3970  136.3540 O   0  0  0  0  0  0  0  0  0  0  0  0
  187.7120  177.0310  137.3040 N   0  0  0  0  0  0  0  0  0  0  0  0
  188.6470  176.4430  134.6460 O   0  0  0  0  0  1  0  0  0  0  0  0
  186.7070  178.2790  134.7870 O   0  0  0  0  0  1  0  0  0  0  0  0
  188.0880  177.5220  135.6180 P   0  0  0  0  0  0  0  0  0  0  0  0
  187.7900  175.5330  137.2430 C   0  0  0  0  0  2  0  0  0  0  0  0
  186.6680  174.6960  136.3590 C   0  0  2  0  0  3  0  0  0  0  0  0
  185.6070  175.3990  135.7420 O   0  0  0  0  0  1  0  0  0  0  0  0
  186.0160  173.5000  137.0290 C   0  0  0  0  0  2  0  0  0  0  0  0
  185.6880  172.3890  136.0240 C   0  0  1  0  0  3  0  0  0  0  0  0
  186.5050  171.2420  136.1760 O   0  0  0  0  0  1  0  0  0  0  0  0
  184.2990  171.9670  136.2680 C   0  0  0  0  0  0  0  0  0  0  0  0
  183.8340  171.7900  137.5090 O   0  0  0  0  0  1  0  0  0  0  0  0
  183.5580  171.6880  135.2470 O   0  0  0  0  0  0  0  0  0  0  0  0
  189.2970  178.8130  143.3190 O   0  0  0  0  0  0  0  0  0  0  0  0
  189.0350  178.3460  144.6340 C   0  0  0  0  0  1  0  0  0  0  0  0
  184.1420  178.1270  140.5750 C   0  0  1  0  0  3  0  0  0  0  0  0
  183.3890  176.9770  140.9580 O   0  0  0  0  0  0  0  0  0  0  0  0
  183.0620  176.0950  139.8840 C   0  0  0  0  0  1  0  0  0  0  0  0
  183.5330  179.5690  140.5490 C   0  0  1  0  0  3  0  0  0  0  0  0
  183.7510  179.9310  139.0350 C   0  0  2  0  0  3  0  0  0  0  0  0
  182.6430  179.6760  138.3010 O   0  0  0  0  0  1  0  0  0  0  0  0
  184.9590  179.5230  138.4230 O   0  0  0  0  0  0  0  0  0  0  0  0
  184.4480  178.9200  137.2820 C   0  0  0  0  0  2  0  0  0  0  0  0
  184.4400  177.4650  137.0590 C   0  0  0  0  0  1  0  0  0  0  0  0
  182.1490  179.7790  140.8320 O   0  0  0  0  0  0  0  0  0  0  0  0
  181.8010  179.1010  143.2360 C   0  0  0  0  0  1  0  0  0  0  0  0
  181.7090  178.7390  141.7210 C   0  0  1  0  0  3  0  0  0  0  0  0
  180.2820  178.4060  141.3710 C   0  0  1  0  0  3  0  0  0  0  0  0
  179.2170  178.5240  142.4200 C   0  0  0  0  0  1  0  0  0  0  0  0
  179.1240  179.7360  138.0820 C   0  0  1  0  0  3  0  0  0  0  0  0
  180.8300  173.5350  137.0910 C   0  0  0  0  0  3  0  0  0  0  0  0
  181.6270  174.5910  136.7910 C   0  0  0  0  0  3  0  0  0  0  0  0
  180.0400  181.2620  140.9760 O   0  0  0  0  0  1  0  0  0  0  0  0
  180.0320  176.1690  137.8940 C   0  0  0  0  0  0  0  0  0  0  0  0
  181.3080  176.0640  136.9930 C   0  0  2  0  0  3  0  0  0  0  0  0
  179.5370  178.5590  138.8720 C   0  0  0  0  0  0  0  0  0  0  0  0
  179.5040  173.7360  137.7110 C   0  0  0  0  0  3  0  0  0  0  0  0
  179.2980  180.4610  140.1470 C   0  0  1  0  0  3  0  0  0  0  0  0
  179.3000  180.9080  138.8330 O   0  0  0  0  0  0  0  0  0  0  0  0
  179.8540  179.0570  140.1270 N   0  0  0  0  0  0  0  0  0  0  0  0
  179.7530  177.2860  138.3940 C   0  0  0  0  0  0  0  0  0  0  0  0
  179.1720  174.9610  138.0990 C   0  0  0  0  0  3  0  0  0  0  0  0
  178.9360  179.8580  136.5710 C   0  0  0  0  0  2  0  0  0  0  0  0
  179.9060  180.9350  136.0530 C   0  0  0  0  0  1  0  0  0  0  0  0
  180.9640  176.7360  135.7870 O   0  0  0  0  0  0  0  0  0  0  0  0
  181.4420  176.1250  134.6290 C   0  0  0  0  0  1  0  0  0  0  0  0
  1  8  2  0  0  0  0
  2  6  1  0  0  0  0
  3  7  1  0  0  0  0
  3 32  1  1  0  0  0
  4  7  1  0  0  0  0
  4  2  1  0  0  0  0
  4  6  1  0  0  0  0
  5 10  1  1  0  0  0
  5  3  1  0  0  0  0
  8  4  1  0  0  0  0
  9 11  1  6  0  0  0
  9  1  1  0  0  0  0
  9  5  1  0  0  0  0
 11 12  1  6  0  0  0
 13 11  1  0  0  0  0
 13 14  1  0  0  0  0
 16 17  1  0  0  0  0
 17 15  1  0  0  0  0
 17 14  1  0  0  0  0
 18 17  2  0  0  0  0
 19 11  1  0  0  0  0
 20 22  1  0  0  0  0
 21 22  1  0  0  0  0
 22 19  1  0  0  0  0
 23 19  1  0  0  0  0
 24 25  1  1  0  0  0
 24 26  1  0  0  0  0
 24 23  1  0  0  0  0
 27 28  1  1  0  0  0
 27 29  1  0  0  0  0
 27 26  1  0  0  0  0
 29 30  1  0  0  0  0
 31 29  2  0  0  0  0
 32 33  1  0  0  0  0
 34 35  1  1  0  0  0
 34  8  1  0  0  0  0
 36 35  1  0  0  0  0
 37 34  1  0  0  0  0
 37 43  1  6  0  0  0
 38 39  1  6  0  0  0
 38 37  1  0  0  0  0
 40 38  1  0  0  0  0
 41 40  1  0  0  0  0
 42 41  1  0  0  0  0
 43 45  1  0  0  0  0
 45 44  1  1  0  0  0
 46 45  1  0  0  0  0
 46 47  1  1  0  0  0
 48 61  1  6  0  0  0
 48 57  1  0  0  0  0
 48 54  1  0  0  0  0
 49 55  1  0  0  0  0
 50 53  1  0  0  0  0
 50 49  2  0  0  0  0
 52 60  1  0  0  0  0
 52 59  2  0  0  0  0
 53 63  1  6  0  0  0
 53 52  1  0  0  0  0
 54 58  1  0  0  0  0
 55 60  2  0  0  0  0
 56 51  1  1  0  0  0
 57 56  1  0  0  0  0
 58 56  1  0  0  0  0
 58 46  1  0  0  0  0
 59 54  2  0  0  0  0
 62 61  1  0  0  0  0
 64 63  1  0  0  0  0
M  END
>  <MODEL>
8

>  <REMARK>
 VINA RESULT:      -3.0      2.477      6.725
  Name = 
  24 active torsions:
  status: ('A' for Active; 'I' for Inactive)
    1  A    between atoms: C_2  and  C_23
    2  A    between atoms: O_6  and  C_17
    3  A    between atoms: C_7  and  C_13
    4  A    between atoms: C_7  and  O_32
    5  A    between atoms: C_7  and  C_33
    6  A    between atoms: C_8  and  C_26
    7  A    between atoms: C_8  and  C_44
    8  A    between atoms: N_9  and  C_26
    9  A    between atoms: N_9  and  C_31
   10  A    between atoms: N_9  and  P_51
   11  A    between atoms: O_12  and  C_21
   12  A    between atoms: C_13  and  O_36
   13  A    between atoms: O_19  and  C_33
   14  A    between atoms: C_20  and  C_28
   15  A    between atoms: O_24  and  P_43
   16  A    between atoms: O_24  and  C_54
   17  A    between atoms: C_25  and  N_48
   18  A    between atoms: C_25  and  C_63
   19  A    between atoms: C_28  and  C_44
   20  A    between atoms: C_31  and  C_54
   21  A    between atoms: C_31  and  C_58
   22  A    between atoms: O_32  and  C_63
   23  A    between atoms: C_33  and  C_53
   24  A    between atoms: O_36  and  C_40
                            x       y       z     vdW  Elec       q    Type
                         _______ _______ _______ _____ _____    ______ ____

>  <TORSDO>
F 24

$$$$
=
 OpenBabel11062412013D

 64 67  0  0  1  0  0  0  0  0999 V2000
  189.2930  176.9120  137.2120 C   0  0  0  0  0  3  0  0  0  0  0  0
  185.6140  176.4960  137.4110 C   0  0  0  0  0  2  0  0  0  0  0  0
  187.7070  174.7430  135.6600 C   0  0  1  0  0  3  0  0  0  0  0  0
  186.7780  176.8320  136.4990 C   0  0  0  0  0  0  0  0  0  0  0  0
  189.2060  174.8470  135.7550 C   0  0  2  0  0  3  0  0  0  0  0  0
  185.5620  177.7090  136.5370 C   0  0  0  0  0  2  0  0  0  0  0  0
  186.9500  175.9960  135.2690 C   0  0  0  0  0  2  0  0  0  0  0  0
  188.0080  177.3320  137.2890 C   0  0  0  0  0  0  0  0  0  0  0  0
  190.0310  176.0210  136.2780 C   0  0  2  0  0  3  0  0  0  0  0  0
  189.7270  174.2660  134.5940 O   0  0  0  0  0  1  0  0  0  0  0  0
  191.5500  175.6110  136.8100 C   0  0  1  0  0  0  0  0  0  0  0  0
  192.4810  176.2540  135.7480 C   0  0  0  0  0  1  0  0  0  0  0  0
  191.9530  176.3640  138.0600 C   0  0  0  0  0  2  0  0  0  0  0  0
  193.0450  175.8840  138.7280 O   0  0  0  0  0  0  0  0  0  0  0  0
  194.7210  176.7240  140.7780 O   0  0  0  0  0  1  0  0  0  0  0  0
  193.5200  178.3910  139.2200 O   0  0  0  0  0  0  0  0  0  0  0  0
  193.3410  177.0940  139.9260 P   0  0  0  0  0  0  0  0  0  0  0  0
  191.9990  177.2100  140.9420 O   0  0  0  0  0  1  0  0  0  0  0  0
  191.7440  174.0620  136.9060 N   0  0  0  0  0  0  0  0  0  0  0  0
  192.8980  172.7490  134.6190 O   0  0  0  0  0  1  0  0  0  0  0  0
  190.6380  171.6520  135.5370 O   0  0  0  0  0  1  0  0  0  0  0  0
  191.5930  173.1460  135.3690 P   0  0  0  0  0  0  0  0  0  0  0  0
  193.0720  173.6080  137.4390 C   0  0  0  0  0  2  0  0  0  0  0  0
  194.4150  173.7210  136.4790 C   0  0  2  0  0  3  0  0  0  0  0  0
  195.2350  172.5830  136.2970 O   0  0  0  0  0  1  0  0  0  0  0  0
  195.3750  174.8600  136.7700 C   0  0  0  0  0  2  0  0  0  0  0  0
  196.7010  174.3570  137.3540 C   0  0  1  0  0  3  0  0  0  0  0  0
  197.8040  175.1820  137.0240 O   0  0  0  0  0  1  0  0  0  0  0  0
  196.5730  174.3700  138.8200 C   0  0  0  0  0  0  0  0  0  0  0  0
  195.8130  173.4760  139.4610 O   0  0  0  0  0  0  0  0  0  0  0  0
  197.1480  175.3250  139.4740 O   0  0  0  0  0  1  0  0  0  0  0  0
  187.3100  173.6100  134.8840 O   0  0  0  0  0  0  0  0  0  0  0  0
  187.1820  172.4420  135.6810 C   0  0  0  0  0  1  0  0  0  0  0  0
  187.7410  178.3680  138.3110 C   0  0  1  0  0  3  0  0  0  0  0  0
  187.9350  179.6680  137.7550 O   0  0  0  0  0  0  0  0  0  0  0  0
  189.2170  179.8760  137.1610 C   0  0  0  0  0  1  0  0  0  0  0  0
  186.6600  178.0650  139.4020 C   0  0  1  0  0  3  0  0  0  0  0  0
  187.5290  178.2300  140.7010 C   0  0  2  0  0  3  0  0  0  0  0  0
  188.2120  179.3990  140.6940 O   0  0  0  0  0  1  0  0  0  0  0  0
  188.2860  177.1190  141.1390 O   0  0  0  0  0  0  0  0  0  0  0  0
  187.9950  177.1610  142.4960 C   0  0  0  0  0  2  0  0  0  0  0  0
  188.4850  176.1710  143.4680 C   0  0  0  0  0  1  0  0  0  0  0  0
  185.5220  178.9150  139.5520 O   0  0  0  0  0  0  0  0  0  0  0  0
  184.4630  177.9710  141.6360 C   0  0  0  0  0  1  0  0  0  0  0  0
  184.4420  178.1320  140.0840 C   0  0  1  0  0  3  0  0  0  0  0  0
  183.1490  178.7820  139.6660 C   0  0  1  0  0  3  0  0  0  0  0  0
  182.9850  179.2590  138.2530 C   0  0  0  0  0  1  0  0  0  0  0  0
  180.3350  176.5120  140.5900 C   0  0  1  0  0  3  0  0  0  0  0  0
  183.4910  173.6600  135.6660 C   0  0  0  0  0  3  0  0  0  0  0  0
  182.3450  174.3720  135.5130 C   0  0  0  0  0  3  0  0  0  0  0  0
  180.9780  179.7720  141.3010 O   0  0  0  0  0  1  0  0  0  0  0  0
  182.4270  175.1040  137.9020 C   0  0  0  0  0  0  0  0  0  0  0  0
  181.5500  175.0690  136.6050 C   0  0  2  0  0  3  0  0  0  0  0  0
  181.5670  176.7080  139.8000 C   0  0  0  0  0  0  0  0  0  0  0  0
  184.1250  173.5180  136.9930 C   0  0  0  0  0  3  0  0  0  0  0  0
  181.1740  178.4150  141.2940 C   0  0  1  0  0  3  0  0  0  0  0  0
  179.9830  177.7050  141.2390 O   0  0  0  0  0  0  0  0  0  0  0  0
  181.9800  178.0010  140.0860 N   0  0  0  0  0  0  0  0  0  0  0  0
  182.0670  175.8600  138.8380 C   0  0  0  0  0  0  0  0  0  0  0  0
  183.6300  174.2200  138.0040 C   0  0  0  0  0  3  0  0  0  0  0  0
  179.2870  175.4070  140.4740 C   0  0  0  0  0  2  0  0  0  0  0  0
  179.8780  174.1200  141.0760 C   0  0  0  0  0  1  0  0  0  0  0  0
  180.3690  174.3680  136.9780 O   0  0  0  0  0  0  0  0  0  0  0  0
  180.5690  173.0230  137.2830 C   0  0  0  0  0  1  0  0  0  0  0  0
  1  8  2  0  0  0  0
  3 32  1  6  0  0  0
  3  5  1  0  0  0  0
  4  6  1  0  0  0  0
  4  8  1  0  0  0  0
  4  2  1  0  0  0  0
  5 10  1  6  0  0  0
  5  9  1  0  0  0  0
  6  2  1  0  0  0  0
  7  3  1  0  0  0  0
  7  4  1  0  0  0  0
  8 34  1  0  0  0  0
  9 11  1  1  0  0  0
  9  1  1  0  0  0  0
 11 12  1  6  0  0  0
 11 19  1  0  0  0  0
 11 13  1  0  0  0  0
 13 14  1  0  0  0  0
 14 17  1  0  0  0  0
 16 17  2  0  0  0  0
 17 15  1  0  0  0  0
 17 18  1  0  0  0  0
 19 23  1  0  0  0  0
 20 22  1  0  0  0  0
 22 21  1  0  0  0  0
 22 19  1  0  0  0  0
 24 25  1  1  0  0  0
 24 26  1  0  0  0  0
 24 23  1  0  0  0  0
 26 27  1  0  0  0  0
 27 28  1  1  0  0  0
 27 29  1  0  0  0  0
 29 30  2  0  0  0  0
 29 31  1  0  0  0  0
 32 33  1  0  0  0  0
 34 35  1  6  0  0  0
 34 37  1  0  0  0  0
 36 35  1  0  0  0  0
 37 43  1  1  0  0  0
 37 38  1  0  0  0  0
 38 39  1  6  0  0  0
 38 40  1  0  0  0  0
 40 41  1  0  0  0  0
 41 42  1  0  0  0  0
 43 45  1  0  0  0  0
 45 44  1  1  0  0  0
 46 47  1  6  0  0  0
 46 45  1  0  0  0  0
 46 58  1  0  0  0  0
 48 61  1  6  0  0  0
 48 57  1  0  0  0  0
 49 55  1  0  0  0  0
 50 49  2  0  0  0  0
 50 53  1  0  0  0  0
 52 60  1  0  0  0  0
 52 59  2  0  0  0  0
 53 63  1  1  0  0  0
 53 52  1  0  0  0  0
 54 58  1  0  0  0  0
 54 48  1  0  0  0  0
 55 60  2  0  0  0  0
 56 51  1  6  0  0  0
 57 56  1  0  0  0  0
 58 56  1  0  0  0  0
 59 54  2  0  0  0  0
 61 62  1  0  0  0  0
 63 64  1  0  0  0  0
M  END
>  <MODEL>
9

>  <REMARK>
 VINA RESULT:      -2.5      3.903      7.228
  Name = 
  24 active torsions:
  status: ('A' for Active; 'I' for Inactive)
    1  A    between atoms: C_2  and  C_23
    2  A    between atoms: O_6  and  C_17
    3  A    between atoms: C_7  and  C_13
    4  A    between atoms: C_7  and  O_32
    5  A    between atoms: C_7  and  C_33
    6  A    between atoms: C_8  and  C_26
    7  A    between atoms: C_8  and  C_44
    8  A    between atoms: N_9  and  C_26
    9  A    between atoms: N_9  and  C_31
   10  A    between atoms: N_9  and  P_51
   11  A    between atoms: O_12  and  C_21
   12  A    between atoms: C_13  and  O_36
   13  A    between atoms: O_19  and  C_33
   14  A    between atoms: C_20  and  C_28
   15  A    between atoms: O_24  and  P_43
   16  A    between atoms: O_24  and  C_54
   17  A    between atoms: C_25  and  N_48
   18  A    between atoms: C_25  and  C_63
   19  A    between atoms: C_28  and  C_44
   20  A    between atoms: C_31  and  C_54
   21  A    between atoms: C_31  and  C_58
   22  A    between atoms: O_32  and  C_63
   23  A    between atoms: C_33  and  C_53
   24  A    between atoms: O_36  and  C_40
                            x       y       z     vdW  Elec       q    Type
                         _______ _______ _______ _____ _____    ______ ____

>  <TORSDO>
F 24

$$$$
