=
 OpenBabel11062417023D

 26 29  0  0  1  0  0  0  0  0999 V2000
  190.5640  177.9580  143.2140 C   0  0  0  0  0  2  0  0  0  0  0  0
  185.3700  179.1370  140.3450 C   0  0  1  0  0  3  0  0  0  0  0  0
  184.1420  178.6660  140.4720 C   0  0  0  0  0  0  0  0  0  0  0  0
  187.4750  176.4150  143.4990 C   0  0  0  0  0  2  0  0  0  0  0  0
  185.1430  178.3770  144.0380 C   0  0  0  0  0  2  0  0  0  0  0  0
  190.2060  178.4080  144.6300 C   0  0  0  0  0  2  0  0  0  0  0  0
  187.2190  178.2550  141.2820 C   0  0  1  0  0  3  0  0  0  0  0  0
  186.0560  179.1730  141.6340 C   0  0  2  0  0  3  0  0  0  0  0  0
  188.8230  176.3010  143.1020 O   0  0  0  0  0  0  0  0  0  0  0  0
  187.4860  178.4130  139.8960 O   0  0  0  0  0  0  0  0  0  0  0  0
  188.0070  177.4090  147.0050 O   0  0  0  0  0  0  0  0  0  0  0  0
  189.3460  177.4550  142.4460 C   0  0  1  0  0  3  0  0  0  0  0  0
  185.0240  178.5720  142.5520 C   0  0  2  0  0  3  0  0  0  0  0  0
  186.2590  178.6620  139.3610 N   0  0  0  0  0  2  0  0  0  0  0  0
  183.9090  178.3580  141.8670 C   0  0  0  0  0  0  0  0  0  0  0  0
  188.4190  178.6430  142.1240 C   0  0  0  0  0  2  0  0  0  0  0  0
  183.3090  178.3110  139.4170 O   0  0  0  0  0  1  0  0  0  0  0  0
  188.3340  177.2750  145.8350 C   0  0  0  0  0  0  0  0  0  0  0  0
  187.2350  177.2070  144.7980 C   0  0  1  0  0  3  0  0  0  0  0  0
  189.8010  177.2140  145.4830 C   0  0  2  0  0  3  0  0  0  0  0  0
  182.7240  177.8630  142.3970 O   0  0  0  0  0  1  0  0  0  0  0  0
  186.5660  178.5580  144.5630 C   0  0  0  0  0  2  0  0  0  0  0  0
  190.5960  177.1660  146.6320 O   0  0  0  0  0  0  0  0  0  0  0  0
  191.7360  176.4530  146.2490 C   0  0  0  0  0  2  0  0  0  0  0  0
  192.3260  177.0150  148.3530 O   0  0  0  0  0  1  0  0  0  0  0  0
  192.4740  176.0380  147.4270 N   0  0  0  0  0  2  0  0  0  0  0  0
  1  6  1  0  0  0  0
  2 14  1  6  0  0  0
  2  3  1  0  0  0  0
  2  8  1  0  0  0  0
  3 15  2  0  0  0  0
  4 19  1  0  0  0  0
  5 22  1  0  0  0  0
  6 20  1  0  0  0  0
  7  8  1  0  0  0  0
  7 16  1  1  0  0  0
  8 13  1  0  0  0  0
  9  4  1  0  0  0  0
 10  7  1  0  0  0  0
 12  9  1  0  0  0  0
 12  1  1  0  0  0  0
 13  5  1  0  0  0  0
 14 10  1  0  0  0  0
 15 21  1  0  0  0  0
 15 13  1  0  0  0  0
 16 12  1  0  0  0  0
 17  3  1  0  0  0  0
 18 11  2  0  0  0  0
 19 18  1  0  0  0  0
 20 18  1  0  0  0  0
 20 23  1  0  0  0  0
 22 19  1  0  0  0  0
 24 23  1  0  0  0  0
 24 26  1  0  0  0  0
 26 25  1  0  0  0  0
M  END
>  <MODEL>
1

>  <REMARK>
 VINA RESULT:      -8.7      0.000      0.000
  Name = 
  3 active torsions:
  status: ('A' for Active; 'I' for Inactive)
    1  A    between atoms: N_6  and  C_13
    2  A    between atoms: O_12  and  C_13
    3  A    between atoms: O_12  and  C_24
                            x       y       z     vdW  Elec       q    Type
                         _______ _______ _______ _____ _____    ______ ____

>  <TORSDO>
F 3

$$$$
=
 OpenBabel11062417023D

 26 29  0  0  1  0  0  0  0  0999 V2000
  185.1380  179.0020  143.9890 C   0  0  0  0  0  2  0  0  0  0  0  0
  189.9560  177.2180  147.1830 C   0  0  1  0  0  3  0  0  0  0  0  0
  190.9620  176.4020  146.9190 C   0  0  0  0  0  0  0  0  0  0  0  0
  187.5430  176.6270  143.2310 C   0  0  0  0  0  2  0  0  0  0  0  0
  190.4470  177.6710  143.4650 C   0  0  0  0  0  2  0  0  0  0  0  0
  185.8260  179.7260  142.8320 C   0  0  0  0  0  2  0  0  0  0  0  0
  188.0740  177.4230  145.9610 C   0  0  1  0  0  3  0  0  0  0  0  0
  189.5150  177.9170  145.9790 C   0  0  2  0  0  3  0  0  0  0  0  0
  186.1910  176.8880  143.5380 O   0  0  0  0  0  0  0  0  0  0  0  0
  187.6790  177.2070  147.3070 O   0  0  0  0  0  0  0  0  0  0  0  0
  187.8840  178.8260  140.2970 O   0  0  0  0  0  0  0  0  0  0  0  0
  185.9940  177.8720  144.5510 C   0  0  1  0  0  3  0  0  0  0  0  0
  190.4080  177.3160  144.9260 C   0  0  2  0  0  3  0  0  0  0  0  0
  188.8280  176.8060  147.9180 N   0  0  0  0  0  2  0  0  0  0  0  0
  191.2770  176.5010  145.5100 C   0  0  0  0  0  0  0  0  0  0  0  0
  187.2070  178.4690  145.2900 C   0  0  0  0  0  2  0  0  0  0  0  0
  191.4670  175.4480  147.7940 O   0  0  0  0  0  1  0  0  0  0  0  0
  187.3660  178.4480  141.3380 C   0  0  0  0  0  0  0  0  0  0  0  0
  188.2180  177.6530  142.3020 C   0  0  1  0  0  3  0  0  0  0  0  0
  185.9270  178.8120  141.6180 C   0  0  2  0  0  3  0  0  0  0  0  0
  192.2930  175.8110  144.8590 O   0  0  0  0  0  1  0  0  0  0  0  0
  189.2570  178.5150  143.0130 C   0  0  0  0  0  2  0  0  0  0  0  0
  185.3360  179.4320  140.5140 O   0  0  0  0  0  0  0  0  0  0  0  0
  184.0730  178.8440  140.4070 C   0  0  0  0  0  2  0  0  0  0  0  0
  184.0730  180.5180  138.8940 O   0  0  0  0  0  1  0  0  0  0  0  0
  183.3180  179.4920  139.3500 N   0  0  0  0  0  2  0  0  0  0  0  0
  1 12  1  0  0  0  0
  2  3  1  6  0  0  0
  2 14  1  0  0  0  0
  3 17  1  0  0  0  0
  4  9  1  0  0  0  0
  5 13  1  0  0  0  0
  6  1  1  0  0  0  0
  7 16  1  1  0  0  0
  7  8  1  0  0  0  0
  7 10  1  0  0  0  0
  8  2  1  0  0  0  0
  9 12  1  0  0  0  0
 10 14  1  0  0  0  0
 11 18  2  0  0  0  0
 12 16  1  0  0  0  0
 13 15  1  0  0  0  0
 13  8  1  0  0  0  0
 15  3  2  0  0  0  0
 18 20  1  0  0  0  0
 18 19  1  0  0  0  0
 19 22  1  0  0  0  0
 19  4  1  0  0  0  0
 20  6  1  0  0  0  0
 21 15  1  0  0  0  0
 22  5  1  0  0  0  0
 23 20  1  0  0  0  0
 24 23  1  0  0  0  0
 25 26  1  0  0  0  0
 26 24  1  0  0  0  0
M  END
>  <MODEL>
2

>  <REMARK>
 VINA RESULT:      -8.2      1.681      7.473
  Name = 
  3 active torsions:
  status: ('A' for Active; 'I' for Inactive)
    1  A    between atoms: N_6  and  C_13
    2  A    between atoms: O_12  and  C_13
    3  A    between atoms: O_12  and  C_24
                            x       y       z     vdW  Elec       q    Type
                         _______ _______ _______ _____ _____    ______ ____

>  <TORSDO>
F 3

$$$$
=
 OpenBabel11062417023D

 26 29  0  0  1  0  0  0  0  0999 V2000
  191.7410  176.9930  143.8980 C   0  0  0  0  0  2  0  0  0  0  0  0
  189.7040  177.8090  138.2610 C   0  0  1  0  0  3  0  0  0  0  0  0
  188.5290  177.6140  137.6890 C   0  0  0  0  0  0  0  0  0  0  0  0
  188.6780  176.1640  142.5070 C   0  0  0  0  0  2  0  0  0  0  0  0
  187.2810  178.5220  141.0690 C   0  0  0  0  0  2  0  0  0  0  0  0
  190.8620  177.9880  144.6560 C   0  0  0  0  0  2  0  0  0  0  0  0
  190.3140  177.0640  140.2970 C   0  0  1  0  0  3  0  0  0  0  0  0
  189.5510  178.2150  139.6550 C   0  0  2  0  0  3  0  0  0  0  0  0
  189.8880  175.7040  143.0670 O   0  0  0  0  0  0  0  0  0  0  0  0
  191.3180  176.6520  139.3820 O   0  0  0  0  0  0  0  0  0  0  0  0
  187.5490  178.2960  145.2900 O   0  0  0  0  0  0  0  0  0  0  0  0
  191.0440  176.4350  142.6620 C   0  0  1  0  0  3  0  0  0  0  0  0
  188.0560  178.1660  139.8300 C   0  0  2  0  0  3  0  0  0  0  0  0
  190.7500  176.8700  138.1640 N   0  0  0  0  0  2  0  0  0  0  0  0
  187.4930  177.8870  138.6630 C   0  0  0  0  0  0  0  0  0  0  0  0
  190.9180  177.5460  141.6010 C   0  0  0  0  0  2  0  0  0  0  0  0
  188.3320  177.0270  136.4450 O   0  0  0  0  0  1  0  0  0  0  0  0
  188.3830  177.6880  144.6340 C   0  0  0  0  0  0  0  0  0  0  0  0
  188.0710  177.4100  143.1810 C   0  0  1  0  0  3  0  0  0  0  0  0
  189.6770  177.2740  145.2920 C   0  0  2  0  0  3  0  0  0  0  0  0
  186.1250  177.8150  138.4280 O   0  0  0  0  0  1  0  0  0  0  0  0
  188.1540  178.6620  142.3140 C   0  0  0  0  0  2  0  0  0  0  0  0
  189.6540  177.5340  146.6650 O   0  0  0  0  0  0  0  0  0  0  0  0
  190.3610  176.4760  147.2420 C   0  0  0  0  0  2  0  0  0  0  0  0
  192.5640  176.0470  147.4660 O   0  0  0  0  0  1  0  0  0  0  0  0
  191.6180  176.9610  147.7830 N   0  0  0  0  0  2  0  0  0  0  0  0
  1  6  1  0  0  0  0
  2  3  1  1  0  0  0
  2  8  1  0  0  0  0
  3 15  2  0  0  0  0
  4  9  1  0  0  0  0
  4 19  1  0  0  0  0
  5 22  1  0  0  0  0
  6 20  1  0  0  0  0
  7 16  1  1  0  0  0
  8 13  1  0  0  0  0
  8  7  1  0  0  0  0
 10  7  1  0  0  0  0
 12  9  1  0  0  0  0
 12  1  1  0  0  0  0
 13  5  1  0  0  0  0
 14  2  1  0  0  0  0
 14 10  1  0  0  0  0
 15 13  1  0  0  0  0
 16 12  1  0  0  0  0
 17  3  1  0  0  0  0
 18 11  2  0  0  0  0
 18 20  1  0  0  0  0
 19 18  1  0  0  0  0
 20 23  1  0  0  0  0
 21 15  1  0  0  0  0
 22 19  1  0  0  0  0
 23 24  1  0  0  0  0
 24 26  1  0  0  0  0
 25 26  1  0  0  0  0
M  END
>  <MODEL>
3

>  <REMARK>
 VINA RESULT:      -7.9      2.344      3.308
  Name = 
  3 active torsions:
  status: ('A' for Active; 'I' for Inactive)
    1  A    between atoms: N_6  and  C_13
    2  A    between atoms: O_12  and  C_13
    3  A    between atoms: O_12  and  C_24
                            x       y       z     vdW  Elec       q    Type
                         _______ _______ _______ _____ _____    ______ ____

>  <TORSDO>
F 3

$$$$
=
 OpenBabel11062417023D

 26 29  0  0  1  0  0  0  0  0999 V2000
  191.6660  176.5340  143.5250 C   0  0  0  0  0  2  0  0  0  0  0  0
  187.0720  177.9640  147.1920 C   0  0  1  0  0  3  0  0  0  0  0  0
  186.0630  178.8110  147.0870 C   0  0  0  0  0  0  0  0  0  0  0  0
  189.2500  178.9950  143.1950 C   0  0  0  0  0  2  0  0  0  0  0  0
  186.3520  177.9470  143.4840 C   0  0  0  0  0  2  0  0  0  0  0  0
  190.9000  175.9530  142.3370 C   0  0  0  0  0  2  0  0  0  0  0  0
  188.8740  177.8920  145.8420 C   0  0  1  0  0  3  0  0  0  0  0  0
  187.4310  177.4070  145.8920 C   0  0  2  0  0  3  0  0  0  0  0  0
  190.6140  178.6930  143.3860 O   0  0  0  0  0  0  0  0  0  0  0  0
  189.3520  177.9480  147.1780 O   0  0  0  0  0  0  0  0  0  0  0  0
  188.7040  177.1520  140.0530 O   0  0  0  0  0  0  0  0  0  0  0  0
  190.8600  177.5960  144.2650 C   0  0  1  0  0  3  0  0  0  0  0  0
  186.4830  178.1310  144.9710 C   0  0  2  0  0  3  0  0  0  0  0  0
  188.2470  178.2820  147.9000 N   0  0  0  0  0  2  0  0  0  0  0  0
  185.6620  178.8770  145.6970 C   0  0  0  0  0  0  0  0  0  0  0  0
  189.6860  176.9250  145.0040 C   0  0  0  0  0  2  0  0  0  0  0  0
  185.6230  179.6600  148.0950 O   0  0  0  0  0  1  0  0  0  0  0  0
  189.2890  177.4040  141.0970 C   0  0  0  0  0  0  0  0  0  0  0  0
  188.5070  178.0870  142.1970 C   0  0  1  0  0  3  0  0  0  0  0  0
  190.7370  177.0020  141.2450 C   0  0  2  0  0  3  0  0  0  0  0  0
  184.6170  179.6430  145.1940 O   0  0  0  0  0  1  0  0  0  0  0  0
  187.5020  177.1550  142.8660 C   0  0  0  0  0  2  0  0  0  0  0  0
  191.2530  176.5110  140.0420 O   0  0  0  0  0  0  0  0  0  0  0  0
  192.2090  177.4520  139.6520 C   0  0  0  0  0  2  0  0  0  0  0  0
  194.3490  176.8350  140.0130 O   0  0  0  0  0  1  0  0  0  0  0  0
  193.3620  176.7750  139.0880 N   0  0  0  0  0  2  0  0  0  0  0  0
  1 12  1  0  0  0  0
  2  3  1  6  0  0  0
  2 14  1  0  0  0  0
  3 17  1  0  0  0  0
  4  9  1  0  0  0  0
  5 13  1  0  0  0  0
  6  1  1  0  0  0  0
  7 16  1  6  0  0  0
  7  8  1  0  0  0  0
  7 10  1  0  0  0  0
  8  2  1  0  0  0  0
  9 12  1  0  0  0  0
 10 14  1  0  0  0  0
 11 18  2  0  0  0  0
 12 16  1  0  0  0  0
 13 15  1  0  0  0  0
 13  8  1  0  0  0  0
 15  3  2  0  0  0  0
 18 20  1  0  0  0  0
 18 19  1  0  0  0  0
 19 22  1  0  0  0  0
 19  4  1  0  0  0  0
 20  6  1  0  0  0  0
 21 15  1  0  0  0  0
 22  5  1  0  0  0  0
 23 20  1  0  0  0  0
 24 23  1  0  0  0  0
 26 24  1  0  0  0  0
 26 25  1  0  0  0  0
M  END
>  <MODEL>
4

>  <REMARK>
 VINA RESULT:      -7.9      2.934      5.535
  Name = 
  3 active torsions:
  status: ('A' for Active; 'I' for Inactive)
    1  A    between atoms: N_6  and  C_13
    2  A    between atoms: O_12  and  C_13
    3  A    between atoms: O_12  and  C_24
                            x       y       z     vdW  Elec       q    Type
                         _______ _______ _______ _____ _____    ______ ____

>  <TORSDO>
F 3

$$$$
=
 OpenBabel11062417023D

 26 29  0  0  1  0  0  0  0  0999 V2000
  192.0560  176.8160  142.0550 C   0  0  0  0  0  2  0  0  0  0  0  0
  189.2990  176.8810  147.4390 C   0  0  1  0  0  3  0  0  0  0  0  0
  188.3180  177.6100  147.9430 C   0  0  0  0  0  0  0  0  0  0  0  0
  189.6690  179.0000  143.2970 C   0  0  0  0  0  2  0  0  0  0  0  0
  187.1500  177.5920  144.4150 C   0  0  0  0  0  2  0  0  0  0  0  0
  190.8870  176.4260  141.1510 C   0  0  0  0  0  2  0  0  0  0  0  0
  190.4070  177.3100  145.5260 C   0  0  1  0  0  3  0  0  0  0  0  0
  189.1140  176.6660  146.0070 C   0  0  2  0  0  3  0  0  0  0  0  0
  191.0000  178.8200  142.8670 O   0  0  0  0  0  0  0  0  0  0  0  0
  191.3810  177.1280  146.5430 O   0  0  0  0  0  0  0  0  0  0  0  0
  187.9390  177.8360  140.2610 O   0  0  0  0  0  0  0  0  0  0  0  0
  191.5970  177.5930  143.2850 C   0  0  1  0  0  3  0  0  0  0  0  0
  187.8640  177.4600  145.7320 C   0  0  2  0  0  3  0  0  0  0  0  0
  190.6540  177.1690  147.6930 N   0  0  0  0  0  2  0  0  0  0  0  0
  187.3920  177.9320  146.8780 C   0  0  0  0  0  0  0  0  0  0  0  0
  190.8300  176.6480  144.2290 C   0  0  0  0  0  2  0  0  0  0  0  0
  188.3060  178.1640  149.2170 O   0  0  0  0  0  1  0  0  0  0  0  0
  188.8890  177.9200  141.0250 C   0  0  0  0  0  0  0  0  0  0  0  0
  188.6030  178.2530  142.4730 C   0  0  1  0  0  3  0  0  0  0  0  0
  190.2810  177.6620  140.5000 C   0  0  2  0  0  3  0  0  0  0  0  0
  186.2200  178.6660  147.0210 O   0  0  0  0  0  1  0  0  0  0  0  0
  187.9670  177.0890  143.2270 C   0  0  0  0  0  2  0  0  0  0  0  0
  190.2780  177.5070  139.1110 O   0  0  0  0  0  0  0  0  0  0  0  0
  190.7150  176.1970  138.8960 C   0  0  0  0  0  2  0  0  0  0  0  0
  190.4500  174.3500  137.6270 O   0  0  0  0  0  1  0  0  0  0  0  0
  189.9630  175.6000  137.8080 N   0  0  0  0  0  2  0  0  0  0  0  0
  1 12  1  0  0  0  0
  2 14  1  6  0  0  0
  2  3  1  0  0  0  0
  3 17  1  0  0  0  0
  5 13  1  0  0  0  0
  6  1  1  0  0  0  0
  7 16  1  6  0  0  0
  7  8  1  0  0  0  0
  7 10  1  0  0  0  0
  8  2  1  0  0  0  0
  9 12  1  0  0  0  0
  9  4  1  0  0  0  0
 10 14  1  0  0  0  0
 11 18  2  0  0  0  0
 12 16  1  0  0  0  0
 13  8  1  0  0  0  0
 13 15  1  0  0  0  0
 15 21  1  0  0  0  0
 15  3  2  0  0  0  0
 18 19  1  0  0  0  0
 19 22  1  0  0  0  0
 19  4  1  0  0  0  0
 20 18  1  0  0  0  0
 20  6  1  0  0  0  0
 22  5  1  0  0  0  0
 23 20  1  0  0  0  0
 24 23  1  0  0  0  0
 25 26  1  0  0  0  0
 26 24  1  0  0  0  0
M  END
>  <MODEL>
5

>  <REMARK>
 VINA RESULT:      -7.8      2.749      6.468
  Name = 
  3 active torsions:
  status: ('A' for Active; 'I' for Inactive)
    1  A    between atoms: N_6  and  C_13
    2  A    between atoms: O_12  and  C_13
    3  A    between atoms: O_12  and  C_24
                            x       y       z     vdW  Elec       q    Type
                         _______ _______ _______ _____ _____    ______ ____

>  <TORSDO>
F 3

$$$$
=
 OpenBabel11062417023D

 26 29  0  0  1  0  0  0  0  0999 V2000
  188.6630  177.1240  147.7240 C   0  0  0  0  0  2  0  0  0  0  0  0
  185.4850  178.3150  142.7160 C   0  0  1  0  0  3  0  0  0  0  0  0
  185.8170  178.7880  141.5270 C   0  0  0  0  0  0  0  0  0  0  0  0
  189.6660  178.6280  144.7680 C   0  0  0  0  0  2  0  0  0  0  0  0
  188.9870  176.9820  142.2360 C   0  0  0  0  0  2  0  0  0  0  0  0
  189.5930  176.0280  147.2060 C   0  0  0  0  0  2  0  0  0  0  0  0
  186.7980  178.3220  144.5470 C   0  0  1  0  0  3  0  0  0  0  0  0
  186.5620  177.5070  143.2820 C   0  0  2  0  0  3  0  0  0  0  0  0
  189.4300  178.7750  146.1500 O   0  0  0  0  0  0  0  0  0  0  0  0
  185.5590  178.9070  144.9170 O   0  0  0  0  0  0  0  0  0  0  0  0
  192.0720  175.8430  144.9050 O   0  0  0  0  0  0  0  0  0  0  0  0
  188.2630  178.1050  146.6260 C   0  0  1  0  0  3  0  0  0  0  0  0
  187.6330  177.6360  142.2300 C   0  0  2  0  0  3  0  0  0  0  0  0
  184.9430  179.1360  143.7240 N   0  0  0  0  0  2  0  0  0  0  0  0
  187.1480  178.3190  141.2020 C   0  0  0  0  0  0  0  0  0  0  0  0
  187.3220  177.4000  145.6310 C   0  0  0  0  0  2  0  0  0  0  0  0
  185.1070  179.7520  140.8230 O   0  0  0  0  0  1  0  0  0  0  0  0
  191.1740  176.5470  145.3430 C   0  0  0  0  0  0  0  0  0  0  0  0
  190.3150  177.2950  144.3480 C   0  0  1  0  0  3  0  0  0  0  0  0
  190.9500  176.6110  146.8350 C   0  0  2  0  0  3  0  0  0  0  0  0
  187.8330  178.5880  140.0220 O   0  0  0  0  0  1  0  0  0  0  0  0
  189.3640  176.3770  143.5870 C   0  0  0  0  0  2  0  0  0  0  0  0
  191.9580  175.9350  147.5280 O   0  0  0  0  0  0  0  0  0  0  0  0
  192.2900  176.7800  148.5910 C   0  0  0  0  0  2  0  0  0  0  0  0
  193.9750  177.3770  149.9670 O   0  0  0  0  0  1  0  0  0  0  0  0
  193.5560  176.3680  149.1690 N   0  0  0  0  0  2  0  0  0  0  0  0
  2  3  1  6  0  0  0
  2  8  1  0  0  0  0
  2 14  1  0  0  0  0
  4  9  1  0  0  0  0
  5 22  1  0  0  0  0
  6  1  1  0  0  0  0
  7 10  1  0  0  0  0
  7 16  1  1  0  0  0
  8  7  1  0  0  0  0
  9 12  1  0  0  0  0
 11 18  2  0  0  0  0
 12  1  1  0  0  0  0
 13  5  1  0  0  0  0
 13  8  1  0  0  0  0
 14 10  1  0  0  0  0
 15  3  2  0  0  0  0
 15 13  1  0  0  0  0
 16 12  1  0  0  0  0
 17  3  1  0  0  0  0
 18 20  1  0  0  0  0
 19  4  1  0  0  0  0
 19 18  1  0  0  0  0
 20  6  1  0  0  0  0
 20 23  1  0  0  0  0
 21 15  1  0  0  0  0
 22 19  1  0  0  0  0
 23 24  1  0  0  0  0
 24 26  1  0  0  0  0
 26 25  1  0  0  0  0
M  END
>  <MODEL>
6

>  <REMARK>
 VINA RESULT:      -7.7      1.874      3.576
  Name = 
  3 active torsions:
  status: ('A' for Active; 'I' for Inactive)
    1  A    between atoms: N_6  and  C_13
    2  A    between atoms: O_12  and  C_13
    3  A    between atoms: O_12  and  C_24
                            x       y       z     vdW  Elec       q    Type
                         _______ _______ _______ _____ _____    ______ ____

>  <TORSDO>
F 3

$$$$
=
 OpenBabel11062417023D

 26 29  0  0  1  0  0  0  0  0999 V2000
  188.0220  177.8890  140.5720 C   0  0  0  0  0  2  0  0  0  0  0  0
  188.0200  177.9410  146.6210 C   0  0  1  0  0  3  0  0  0  0  0  0
  188.7480  177.3150  147.5300 C   0  0  0  0  0  0  0  0  0  0  0  0
  189.8370  175.9610  142.8050 C   0  0  0  0  0  2  0  0  0  0  0  0
  191.3770  177.6150  144.9200 C   0  0  0  0  0  2  0  0  0  0  0  0
  189.4140  178.4530  140.2920 C   0  0  0  0  0  2  0  0  0  0  0  0
  187.9640  177.4590  144.4210 C   0  0  1  0  0  3  0  0  0  0  0  0
  188.8060  178.2340  145.4260 C   0  0  2  0  0  3  0  0  0  0  0  0
  188.8360  175.9960  141.8130 O   0  0  0  0  0  0  0  0  0  0  0  0
  186.6200  177.4820  144.8800 O   0  0  0  0  0  0  0  0  0  0  0  0
  192.5960  177.4440  140.8670 O   0  0  0  0  0  0  0  0  0  0  0  0
  187.9660  177.1240  141.8900 C   0  0  1  0  0  3  0  0  0  0  0  0
  190.1330  177.6070  145.7650 C   0  0  2  0  0  3  0  0  0  0  0  0
  186.7450  177.4820  146.2360 N   0  0  0  0  0  2  0  0  0  0  0  0
  190.0890  177.1500  147.0090 C   0  0  0  0  0  0  0  0  0  0  0  0
  188.0960  178.1160  143.0620 C   0  0  0  0  0  2  0  0  0  0  0  0
  188.2500  176.7170  148.6800 O   0  0  0  0  0  1  0  0  0  0  0  0
  191.4210  177.2170  141.1170 C   0  0  0  0  0  0  0  0  0  0  0  0
  191.0580  176.8630  142.5420 C   0  0  1  0  0  3  0  0  0  0  0  0
  190.3980  177.3260  140.0110 C   0  0  2  0  0  3  0  0  0  0  0  0
  191.1500  176.5570  147.6840 O   0  0  0  0  0  1  0  0  0  0  0  0
  191.1310  178.0630  143.4810 C   0  0  0  0  0  2  0  0  0  0  0  0
  191.0120  177.5360  138.7730 O   0  0  0  0  0  0  0  0  0  0  0  0
  190.5090  176.5260  137.9490 C   0  0  0  0  0  2  0  0  0  0  0  0
  190.3990  174.2840  137.7150 O   0  0  0  0  0  1  0  0  0  0  0  0
  191.1470  175.2630  138.2750 N   0  0  0  0  0  2  0  0  0  0  0  0
  1 12  1  0  0  0  0
  2 14  1  6  0  0  0
  2  3  1  0  0  0  0
  3 17  1  0  0  0  0
  5 13  1  0  0  0  0
  6  1  1  0  0  0  0
  7 16  1  6  0  0  0
  7 10  1  0  0  0  0
  7  8  1  0  0  0  0
  8 13  1  0  0  0  0
  8  2  1  0  0  0  0
  9 12  1  0  0  0  0
  9  4  1  0  0  0  0
 10 14  1  0  0  0  0
 11 18  2  0  0  0  0
 12 16  1  0  0  0  0
 13 15  1  0  0  0  0
 15  3  2  0  0  0  0
 15 21  1  0  0  0  0
 18 19  1  0  0  0  0
 19  4  1  0  0  0  0
 19 22  1  0  0  0  0
 20  6  1  0  0  0  0
 20 18  1  0  0  0  0
 22  5  1  0  0  0  0
 23 20  1  0  0  0  0
 24 26  1  0  0  0  0
 24 23  1  0  0  0  0
 25 26  1  0  0  0  0
M  END
>  <MODEL>
7

>  <REMARK>
 VINA RESULT:      -7.6      3.051      6.614
  Name = 
  3 active torsions:
  status: ('A' for Active; 'I' for Inactive)
    1  A    between atoms: N_6  and  C_13
    2  A    between atoms: O_12  and  C_13
    3  A    between atoms: O_12  and  C_24
                            x       y       z     vdW  Elec       q    Type
                         _______ _______ _______ _____ _____    ______ ____

>  <TORSDO>
F 3

$$$$
=
 OpenBabel11062417023D

 26 29  0  0  1  0  0  0  0  0999 V2000
  191.5650  177.9760  144.6110 C   0  0  0  0  0  2  0  0  0  0  0  0
  191.9410  177.1840  138.6260 C   0  0  1  0  0  3  0  0  0  0  0  0
  191.2500  176.4550  137.7660 C   0  0  0  0  0  0  0  0  0  0  0  0
  189.8300  175.7970  142.5510 C   0  0  0  0  0  2  0  0  0  0  0  0
  188.4770  177.1760  140.1320 C   0  0  0  0  0  2  0  0  0  0  0  0
  190.1770  178.6050  144.7200 C   0  0  0  0  0  2  0  0  0  0  0  0
  191.8460  177.0120  140.8700 C   0  0  1  0  0  3  0  0  0  0  0  0
  191.0930  177.6590  139.7150 C   0  0  2  0  0  3  0  0  0  0  0  0
  190.7690  175.9470  143.5920 O   0  0  0  0  0  0  0  0  0  0  0  0
  193.2150  176.9400  140.5010 O   0  0  0  0  0  0  0  0  0  0  0  0
  187.0060  177.5990  144.0820 O   0  0  0  0  0  0  0  0  0  0  0  0
  191.6780  177.0330  143.4170 C   0  0  1  0  0  3  0  0  0  0  0  0
  189.7700  177.0220  139.3800 C   0  0  2  0  0  3  0  0  0  0  0  0
  193.1740  176.7550  139.1530 N   0  0  0  0  0  2  0  0  0  0  0  0
  189.8750  176.3950  138.2160 C   0  0  0  0  0  0  0  0  0  0  0  0
  191.6520  177.8550  142.1140 C   0  0  0  0  0  2  0  0  0  0  0  0
  191.7990  175.6910  136.7440 O   0  0  0  0  0  1  0  0  0  0  0  0
  188.1860  177.3120  143.9430 C   0  0  0  0  0  0  0  0  0  0  0  0
  188.6250  176.7550  142.6070 C   0  0  1  0  0  3  0  0  0  0  0  0
  189.1420  177.5510  145.0880 C   0  0  2  0  0  3  0  0  0  0  0  0
  188.8400  175.7390  137.5610 O   0  0  0  0  0  1  0  0  0  0  0  0
  188.6480  177.8140  141.5090 C   0  0  0  0  0  2  0  0  0  0  0  0
  188.4600  177.9450  146.2430 O   0  0  0  0  0  0  0  0  0  0  0  0
  189.1200  177.2930  147.2880 C   0  0  0  0  0  2  0  0  0  0  0  0
  187.9300  178.0180  149.0620 O   0  0  0  0  0  1  0  0  0  0  0  0
  189.1380  178.1430  148.4640 N   0  0  0  0  0  2  0  0  0  0  0  0
  1  6  1  0  0  0  0
  2  3  1  1  0  0  0
  2 14  1  0  0  0  0
  2  8  1  0  0  0  0
  3 15  2  0  0  0  0
  4 19  1  0  0  0  0
  4  9  1  0  0  0  0
  5 22  1  0  0  0  0
  6 20  1  0  0  0  0
  7 16  1  1  0  0  0
  8  7  1  0  0  0  0
 10  7  1  0  0  0  0
 12  9  1  0  0  0  0
 12  1  1  0  0  0  0
 13  8  1  0  0  0  0
 13  5  1  0  0  0  0
 14 10  1  0  0  0  0
 15 13  1  0  0  0  0
 16 12  1  0  0  0  0
 17  3  1  0  0  0  0
 18 11  2  0  0  0  0
 18 20  1  0  0  0  0
 19 18  1  0  0  0  0
 20 23  1  0  0  0  0
 21 15  1  0  0  0  0
 22 19  1  0  0  0  0
 23 24  1  0  0  0  0
 24 26  1  0  0  0  0
 26 25  1  0  0  0  0
M  END
>  <MODEL>
8

>  <REMARK>
 VINA RESULT:      -7.2      3.293      4.958
  Name = 
  3 active torsions:
  status: ('A' for Active; 'I' for Inactive)
    1  A    between atoms: N_6  and  C_13
    2  A    between atoms: O_12  and  C_13
    3  A    between atoms: O_12  and  C_24
                            x       y       z     vdW  Elec       q    Type
                         _______ _______ _______ _____ _____    ______ ____

>  <TORSDO>
F 3

$$$$
=
 OpenBabel11062417023D

 26 29  0  0  1  0  0  0  0  0999 V2000
  184.1920  178.6780  141.1350 C   0  0  0  0  0  2  0  0  0  0  0  0
  189.4500  176.8730  143.5190 C   0  0  1  0  0  3  0  0  0  0  0  0
  190.1040  177.2050  144.6180 C   0  0  0  0  0  0  0  0  0  0  0  0
  185.8930  179.8690  143.9080 C   0  0  0  0  0  2  0  0  0  0  0  0
  186.6630  177.6660  145.9420 C   0  0  0  0  0  2  0  0  0  0  0  0
  183.2220  178.2150  142.2210 C   0  0  0  0  0  2  0  0  0  0  0  0
  187.6830  177.9730  142.6570 C   0  0  1  0  0  3  0  0  0  0  0  0
  188.0060  176.9360  143.7250 C   0  0  2  0  0  3  0  0  0  0  0  0
  185.4340  180.1260  142.6000 O   0  0  0  0  0  0  0  0  0  0  0  0
  188.6330  177.8220  141.6130 O   0  0  0  0  0  0  0  0  0  0  0  0
  182.6720  179.0030  145.4700 O   0  0  0  0  0  0  0  0  0  0  0  0
  185.5650  179.0280  141.6990 C   0  0  1  0  0  3  0  0  0  0  0  0
  187.9170  177.4330  145.1440 C   0  0  2  0  0  3  0  0  0  0  0  0
  189.7630  177.4270  142.2630 N   0  0  0  0  0  2  0  0  0  0  0  0
  189.1390  177.5100  145.6530 C   0  0  0  0  0  0  0  0  0  0  0  0
  186.2710  177.7380  142.1590 C   0  0  0  0  0  2  0  0  0  0  0  0
  191.4710  177.4450  144.6930 O   0  0  0  0  0  1  0  0  0  0  0  0
  183.4360  179.1520  144.5270 C   0  0  0  0  0  0  0  0  0  0  0  0
  184.9210  179.0780  144.8040 C   0  0  1  0  0  3  0  0  0  0  0  0
  182.8670  179.3720  143.1460 C   0  0  2  0  0  3  0  0  0  0  0  0
  189.4440  177.8770  146.9580 O   0  0  0  0  0  1  0  0  0  0  0  0
  185.3930  177.6560  145.0940 C   0  0  0  0  0  2  0  0  0  0  0  0
  181.4780  179.5280  143.1880 O   0  0  0  0  0  0  0  0  0  0  0  0
  180.9750  178.4730  142.4220 C   0  0  0  0  0  2  0  0  0  0  0  0
  179.6810  177.8780  144.1720 O   0  0  0  0  0  1  0  0  0  0  0  0
  179.6240  178.1580  142.8490 N   0  0  0  0  0  2  0  0  0  0  0  0
  1 12  1  0  0  0  0
  1  6  1  0  0  0  0
  2 14  1  6  0  0  0
  2  8  1  0  0  0  0
  2  3  1  0  0  0  0
  3 17  1  0  0  0  0
  3 15  2  0  0  0  0
  4 19  1  0  0  0  0
  6 20  1  0  0  0  0
  7 16  1  6  0  0  0
  7  8  1  0  0  0  0
  8 13  1  0  0  0  0
  9  4  1  0  0  0  0
 10 14  1  0  0  0  0
 10  7  1  0  0  0  0
 12 16  1  0  0  0  0
 12  9  1  0  0  0  0
 13 15  1  0  0  0  0
 13  5  1  0  0  0  0
 15 21  1  0  0  0  0
 18 19  1  0  0  0  0
 18 11  2  0  0  0  0
 19 22  1  0  0  0  0
 20 23  1  0  0  0  0
 20 18  1  0  0  0  0
 22  5  1  0  0  0  0
 24 26  1  0  0  0  0
 24 23  1  0  0  0  0
 26 25  1  0  0  0  0
M  END
>  <MODEL>
9

>  <REMARK>
 VINA RESULT:      -7.0      2.502      6.948
  Name = 
  3 active torsions:
  status: ('A' for Active; 'I' for Inactive)
    1  A    between atoms: N_6  and  C_13
    2  A    between atoms: O_12  and  C_13
    3  A    between atoms: O_12  and  C_24
                            x       y       z     vdW  Elec       q    Type
                         _______ _______ _______ _____ _____    ______ ____

>  <TORSDO>
F 3

$$$$
